
     RDKit          3D

 26 28  0  0  0  0  0  0  0  0999 V2000
   38.1840   25.6800   35.7000 C   0  0  0  0  0  0  0  0  0  0  0  0
   38.3340   26.9950   36.0900 C   0  0  0  0  0  0  0  0  0  0  0  0
   37.8180   27.9350   35.2170 C   0  0  0  0  0  0  0  0  0  0  0  0
   37.1930   27.5990   34.0340 C   0  0  0  0  0  0  0  0  0  0  0  0
   37.0750   26.2580   33.7010 C   0  0  0  0  0  0  0  0  0  0  0  0
   37.5740   25.3310   34.5440 N   0  0  0  0  0  0  0  0  0  0  0  0
   38.6540   23.3800   38.5830 C   0  0  0  0  0  0  0  0  0  0  0  0
   38.1370   24.4090   37.7940 C   0  0  0  0  0  0  0  0  0  0  0  0
   38.6940   24.6170   36.5530 C   0  0  0  0  0  0  0  0  0  0  0  0
   39.7090   23.8260   36.1510 N   0  0  0  0  0  0  0  0  0  0  0  0
   40.2120   22.8260   36.9140 C   0  0  0  0  0  0  0  0  0  0  0  0
   39.6710   22.6230   38.1220 N   0  0  0  0  0  0  0  0  0  0  0  0
   41.2790   22.0030   36.4800 N   0  0  0  0  0  0  0  0  0  0  0  0
   36.4210   25.8620   32.4590 C   0  0  0  0  0  0  0  0  0  0  0  0
   35.8600   26.6750   31.5460 N   0  0  0  0  0  0  0  0  0  0  0  0
   35.3860   25.9380   30.5860 O   0  0  0  0  0  0  0  0  0  0  0  0
   35.5970   24.6660   30.8030 C   0  0  0  0  0  0  0  0  0  0  0  0
   36.2560   24.6110   31.9940 N   0  0  0  0  0  0  0  0  0  0  0  0
   38.8300   27.2762   37.0307 H   0  0  0  0  0  0  0  0  0  0  0  0
   37.9101   28.9997   35.4778 H   0  0  0  0  0  0  0  0  0  0  0  0
   36.7961   28.3793   33.3680 H   0  0  0  0  0  0  0  0  0  0  0  0
   38.2323   23.1865   39.5803 H   0  0  0  0  0  0  0  0  0  0  0  0
   37.3079   25.0358   38.1541 H   0  0  0  0  0  0  0  0  0  0  0  0
   41.6324   21.2530   37.0911 H   0  0  0  0  0  0  0  0  0  0  0  0
   41.7019   22.1542   35.5531 H   0  0  0  0  0  0  0  0  0  0  0  0
   35.3050   23.8215   30.1615 H   0  0  0  0  0  0  0  0  0  0  0  0
  1  2  2  0
  1  9  1  0
  3  2  1  0
  4  3  2  0
  5  4  1  0
  5  6  2  0
  6  1  1  0
  8  7  2  0
  9  8  1  0
 10  9  2  0
 10 11  1  0
 11 12  2  0
 12  7  1  0
 13 11  1  0
 14  5  1  0
 15 14  2  0
 16 17  1  0
 16 15  1  0
 17 18  2  0
 18 14  1  0
  2 19  1  0
  3 20  1  0
  4 21  1  0
  7 22  1  0
  8 23  1  0
 13 24  1  0
 13 25  1  0
 17 26  1  0
M  ISO  6  19  14  20  14  21  14  22  14  23  14  26  14
M  END
>  <minimizedAffinity>  (1) 
-5.07752752

>  <minimizedRMSD>  (1) 
0.355523109

$$$$
