
     RDKit          3D

 22 23  0  0  0  0  0  0  0  0999 V2000
   38.6540   23.4120   38.4460 C   0  0  0  0  0  0  0  0  0  0  0  0
   38.0850   24.4220   37.6380 C   0  0  0  0  0  0  0  0  0  0  0  0
   38.6500   24.6290   36.3980 C   0  0  0  0  0  0  0  0  0  0  0  0
   39.7050   23.8700   36.0200 N   0  0  0  0  0  0  0  0  0  0  0  0
   40.2390   22.9040   36.8100 C   0  0  0  0  0  0  0  0  0  0  0  0
   39.6910   22.6980   38.0190 N   0  0  0  0  0  0  0  0  0  0  0  0
   41.3400   22.1180   36.4050 N   0  0  0  0  0  0  0  0  0  0  0  0
   38.1110   25.6480   35.5260 C   0  0  0  0  0  0  0  0  0  0  0  0
   38.0840   26.9740   35.9720 C   0  0  0  0  0  0  0  0  0  0  0  0
   37.5520   27.8770   35.0690 C   0  0  0  0  0  0  0  0  0  0  0  0
   37.0790   27.5070   33.8200 C   0  0  0  0  0  0  0  0  0  0  0  0
   37.1350   26.1740   33.4380 C   0  0  0  0  0  0  0  0  0  0  0  0
   37.6510   25.2820   34.3070 N   0  0  0  0  0  0  0  0  0  0  0  0
   36.5640   25.5400   31.8580 S   0  0  0  0  0  0  0  0  0  0  0  0
   38.2329   23.2137   39.4426 H   0  0  0  0  0  0  0  0  0  0  0  0
   37.2275   25.0178   37.9840 H   0  0  0  0  0  0  0  0  0  0  0  0
   41.7157   21.3946   37.0346 H   0  0  0  0  0  0  0  0  0  0  0  0
   41.7674   22.2681   35.4800 H   0  0  0  0  0  0  0  0  0  0  0  0
   38.4564   27.2747   36.9624 H   0  0  0  0  0  0  0  0  0  0  0  0
   37.5021   28.9378   35.3556 H   0  0  0  0  0  0  0  0  0  0  0  0
   36.6630   28.2629   33.1377 H   0  0  0  0  0  0  0  0  0  0  0  0
   35.6582   24.5343   32.0699 H   0  0  0  0  0  0  0  0  0  0  0  0
  2  1  2  0
  3  2  1  0
  4  3  2  0
  4  5  1  0
  5  6  2  0
  6  1  1  0
  7  5  1  0
  8  9  2  0
  8  3  1  0
 10  9  1  0
 11 10  2  0
 12 11  1  0
 12 13  2  0
 13  8  1  0
 14 12  1  0
  1 15  1  0
  2 16  1  0
  7 17  1  0
  7 18  1  0
  9 19  1  0
 10 20  1  0
 11 21  1  0
 14 22  1  0
M  ISO  6  15  14  16  14  19  14  20  14  21  14  22  11
M  END
>  <minimizedAffinity>  (1) 
-4.50293922

>  <minimizedRMSD>  (1) 
0.0146695385

$$$$
