
     RDKit          3D

 33 34  0  0  0  0  0  0  0  0999 V2000
   38.0190   25.5010   35.2630 C   0  0  0  0  0  0  0  0  0  0  0  0
   37.8600   26.8390   35.6390 C   0  0  0  0  0  0  0  0  0  0  0  0
   37.3150   27.6370   34.6460 C   0  0  0  0  0  0  0  0  0  0  0  0
   36.9540   27.1840   33.4010 C   0  0  0  0  0  0  0  0  0  0  0  0
   37.1420   25.8430   33.1010 C   0  0  0  0  0  0  0  0  0  0  0  0
   37.6720   25.0270   34.0420 N   0  0  0  0  0  0  0  0  0  0  0  0
   38.5790   23.5200   38.3630 C   0  0  0  0  0  0  0  0  0  0  0  0
   38.0010   24.4370   37.4650 C   0  0  0  0  0  0  0  0  0  0  0  0
   38.5830   24.5640   36.2240 C   0  0  0  0  0  0  0  0  0  0  0  0
   39.6660   23.8180   35.9250 N   0  0  0  0  0  0  0  0  0  0  0  0
   40.2090   22.9400   36.7990 C   0  0  0  0  0  0  0  0  0  0  0  0
   39.6460   22.8060   38.0210 N   0  0  0  0  0  0  0  0  0  0  0  0
   41.3520   22.1640   36.4520 N   0  0  0  0  0  0  0  0  0  0  0  0
   36.7940   25.2300   31.7940 C   0  0  0  0  0  0  0  0  0  0  0  0
   36.5220   23.7560   31.9530 C   0  0  0  0  0  0  0  0  0  0  0  0
   35.5830   25.9140   31.2180 C   0  0  0  0  0  0  0  0  0  0  0  0
   37.9880   25.3490   30.8690 C   0  0  0  0  0  0  0  0  0  0  0  0
   38.1415   27.2221   36.6310 H   0  0  0  0  0  0  0  0  0  0  0  0
   37.1615   28.7030   34.8696 H   0  0  0  0  0  0  0  0  0  0  0  0
   36.5244   27.8707   32.6567 H   0  0  0  0  0  0  0  0  0  0  0  0
   38.1404   23.3925   39.3637 H   0  0  0  0  0  0  0  0  0  0  0  0
   37.1175   25.0298   37.7444 H   0  0  0  0  0  0  0  0  0  0  0  0
   41.7501   21.5009   37.1322 H   0  0  0  0  0  0  0  0  0  0  0  0
   41.7804   22.2660   35.5209 H   0  0  0  0  0  0  0  0  0  0  0  0
   36.4757   23.5050   33.0230 H   0  0  0  0  0  0  0  0  0  0  0  0
   35.5627   23.5066   31.4760 H   0  0  0  0  0  0  0  0  0  0  0  0
   37.3291   23.1807   31.4760 H   0  0  0  0  0  0  0  0  0  0  0  0
   34.9425   26.2758   32.0359 H   0  0  0  0  0  0  0  0  0  0  0  0
   35.9025   26.7651   30.5986 H   0  0  0  0  0  0  0  0  0  0  0  0
   35.0191   25.2010   30.5986 H   0  0  0  0  0  0  0  0  0  0  0  0
   38.9070   25.4406   31.4665 H   0  0  0  0  0  0  0  0  0  0  0  0
   38.0510   24.4527   30.2345 H   0  0  0  0  0  0  0  0  0  0  0  0
   37.8729   26.2401   30.2345 H   0  0  0  0  0  0  0  0  0  0  0  0
  1  2  2  0
  1  9  1  0
  3  2  1  0
  4  3  2  0
  5  4  1  0
  5  6  2  0
  6  1  1  0
  8  7  2  0
  9  8  1  0
 10  9  2  0
 10 11  1  0
 11 12  2  0
 12  7  1  0
 13 11  1  0
 14 15  1  0
 14  5  1  0
 16 14  1  0
 17 14  1  0
  2 18  1  0
  3 19  1  0
  4 20  1  0
  7 21  1  0
  8 22  1  0
 13 23  1  0
 13 24  1  0
 15 25  1  0
 15 26  1  0
 15 27  1  0
 16 28  1  0
 16 29  1  0
 16 30  1  0
 17 31  1  0
 17 32  1  0
 17 33  1  0
M  ISO  8  18  14  19  14  20  14  21  14  22  14  25   8  26   8  27   8
M  ISO  6  28   8  29   8  30   8  31   8  32   8  33   8
M  END
>  <minimizedAffinity>  (1) 
-4.96798801

>  <minimizedRMSD>  (1) 
0.648495138

$$$$
