
     RDKit          3D

 24 25  0  0  0  0  0  0  0  0999 V2000
   38.0700   25.4860   35.3570 C   0  0  0  0  0  0  0  0  0  0  0  0
   37.9460   26.8100   35.7170 C   0  0  0  0  0  0  0  0  0  0  0  0
   37.4040   27.6390   34.7490 C   0  0  0  0  0  0  0  0  0  0  0  0
   37.0170   27.1650   33.5060 C   0  0  0  0  0  0  0  0  0  0  0  0
   37.1650   25.8240   33.1990 C   0  0  0  0  0  0  0  0  0  0  0  0
   37.6930   25.0140   34.1430 N   0  0  0  0  0  0  0  0  0  0  0  0
   38.6080   23.5040   38.4650 C   0  0  0  0  0  0  0  0  0  0  0  0
   38.0600   24.4220   37.5710 C   0  0  0  0  0  0  0  0  0  0  0  0
   38.6280   24.5340   36.3060 C   0  0  0  0  0  0  0  0  0  0  0  0
   39.6780   23.7540   35.9950 N   0  0  0  0  0  0  0  0  0  0  0  0
   40.1970   22.8630   36.8830 C   0  0  0  0  0  0  0  0  0  0  0  0
   39.6530   22.7530   38.1040 N   0  0  0  0  0  0  0  0  0  0  0  0
   41.3010   22.0450   36.5250 N   0  0  0  0  0  0  0  0  0  0  0  0
   36.7630   25.3320   31.9100 C   0  0  0  0  0  0  0  0  0  0  0  0
   36.0590   24.2750   31.8700 O   0  0  0  0  0  0  0  0  0  0  0  0
   37.1270   25.9860   30.7410 O   0  0  0  0  0  0  0  0  0  0  0  0
   38.2559   27.1827   36.7044 H   0  0  0  0  0  0  0  0  0  0  0  0
   37.2767   28.7081   34.9743 H   0  0  0  0  0  0  0  0  0  0  0  0
   36.5917   27.8553   32.7626 H   0  0  0  0  0  0  0  0  0  0  0  0
   38.1786   23.3971   39.4721 H   0  0  0  0  0  0  0  0  0  0  0  0
   37.1990   25.0431   37.8587 H   0  0  0  0  0  0  0  0  0  0  0  0
   41.6864   21.3737   37.2046 H   0  0  0  0  0  0  0  0  0  0  0  0
   41.7165   22.1229   35.5857 H   0  0  0  0  0  0  0  0  0  0  0  0
   36.8387   25.6290   29.8638 H   0  0  0  0  0  0  0  0  0  0  0  0
  1  2  2  0
  1  9  1  0
  3  2  1  0
  4  3  2  0
  5  4  1  0
  5  6  2  0
  6  1  1  0
  8  7  2  0
  9  8  1  0
 10  9  2  0
 10 11  1  0
 11 12  2  0
 12  7  1  0
 13 11  1  0
 14  5  1  0
 15 14  2  0
 16 14  1  0
  2 17  1  0
  3 18  1  0
  4 19  1  0
  7 20  1  0
  8 21  1  0
 13 22  1  0
 13 23  1  0
 16 24  1  0
M  ISO  6  17  14  18  14  19  14  20  14  21  14  24   3
M  END
>  <minimizedAffinity>  (1) 
-4.79895306

>  <minimizedRMSD>  (1) 
0.436466277

$$$$
