
     RDKit          3D

 34 36  0  0  0  0  0  0  0  0999 V2000
   38.1390   25.6370   35.5050 C   0  0  0  0  0  0  0  0  0  0  0  0
   38.0610   26.9520   35.9360 C   0  0  0  0  0  0  0  0  0  0  0  0
   37.5540   27.8370   35.0050 C   0  0  0  0  0  0  0  0  0  0  0  0
   37.1520   27.4700   33.7440 C   0  0  0  0  0  0  0  0  0  0  0  0
   37.2510   26.1390   33.3630 C   0  0  0  0  0  0  0  0  0  0  0  0
   37.7470   25.2830   34.2770 N   0  0  0  0  0  0  0  0  0  0  0  0
   38.5950   23.4640   38.4880 C   0  0  0  0  0  0  0  0  0  0  0  0
   38.0740   24.4560   37.6490 C   0  0  0  0  0  0  0  0  0  0  0  0
   38.6550   24.6190   36.3970 C   0  0  0  0  0  0  0  0  0  0  0  0
   39.6860   23.8260   36.0420 N   0  0  0  0  0  0  0  0  0  0  0  0
   40.1830   22.8650   36.8690 C   0  0  0  0  0  0  0  0  0  0  0  0
   39.6160   22.7060   38.0880 N   0  0  0  0  0  0  0  0  0  0  0  0
   41.2610   22.0410   36.4890 N   0  0  0  0  0  0  0  0  0  0  0  0
   36.8620   25.6040   32.0550 C   0  0  0  0  0  0  0  0  0  0  0  0
   36.5420   24.1260   32.0620 C   0  0  0  0  0  0  0  0  0  0  0  0
   35.4840   23.9210   31.0020 C   0  0  0  0  0  0  0  0  0  0  0  0
   34.9040   25.2560   30.6580 C   0  0  0  0  0  0  0  0  0  0  0  0
   35.5290   26.1860   31.6420 C   0  0  0  0  0  0  0  0  0  0  0  0
   38.3782   27.2662   36.9413 H   0  0  0  0  0  0  0  0  0  0  0  0
   37.4672   28.8960   35.2895 H   0  0  0  0  0  0  0  0  0  0  0  0
   36.7565   28.2215   33.0448 H   0  0  0  0  0  0  0  0  0  0  0  0
   38.1583   23.3087   39.4856 H   0  0  0  0  0  0  0  0  0  0  0  0
   37.2317   25.0863   37.9703 H   0  0  0  0  0  0  0  0  0  0  0  0
   41.6140   21.3230   37.1376 H   0  0  0  0  0  0  0  0  0  0  0  0
   41.6960   22.1567   35.5626 H   0  0  0  0  0  0  0  0  0  0  0  0
   37.7201   25.8397   31.4083 H   0  0  0  0  0  0  0  0  0  0  0  0
   37.4412   23.5396   31.8222 H   0  0  0  0  0  0  0  0  0  0  0  0
   36.1898   23.7958   33.0504 H   0  0  0  0  0  0  0  0  0  0  0  0
   35.9362   23.4693   30.1067 H   0  0  0  0  0  0  0  0  0  0  0  0
   34.6970   23.2489   31.3749 H   0  0  0  0  0  0  0  0  0  0  0  0
   35.1657   25.5424   29.6287 H   0  0  0  0  0  0  0  0  0  0  0  0
   33.8051   25.2650   30.7062 H   0  0  0  0  0  0  0  0  0  0  0  0
   35.6798   27.1725   31.1793 H   0  0  0  0  0  0  0  0  0  0  0  0
   34.8771   26.3075   32.5197 H   0  0  0  0  0  0  0  0  0  0  0  0
  1  2  2  0
  1  9  1  0
  3  2  1  0
  4  3  2  0
  5  4  1  0
  5  6  2  0
  6  1  1  0
  8  7  2  0
  9  8  1  0
 10  9  2  0
 10 11  1  0
 11 12  2  0
 12  7  1  0
 13 11  1  0
 14 15  1  0
 14  5  1  0
 16 15  1  0
 17 16  1  0
 17 18  1  0
 18 14  1  0
  2 19  1  0
  3 20  1  0
  4 21  1  0
  7 22  1  0
  8 23  1  0
 13 24  1  0
 13 25  1  0
 14 26  1  0
 15 27  1  0
 15 28  1  0
 16 29  1  0
 16 30  1  0
 17 31  1  0
 17 32  1  0
 18 33  1  0
 18 34  1  0
M  ISO  8  19  14  20  14  21  14  22  14  23  14  26  13  27  13  28  13
M  ISO  6  29  13  30  13  31  13  32  13  33  13  34  13
M  END
>  <minimizedAffinity>  (1) 
-5.48536825

>  <minimizedRMSD>  (1) 
0.227325618

$$$$
