
     RDKit          3D

 48 52  0  0  1  0  0  0  0  0999 V2000
   37.0350   25.7920   32.2440 C   0  0  1  0  0  0  0  0  0  0  0  0
   36.7000   24.3370   32.1320 C   0  0  0  0  0  0  0  0  0  0  0  0
   35.6550   24.2400   31.0330 C   0  0  0  0  0  0  0  0  0  0  0  0
   35.0570   25.5900   30.8410 C   0  0  0  0  0  0  0  0  0  0  0  0
   35.7520   26.4610   31.8170 C   0  0  2  0  0  0  0  0  0  0  0  0
   36.0370   27.7270   31.1650 N   0  0  0  0  0  0  0  0  0  0  0  0
   36.8500   28.1200   30.1680 C   0  0  0  0  0  0  0  0  0  0  0  0
   36.7210   29.4400   29.9530 N   0  0  0  0  0  0  0  0  0  0  0  0
   35.8200   29.9350   30.8060 C   0  0  0  0  0  0  0  0  0  0  0  0
   35.3380   31.2140   30.9880 C   0  0  0  0  0  0  0  0  0  0  0  0
   35.7460   32.1740   30.2830 O   0  0  0  0  0  0  0  0  0  0  0  0
   34.4080   31.4580   31.9410 N   0  0  0  0  0  0  0  0  0  0  0  0
   33.9960   30.4090   32.6760 C   0  0  0  0  0  0  0  0  0  0  0  0
   33.0140   30.5280   33.7180 N   0  0  0  0  0  0  0  0  0  0  0  0
   34.4610   29.1600   32.5050 N   0  0  0  0  0  0  0  0  0  0  0  0
   35.3930   28.8620   31.5620 C   0  0  0  0  0  0  0  0  0  0  0  0
   38.3070   25.5610   35.6750 C   0  0  0  0  0  0  0  0  0  0  0  0
   38.2480   26.8550   36.1960 C   0  0  0  0  0  0  0  0  0  0  0  0
   37.7490   27.8170   35.3240 C   0  0  0  0  0  0  0  0  0  0  0  0
   37.3390   27.5240   34.0360 C   0  0  0  0  0  0  0  0  0  0  0  0
   37.4230   26.2280   33.5800 C   0  0  0  0  0  0  0  0  0  0  0  0
   37.9080   25.3020   34.4340 N   0  0  0  0  0  0  0  0  0  0  0  0
   38.7860   23.2120   38.5050 C   0  0  0  0  0  0  0  0  0  0  0  0
   38.2500   24.2590   37.7390 C   0  0  0  0  0  0  0  0  0  0  0  0
   38.8150   24.4990   36.5050 C   0  0  0  0  0  0  0  0  0  0  0  0
   39.8500   23.7230   36.0910 N   0  0  0  0  0  0  0  0  0  0  0  0
   40.3590   22.7160   36.8380 C   0  0  0  0  0  0  0  0  0  0  0  0
   39.8110   22.4780   38.0420 N   0  0  0  0  0  0  0  0  0  0  0  0
   41.4280   21.9200   36.4040 N   0  0  0  0  0  0  0  0  0  0  0  0
   37.9162   26.0420   31.6349 H   0  0  0  0  0  0  0  0  0  0  0  0
   37.5949   23.7568   31.8628 H   0  0  0  0  0  0  0  0  0  0  0  0
   36.3273   23.9314   33.0841 H   0  0  0  0  0  0  0  0  0  0  0  0
   36.1277   23.9054   30.0978 H   0  0  0  0  0  0  0  0  0  0  0  0
   34.8761   23.5149   31.3115 H   0  0  0  0  0  0  0  0  0  0  0  0
   35.2286   25.9462   29.8145 H   0  0  0  0  0  0  0  0  0  0  0  0
   33.9679   25.5846   30.9952 H   0  0  0  0  0  0  0  0  0  0  0  0
   35.1289   26.6333   32.7070 H   0  0  0  0  0  0  0  0  0  0  0  0
   37.5245   27.4553   29.6083 H   0  0  0  0  0  0  0  0  0  0  0  0
   34.0326   32.4044   32.0965 H   0  0  0  0  0  0  0  0  0  0  0  0
   32.7293   29.6963   34.2548 H   0  0  0  0  0  0  0  0  0  0  0  0
   32.5947   31.4450   33.9282 H   0  0  0  0  0  0  0  0  0  0  0  0
   38.5718   27.0957   37.2193 H   0  0  0  0  0  0  0  0  0  0  0  0
   37.6773   28.8572   35.6744 H   0  0  0  0  0  0  0  0  0  0  0  0
   36.9497   28.3187   33.3826 H   0  0  0  0  0  0  0  0  0  0  0  0
   38.3619   22.9902   39.4954 H   0  0  0  0  0  0  0  0  0  0  0  0
   37.4104   24.8653   38.1097 H   0  0  0  0  0  0  0  0  0  0  0  0
   41.7842   21.1635   37.0055 H   0  0  0  0  0  0  0  0  0  0  0  0
   41.8574   22.0916   35.4836 H   0  0  0  0  0  0  0  0  0  0  0  0
  1 21  1  0
  2  1  1  0
  3  2  1  0
  4  3  1  0
  4  5  1  0
  5  1  1  0
  6 16  1  0
  6  5  1  0
  7  6  1  0
  8  7  2  0
  8  9  1  0
  9 10  1  0
  9 16  2  0
 10 12  1  0
 11 10  2  0
 12 13  1  0
 13 14  1  0
 15 13  2  0
 16 15  1  0
 17 18  2  0
 17 25  1  0
 19 18  1  0
 20 19  2  0
 21 20  1  0
 21 22  2  0
 22 17  1  0
 24 23  2  0
 25 24  1  0
 26 25  2  0
 26 27  1  0
 27 28  2  0
 28 23  1  0
 29 27  1  0
  1 30  1  6
  2 31  1  0
  2 32  1  0
  3 33  1  0
  3 34  1  0
  4 35  1  0
  4 36  1  0
  5 37  1  1
  7 38  1  0
 12 39  1  0
 14 40  1  0
 14 41  1  0
 18 42  1  0
 19 43  1  0
 20 44  1  0
 23 45  1  0
 24 46  1  0
 29 47  1  0
 29 48  1  0
M  ISO  8  30  13  31  13  32  13  33  13  34  13  35  13  36  13  37  13
M  ISO  7  38  14  39   9  42  14  43  14  44  14  45  14  46  14
M  END
>  <minimizedAffinity>  (1) 
-6.96279526

>  <minimizedRMSD>  (1) 
0.576583922

$$$$
