
     RDKit          3D

 45 49  0  0  1  0  0  0  0  0999 V2000
   36.9910   25.7200   32.2220 C   0  0  1  0  0  0  0  0  0  0  0  0
   36.6030   24.2690   32.1680 C   0  0  0  0  0  0  0  0  0  0  0  0
   35.4770   24.1560   31.1430 C   0  0  0  0  0  0  0  0  0  0  0  0
   35.1550   25.5250   30.6930 C   0  0  0  0  0  0  0  0  0  0  0  0
   35.7140   26.3850   31.8040 C   0  0  2  0  0  0  0  0  0  0  0  0
   35.8600   27.7550   31.3310 N   0  0  0  0  0  0  0  0  0  0  0  0
   36.7390   28.0860   30.3400 C   0  0  0  0  0  0  0  0  0  0  0  0
   36.6080   29.4250   30.1250 N   0  0  0  0  0  0  0  0  0  0  0  0
   35.6660   29.9090   30.9690 C   0  0  0  0  0  0  0  0  0  0  0  0
   35.1130   31.1510   31.2120 C   0  0  0  0  0  0  0  0  0  0  0  0
   34.1640   31.2950   32.1520 N   0  0  0  0  0  0  0  0  0  0  0  0
   33.7030   30.2800   32.8920 C   0  0  0  0  0  0  0  0  0  0  0  0
   34.2330   29.0420   32.6690 N   0  0  0  0  0  0  0  0  0  0  0  0
   35.1840   28.8760   31.7340 C   0  0  0  0  0  0  0  0  0  0  0  0
   38.2620   25.5930   35.6710 C   0  0  0  0  0  0  0  0  0  0  0  0
   38.2470   26.9140   36.1190 C   0  0  0  0  0  0  0  0  0  0  0  0
   37.7840   27.8350   35.1990 C   0  0  0  0  0  0  0  0  0  0  0  0
   37.3660   27.4980   33.9340 C   0  0  0  0  0  0  0  0  0  0  0  0
   37.4010   26.1820   33.5440 C   0  0  0  0  0  0  0  0  0  0  0  0
   37.8530   25.2860   34.4450 N   0  0  0  0  0  0  0  0  0  0  0  0
   38.6320   23.3510   38.5980 C   0  0  0  0  0  0  0  0  0  0  0  0
   38.1310   24.3740   37.7880 C   0  0  0  0  0  0  0  0  0  0  0  0
   38.7330   24.5510   36.5510 C   0  0  0  0  0  0  0  0  0  0  0  0
   39.7590   23.7410   36.1850 N   0  0  0  0  0  0  0  0  0  0  0  0
   40.2330   22.7550   36.9800 C   0  0  0  0  0  0  0  0  0  0  0  0
   39.6420   22.5820   38.1950 N   0  0  0  0  0  0  0  0  0  0  0  0
   41.2950   21.9220   36.6160 N   0  0  0  0  0  0  0  0  0  0  0  0
   37.8689   25.9374   31.5959 H   0  0  0  0  0  0  0  0  0  0  0  0
   37.4627   23.6577   31.8563 H   0  0  0  0  0  0  0  0  0  0  0  0
   36.2783   23.9084   33.1552 H   0  0  0  0  0  0  0  0  0  0  0  0
   35.8054   23.5462   30.2885 H   0  0  0  0  0  0  0  0  0  0  0  0
   34.5934   23.6734   31.5862 H   0  0  0  0  0  0  0  0  0  0  0  0
   35.6429   25.7514   29.7335 H   0  0  0  0  0  0  0  0  0  0  0  0
   34.0806   25.6840   30.5188 H   0  0  0  0  0  0  0  0  0  0  0  0
   35.0581   26.4659   32.6833 H   0  0  0  0  0  0  0  0  0  0  0  0
   37.4224   27.4022   29.8154 H   0  0  0  0  0  0  0  0  0  0  0  0
   35.4504   32.0244   30.6345 H   0  0  0  0  0  0  0  0  0  0  0  0
   32.9246   30.4376   33.6530 H   0  0  0  0  0  0  0  0  0  0  0  0
   38.5786   27.2006   37.1279 H   0  0  0  0  0  0  0  0  0  0  0  0
   37.7481   28.8939   35.4947 H   0  0  0  0  0  0  0  0  0  0  0  0
   37.0074   28.2739   33.2416 H   0  0  0  0  0  0  0  0  0  0  0  0
   38.1835   23.1777   39.5873 H   0  0  0  0  0  0  0  0  0  0  0  0
   37.2963   25.0105   38.1169 H   0  0  0  0  0  0  0  0  0  0  0  0
   41.6164   21.1857   37.2606 H   0  0  0  0  0  0  0  0  0  0  0  0
   41.7561   22.0445   35.7032 H   0  0  0  0  0  0  0  0  0  0  0  0
  1 19  1  0
  2  1  1  0
  3  2  1  0
  4  3  1  0
  4  5  1  0
  5  1  1  0
  6 14  1  0
  6  5  1  0
  7  6  1  0
  8  7  2  0
  8  9  1  0
  9 10  2  0
  9 14  1  0
 10 11  1  0
 11 12  2  0
 13 12  1  0
 14 13  2  0
 15 16  2  0
 15 23  1  0
 17 16  1  0
 18 17  2  0
 19 18  1  0
 19 20  2  0
 20 15  1  0
 22 21  2  0
 23 22  1  0
 24 23  2  0
 24 25  1  0
 25 26  2  0
 26 21  1  0
 27 25  1  0
  1 28  1  6
  2 29  1  0
  2 30  1  0
  3 31  1  0
  3 32  1  0
  4 33  1  0
  4 34  1  0
  5 35  1  1
  7 36  1  0
 10 37  1  0
 12 38  1  0
 16 39  1  0
 17 40  1  0
 18 41  1  0
 21 42  1  0
 22 43  1  0
 27 44  1  0
 27 45  1  0
M  ISO  8  28  13  29  13  30  13  31  13  32  13  33  13  34  13  35  13
M  ISO  8  36  14  37  14  38  14  39  14  40  14  41  14  42  14  43  14
M  END
>  <minimizedAffinity>  (1) 
-6.74240494

>  <minimizedRMSD>  (1) 
0.756678224

$$$$
