
     RDKit          3D

 47 50  0  0  1  0  0  0  0  0999 V2000
   36.9760   25.7400   32.2040 C   0  0  1  0  0  0  0  0  0  0  0  0
   36.4830   24.3190   32.1810 C   0  0  0  0  0  0  0  0  0  0  0  0
   35.4320   24.2560   31.0830 C   0  0  0  0  0  0  0  0  0  0  0  0
   35.0300   25.6440   30.7390 C   0  0  0  0  0  0  0  0  0  0  0  0
   35.7700   26.5060   31.7250 C   0  0  2  0  0  0  0  0  0  0  0  0
   36.0720   27.7850   31.1190 N   0  0  0  0  0  0  0  0  0  0  0  0
   36.9490   28.0950   30.1530 C   0  0  0  0  0  0  0  0  0  0  0  0
   37.0900   29.3820   29.6930 C   0  0  0  0  0  0  0  0  0  0  0  0
   38.1130   29.5700   28.6090 C   0  0  0  0  0  0  0  0  0  0  0  0
   36.3450   30.4280   30.1950 C   0  0  0  0  0  0  0  0  0  0  0  0
   36.5350   31.5760   29.7200 O   0  0  0  0  0  0  0  0  0  0  0  0
   35.4640   30.1240   31.1620 N   0  0  0  0  0  0  0  0  0  0  0  0
   35.3530   28.8520   31.5860 C   0  0  0  0  0  0  0  0  0  0  0  0
   34.4880   28.6770   32.5080 O   0  0  0  0  0  0  0  0  0  0  0  0
   38.2490   25.6060   35.6550 C   0  0  0  0  0  0  0  0  0  0  0  0
   38.2460   26.9250   36.1090 C   0  0  0  0  0  0  0  0  0  0  0  0
   37.7850   27.8520   35.1880 C   0  0  0  0  0  0  0  0  0  0  0  0
   37.3650   27.5210   33.9320 C   0  0  0  0  0  0  0  0  0  0  0  0
   37.3880   26.2060   33.5320 C   0  0  0  0  0  0  0  0  0  0  0  0
   37.8360   25.2930   34.4280 N   0  0  0  0  0  0  0  0  0  0  0  0
   38.6270   23.3410   38.5670 C   0  0  0  0  0  0  0  0  0  0  0  0
   38.1220   24.3730   37.7590 C   0  0  0  0  0  0  0  0  0  0  0  0
   38.7200   24.5590   36.5300 C   0  0  0  0  0  0  0  0  0  0  0  0
   39.7500   23.7530   36.1620 N   0  0  0  0  0  0  0  0  0  0  0  0
   40.2250   22.7600   36.9570 C   0  0  0  0  0  0  0  0  0  0  0  0
   39.6470   22.5740   38.1550 N   0  0  0  0  0  0  0  0  0  0  0  0
   41.2900   21.9290   36.5760 N   0  0  0  0  0  0  0  0  0  0  0  0
   37.8814   25.8667   31.5922 H   0  0  0  0  0  0  0  0  0  0  0  0
   37.3114   23.6309   31.9567 H   0  0  0  0  0  0  0  0  0  0  0  0
   36.0660   24.0220   33.1546 H   0  0  0  0  0  0  0  0  0  0  0  0
   35.8513   23.7598   30.1953 H   0  0  0  0  0  0  0  0  0  0  0  0
   34.5582   23.6839   31.4284 H   0  0  0  0  0  0  0  0  0  0  0  0
   35.3258   25.8903   29.7085 H   0  0  0  0  0  0  0  0  0  0  0  0
   33.9409   25.7891   30.7915 H   0  0  0  0  0  0  0  0  0  0  0  0
   35.1631   26.7379   32.6127 H   0  0  0  0  0  0  0  0  0  0  0  0
   37.5711   27.2989   29.7180 H   0  0  0  0  0  0  0  0  0  0  0  0
   39.0987   29.7511   29.0625 H   0  0  0  0  0  0  0  0  0  0  0  0
   38.1570   28.6649   27.9854 H   0  0  0  0  0  0  0  0  0  0  0  0
   37.8323   30.4316   27.9854 H   0  0  0  0  0  0  0  0  0  0  0  0
   34.8762   30.8610   31.5770 H   0  0  0  0  0  0  0  0  0  0  0  0
   38.5827   27.2067   37.1176 H   0  0  0  0  0  0  0  0  0  0  0  0
   37.7559   28.9108   35.4847 H   0  0  0  0  0  0  0  0  0  0  0  0
   37.0101   28.3023   33.2437 H   0  0  0  0  0  0  0  0  0  0  0  0
   38.1782   23.1588   39.5546 H   0  0  0  0  0  0  0  0  0  0  0  0
   37.2858   25.0055   38.0919 H   0  0  0  0  0  0  0  0  0  0  0  0
   41.6177   21.1877   37.2116 H   0  0  0  0  0  0  0  0  0  0  0  0
   41.7439   22.0604   35.6608 H   0  0  0  0  0  0  0  0  0  0  0  0
  1 19  1  0
  2  1  1  0
  3  2  1  0
  4  3  1  0
  4  5  1  0
  5  1  1  0
  6 13  1  0
  6  5  1  0
  7  6  1  0
  8  7  2  0
  8 10  1  0
  9  8  1  0
 10 12  1  0
 11 10  2  0
 12 13  1  0
 13 14  2  0
 15 16  2  0
 15 23  1  0
 17 16  1  0
 18 17  2  0
 19 18  1  0
 19 20  2  0
 20 15  1  0
 22 21  2  0
 23 22  1  0
 24 23  2  0
 24 25  1  0
 25 26  2  0
 26 21  1  0
 27 25  1  0
  1 28  1  6
  2 29  1  0
  2 30  1  0
  3 31  1  0
  3 32  1  0
  4 33  1  0
  4 34  1  0
  5 35  1  1
  7 36  1  0
  9 37  1  0
  9 38  1  0
  9 39  1  0
 12 40  1  0
 16 41  1  0
 17 42  1  0
 18 43  1  0
 21 44  1  0
 22 45  1  0
 27 46  1  0
 27 47  1  0
M  ISO  8  28  13  29  13  30  13  31  13  32  13  33  13  34  13  35  13
M  ISO  8  36  14  37   8  38   8  39   8  40   9  41  14  42  14  43  14
M  ISO  2  44  14  45  14
M  END
>  <minimizedAffinity>  (1) 
-6.85088301

>  <minimizedRMSD>  (1) 
0.606107771

$$$$
