
     RDKit          3D

 50 53  0  0  1  0  0  0  0  0999 V2000
   39.3890   25.4160   34.9490 C   0  0  0  0  0  0  0  0  0  0  0  0
   40.4560   26.3130   34.9080 C   0  0  0  0  0  0  0  0  0  0  0  0
   40.5760   27.0130   33.7180 C   0  0  0  0  0  0  0  0  0  0  0  0
   39.7300   26.8620   32.6450 C   0  0  0  0  0  0  0  0  0  0  0  0
   38.6990   25.9620   32.7570 C   0  0  0  0  0  0  0  0  0  0  0  0
   38.5710   25.2710   33.9100 N   0  0  0  0  0  0  0  0  0  0  0  0
   37.7230   25.7150   31.6990 C   0  0  1  0  0  0  0  0  0  0  0  0
   36.6200   24.7670   32.0460 C   0  0  0  0  0  0  0  0  0  0  0  0
   35.4690   25.1750   31.1420 C   0  0  0  0  0  0  0  0  0  0  0  0
   35.7410   26.5340   30.6080 C   0  0  0  0  0  0  0  0  0  0  0  0
   37.0110   26.9550   31.2910 C   0  0  1  0  0  0  0  0  0  0  0  0
   36.7230   27.9750   32.3080 C   0  0  0  0  0  0  0  0  0  0  0  0
   35.7180   29.0190   31.7850 C   0  0  0  0  0  0  0  0  0  0  0  0
   35.9350   30.2480   32.6340 C   0  0  0  0  0  0  0  0  0  0  0  0
   35.3750   29.8610   34.0150 C   0  0  0  0  0  0  0  0  0  0  0  0
   36.2720   28.7820   34.5570 C   0  0  0  0  0  0  0  0  0  0  0  0
   36.1940   27.5450   33.6360 C   0  0  0  0  0  0  0  0  0  0  0  0
   37.9810   24.1560   38.1420 C   0  0  0  0  0  0  0  0  0  0  0  0
   38.1420   24.9560   36.9970 C   0  0  0  0  0  0  0  0  0  0  0  0
   39.1730   24.6260   36.1380 C   0  0  0  0  0  0  0  0  0  0  0  0
   39.9740   23.5660   36.4240 N   0  0  0  0  0  0  0  0  0  0  0  0
   39.8040   22.8030   37.5360 C   0  0  0  0  0  0  0  0  0  0  0  0
   38.8040   23.1190   38.3750 N   0  0  0  0  0  0  0  0  0  0  0  0
   40.6300   21.7120   37.8340 N   0  0  0  0  0  0  0  0  0  0  0  0
   41.1469   26.4536   35.7524 H   0  0  0  0  0  0  0  0  0  0  0  0
   41.4005   27.7353   33.6262 H   0  0  0  0  0  0  0  0  0  0  0  0
   39.8748   27.4451   31.7236 H   0  0  0  0  0  0  0  0  0  0  0  0
   38.3580   25.2876   30.9090 H   0  0  0  0  0  0  0  0  0  0  0  0
   36.9225   23.7285   31.8457 H   0  0  0  0  0  0  0  0  0  0  0  0
   36.3507   24.8108   33.1116 H   0  0  0  0  0  0  0  0  0  0  0  0
   35.3811   24.4611   30.3097 H   0  0  0  0  0  0  0  0  0  0  0  0
   34.5280   25.1778   31.7117 H   0  0  0  0  0  0  0  0  0  0  0  0
   35.8772   26.5037   29.5169 H   0  0  0  0  0  0  0  0  0  0  0  0
   34.9121   27.2324   30.7954 H   0  0  0  0  0  0  0  0  0  0  0  0
   37.7233   27.4864   30.6427 H   0  0  0  0  0  0  0  0  0  0  0  0
   37.7390   28.3570   32.4862 H   0  0  0  0  0  0  0  0  0  0  0  0
   35.9133   29.2438   30.7261 H   0  0  0  0  0  0  0  0  0  0  0  0
   34.6816   28.6560   31.8496 H   0  0  0  0  0  0  0  0  0  0  0  0
   37.0058   30.4905   32.7019 H   0  0  0  0  0  0  0  0  0  0  0  0
   35.4437   31.1391   32.2163 H   0  0  0  0  0  0  0  0  0  0  0  0
   35.3828   30.7330   34.6854 H   0  0  0  0  0  0  0  0  0  0  0  0
   34.3355   29.5098   33.9367 H   0  0  0  0  0  0  0  0  0  0  0  0
   37.3084   29.1490   34.5928 H   0  0  0  0  0  0  0  0  0  0  0  0
   35.9478   28.5077   35.5717 H   0  0  0  0  0  0  0  0  0  0  0  0
   35.1515   27.2077   33.5393 H   0  0  0  0  0  0  0  0  0  0  0  0
   36.7761   26.7059   34.0447 H   0  0  0  0  0  0  0  0  0  0  0  0
   37.1735   24.3810   38.8543 H   0  0  0  0  0  0  0  0  0  0  0  0
   37.4761   25.8077   36.7938 H   0  0  0  0  0  0  0  0  0  0  0  0
   40.4660   21.1600   38.6880 H   0  0  0  0  0  0  0  0  0  0  0  0
   41.4015   21.4616   37.1992 H   0  0  0  0  0  0  0  0  0  0  0  0
  1 20  1  0
  2  1  2  0
  3  2  1  0
  4  5  1  0
  4  3  2  0
  5  6  2  0
  6  1  1  0
  7  8  1  0
  7  5  1  0
  9  8  1  0
 10  9  1  0
 10 11  1  0
 11  7  1  0
 11 12  1  0
 12 17  1  0
 13 12  1  0
 13 14  1  0
 14 15  1  0
 15 16  1  0
 17 16  1  0
 18 23  2  0
 19 18  1  0
 20 21  1  0
 20 19  2  0
 21 22  2  0
 22 24  1  0
 22 23  1  0
  2 25  1  0
  3 26  1  0
  4 27  1  0
  7 28  1  6
  8 29  1  0
  8 30  1  0
  9 31  1  0
  9 32  1  0
 10 33  1  0
 10 34  1  0
 11 35  1  6
 12 36  1  0
 13 37  1  0
 13 38  1  0
 14 39  1  0
 14 40  1  0
 15 41  1  0
 15 42  1  0
 16 43  1  0
 16 44  1  0
 17 45  1  0
 17 46  1  0
 18 47  1  0
 19 48  1  0
 24 49  1  0
 24 50  1  0
M  ISO  8  25  14  26  14  27  14  28  13  29  13  30  13  31  13  32  13
M  ISO  8  33  13  34  13  35  13  36  13  37  13  38  13  39  13  40  13
M  ISO  8  41  13  42  13  43  13  44  13  45  13  46  13  47  14  48  14
M  END
>  <minimizedAffinity>  (1) 
-6.3948617

>  <minimizedRMSD>  (1) 
2.26354909

$$$$
