
     RDKit          3D

 44 47  0  0  1  0  0  0  0  0999 V2000
   36.9710   25.7250   32.1940 C   0  0  1  0  0  0  0  0  0  0  0  0
   36.4690   24.3030   32.1790 C   0  0  0  0  0  0  0  0  0  0  0  0
   35.3840   24.2450   31.1090 C   0  0  0  0  0  0  0  0  0  0  0  0
   35.0700   25.6310   30.6910 C   0  0  0  0  0  0  0  0  0  0  0  0
   35.7710   26.4900   31.7120 C   0  0  2  0  0  0  0  0  0  0  0  0
   38.2430   25.6000   35.6440 C   0  0  0  0  0  0  0  0  0  0  0  0
   38.2480   26.9230   36.0870 C   0  0  0  0  0  0  0  0  0  0  0  0
   37.7920   27.8510   35.1560 C   0  0  0  0  0  0  0  0  0  0  0  0
   37.3690   27.5080   33.9040 C   0  0  0  0  0  0  0  0  0  0  0  0
   37.3840   26.1890   33.5160 C   0  0  0  0  0  0  0  0  0  0  0  0
   37.8280   25.2830   34.4210 N   0  0  0  0  0  0  0  0  0  0  0  0
   38.6200   23.3650   38.5740 C   0  0  0  0  0  0  0  0  0  0  0  0
   38.1130   24.3890   37.7570 C   0  0  0  0  0  0  0  0  0  0  0  0
   38.7110   24.5650   36.5300 C   0  0  0  0  0  0  0  0  0  0  0  0
   39.7420   23.7580   36.1690 N   0  0  0  0  0  0  0  0  0  0  0  0
   40.2180   22.7730   36.9740 C   0  0  0  0  0  0  0  0  0  0  0  0
   39.6360   22.6000   38.1720 N   0  0  0  0  0  0  0  0  0  0  0  0
   41.2860   21.9400   36.5950 N   0  0  0  0  0  0  0  0  0  0  0  0
   36.0670   27.7980   31.1530 N   0  0  0  0  0  0  0  0  0  0  0  0
   36.9790   28.1150   30.2180 C   0  0  0  0  0  0  0  0  0  0  0  0
   37.1270   29.4140   29.7770 C   0  0  0  0  0  0  0  0  0  0  0  0
   36.3600   30.4530   30.2600 C   0  0  0  0  0  0  0  0  0  0  0  0
   36.4660   31.6480   29.8840 O   0  0  0  0  0  0  0  0  0  0  0  0
   35.4490   30.1340   31.1970 N   0  0  0  0  0  0  0  0  0  0  0  0
   35.3280   28.8610   31.6060 C   0  0  0  0  0  0  0  0  0  0  0  0
   34.4410   28.6330   32.4980 O   0  0  0  0  0  0  0  0  0  0  0  0
   37.8762   25.8488   31.5815 H   0  0  0  0  0  0  0  0  0  0  0  0
   37.2879   23.6123   31.9292 H   0  0  0  0  0  0  0  0  0  0  0  0
   36.0772   24.0063   33.1631 H   0  0  0  0  0  0  0  0  0  0  0  0
   35.7443   23.6682   30.2445 H   0  0  0  0  0  0  0  0  0  0  0  0
   34.4833   23.7557   31.5081 H   0  0  0  0  0  0  0  0  0  0  0  0
   35.4563   25.8313   29.6807 H   0  0  0  0  0  0  0  0  0  0  0  0
   33.9880   25.8243   30.6477 H   0  0  0  0  0  0  0  0  0  0  0  0
   35.1374   26.7008   32.5862 H   0  0  0  0  0  0  0  0  0  0  0  0
   38.5860   27.2100   37.0937 H   0  0  0  0  0  0  0  0  0  0  0  0
   37.7713   28.9128   35.4426 H   0  0  0  0  0  0  0  0  0  0  0  0
   37.0175   28.2841   33.2082 H   0  0  0  0  0  0  0  0  0  0  0  0
   38.1711   23.1909   39.5630 H   0  0  0  0  0  0  0  0  0  0  0  0
   37.2750   25.0223   38.0835 H   0  0  0  0  0  0  0  0  0  0  0  0
   41.6174   21.2041   37.2350 H   0  0  0  0  0  0  0  0  0  0  0  0
   41.7368   22.0658   35.6775 H   0  0  0  0  0  0  0  0  0  0  0  0
   37.6185   27.3252   29.7971 H   0  0  0  0  0  0  0  0  0  0  0  0
   37.8862   29.6290   29.0105 H   0  0  0  0  0  0  0  0  0  0  0  0
   34.8455   30.8650   31.5999 H   0  0  0  0  0  0  0  0  0  0  0  0
  1 10  1  0
  2  1  1  0
  3  2  1  0
  4  3  1  0
  4  5  1  0
  5  1  1  0
  6  7  2  0
  6 14  1  0
  8  7  1  0
  9  8  2  0
 10  9  1  0
 10 11  2  0
 11  6  1  0
 13 12  2  0
 14 13  1  0
 15 14  2  0
 15 16  1  0
 16 17  2  0
 17 12  1  0
 18 16  1  0
 19 25  1  0
 19  5  1  0
 20 19  1  0
 21 20  2  0
 21 22  1  0
 22 24  1  0
 23 22  2  0
 24 25  1  0
 25 26  2  0
  1 27  1  6
  2 28  1  0
  2 29  1  0
  3 30  1  0
  3 31  1  0
  4 32  1  0
  4 33  1  0
  5 34  1  1
  7 35  1  0
  8 36  1  0
  9 37  1  0
 12 38  1  0
 13 39  1  0
 18 40  1  0
 18 41  1  0
 20 42  1  0
 21 43  1  0
 24 44  1  0
M  ISO  8  27  13  28  13  29  13  30  13  31  13  32  13  33  13  34  13
M  ISO  8  35  14  36  14  37  14  38  14  39  14  42  14  43  14  44   9
M  END
>  <minimizedAffinity>  (1) 
-6.63570404

>  <minimizedRMSD>  (1) 
1.06022811

$$$$
