
     RDKit          3D

 45 48  0  0  1  0  0  0  0  0999 V2000
   37.0250   25.7590   32.2480 C   0  0  1  0  0  0  0  0  0  0  0  0
   36.5790   24.3250   32.2070 C   0  0  0  0  0  0  0  0  0  0  0  0
   35.5260   24.2500   31.1170 C   0  0  0  0  0  0  0  0  0  0  0  0
   35.1030   25.6290   30.7630 C   0  0  0  0  0  0  0  0  0  0  0  0
   35.7880   26.4820   31.7820 C   0  0  2  0  0  0  0  0  0  0  0  0
   36.0400   27.7590   31.1590 N   0  0  0  0  0  0  0  0  0  0  0  0
   36.9120   28.0690   30.1870 C   0  0  0  0  0  0  0  0  0  0  0  0
   37.0180   29.3530   29.7060 C   0  0  0  0  0  0  0  0  0  0  0  0
   36.2530   30.4000   30.1760 C   0  0  0  0  0  0  0  0  0  0  0  0
   36.4600   31.6710   29.5960 N   0  0  0  0  0  0  0  0  0  0  0  0
   35.3900   30.0780   31.1440 N   0  0  0  0  0  0  0  0  0  0  0  0
   35.2900   28.8100   31.6150 C   0  0  0  0  0  0  0  0  0  0  0  0
   34.4140   28.7140   32.5300 O   0  0  0  0  0  0  0  0  0  0  0  0
   38.2660   25.6040   35.6990 C   0  0  0  0  0  0  0  0  0  0  0  0
   38.2450   26.9130   36.1830 C   0  0  0  0  0  0  0  0  0  0  0  0
   37.7820   27.8490   35.2710 C   0  0  0  0  0  0  0  0  0  0  0  0
   37.3780   27.5430   34.0060 C   0  0  0  0  0  0  0  0  0  0  0  0
   37.4170   26.2370   33.5760 C   0  0  0  0  0  0  0  0  0  0  0  0
   37.8680   25.3180   34.4610 N   0  0  0  0  0  0  0  0  0  0  0  0
   38.6530   23.3070   38.5820 C   0  0  0  0  0  0  0  0  0  0  0  0
   38.1480   24.3450   37.7900 C   0  0  0  0  0  0  0  0  0  0  0  0
   38.7390   24.5420   36.5610 C   0  0  0  0  0  0  0  0  0  0  0  0
   39.7610   23.7400   36.1820 N   0  0  0  0  0  0  0  0  0  0  0  0
   40.2450   22.7390   36.9520 C   0  0  0  0  0  0  0  0  0  0  0  0
   39.6620   22.5420   38.1680 N   0  0  0  0  0  0  0  0  0  0  0  0
   41.3030   21.9090   36.5620 N   0  0  0  0  0  0  0  0  0  0  0  0
   37.9292   25.9168   31.6418 H   0  0  0  0  0  0  0  0  0  0  0  0
   37.4269   23.6670   31.9662 H   0  0  0  0  0  0  0  0  0  0  0  0
   36.1800   23.9974   33.1783 H   0  0  0  0  0  0  0  0  0  0  0  0
   35.9468   23.7535   30.2302 H   0  0  0  0  0  0  0  0  0  0  0  0
   34.6596   23.6738   31.4739 H   0  0  0  0  0  0  0  0  0  0  0  0
   35.4318   25.8915   29.7466 H   0  0  0  0  0  0  0  0  0  0  0  0
   34.0101   25.7541   30.7672 H   0  0  0  0  0  0  0  0  0  0  0  0
   35.1854   26.6675   32.6834 H   0  0  0  0  0  0  0  0  0  0  0  0
   37.5543   27.2809   29.7670 H   0  0  0  0  0  0  0  0  0  0  0  0
   37.7479   29.5547   28.9082 H   0  0  0  0  0  0  0  0  0  0  0  0
   35.9096   32.4799   29.9180 H   0  0  0  0  0  0  0  0  0  0  0  0
   37.1614   31.7891   28.8510 H   0  0  0  0  0  0  0  0  0  0  0  0
   38.5680   27.1791   37.2003 H   0  0  0  0  0  0  0  0  0  0  0  0
   37.7381   28.9016   35.5874 H   0  0  0  0  0  0  0  0  0  0  0  0
   37.0225   28.3364   33.3321 H   0  0  0  0  0  0  0  0  0  0  0  0
   38.2062   23.1186   39.5694 H   0  0  0  0  0  0  0  0  0  0  0  0
   37.3153   24.9761   38.1340 H   0  0  0  0  0  0  0  0  0  0  0  0
   41.6300   21.1616   37.1908 H   0  0  0  0  0  0  0  0  0  0  0  0
   41.7543   22.0458   35.6463 H   0  0  0  0  0  0  0  0  0  0  0  0
  1 18  1  0
  2  1  1  0
  3  2  1  0
  4  3  1  0
  4  5  1  0
  5  1  1  0
  6 12  1  0
  6  5  1  0
  7  6  1  0
  8  9  1  0
  8  7  2  0
  9 11  2  0
 10  9  1  0
 11 12  1  0
 12 13  2  0
 14 15  2  0
 14 22  1  0
 16 15  1  0
 17 16  2  0
 18 17  1  0
 18 19  2  0
 19 14  1  0
 21 20  2  0
 22 21  1  0
 23 22  2  0
 23 24  1  0
 24 25  2  0
 25 20  1  0
 26 24  1  0
  1 27  1  6
  2 28  1  0
  2 29  1  0
  3 30  1  0
  3 31  1  0
  4 32  1  0
  4 33  1  0
  5 34  1  1
  7 35  1  0
  8 36  1  0
 10 37  1  0
 10 38  1  0
 15 39  1  0
 16 40  1  0
 17 41  1  0
 20 42  1  0
 21 43  1  0
 26 44  1  0
 26 45  1  0
M  ISO  8  27  13  28  13  29  13  30  13  31  13  32  13  33  13  34  13
M  ISO  7  35  14  36  14  39  14  40  14  41  14  42  14  43  14
M  END
>  <minimizedAffinity>  (1) 
-6.62410593

>  <minimizedRMSD>  (1) 
0.428154349

$$$$
