
     RDKit          3D

 42 45  0  0  1  0  0  0  0  0999 V2000
   38.2940   25.5950   35.6540 C   0  0  0  0  0  0  0  0  0  0  0  0
   38.2280   26.8770   36.1930 C   0  0  0  0  0  0  0  0  0  0  0  0
   37.7160   27.8400   35.3370 C   0  0  0  0  0  0  0  0  0  0  0  0
   37.3020   27.5730   34.0580 C   0  0  0  0  0  0  0  0  0  0  0  0
   37.3920   26.2860   33.5790 C   0  0  0  0  0  0  0  0  0  0  0  0
   37.8900   25.3510   34.4110 N   0  0  0  0  0  0  0  0  0  0  0  0
   36.9980   25.8760   32.2240 C   0  0  1  0  0  0  0  0  0  0  0  0
   36.5640   24.4450   32.1210 C   0  0  0  0  0  0  0  0  0  0  0  0
   35.5140   24.4000   31.0240 C   0  0  0  0  0  0  0  0  0  0  0  0
   35.0250   25.7790   30.7840 C   0  0  0  0  0  0  0  0  0  0  0  0
   35.7930   26.6290   31.7690 C   0  0  2  0  0  0  0  0  0  0  0  0
   36.2590   27.8130   30.9530 C   0  0  0  0  0  0  0  0  0  0  0  0
   37.1720   27.8890   29.9230 C   0  0  0  0  0  0  0  0  0  0  0  0
   37.4000   29.1250   29.3590 C   0  0  0  0  0  0  0  0  0  0  0  0
   36.7750   30.2400   29.7730 N   0  0  0  0  0  0  0  0  0  0  0  0
   35.8900   30.1360   30.7800 C   0  0  0  0  0  0  0  0  0  0  0  0
   35.6370   28.9620   31.3550 N   0  0  0  0  0  0  0  0  0  0  0  0
   38.8210   23.1960   38.4320 C   0  0  0  0  0  0  0  0  0  0  0  0
   38.2660   24.2550   37.6910 C   0  0  0  0  0  0  0  0  0  0  0  0
   38.8220   24.5180   36.4590 C   0  0  0  0  0  0  0  0  0  0  0  0
   39.8530   23.7620   36.0260 N   0  0  0  0  0  0  0  0  0  0  0  0
   40.3810   22.7390   36.7530 C   0  0  0  0  0  0  0  0  0  0  0  0
   39.8350   22.4850   37.9590 N   0  0  0  0  0  0  0  0  0  0  0  0
   41.4560   21.9570   36.2900 N   0  0  0  0  0  0  0  0  0  0  0  0
   38.5562   27.1077   37.2172 H   0  0  0  0  0  0  0  0  0  0  0  0
   37.6378   28.8740   35.7041 H   0  0  0  0  0  0  0  0  0  0  0  0
   36.9029   28.3772   33.4224 H   0  0  0  0  0  0  0  0  0  0  0  0
   37.9022   26.0625   31.6259 H   0  0  0  0  0  0  0  0  0  0  0  0
   37.4189   23.8050   31.8574 H   0  0  0  0  0  0  0  0  0  0  0  0
   36.1620   24.0776   33.0768 H   0  0  0  0  0  0  0  0  0  0  0  0
   35.9582   23.9980   30.1015 H   0  0  0  0  0  0  0  0  0  0  0  0
   34.6790   23.7516   31.3278 H   0  0  0  0  0  0  0  0  0  0  0  0
   35.2373   26.0927   29.7513 H   0  0  0  0  0  0  0  0  0  0  0  0
   33.9364   25.8659   30.9160 H   0  0  0  0  0  0  0  0  0  0  0  0
   35.1919   26.9100   32.6463 H   0  0  0  0  0  0  0  0  0  0  0  0
   37.7003   26.9935   29.5638 H   0  0  0  0  0  0  0  0  0  0  0  0
   38.1244   29.2024   28.5348 H   0  0  0  0  0  0  0  0  0  0  0  0
   35.3662   31.0359   31.1347 H   0  0  0  0  0  0  0  0  0  0  0  0
   38.4063   22.9535   39.4215 H   0  0  0  0  0  0  0  0  0  0  0  0
   37.4242   24.8474   38.0789 H   0  0  0  0  0  0  0  0  0  0  0  0
   41.8250   21.1921   36.8728 H   0  0  0  0  0  0  0  0  0  0  0  0
   41.8736   22.1497   35.3684 H   0  0  0  0  0  0  0  0  0  0  0  0
  1  2  2  0
  1 20  1  0
  3  2  1  0
  4  3  2  0
  5  4  1  0
  5  6  2  0
  6  1  1  0
  7  5  1  0
  8  7  1  0
  9  8  1  0
 10  9  1  0
 10 11  1  0
 11  7  1  0
 12 17  1  0
 12 11  1  0
 13 12  2  0
 14 15  2  0
 14 13  1  0
 15 16  1  0
 16 17  2  0
 19 18  2  0
 20 19  1  0
 21 20  2  0
 21 22  1  0
 22 23  2  0
 23 18  1  0
 24 22  1  0
  2 25  1  0
  3 26  1  0
  4 27  1  0
  7 28  1  6
  8 29  1  0
  8 30  1  0
  9 31  1  0
  9 32  1  0
 10 33  1  0
 10 34  1  0
 11 35  1  1
 13 36  1  0
 14 37  1  0
 16 38  1  0
 18 39  1  0
 19 40  1  0
 24 41  1  0
 24 42  1  0
M  ISO  8  25  14  26  14  27  14  28  13  29  13  30  13  31  13  32  13
M  ISO  8  33  13  34  13  35  13  36  14  37  14  38  14  39  14  40  14
M  END
>  <minimizedAffinity>  (1) 
-6.20475769

>  <minimizedRMSD>  (1) 
0.682926238

$$$$
