
     RDKit          3D

 42 45  0  0  1  0  0  0  0  0999 V2000
   38.3060   25.5970   35.6630 C   0  0  0  0  0  0  0  0  0  0  0  0
   38.2330   26.8780   36.2130 C   0  0  0  0  0  0  0  0  0  0  0  0
   37.7260   27.8480   35.3630 C   0  0  0  0  0  0  0  0  0  0  0  0
   37.3230   27.5920   34.0780 C   0  0  0  0  0  0  0  0  0  0  0  0
   37.4190   26.3100   33.5900 C   0  0  0  0  0  0  0  0  0  0  0  0
   37.9110   25.3670   34.4170 N   0  0  0  0  0  0  0  0  0  0  0  0
   37.0360   25.9100   32.2220 C   0  0  1  0  0  0  0  0  0  0  0  0
   36.6110   24.4790   32.1050 C   0  0  0  0  0  0  0  0  0  0  0  0
   35.5640   24.4350   31.0030 C   0  0  0  0  0  0  0  0  0  0  0  0
   35.0260   25.8150   30.8160 C   0  0  0  0  0  0  0  0  0  0  0  0
   35.8340   26.6630   31.7620 C   0  0  2  0  0  0  0  0  0  0  0  0
   36.3170   27.8050   30.9010 C   0  0  0  0  0  0  0  0  0  0  0  0
   35.7430   29.0080   31.3320 C   0  0  0  0  0  0  0  0  0  0  0  0
   36.0780   30.1880   30.6590 C   0  0  0  0  0  0  0  0  0  0  0  0
   36.9380   30.1760   29.6090 N   0  0  0  0  0  0  0  0  0  0  0  0
   37.4560   28.9720   29.2450 C   0  0  0  0  0  0  0  0  0  0  0  0
   37.1520   27.8270   29.8750 N   0  0  0  0  0  0  0  0  0  0  0  0
   38.8200   23.1900   38.4350 C   0  0  0  0  0  0  0  0  0  0  0  0
   38.2690   24.2510   37.6960 C   0  0  0  0  0  0  0  0  0  0  0  0
   38.8270   24.5190   36.4640 C   0  0  0  0  0  0  0  0  0  0  0  0
   39.8550   23.7650   36.0330 N   0  0  0  0  0  0  0  0  0  0  0  0
   40.3840   22.7400   36.7510 C   0  0  0  0  0  0  0  0  0  0  0  0
   39.8440   22.4750   37.9530 N   0  0  0  0  0  0  0  0  0  0  0  0
   41.4600   21.9580   36.2870 N   0  0  0  0  0  0  0  0  0  0  0  0
   38.5532   27.1003   37.2416 H   0  0  0  0  0  0  0  0  0  0  0  0
   37.6425   28.8782   35.7395 H   0  0  0  0  0  0  0  0  0  0  0  0
   36.9282   28.4011   33.4459 H   0  0  0  0  0  0  0  0  0  0  0  0
   37.9432   26.1063   31.6317 H   0  0  0  0  0  0  0  0  0  0  0  0
   37.4709   23.8465   31.8392 H   0  0  0  0  0  0  0  0  0  0  0  0
   36.2072   24.1022   33.0563 H   0  0  0  0  0  0  0  0  0  0  0  0
   36.0230   24.0842   30.0669 H   0  0  0  0  0  0  0  0  0  0  0  0
   34.7527   23.7445   31.2768 H   0  0  0  0  0  0  0  0  0  0  0  0
   35.1653   26.1497   29.7775 H   0  0  0  0  0  0  0  0  0  0  0  0
   33.9462   25.8750   31.0170 H   0  0  0  0  0  0  0  0  0  0  0  0
   35.2511   26.9713   32.6424 H   0  0  0  0  0  0  0  0  0  0  0  0
   35.0440   29.0245   32.1812 H   0  0  0  0  0  0  0  0  0  0  0  0
   35.6371   31.1412   30.9862 H   0  0  0  0  0  0  0  0  0  0  0  0
   38.1551   28.9355   28.3965 H   0  0  0  0  0  0  0  0  0  0  0  0
   38.4041   22.9437   39.4231 H   0  0  0  0  0  0  0  0  0  0  0  0
   37.4273   24.8431   38.0845 H   0  0  0  0  0  0  0  0  0  0  0  0
   41.8271   21.1907   36.8679 H   0  0  0  0  0  0  0  0  0  0  0  0
   41.8796   22.1535   35.3669 H   0  0  0  0  0  0  0  0  0  0  0  0
  1  2  2  0
  1 20  1  0
  3  2  1  0
  4  3  2  0
  5  4  1  0
  5  6  2  0
  6  1  1  0
  7  5  1  0
  8  7  1  0
  9  8  1  0
 10  9  1  0
 10 11  1  0
 11  7  1  0
 12 13  2  0
 12 11  1  0
 14 13  1  0
 15 14  2  0
 16 15  1  0
 16 17  2  0
 17 12  1  0
 19 18  2  0
 20 19  1  0
 21 20  2  0
 21 22  1  0
 22 23  2  0
 23 18  1  0
 24 22  1  0
  2 25  1  0
  3 26  1  0
  4 27  1  0
  7 28  1  6
  8 29  1  0
  8 30  1  0
  9 31  1  0
  9 32  1  0
 10 33  1  0
 10 34  1  0
 11 35  1  1
 13 36  1  0
 14 37  1  0
 16 38  1  0
 18 39  1  0
 19 40  1  0
 24 41  1  0
 24 42  1  0
M  ISO  8  25  14  26  14  27  14  28  13  29  13  30  13  31  13  32  13
M  ISO  8  33  13  34  13  35  13  36  14  37  14  38  14  39  14  40  14
M  END
>  <minimizedAffinity>  (1) 
-6.23741198

>  <minimizedRMSD>  (1) 
0.565579116

$$$$
