
     RDKit          3D

 40 43  0  0  1  0  0  0  0  0999 V2000
   38.2190   25.6540   35.6620 C   0  0  0  0  0  0  0  0  0  0  0  0
   38.1820   26.9500   36.1560 C   0  0  0  0  0  0  0  0  0  0  0  0
   37.7140   27.8900   35.2560 C   0  0  0  0  0  0  0  0  0  0  0  0
   37.3150   27.5920   33.9780 C   0  0  0  0  0  0  0  0  0  0  0  0
   37.3730   26.2890   33.5430 C   0  0  0  0  0  0  0  0  0  0  0  0
   37.8320   25.3620   34.4220 N   0  0  0  0  0  0  0  0  0  0  0  0
   36.9930   25.8120   32.2120 C   0  0  1  0  0  0  0  0  0  0  0  0
   36.6120   24.3690   32.1370 C   0  0  0  0  0  0  0  0  0  0  0  0
   35.5590   24.2660   31.0490 C   0  0  0  0  0  0  0  0  0  0  0  0
   35.0270   25.6410   30.7810 C   0  0  0  0  0  0  0  0  0  0  0  0
   35.7310   26.5070   31.7550 C   0  0  2  0  0  0  0  0  0  0  0  0
   36.1870   27.6870   31.0090 N   0  0  0  0  0  0  0  0  0  0  0  0
   35.7630   28.9500   31.1600 C   0  0  0  0  0  0  0  0  0  0  0  0
   36.4170   29.7490   30.2940 N   0  0  0  0  0  0  0  0  0  0  0  0
   37.2590   28.9870   29.5950 C   0  0  0  0  0  0  0  0  0  0  0  0
   37.1070   27.7520   30.0380 N   0  0  0  0  0  0  0  0  0  0  0  0
   38.6290   23.3350   38.5260 C   0  0  0  0  0  0  0  0  0  0  0  0
   38.1200   24.3780   37.7520 C   0  0  0  0  0  0  0  0  0  0  0  0
   38.7030   24.5810   36.5190 C   0  0  0  0  0  0  0  0  0  0  0  0
   39.7230   23.7780   36.1170 N   0  0  0  0  0  0  0  0  0  0  0  0
   40.2060   22.7690   36.8820 C   0  0  0  0  0  0  0  0  0  0  0  0
   39.6360   22.5660   38.0930 N   0  0  0  0  0  0  0  0  0  0  0  0
   41.2570   21.9440   36.4720 N   0  0  0  0  0  0  0  0  0  0  0  0
   38.4983   27.2081   37.1775 H   0  0  0  0  0  0  0  0  0  0  0  0
   37.6585   28.9384   35.5844 H   0  0  0  0  0  0  0  0  0  0  0  0
   36.9528   28.3863   33.3088 H   0  0  0  0  0  0  0  0  0  0  0  0
   37.8923   26.0070   31.6093 H   0  0  0  0  0  0  0  0  0  0  0  0
   37.4882   23.7560   31.8791 H   0  0  0  0  0  0  0  0  0  0  0  0
   36.2291   24.0045   33.1017 H   0  0  0  0  0  0  0  0  0  0  0  0
   36.0089   23.8557   30.1329 H   0  0  0  0  0  0  0  0  0  0  0  0
   34.7450   23.5994   31.3698 H   0  0  0  0  0  0  0  0  0  0  0  0
   35.2531   25.9514   29.7502 H   0  0  0  0  0  0  0  0  0  0  0  0
   33.9335   25.6946   30.8873 H   0  0  0  0  0  0  0  0  0  0  0  0
   35.0722   26.7439   32.6035 H   0  0  0  0  0  0  0  0  0  0  0  0
   34.9998   29.2824   31.8791 H   0  0  0  0  0  0  0  0  0  0  0  0
   37.9461   29.3216   28.8038 H   0  0  0  0  0  0  0  0  0  0  0  0
   38.1923   23.1395   39.5165 H   0  0  0  0  0  0  0  0  0  0  0  0
   37.2924   25.0089   38.1085 H   0  0  0  0  0  0  0  0  0  0  0  0
   41.5900   21.1893   37.0888 H   0  0  0  0  0  0  0  0  0  0  0  0
   41.6985   22.0907   35.5531 H   0  0  0  0  0  0  0  0  0  0  0  0
  1  2  2  0
  1 19  1  0
  3  2  1  0
  4  3  2  0
  5  4  1  0
  5  6  2  0
  6  1  1  0
  7  5  1  0
  8  7  1  0
  9  8  1  0
 10  9  1  0
 10 11  1  0
 11  7  1  0
 12 13  1  0
 12 11  1  0
 14 13  2  0
 15 16  2  0
 15 14  1  0
 16 12  1  0
 18 17  2  0
 19 18  1  0
 20 19  2  0
 20 21  1  0
 21 22  2  0
 22 17  1  0
 23 21  1  0
  2 24  1  0
  3 25  1  0
  4 26  1  0
  7 27  1  6
  8 28  1  0
  8 29  1  0
  9 30  1  0
  9 31  1  0
 10 32  1  0
 10 33  1  0
 11 34  1  1
 13 35  1  0
 15 36  1  0
 17 37  1  0
 18 38  1  0
 23 39  1  0
 23 40  1  0
M  ISO  8  24  14  25  14  26  14  27  13  28  13  29  13  30  13  31  13
M  ISO  7  32  13  33  13  34  13  35  14  36  14  37  14  38  14
M  END
>  <minimizedAffinity>  (1) 
-6.09437847

>  <minimizedRMSD>  (1) 
0.340832114

$$$$
