
     RDKit          3D

 37 39  0  0  1  0  0  0  0  0999 V2000
   38.1820   25.5870   35.5640 C   0  0  0  0  0  0  0  0  0  0  0  0
   38.1130   26.9140   35.9910 C   0  0  0  0  0  0  0  0  0  0  0  0
   37.6290   27.8050   35.0540 C   0  0  0  0  0  0  0  0  0  0  0  0
   37.2450   27.4410   33.7970 C   0  0  0  0  0  0  0  0  0  0  0  0
   37.3290   26.1200   33.4130 C   0  0  0  0  0  0  0  0  0  0  0  0
   37.8020   25.2440   34.3350 N   0  0  0  0  0  0  0  0  0  0  0  0
   36.9660   25.5830   32.0970 C   0  0  1  0  0  0  0  0  0  0  0  0
   36.5190   24.1530   32.1160 C   0  0  0  0  0  0  0  0  0  0  0  0
   35.4310   24.0260   31.0630 C   0  0  0  0  0  0  0  0  0  0  0  0
   35.0010   25.3870   30.6540 C   0  0  0  0  0  0  0  0  0  0  0  0
   35.7310   26.2960   31.5900 C   0  0  2  0  0  0  0  0  0  0  0  0
   36.1900   27.4840   30.7680 C   0  0  0  0  0  0  0  0  0  0  0  0
   38.6270   23.4230   38.5390 C   0  0  0  0  0  0  0  0  0  0  0  0
   38.0950   24.4200   37.7030 C   0  0  0  0  0  0  0  0  0  0  0  0
   38.6800   24.5790   36.4660 C   0  0  0  0  0  0  0  0  0  0  0  0
   39.7230   23.7850   36.1100 N   0  0  0  0  0  0  0  0  0  0  0  0
   40.2220   22.8280   36.9330 C   0  0  0  0  0  0  0  0  0  0  0  0
   39.6580   22.6640   38.1420 N   0  0  0  0  0  0  0  0  0  0  0  0
   41.3020   22.0080   36.5640 N   0  0  0  0  0  0  0  0  0  0  0  0
   38.4214   27.2268   36.9995 H   0  0  0  0  0  0  0  0  0  0  0  0
   37.5488   28.8651   35.3364 H   0  0  0  0  0  0  0  0  0  0  0  0
   36.8699   28.1983   33.0928 H   0  0  0  0  0  0  0  0  0  0  0  0
   37.8770   25.7062   31.4930 H   0  0  0  0  0  0  0  0  0  0  0  0
   37.3614   23.4885   31.8738 H   0  0  0  0  0  0  0  0  0  0  0  0
   36.1452   23.8667   33.1101 H   0  0  0  0  0  0  0  0  0  0  0  0
   35.8229   23.4839   30.1898 H   0  0  0  0  0  0  0  0  0  0  0  0
   34.5750   23.4711   31.4745 H   0  0  0  0  0  0  0  0  0  0  0  0
   35.2859   25.5897   29.6110 H   0  0  0  0  0  0  0  0  0  0  0  0
   33.9099   25.5179   30.7031 H   0  0  0  0  0  0  0  0  0  0  0  0
   35.0923   26.5952   32.4341 H   0  0  0  0  0  0  0  0  0  0  0  0
   36.5037   28.2960   31.4405 H   0  0  0  0  0  0  0  0  0  0  0  0
   37.0375   27.1854   30.1335 H   0  0  0  0  0  0  0  0  0  0  0  0
   35.3619   27.8328   30.1335 H   0  0  0  0  0  0  0  0  0  0  0  0
   38.1899   23.2630   39.5357 H   0  0  0  0  0  0  0  0  0  0  0  0
   37.2487   25.0458   38.0225 H   0  0  0  0  0  0  0  0  0  0  0  0
   41.6521   21.2926   37.2171 H   0  0  0  0  0  0  0  0  0  0  0  0
   41.7435   22.1224   35.6405 H   0  0  0  0  0  0  0  0  0  0  0  0
  1  2  2  0
  1 15  1  0
  3  2  1  0
  4  3  2  0
  5  4  1  0
  5  6  2  0
  6  1  1  0
  7  8  1  0
  7  5  1  0
  9  8  1  0
 10  9  1  0
 10 11  1  0
 11  7  1  0
 12 11  1  0
 14 13  2  0
 15 14  1  0
 16 15  2  0
 16 17  1  0
 17 18  2  0
 18 13  1  0
 19 17  1  0
  2 20  1  0
  3 21  1  0
  4 22  1  0
  7 23  1  6
  8 24  1  0
  8 25  1  0
  9 26  1  0
  9 27  1  0
 10 28  1  0
 10 29  1  0
 11 30  1  1
 12 31  1  0
 12 32  1  0
 12 33  1  0
 13 34  1  0
 14 35  1  0
 19 36  1  0
 19 37  1  0
M  ISO  8  20  14  21  14  22  14  23  13  24  13  25  13  26  13  27  13
M  ISO  8  28  13  29  13  30  13  31   8  32   8  33   8  34  14  35  14
M  END
>  <minimizedAffinity>  (1) 
-5.72418594

>  <minimizedRMSD>  (1) 
0.122737162

$$$$
