
     RDKit          3D

 37 39  0  0  1  0  0  0  0  0999 V2000
   38.2580   25.6180   35.6020 C   0  0  0  0  0  0  0  0  0  0  0  0
   38.1890   26.9070   36.1320 C   0  0  0  0  0  0  0  0  0  0  0  0
   37.6810   27.8550   35.2620 C   0  0  0  0  0  0  0  0  0  0  0  0
   37.2760   27.5720   33.9910 C   0  0  0  0  0  0  0  0  0  0  0  0
   37.3630   26.2860   33.5100 C   0  0  0  0  0  0  0  0  0  0  0  0
   37.8590   25.3550   34.3580 N   0  0  0  0  0  0  0  0  0  0  0  0
   36.9790   25.8300   32.1640 C   0  0  1  0  0  0  0  0  0  0  0  0
   36.7170   24.3570   32.0680 C   0  0  0  0  0  0  0  0  0  0  0  0
   35.6150   24.1760   31.0380 C   0  0  0  0  0  0  0  0  0  0  0  0
   34.9490   25.4990   30.8360 C   0  0  0  0  0  0  0  0  0  0  0  0
   35.6260   26.4130   31.8110 C   0  0  2  0  0  0  0  0  0  0  0  0
   35.9220   27.6690   31.0240 C   0  0  0  0  0  0  0  0  0  0  0  0
   35.7550   28.9020   31.3240 O   0  0  0  0  0  0  0  0  0  0  0  0
   36.4580   27.3720   29.7890 O   0  0  0  0  0  0  0  0  0  0  0  0
   38.7800   23.2470   38.4180 C   0  0  0  0  0  0  0  0  0  0  0  0
   38.2320   24.2940   37.6600 C   0  0  0  0  0  0  0  0  0  0  0  0
   38.7800   24.5490   36.4220 C   0  0  0  0  0  0  0  0  0  0  0  0
   39.8180   23.7880   35.9870 N   0  0  0  0  0  0  0  0  0  0  0  0
   40.3450   22.7770   36.7230 C   0  0  0  0  0  0  0  0  0  0  0  0
   39.8060   22.5260   37.9380 N   0  0  0  0  0  0  0  0  0  0  0  0
   41.4140   21.9950   36.2770 N   0  0  0  0  0  0  0  0  0  0  0  0
   38.5114   27.1489   37.1555 H   0  0  0  0  0  0  0  0  0  0  0  0
   37.5993   28.8937   35.6147 H   0  0  0  0  0  0  0  0  0  0  0  0
   36.8793   28.3728   33.3496 H   0  0  0  0  0  0  0  0  0  0  0  0
   37.8196   26.1299   31.5210 H   0  0  0  0  0  0  0  0  0  0  0  0
   37.6273   23.8302   31.7458 H   0  0  0  0  0  0  0  0  0  0  0  0
   36.4192   23.9436   33.0429 H   0  0  0  0  0  0  0  0  0  0  0  0
   36.0457   23.8261   30.0882 H   0  0  0  0  0  0  0  0  0  0  0  0
   34.8853   23.4303   31.3865 H   0  0  0  0  0  0  0  0  0  0  0  0
   35.0943   25.8540   29.8050 H   0  0  0  0  0  0  0  0  0  0  0  0
   33.8618   25.4485   30.9958 H   0  0  0  0  0  0  0  0  0  0  0  0
   35.0146   26.5704   32.7118 H   0  0  0  0  0  0  0  0  0  0  0  0
   36.6004   26.4285   29.5251 H   0  0  0  0  0  0  0  0  0  0  0  0
   38.3665   23.0160   39.4108 H   0  0  0  0  0  0  0  0  0  0  0  0
   37.3916   24.8919   38.0425 H   0  0  0  0  0  0  0  0  0  0  0  0
   41.7811   21.2377   36.8708 H   0  0  0  0  0  0  0  0  0  0  0  0
   41.8348   22.1760   35.3545 H   0  0  0  0  0  0  0  0  0  0  0  0
  1  2  2  0
  1 17  1  0
  3  2  1  0
  4  3  2  0
  5  4  1  0
  5  6  2  0
  6  1  1  0
  7  5  1  0
  8  7  1  0
  9  8  1  0
 10  9  1  0
 10 11  1  0
 11  7  1  0
 12 13  2  0
 12 11  1  0
 14 12  1  0
 16 15  2  0
 17 16  1  0
 18 17  2  0
 18 19  1  0
 19 20  2  0
 20 15  1  0
 21 19  1  0
  2 22  1  0
  3 23  1  0
  4 24  1  0
  7 25  1  6
  8 26  1  0
  8 27  1  0
  9 28  1  0
  9 29  1  0
 10 30  1  0
 10 31  1  0
 11 32  1  1
 14 33  1  0
 15 34  1  0
 16 35  1  0
 21 36  1  0
 21 37  1  0
M  ISO  8  22  14  23  14  24  14  25  13  26  13  27  13  28  13  29  13
M  ISO  6  30  13  31  13  32  13  33   3  34  14  35  14
M  END
>  <minimizedAffinity>  (1) 
-6.02868176

>  <minimizedRMSD>  (1) 
0.300974905

$$$$
