
     RDKit          3D

 41 43  0  0  1  0  0  0  0  0999 V2000
   36.9950   25.7480   32.2070 C   0  0  1  0  0  0  0  0  0  0  0  0
   36.6430   24.2970   32.1380 C   0  0  0  0  0  0  0  0  0  0  0  0
   35.6000   24.1770   31.0370 C   0  0  0  0  0  0  0  0  0  0  0  0
   35.0550   25.5310   30.7540 C   0  0  0  0  0  0  0  0  0  0  0  0
   35.7100   26.4160   31.7490 C   0  0  2  0  0  0  0  0  0  0  0  0
   38.2070   25.6320   35.6780 C   0  0  0  0  0  0  0  0  0  0  0  0
   38.1430   26.9340   36.1580 C   0  0  0  0  0  0  0  0  0  0  0  0
   37.6600   27.8600   35.2400 C   0  0  0  0  0  0  0  0  0  0  0  0
   37.2690   27.5360   33.9550 C   0  0  0  0  0  0  0  0  0  0  0  0
   37.3570   26.2250   33.5430 C   0  0  0  0  0  0  0  0  0  0  0  0
   37.8280   25.3230   34.4350 N   0  0  0  0  0  0  0  0  0  0  0  0
   38.6350   23.3670   38.5810 C   0  0  0  0  0  0  0  0  0  0  0  0
   38.1220   24.3920   37.7800 C   0  0  0  0  0  0  0  0  0  0  0  0
   38.7040   24.5810   36.5450 C   0  0  0  0  0  0  0  0  0  0  0  0
   39.7140   23.7820   36.1830 N   0  0  0  0  0  0  0  0  0  0  0  0
   40.2130   22.7840   36.9630 C   0  0  0  0  0  0  0  0  0  0  0  0
   39.6400   22.6060   38.1670 N   0  0  0  0  0  0  0  0  0  0  0  0
   41.2810   21.9620   36.5410 N   0  0  0  0  0  0  0  0  0  0  0  0
   36.0790   27.6450   31.0740 N   0  0  0  0  0  0  0  0  0  0  0  0
   37.3480   27.5610   30.3920 C   0  0  0  0  0  0  0  0  0  0  0  0
   37.8400   26.4030   30.0340 N   0  0  0  0  0  0  0  0  0  0  0  0
   38.1420   28.7200   30.0650 N   0  0  0  0  0  0  0  0  0  0  0  0
   38.7550   26.3080   29.5390 H   0  0  0  0  0  0  0  0  0  0  0  0
   37.8875   25.9675   31.6027 H   0  0  0  0  0  0  0  0  0  0  0  0
   37.5320   23.6982   31.8907 H   0  0  0  0  0  0  0  0  0  0  0  0
   36.2610   23.9262   33.1006 H   0  0  0  0  0  0  0  0  0  0  0  0
   36.0650   23.7668   30.1284 H   0  0  0  0  0  0  0  0  0  0  0  0
   34.7906   23.5040   31.3563 H   0  0  0  0  0  0  0  0  0  0  0  0
   35.3074   25.8446   29.7303 H   0  0  0  0  0  0  0  0  0  0  0  0
   33.9579   25.5619   30.8278 H   0  0  0  0  0  0  0  0  0  0  0  0
   35.0387   26.6080   32.5990 H   0  0  0  0  0  0  0  0  0  0  0  0
   38.4486   27.2092   37.1782 H   0  0  0  0  0  0  0  0  0  0  0  0
   37.5848   28.9112   35.5550 H   0  0  0  0  0  0  0  0  0  0  0  0
   36.8936   28.3125   33.2723 H   0  0  0  0  0  0  0  0  0  0  0  0
   38.1967   23.1881   39.5739 H   0  0  0  0  0  0  0  0  0  0  0  0
   37.2876   25.0221   38.1218 H   0  0  0  0  0  0  0  0  0  0  0  0
   41.6322   21.2164   37.1587 H   0  0  0  0  0  0  0  0  0  0  0  0
   41.7087   22.1081   35.6155 H   0  0  0  0  0  0  0  0  0  0  0  0
   35.4942   28.4928   31.0806 H   0  0  0  0  0  0  0  0  0  0  0  0
   39.0419   28.6067   29.5769 H   0  0  0  0  0  0  0  0  0  0  0  0
   37.8090   29.6609   30.3196 H   0  0  0  0  0  0  0  0  0  0  0  0
  1 10  1  0
  2  1  1  0
  3  2  1  0
  4  3  1  0
  4  5  1  0
  5  1  1  0
  6  7  2  0
  6 14  1  0
  8  7  1  0
  9  8  2  0
 10  9  1  0
 10 11  2  0
 11  6  1  0
 13 12  2  0
 14 13  1  0
 15 14  2  0
 15 16  1  0
 16 17  2  0
 17 12  1  0
 18 16  1  0
 19  5  1  0
 20 19  1  0
 21 20  2  0
 22 20  1  0
 23 21  1  0
  1 24  1  6
  2 25  1  0
  2 26  1  0
  3 27  1  0
  3 28  1  0
  4 29  1  0
  4 30  1  0
  5 31  1  1
  7 32  1  0
  8 33  1  0
  9 34  1  0
 12 35  1  0
 13 36  1  0
 18 37  1  0
 18 38  1  0
 19 39  1  0
 22 40  1  0
 22 41  1  0
M  ISO  8  24  13  25  13  26  13  27  13  28  13  29  13  30  13  31  13
M  ISO  5  32  14  33  14  34  14  35  14  36  14
M  END
>  <minimizedAffinity>  (1) 
-5.98050642

>  <minimizedRMSD>  (1) 
0.262889743

$$$$
