
     RDKit          3D

 36 38  0  0  1  0  0  0  0  0999 V2000
   38.1270   25.6140   35.4770 C   0  0  0  0  0  0  0  0  0  0  0  0
   38.0570   26.9450   35.8960 C   0  0  0  0  0  0  0  0  0  0  0  0
   37.5510   27.8220   34.9630 C   0  0  0  0  0  0  0  0  0  0  0  0
   37.1390   27.4340   33.7020 C   0  0  0  0  0  0  0  0  0  0  0  0
   37.2310   26.1080   33.3440 C   0  0  0  0  0  0  0  0  0  0  0  0
   37.7270   25.2510   34.2610 N   0  0  0  0  0  0  0  0  0  0  0  0
   36.8450   25.5670   32.0460 C   0  0  1  0  0  0  0  0  0  0  0  0
   36.5000   24.1100   32.0520 C   0  0  0  0  0  0  0  0  0  0  0  0
   35.4540   23.9230   30.9670 C   0  0  0  0  0  0  0  0  0  0  0  0
   34.8990   25.2760   30.6230 C   0  0  0  0  0  0  0  0  0  0  0  0
   35.5460   26.2050   31.5900 C   0  0  2  0  0  0  0  0  0  0  0  0
   35.9060   27.4180   30.8760 N   0  0  0  0  0  0  0  0  0  0  0  0
   38.5920   23.4890   38.4820 C   0  0  0  0  0  0  0  0  0  0  0  0
   38.0700   24.4660   37.6240 C   0  0  0  0  0  0  0  0  0  0  0  0
   38.6440   24.6140   36.3790 C   0  0  0  0  0  0  0  0  0  0  0  0
   39.6690   23.8170   36.0510 N   0  0  0  0  0  0  0  0  0  0  0  0
   40.1760   22.8680   36.8820 C   0  0  0  0  0  0  0  0  0  0  0  0
   39.6080   22.7320   38.0950 N   0  0  0  0  0  0  0  0  0  0  0  0
   41.2530   22.0390   36.5210 N   0  0  0  0  0  0  0  0  0  0  0  0
   38.3817   27.2680   36.8961 H   0  0  0  0  0  0  0  0  0  0  0  0
   37.4706   28.8849   35.2348 H   0  0  0  0  0  0  0  0  0  0  0  0
   36.7424   28.1758   32.9931 H   0  0  0  0  0  0  0  0  0  0  0  0
   37.7227   25.7610   31.4120 H   0  0  0  0  0  0  0  0  0  0  0  0
   37.3919   23.5051   31.8314 H   0  0  0  0  0  0  0  0  0  0  0  0
   36.1232   23.7892   33.0344 H   0  0  0  0  0  0  0  0  0  0  0  0
   35.9156   23.4709   30.0767 H   0  0  0  0  0  0  0  0  0  0  0  0
   34.6517   23.2577   31.3186 H   0  0  0  0  0  0  0  0  0  0  0  0
   35.1569   25.5501   29.5894 H   0  0  0  0  0  0  0  0  0  0  0  0
   33.8013   25.3051   30.6877 H   0  0  0  0  0  0  0  0  0  0  0  0
   34.8734   26.4155   32.4345 H   0  0  0  0  0  0  0  0  0  0  0  0
   36.1269   28.1622   31.5530 H   0  0  0  0  0  0  0  0  0  0  0  0
   36.7294   27.2366   30.2844 H   0  0  0  0  0  0  0  0  0  0  0  0
   38.1559   23.3498   39.4822 H   0  0  0  0  0  0  0  0  0  0  0  0
   37.2251   25.0979   37.9352 H   0  0  0  0  0  0  0  0  0  0  0  0
   41.6042   21.3330   37.1837 H   0  0  0  0  0  0  0  0  0  0  0  0
   41.6907   22.1378   35.5939 H   0  0  0  0  0  0  0  0  0  0  0  0
  1  2  2  0
  1 15  1  0
  3  2  1  0
  4  3  2  0
  5  4  1  0
  5  6  2  0
  6  1  1  0
  7  8  1  0
  7  5  1  0
  9  8  1  0
 10  9  1  0
 10 11  1  0
 11  7  1  0
 12 11  1  0
 14 13  2  0
 15 14  1  0
 16 15  2  0
 16 17  1  0
 17 18  2  0
 18 13  1  0
 19 17  1  0
  2 20  1  0
  3 21  1  0
  4 22  1  0
  7 23  1  6
  8 24  1  0
  8 25  1  0
  9 26  1  0
  9 27  1  0
 10 28  1  0
 10 29  1  0
 11 30  1  1
 12 31  1  0
 12 32  1  0
 13 33  1  0
 14 34  1  0
 19 35  1  0
 19 36  1  0
M  ISO  8  20  14  21  14  22  14  23  13  24  13  25  13  26  13  27  13
M  ISO  7  28  13  29  13  30  13  31   5  32   5  33  14  34  14
M  END
>  <minimizedAffinity>  (1) 
-5.76218319

>  <minimizedRMSD>  (1) 
0.0520461276

$$$$
