
     RDKit          3D

 40 42  0  0  1  0  0  0  0  0999 V2000
   38.2360   25.6140   35.6480 C   0  0  0  0  0  0  0  0  0  0  0  0
   38.1760   26.9250   36.1040 C   0  0  0  0  0  0  0  0  0  0  0  0
   37.7030   27.8310   35.1870 C   0  0  0  0  0  0  0  0  0  0  0  0
   37.3150   27.5020   33.9210 C   0  0  0  0  0  0  0  0  0  0  0  0
   37.3890   26.1940   33.5040 C   0  0  0  0  0  0  0  0  0  0  0  0
   37.8560   25.2930   34.4050 N   0  0  0  0  0  0  0  0  0  0  0  0
   37.0220   25.6950   32.1640 C   0  0  1  0  0  0  0  0  0  0  0  0
   36.4800   24.3010   32.1540 C   0  0  0  0  0  0  0  0  0  0  0  0
   35.3800   24.2530   31.1050 C   0  0  0  0  0  0  0  0  0  0  0  0
   35.0370   25.6460   30.7150 C   0  0  0  0  0  0  0  0  0  0  0  0
   35.9240   26.5050   31.5950 C   0  0  2  0  0  0  0  0  0  0  0  0
   36.4360   27.5770   30.6120 C   0  0  0  0  0  0  0  0  0  0  0  0
   35.9320   28.9150   31.1000 C   0  0  0  0  0  0  0  0  0  0  0  0
   38.6310   23.3640   38.5730 C   0  0  0  0  0  0  0  0  0  0  0  0
   38.1310   24.3850   37.7560 C   0  0  0  0  0  0  0  0  0  0  0  0
   38.7210   24.5720   36.5240 C   0  0  0  0  0  0  0  0  0  0  0  0
   39.7510   23.7680   36.1560 N   0  0  0  0  0  0  0  0  0  0  0  0
   40.2300   22.7790   36.9580 C   0  0  0  0  0  0  0  0  0  0  0  0
   39.6520   22.6000   38.1570 N   0  0  0  0  0  0  0  0  0  0  0  0
   41.2930   21.9480   36.5810 N   0  0  0  0  0  0  0  0  0  0  0  0
   38.4833   27.2144   37.1198 H   0  0  0  0  0  0  0  0  0  0  0  0
   37.6327   28.8857   35.4914 H   0  0  0  0  0  0  0  0  0  0  0  0
   36.9446   28.2798   33.2370 H   0  0  0  0  0  0  0  0  0  0  0  0
   37.9632   25.7456   31.5969 H   0  0  0  0  0  0  0  0  0  0  0  0
   37.2775   23.5885   31.8965 H   0  0  0  0  0  0  0  0  0  0  0  0
   36.0869   24.0281   33.1444 H   0  0  0  0  0  0  0  0  0  0  0  0
   35.7323   23.6972   30.2235 H   0  0  0  0  0  0  0  0  0  0  0  0
   34.4926   23.7472   31.5132 H   0  0  0  0  0  0  0  0  0  0  0  0
   35.2570   25.8192   29.6512 H   0  0  0  0  0  0  0  0  0  0  0  0
   33.9681   25.8702   30.8459 H   0  0  0  0  0  0  0  0  0  0  0  0
   35.4125   26.9428   32.4649 H   0  0  0  0  0  0  0  0  0  0  0  0
   36.0503   27.3756   29.6017 H   0  0  0  0  0  0  0  0  0  0  0  0
   37.5350   27.5690   30.5665 H   0  0  0  0  0  0  0  0  0  0  0  0
   35.9278   28.9262   32.1999 H   0  0  0  0  0  0  0  0  0  0  0  0
   36.5911   29.7131   30.7277 H   0  0  0  0  0  0  0  0  0  0  0  0
   34.9101   29.0799   30.7277 H   0  0  0  0  0  0  0  0  0  0  0  0
   38.1838   23.1872   39.5623 H   0  0  0  0  0  0  0  0  0  0  0  0
   37.2941   25.0178   38.0864 H   0  0  0  0  0  0  0  0  0  0  0  0
   41.6229   21.2115   37.2210 H   0  0  0  0  0  0  0  0  0  0  0  0
   41.7446   22.0736   35.6639 H   0  0  0  0  0  0  0  0  0  0  0  0
  1  2  2  0
  1 16  1  0
  3  2  1  0
  4  3  2  0
  5  4  1  0
  5  6  2  0
  6  1  1  0
  7  5  1  0
  8  7  1  0
  9  8  1  0
 10  9  1  0
 10 11  1  0
 11  7  1  0
 12 13  1  0
 12 11  1  0
 15 14  2  0
 16 15  1  0
 17 16  2  0
 17 18  1  0
 18 19  2  0
 19 14  1  0
 20 18  1  0
  2 21  1  0
  3 22  1  0
  4 23  1  0
  7 24  1  6
  8 25  1  0
  8 26  1  0
  9 27  1  0
  9 28  1  0
 10 29  1  0
 10 30  1  0
 11 31  1  1
 12 32  1  0
 12 33  1  0
 13 34  1  0
 13 35  1  0
 13 36  1  0
 14 37  1  0
 15 38  1  0
 20 39  1  0
 20 40  1  0
M  ISO  8  21  14  22  14  23  14  24  13  25  13  26  13  27  13  28  13
M  ISO  8  29  13  30  13  31  13  32   8  33   8  34   8  35   8  36   8
M  ISO  2  37  14  38  14
M  END
>  <minimizedAffinity>  (1) 
-5.630898

>  <minimizedRMSD>  (1) 
0.279557407

$$$$
