
     RDKit          3D

 27 29  0  0  0  0  0  0  0  0999 V2000
   41.3810   22.0890   35.7170 S   0  0  0  0  0  0  0  0  0  0  0  0
   40.0970   22.9600   36.6050 C   0  0  0  0  0  0  0  0  0  0  0  0
   39.7740   22.6910   37.9120 C   0  0  0  0  0  0  0  0  0  0  0  0
   38.7610   23.4360   38.4820 C   0  0  0  0  0  0  0  0  0  0  0  0
   38.0510   24.4230   37.8440 C   0  0  0  0  0  0  0  0  0  0  0  0
   38.4060   24.6660   36.5250 C   0  0  0  0  0  0  0  0  0  0  0  0
   37.6940   25.6660   35.8600 C   0  0  0  0  0  0  0  0  0  0  0  0
   38.0240   25.9360   34.5340 C   0  0  0  0  0  0  0  0  0  0  0  0
   39.0260   25.2310   33.9000 C   0  0  0  0  0  0  0  0  0  0  0  0
   39.7320   24.2320   34.5730 C   0  0  0  0  0  0  0  0  0  0  0  0
   39.4190   23.9480   35.8910 C   0  0  0  0  0  0  0  0  0  0  0  0
   44.1500   22.1250   35.7580 C   0  0  0  0  0  0  0  0  0  0  0  0
   42.9740   22.8230   36.0320 C   0  0  0  0  0  0  0  0  0  0  0  0
   43.0640   24.1230   36.5640 C   0  0  0  0  0  0  0  0  0  0  0  0
   44.3260   24.6370   36.7860 N   0  0  0  0  0  0  0  0  0  0  0  0
   45.4350   23.9320   36.5090 C   0  0  0  0  0  0  0  0  0  0  0  0
   45.3510   22.6730   35.9930 N   0  0  0  0  0  0  0  0  0  0  0  0
   40.3016   21.9125   38.4826 H   0  0  0  0  0  0  0  0  0  0  0  0
   38.5024   23.2221   39.5295 H   0  0  0  0  0  0  0  0  0  0  0  0
   37.2509   24.9858   38.3471 H   0  0  0  0  0  0  0  0  0  0  0  0
   36.8949   26.2249   36.3689 H   0  0  0  0  0  0  0  0  0  0  0  0
   37.4798   26.7197   33.9865 H   0  0  0  0  0  0  0  0  0  0  0  0
   39.2716   25.4585   32.8522 H   0  0  0  0  0  0  0  0  0  0  0  0
   40.5302   23.6754   34.0601 H   0  0  0  0  0  0  0  0  0  0  0  0
   44.0913   21.1083   35.3423 H   0  0  0  0  0  0  0  0  0  0  0  0
   42.1616   24.7082   36.7945 H   0  0  0  0  0  0  0  0  0  0  0  0
   46.4231   24.3758   36.7008 H   0  0  0  0  0  0  0  0  0  0  0  0
  1 13  1  0
  1  2  1  0
  2  3  2  0
  3  4  1  0
  5  4  2  0
  6  5  1  0
  7  6  2  0
  8  7  1  0
  9  8  2  0
  9 10  1  0
 10 11  2  0
 11  6  1  0
 11  2  1  0
 12 17  2  0
 12 13  1  0
 13 14  2  0
 14 15  1  0
 16 15  2  0
 17 16  1  0
  3 18  1  0
  4 19  1  0
  5 20  1  0
  7 21  1  0
  8 22  1  0
  9 23  1  0
 10 24  1  0
 12 25  1  0
 14 26  1  0
 16 27  1  0
M  ISO  8  18  14  19  14  20  14  21  14  22  14  23  14  24  14  25  14
M  ISO  2  26  14  27  14
M  END
>  <minimizedAffinity>  (1) 
-4.35514212

>  <minimizedRMSD>  (1) 
6.73683023

$$$$
