
     RDKit          3D

 35 37  0  0  1  0  0  0  0  0999 V2000
   38.1970   25.5880   35.6060 C   0  0  0  0  0  0  0  0  0  0  0  0
   38.1440   26.9110   36.0440 C   0  0  0  0  0  0  0  0  0  0  0  0
   37.6610   27.8160   35.1140 C   0  0  0  0  0  0  0  0  0  0  0  0
   37.2560   27.4660   33.8490 C   0  0  0  0  0  0  0  0  0  0  0  0
   37.3310   26.1440   33.4730 C   0  0  0  0  0  0  0  0  0  0  0  0
   37.8040   25.2560   34.3810 N   0  0  0  0  0  0  0  0  0  0  0  0
   36.9510   25.6200   32.1540 C   0  0  1  0  0  0  0  0  0  0  0  0
   36.4070   24.2260   32.1670 C   0  0  0  0  0  0  0  0  0  0  0  0
   35.4340   24.1540   31.0060 C   0  0  0  0  0  0  0  0  0  0  0  0
   35.0490   25.5520   30.6340 C   0  0  0  0  0  0  0  0  0  0  0  0
   35.7630   26.4110   31.6150 C   0  0  2  0  0  0  0  0  0  0  0  0
   36.4650   27.8070   30.6520 S   0  0  0  0  0  0  0  0  0  0  0  0
   38.6400   23.4010   38.5680 C   0  0  0  0  0  0  0  0  0  0  0  0
   38.1100   24.4040   37.7400 C   0  0  0  0  0  0  0  0  0  0  0  0
   38.6950   24.5720   36.5020 C   0  0  0  0  0  0  0  0  0  0  0  0
   39.7350   23.7790   36.1450 N   0  0  0  0  0  0  0  0  0  0  0  0
   40.2400   22.8130   36.9490 C   0  0  0  0  0  0  0  0  0  0  0  0
   39.6720   22.6450   38.1580 N   0  0  0  0  0  0  0  0  0  0  0  0
   41.3120   21.9950   36.5850 N   0  0  0  0  0  0  0  0  0  0  0  0
   38.4621   27.2129   37.0528 H   0  0  0  0  0  0  0  0  0  0  0  0
   37.5981   28.8750   35.4046 H   0  0  0  0  0  0  0  0  0  0  0  0
   36.8791   28.2273   33.1501 H   0  0  0  0  0  0  0  0  0  0  0  0
   37.8820   25.6795   31.5712 H   0  0  0  0  0  0  0  0  0  0  0  0
   37.2190   23.4962   32.0326 H   0  0  0  0  0  0  0  0  0  0  0  0
   35.9163   23.9907   33.1230 H   0  0  0  0  0  0  0  0  0  0  0  0
   35.9128   23.6585   30.1485 H   0  0  0  0  0  0  0  0  0  0  0  0
   34.5424   23.5765   31.2915 H   0  0  0  0  0  0  0  0  0  0  0  0
   35.3713   25.7836   29.6081 H   0  0  0  0  0  0  0  0  0  0  0  0
   33.9601   25.7057   30.6596 H   0  0  0  0  0  0  0  0  0  0  0  0
   35.0977   26.7391   32.4272 H   0  0  0  0  0  0  0  0  0  0  0  0
   36.9441   28.7598   31.5120 H   0  0  0  0  0  0  0  0  0  0  0  0
   38.2049   23.2325   39.5641 H   0  0  0  0  0  0  0  0  0  0  0  0
   37.2648   25.0287   38.0647 H   0  0  0  0  0  0  0  0  0  0  0  0
   41.6553   21.2754   37.2371 H   0  0  0  0  0  0  0  0  0  0  0  0
   41.7592   22.1113   35.6645 H   0  0  0  0  0  0  0  0  0  0  0  0
  1  2  2  0
  1 15  1  0
  3  2  1  0
  4  3  2  0
  5  4  1  0
  5  6  2  0
  6  1  1  0
  7  8  1  0
  7  5  1  0
  9  8  1  0
 10  9  1  0
 10 11  1  0
 11  7  1  0
 12 11  1  0
 14 13  2  0
 15 14  1  0
 16 15  2  0
 16 17  1  0
 17 18  2  0
 18 13  1  0
 19 17  1  0
  2 20  1  0
  3 21  1  0
  4 22  1  0
  7 23  1  6
  8 24  1  0
  8 25  1  0
  9 26  1  0
  9 27  1  0
 10 28  1  0
 10 29  1  0
 11 30  1  1
 12 31  1  0
 13 32  1  0
 14 33  1  0
 19 34  1  0
 19 35  1  0
M  ISO  8  20  14  21  14  22  14  23  13  24  13  25  13  26  13  27  13
M  ISO  6  28  13  29  13  30  13  31  11  32  14  33  14
M  END
>  <minimizedAffinity>  (1) 
-5.62475967

>  <minimizedRMSD>  (1) 
0.227517903

$$$$
