
     RDKit          3D

 35 37  0  0  1  0  0  0  0  0999 V2000
   38.1490   25.6150   35.5350 C   0  0  0  0  0  0  0  0  0  0  0  0
   38.1050   26.9420   35.9640 C   0  0  0  0  0  0  0  0  0  0  0  0
   37.6180   27.8340   35.0260 C   0  0  0  0  0  0  0  0  0  0  0  0
   37.2020   27.4700   33.7630 C   0  0  0  0  0  0  0  0  0  0  0  0
   37.2710   26.1440   33.3980 C   0  0  0  0  0  0  0  0  0  0  0  0
   37.7480   25.2720   34.3160 N   0  0  0  0  0  0  0  0  0  0  0  0
   36.8780   25.6160   32.0900 C   0  0  1  0  0  0  0  0  0  0  0  0
   36.5400   24.1590   32.0810 C   0  0  0  0  0  0  0  0  0  0  0  0
   35.4730   23.9840   31.0110 C   0  0  0  0  0  0  0  0  0  0  0  0
   34.9670   25.3390   30.6370 C   0  0  0  0  0  0  0  0  0  0  0  0
   35.5470   26.2400   31.6680 C   0  0  2  0  0  0  0  0  0  0  0  0
   35.9000   27.4400   31.0280 O   0  0  0  0  0  0  0  0  0  0  0  0
   38.6180   23.4450   38.5140 C   0  0  0  0  0  0  0  0  0  0  0  0
   38.0830   24.4410   37.6800 C   0  0  0  0  0  0  0  0  0  0  0  0
   38.6530   24.6030   36.4360 C   0  0  0  0  0  0  0  0  0  0  0  0
   39.6910   23.8060   36.0750 N   0  0  0  0  0  0  0  0  0  0  0  0
   40.2010   22.8470   36.8850 C   0  0  0  0  0  0  0  0  0  0  0  0
   39.6430   22.6870   38.1040 N   0  0  0  0  0  0  0  0  0  0  0  0
   41.2720   22.0240   36.5140 N   0  0  0  0  0  0  0  0  0  0  0  0
   38.4313   27.2535   36.9672 H   0  0  0  0  0  0  0  0  0  0  0  0
   37.5591   28.8966   35.3041 H   0  0  0  0  0  0  0  0  0  0  0  0
   36.8218   28.2253   33.0594 H   0  0  0  0  0  0  0  0  0  0  0  0
   37.7458   25.8314   31.4492 H   0  0  0  0  0  0  0  0  0  0  0  0
   37.4301   23.5614   31.8348 H   0  0  0  0  0  0  0  0  0  0  0  0
   36.1834   23.8215   33.0653 H   0  0  0  0  0  0  0  0  0  0  0  0
   35.9067   23.4909   30.1285 H   0  0  0  0  0  0  0  0  0  0  0  0
   34.6502   23.3604   31.3905 H   0  0  0  0  0  0  0  0  0  0  0  0
   35.3135   25.6215   29.6320 H   0  0  0  0  0  0  0  0  0  0  0  0
   33.8684   25.3855   30.6054 H   0  0  0  0  0  0  0  0  0  0  0  0
   34.8474   26.3929   32.5029 H   0  0  0  0  0  0  0  0  0  0  0  0
   36.1029   28.1297   31.7086 H   0  0  0  0  0  0  0  0  0  0  0  0
   38.1902   23.2860   39.5149 H   0  0  0  0  0  0  0  0  0  0  0  0
   37.2407   25.0680   38.0078 H   0  0  0  0  0  0  0  0  0  0  0  0
   41.6226   21.3092   37.1675 H   0  0  0  0  0  0  0  0  0  0  0  0
   41.7089   22.1336   35.5877 H   0  0  0  0  0  0  0  0  0  0  0  0
  1  2  2  0
  1 15  1  0
  3  2  1  0
  4  3  2  0
  5  4  1  0
  5  6  2  0
  6  1  1  0
  7  5  1  0
  8  7  1  0
  9  8  1  0
 10  9  1  0
 10 11  1  0
 11  7  1  0
 12 11  1  0
 14 13  2  0
 15 14  1  0
 16 15  2  0
 16 17  1  0
 17 18  2  0
 18 13  1  0
 19 17  1  0
  2 20  1  0
  3 21  1  0
  4 22  1  0
  7 23  1  6
  8 24  1  0
  8 25  1  0
  9 26  1  0
  9 27  1  0
 10 28  1  0
 10 29  1  0
 11 30  1  1
 12 31  1  0
 13 32  1  0
 14 33  1  0
 19 34  1  0
 19 35  1  0
M  ISO  8  20  14  21  14  22  14  23  13  24  13  25  13  26  13  27  13
M  ISO  6  28  13  29  13  30  13  31   3  32  14  33  14
M  END
>  <minimizedAffinity>  (1) 
-5.67568159

>  <minimizedRMSD>  (1) 
0.0628099069

$$$$
