
     RDKit          3D

 18 19  0  0  0  0  0  0  0  0999 V2000
   39.0330   22.2490   35.8690 C   0  0  0  0  0  0  0  0  0  0  0  0
   39.9560   22.5640   36.8870 C   0  0  0  0  0  0  0  0  0  0  0  0
   39.4640   23.1240   38.0760 C   0  0  0  0  0  0  0  0  0  0  0  0
   38.1110   23.3410   38.1940 N   0  0  0  0  0  0  0  0  0  0  0  0
   37.2620   23.0220   37.1840 C   0  0  0  0  0  0  0  0  0  0  0  0
   37.7220   22.4820   36.0370 N   0  0  0  0  0  0  0  0  0  0  0  0
   41.7010   22.2580   36.6720 S   0  0  0  0  0  0  0  0  0  0  0  0
   43.3220   25.6390   35.4180 N   0  0  0  0  0  0  0  0  0  0  0  0
   42.3230   24.7770   35.3950 N   0  0  0  0  0  0  0  0  0  0  0  0
   42.5980   23.7380   36.2310 C   0  0  0  0  0  0  0  0  0  0  0  0
   43.8490   24.0290   36.7730 C   0  0  0  0  0  0  0  0  0  0  0  0
   44.3060   25.2340   36.2550 C   0  0  0  0  0  0  0  0  0  0  0  0
   39.3911   21.8077   34.9272 H   0  0  0  0  0  0  0  0  0  0  0  0
   40.1473   23.3844   38.8978 H   0  0  0  0  0  0  0  0  0  0  0  0
   36.1841   23.2065   37.3027 H   0  0  0  0  0  0  0  0  0  0  0  0
   43.3496   26.5098   34.8686 H   0  0  0  0  0  0  0  0  0  0  0  0
   44.3896   23.4023   37.4976 H   0  0  0  0  0  0  0  0  0  0  0  0
   45.2549   25.7448   36.4755 H   0  0  0  0  0  0  0  0  0  0  0  0
  1  6  2  0
  1  2  1  0
  2  3  2  0
  3  4  1  0
  5  4  2  0
  6  5  1  0
  7  2  1  0
  8 12  1  0
  9  8  1  0
  9 10  2  0
 10  7  1  0
 10 11  1  0
 12 11  2  0
  1 13  1  0
  3 14  1  0
  5 15  1  0
  8 16  1  0
 11 17  1  0
 12 18  1  0
M  ISO  6  13  14  14  14  15  14  16   9  17  14  18  14
M  END
>  <minimizedAffinity>  (1) 
-3.47028637

>  <minimizedRMSD>  (1) 
1.05623925

$$$$
