
     RDKit          3D

 24 25  0  0  0  0  0  0  0  0999 V2000
   43.8100   22.8100   35.7310 S   0  0  0  0  0  0  0  0  0  0  0  0
   46.2840   23.7520   36.5210 C   0  0  0  0  0  0  0  0  0  0  0  0
   44.8860   23.9430   36.5860 C   0  0  0  0  0  0  0  0  0  0  0  0
   44.4010   25.0320   37.3330 C   0  0  0  0  0  0  0  0  0  0  0  0
   45.3010   25.8550   37.9610 N   0  0  0  0  0  0  0  0  0  0  0  0
   46.6210   25.6400   37.8760 C   0  0  0  0  0  0  0  0  0  0  0  0
   47.1190   24.6050   37.1690 N   0  0  0  0  0  0  0  0  0  0  0  0
   39.3940   23.4610   36.7610 C   0  0  0  0  0  0  0  0  0  0  0  0
   40.0290   24.0740   35.6850 C   0  0  0  0  0  0  0  0  0  0  0  0
   41.3680   23.8510   35.4050 C   0  0  0  0  0  0  0  0  0  0  0  0
   42.1020   22.9900   36.2230 C   0  0  0  0  0  0  0  0  0  0  0  0
   41.4810   22.3790   37.2920 C   0  0  0  0  0  0  0  0  0  0  0  0
   40.1490   22.6120   37.5560 C   0  0  0  0  0  0  0  0  0  0  0  0
   37.7060   23.7320   37.1270 S   0  0  0  0  0  0  0  0  0  0  0  0
   37.5740   24.1180   38.5540 O   0  0  0  0  0  0  0  0  0  0  0  0
   36.9140   22.4600   36.9200 O   0  0  0  0  0  0  0  0  0  0  0  0
   46.6971   22.9111   35.9447 H   0  0  0  0  0  0  0  0  0  0  0  0
   43.3201   25.2201   37.4120 H   0  0  0  0  0  0  0  0  0  0  0  0
   47.3124   26.3215   38.3933 H   0  0  0  0  0  0  0  0  0  0  0  0
   39.4530   24.7535   35.0396 H   0  0  0  0  0  0  0  0  0  0  0  0
   41.8470   24.3468   34.5479 H   0  0  0  0  0  0  0  0  0  0  0  0
   42.0543   21.6995   37.9398 H   0  0  0  0  0  0  0  0  0  0  0  0
   39.6748   22.1145   38.4148 H   0  0  0  0  0  0  0  0  0  0  0  0
   37.2329   24.7183   36.3022 H   0  0  0  0  0  0  0  0  0  0  0  0
  1 11  1  0
  1  3  1  0
  2  3  2  0
  2  7  1  0
  3  4  1  0
  4  5  2  0
  6  5  1  0
  7  6  2  0
  8 14  1  0
  8 13  2  0
  9  8  1  0
 10  9  2  0
 10 11  1  0
 11 12  2  0
 12 13  1  0
 14 15  2  0
 16 14  2  0
  2 17  1  0
  4 18  1  0
  6 19  1  0
  9 20  1  0
 10 21  1  0
 12 22  1  0
 13 23  1  0
 14 24  1  0
M  ISO  8  17  14  18  14  19  14  20  14  21  14  22  14  23  14  24  11
M  END
>  <minimizedAffinity>  (1) 
-4.05536795

>  <minimizedRMSD>  (1) 
7.00880337

$$$$
