
     RDKit          3D

 27 28  0  0  0  0  0  0  0  0999 V2000
   38.9940   22.3150   35.9150 C   0  0  0  0  0  0  0  0  0  0  0  0
   40.1300   22.3120   36.7220 C   0  0  0  0  0  0  0  0  0  0  0  0
   40.0030   22.8370   38.0180 C   0  0  0  0  0  0  0  0  0  0  0  0
   38.7810   23.3180   38.4040 N   0  0  0  0  0  0  0  0  0  0  0  0
   37.7140   23.3030   37.5970 C   0  0  0  0  0  0  0  0  0  0  0  0
   37.8190   22.7970   36.3370 N   0  0  0  0  0  0  0  0  0  0  0  0
   41.6910   21.6730   36.1540 S   0  0  0  0  0  0  0  0  0  0  0  0
   42.7410   22.9490   35.4570 C   0  0  0  0  0  0  0  0  0  0  0  0
   42.0690   24.3070   35.4750 C   0  0  0  0  0  0  0  0  0  0  0  0
   43.0440   25.3380   34.9560 C   0  0  0  0  0  0  0  0  0  0  0  0
   44.2910   25.4170   35.8060 C   0  0  0  0  0  0  0  0  0  0  0  0
   44.1260   24.4430   36.9270 C   0  0  0  0  0  0  0  0  0  0  0  0
   43.9860   23.0590   36.3290 C   0  0  0  0  0  0  0  0  0  0  0  0
   39.0655   21.9071   34.8959 H   0  0  0  0  0  0  0  0  0  0  0  0
   40.8622   22.8611   38.7045 H   0  0  0  0  0  0  0  0  0  0  0  0
   36.7512   23.6997   37.9515 H   0  0  0  0  0  0  0  0  0  0  0  0
   42.9678   22.6741   34.4163 H   0  0  0  0  0  0  0  0  0  0  0  0
   41.1759   24.2864   34.8332 H   0  0  0  0  0  0  0  0  0  0  0  0
   41.7663   24.5613   36.5015 H   0  0  0  0  0  0  0  0  0  0  0  0
   43.3311   25.0697   33.9286 H   0  0  0  0  0  0  0  0  0  0  0  0
   42.5488   26.3197   34.9875 H   0  0  0  0  0  0  0  0  0  0  0  0
   45.1738   25.1534   35.2050 H   0  0  0  0  0  0  0  0  0  0  0  0
   44.4348   26.4365   36.1934 H   0  0  0  0  0  0  0  0  0  0  0  0
   45.0072   24.4780   37.5844 H   0  0  0  0  0  0  0  0  0  0  0  0
   43.2355   24.6934   37.5223 H   0  0  0  0  0  0  0  0  0  0  0  0
   43.9175   22.3231   37.1438 H   0  0  0  0  0  0  0  0  0  0  0  0
   44.8664   22.8655   35.6985 H   0  0  0  0  0  0  0  0  0  0  0  0
  1  6  2  0
  1  2  1  0
  2  3  2  0
  3  4  1  0
  5  4  2  0
  6  5  1  0
  7  2  1  0
  8  9  1  0
  8  7  1  0
  8 13  1  0
 10  9  1  0
 10 11  1  0
 11 12  1  0
 13 12  1  0
  1 14  1  0
  3 15  1  0
  5 16  1  0
  8 17  1  0
  9 18  1  0
  9 19  1  0
 10 20  1  0
 10 21  1  0
 11 22  1  0
 11 23  1  0
 12 24  1  0
 12 25  1  0
 13 26  1  0
 13 27  1  0
M  ISO  8  14  14  15  14  16  14  17  13  18  13  19  13  20  13  21  13
M  ISO  6  22  13  23  13  24  13  25  13  26  13  27  13
M  END
>  <minimizedAffinity>  (1) 
-3.70746064

>  <minimizedRMSD>  (1) 
0.295969009

$$$$
