
     RDKit          3D

 17 18  0  0  0  0  0  0  0  0999 V2000
   39.0440   22.2150   35.9280 C   0  0  0  0  0  0  0  0  0  0  0  0
   39.9580   22.4690   36.9550 C   0  0  0  0  0  0  0  0  0  0  0  0
   39.4710   23.0870   38.1260 C   0  0  0  0  0  0  0  0  0  0  0  0
   38.1370   23.3990   38.1860 N   0  0  0  0  0  0  0  0  0  0  0  0
   37.2980   23.1350   37.1730 C   0  0  0  0  0  0  0  0  0  0  0  0
   37.7420   22.5440   36.0420 N   0  0  0  0  0  0  0  0  0  0  0  0
   41.6660   22.0220   36.7690 S   0  0  0  0  0  0  0  0  0  0  0  0
   42.6620   23.4430   36.2560 C   0  0  0  0  0  0  0  0  0  0  0  0
   42.1970   24.1650   35.1190 C   0  0  0  0  0  0  0  0  0  0  0  0
   43.4750   25.4680   34.9800 S   0  0  0  0  0  0  0  0  0  0  0  0
   44.4180   24.8080   36.4890 C   0  0  0  0  0  0  0  0  0  0  0  0
   43.7720   23.8700   36.8360 N   0  0  0  0  0  0  0  0  0  0  0  0
   39.3965   21.7344   35.0034 H   0  0  0  0  0  0  0  0  0  0  0  0
   40.1427   23.3123   38.9675 H   0  0  0  0  0  0  0  0  0  0  0  0
   36.2351   23.4031   37.2643 H   0  0  0  0  0  0  0  0  0  0  0  0
   41.3097   23.9873   34.4937 H   0  0  0  0  0  0  0  0  0  0  0  0
   45.3430   25.1996   36.9372 H   0  0  0  0  0  0  0  0  0  0  0  0
  1  6  2  0
  1  2  1  0
  2  3  2  0
  3  4  1  0
  5  4  2  0
  6  5  1  0
  7  2  1  0
  8  7  1  0
  8 12  1  0
  9  8  2  0
 10  9  1  0
 10 11  1  0
 11 12  2  0
  1 13  1  0
  3 14  1  0
  5 15  1  0
  9 16  1  0
 11 17  1  0
M  ISO  5  13  14  14  14  15  14  16  14  17  14
M  END
>  <minimizedAffinity>  (1) 
-3.23192644

>  <minimizedRMSD>  (1) 
0.81093365

$$$$
