
     RDKit          3D

 18 19  0  0  0  0  0  0  0  0999 V2000
   39.6200   23.2660   36.4370 C   0  0  0  0  0  0  0  0  0  0  0  0
   38.6520   24.2250   36.0690 C   0  0  0  0  0  0  0  0  0  0  0  0
   37.7730   24.7200   37.0510 C   0  0  0  0  0  0  0  0  0  0  0  0
   37.9190   24.2280   38.3190 N   0  0  0  0  0  0  0  0  0  0  0  0
   38.8410   23.3190   38.6510 C   0  0  0  0  0  0  0  0  0  0  0  0
   39.7000   22.8300   37.7140 N   0  0  0  0  0  0  0  0  0  0  0  0
   38.5970   24.7620   34.3670 S   0  0  0  0  0  0  0  0  0  0  0  0
   38.5220   26.5580   34.2260 C   0  0  0  0  0  0  0  0  0  0  0  0
   37.0970   27.0990   34.1630 C   0  0  0  0  0  0  0  0  0  0  0  0
   38.0150   27.2040   32.9970 C   0  0  0  0  0  0  0  0  0  0  0  0
   40.3135   22.8710   35.6800 H   0  0  0  0  0  0  0  0  0  0  0  0
   37.0038   25.4684   36.8096 H   0  0  0  0  0  0  0  0  0  0  0  0
   38.9065   22.9629   39.6897 H   0  0  0  0  0  0  0  0  0  0  0  0
   39.4384   26.7096   34.8153 H   0  0  0  0  0  0  0  0  0  0  0  0
   36.2428   26.4065   34.1343 H   0  0  0  0  0  0  0  0  0  0  0  0
   36.4983   27.8052   34.7570 H   0  0  0  0  0  0  0  0  0  0  0  0
   37.8275   26.5960   32.0997 H   0  0  0  0  0  0  0  0  0  0  0  0
   38.3641   28.0369   32.3690 H   0  0  0  0  0  0  0  0  0  0  0  0
  1  6  2  0
  2  1  1  0
  2  3  2  0
  3  4  1  0
  4  5  2  0
  6  5  1  0
  7  2  1  0
  8  7  1  0
  9  8  1  0
 10  9  1  0
 10  8  1  0
  1 11  1  0
  3 12  1  0
  5 13  1  0
  8 14  1  0
  9 15  1  0
  9 16  1  0
 10 17  1  0
 10 18  1  0
M  ISO  8  11  14  12  14  13  14  14  13  15  13  16  13  17  13  18  13
M  END
>  <minimizedAffinity>  (1) 
-2.97784686

>  <minimizedRMSD>  (1) 
5.58291054

$$$$
