
     RDKit          3D

 25 26  0  0  0  0  0  0  0  0999 V2000
   42.9370   24.2540   35.7790 C   0  0  0  0  0  0  0  0  0  0  0  0
   44.3500   23.7230   35.8120 C   0  0  0  0  0  0  0  0  0  0  0  0
   45.1020   24.3810   36.9150 C   0  0  0  0  0  0  0  0  0  0  0  0
   44.3240   25.2990   37.6250 C   0  0  0  0  0  0  0  0  0  0  0  0
   44.8860   25.9990   38.6920 C   0  0  0  0  0  0  0  0  0  0  0  0
   46.1750   25.7640   39.0040 N   0  0  0  0  0  0  0  0  0  0  0  0
   46.8930   24.8620   38.2830 C   0  0  0  0  0  0  0  0  0  0  0  0
   46.3790   24.1620   37.2400 N   0  0  0  0  0  0  0  0  0  0  0  0
   41.7010   22.9660   35.5940 S   0  0  0  0  0  0  0  0  0  0  0  0
   39.2210   24.1410   35.8750 C   0  0  0  0  0  0  0  0  0  0  0  0
   40.1920   23.3390   36.4830 C   0  0  0  0  0  0  0  0  0  0  0  0
   39.9820   22.8390   37.7720 C   0  0  0  0  0  0  0  0  0  0  0  0
   38.8180   23.1540   38.4030 N   0  0  0  0  0  0  0  0  0  0  0  0
   37.8930   23.9340   37.7890 C   0  0  0  0  0  0  0  0  0  0  0  0
   38.0850   24.4200   36.5510 N   0  0  0  0  0  0  0  0  0  0  0  0
   42.7436   24.7915   36.7190 H   0  0  0  0  0  0  0  0  0  0  0  0
   42.8561   24.9127   34.9018 H   0  0  0  0  0  0  0  0  0  0  0  0
   44.3293   22.6361   35.9798 H   0  0  0  0  0  0  0  0  0  0  0  0
   44.8444   23.9368   34.8529 H   0  0  0  0  0  0  0  0  0  0  0  0
   43.2741   25.4686   37.3439 H   0  0  0  0  0  0  0  0  0  0  0  0
   44.2911   26.7255   39.2650 H   0  0  0  0  0  0  0  0  0  0  0  0
   47.9439   24.6909   38.5591 H   0  0  0  0  0  0  0  0  0  0  0  0
   39.3797   24.5386   34.8617 H   0  0  0  0  0  0  0  0  0  0  0  0
   40.7375   22.2079   38.2629 H   0  0  0  0  0  0  0  0  0  0  0  0
   36.9600   24.1752   38.3194 H   0  0  0  0  0  0  0  0  0  0  0  0
  1  2  1  0
  2  3  1  0
  3  8  1  0
  3  4  2  0
  4  5  1  0
  5  6  2  0
  7  6  1  0
  8  7  2  0
  9  1  1  0
  9 11  1  0
 10 11  2  0
 10 15  1  0
 11 12  1  0
 12 13  2  0
 14 13  1  0
 15 14  2  0
  1 16  1  0
  1 17  1  0
  2 18  1  0
  2 19  1  0
  4 20  1  0
  5 21  1  0
  7 22  1  0
 10 23  1  0
 12 24  1  0
 14 25  1  0
M  ISO  8  16   8  17   8  18   8  19   8  20  14  21  14  22  14  23  14
M  ISO  2  24  14  25  14
M  END
>  <minimizedAffinity>  (1) 
-3.88752675

>  <minimizedRMSD>  (1) 
2.74520445

$$$$
