
     RDKit          3D

 27 28  0  0  0  0  0  0  0  0999 V2000
   42.8380   23.2370   36.5060 C   0  0  0  0  0  0  0  0  0  0  0  0
   42.3220   24.2460   35.4990 C   0  0  0  0  0  0  0  0  0  0  0  0
   43.2480   25.3110   35.2250 N   0  0  0  0  0  0  0  0  0  0  0  0
   44.5210   25.2780   35.7100 C   0  0  0  0  0  0  0  0  0  0  0  0
   45.3960   26.3210   35.4300 C   0  0  0  0  0  0  0  0  0  0  0  0
   44.9630   27.3850   34.6580 C   0  0  0  0  0  0  0  0  0  0  0  0
   45.7480   28.3230   34.4060 O   0  0  0  0  0  0  0  0  0  0  0  0
   43.7010   27.4290   34.1720 N   0  0  0  0  0  0  0  0  0  0  0  0
   42.9290   26.3930   34.4860 C   0  0  0  0  0  0  0  0  0  0  0  0
   41.7480   26.3990   34.0500 O   0  0  0  0  0  0  0  0  0  0  0  0
   41.6860   21.8600   36.7760 S   0  0  0  0  0  0  0  0  0  0  0  0
   39.0950   22.2550   35.9460 C   0  0  0  0  0  0  0  0  0  0  0  0
   40.0060   22.4380   36.9830 C   0  0  0  0  0  0  0  0  0  0  0  0
   39.6000   23.0640   38.1620 C   0  0  0  0  0  0  0  0  0  0  0  0
   38.3050   23.4780   38.2470 N   0  0  0  0  0  0  0  0  0  0  0  0
   37.4320   23.2920   37.2260 C   0  0  0  0  0  0  0  0  0  0  0  0
   37.8230   22.6800   36.0740 N   0  0  0  0  0  0  0  0  0  0  0  0
   43.0030   23.7503   37.4648 H   0  0  0  0  0  0  0  0  0  0  0  0
   43.7704   22.8145   36.1034 H   0  0  0  0  0  0  0  0  0  0  0  0
   42.1090   23.7194   34.5570 H   0  0  0  0  0  0  0  0  0  0  0  0
   41.4222   24.7050   35.9345 H   0  0  0  0  0  0  0  0  0  0  0  0
   44.8555   24.4274   36.3220 H   0  0  0  0  0  0  0  0  0  0  0  0
   46.4247   26.3010   35.8190 H   0  0  0  0  0  0  0  0  0  0  0  0
   43.3609   28.2130   33.5970 H   0  0  0  0  0  0  0  0  0  0  0  0
   39.4157   21.7607   35.0171 H   0  0  0  0  0  0  0  0  0  0  0  0
   40.3020   23.2180   38.9948 H   0  0  0  0  0  0  0  0  0  0  0  0
   36.3938   23.6403   37.3298 H   0  0  0  0  0  0  0  0  0  0  0  0
  1 11  1  0
  2  1  1  0
  3  2  1  0
  3  4  1  0
  5  4  2  0
  6  5  1  0
  7  6  2  0
  8  9  1  0
  8  6  1  0
  9  3  1  0
 10  9  2  0
 11 13  1  0
 12 17  2  0
 12 13  1  0
 13 14  2  0
 14 15  1  0
 16 15  2  0
 17 16  1  0
  1 18  1  0
  1 19  1  0
  2 20  1  0
  2 21  1  0
  4 22  1  0
  5 23  1  0
  8 24  1  0
 12 25  1  0
 14 26  1  0
 16 27  1  0
M  ISO  8  18   8  19   8  20   8  21   8  22  14  23  14  24   9  25  14
M  ISO  2  26  14  27  14
M  END
>  <minimizedAffinity>  (1) 
-4.02568674

>  <minimizedRMSD>  (1) 
1.10409927

$$$$
