
     RDKit          3D

 30 31  0  0  0  0  0  0  0  0999 V2000
   43.0920   24.3600   35.8130 C   0  0  0  0  0  0  0  0  0  0  0  0
   44.1430   24.3210   36.8730 C   0  0  0  0  0  0  0  0  0  0  0  0
   44.7400   25.6170   37.1160 N   0  0  0  0  0  0  0  0  0  0  0  0
   45.9870   25.7950   36.4320 C   0  0  0  0  0  0  0  0  0  0  0  0
   47.1870   25.6550   37.3270 C   0  0  0  0  0  0  0  0  0  0  0  0
   46.8600   24.7070   38.3050 O   0  0  0  0  0  0  0  0  0  0  0  0
   46.0180   25.3730   39.2020 C   0  0  0  0  0  0  0  0  0  0  0  0
   44.7910   25.9110   38.5190 C   0  0  0  0  0  0  0  0  0  0  0  0
   42.0250   22.8950   35.8310 S   0  0  0  0  0  0  0  0  0  0  0  0
   39.4890   24.0320   35.7360 C   0  0  0  0  0  0  0  0  0  0  0  0
   40.4160   23.2790   36.4880 C   0  0  0  0  0  0  0  0  0  0  0  0
   40.0550   22.8290   37.7790 C   0  0  0  0  0  0  0  0  0  0  0  0
   38.8120   23.1430   38.2540 N   0  0  0  0  0  0  0  0  0  0  0  0
   37.9590   23.8690   37.4880 C   0  0  0  0  0  0  0  0  0  0  0  0
   38.2870   24.3030   36.2610 N   0  0  0  0  0  0  0  0  0  0  0  0
   43.5844   24.4246   34.8315 H   0  0  0  0  0  0  0  0  0  0  0  0
   42.4562   25.2363   36.0078 H   0  0  0  0  0  0  0  0  0  0  0  0
   43.6869   23.9629   37.8077 H   0  0  0  0  0  0  0  0  0  0  0  0
   44.9405   23.6479   36.5254 H   0  0  0  0  0  0  0  0  0  0  0  0
   46.0575   25.0407   35.6345 H   0  0  0  0  0  0  0  0  0  0  0  0
   45.9958   26.8216   36.0370 H   0  0  0  0  0  0  0  0  0  0  0  0
   48.0550   25.3127   36.7444 H   0  0  0  0  0  0  0  0  0  0  0  0
   47.4484   26.6194   37.7869 H   0  0  0  0  0  0  0  0  0  0  0  0
   45.7083   24.6699   39.9892 H   0  0  0  0  0  0  0  0  0  0  0  0
   46.5733   26.2218   39.6275 H   0  0  0  0  0  0  0  0  0  0  0  0
   44.7727   27.0034   38.6464 H   0  0  0  0  0  0  0  0  0  0  0  0
   43.9222   25.4214   38.9832 H   0  0  0  0  0  0  0  0  0  0  0  0
   39.7507   24.3922   34.7301 H   0  0  0  0  0  0  0  0  0  0  0  0
   40.7577   22.2402   38.3868 H   0  0  0  0  0  0  0  0  0  0  0  0
   36.9628   24.1105   37.8871 H   0  0  0  0  0  0  0  0  0  0  0  0
  1  9  1  0
  1  2  1  0
  2  3  1  0
  3  8  1  0
  4  3  1  0
  4  5  1  0
  5  6  1  0
  6  7  1  0
  8  7  1  0
  9 11  1  0
 10 15  2  0
 10 11  1  0
 11 12  2  0
 12 13  1  0
 14 13  2  0
 15 14  1  0
  1 16  1  0
  1 17  1  0
  2 18  1  0
  2 19  1  0
  4 20  1  0
  4 21  1  0
  5 22  1  0
  5 23  1  0
  7 24  1  0
  7 25  1  0
  8 26  1  0
  8 27  1  0
 10 28  1  0
 12 29  1  0
 14 30  1  0
M  ISO  8  16   8  17   8  18   8  19   8  20  13  21  13  22  13  23  13
M  ISO  7  24  13  25  13  26  13  27  13  28  14  29  14  30  14
M  END
>  <minimizedAffinity>  (1) 
-3.86632872

>  <minimizedRMSD>  (1) 
1.49460089

$$$$
