
     RDKit          3D

 24 25  0  0  0  0  0  0  0  0999 V2000
   42.3290   23.5780   35.2110 C   0  0  0  0  0  0  0  0  0  0  0  0
   43.0990   23.5420   36.5090 C   0  0  0  0  0  0  0  0  0  0  0  0
   44.1400   24.5950   36.5400 C   0  0  0  0  0  0  0  0  0  0  0  0
   44.9640   24.8870   37.6100 C   0  0  0  0  0  0  0  0  0  0  0  0
   45.8190   25.9300   37.2910 C   0  0  0  0  0  0  0  0  0  0  0  0
   45.4420   26.2210   35.9840 C   0  0  0  0  0  0  0  0  0  0  0  0
   44.4740   25.4320   35.5860 O   0  0  0  0  0  0  0  0  0  0  0  0
   40.8100   22.6200   35.2810 S   0  0  0  0  0  0  0  0  0  0  0  0
   38.6980   24.1850   36.1100 C   0  0  0  0  0  0  0  0  0  0  0  0
   39.6650   23.2510   36.4940 C   0  0  0  0  0  0  0  0  0  0  0  0
   39.7270   22.8190   37.8200 C   0  0  0  0  0  0  0  0  0  0  0  0
   38.8210   23.3370   38.7120 N   0  0  0  0  0  0  0  0  0  0  0  0
   37.8940   24.2410   38.3160 C   0  0  0  0  0  0  0  0  0  0  0  0
   37.8320   24.6580   37.0400 N   0  0  0  0  0  0  0  0  0  0  0  0
   42.9660   23.1704   34.4122 H   0  0  0  0  0  0  0  0  0  0  0  0
   42.0536   24.6250   35.0162 H   0  0  0  0  0  0  0  0  0  0  0  0
   42.4019   23.7011   37.3449 H   0  0  0  0  0  0  0  0  0  0  0  0
   43.5904   22.5618   36.5970 H   0  0  0  0  0  0  0  0  0  0  0  0
   44.9442   24.3653   38.5782 H   0  0  0  0  0  0  0  0  0  0  0  0
   46.5944   26.4045   37.9104 H   0  0  0  0  0  0  0  0  0  0  0  0
   45.8964   27.0094   35.3659 H   0  0  0  0  0  0  0  0  0  0  0  0
   38.6405   24.5314   35.0676 H   0  0  0  0  0  0  0  0  0  0  0  0
   40.4803   22.0845   38.1410 H   0  0  0  0  0  0  0  0  0  0  0  0
   37.1798   24.6407   39.0510 H   0  0  0  0  0  0  0  0  0  0  0  0
  1  8  1  0
  1  2  1  0
  2  3  1  0
  3  4  2  0
  5  4  1  0
  6  5  2  0
  7  6  1  0
  7  3  1  0
  8 10  1  0
  9 10  2  0
  9 14  1  0
 10 11  1  0
 11 12  2  0
 13 12  1  0
 14 13  2  0
  1 15  1  0
  1 16  1  0
  2 17  1  0
  2 18  1  0
  4 19  1  0
  5 20  1  0
  6 21  1  0
  9 22  1  0
 11 23  1  0
 13 24  1  0
M  ISO  8  15   8  16   8  17   8  18   8  19  14  20  14  21  14  22  14
M  ISO  2  23  14  24  14
M  END
>  <minimizedAffinity>  (1) 
-3.68285298

>  <minimizedRMSD>  (1) 
1.52613902

$$$$
