
     RDKit          3D

 22 23  0  0  0  0  0  0  0  0999 V2000
   42.6020   23.4470   35.9270 C   0  0  0  0  0  0  0  0  0  0  0  0
   43.7370   24.0050   36.7500 C   0  0  0  0  0  0  0  0  0  0  0  0
   44.2790   25.1940   36.0620 C   0  0  0  0  0  0  0  0  0  0  0  0
   45.2380   26.1160   36.2990 N   0  0  0  0  0  0  0  0  0  0  0  0
   45.2750   26.9530   35.3190 O   0  0  0  0  0  0  0  0  0  0  0  0
   44.3800   26.6530   34.4070 C   0  0  0  0  0  0  0  0  0  0  0  0
   43.7410   25.5440   34.8580 N   0  0  0  0  0  0  0  0  0  0  0  0
   41.7010   22.1400   36.8030 S   0  0  0  0  0  0  0  0  0  0  0  0
   39.0910   22.2410   35.9160 C   0  0  0  0  0  0  0  0  0  0  0  0
   39.9670   22.5230   36.9640 C   0  0  0  0  0  0  0  0  0  0  0  0
   39.4680   23.1100   38.1390 C   0  0  0  0  0  0  0  0  0  0  0  0
   38.1360   23.3810   38.2070 N   0  0  0  0  0  0  0  0  0  0  0  0
   37.3110   23.0940   37.1710 C   0  0  0  0  0  0  0  0  0  0  0  0
   37.7920   22.5330   36.0460 N   0  0  0  0  0  0  0  0  0  0  0  0
   41.9023   24.2619   35.6894 H   0  0  0  0  0  0  0  0  0  0  0  0
   43.0301   23.0088   35.0134 H   0  0  0  0  0  0  0  0  0  0  0  0
   43.3672   24.2899   37.7460 H   0  0  0  0  0  0  0  0  0  0  0  0
   44.5251   23.2464   36.8656 H   0  0  0  0  0  0  0  0  0  0  0  0
   44.1870   27.1915   33.4674 H   0  0  0  0  0  0  0  0  0  0  0  0
   39.4655   21.7818   34.9893 H   0  0  0  0  0  0  0  0  0  0  0  0
   40.1358   23.3442   38.9811 H   0  0  0  0  0  0  0  0  0  0  0  0
   36.2377   23.3217   37.2502 H   0  0  0  0  0  0  0  0  0  0  0  0
  1  2  1  0
  1  8  1  0
  3  4  2  0
  3  2  1  0
  5  4  1  0
  6  7  2  0
  6  5  1  0
  7  3  1  0
  8 10  1  0
  9 14  2  0
  9 10  1  0
 10 11  2  0
 11 12  1  0
 13 12  2  0
 14 13  1  0
  1 15  1  0
  1 16  1  0
  2 17  1  0
  2 18  1  0
  6 19  1  0
  9 20  1  0
 11 21  1  0
 13 22  1  0
M  ISO  8  15   8  16   8  17   8  18   8  19  14  20  14  21  14  22  14
M  END
>  <minimizedAffinity>  (1) 
-3.41060066

>  <minimizedRMSD>  (1) 
0.312839746

$$$$
