
     RDKit          3D

 32 33  0  0  0  0  0  0  0  0999 V2000
   38.4790   23.8310   37.2180 C   0  0  0  0  0  0  0  0  0  0  0  0
   39.2100   22.7870   36.5910 C   0  0  0  0  0  0  0  0  0  0  0  0
   39.3440   22.8620   35.1860 C   0  0  0  0  0  0  0  0  0  0  0  0
   38.7810   23.9020   34.5360 N   0  0  0  0  0  0  0  0  0  0  0  0
   38.0930   24.8750   35.1710 C   0  0  0  0  0  0  0  0  0  0  0  0
   37.9430   24.8400   36.5000 N   0  0  0  0  0  0  0  0  0  0  0  0
   37.4930   25.9780   34.5030 N   0  0  0  0  0  0  0  0  0  0  0  0
   37.1030   27.1310   35.0740 C   0  0  0  0  0  0  0  0  0  0  0  0
   36.5400   28.1060   34.3110 C   0  0  0  0  0  0  0  0  0  0  0  0
   36.3700   27.9190   32.9760 C   0  0  0  0  0  0  0  0  0  0  0  0
   35.8540   28.7790   32.2060 O   0  0  0  0  0  0  0  0  0  0  0  0
   36.7670   26.7520   32.4080 N   0  0  0  0  0  0  0  0  0  0  0  0
   37.3240   25.7920   33.1790 C   0  0  0  0  0  0  0  0  0  0  0  0
   37.6610   24.7390   32.5520 O   0  0  0  0  0  0  0  0  0  0  0  0
   38.3110   23.7920   38.7060 C   0  0  0  0  0  0  0  0  0  0  0  0
   39.5260   23.6060   39.3550 F   0  0  0  0  0  0  0  0  0  0  0  0
   37.8000   25.0050   39.1420 F   0  0  0  0  0  0  0  0  0  0  0  0
   37.4230   22.7710   39.0250 F   0  0  0  0  0  0  0  0  0  0  0  0
   36.5800   26.5570   30.9650 C   0  0  0  0  0  0  0  0  0  0  0  0
   36.7510   27.8640   30.2610 C   0  0  0  0  0  0  0  0  0  0  0  0
   35.1720   25.9970   30.8150 C   0  0  0  0  0  0  0  0  0  0  0  0
   39.6498   21.9615   37.1699 H   0  0  0  0  0  0  0  0  0  0  0  0
   39.8964   22.0878   34.6332 H   0  0  0  0  0  0  0  0  0  0  0  0
   37.2388   27.2853   36.1546 H   0  0  0  0  0  0  0  0  0  0  0  0
   36.2209   29.0501   34.7767 H   0  0  0  0  0  0  0  0  0  0  0  0
   37.3143   25.8691   30.5205 H   0  0  0  0  0  0  0  0  0  0  0  0
   36.8563   28.6691   31.0031 H   0  0  0  0  0  0  0  0  0  0  0  0
   37.6518   27.8260   29.6309 H   0  0  0  0  0  0  0  0  0  0  0  0
   35.8707   28.0590   29.6309 H   0  0  0  0  0  0  0  0  0  0  0  0
   34.7380   25.8244   31.8109 H   0  0  0  0  0  0  0  0  0  0  0  0
   34.5485   26.7156   30.2629 H   0  0  0  0  0  0  0  0  0  0  0  0
   35.2123   25.0465   30.2629 H   0  0  0  0  0  0  0  0  0  0  0  0
  1 15  1  0
  2  1  2  0
  3  2  1  0
  4  5  1  0
  4  3  2  0
  5  6  2  0
  6  1  1  0
  7  8  1  0
  7  5  1  0
  9  8  2  0
 10  9  1  0
 11 10  2  0
 12 10  1  0
 12 13  1  0
 13  7  1  0
 14 13  2  0
 15 18  1  0
 15 17  1  0
 15 16  1  0
 19 12  1  0
 20 19  1  0
 21 19  1  0
  2 22  1  0
  3 23  1  0
  8 24  1  0
  9 25  1  0
 19 26  1  0
 20 27  1  0
 20 28  1  0
 20 29  1  0
 21 30  1  0
 21 31  1  0
 21 32  1  0
M  ISO  8  22  14  23  14  24  14  25  14  26   8  27   8  28   8  29   8
M  ISO  3  30   8  31   8  32   8
M  END
>  <minimizedAffinity>  (1) 
-6.05987406

>  <minimizedRMSD>  (1) 
0.405988961

$$$$
