
     RDKit          3D

 29 30  0  0  0  0  0  0  0  0999 V2000
   38.4380   23.7760   37.1450 C   0  0  0  0  0  0  0  0  0  0  0  0
   39.0730   22.6800   36.5130 C   0  0  0  0  0  0  0  0  0  0  0  0
   39.1400   22.6950   35.0970 C   0  0  0  0  0  0  0  0  0  0  0  0
   38.5960   23.7510   34.4480 N   0  0  0  0  0  0  0  0  0  0  0  0
   38.0040   24.7700   35.0780 C   0  0  0  0  0  0  0  0  0  0  0  0
   37.9200   24.7930   36.4160 N   0  0  0  0  0  0  0  0  0  0  0  0
   37.4260   25.8890   34.4160 N   0  0  0  0  0  0  0  0  0  0  0  0
   37.1410   27.0810   34.9600 C   0  0  0  0  0  0  0  0  0  0  0  0
   36.5710   28.0500   34.1730 C   0  0  0  0  0  0  0  0  0  0  0  0
   36.2970   27.8160   32.8660 C   0  0  0  0  0  0  0  0  0  0  0  0
   35.7730   28.6840   32.1190 O   0  0  0  0  0  0  0  0  0  0  0  0
   36.5900   26.6150   32.3410 N   0  0  0  0  0  0  0  0  0  0  0  0
   37.1500   25.6600   33.1090 C   0  0  0  0  0  0  0  0  0  0  0  0
   37.3870   24.5580   32.4960 O   0  0  0  0  0  0  0  0  0  0  0  0
   38.3470   23.7920   38.6300 C   0  0  0  0  0  0  0  0  0  0  0  0
   39.5950   23.5720   39.2170 F   0  0  0  0  0  0  0  0  0  0  0  0
   37.9020   25.0400   39.0520 F   0  0  0  0  0  0  0  0  0  0  0  0
   37.4320   22.8240   39.0370 F   0  0  0  0  0  0  0  0  0  0  0  0
   36.2840   26.3810   30.9200 C   0  0  0  0  0  0  0  0  0  0  0  0
   34.9790   25.5810   30.8100 C   0  0  0  0  0  0  0  0  0  0  0  0
   39.4974   21.8501   37.0971 H   0  0  0  0  0  0  0  0  0  0  0  0
   39.6190   21.8742   34.5431 H   0  0  0  0  0  0  0  0  0  0  0  0
   37.3605   27.2789   36.0196 H   0  0  0  0  0  0  0  0  0  0  0  0
   36.3328   29.0313   34.6092 H   0  0  0  0  0  0  0  0  0  0  0  0
   36.1685   27.3460   30.4048 H   0  0  0  0  0  0  0  0  0  0  0  0
   37.1044   25.8159   30.4535 H   0  0  0  0  0  0  0  0  0  0  0  0
   34.6038   25.3510   31.8181 H   0  0  0  0  0  0  0  0  0  0  0  0
   34.2295   26.1750   30.2665 H   0  0  0  0  0  0  0  0  0  0  0  0
   35.1683   24.6436   30.2665 H   0  0  0  0  0  0  0  0  0  0  0  0
  1 15  1  0
  2  1  2  0
  3  2  1  0
  4  5  1  0
  4  3  2  0
  5  6  2  0
  6  1  1  0
  7  8  1  0
  7  5  1  0
  9  8  2  0
 10  9  1  0
 11 10  2  0
 12 10  1  0
 12 13  1  0
 13  7  1  0
 14 13  2  0
 15 18  1  0
 15 17  1  0
 15 16  1  0
 19 12  1  0
 20 19  1  0
  2 21  1  0
  3 22  1  0
  8 23  1  0
  9 24  1  0
 19 25  1  0
 19 26  1  0
 20 27  1  0
 20 28  1  0
 20 29  1  0
M  ISO  8  21  14  22  14  23  14  24  14  25   8  26   8  27   8  28   8
M  ISO  1  29   8
M  END
>  <minimizedAffinity>  (1) 
-6.04269457

>  <minimizedRMSD>  (1) 
0.298657

$$$$
