
     RDKit          3D

 34 36  0  0  0  0  0  0  0  0999 V2000
   43.5360   23.6310   34.9290 C   0  0  0  0  0  0  0  0  0  0  0  0
   44.7390   23.7140   35.7680 C   0  0  0  0  0  0  0  0  0  0  0  0
   45.8790   22.9440   35.5120 C   0  0  0  0  0  0  0  0  0  0  0  0
   46.8260   23.2150   36.4270 N   0  0  0  0  0  0  0  0  0  0  0  0
   46.3870   24.1230   37.2830 C   0  0  0  0  0  0  0  0  0  0  0  0
   46.8810   24.7790   38.3970 C   0  0  0  0  0  0  0  0  0  0  0  0
   46.1530   25.7290   39.1290 C   0  0  0  0  0  0  0  0  0  0  0  0
   44.8640   26.0020   38.6770 C   0  0  0  0  0  0  0  0  0  0  0  0
   44.3180   25.3730   37.5650 C   0  0  0  0  0  0  0  0  0  0  0  0
   45.0990   24.4420   36.8890 C   0  0  0  0  0  0  0  0  0  0  0  0
   43.5110   22.4370   34.0310 C   0  0  0  0  0  0  0  0  0  0  0  0
   42.1810   21.2680   34.4420 S   0  0  0  0  0  0  0  0  0  0  0  0
   39.9570   22.7190   35.2080 C   0  0  0  0  0  0  0  0  0  0  0  0
   41.0780   21.9780   35.6620 C   0  0  0  0  0  0  0  0  0  0  0  0
   41.2960   21.8170   37.0300 C   0  0  0  0  0  0  0  0  0  0  0  0
   40.4080   22.3890   37.8900 N   0  0  0  0  0  0  0  0  0  0  0  0
   39.3570   23.0840   37.4460 C   0  0  0  0  0  0  0  0  0  0  0  0
   39.1330   23.2470   36.1280 N   0  0  0  0  0  0  0  0  0  0  0  0
   38.4290   23.6800   38.4660 C   0  0  0  0  0  0  0  0  0  0  0  0
   38.0190   24.9240   37.9770 F   0  0  0  0  0  0  0  0  0  0  0  0
   37.3200   22.9200   38.6820 F   0  0  0  0  0  0  0  0  0  0  0  0
   39.1370   23.9690   39.6390 F   0  0  0  0  0  0  0  0  0  0  0  0
   42.6557   23.5889   35.5873 H   0  0  0  0  0  0  0  0  0  0  0  0
   43.5338   24.5202   34.2815 H   0  0  0  0  0  0  0  0  0  0  0  0
   45.9845   22.2250   34.6862 H   0  0  0  0  0  0  0  0  0  0  0  0
   47.7585   22.7787   36.4571 H   0  0  0  0  0  0  0  0  0  0  0  0
   47.9031   24.5419   38.7275 H   0  0  0  0  0  0  0  0  0  0  0  0
   46.5768   26.2307   40.0114 H   0  0  0  0  0  0  0  0  0  0  0  0
   44.2570   26.7417   39.2196 H   0  0  0  0  0  0  0  0  0  0  0  0
   43.2966   25.6049   37.2288 H   0  0  0  0  0  0  0  0  0  0  0  0
   44.4754   21.9147   34.1152 H   0  0  0  0  0  0  0  0  0  0  0  0
   43.3278   22.7979   33.0082 H   0  0  0  0  0  0  0  0  0  0  0  0
   39.7679   22.8573   34.1332 H   0  0  0  0  0  0  0  0  0  0  0  0
   42.1587   21.2456   37.4031 H   0  0  0  0  0  0  0  0  0  0  0  0
  1  2  1  0
  2 10  1  0
  3  2  2  0
  3  4  1  0
  4  5  1  0
  5  6  2  0
  6  7  1  0
  8  7  2  0
  9  8  1  0
 10  5  1  0
 10  9  2  0
 11 12  1  0
 11  1  1  0
 12 14  1  0
 13 14  2  0
 13 18  1  0
 14 15  1  0
 15 16  2  0
 17 16  1  0
 17 19  1  0
 18 17  2  0
 19 21  1  0
 19 22  1  0
 20 19  1  0
  1 23  1  0
  1 24  1  0
  3 25  1  0
  4 26  1  0
  6 27  1  0
  7 28  1  0
  8 29  1  0
  9 30  1  0
 11 31  1  0
 11 32  1  0
 13 33  1  0
 15 34  1  0
M  ISO  8  23   8  24   8  25  14  26   9  27  14  28  14  29  14  30  14
M  ISO  4  31   8  32   8  33  14  34  14
M  END
>  <minimizedAffinity>  (1) 
-5.70490837

>  <minimizedRMSD>  (1) 
1.61406672

$$$$
