
     RDKit          3D

 41 44  0  0  0  0  0  0  0  0999 V2000
   43.7480   26.0930   33.5780 C   0  0  0  0  0  0  0  0  0  0  0  0
   43.6070   25.6570   34.9950 C   0  0  0  0  0  0  0  0  0  0  0  0
   44.8400   25.1050   35.5720 C   0  0  0  0  0  0  0  0  0  0  0  0
   45.7530   24.3770   34.8060 C   0  0  0  0  0  0  0  0  0  0  0  0
   46.7880   23.9880   35.5710 N   0  0  0  0  0  0  0  0  0  0  0  0
   46.6160   24.4170   36.8190 C   0  0  0  0  0  0  0  0  0  0  0  0
   47.3030   24.3430   38.0170 C   0  0  0  0  0  0  0  0  0  0  0  0
   46.8600   24.9140   39.2130 C   0  0  0  0  0  0  0  0  0  0  0  0
   45.6350   25.5970   39.1420 C   0  0  0  0  0  0  0  0  0  0  0  0
   44.9050   25.7040   37.9730 C   0  0  0  0  0  0  0  0  0  0  0  0
   45.4150   25.1080   36.8300 C   0  0  0  0  0  0  0  0  0  0  0  0
   42.5240   25.3240   32.4770 S   0  0  0  0  0  0  0  0  0  0  0  0
   40.2070   25.5280   33.9750 C   0  0  0  0  0  0  0  0  0  0  0  0
   41.1600   24.6530   33.4150 C   0  0  0  0  0  0  0  0  0  0  0  0
   41.0140   23.2710   33.6080 C   0  0  0  0  0  0  0  0  0  0  0  0
   39.9470   22.8360   34.3360 N   0  0  0  0  0  0  0  0  0  0  0  0
   39.0520   23.7010   34.8590 C   0  0  0  0  0  0  0  0  0  0  0  0
   39.1880   25.0400   34.6760 N   0  0  0  0  0  0  0  0  0  0  0  0
   38.0360   23.0050   35.5710 N   0  0  0  0  0  0  0  0  0  0  0  0
   37.6500   23.3050   36.8120 C   0  0  0  0  0  0  0  0  0  0  0  0
   36.6470   22.5510   37.4040 C   0  0  0  0  0  0  0  0  0  0  0  0
   36.0600   21.4980   36.6970 C   0  0  0  0  0  0  0  0  0  0  0  0
   35.1460   20.8250   37.2590 O   0  0  0  0  0  0  0  0  0  0  0  0
   36.5040   21.2560   35.4480 N   0  0  0  0  0  0  0  0  0  0  0  0
   37.4820   21.9950   34.8760 C   0  0  0  0  0  0  0  0  0  0  0  0
   37.7690   21.6290   33.7050 O   0  0  0  0  0  0  0  0  0  0  0  0
   43.6238   27.1850   33.5327 H   0  0  0  0  0  0  0  0  0  0  0  0
   44.7447   25.7799   33.2337 H   0  0  0  0  0  0  0  0  0  0  0  0
   43.3017   26.5260   35.5963 H   0  0  0  0  0  0  0  0  0  0  0  0
   42.8586   24.8510   35.0087 H   0  0  0  0  0  0  0  0  0  0  0  0
   45.6417   24.1546   33.7345 H   0  0  0  0  0  0  0  0  0  0  0  0
   47.5945   23.4393   35.2402 H   0  0  0  0  0  0  0  0  0  0  0  0
   48.2595   23.7998   38.0292 H   0  0  0  0  0  0  0  0  0  0  0  0
   47.4331   24.8338   40.1485 H   0  0  0  0  0  0  0  0  0  0  0  0
   45.2398   26.0665   40.0549 H   0  0  0  0  0  0  0  0  0  0  0  0
   43.9480   26.2459   37.9504 H   0  0  0  0  0  0  0  0  0  0  0  0
   40.3064   26.6141   33.8321 H   0  0  0  0  0  0  0  0  0  0  0  0
   41.7388   22.5601   33.1846 H   0  0  0  0  0  0  0  0  0  0  0  0
   38.1194   24.1370   37.3574 H   0  0  0  0  0  0  0  0  0  0  0  0
   36.3147   22.7814   38.4270 H   0  0  0  0  0  0  0  0  0  0  0  0
   36.0850   20.4831   34.9113 H   0  0  0  0  0  0  0  0  0  0  0  0
  1  2  1  0
  2  3  1  0
  3 11  1  0
  4  5  1  0
  4  3  2  0
  5  6  1  0
  6 11  2  0
  6  7  1  0
  7  8  2  0
  9  8  1  0
 10  9  2  0
 11 10  1  0
 12 14  1  0
 12  1  1  0
 13 18  2  0
 14 15  2  0
 14 13  1  0
 15 16  1  0
 16 17  2  0
 17 19  1  0
 18 17  1  0
 19 20  1  0
 20 21  2  0
 22 23  2  0
 22 21  1  0
 24 22  1  0
 25 24  1  0
 25 19  1  0
 26 25  2  0
  1 27  1  0
  1 28  1  0
  2 29  1  0
  2 30  1  0
  4 31  1  0
  5 32  1  0
  7 33  1  0
  8 34  1  0
  9 35  1  0
 10 36  1  0
 13 37  1  0
 15 38  1  0
 20 39  1  0
 21 40  1  0
 24 41  1  0
M  ISO  8  27   8  28   8  29   8  30   8  31  14  32   9  33  14  34  14
M  ISO  7  35  14  36  14  37  14  38  14  39  14  40  14  41   9
M  END
>  <minimizedAffinity>  (1) 
-5.03365755

>  <minimizedRMSD>  (1) 
3.68026447

$$$$
