
     RDKit          3D

 44 47  0  0  0  0  0  0  0  0999 V2000
   44.6910   23.3350   34.5440 C   0  0  0  0  0  0  0  0  0  0  0  0
   45.6270   23.6010   35.6420 C   0  0  0  0  0  0  0  0  0  0  0  0
   46.9010   23.0160   35.6890 C   0  0  0  0  0  0  0  0  0  0  0  0
   47.5500   23.4240   36.7930 N   0  0  0  0  0  0  0  0  0  0  0  0
   46.7960   24.2440   37.4900 C   0  0  0  0  0  0  0  0  0  0  0  0
   46.8920   24.9690   38.6690 C   0  0  0  0  0  0  0  0  0  0  0  0
   45.8950   25.7860   39.1830 C   0  0  0  0  0  0  0  0  0  0  0  0
   44.7160   25.8640   38.4310 C   0  0  0  0  0  0  0  0  0  0  0  0
   44.5490   25.1650   37.2390 C   0  0  0  0  0  0  0  0  0  0  0  0
   45.6020   24.3700   36.8000 C   0  0  0  0  0  0  0  0  0  0  0  0
   44.2410   21.9140   34.4630 C   0  0  0  0  0  0  0  0  0  0  0  0
   43.5570   21.2770   36.0230 S   0  0  0  0  0  0  0  0  0  0  0  0
   41.1320   22.2240   35.0940 C   0  0  0  0  0  0  0  0  0  0  0  0
   41.8620   21.7970   36.2270 C   0  0  0  0  0  0  0  0  0  0  0  0
   41.2320   21.7990   37.4650 C   0  0  0  0  0  0  0  0  0  0  0  0
   39.9290   22.2140   37.5410 N   0  0  0  0  0  0  0  0  0  0  0  0
   39.2580   22.6170   36.4360 C   0  0  0  0  0  0  0  0  0  0  0  0
   39.8710   22.6120   35.2520 N   0  0  0  0  0  0  0  0  0  0  0  0
   37.8540   23.0370   36.6980 C   0  0  0  0  0  0  0  0  0  0  0  0
   37.5930   23.4090   38.1250 C   0  0  0  0  0  0  0  0  0  0  0  0
   38.2700   24.7450   38.2370 C   0  0  0  0  0  0  0  0  0  0  0  0
   38.3150   25.3410   36.8680 C   0  0  0  0  0  0  0  0  0  0  0  0
   37.6420   24.3400   35.9660 C   0  0  0  0  0  0  0  0  0  0  0  0
   43.8047   23.9715   34.6827 H   0  0  0  0  0  0  0  0  0  0  0  0
   45.2263   23.5540   33.6083 H   0  0  0  0  0  0  0  0  0  0  0  0
   47.3081   22.3263   34.9349 H   0  0  0  0  0  0  0  0  0  0  0  0
   48.5031   23.1349   37.0555 H   0  0  0  0  0  0  0  0  0  0  0  0
   47.8292   24.8902   39.2394 H   0  0  0  0  0  0  0  0  0  0  0  0
   46.0230   26.3394   40.1250 H   0  0  0  0  0  0  0  0  0  0  0  0
   43.8946   26.4989   38.7946 H   0  0  0  0  0  0  0  0  0  0  0  0
   43.6147   25.2391   36.6632 H   0  0  0  0  0  0  0  0  0  0  0  0
   43.4653   21.8386   33.6867 H   0  0  0  0  0  0  0  0  0  0  0  0
   45.1282   21.3075   34.2283 H   0  0  0  0  0  0  0  0  0  0  0  0
   41.6000   22.2348   34.0986 H   0  0  0  0  0  0  0  0  0  0  0  0
   41.7697   21.4733   38.3677 H   0  0  0  0  0  0  0  0  0  0  0  0
   37.2145   22.1928   36.4009 H   0  0  0  0  0  0  0  0  0  0  0  0
   36.5143   23.4912   38.3243 H   0  0  0  0  0  0  0  0  0  0  0  0
   37.9618   22.6666   38.8480 H   0  0  0  0  0  0  0  0  0  0  0  0
   37.7002   25.3994   38.9131 H   0  0  0  0  0  0  0  0  0  0  0  0
   39.2856   24.6321   38.6443 H   0  0  0  0  0  0  0  0  0  0  0  0
   37.7746   26.2989   36.8487 H   0  0  0  0  0  0  0  0  0  0  0  0
   39.3472   25.5465   36.5481 H   0  0  0  0  0  0  0  0  0  0  0  0
   38.1161   24.3189   34.9736 H   0  0  0  0  0  0  0  0  0  0  0  0
   36.5823   24.5666   35.7770 H   0  0  0  0  0  0  0  0  0  0  0  0
  1  2  1  0
  2  3  2  0
  2 10  1  0
  3  4  1  0
  4  5  1  0
  5  6  2  0
  6  7  1  0
  8  7  2  0
  9  8  1  0
 10  9  2  0
 10  5  1  0
 11  1  1  0
 11 12  1  0
 12 14  1  0
 13 18  2  0
 13 14  1  0
 14 15  2  0
 15 16  1  0
 17 19  1  0
 17 16  2  0
 18 17  1  0
 19 20  1  0
 20 21  1  0
 22 21  1  0
 23 19  1  0
 23 22  1  0
  1 24  1  0
  1 25  1  0
  3 26  1  0
  4 27  1  0
  6 28  1  0
  7 29  1  0
  8 30  1  0
  9 31  1  0
 11 32  1  0
 11 33  1  0
 13 34  1  0
 15 35  1  0
 19 36  1  0
 20 37  1  0
 20 38  1  0
 21 39  1  0
 21 40  1  0
 22 41  1  0
 22 42  1  0
 23 43  1  0
 23 44  1  0
M  ISO  8  24   8  25   8  26  14  27   9  28  14  29  14  30  14  31  14
M  ISO  8  32   8  33   8  34  14  35  14  36  13  37  13  38  13  39  13
M  ISO  5  40  13  41  13  42  13  43  13  44  13
M  END
>  <minimizedAffinity>  (1) 
-5.20283747

>  <minimizedRMSD>  (1) 
2.43574119

$$$$
