
     RDKit          3D

 38 41  0  0  0  0  0  0  0  0999 V2000
   45.2560   21.2700   34.3720 C   0  0  0  0  0  0  0  0  0  0  0  0
   45.0280   22.6990   34.7310 C   0  0  0  0  0  0  0  0  0  0  0  0
   45.8860   23.1740   35.8260 C   0  0  0  0  0  0  0  0  0  0  0  0
   47.1830   22.7090   36.0150 C   0  0  0  0  0  0  0  0  0  0  0  0
   47.7350   23.3100   37.0850 N   0  0  0  0  0  0  0  0  0  0  0  0
   46.8550   24.1610   37.6170 C   0  0  0  0  0  0  0  0  0  0  0  0
   46.8490   25.0350   38.6960 C   0  0  0  0  0  0  0  0  0  0  0  0
   45.7490   25.8300   39.0300 C   0  0  0  0  0  0  0  0  0  0  0  0
   44.6280   25.7080   38.2180 C   0  0  0  0  0  0  0  0  0  0  0  0
   44.5880   24.8440   37.1240 C   0  0  0  0  0  0  0  0  0  0  0  0
   45.7200   24.0850   36.8540 C   0  0  0  0  0  0  0  0  0  0  0  0
   43.9270   20.1650   34.9340 S   0  0  0  0  0  0  0  0  0  0  0  0
   41.5710   21.5780   34.7010 C   0  0  0  0  0  0  0  0  0  0  0  0
   42.5540   21.1130   35.5890 C   0  0  0  0  0  0  0  0  0  0  0  0
   42.4350   21.4030   36.9590 C   0  0  0  0  0  0  0  0  0  0  0  0
   41.3590   22.1290   37.3600 N   0  0  0  0  0  0  0  0  0  0  0  0
   40.4380   22.5580   36.4950 C   0  0  0  0  0  0  0  0  0  0  0  0
   40.5420   22.2870   35.1870 N   0  0  0  0  0  0  0  0  0  0  0  0
   39.3900   23.3020   37.1170 N   0  0  0  0  0  0  0  0  0  0  0  0
   38.8260   24.2850   36.4070 N   0  0  0  0  0  0  0  0  0  0  0  0
   37.8650   24.8710   37.1470 C   0  0  0  0  0  0  0  0  0  0  0  0
   37.8510   24.2100   38.3610 C   0  0  0  0  0  0  0  0  0  0  0  0
   38.8250   23.2120   38.3340 C   0  0  0  0  0  0  0  0  0  0  0  0
   45.3339   21.1934   33.2774 H   0  0  0  0  0  0  0  0  0  0  0  0
   46.1795   20.9511   34.8773 H   0  0  0  0  0  0  0  0  0  0  0  0
   45.2244   23.3166   33.8422 H   0  0  0  0  0  0  0  0  0  0  0  0
   43.9871   22.7830   35.0767 H   0  0  0  0  0  0  0  0  0  0  0  0
   47.6836   21.9605   35.3832 H   0  0  0  0  0  0  0  0  0  0  0  0
   48.6875   23.1399   37.4382 H   0  0  0  0  0  0  0  0  0  0  0  0
   47.7536   25.1051   39.3179 H   0  0  0  0  0  0  0  0  0  0  0  0
   45.7696   26.5157   39.8899 H   0  0  0  0  0  0  0  0  0  0  0  0
   43.7396   26.3151   38.4465 H   0  0  0  0  0  0  0  0  0  0  0  0
   43.6890   24.7659   36.4950 H   0  0  0  0  0  0  0  0  0  0  0  0
   41.6438   21.3642   33.6244 H   0  0  0  0  0  0  0  0  0  0  0  0
   43.1872   21.0541   37.6818 H   0  0  0  0  0  0  0  0  0  0  0  0
   37.2196   25.7091   36.8452 H   0  0  0  0  0  0  0  0  0  0  0  0
   37.1837   24.4336   39.2064 H   0  0  0  0  0  0  0  0  0  0  0  0
   39.0770   22.5031   39.1364 H   0  0  0  0  0  0  0  0  0  0  0  0
  1  2  1  0
  1 12  1  0
  2  3  1  0
  3  4  2  0
  3 11  1  0
  4  5  1  0
  5  6  1  0
  6  7  2  0
  7  8  1  0
  9  8  2  0
 10  9  1  0
 11 10  2  0
 11  6  1  0
 12 14  1  0
 13 18  2  0
 13 14  1  0
 14 15  2  0
 15 16  1  0
 17 19  1  0
 17 16  2  0
 18 17  1  0
 19 23  1  0
 20 19  1  0
 20 21  2  0
 21 22  1  0
 23 22  2  0
  1 24  1  0
  1 25  1  0
  2 26  1  0
  2 27  1  0
  4 28  1  0
  5 29  1  0
  7 30  1  0
  8 31  1  0
  9 32  1  0
 10 33  1  0
 13 34  1  0
 15 35  1  0
 21 36  1  0
 22 37  1  0
 23 38  1  0
M  ISO  8  24   8  25   8  26   8  27   8  28  14  29   9  30  14  31  14
M  ISO  7  32  14  33  14  34  14  35  14  36  14  37  14  38  14
M  END
>  <minimizedAffinity>  (1) 
-5.39359999

>  <minimizedRMSD>  (1) 
2.98001337

$$$$
