
     RDKit          3D

 40 42  0  0  0  0  0  0  0  0999 V2000
   43.1960   25.8660   35.2590 C   0  0  0  0  0  0  0  0  0  0  0  0
   44.5440   25.4200   35.5970 C   0  0  0  0  0  0  0  0  0  0  0  0
   45.4440   24.9690   34.6270 C   0  0  0  0  0  0  0  0  0  0  0  0
   46.6110   24.6190   35.2000 N   0  0  0  0  0  0  0  0  0  0  0  0
   46.5340   24.8130   36.5090 C   0  0  0  0  0  0  0  0  0  0  0  0
   47.3670   24.6510   37.6050 C   0  0  0  0  0  0  0  0  0  0  0  0
   47.0200   24.9430   38.9150 C   0  0  0  0  0  0  0  0  0  0  0  0
   45.7340   25.4350   39.1030 C   0  0  0  0  0  0  0  0  0  0  0  0
   44.8460   25.6230   38.0540 C   0  0  0  0  0  0  0  0  0  0  0  0
   45.2660   25.3070   36.7710 C   0  0  0  0  0  0  0  0  0  0  0  0
   43.1050   26.6300   33.9830 C   0  0  0  0  0  0  0  0  0  0  0  0
   41.3930   26.9980   33.5030 S   0  0  0  0  0  0  0  0  0  0  0  0
   39.4010   26.8920   35.4060 C   0  0  0  0  0  0  0  0  0  0  0  0
   40.2400   26.1420   34.5590 C   0  0  0  0  0  0  0  0  0  0  0  0
   40.1450   24.7380   34.5720 C   0  0  0  0  0  0  0  0  0  0  0  0
   39.2360   24.1720   35.4100 N   0  0  0  0  0  0  0  0  0  0  0  0
   38.4520   24.9050   36.2040 C   0  0  0  0  0  0  0  0  0  0  0  0
   38.5310   26.2530   36.2020 N   0  0  0  0  0  0  0  0  0  0  0  0
   37.4800   24.2010   37.0950 C   0  0  0  0  0  0  0  0  0  0  0  0
   37.3370   22.7440   36.7020 C   0  0  0  0  0  0  0  0  0  0  0  0
   37.9210   24.2310   38.5520 C   0  0  0  0  0  0  0  0  0  0  0  0
   42.5503   24.9793   35.1765 H   0  0  0  0  0  0  0  0  0  0  0  0
   42.8808   26.5512   36.0597 H   0  0  0  0  0  0  0  0  0  0  0  0
   45.2294   24.9087   33.5498 H   0  0  0  0  0  0  0  0  0  0  0  0
   47.4351   24.2570   34.6993 H   0  0  0  0  0  0  0  0  0  0  0  0
   48.3793   24.2616   37.4215 H   0  0  0  0  0  0  0  0  0  0  0  0
   47.7180   24.7947   39.7522 H   0  0  0  0  0  0  0  0  0  0  0  0
   45.4076   25.6851   40.1232 H   0  0  0  0  0  0  0  0  0  0  0  0
   43.8337   26.0131   38.2356 H   0  0  0  0  0  0  0  0  0  0  0  0
   43.6482   27.5791   34.1022 H   0  0  0  0  0  0  0  0  0  0  0  0
   43.5437   26.0051   33.1911 H   0  0  0  0  0  0  0  0  0  0  0  0
   39.4587   27.9905   35.4146 H   0  0  0  0  0  0  0  0  0  0  0  0
   40.7848   24.1191   33.9258 H   0  0  0  0  0  0  0  0  0  0  0  0
   36.5240   24.7329   36.9802 H   0  0  0  0  0  0  0  0  0  0  0  0
   37.2761   22.1240   37.6086 H   0  0  0  0  0  0  0  0  0  0  0  0
   36.4217   22.6131   36.1061 H   0  0  0  0  0  0  0  0  0  0  0  0
   38.2094   22.4376   36.1061 H   0  0  0  0  0  0  0  0  0  0  0  0
   37.0371   24.1709   39.2040 H   0  0  0  0  0  0  0  0  0  0  0  0
   38.5832   23.3758   38.7523 H   0  0  0  0  0  0  0  0  0  0  0  0
   38.4613   25.1680   38.7523 H   0  0  0  0  0  0  0  0  0  0  0  0
  1  2  1  0
  2 10  1  0
  3  4  1  0
  3  2  2  0
  4  5  1  0
  5 10  2  0
  5  6  1  0
  6  7  2  0
  7  8  1  0
  9  8  2  0
 10  9  1  0
 11  1  1  0
 12 11  1  0
 12 14  1  0
 13 18  2  0
 14 15  2  0
 14 13  1  0
 15 16  1  0
 16 17  2  0
 17 19  1  0
 18 17  1  0
 19 21  1  0
 20 19  1  0
  1 22  1  0
  1 23  1  0
  3 24  1  0
  4 25  1  0
  6 26  1  0
  7 27  1  0
  8 28  1  0
  9 29  1  0
 11 30  1  0
 11 31  1  0
 13 32  1  0
 15 33  1  0
 19 34  1  0
 20 35  1  0
 20 36  1  0
 20 37  1  0
 21 38  1  0
 21 39  1  0
 21 40  1  0
M  ISO  8  22   8  23   8  24  14  25   9  26  14  27  14  28  14  29  14
M  ISO  8  30   8  31   8  32  14  33  14  34   8  35   8  36   8  37   8
M  ISO  3  38   8  39   8  40   8
M  END
>  <minimizedAffinity>  (1) 
-5.0956974

>  <minimizedRMSD>  (1) 
2.35752654

$$$$
