
     RDKit          3D

 34 36  0  0  0  0  0  0  0  0999 V2000
   43.3440   25.3020   34.9900 C   0  0  0  0  0  0  0  0  0  0  0  0
   44.6160   24.8540   35.5660 C   0  0  0  0  0  0  0  0  0  0  0  0
   45.5470   24.1080   34.8450 C   0  0  0  0  0  0  0  0  0  0  0  0
   46.6160   23.8360   35.6140 N   0  0  0  0  0  0  0  0  0  0  0  0
   46.4480   24.3620   36.8190 C   0  0  0  0  0  0  0  0  0  0  0  0
   47.1690   24.4210   37.9990 C   0  0  0  0  0  0  0  0  0  0  0  0
   46.7300   25.0700   39.1510 C   0  0  0  0  0  0  0  0  0  0  0  0
   45.4820   25.6860   39.0690 C   0  0  0  0  0  0  0  0  0  0  0  0
   44.7140   25.6610   37.9130 C   0  0  0  0  0  0  0  0  0  0  0  0
   45.2270   24.9900   36.8070 C   0  0  0  0  0  0  0  0  0  0  0  0
   43.0360   24.6850   33.6650 C   0  0  0  0  0  0  0  0  0  0  0  0
   42.0490   23.1660   33.8090 S   0  0  0  0  0  0  0  0  0  0  0  0
   39.7880   24.0160   35.1220 C   0  0  0  0  0  0  0  0  0  0  0  0
   40.9570   23.2510   35.2180 C   0  0  0  0  0  0  0  0  0  0  0  0
   41.2280   22.5850   36.4020 C   0  0  0  0  0  0  0  0  0  0  0  0
   40.3560   22.6870   37.4450 N   0  0  0  0  0  0  0  0  0  0  0  0
   39.2400   23.4280   37.3270 C   0  0  0  0  0  0  0  0  0  0  0  0
   38.9650   24.0780   36.1890 N   0  0  0  0  0  0  0  0  0  0  0  0
   38.3740   23.4820   38.4760 C   0  0  0  0  0  0  0  0  0  0  0  0
   37.9330   24.6010   38.8650 O   0  0  0  0  0  0  0  0  0  0  0  0
   37.9300   22.4500   39.2570 O   0  0  0  0  0  0  0  0  0  0  0  0
   42.5355   25.0440   35.6899 H   0  0  0  0  0  0  0  0  0  0  0  0
   43.4279   26.3868   34.8284 H   0  0  0  0  0  0  0  0  0  0  0  0
   45.4250   23.7885   33.7995 H   0  0  0  0  0  0  0  0  0  0  0  0
   47.4416   23.2994   35.3120 H   0  0  0  0  0  0  0  0  0  0  0  0
   48.1500   23.9244   38.0291 H   0  0  0  0  0  0  0  0  0  0  0  0
   47.3325   25.0949   40.0710 H   0  0  0  0  0  0  0  0  0  0  0  0
   45.0915   26.2113   39.9531 H   0  0  0  0  0  0  0  0  0  0  0  0
   43.7322   26.1553   37.8725 H   0  0  0  0  0  0  0  0  0  0  0  0
   43.9834   24.4423   33.1614 H   0  0  0  0  0  0  0  0  0  0  0  0
   42.4435   25.4121   33.0904 H   0  0  0  0  0  0  0  0  0  0  0  0
   39.5456   24.5558   34.1947 H   0  0  0  0  0  0  0  0  0  0  0  0
   42.1402   21.9782   36.5000 H   0  0  0  0  0  0  0  0  0  0  0  0
   37.3318   22.6320   40.0245 H   0  0  0  0  0  0  0  0  0  0  0  0
  1  2  1  0
  2 10  1  0
  3  2  2  0
  3  4  1  0
  4  5  1  0
  5  6  2  0
  6  7  1  0
  8  7  2  0
  9  8  1  0
 10  5  1  0
 10  9  2  0
 11 12  1  0
 11  1  1  0
 12 14  1  0
 13 14  2  0
 13 18  1  0
 14 15  1  0
 15 16  2  0
 17 16  1  0
 17 19  1  0
 18 17  2  0
 19 20  2  0
 19 21  1  0
  1 22  1  0
  1 23  1  0
  3 24  1  0
  4 25  1  0
  6 26  1  0
  7 27  1  0
  8 28  1  0
  9 29  1  0
 11 30  1  0
 11 31  1  0
 13 32  1  0
 15 33  1  0
 21 34  1  0
M  ISO  8  22   8  23   8  24  14  25   9  26  14  27  14  28  14  29  14
M  ISO  5  30   8  31   8  32  14  33  14  34   3
M  END
>  <minimizedAffinity>  (1) 
-5.30731916

>  <minimizedRMSD>  (1) 
1.40964103

$$$$
