
     RDKit          3D

 43 45  0  0  0  0  0  0  0  0999 V2000
   44.1950   23.2350   34.8100 C   0  0  0  0  0  0  0  0  0  0  0  0
   45.2630   23.4920   35.7850 C   0  0  0  0  0  0  0  0  0  0  0  0
   46.4920   22.8450   35.7330 C   0  0  0  0  0  0  0  0  0  0  0  0
   47.2790   23.2660   36.7390 N   0  0  0  0  0  0  0  0  0  0  0  0
   46.6320   24.1710   37.4730 C   0  0  0  0  0  0  0  0  0  0  0  0
   46.8980   24.9380   38.5920 C   0  0  0  0  0  0  0  0  0  0  0  0
   45.9860   25.8380   39.1560 C   0  0  0  0  0  0  0  0  0  0  0  0
   44.7390   25.9380   38.5170 C   0  0  0  0  0  0  0  0  0  0  0  0
   44.4230   25.1950   37.3960 C   0  0  0  0  0  0  0  0  0  0  0  0
   45.3880   24.3170   36.8910 C   0  0  0  0  0  0  0  0  0  0  0  0
   44.1730   21.8260   34.3100 C   0  0  0  0  0  0  0  0  0  0  0  0
   43.1590   20.7170   35.3310 S   0  0  0  0  0  0  0  0  0  0  0  0
   40.7920   22.1060   35.0540 C   0  0  0  0  0  0  0  0  0  0  0  0
   41.7340   21.5760   35.9710 C   0  0  0  0  0  0  0  0  0  0  0  0
   41.5330   21.7340   37.3530 C   0  0  0  0  0  0  0  0  0  0  0  0
   40.4100   22.4080   37.7470 N   0  0  0  0  0  0  0  0  0  0  0  0
   39.5320   22.9020   36.8690 C   0  0  0  0  0  0  0  0  0  0  0  0
   39.7250   22.7500   35.5370 N   0  0  0  0  0  0  0  0  0  0  0  0
   38.3020   23.6390   37.2650 C   0  0  0  0  0  0  0  0  0  0  0  0
   38.2020   24.9760   36.5770 C   0  0  0  0  0  0  0  0  0  0  0  0
   37.0860   22.7780   36.9890 C   0  0  0  0  0  0  0  0  0  0  0  0
   38.3320   23.8930   38.7590 C   0  0  0  0  0  0  0  0  0  0  0  0
   43.2278   23.4505   35.2876 H   0  0  0  0  0  0  0  0  0  0  0  0
   44.3846   23.8842   33.9425 H   0  0  0  0  0  0  0  0  0  0  0  0
   46.7791   22.0975   34.9788 H   0  0  0  0  0  0  0  0  0  0  0  0
   48.2391   22.9378   36.9160 H   0  0  0  0  0  0  0  0  0  0  0  0
   47.8846   24.8350   39.0673 H   0  0  0  0  0  0  0  0  0  0  0  0
   46.2317   26.4326   40.0482 H   0  0  0  0  0  0  0  0  0  0  0  0
   43.9883   26.6318   38.9232 H   0  0  0  0  0  0  0  0  0  0  0  0
   43.4392   25.2912   36.9135 H   0  0  0  0  0  0  0  0  0  0  0  0
   43.7694   21.8249   33.2867 H   0  0  0  0  0  0  0  0  0  0  0  0
   45.2062   21.4505   34.3484 H   0  0  0  0  0  0  0  0  0  0  0  0
   40.9358   21.9900   33.9696 H   0  0  0  0  0  0  0  0  0  0  0  0
   42.2481   21.3328   38.0862 H   0  0  0  0  0  0  0  0  0  0  0  0
   38.1424   25.7735   37.3323 H   0  0  0  0  0  0  0  0  0  0  0  0
   39.0910   25.1322   35.9482 H   0  0  0  0  0  0  0  0  0  0  0  0
   37.2997   24.9982   35.9482 H   0  0  0  0  0  0  0  0  0  0  0  0
   36.6376   22.4605   37.9420 H   0  0  0  0  0  0  0  0  0  0  0  0
   36.3498   23.3572   36.4123 H   0  0  0  0  0  0  0  0  0  0  0  0
   37.3878   21.8912   36.4123 H   0  0  0  0  0  0  0  0  0  0  0  0
   38.2194   22.9393   39.2954 H   0  0  0  0  0  0  0  0  0  0  0  0
   39.2912   24.3567   39.0329 H   0  0  0  0  0  0  0  0  0  0  0  0
   37.5073   24.5674   39.0329 H   0  0  0  0  0  0  0  0  0  0  0  0
  1  2  1  0
  2 10  1  0
  3  2  2  0
  3  4  1  0
  4  5  1  0
  5  6  2  0
  6  7  1  0
  8  7  2  0
  9  8  1  0
 10  9  2  0
 10  5  1  0
 11  1  1  0
 11 12  1  0
 12 14  1  0
 13 18  2  0
 13 14  1  0
 14 15  2  0
 15 16  1  0
 17 19  1  0
 17 16  2  0
 18 17  1  0
 19 22  1  0
 20 19  1  0
 21 19  1  0
  1 23  1  0
  1 24  1  0
  3 25  1  0
  4 26  1  0
  6 27  1  0
  7 28  1  0
  8 29  1  0
  9 30  1  0
 11 31  1  0
 11 32  1  0
 13 33  1  0
 15 34  1  0
 20 35  1  0
 20 36  1  0
 20 37  1  0
 21 38  1  0
 21 39  1  0
 21 40  1  0
 22 41  1  0
 22 42  1  0
 22 43  1  0
M  ISO  8  23   8  24   8  25  14  26   9  27  14  28  14  29  14  30  14
M  ISO  8  31   8  32   8  33  14  34  14  35   8  36   8  37   8  38   8
M  ISO  5  39   8  40   8  41   8  42   8  43   8
M  END
>  <minimizedAffinity>  (1) 
-5.39246464

>  <minimizedRMSD>  (1) 
2.22522402

$$$$
