
     RDKit          3D

 48 50  0  0  1  0  0  0  0  0999 V2000
   38.2860   28.2600   30.5220 C   0  0  0  0  0  0  0  0  0  0  0  0
   39.2910   27.6060   31.1790 C   0  0  0  0  0  0  0  0  0  0  0  0
   38.9850   26.8710   32.3160 C   0  0  0  0  0  0  0  0  0  0  0  0
   37.6790   26.8050   32.7700 C   0  0  0  0  0  0  0  0  0  0  0  0
   36.6630   27.4550   32.1190 C   0  0  0  0  0  0  0  0  0  0  0  0
   36.9580   28.1910   30.9860 C   0  0  0  0  0  0  0  0  0  0  0  0
   37.5260   25.9870   33.9960 C   0  0  0  0  0  0  0  0  0  0  0  0
   38.5940   26.2430   35.0190 C   0  0  2  0  0  0  0  0  0  0  0  0
   39.8370   23.1580   36.5520 C   0  0  0  0  0  0  0  0  0  0  0  0
   39.0570   23.0390   37.7450 C   0  0  0  0  0  0  0  0  0  0  0  0
   38.1020   24.0350   38.0010 C   0  0  0  0  0  0  0  0  0  0  0  0
   37.9750   25.0630   37.0960 N   0  0  0  0  0  0  0  0  0  0  0  0
   38.7350   25.1380   35.9820 C   0  0  0  0  0  0  0  0  0  0  0  0
   39.6630   24.1910   35.7050 N   0  0  0  0  0  0  0  0  0  0  0  0
   38.2070   27.4970   35.7980 C   0  0  0  0  0  0  0  0  0  0  0  0
   38.6780   29.1690   29.0790 S   0  0  0  0  0  0  0  0  0  0  0  0
   38.7900   28.1700   27.9250 O   0  0  0  0  0  0  0  0  0  0  0  0
   39.9800   29.8720   29.2240 O   0  0  0  0  0  0  0  0  0  0  0  0
   37.3990   30.3420   28.7080 C   0  0  0  0  0  0  0  0  0  0  0  0
   37.1070   31.2540   29.8550 C   0  0  0  0  0  0  0  0  0  0  0  0
   38.1160   32.3730   29.8680 C   0  0  0  0  0  0  0  0  0  0  0  0
   37.9330   33.1730   28.6010 C   0  0  0  0  0  0  0  0  0  0  0  0
   38.2900   32.3190   27.4060 C   0  0  0  0  0  0  0  0  0  0  0  0
   37.5890   31.0060   27.3910 C   0  0  0  0  0  0  0  0  0  0  0  0
   40.3265   27.6615   30.8120 H   0  0  0  0  0  0  0  0  0  0  0  0
   39.7818   26.3400   32.8573 H   0  0  0  0  0  0  0  0  0  0  0  0
   35.6299   27.3923   32.4916 H   0  0  0  0  0  0  0  0  0  0  0  0
   36.1578   28.7210   30.4487 H   0  0  0  0  0  0  0  0  0  0  0  0
   36.5489   26.2141   34.4473 H   0  0  0  0  0  0  0  0  0  0  0  0
   37.6094   24.9321   33.6957 H   0  0  0  0  0  0  0  0  0  0  0  0
   39.5509   26.3523   34.4876 H   0  0  0  0  0  0  0  0  0  0  0  0
   40.5925   22.3923   36.3220 H   0  0  0  0  0  0  0  0  0  0  0  0
   39.2006   22.1965   38.4375 H   0  0  0  0  0  0  0  0  0  0  0  0
   37.4717   23.9946   38.9016 H   0  0  0  0  0  0  0  0  0  0  0  0
   38.2701   27.2925   36.8770 H   0  0  0  0  0  0  0  0  0  0  0  0
   38.8942   28.3161   35.5393 H   0  0  0  0  0  0  0  0  0  0  0  0
   37.1778   27.7863   35.5393 H   0  0  0  0  0  0  0  0  0  0  0  0
   36.4650   29.7758   28.5777 H   0  0  0  0  0  0  0  0  0  0  0  0
   36.0955   31.6720   29.7443 H   0  0  0  0  0  0  0  0  0  0  0  0
   37.1668   30.6917   30.7985 H   0  0  0  0  0  0  0  0  0  0  0  0
   37.9499   33.0167   30.7444 H   0  0  0  0  0  0  0  0  0  0  0  0
   39.1376   31.9690   29.9235 H   0  0  0  0  0  0  0  0  0  0  0  0
   36.8846   33.4958   28.5201 H   0  0  0  0  0  0  0  0  0  0  0  0
   38.5890   34.0556   28.6283 H   0  0  0  0  0  0  0  0  0  0  0  0
   38.0220   32.8685   26.4915 H   0  0  0  0  0  0  0  0  0  0  0  0
   39.3688   32.1120   27.4637 H   0  0  0  0  0  0  0  0  0  0  0  0
   36.5941   31.1630   26.9489 H   0  0  0  0  0  0  0  0  0  0  0  0
   38.2423   30.3329   26.8163 H   0  0  0  0  0  0  0  0  0  0  0  0
  1  6  1  0
  1  2  2  0
  2  3  1  0
  3  4  2  0
  4  7  1  0
  5  4  1  0
  6  5  2  0
  7  8  1  0
  8 15  1  0
  8 13  1  0
  9 10  2  0
 10 11  1  0
 12 11  2  0
 13 12  1  0
 14 13  2  0
 14  9  1  0
 16 18  2  0
 16  1  1  0
 17 16  2  0
 19 16  1  0
 19 20  1  0
 20 21  1  0
 22 21  1  0
 23 22  1  0
 24 23  1  0
 24 19  1  0
  2 25  1  0
  3 26  1  0
  5 27  1  0
  6 28  1  0
  7 29  1  0
  7 30  1  0
  8 31  1  6
  9 32  1  0
 10 33  1  0
 11 34  1  0
 15 35  1  0
 15 36  1  0
 15 37  1  0
 19 38  1  0
 20 39  1  0
 20 40  1  0
 21 41  1  0
 21 42  1  0
 22 43  1  0
 22 44  1  0
 23 45  1  0
 23 46  1  0
 24 47  1  0
 24 48  1  0
M  ISO  8  25  14  26  14  27  14  28  14  29   8  30   8  31   8  32  14
M  ISO  8  33  14  34  14  35   8  36   8  37   8  38  13  39  13  40  13
M  ISO  8  41  13  42  13  43  13  44  13  45  13  46  13  47  13  48  13
M  END
>  <minimizedAffinity>  (1) 
-4.88970423

>  <minimizedRMSD>  (1) 
2.3275342

$$$$
