
     RDKit          3D

 39 42  0  0  0  0  0  0  0  0999 V2000
   45.7760   23.1180   33.1570 C   0  0  0  0  0  0  0  0  0  0  0  0
   45.5260   24.3160   34.0060 C   0  0  0  0  0  0  0  0  0  0  0  0
   46.2600   24.3070   35.2780 C   0  0  0  0  0  0  0  0  0  0  0  0
   47.5410   23.7600   35.3930 C   0  0  0  0  0  0  0  0  0  0  0  0
   47.9780   23.8830   36.6580 N   0  0  0  0  0  0  0  0  0  0  0  0
   47.0670   24.4810   37.4010 C   0  0  0  0  0  0  0  0  0  0  0  0
   46.9220   24.8790   38.7240 C   0  0  0  0  0  0  0  0  0  0  0  0
   45.8030   25.5140   39.2390 C   0  0  0  0  0  0  0  0  0  0  0  0
   44.7600   25.7550   38.3380 C   0  0  0  0  0  0  0  0  0  0  0  0
   44.8340   25.3840   37.0020 C   0  0  0  0  0  0  0  0  0  0  0  0
   45.9960   24.7510   36.5640 C   0  0  0  0  0  0  0  0  0  0  0  0
   44.8310   21.6600   33.6930 S   0  0  0  0  0  0  0  0  0  0  0  0
   42.2660   22.6340   33.9490 C   0  0  0  0  0  0  0  0  0  0  0  0
   43.3920   22.1490   34.6370 C   0  0  0  0  0  0  0  0  0  0  0  0
   43.3470   22.0680   36.0220 C   0  0  0  0  0  0  0  0  0  0  0  0
   42.2240   22.4560   36.6820 N   0  0  0  0  0  0  0  0  0  0  0  0
   41.1570   22.9180   36.0020 C   0  0  0  0  0  0  0  0  0  0  0  0
   41.2000   22.9970   34.6630 N   0  0  0  0  0  0  0  0  0  0  0  0
   39.9110   23.3550   36.6410 C   0  0  0  0  0  0  0  0  0  0  0  0
   39.6630   22.9680   37.9420 C   0  0  0  0  0  0  0  0  0  0  0  0
   38.5120   23.3420   38.6030 C   0  0  0  0  0  0  0  0  0  0  0  0
   37.6180   24.1140   37.9280 N   0  0  0  0  0  0  0  0  0  0  0  0
   37.8570   24.4970   36.6500 C   0  0  0  0  0  0  0  0  0  0  0  0
   38.9910   24.1180   36.0240 N   0  0  0  0  0  0  0  0  0  0  0  0
   46.8482   22.8759   33.1988 H   0  0  0  0  0  0  0  0  0  0  0  0
   45.4510   23.3643   32.1354 H   0  0  0  0  0  0  0  0  0  0  0  0
   45.8251   25.2104   33.4398 H   0  0  0  0  0  0  0  0  0  0  0  0
   44.4546   24.3130   34.2553 H   0  0  0  0  0  0  0  0  0  0  0  0
   48.1071   23.2978   34.5708 H   0  0  0  0  0  0  0  0  0  0  0  0
   48.8937   23.5568   36.9986 H   0  0  0  0  0  0  0  0  0  0  0  0
   47.7554   24.6755   39.4125 H   0  0  0  0  0  0  0  0  0  0  0  0
   45.7385   25.8116   40.2960 H   0  0  0  0  0  0  0  0  0  0  0  0
   43.8501   26.2556   38.7005 H   0  0  0  0  0  0  0  0  0  0  0  0
   44.0017   25.5834   36.3110 H   0  0  0  0  0  0  0  0  0  0  0  0
   42.2644   22.7119   32.8518 H   0  0  0  0  0  0  0  0  0  0  0  0
   44.2156   21.6918   36.5824 H   0  0  0  0  0  0  0  0  0  0  0  0
   40.4029   22.3448   38.4656 H   0  0  0  0  0  0  0  0  0  0  0  0
   38.3233   23.0271   39.6399 H   0  0  0  0  0  0  0  0  0  0  0  0
   37.1222   25.1206   36.1198 H   0  0  0  0  0  0  0  0  0  0  0  0
  1 12  1  0
  1  2  1  0
  2  3  1  0
  3  4  2  0
  3 11  1  0
  4  5  1  0
  5  6  1  0
  6  7  2  0
  7  8  1  0
  9  8  2  0
 10  9  1  0
 11 10  2  0
 11  6  1  0
 12 14  1  0
 13 14  2  0
 13 18  1  0
 14 15  1  0
 15 16  2  0
 17 19  1  0
 17 16  1  0
 18 17  2  0
 19 20  2  0
 20 21  1  0
 22 21  2  0
 23 22  1  0
 24 19  1  0
 24 23  2  0
  1 25  1  0
  1 26  1  0
  2 27  1  0
  2 28  1  0
  4 29  1  0
  5 30  1  0
  7 31  1  0
  8 32  1  0
  9 33  1  0
 10 34  1  0
 13 35  1  0
 15 36  1  0
 20 37  1  0
 21 38  1  0
 23 39  1  0
M  ISO  8  25   8  26   8  27   8  28   8  29  14  30   9  31  14  32  14
M  ISO  7  33  14  34  14  35  14  36  14  37  14  38  14  39  14
M  END
>  <minimizedAffinity>  (1) 
-4.95503759

>  <minimizedRMSD>  (1) 
3.49467325

$$$$
