
     RDKit          3D

 33 35  0  0  0  0  0  0  0  0999 V2000
   43.3370   24.0150   34.9010 C   0  0  0  0  0  0  0  0  0  0  0  0
   44.5920   23.9680   35.6580 C   0  0  0  0  0  0  0  0  0  0  0  0
   45.6820   23.2020   35.2540 C   0  0  0  0  0  0  0  0  0  0  0  0
   46.6980   23.3420   36.1260 N   0  0  0  0  0  0  0  0  0  0  0  0
   46.3330   24.1680   37.0950 C   0  0  0  0  0  0  0  0  0  0  0  0
   46.9130   24.6910   38.2410 C   0  0  0  0  0  0  0  0  0  0  0  0
   46.2750   25.5720   39.1080 C   0  0  0  0  0  0  0  0  0  0  0  0
   44.9770   25.9300   38.7790 C   0  0  0  0  0  0  0  0  0  0  0  0
   44.3430   25.4390   37.6470 C   0  0  0  0  0  0  0  0  0  0  0  0
   45.0390   24.5640   36.8230 C   0  0  0  0  0  0  0  0  0  0  0  0
   43.1360   22.8350   34.0030 C   0  0  0  0  0  0  0  0  0  0  0  0
   42.1940   21.4900   34.7820 S   0  0  0  0  0  0  0  0  0  0  0  0
   39.7490   22.6480   35.3210 C   0  0  0  0  0  0  0  0  0  0  0  0
   40.9400   22.1490   35.8780 C   0  0  0  0  0  0  0  0  0  0  0  0
   41.1050   22.1850   37.2600 C   0  0  0  0  0  0  0  0  0  0  0  0
   40.1000   22.7030   38.0160 N   0  0  0  0  0  0  0  0  0  0  0  0
   38.9800   23.1700   37.4630 C   0  0  0  0  0  0  0  0  0  0  0  0
   38.8130   23.1390   36.1350 N   0  0  0  0  0  0  0  0  0  0  0  0
   37.9130   23.7220   38.2810 C   0  0  0  0  0  0  0  0  0  0  0  0
   37.9580   24.7770   38.9250 O   0  0  0  0  0  0  0  0  0  0  0  0
   42.5012   24.0553   35.6150 H   0  0  0  0  0  0  0  0  0  0  0  0
   43.3805   24.9066   34.2582 H   0  0  0  0  0  0  0  0  0  0  0  0
   45.7092   22.5729   34.3521 H   0  0  0  0  0  0  0  0  0  0  0  0
   47.6152   22.8794   36.0514 H   0  0  0  0  0  0  0  0  0  0  0  0
   47.9437   24.3898   38.4797 H   0  0  0  0  0  0  0  0  0  0  0  0
   46.7739   25.9637   40.0067 H   0  0  0  0  0  0  0  0  0  0  0  0
   44.4329   26.6248   39.4357 H   0  0  0  0  0  0  0  0  0  0  0  0
   43.3114   25.7362   37.4072 H   0  0  0  0  0  0  0  0  0  0  0  0
   44.1228   22.4464   33.7111 H   0  0  0  0  0  0  0  0  0  0  0  0
   42.5535   23.1809   33.1364 H   0  0  0  0  0  0  0  0  0  0  0  0
   39.5918   22.6337   34.2324 H   0  0  0  0  0  0  0  0  0  0  0  0
   42.0246   21.8043   37.7284 H   0  0  0  0  0  0  0  0  0  0  0  0
   36.9766   23.1470   38.3322 H   0  0  0  0  0  0  0  0  0  0  0  0
  1  2  1  0
  2 10  1  0
  3  2  2  0
  3  4  1  0
  4  5  1  0
  5  6  2  0
  6  7  1  0
  8  7  2  0
  9  8  1  0
 10  5  1  0
 10  9  2  0
 11 12  1  0
 11  1  1  0
 12 14  1  0
 13 14  2  0
 13 18  1  0
 14 15  1  0
 15 16  2  0
 17 16  1  0
 17 19  1  0
 18 17  2  0
 19 20  2  0
  1 21  1  0
  1 22  1  0
  3 23  1  0
  4 24  1  0
  6 25  1  0
  7 26  1  0
  8 27  1  0
  9 28  1  0
 11 29  1  0
 11 30  1  0
 13 31  1  0
 15 32  1  0
 19 33  1  0
M  ISO  8  21   8  22   8  23  14  24   9  25  14  26  14  27  14  28  14
M  ISO  5  29   8  30   8  31  14  32  14  33   6
M  END
>  <minimizedAffinity>  (1) 
-4.9088397

>  <minimizedRMSD>  (1) 
1.32582808

$$$$
