
     RDKit          3D

 34 36  0  0  0  0  0  0  0  0999 V2000
   43.1190   24.8930   35.1560 C   0  0  0  0  0  0  0  0  0  0  0  0
   44.4310   24.5250   35.7020 C   0  0  0  0  0  0  0  0  0  0  0  0
   45.3220   23.7200   34.9970 C   0  0  0  0  0  0  0  0  0  0  0  0
   46.4480   23.5380   35.7220 N   0  0  0  0  0  0  0  0  0  0  0  0
   46.3330   24.1920   36.8800 C   0  0  0  0  0  0  0  0  0  0  0  0
   47.1260   24.3790   38.0020 C   0  0  0  0  0  0  0  0  0  0  0  0
   46.7490   25.1320   39.1020 C   0  0  0  0  0  0  0  0  0  0  0  0
   45.4800   25.7260   39.0360 C   0  0  0  0  0  0  0  0  0  0  0  0
   44.6530   25.5680   37.9370 C   0  0  0  0  0  0  0  0  0  0  0  0
   45.1000   24.7980   36.8720 C   0  0  0  0  0  0  0  0  0  0  0  0
   42.7310   24.1220   33.9450 C   0  0  0  0  0  0  0  0  0  0  0  0
   41.6730   22.6980   34.3150 S   0  0  0  0  0  0  0  0  0  0  0  0
   39.4890   23.9530   35.4280 C   0  0  0  0  0  0  0  0  0  0  0  0
   40.5510   23.0490   35.6620 C   0  0  0  0  0  0  0  0  0  0  0  0
   40.6930   22.4620   36.9240 C   0  0  0  0  0  0  0  0  0  0  0  0
   39.7810   22.8030   37.8730 N   0  0  0  0  0  0  0  0  0  0  0  0
   38.7830   23.6580   37.6380 C   0  0  0  0  0  0  0  0  0  0  0  0
   38.6470   24.2240   36.4210 N   0  0  0  0  0  0  0  0  0  0  0  0
   37.7720   24.0450   38.6670 C   0  0  0  0  0  0  0  0  0  0  0  0
   42.3601   24.7213   35.9335 H   0  0  0  0  0  0  0  0  0  0  0  0
   43.1842   25.9488   34.8543 H   0  0  0  0  0  0  0  0  0  0  0  0
   45.1371   23.2956   33.9991 H   0  0  0  0  0  0  0  0  0  0  0  0
   47.2645   22.9832   35.4280 H   0  0  0  0  0  0  0  0  0  0  0  0
   48.1159   23.8997   38.0197 H   0  0  0  0  0  0  0  0  0  0  0  0
   47.4059   25.2567   39.9755 H   0  0  0  0  0  0  0  0  0  0  0  0
   45.1315   26.3356   39.8827 H   0  0  0  0  0  0  0  0  0  0  0  0
   43.6614   26.0432   37.9083 H   0  0  0  0  0  0  0  0  0  0  0  0
   43.6457   23.7596   33.4531 H   0  0  0  0  0  0  0  0  0  0  0  0
   42.1543   24.7986   33.2972 H   0  0  0  0  0  0  0  0  0  0  0  0
   39.3616   24.4237   34.4420 H   0  0  0  0  0  0  0  0  0  0  0  0
   41.5076   21.7549   37.1392 H   0  0  0  0  0  0  0  0  0  0  0  0
   38.1911   23.8846   39.6713 H   0  0  0  0  0  0  0  0  0  0  0  0
   37.5112   25.1065   38.5438 H   0  0  0  0  0  0  0  0  0  0  0  0
   36.8691   23.4289   38.5438 H   0  0  0  0  0  0  0  0  0  0  0  0
  1  2  1  0
  2 10  1  0
  3  2  2  0
  3  4  1  0
  4  5  1  0
  5  6  2  0
  6  7  1  0
  8  7  2  0
  9  8  1  0
 10  5  1  0
 10  9  2  0
 11 12  1  0
 11  1  1  0
 12 14  1  0
 13 14  2  0
 13 18  1  0
 14 15  1  0
 15 16  2  0
 17 16  1  0
 17 19  1  0
 18 17  2  0
  1 20  1  0
  1 21  1  0
  3 22  1  0
  4 23  1  0
  6 24  1  0
  7 25  1  0
  8 26  1  0
  9 27  1  0
 11 28  1  0
 11 29  1  0
 13 30  1  0
 15 31  1  0
 19 32  1  0
 19 33  1  0
 19 34  1  0
M  ISO  8  20   8  21   8  22  14  23   9  24  14  25  14  26  14  27  14
M  ISO  7  28   8  29   8  30  14  31  14  32   8  33   8  34   8
M  END
>  <minimizedAffinity>  (1) 
-4.81256723

>  <minimizedRMSD>  (1) 
0.82341814

$$$$
