
     RDKit          3D

 33 35  0  0  0  0  0  0  0  0999 V2000
   43.0910   24.7400   35.1720 C   0  0  0  0  0  0  0  0  0  0  0  0
   44.4180   24.4150   35.7150 C   0  0  0  0  0  0  0  0  0  0  0  0
   45.3240   23.6170   35.0260 C   0  0  0  0  0  0  0  0  0  0  0  0
   46.4590   23.4760   35.7400 N   0  0  0  0  0  0  0  0  0  0  0  0
   46.3350   24.1560   36.8830 C   0  0  0  0  0  0  0  0  0  0  0  0
   47.1340   24.3870   37.9930 C   0  0  0  0  0  0  0  0  0  0  0  0
   46.7470   25.1600   39.0840 C   0  0  0  0  0  0  0  0  0  0  0  0
   45.4610   25.7180   39.0070 C   0  0  0  0  0  0  0  0  0  0  0  0
   44.6250   25.5200   37.9270 C   0  0  0  0  0  0  0  0  0  0  0  0
   45.0950   24.7280   36.8720 C   0  0  0  0  0  0  0  0  0  0  0  0
   42.6680   23.8640   34.0390 C   0  0  0  0  0  0  0  0  0  0  0  0
   41.6820   22.4400   34.5760 S   0  0  0  0  0  0  0  0  0  0  0  0
   39.4330   23.7530   35.4540 C   0  0  0  0  0  0  0  0  0  0  0  0
   40.5070   22.9090   35.8280 C   0  0  0  0  0  0  0  0  0  0  0  0
   40.6120   22.4780   37.1490 C   0  0  0  0  0  0  0  0  0  0  0  0
   39.6690   22.8860   38.0410 N   0  0  0  0  0  0  0  0  0  0  0  0
   38.6520   23.6890   37.6680 C   0  0  0  0  0  0  0  0  0  0  0  0
   38.5460   24.1090   36.3920 N   0  0  0  0  0  0  0  0  0  0  0  0
   37.6850   24.0960   38.6240 N   0  0  0  0  0  0  0  0  0  0  0  0
   42.3522   24.6404   35.9809 H   0  0  0  0  0  0  0  0  0  0  0  0
   43.1506   25.7650   34.7772 H   0  0  0  0  0  0  0  0  0  0  0  0
   45.1412   23.1654   34.0398 H   0  0  0  0  0  0  0  0  0  0  0  0
   47.2856   22.9333   35.4516 H   0  0  0  0  0  0  0  0  0  0  0  0
   48.1350   23.9313   38.0123 H   0  0  0  0  0  0  0  0  0  0  0  0
   47.4056   25.3230   39.9498 H   0  0  0  0  0  0  0  0  0  0  0  0
   45.1049   26.3389   39.8423 H   0  0  0  0  0  0  0  0  0  0  0  0
   43.6217   25.9698   37.8958 H   0  0  0  0  0  0  0  0  0  0  0  0
   43.5683   23.4940   33.5266 H   0  0  0  0  0  0  0  0  0  0  0  0
   42.0364   24.4695   33.3723 H   0  0  0  0  0  0  0  0  0  0  0  0
   39.3299   24.1076   34.4179 H   0  0  0  0  0  0  0  0  0  0  0  0
   41.4380   21.8231   37.4633 H   0  0  0  0  0  0  0  0  0  0  0  0
   36.9074   24.7094   38.3410 H   0  0  0  0  0  0  0  0  0  0  0  0
   37.7608   23.7780   39.6007 H   0  0  0  0  0  0  0  0  0  0  0  0
  1  2  1  0
  2 10  1  0
  3  2  2  0
  3  4  1  0
  4  5  1  0
  5  6  2  0
  6  7  1  0
  8  7  2  0
  9  8  1  0
 10  5  1  0
 10  9  2  0
 11 12  1  0
 11  1  1  0
 12 14  1  0
 13 14  2  0
 13 18  1  0
 14 15  1  0
 15 16  2  0
 17 16  1  0
 17 19  1  0
 18 17  2  0
  1 20  1  0
  1 21  1  0
  3 22  1  0
  4 23  1  0
  6 24  1  0
  7 25  1  0
  8 26  1  0
  9 27  1  0
 11 28  1  0
 11 29  1  0
 13 30  1  0
 15 31  1  0
 19 32  1  0
 19 33  1  0
M  ISO  8  20   8  21   8  22  14  23   9  24  14  25  14  26  14  27  14
M  ISO  4  28   8  29   8  30  14  31  14
M  END
>  <minimizedAffinity>  (1) 
-4.78815842

>  <minimizedRMSD>  (1) 
0.732328892

$$$$
