
     RDKit          3D

 37 40  0  0  1  0  0  0  0  0999 V2000
   39.6390   22.8220   37.8090 C   0  0  0  0  0  0  0  0  0  0  0  0
   38.8410   23.3790   38.8300 C   0  0  0  0  0  0  0  0  0  0  0  0
   37.9330   24.3640   38.4610 C   0  0  0  0  0  0  0  0  0  0  0  0
   37.8670   24.7270   37.1610 N   0  0  0  0  0  0  0  0  0  0  0  0
   38.6430   24.1770   36.2060 C   0  0  0  0  0  0  0  0  0  0  0  0
   39.5330   23.2210   36.5280 N   0  0  0  0  0  0  0  0  0  0  0  0
   38.4980   24.6250   34.8750 N   0  0  0  0  0  0  0  0  0  0  0  0
   38.0910   25.9950   34.6220 C   0  0  0  0  0  0  0  0  0  0  0  0
   37.3960   26.1310   33.3020 C   0  0  0  0  0  0  0  0  0  0  0  0
   37.1000   24.9200   32.7240 O   0  0  0  0  0  0  0  0  0  0  0  0
   38.3040   24.2620   32.4610 C   0  0  0  0  0  0  0  0  0  0  0  0
   38.7600   23.7090   33.7960 C   0  0  1  0  0  0  0  0  0  0  0  0
   40.1890   23.4800   33.7020 N   0  0  0  0  0  0  0  0  0  0  0  0
   40.9130   22.3540   33.7560 C   0  0  0  0  0  0  0  0  0  0  0  0
   42.2280   22.6020   33.6250 N   0  0  0  0  0  0  0  0  0  0  0  0
   42.3710   23.9310   33.4790 C   0  0  0  0  0  0  0  0  0  0  0  0
   43.5040   24.7120   33.3080 C   0  0  0  0  0  0  0  0  0  0  0  0
   44.6440   24.2000   33.2670 O   0  0  0  0  0  0  0  0  0  0  0  0
   43.3970   26.0470   33.1830 N   0  0  0  0  0  0  0  0  0  0  0  0
   42.1450   26.5400   33.2350 C   0  0  0  0  0  0  0  0  0  0  0  0
   41.9950   27.9510   33.1050 N   0  0  0  0  0  0  0  0  0  0  0  0
   41.0270   25.8090   33.4000 N   0  0  0  0  0  0  0  0  0  0  0  0
   41.1080   24.4670   33.5280 C   0  0  0  0  0  0  0  0  0  0  0  0
   40.3682   22.0398   38.0669 H   0  0  0  0  0  0  0  0  0  0  0  0
   38.9336   23.0475   39.8748 H   0  0  0  0  0  0  0  0  0  0  0  0
   37.2822   24.8379   39.2106 H   0  0  0  0  0  0  0  0  0  0  0  0
   37.4062   26.3168   35.4204 H   0  0  0  0  0  0  0  0  0  0  0  0
   38.9939   26.6229   34.6008 H   0  0  0  0  0  0  0  0  0  0  0  0
   36.4581   26.6850   33.4551 H   0  0  0  0  0  0  0  0  0  0  0  0
   38.0799   26.6614   32.6230 H   0  0  0  0  0  0  0  0  0  0  0  0
   38.1473   23.4463   31.7398 H   0  0  0  0  0  0  0  0  0  0  0  0
   39.0521   24.9379   32.0210 H   0  0  0  0  0  0  0  0  0  0  0  0
   38.2080   22.7823   34.0116 H   0  0  0  0  0  0  0  0  0  0  0  0
   40.4843   21.3500   33.8909 H   0  0  0  0  0  0  0  0  0  0  0  0
   44.2199   26.6532   33.0557 H   0  0  0  0  0  0  0  0  0  0  0  0
   41.0566   28.3744   33.1385 H   0  0  0  0  0  0  0  0  0  0  0  0
   42.8249   28.5475   32.9775 H   0  0  0  0  0  0  0  0  0  0  0  0
  1  2  2  0
  3  2  1  0
  4  3  2  0
  5  6  2  0
  5  4  1  0
  6  1  1  0
  7  5  1  0
  8  7  1  0
  9  8  1  0
 10  9  1  0
 11 10  1  0
 11 12  1  0
 12  7  1  0
 13 14  1  0
 13 12  1  0
 15 14  2  0
 16 23  2  0
 16 15  1  0
 17 16  1  0
 18 17  2  0
 19 20  1  0
 19 17  1  0
 20 22  2  0
 21 20  1  0
 22 23  1  0
 23 13  1  0
  1 24  1  0
  2 25  1  0
  3 26  1  0
  8 27  1  0
  8 28  1  0
  9 29  1  0
  9 30  1  0
 11 31  1  0
 11 32  1  0
 12 33  1  1
 14 34  1  0
 19 35  1  0
 21 36  1  0
 21 37  1  0
M  ISO  8  24  14  25  14  26  14  27  13  28  13  29  13  30  13  31  13
M  ISO  4  32  13  33  13  34  14  35   9
M  END
>  <minimizedAffinity>  (1) 
-4.86660767

>  <minimizedRMSD>  (1) 
1.35384631

$$$$
