
     RDKit          3D

 31 33  0  0  1  0  0  0  0  0999 V2000
   39.1190   26.9590   35.6520 C   0  0  0  0  0  0  0  0  0  0  0  0
   38.0530   27.8700   35.4790 C   0  0  0  0  0  0  0  0  0  0  0  0
   36.9670   27.4520   34.6940 C   0  0  0  0  0  0  0  0  0  0  0  0
   37.0280   26.2070   34.1640 N   0  0  0  0  0  0  0  0  0  0  0  0
   38.0600   25.3700   34.3520 C   0  0  0  0  0  0  0  0  0  0  0  0
   39.0950   25.7510   35.0920 N   0  0  0  0  0  0  0  0  0  0  0  0
   37.9960   24.0910   33.7380 N   0  0  0  0  0  0  0  0  0  0  0  0
   37.2280   23.9100   32.5160 C   0  0  0  0  0  0  0  0  0  0  0  0
   36.8110   22.4970   32.3230 C   0  0  0  0  0  0  0  0  0  0  0  0
   36.9490   21.7480   33.4860 O   0  0  0  0  0  0  0  0  0  0  0  0
   38.3050   21.6590   33.7840 C   0  0  0  0  0  0  0  0  0  0  0  0
   38.7080   22.9850   34.3520 C   0  0  2  0  0  0  0  0  0  0  0  0
   38.7350   23.0420   35.8180 C   0  0  0  0  0  0  0  0  0  0  0  0
   39.9190   22.8820   36.5470 C   0  0  0  0  0  0  0  0  0  0  0  0
   39.8630   22.9480   37.9260 C   0  0  0  0  0  0  0  0  0  0  0  0
   38.7100   23.1610   38.5930 N   0  0  0  0  0  0  0  0  0  0  0  0
   37.6010   23.3090   37.8750 C   0  0  0  0  0  0  0  0  0  0  0  0
   37.6110   23.2520   36.5520 N   0  0  0  0  0  0  0  0  0  0  0  0
   39.9861   27.2534   36.2614 H   0  0  0  0  0  0  0  0  0  0  0  0
   38.0733   28.8679   35.9414 H   0  0  0  0  0  0  0  0  0  0  0  0
   36.1023   28.1083   34.5166 H   0  0  0  0  0  0  0  0  0  0  0  0
   36.3289   24.5418   32.5651 H   0  0  0  0  0  0  0  0  0  0  0  0
   37.8685   24.1934   31.6678 H   0  0  0  0  0  0  0  0  0  0  0  0
   35.7561   22.4778   32.0117 H   0  0  0  0  0  0  0  0  0  0  0  0
   37.4617   22.0535   31.5550 H   0  0  0  0  0  0  0  0  0  0  0  0
   38.4797   20.8617   34.5214 H   0  0  0  0  0  0  0  0  0  0  0  0
   38.8928   21.4177   32.8860 H   0  0  0  0  0  0  0  0  0  0  0  0
   39.7647   23.1056   34.0713 H   0  0  0  0  0  0  0  0  0  0  0  0
   40.8753   22.7072   36.0323 H   0  0  0  0  0  0  0  0  0  0  0  0
   40.7924   22.8223   38.5008 H   0  0  0  0  0  0  0  0  0  0  0  0
   36.6475   23.4839   38.3949 H   0  0  0  0  0  0  0  0  0  0  0  0
  2  1  2  0
  3  2  1  0
  4  5  1  0
  4  3  2  0
  5  6  2  0
  6  1  1  0
  7 12  1  0
  7  5  1  0
  8  7  1  0
  9  8  1  0
  9 10  1  0
 10 11  1  0
 11 12  1  0
 12 13  1  0
 13 14  2  0
 13 18  1  0
 14 15  1  0
 15 16  2  0
 17 16  1  0
 18 17  2  0
  1 19  1  0
  2 20  1  0
  3 21  1  0
  8 22  1  0
  8 23  1  0
  9 24  1  0
  9 25  1  0
 11 26  1  0
 11 27  1  0
 12 28  1  6
 14 29  1  0
 15 30  1  0
 17 31  1  0
M  ISO  8  19  14  20  14  21  14  22  13  23  13  24  13  25  13  26  13
M  ISO  5  27  13  28  13  29  14  30  14  31  14
M  END
>  <minimizedAffinity>  (1) 
-4.95081615

>  <minimizedRMSD>  (1) 
3.73410845

$$$$
