
     RDKit          3D

 39 42  0  0  1  0  0  0  0  0999 V2000
   39.6680   22.8790   37.6560 C   0  0  0  0  0  0  0  0  0  0  0  0
   38.8810   23.2940   38.7440 C   0  0  0  0  0  0  0  0  0  0  0  0
   37.8970   24.2660   38.4980 C   0  0  0  0  0  0  0  0  0  0  0  0
   37.7750   24.7360   37.2290 N   0  0  0  0  0  0  0  0  0  0  0  0
   38.5600   24.3030   36.2130 C   0  0  0  0  0  0  0  0  0  0  0  0
   39.4920   23.3850   36.4380 N   0  0  0  0  0  0  0  0  0  0  0  0
   38.3220   24.8810   34.9400 N   0  0  0  0  0  0  0  0  0  0  0  0
   37.8020   26.2170   34.8200 C   0  0  0  0  0  0  0  0  0  0  0  0
   37.1720   26.4600   33.4910 C   0  0  0  0  0  0  0  0  0  0  0  0
   36.8690   25.2580   32.8460 O   0  0  0  0  0  0  0  0  0  0  0  0
   38.1150   24.6980   32.5040 C   0  0  0  0  0  0  0  0  0  0  0  0
   38.6300   24.0540   33.7720 C   0  0  1  0  0  0  0  0  0  0  0  0
   40.0970   23.9570   33.7440 C   0  0  0  0  0  0  0  0  0  0  0  0
   40.7770   22.7560   33.8600 C   0  0  0  0  0  0  0  0  0  0  0  0
   42.1370   22.6220   33.8380 C   0  0  0  0  0  0  0  0  0  0  0  0
   42.9240   23.7620   33.6900 C   0  0  0  0  0  0  0  0  0  0  0  0
   42.3070   24.9690   33.5730 C   0  0  0  0  0  0  0  0  0  0  0  0
   43.1180   26.0850   33.4270 C   0  0  0  0  0  0  0  0  0  0  0  0
   42.5520   27.3430   33.3020 C   0  0  0  0  0  0  0  0  0  0  0  0
   41.1710   27.4440   33.3280 C   0  0  0  0  0  0  0  0  0  0  0  0
   40.3920   26.3040   33.4760 C   0  0  0  0  0  0  0  0  0  0  0  0
   40.9380   25.0590   33.5990 C   0  0  0  0  0  0  0  0  0  0  0  0
   40.4470   22.1188   37.8149 H   0  0  0  0  0  0  0  0  0  0  0  0
   39.0298   22.8738   39.7496 H   0  0  0  0  0  0  0  0  0  0  0  0
   37.2472   24.6342   39.3056 H   0  0  0  0  0  0  0  0  0  0  0  0
   37.0467   26.3747   35.6040 H   0  0  0  0  0  0  0  0  0  0  0  0
   38.6435   26.9173   34.9274 H   0  0  0  0  0  0  0  0  0  0  0  0
   36.2445   27.0340   33.6336 H   0  0  0  0  0  0  0  0  0  0  0  0
   37.8836   27.0198   32.8663 H   0  0  0  0  0  0  0  0  0  0  0  0
   37.9934   23.9444   31.7120 H   0  0  0  0  0  0  0  0  0  0  0  0
   38.8120   25.4572   32.1196 H   0  0  0  0  0  0  0  0  0  0  0  0
   38.1523   23.0652   33.8356 H   0  0  0  0  0  0  0  0  0  0  0  0
   40.1775   21.8414   33.9787 H   0  0  0  0  0  0  0  0  0  0  0  0
   42.6026   21.6302   33.9356 H   0  0  0  0  0  0  0  0  0  0  0  0
   44.0213   23.6878   33.6682 H   0  0  0  0  0  0  0  0  0  0  0  0
   44.2119   25.9707   33.4105 H   0  0  0  0  0  0  0  0  0  0  0  0
   43.1820   28.2371   33.1853 H   0  0  0  0  0  0  0  0  0  0  0  0
   40.6905   28.4288   33.2313 H   0  0  0  0  0  0  0  0  0  0  0  0
   39.2971   26.4078   33.4948 H   0  0  0  0  0  0  0  0  0  0  0  0
  1  2  2  0
  3  2  1  0
  4  3  2  0
  5  6  2  0
  5  4  1  0
  6  1  1  0
  7  5  1  0
  8  7  1  0
  9  8  1  0
 10  9  1  0
 11 10  1  0
 11 12  1  0
 12  7  1  0
 13 12  1  0
 13 14  2  0
 15 14  1  0
 16 15  2  0
 17 22  2  0
 17 16  1  0
 18 17  1  0
 19 20  1  0
 19 18  2  0
 20 21  2  0
 21 22  1  0
 22 13  1  0
  1 23  1  0
  2 24  1  0
  3 25  1  0
  8 26  1  0
  8 27  1  0
  9 28  1  0
  9 29  1  0
 11 30  1  0
 11 31  1  0
 12 32  1  1
 14 33  1  0
 15 34  1  0
 16 35  1  0
 18 36  1  0
 19 37  1  0
 20 38  1  0
 21 39  1  0
M  ISO  8  23  14  24  14  25  14  26  13  27  13  28  13  29  13  30  13
M  ISO  8  31  13  32  13  33  14  34  14  35  14  36  14  37  14  38  14
M  ISO  1  39  14
M  END
>  <minimizedAffinity>  (1) 
-5.10906506

>  <minimizedRMSD>  (1) 
0.360339165

$$$$
