
     RDKit          3D

 34 37  0  0  1  0  0  0  0  0999 V2000
   40.0130   23.1570   36.8890 C   0  0  0  0  0  0  0  0  0  0  0  0
   39.0370   22.9690   37.8820 C   0  0  0  0  0  0  0  0  0  0  0  0
   37.8340   23.6410   37.7140 C   0  0  0  0  0  0  0  0  0  0  0  0
   37.6420   24.4340   36.6320 N   0  0  0  0  0  0  0  0  0  0  0  0
   38.6190   24.5840   35.6970 C   0  0  0  0  0  0  0  0  0  0  0  0
   39.7780   23.9490   35.8400 N   0  0  0  0  0  0  0  0  0  0  0  0
   38.3640   25.4270   34.5850 N   0  0  0  0  0  0  0  0  0  0  0  0
   37.4370   26.5370   34.7320 C   0  0  0  0  0  0  0  0  0  0  0  0
   36.8480   26.9500   33.4320 C   0  0  0  0  0  0  0  0  0  0  0  0
   37.0220   25.9740   32.4550 O   0  0  0  0  0  0  0  0  0  0  0  0
   38.3890   25.9120   32.1850 C   0  0  0  0  0  0  0  0  0  0  0  0
   39.0220   25.1720   33.3350 C   0  0  2  0  0  0  0  0  0  0  0  0
   39.2640   23.7870   33.0460 N   0  0  0  0  0  0  0  0  0  0  0  0
   40.4400   23.1390   32.9120 C   0  0  0  0  0  0  0  0  0  0  0  0
   40.2580   21.8230   32.6370 N   0  0  0  0  0  0  0  0  0  0  0  0
   38.9520   21.5770   32.5850 C   0  0  0  0  0  0  0  0  0  0  0  0
   38.1020   20.5070   32.3620 C   0  0  0  0  0  0  0  0  0  0  0  0
   36.7460   20.6450   32.3890 N   0  0  0  0  0  0  0  0  0  0  0  0
   36.1950   21.8290   32.6360 C   0  0  0  0  0  0  0  0  0  0  0  0
   37.0020   22.8950   32.8590 N   0  0  0  0  0  0  0  0  0  0  0  0
   38.3550   22.7930   32.8390 C   0  0  0  0  0  0  0  0  0  0  0  0
   40.9828   22.6454   36.9768 H   0  0  0  0  0  0  0  0  0  0  0  0
   39.2176   22.3199   38.7515 H   0  0  0  0  0  0  0  0  0  0  0  0
   37.0344   23.5295   38.4612 H   0  0  0  0  0  0  0  0  0  0  0  0
   36.6247   26.2334   35.4088 H   0  0  0  0  0  0  0  0  0  0  0  0
   37.9959   27.3932   35.1376 H   0  0  0  0  0  0  0  0  0  0  0  0
   35.7714   27.1292   33.5692 H   0  0  0  0  0  0  0  0  0  0  0  0
   37.3603   27.8645   33.0984 H   0  0  0  0  0  0  0  0  0  0  0  0
   38.5657   25.3721   31.2430 H   0  0  0  0  0  0  0  0  0  0  0  0
   38.8181   26.9191   32.0771 H   0  0  0  0  0  0  0  0  0  0  0  0
   40.0297   25.5925   33.4680 H   0  0  0  0  0  0  0  0  0  0  0  0
   41.4247   23.6186   33.0132 H   0  0  0  0  0  0  0  0  0  0  0  0
   38.5336   19.5162   32.1570 H   0  0  0  0  0  0  0  0  0  0  0  0
   35.1011   21.9421   32.6591 H   0  0  0  0  0  0  0  0  0  0  0  0
  1  2  2  0
  3  2  1  0
  4  3  2  0
  5  6  2  0
  5  4  1  0
  6  1  1  0
  7  8  1  0
  7  5  1  0
  9  8  1  0
 10  9  1  0
 11 10  1  0
 11 12  1  0
 12  7  1  0
 13 12  1  0
 14 13  1  0
 15 14  2  0
 16 15  1  0
 16 21  2  0
 17 18  2  0
 17 16  1  0
 18 19  1  0
 19 20  2  0
 21 20  1  0
 21 13  1  0
  1 22  1  0
  2 23  1  0
  3 24  1  0
  8 25  1  0
  8 26  1  0
  9 27  1  0
  9 28  1  0
 11 29  1  0
 11 30  1  0
 12 31  1  1
 14 32  1  0
 17 33  1  0
 19 34  1  0
M  ISO  8  22  14  23  14  24  14  25  13  26  13  27  13  28  13  29  13
M  ISO  5  30  13  31  13  32  14  33  14  34  14
M  END
>  <minimizedAffinity>  (1) 
-4.50246143

>  <minimizedRMSD>  (1) 
2.10947299

$$$$
