
     RDKit          3D

 36 38  0  0  1  0  0  0  0  0999 V2000
   39.6780   22.8110   37.3620 C   0  0  0  0  0  0  0  0  0  0  0  0
   38.8820   23.2600   38.4540 C   0  0  0  0  0  0  0  0  0  0  0  0
   37.8900   24.2210   38.1780 C   0  0  0  0  0  0  0  0  0  0  0  0
   37.7530   24.6540   36.9100 N   0  0  0  0  0  0  0  0  0  0  0  0
   38.5280   24.2030   35.9080 C   0  0  0  0  0  0  0  0  0  0  0  0
   39.4870   23.2850   36.1320 N   0  0  0  0  0  0  0  0  0  0  0  0
   38.3130   24.7170   34.5950 N   0  0  0  0  0  0  0  0  0  0  0  0
   37.8090   26.0710   34.4380 C   0  0  0  0  0  0  0  0  0  0  0  0
   37.1080   26.2650   33.1430 C   0  0  0  0  0  0  0  0  0  0  0  0
   36.7720   25.0400   32.5550 O   0  0  0  0  0  0  0  0  0  0  0  0
   37.9780   24.4360   32.1840 C   0  0  0  0  0  0  0  0  0  0  0  0
   38.5950   23.9000   33.4540 C   0  0  2  0  0  0  0  0  0  0  0  0
   38.3330   22.5000   33.6820 N   0  0  0  0  0  0  0  0  0  0  0  0
   39.3280   21.6280   33.2040 C   0  0  0  0  0  0  0  0  0  0  0  0
   39.0060   20.7570   32.0510 C   0  0  0  0  0  0  0  0  0  0  0  0
   37.6580   20.6110   31.7830 O   0  0  0  0  0  0  0  0  0  0  0  0
   36.9920   20.6530   33.0100 C   0  0  0  0  0  0  0  0  0  0  0  0
   36.9770   22.1200   33.4200 C   0  0  0  0  0  0  0  0  0  0  0  0
   40.4632   22.0607   37.5370 H   0  0  0  0  0  0  0  0  0  0  0  0
   39.0356   22.8721   39.4718 H   0  0  0  0  0  0  0  0  0  0  0  0
   37.2428   24.6085   38.9786 H   0  0  0  0  0  0  0  0  0  0  0  0
   37.1054   26.2837   35.2564 H   0  0  0  0  0  0  0  0  0  0  0  0
   38.6700   26.7552   34.4604 H   0  0  0  0  0  0  0  0  0  0  0  0
   36.1882   26.8426   33.3171 H   0  0  0  0  0  0  0  0  0  0  0  0
   37.7835   26.8023   32.4611 H   0  0  0  0  0  0  0  0  0  0  0  0
   37.7904   23.6151   31.4763 H   0  0  0  0  0  0  0  0  0  0  0  0
   38.6474   25.1540   31.6877 H   0  0  0  0  0  0  0  0  0  0  0  0
   39.6819   23.9620   33.2962 H   0  0  0  0  0  0  0  0  0  0  0  0
   40.1902   22.2463   32.9137 H   0  0  0  0  0  0  0  0  0  0  0  0
   39.4946   20.9264   34.0347 H   0  0  0  0  0  0  0  0  0  0  0  0
   39.4865   21.1830   31.1579 H   0  0  0  0  0  0  0  0  0  0  0  0
   39.3759   19.7546   32.3126 H   0  0  0  0  0  0  0  0  0  0  0  0
   35.9649   20.2742   32.9022 H   0  0  0  0  0  0  0  0  0  0  0  0
   37.4896   20.0255   33.7641 H   0  0  0  0  0  0  0  0  0  0  0  0
   36.5638   22.7345   32.6066 H   0  0  0  0  0  0  0  0  0  0  0  0
   36.3500   22.2702   34.3113 H   0  0  0  0  0  0  0  0  0  0  0  0
  1  2  2  0
  3  2  1  0
  4  3  2  0
  5  6  2  0
  5  4  1  0
  6  1  1  0
  7  5  1  0
  8  7  1  0
  9  8  1  0
 10  9  1  0
 11 10  1  0
 11 12  1  0
 12 13  1  0
 12  7  1  0
 14 13  1  0
 15 14  1  0
 16 15  1  0
 16 17  1  0
 17 18  1  0
 18 13  1  0
  1 19  1  0
  2 20  1  0
  3 21  1  0
  8 22  1  0
  8 23  1  0
  9 24  1  0
  9 25  1  0
 11 26  1  0
 11 27  1  0
 12 28  1  6
 14 29  1  0
 14 30  1  0
 15 31  1  0
 15 32  1  0
 17 33  1  0
 17 34  1  0
 18 35  1  0
 18 36  1  0
M  ISO  8  19  14  20  14  21  14  22  13  23  13  24  13  25  13  26  13
M  ISO  8  27  13  28  13  29  13  30  13  31  13  32  13  33  13  34  13
M  ISO  2  35  13  36  13
M  END
>  <minimizedAffinity>  (1) 
-4.39696884

>  <minimizedRMSD>  (1) 
1.65517187

$$$$
