
     RDKit          3D

 39 41  0  0  1  0  0  0  0  0999 V2000
   39.8100   23.0360   37.3590 C   0  0  0  0  0  0  0  0  0  0  0  0
   38.9460   23.0700   38.4650 C   0  0  0  0  0  0  0  0  0  0  0  0
   37.8760   23.9530   38.4010 C   0  0  0  0  0  0  0  0  0  0  0  0
   37.7090   24.7320   37.2950 N   0  0  0  0  0  0  0  0  0  0  0  0
   38.5750   24.6620   36.2490 C   0  0  0  0  0  0  0  0  0  0  0  0
   39.6000   23.8210   36.3040 N   0  0  0  0  0  0  0  0  0  0  0  0
   38.3180   25.5100   35.1450 N   0  0  0  0  0  0  0  0  0  0  0  0
   37.6730   26.7770   35.3420 C   0  0  0  0  0  0  0  0  0  0  0  0
   36.9930   27.2670   34.0970 C   0  0  0  0  0  0  0  0  0  0  0  0
   36.8530   26.2600   33.1570 O   0  0  0  0  0  0  0  0  0  0  0  0
   38.1490   25.9130   32.7350 C   0  0  0  0  0  0  0  0  0  0  0  0
   38.7120   25.0720   33.8430 C   0  0  1  0  0  0  0  0  0  0  0  0
   40.1780   24.8780   33.6280 C   0  0  0  0  0  0  0  0  0  0  0  0
   40.6800   23.4860   33.8290 C   0  0  0  0  0  0  0  0  0  0  0  0
   42.1770   23.4870   33.8470 C   0  0  0  0  0  0  0  0  0  0  0  0
   42.7430   24.7960   33.3540 C   0  0  0  0  0  0  0  0  0  0  0  0
   42.2910   25.9410   34.2300 C   0  0  0  0  0  0  0  0  0  0  0  0
   40.8700   25.7280   34.7080 C   0  0  0  0  0  0  0  0  0  0  0  0
   40.6716   22.3521   37.3639 H   0  0  0  0  0  0  0  0  0  0  0  0
   39.1091   22.4266   39.3422 H   0  0  0  0  0  0  0  0  0  0  0  0
   37.1667   24.0234   39.2388 H   0  0  0  0  0  0  0  0  0  0  0  0
   36.9213   26.6718   36.1381 H   0  0  0  0  0  0  0  0  0  0  0  0
   38.4459   27.5104   35.6154 H   0  0  0  0  0  0  0  0  0  0  0  0
   35.9956   27.6475   34.3623 H   0  0  0  0  0  0  0  0  0  0  0  0
   37.6151   28.0607   33.6576 H   0  0  0  0  0  0  0  0  0  0  0  0
   38.1086   25.3390   31.7975 H   0  0  0  0  0  0  0  0  0  0  0  0
   38.7682   26.8004   32.5373 H   0  0  0  0  0  0  0  0  0  0  0  0
   38.2626   24.0688   33.8037 H   0  0  0  0  0  0  0  0  0  0  0  0
   40.3864   25.1448   32.5814 H   0  0  0  0  0  0  0  0  0  0  0  0
   40.3031   23.0960   34.7860 H   0  0  0  0  0  0  0  0  0  0  0  0
   40.3261   22.8487   33.0053 H   0  0  0  0  0  0  0  0  0  0  0  0
   42.5207   23.3163   34.8779 H   0  0  0  0  0  0  0  0  0  0  0  0
   42.5273   22.6889   33.1759 H   0  0  0  0  0  0  0  0  0  0  0  0
   43.8416   24.7423   33.3694 H   0  0  0  0  0  0  0  0  0  0  0  0
   42.3821   24.9723   32.3300 H   0  0  0  0  0  0  0  0  0  0  0  0
   42.9575   26.0119   35.1022 H   0  0  0  0  0  0  0  0  0  0  0  0
   42.3281   26.8695   33.6413 H   0  0  0  0  0  0  0  0  0  0  0  0
   40.3564   26.6942   34.8203 H   0  0  0  0  0  0  0  0  0  0  0  0
   40.8468   25.2286   35.6878 H   0  0  0  0  0  0  0  0  0  0  0  0
  1  2  2  0
  3  2  1  0
  4  3  2  0
  5  6  2  0
  5  4  1  0
  6  1  1  0
  7  8  1  0
  7  5  1  0
  9  8  1  0
 10  9  1  0
 11 10  1  0
 11 12  1  0
 12  7  1  0
 13 14  1  0
 13 12  1  0
 13 18  1  0
 14 15  1  0
 16 15  1  0
 16 17  1  0
 17 18  1  0
  1 19  1  0
  2 20  1  0
  3 21  1  0
  8 22  1  0
  8 23  1  0
  9 24  1  0
  9 25  1  0
 11 26  1  0
 11 27  1  0
 12 28  1  6
 13 29  1  0
 14 30  1  0
 14 31  1  0
 15 32  1  0
 15 33  1  0
 16 34  1  0
 16 35  1  0
 17 36  1  0
 17 37  1  0
 18 38  1  0
 18 39  1  0
M  ISO  8  19  14  20  14  21  14  22  13  23  13  24  13  25  13  26  13
M  ISO  8  27  13  28  13  29  13  30  13  31  13  32  13  33  13  34  13
M  ISO  5  35  13  36  13  37  13  38  13  39  13
M  END
>  <minimizedAffinity>  (1) 
-4.34381437

>  <minimizedRMSD>  (1) 
1.14301503

$$$$
