
     RDKit          3D

 30 32  0  0  1  0  0  0  0  0999 V2000
   39.7660   22.9710   37.1220 C   0  0  0  0  0  0  0  0  0  0  0  0
   39.0160   23.1430   38.3200 C   0  0  0  0  0  0  0  0  0  0  0  0
   38.0180   24.1380   38.3160 C   0  0  0  0  0  0  0  0  0  0  0  0
   37.8540   24.8470   37.1750 N   0  0  0  0  0  0  0  0  0  0  0  0
   38.5850   24.6510   36.0670 C   0  0  0  0  0  0  0  0  0  0  0  0
   39.5330   23.7180   36.0450 N   0  0  0  0  0  0  0  0  0  0  0  0
   38.3030   25.4750   34.9390 N   0  0  0  0  0  0  0  0  0  0  0  0
   37.7770   26.8170   35.1370 C   0  0  0  0  0  0  0  0  0  0  0  0
   37.0590   27.2940   33.9240 C   0  0  0  0  0  0  0  0  0  0  0  0
   36.7680   26.2750   33.0420 O   0  0  0  0  0  0  0  0  0  0  0  0
   37.9750   25.8010   32.5370 C   0  0  0  0  0  0  0  0  0  0  0  0
   38.5590   24.9210   33.6180 C   0  0  2  0  0  0  0  0  0  0  0  0
   38.1310   23.5140   33.5100 C   0  0  0  0  0  0  0  0  0  0  0  0
   38.4930   22.8730   32.3190 C   0  0  0  0  0  0  0  0  0  0  0  0
   38.0250   21.5940   32.3830 N   0  0  0  0  0  0  0  0  0  0  0  0
   37.3930   21.4390   33.5700 C   0  0  0  0  0  0  0  0  0  0  0  0
   37.4630   22.6010   34.2400 N   0  0  0  0  0  0  0  0  0  0  0  0
   40.5545   22.2048   37.0856 H   0  0  0  0  0  0  0  0  0  0  0  0
   39.2073   22.5259   39.2102 H   0  0  0  0  0  0  0  0  0  0  0  0
   37.3978   24.3305   39.2039 H   0  0  0  0  0  0  0  0  0  0  0  0
   37.0793   26.8078   35.9874 H   0  0  0  0  0  0  0  0  0  0  0  0
   38.6186   27.4969   35.3355 H   0  0  0  0  0  0  0  0  0  0  0  0
   36.1171   27.7684   34.2366 H   0  0  0  0  0  0  0  0  0  0  0  0
   37.7197   28.0038   33.4048 H   0  0  0  0  0  0  0  0  0  0  0  0
   37.8036   25.2180   31.6201 H   0  0  0  0  0  0  0  0  0  0  0  0
   38.6551   26.6252   32.2758 H   0  0  0  0  0  0  0  0  0  0  0  0
   39.6483   24.9097   33.4656 H   0  0  0  0  0  0  0  0  0  0  0  0
   39.0528   23.3197   31.4841 H   0  0  0  0  0  0  0  0  0  0  0  0
   36.9056   20.5190   33.9250 H   0  0  0  0  0  0  0  0  0  0  0  0
   37.0643   22.7689   35.1747 H   0  0  0  0  0  0  0  0  0  0  0  0
  1  2  2  0
  3  2  1  0
  4  3  2  0
  5  4  1  0
  6  5  2  0
  6  1  1  0
  7  8  1  0
  7  5  1  0
  9  8  1  0
 10  9  1  0
 11 10  1  0
 11 12  1  0
 12  7  1  0
 13 12  1  0
 13 17  1  0
 14 15  1  0
 14 13  2  0
 15 16  2  0
 16 17  1  0
  1 18  1  0
  2 19  1  0
  3 20  1  0
  8 21  1  0
  8 22  1  0
  9 23  1  0
  9 24  1  0
 11 25  1  0
 11 26  1  0
 12 27  1  6
 14 28  1  0
 16 29  1  0
 17 30  1  0
M  ISO  8  18  14  19  14  20  14  21  13  22  13  23  13  24  13  25  13
M  ISO  5  26  13  27  13  28  14  29  14  30   9
M  END
>  <minimizedAffinity>  (1) 
-4.32407808

>  <minimizedRMSD>  (1) 
0.882732034

$$$$
