
     RDKit          3D

 36 39  0  0  1  0  0  0  0  0999 V2000
   40.3760   23.1060   36.7680 C   0  0  0  0  0  0  0  0  0  0  0  0
   39.4840   22.8440   37.8200 C   0  0  0  0  0  0  0  0  0  0  0  0
   38.2650   23.5150   37.7860 C   0  0  0  0  0  0  0  0  0  0  0  0
   38.0000   24.3610   36.7740 N   0  0  0  0  0  0  0  0  0  0  0  0
   38.8920   24.5840   35.7770 C   0  0  0  0  0  0  0  0  0  0  0  0
   40.0600   23.9540   35.7900 N   0  0  0  0  0  0  0  0  0  0  0  0
   38.5350   25.4930   34.7440 N   0  0  0  0  0  0  0  0  0  0  0  0
   37.6190   26.5870   35.0340 C   0  0  0  0  0  0  0  0  0  0  0  0
   36.9140   27.0520   33.8070 C   0  0  0  0  0  0  0  0  0  0  0  0
   37.0140   26.1290   32.7710 O   0  0  0  0  0  0  0  0  0  0  0  0
   38.3580   26.1140   32.3760 C   0  0  0  0  0  0  0  0  0  0  0  0
   39.0910   25.3120   33.4260 C   0  0  2  0  0  0  0  0  0  0  0  0
   39.3220   23.9520   33.0540 N   0  0  0  0  0  0  0  0  0  0  0  0
   40.5210   23.3700   32.7610 C   0  0  0  0  0  0  0  0  0  0  0  0
   40.4150   22.0880   32.4490 N   0  0  0  0  0  0  0  0  0  0  0  0
   39.1290   21.7560   32.5220 C   0  0  0  0  0  0  0  0  0  0  0  0
   38.4510   20.5950   32.3110 C   0  0  0  0  0  0  0  0  0  0  0  0
   37.1060   20.5570   32.4660 N   0  0  0  0  0  0  0  0  0  0  0  0
   36.4670   21.7070   32.8340 C   0  0  0  0  0  0  0  0  0  0  0  0
   37.1200   22.8670   33.0480 N   0  0  0  0  0  0  0  0  0  0  0  0
   38.4620   22.9120   32.8950 C   0  0  0  0  0  0  0  0  0  0  0  0
   39.1980   19.4450   31.9290 N   0  0  0  0  0  0  0  0  0  0  0  0
   41.3536   22.6020   36.7508 H   0  0  0  0  0  0  0  0  0  0  0  0
   39.7357   22.1438   38.6302 H   0  0  0  0  0  0  0  0  0  0  0  0
   37.5227   23.3546   38.5818 H   0  0  0  0  0  0  0  0  0  0  0  0
   36.8730   26.2435   35.7658 H   0  0  0  0  0  0  0  0  0  0  0  0
   38.2038   27.4283   35.4344 H   0  0  0  0  0  0  0  0  0  0  0  0
   35.8511   27.2066   34.0444 H   0  0  0  0  0  0  0  0  0  0  0  0
   37.3863   27.9888   33.4763 H   0  0  0  0  0  0  0  0  0  0  0  0
   38.4614   25.6377   31.3899 H   0  0  0  0  0  0  0  0  0  0  0  0
   38.7644   27.1326   32.2901 H   0  0  0  0  0  0  0  0  0  0  0  0
   40.1049   25.7346   33.4849 H   0  0  0  0  0  0  0  0  0  0  0  0
   41.4784   23.9113   32.7820 H   0  0  0  0  0  0  0  0  0  0  0  0
   35.3746   21.6857   32.9610 H   0  0  0  0  0  0  0  0  0  0  0  0
   40.2203   19.5078   31.8198 H   0  0  0  0  0  0  0  0  0  0  0  0
   38.7162   18.5501   31.7618 H   0  0  0  0  0  0  0  0  0  0  0  0
  1  2  2  0
  3  2  1  0
  4  3  2  0
  5  6  2  0
  5  4  1  0
  6  1  1  0
  7  8  1  0
  7  5  1  0
  9  8  1  0
 10  9  1  0
 11 10  1  0
 11 12  1  0
 12  7  1  0
 13 12  1  0
 14 13  1  0
 15 16  1  0
 15 14  2  0
 16 21  2  0
 17 18  2  0
 17 16  1  0
 18 19  1  0
 19 20  2  0
 21 20  1  0
 21 13  1  0
 22 17  1  0
  1 23  1  0
  2 24  1  0
  3 25  1  0
  8 26  1  0
  8 27  1  0
  9 28  1  0
  9 29  1  0
 11 30  1  0
 11 31  1  0
 12 32  1  1
 14 33  1  0
 19 34  1  0
 22 35  1  0
 22 36  1  0
M  ISO  8  23  14  24  14  25  14  26  13  27  13  28  13  29  13  30  13
M  ISO  4  31  13  32  13  33  14  34  14
M  END
>  <minimizedAffinity>  (1) 
-4.6525898

>  <minimizedRMSD>  (1) 
1.6565733

$$$$
