
     RDKit          3D

 34 36  0  0  1  0  0  0  0  0999 V2000
   39.8010   22.9790   37.3720 C   0  0  0  0  0  0  0  0  0  0  0  0
   38.9370   23.0550   38.5010 C   0  0  0  0  0  0  0  0  0  0  0  0
   37.8810   23.9740   38.4430 C   0  0  0  0  0  0  0  0  0  0  0  0
   37.7580   24.7230   37.3190 N   0  0  0  0  0  0  0  0  0  0  0  0
   38.6060   24.6150   36.2660 C   0  0  0  0  0  0  0  0  0  0  0  0
   39.6140   23.7480   36.3040 N   0  0  0  0  0  0  0  0  0  0  0  0
   38.3460   25.4670   35.1610 N   0  0  0  0  0  0  0  0  0  0  0  0
   37.6990   26.7320   35.3310 C   0  0  0  0  0  0  0  0  0  0  0  0
   37.0380   27.2000   34.0650 C   0  0  0  0  0  0  0  0  0  0  0  0
   36.9220   26.1820   33.1300 O   0  0  0  0  0  0  0  0  0  0  0  0
   38.2160   25.8370   32.7330 C   0  0  0  0  0  0  0  0  0  0  0  0
   38.7680   24.9930   33.8480 C   0  0  1  0  0  0  0  0  0  0  0  0
   40.2230   24.9040   33.7740 N   0  0  0  0  0  0  0  0  0  0  0  0
   40.6990   23.6810   33.4050 C   0  0  0  0  0  0  0  0  0  0  0  0
   42.0680   23.4610   33.2970 C   0  0  0  0  0  0  0  0  0  0  0  0
   42.9340   24.4930   33.5670 C   0  0  0  0  0  0  0  0  0  0  0  0
   44.3580   24.3960   33.4920 N   0  0  0  0  0  0  0  0  0  0  0  0
   42.4140   25.6890   33.9280 N   0  0  0  0  0  0  0  0  0  0  0  0
   41.1000   25.8900   34.0290 C   0  0  0  0  0  0  0  0  0  0  0  0
   40.5850   26.9880   34.3630 O   0  0  0  0  0  0  0  0  0  0  0  0
   40.6410   22.2689   37.3837 H   0  0  0  0  0  0  0  0  0  0  0  0
   39.0924   22.4175   39.3839 H   0  0  0  0  0  0  0  0  0  0  0  0
   37.1760   24.0842   39.2802 H   0  0  0  0  0  0  0  0  0  0  0  0
   36.9350   26.6376   36.1168 H   0  0  0  0  0  0  0  0  0  0  0  0
   38.4649   27.4713   35.6081 H   0  0  0  0  0  0  0  0  0  0  0  0
   36.0328   27.5752   34.3074 H   0  0  0  0  0  0  0  0  0  0  0  0
   37.6647   27.9915   33.6282 H   0  0  0  0  0  0  0  0  0  0  0  0
   38.1900   25.2642   31.7942 H   0  0  0  0  0  0  0  0  0  0  0  0
   38.8367   26.7264   32.5493 H   0  0  0  0  0  0  0  0  0  0  0  0
   38.3518   23.9834   33.7159 H   0  0  0  0  0  0  0  0  0  0  0  0
   39.9956   22.8627   33.1913 H   0  0  0  0  0  0  0  0  0  0  0  0
   42.4523   22.4742   32.9995 H   0  0  0  0  0  0  0  0  0  0  0  0
   44.9422   25.2158   33.7099 H   0  0  0  0  0  0  0  0  0  0  0  0
   44.8000   23.5063   33.2200 H   0  0  0  0  0  0  0  0  0  0  0  0
  1  2  2  0
  3  2  1  0
  4  3  2  0
  5  6  2  0
  5  4  1  0
  6  1  1  0
  7  8  1  0
  7  5  1  0
  9  8  1  0
 10  9  1  0
 11 10  1  0
 11 12  1  0
 12  7  1  0
 13 12  1  0
 13 19  1  0
 14 13  1  0
 15 14  2  0
 15 16  1  0
 16 18  2  0
 17 16  1  0
 18 19  1  0
 19 20  2  0
  1 21  1  0
  2 22  1  0
  3 23  1  0
  8 24  1  0
  8 25  1  0
  9 26  1  0
  9 27  1  0
 11 28  1  0
 11 29  1  0
 12 30  1  6
 14 31  1  0
 15 32  1  0
 17 33  1  0
 17 34  1  0
M  ISO  8  21  14  22  14  23  14  24  13  25  13  26  13  27  13  28  13
M  ISO  4  29  13  30  13  31  14  32  14
M  END
>  <minimizedAffinity>  (1) 
-4.46758366

>  <minimizedRMSD>  (1) 
1.38400769

$$$$
