
     RDKit          3D

 39 41  0  0  0  0  0  0  0  0999 V2000
   38.6020   23.9320   36.9630 C   0  0  0  0  0  0  0  0  0  0  0  0
   39.7840   23.2920   36.5440 C   0  0  0  0  0  0  0  0  0  0  0  0
   40.3630   23.7320   35.3280 C   0  0  0  0  0  0  0  0  0  0  0  0
   39.7520   24.7250   34.6580 N   0  0  0  0  0  0  0  0  0  0  0  0
   38.6170   25.3220   35.0850 C   0  0  0  0  0  0  0  0  0  0  0  0
   38.0440   24.9340   36.2260 N   0  0  0  0  0  0  0  0  0  0  0  0
   37.9610   26.3770   34.3810 N   0  0  0  0  0  0  0  0  0  0  0  0
   37.0700   27.2290   34.9050 C   0  0  0  0  0  0  0  0  0  0  0  0
   36.5220   28.1910   34.1140 C   0  0  0  0  0  0  0  0  0  0  0  0
   36.8810   28.2780   32.8040 C   0  0  0  0  0  0  0  0  0  0  0  0
   36.4040   29.1540   32.0190 O   0  0  0  0  0  0  0  0  0  0  0  0
   37.7870   27.4100   32.2770 N   0  0  0  0  0  0  0  0  0  0  0  0
   38.3170   26.4660   33.0780 C   0  0  0  0  0  0  0  0  0  0  0  0
   39.1560   25.6900   32.5210 O   0  0  0  0  0  0  0  0  0  0  0  0
   38.1680   27.5080   30.8750 C   0  0  0  0  0  0  0  0  0  0  0  0
   39.5710   28.0080   30.6630 C   0  0  0  0  0  0  0  0  0  0  0  0
   39.7930   27.9290   29.1480 C   0  0  0  0  0  0  0  0  0  0  0  0
   38.9030   29.0370   28.5720 C   0  0  0  0  0  0  0  0  0  0  0  0
   37.4600   28.6350   28.7460 C   0  0  0  0  0  0  0  0  0  0  0  0
   37.1080   28.2760   30.1510 C   0  0  0  0  0  0  0  0  0  0  0  0
   37.9460   23.5080   38.2420 C   0  0  0  0  0  0  0  0  0  0  0  0
   38.8800   22.8750   39.0850 F   0  0  0  0  0  0  0  0  0  0  0  0
   37.4770   24.6190   38.9290 F   0  0  0  0  0  0  0  0  0  0  0  0
   36.9170   22.6500   37.9500 F   0  0  0  0  0  0  0  0  0  0  0  0
   40.2389   22.4842   37.1360 H   0  0  0  0  0  0  0  0  0  0  0  0
   41.2862   23.2743   34.9429 H   0  0  0  0  0  0  0  0  0  0  0  0
   36.7841   27.1517   35.9644 H   0  0  0  0  0  0  0  0  0  0  0  0
   35.7900   28.8973   34.5326 H   0  0  0  0  0  0  0  0  0  0  0  0
   38.2168   26.4999   30.4375 H   0  0  0  0  0  0  0  0  0  0  0  0
   39.6695   29.0455   31.0150 H   0  0  0  0  0  0  0  0  0  0  0  0
   40.3107   27.4155   31.2214 H   0  0  0  0  0  0  0  0  0  0  0  0
   40.8492   28.1100   28.8997 H   0  0  0  0  0  0  0  0  0  0  0  0
   39.5449   26.9382   28.7397 H   0  0  0  0  0  0  0  0  0  0  0  0
   39.1238   29.1713   27.5028 H   0  0  0  0  0  0  0  0  0  0  0  0
   39.0950   29.9841   29.0974 H   0  0  0  0  0  0  0  0  0  0  0  0
   36.8239   29.4755   28.4315 H   0  0  0  0  0  0  0  0  0  0  0  0
   37.2977   27.7369   28.1319 H   0  0  0  0  0  0  0  0  0  0  0  0
   36.9165   29.2060   30.7064 H   0  0  0  0  0  0  0  0  0  0  0  0
   36.2262   27.6206   30.0968 H   0  0  0  0  0  0  0  0  0  0  0  0
  1 21  1  0
  2  1  2  0
  3  2  1  0
  4  5  1  0
  4  3  2  0
  5  6  2  0
  6  1  1  0
  7  8  1  0
  7  5  1  0
  9  8  2  0
 10  9  1  0
 11 10  2  0
 12 10  1  0
 12 13  1  0
 13  7  1  0
 14 13  2  0
 15 12  1  0
 16 15  1  0
 17 16  1  0
 18 19  1  0
 18 17  1  0
 19 20  1  0
 20 15  1  0
 21 23  1  0
 21 22  1  0
 24 21  1  0
  2 25  1  0
  3 26  1  0
  8 27  1  0
  9 28  1  0
 15 29  1  0
 16 30  1  0
 16 31  1  0
 17 32  1  0
 17 33  1  0
 18 34  1  0
 18 35  1  0
 19 36  1  0
 19 37  1  0
 20 38  1  0
 20 39  1  0
M  ISO  8  25  14  26  14  27  14  28  14  29  13  30  13  31  13  32  13
M  ISO  7  33  13  34  13  35  13  36  13  37  13  38  13  39  13
M  END
>  <minimizedAffinity>  (1) 
-5.82784986

>  <minimizedRMSD>  (1) 
1.87652457

$$$$
