
     RDKit          3D

 33 35  0  0  1  0  0  0  0  0999 V2000
   39.6840   22.8740   37.6470 C   0  0  0  0  0  0  0  0  0  0  0  0
   38.8800   23.3240   38.7100 C   0  0  0  0  0  0  0  0  0  0  0  0
   37.9060   24.2770   38.4180 C   0  0  0  0  0  0  0  0  0  0  0  0
   37.7840   24.7160   37.1430 N   0  0  0  0  0  0  0  0  0  0  0  0
   38.5900   24.2470   36.1510 C   0  0  0  0  0  0  0  0  0  0  0  0
   39.5320   23.3350   36.3930 N   0  0  0  0  0  0  0  0  0  0  0  0
   38.3570   24.7890   34.8510 N   0  0  0  0  0  0  0  0  0  0  0  0
   37.9270   26.1410   34.6800 C   0  0  0  0  0  0  0  0  0  0  0  0
   37.2360   26.3530   33.3730 C   0  0  0  0  0  0  0  0  0  0  0  0
   36.8770   25.1470   32.7710 O   0  0  0  0  0  0  0  0  0  0  0  0
   38.0820   24.4980   32.4310 C   0  0  0  0  0  0  0  0  0  0  0  0
   38.5760   23.9110   33.7330 C   0  0  1  0  0  0  0  0  0  0  0  0
   39.9740   23.4270   33.6520 C   0  0  0  0  0  0  0  0  0  0  0  0
   41.0720   24.2650   33.6150 C   0  0  0  0  0  0  0  0  0  0  0  0
   42.3780   23.8650   33.5410 C   0  0  0  0  0  0  0  0  0  0  0  0
   42.5800   22.4840   33.5020 C   0  0  0  0  0  0  0  0  0  0  0  0
   41.5000   21.6000   33.5380 C   0  0  0  0  0  0  0  0  0  0  0  0
   40.2170   22.0610   33.6120 C   0  0  0  0  0  0  0  0  0  0  0  0
   40.4610   22.1218   37.8478 H   0  0  0  0  0  0  0  0  0  0  0  0
   39.0148   22.9388   39.7315 H   0  0  0  0  0  0  0  0  0  0  0  0
   37.2481   24.6656   39.2093 H   0  0  0  0  0  0  0  0  0  0  0  0
   37.2323   26.3972   35.4935 H   0  0  0  0  0  0  0  0  0  0  0  0
   38.8195   26.7837   34.6979 H   0  0  0  0  0  0  0  0  0  0  0  0
   36.3274   26.9490   33.5440 H   0  0  0  0  0  0  0  0  0  0  0  0
   37.9328   26.8747   32.7005 H   0  0  0  0  0  0  0  0  0  0  0  0
   37.9009   23.7047   31.6908 H   0  0  0  0  0  0  0  0  0  0  0  0
   38.8128   25.1836   31.9773 H   0  0  0  0  0  0  0  0  0  0  0  0
   37.9596   23.0188   33.9174 H   0  0  0  0  0  0  0  0  0  0  0  0
   40.8792   25.3475   33.6479 H   0  0  0  0  0  0  0  0  0  0  0  0
   43.2118   24.5820   33.5141 H   0  0  0  0  0  0  0  0  0  0  0  0
   43.6041   22.0871   33.4421 H   0  0  0  0  0  0  0  0  0  0  0  0
   41.6855   20.5162   33.5063 H   0  0  0  0  0  0  0  0  0  0  0  0
   39.3773   21.3510   33.6399 H   0  0  0  0  0  0  0  0  0  0  0  0
  1  2  2  0
  3  2  1  0
  4  3  2  0
  5  6  2  0
  5  4  1  0
  6  1  1  0
  7  5  1  0
  8  7  1  0
  9  8  1  0
 10  9  1  0
 11 10  1  0
 11 12  1  0
 12  7  1  0
 13 12  1  0
 14 13  2  0
 15 14  1  0
 16 17  1  0
 16 15  2  0
 17 18  2  0
 18 13  1  0
  1 19  1  0
  2 20  1  0
  3 21  1  0
  8 22  1  0
  8 23  1  0
  9 24  1  0
  9 25  1  0
 11 26  1  0
 11 27  1  0
 12 28  1  1
 14 29  1  0
 15 30  1  0
 16 31  1  0
 17 32  1  0
 18 33  1  0
M  ISO  8  19  14  20  14  21  14  22  13  23  13  24  13  25  13  26  13
M  ISO  7  27  13  28  13  29  14  30  14  31  14  32  14  33  14
M  END
>  <minimizedAffinity>  (1) 
-4.18917656

>  <minimizedRMSD>  (1) 
0.111607425

$$$$
