
     RDKit          3D

 30 32  0  0  1  0  0  0  0  0999 V2000
   40.0250   22.9850   37.1810 C   0  0  0  0  0  0  0  0  0  0  0  0
   39.1820   23.0310   38.3270 C   0  0  0  0  0  0  0  0  0  0  0  0
   38.0790   23.8770   38.2600 C   0  0  0  0  0  0  0  0  0  0  0  0
   37.8680   24.5980   37.1310 N   0  0  0  0  0  0  0  0  0  0  0  0
   38.6880   24.5260   36.0710 C   0  0  0  0  0  0  0  0  0  0  0  0
   39.7600   23.7200   36.1040 N   0  0  0  0  0  0  0  0  0  0  0  0
   38.3910   25.3180   34.9280 N   0  0  0  0  0  0  0  0  0  0  0  0
   37.6940   26.5780   35.1080 C   0  0  0  0  0  0  0  0  0  0  0  0
   36.9880   26.9960   33.8680 C   0  0  0  0  0  0  0  0  0  0  0  0
   36.8810   25.9700   32.9480 O   0  0  0  0  0  0  0  0  0  0  0  0
   38.1830   25.6720   32.5190 C   0  0  0  0  0  0  0  0  0  0  0  0
   38.7920   24.8390   33.6260 C   0  0  2  0  0  0  0  0  0  0  0  0
   38.5080   23.3890   33.4370 C   0  0  0  0  0  0  0  0  0  0  0  0
   39.3040   22.4070   32.9090 C   0  0  0  0  0  0  0  0  0  0  0  0
   38.6160   21.2000   32.9350 C   0  0  0  0  0  0  0  0  0  0  0  0
   37.3910   21.5310   33.5000 C   0  0  0  0  0  0  0  0  0  0  0  0
   37.3710   22.7930   33.7730 O   0  0  0  0  0  0  0  0  0  0  0  0
   40.9097   22.3313   37.1858 H   0  0  0  0  0  0  0  0  0  0  0  0
   39.3921   22.4272   39.2221 H   0  0  0  0  0  0  0  0  0  0  0  0
   37.3875   23.9597   39.1115 H   0  0  0  0  0  0  0  0  0  0  0  0
   36.9575   26.4659   35.9174 H   0  0  0  0  0  0  0  0  0  0  0  0
   38.4375   27.3495   35.3568 H   0  0  0  0  0  0  0  0  0  0  0  0
   35.9769   27.3366   34.1356 H   0  0  0  0  0  0  0  0  0  0  0  0
   37.5765   27.8010   33.4037 H   0  0  0  0  0  0  0  0  0  0  0  0
   38.1570   25.1019   31.5786 H   0  0  0  0  0  0  0  0  0  0  0  0
   38.7676   26.5833   32.3249 H   0  0  0  0  0  0  0  0  0  0  0  0
   39.8847   24.9536   33.5718 H   0  0  0  0  0  0  0  0  0  0  0  0
   40.3249   22.5510   32.5256 H   0  0  0  0  0  0  0  0  0  0  0  0
   38.9605   20.2142   32.5894 H   0  0  0  0  0  0  0  0  0  0  0  0
   36.5661   20.8275   33.6860 H   0  0  0  0  0  0  0  0  0  0  0  0
  1  2  2  0
  3  2  1  0
  4  3  2  0
  5  6  2  0
  5  4  1  0
  6  1  1  0
  7  8  1  0
  7  5  1  0
  9  8  1  0
 10  9  1  0
 11 10  1  0
 11 12  1  0
 12  7  1  0
 13 12  1  0
 13 17  1  0
 14 15  1  0
 14 13  2  0
 15 16  2  0
 16 17  1  0
  1 18  1  0
  2 19  1  0
  3 20  1  0
  8 21  1  0
  8 22  1  0
  9 23  1  0
  9 24  1  0
 11 25  1  0
 11 26  1  0
 12 27  1  1
 14 28  1  0
 15 29  1  0
 16 30  1  0
M  ISO  8  18  14  19  14  20  14  21  13  22  13  23  13  24  13  25  13
M  ISO  5  26  13  27  13  28  14  29  14  30  14
M  END
>  <minimizedAffinity>  (1) 
-4.27070427

>  <minimizedRMSD>  (1) 
0.937952638

$$$$
