
     RDKit          3D

 33 35  0  0  1  0  0  0  0  0999 V2000
   40.2060   23.0130   36.8760 C   0  0  0  0  0  0  0  0  0  0  0  0
   39.4010   22.9080   38.0230 C   0  0  0  0  0  0  0  0  0  0  0  0
   38.2630   23.7360   38.0780 C   0  0  0  0  0  0  0  0  0  0  0  0
   38.0100   24.5700   37.0470 N   0  0  0  0  0  0  0  0  0  0  0  0
   38.8220   24.6310   35.9610 C   0  0  0  0  0  0  0  0  0  0  0  0
   39.9050   23.8640   35.8760 N   0  0  0  0  0  0  0  0  0  0  0  0
   38.4580   25.5490   34.9290 N   0  0  0  0  0  0  0  0  0  0  0  0
   37.7450   26.7610   35.2450 C   0  0  0  0  0  0  0  0  0  0  0  0
   36.9460   27.2390   34.0670 C   0  0  0  0  0  0  0  0  0  0  0  0
   36.8420   26.2960   33.0670 O   0  0  0  0  0  0  0  0  0  0  0  0
   38.1260   26.0570   32.5550 C   0  0  0  0  0  0  0  0  0  0  0  0
   38.8340   25.2090   33.5670 C   0  0  2  0  0  0  0  0  0  0  0  0
   38.6780   23.7440   33.3170 C   0  0  0  0  0  0  0  0  0  0  0  0
   37.5420   23.0150   33.5980 C   0  0  0  0  0  0  0  0  0  0  0  0
   37.4040   21.6830   33.3680 C   0  0  0  0  0  0  0  0  0  0  0  0
   38.5110   21.0420   32.8100 C   0  0  0  0  0  0  0  0  0  0  0  0
   39.6930   21.6970   32.4960 C   0  0  0  0  0  0  0  0  0  0  0  0
   39.7590   23.0520   32.7590 C   0  0  0  0  0  0  0  0  0  0  0  0
   41.1048   22.3843   36.7926 H   0  0  0  0  0  0  0  0  0  0  0  0
   39.6478   22.2125   38.8387 H   0  0  0  0  0  0  0  0  0  0  0  0
   37.5905   23.7036   38.9479 H   0  0  0  0  0  0  0  0  0  0  0  0
   37.0640   26.5684   36.0871 H   0  0  0  0  0  0  0  0  0  0  0  0
   38.4765   27.5384   35.5105 H   0  0  0  0  0  0  0  0  0  0  0  0
   35.9338   27.4971   34.4118 H   0  0  0  0  0  0  0  0  0  0  0  0
   37.4710   28.1087   33.6451 H   0  0  0  0  0  0  0  0  0  0  0  0
   38.0595   25.5264   31.5937 H   0  0  0  0  0  0  0  0  0  0  0  0
   38.6656   26.9987   32.3763 H   0  0  0  0  0  0  0  0  0  0  0  0
   39.9027   25.4397   33.4463 H   0  0  0  0  0  0  0  0  0  0  0  0
   36.6876   23.5491   34.0393 H   0  0  0  0  0  0  0  0  0  0  0  0
   36.4761   21.1427   33.6071 H   0  0  0  0  0  0  0  0  0  0  0  0
   38.4429   19.9627   32.6090 H   0  0  0  0  0  0  0  0  0  0  0  0
   40.5447   21.1586   32.0548 H   0  0  0  0  0  0  0  0  0  0  0  0
   40.6834   23.5999   32.5241 H   0  0  0  0  0  0  0  0  0  0  0  0
  1  2  2  0
  2  3  1  0
  4  3  2  0
  5  4  1  0
  6  5  2  0
  6  1  1  0
  7  8  1  0
  7  5  1  0
  9  8  1  0
 10  9  1  0
 11 10  1  0
 11 12  1  0
 12  7  1  0
 13 12  1  0
 13 14  2  0
 15 14  1  0
 16 15  2  0
 17 18  2  0
 17 16  1  0
 18 13  1  0
  1 19  1  0
  2 20  1  0
  3 21  1  0
  8 22  1  0
  8 23  1  0
  9 24  1  0
  9 25  1  0
 11 26  1  0
 11 27  1  0
 12 28  1  1
 14 29  1  0
 15 30  1  0
 16 31  1  0
 17 32  1  0
 18 33  1  0
M  ISO  8  19  14  20  14  21  14  22  13  23  13  24  13  25  13  26  13
M  ISO  7  27  13  28  13  29  14  30  14  31  14  32  14  33  14
M  END
>  <minimizedAffinity>  (1) 
-4.22291994

>  <minimizedRMSD>  (1) 
1.28065991

$$$$
