
     RDKit          3D

 30 32  0  0  1  0  0  0  0  0999 V2000
   39.6960   22.8870   37.6130 C   0  0  0  0  0  0  0  0  0  0  0  0
   38.8900   23.3020   38.7120 C   0  0  0  0  0  0  0  0  0  0  0  0
   37.9020   24.2610   38.4640 C   0  0  0  0  0  0  0  0  0  0  0  0
   37.7900   24.7200   37.1960 N   0  0  0  0  0  0  0  0  0  0  0  0
   38.5660   24.3090   36.1830 C   0  0  0  0  0  0  0  0  0  0  0  0
   39.5100   23.4000   36.3890 N   0  0  0  0  0  0  0  0  0  0  0  0
   38.3320   24.8800   34.9070 N   0  0  0  0  0  0  0  0  0  0  0  0
   37.8190   26.2350   34.8000 C   0  0  0  0  0  0  0  0  0  0  0  0
   37.1190   26.4630   33.5000 C   0  0  0  0  0  0  0  0  0  0  0  0
   36.8770   25.2930   32.8160 O   0  0  0  0  0  0  0  0  0  0  0  0
   38.1290   24.7310   32.4690 C   0  0  0  0  0  0  0  0  0  0  0  0
   38.6200   24.0790   33.7250 C   0  0  1  0  0  0  0  0  0  0  0  0
   40.1100   23.8340   33.6660 C   0  0  0  0  0  0  0  0  0  0  0  0
   41.0950   24.7940   33.6810 C   0  0  0  0  0  0  0  0  0  0  0  0
   42.3750   24.3750   33.6200 C   0  0  0  0  0  0  0  0  0  0  0  0
   42.7110   23.0340   33.5460 C   0  0  0  0  0  0  0  0  0  0  0  0
   40.9770   22.2360   33.5620 S   0  0  0  0  0  0  0  0  0  0  0  0
   40.4825   22.1345   37.7714 H   0  0  0  0  0  0  0  0  0  0  0  0
   39.0390   22.8838   39.7184 H   0  0  0  0  0  0  0  0  0  0  0  0
   37.2439   24.6265   39.2661 H   0  0  0  0  0  0  0  0  0  0  0  0
   37.1101   26.4131   35.6220 H   0  0  0  0  0  0  0  0  0  0  0  0
   38.6713   26.9283   34.8552 H   0  0  0  0  0  0  0  0  0  0  0  0
   36.1579   26.9594   33.6998 H   0  0  0  0  0  0  0  0  0  0  0  0
   37.7749   27.0853   32.8734 H   0  0  0  0  0  0  0  0  0  0  0  0
   38.0105   23.9870   31.6675 H   0  0  0  0  0  0  0  0  0  0  0  0
   38.8329   25.4881   32.0929 H   0  0  0  0  0  0  0  0  0  0  0  0
   38.0842   23.1214   33.8019 H   0  0  0  0  0  0  0  0  0  0  0  0
   40.8475   25.8641   33.7406 H   0  0  0  0  0  0  0  0  0  0  0  0
   43.1801   25.1245   33.6293 H   0  0  0  0  0  0  0  0  0  0  0  0
   43.7022   22.5599   33.4928 H   0  0  0  0  0  0  0  0  0  0  0  0
  1  2  2  0
  3  2  1  0
  4  3  2  0
  5  6  2  0
  5  4  1  0
  6  1  1  0
  7  5  1  0
  8  7  1  0
  9  8  1  0
 10  9  1  0
 11 10  1  0
 11 12  1  0
 12  7  1  0
 13 14  2  0
 13 12  1  0
 15 14  1  0
 16 17  1  0
 16 15  2  0
 17 13  1  0
  1 18  1  0
  2 19  1  0
  3 20  1  0
  8 21  1  0
  8 22  1  0
  9 23  1  0
  9 24  1  0
 11 25  1  0
 11 26  1  0
 12 27  1  1
 14 28  1  0
 15 29  1  0
 16 30  1  0
M  ISO  8  18  14  19  14  20  14  21  13  22  13  23  13  24  13  25  13
M  ISO  5  26  13  27  13  28  14  29  14  30  14
M  END
>  <minimizedAffinity>  (1) 
-4.13854122

>  <minimizedRMSD>  (1) 
0.243117183

$$$$
