
     RDKit          3D

 30 32  0  0  1  0  0  0  0  0999 V2000
   39.7110   22.9040   37.5390 C   0  0  0  0  0  0  0  0  0  0  0  0
   38.9210   23.2380   38.6750 C   0  0  0  0  0  0  0  0  0  0  0  0
   37.9490   24.2170   38.5060 C   0  0  0  0  0  0  0  0  0  0  0  0
   37.8210   24.7790   37.2810 N   0  0  0  0  0  0  0  0  0  0  0  0
   38.5790   24.4440   36.2270 C   0  0  0  0  0  0  0  0  0  0  0  0
   39.5140   23.5110   36.3700 N   0  0  0  0  0  0  0  0  0  0  0  0
   38.3520   25.1030   34.9930 N   0  0  0  0  0  0  0  0  0  0  0  0
   37.8230   26.4570   35.0020 C   0  0  0  0  0  0  0  0  0  0  0  0
   37.1470   26.8010   33.7220 C   0  0  0  0  0  0  0  0  0  0  0  0
   36.8630   25.6800   32.9700 O   0  0  0  0  0  0  0  0  0  0  0  0
   38.1000   25.1390   32.5630 C   0  0  0  0  0  0  0  0  0  0  0  0
   38.6520   24.4160   33.7630 C   0  0  1  0  0  0  0  0  0  0  0  0
   40.0850   24.2720   33.5250 N   0  0  0  0  0  0  0  0  0  0  0  0
   41.0480   25.1490   33.7360 N   0  0  0  0  0  0  0  0  0  0  0  0
   42.2480   24.6470   33.3930 C   0  0  0  0  0  0  0  0  0  0  0  0
   41.9720   23.3700   32.9430 C   0  0  0  0  0  0  0  0  0  0  0  0
   40.6160   23.1490   33.0310 C   0  0  0  0  0  0  0  0  0  0  0  0
   40.4932   22.1357   37.6276 H   0  0  0  0  0  0  0  0  0  0  0  0
   39.0733   22.7425   39.6452 H   0  0  0  0  0  0  0  0  0  0  0  0
   37.3037   24.5256   39.3417 H   0  0  0  0  0  0  0  0  0  0  0  0
   37.0965   26.5488   35.8229 H   0  0  0  0  0  0  0  0  0  0  0  0
   38.6666   27.1499   35.1371 H   0  0  0  0  0  0  0  0  0  0  0  0
   36.2066   27.3254   33.9468 H   0  0  0  0  0  0  0  0  0  0  0  0
   37.8281   27.4379   33.1385 H   0  0  0  0  0  0  0  0  0  0  0  0
   37.9543   24.4379   31.7280 H   0  0  0  0  0  0  0  0  0  0  0  0
   38.7875   25.9236   32.2140 H   0  0  0  0  0  0  0  0  0  0  0  0
   38.1838   23.4281   33.8850 H   0  0  0  0  0  0  0  0  0  0  0  0
   43.2284   25.1418   33.4565 H   0  0  0  0  0  0  0  0  0  0  0  0
   42.7150   22.6474   32.5744 H   0  0  0  0  0  0  0  0  0  0  0  0
   40.0772   22.2318   32.7509 H   0  0  0  0  0  0  0  0  0  0  0  0
  1  2  2  0
  3  2  1  0
  4  3  2  0
  5  6  2  0
  5  4  1  0
  6  1  1  0
  7  8  1  0
  7  5  1  0
  9  8  1  0
 10  9  1  0
 11 10  1  0
 11 12  1  0
 12  7  1  0
 13 14  1  0
 13 12  1  0
 15 14  2  0
 16 17  2  0
 16 15  1  0
 17 13  1  0
  1 18  1  0
  2 19  1  0
  3 20  1  0
  8 21  1  0
  8 22  1  0
  9 23  1  0
  9 24  1  0
 11 25  1  0
 11 26  1  0
 12 27  1  1
 15 28  1  0
 16 29  1  0
 17 30  1  0
M  ISO  8  18  14  19  14  20  14  21  13  22  13  23  13  24  13  25  13
M  ISO  5  26  13  27  13  28  14  29  14  30  14
M  END
>  <minimizedAffinity>  (1) 
-4.09522152

>  <minimizedRMSD>  (1) 
0.399419874

$$$$
