
     RDKit          3D

 26 27  0  0  1  0  0  0  0  0999 V2000
   39.6940   22.8560   37.5590 C   0  0  0  0  0  0  0  0  0  0  0  0
   38.9090   23.2940   38.6650 C   0  0  0  0  0  0  0  0  0  0  0  0
   37.9330   24.2580   38.4100 C   0  0  0  0  0  0  0  0  0  0  0  0
   37.8040   24.7030   37.1400 N   0  0  0  0  0  0  0  0  0  0  0  0
   38.5610   24.2670   36.1220 C   0  0  0  0  0  0  0  0  0  0  0  0
   39.4970   23.3510   36.3390 N   0  0  0  0  0  0  0  0  0  0  0  0
   38.3230   24.8220   34.8350 N   0  0  0  0  0  0  0  0  0  0  0  0
   37.7880   26.1720   34.7160 C   0  0  0  0  0  0  0  0  0  0  0  0
   37.1230   26.3720   33.4020 C   0  0  0  0  0  0  0  0  0  0  0  0
   36.8660   25.1850   32.7490 O   0  0  0  0  0  0  0  0  0  0  0  0
   38.0900   24.6160   32.4060 C   0  0  0  0  0  0  0  0  0  0  0  0
   38.6270   24.0000   33.6750 C   0  0  1  0  0  0  0  0  0  0  0  0
   40.1550   24.0450   33.5370 C   0  0  0  0  0  0  0  0  0  0  0  0
   40.4747   22.0972   37.7159 H   0  0  0  0  0  0  0  0  0  0  0  0
   39.0658   22.8896   39.6759 H   0  0  0  0  0  0  0  0  0  0  0  0
   37.2901   24.6430   39.2153 H   0  0  0  0  0  0  0  0  0  0  0  0
   37.0547   26.3395   35.5186 H   0  0  0  0  0  0  0  0  0  0  0  0
   38.6212   26.8856   34.7972 H   0  0  0  0  0  0  0  0  0  0  0  0
   36.1702   26.8967   33.5661 H   0  0  0  0  0  0  0  0  0  0  0  0
   37.8065   26.9576   32.7697 H   0  0  0  0  0  0  0  0  0  0  0  0
   37.9509   23.8442   31.6346 H   0  0  0  0  0  0  0  0  0  0  0  0
   38.7832   25.3643   31.9943 H   0  0  0  0  0  0  0  0  0  0  0  0
   38.1961   22.9967   33.8079 H   0  0  0  0  0  0  0  0  0  0  0  0
   40.6132   24.0585   34.5369 H   0  0  0  0  0  0  0  0  0  0  0  0
   40.4999   23.1566   32.9876 H   0  0  0  0  0  0  0  0  0  0  0  0
   40.4470   24.9521   32.9876 H   0  0  0  0  0  0  0  0  0  0  0  0
  1  2  2  0
  3  2  1  0
  4  3  2  0
  5  6  2  0
  5  4  1  0
  6  1  1  0
  7  5  1  0
  8  7  1  0
  9  8  1  0
 10  9  1  0
 11 10  1  0
 11 12  1  0
 12  7  1  0
 13 12  1  0
  1 14  1  0
  2 15  1  0
  3 16  1  0
  8 17  1  0
  8 18  1  0
  9 19  1  0
  9 20  1  0
 11 21  1  0
 11 22  1  0
 12 23  1  1
 13 24  1  0
 13 25  1  0
 13 26  1  0
M  ISO  8  14  14  15  14  16  14  17  13  18  13  19  13  20  13  21  13
M  ISO  5  22  13  23  13  24   8  25   8  26   8
M  END
>  <minimizedAffinity>  (1) 
-3.91969895

>  <minimizedRMSD>  (1) 
0.0203739144

$$$$
