
     RDKit          3D

 24 25  0  0  1  0  0  0  0  0999 V2000
   39.6550   22.8520   37.5410 C   0  0  0  0  0  0  0  0  0  0  0  0
   38.8890   23.2910   38.6570 C   0  0  0  0  0  0  0  0  0  0  0  0
   37.9330   24.2800   38.4260 C   0  0  0  0  0  0  0  0  0  0  0  0
   37.8030   24.7500   37.1640 N   0  0  0  0  0  0  0  0  0  0  0  0
   38.5380   24.3190   36.1280 C   0  0  0  0  0  0  0  0  0  0  0  0
   39.4610   23.3710   36.3230 N   0  0  0  0  0  0  0  0  0  0  0  0
   38.3110   24.8870   34.8550 N   0  0  0  0  0  0  0  0  0  0  0  0
   37.8390   26.2580   34.7590 C   0  0  0  0  0  0  0  0  0  0  0  0
   37.1310   26.5140   33.4710 C   0  0  0  0  0  0  0  0  0  0  0  0
   36.7990   25.3460   32.8180 O   0  0  0  0  0  0  0  0  0  0  0  0
   37.9680   24.6980   32.4300 C   0  0  0  0  0  0  0  0  0  0  0  0
   38.5530   24.0890   33.6740 C   0  0  2  0  0  0  0  0  0  0  0  0
   38.1540   22.7860   33.9100 O   0  0  0  0  0  0  0  0  0  0  0  0
   40.4191   22.0733   37.6819 H   0  0  0  0  0  0  0  0  0  0  0  0
   39.0444   22.8679   39.6604 H   0  0  0  0  0  0  0  0  0  0  0  0
   37.3053   24.6652   39.2431 H   0  0  0  0  0  0  0  0  0  0  0  0
   37.1464   26.4547   35.5907 H   0  0  0  0  0  0  0  0  0  0  0  0
   38.7136   26.9235   34.8053 H   0  0  0  0  0  0  0  0  0  0  0  0
   36.2096   27.0776   33.6792 H   0  0  0  0  0  0  0  0  0  0  0  0
   37.8103   27.0836   32.8197 H   0  0  0  0  0  0  0  0  0  0  0  0
   37.7407   23.9131   31.6936 H   0  0  0  0  0  0  0  0  0  0  0  0
   38.6740   25.3992   31.9611 H   0  0  0  0  0  0  0  0  0  0  0  0
   39.6336   24.0700   33.4692 H   0  0  0  0  0  0  0  0  0  0  0  0
   38.1054   22.6274   34.8860 H   0  0  0  0  0  0  0  0  0  0  0  0
  1  2  2  0
  3  2  1  0
  4  3  2  0
  5  6  2  0
  5  4  1  0
  6  1  1  0
  7  5  1  0
  8  7  1  0
  9  8  1  0
 10  9  1  0
 11 10  1  0
 11 12  1  0
 12 13  1  0
 12  7  1  0
  1 14  1  0
  2 15  1  0
  3 16  1  0
  8 17  1  0
  8 18  1  0
  9 19  1  0
  9 20  1  0
 11 21  1  0
 11 22  1  0
 12 23  1  6
 13 24  1  0
M  ISO  8  14  14  15  14  16  14  17  13  18  13  19  13  20  13  21  13
M  ISO  3  22  13  23  13  24   3
M  END
>  <minimizedAffinity>  (1) 
-3.95190263

>  <minimizedRMSD>  (1) 
0.107858442

$$$$
