
     RDKit          3D

 39 42  0  0  1  0  0  0  0  0999 V2000
   39.9040   23.0340   37.5630 C   0  0  0  0  0  0  0  0  0  0  0  0
   38.9200   23.2210   38.5840 C   0  0  0  0  0  0  0  0  0  0  0  0
   37.7750   23.9300   38.2330 C   0  0  0  0  0  0  0  0  0  0  0  0
   37.6800   24.3860   36.9580 N   0  0  0  0  0  0  0  0  0  0  0  0
   38.6460   24.1820   36.0200 C   0  0  0  0  0  0  0  0  0  0  0  0
   39.7350   23.5150   36.3310 N   0  0  0  0  0  0  0  0  0  0  0  0
   38.4240   24.7030   34.7130 N   0  0  0  0  0  0  0  0  0  0  0  0
   37.6420   25.9440   34.5890 C   0  0  0  0  0  0  0  0  0  0  0  0
   37.0230   26.0440   33.2250 C   0  0  0  0  0  0  0  0  0  0  0  0
   37.0490   24.8440   32.5300 O   0  0  0  0  0  0  0  0  0  0  0  0
   38.3910   24.6270   32.2880 C   0  0  0  0  0  0  0  0  0  0  0  0
   38.9330   23.9700   33.6150 C   0  0  1  0  0  0  0  0  0  0  0  0
   40.3300   23.9830   33.2830 N   0  0  0  0  0  0  0  0  0  0  0  0
   40.8540   22.8740   32.7320 C   0  0  0  0  0  0  0  0  0  0  0  0
   42.1720   23.1350   32.5120 N   0  0  0  0  0  0  0  0  0  0  0  0
   42.4340   24.3880   32.9270 C   0  0  0  0  0  0  0  0  0  0  0  0
   43.5320   25.2380   32.9860 C   0  0  0  0  0  0  0  0  0  0  0  0
   43.4720   26.4800   33.4760 N   0  0  0  0  0  0  0  0  0  0  0  0
   42.3090   26.9670   33.9440 C   0  0  0  0  0  0  0  0  0  0  0  0
   41.2310   26.1750   33.9020 N   0  0  0  0  0  0  0  0  0  0  0  0
   41.2650   24.9250   33.4160 C   0  0  0  0  0  0  0  0  0  0  0  0
   44.7720   24.7250   32.4890 N   0  0  0  0  0  0  0  0  0  0  0  0
   38.2960   22.5680   33.5490 C   0  0  0  0  0  0  0  0  0  0  0  0
   38.2670   22.2520   32.2070 F   0  0  0  0  0  0  0  0  0  0  0  0
   37.2150   22.4040   34.3010 F   0  0  0  0  0  0  0  0  0  0  0  0
   39.3180   21.7040   34.0830 F   0  0  0  0  0  0  0  0  0  0  0  0
   40.8237   22.4792   37.8002 H   0  0  0  0  0  0  0  0  0  0  0  0
   39.0616   22.8229   39.5996 H   0  0  0  0  0  0  0  0  0  0  0  0
   36.9741   24.1146   38.9641 H   0  0  0  0  0  0  0  0  0  0  0  0
   36.8462   25.9473   35.3484 H   0  0  0  0  0  0  0  0  0  0  0  0
   38.3132   26.8027   34.7378 H   0  0  0  0  0  0  0  0  0  0  0  0
   35.9759   26.3616   33.3374 H   0  0  0  0  0  0  0  0  0  0  0  0
   37.6125   26.7718   32.6481 H   0  0  0  0  0  0  0  0  0  0  0  0
   38.5267   23.9467   31.4343 H   0  0  0  0  0  0  0  0  0  0  0  0
   38.9245   25.5547   32.0336 H   0  0  0  0  0  0  0  0  0  0  0  0
   40.3218   21.9388   32.5036 H   0  0  0  0  0  0  0  0  0  0  0  0
   42.2456   27.9874   34.3498 H   0  0  0  0  0  0  0  0  0  0  0  0
   45.6175   25.3129   32.5089 H   0  0  0  0  0  0  0  0  0  0  0  0
   44.8190   23.7679   32.1114 H   0  0  0  0  0  0  0  0  0  0  0  0
  1  2  2  0
  3  2  1  0
  4  3  2  0
  5  6  2  0
  5  4  1  0
  6  1  1  0
  7  5  1  0
  8  7  1  0
  9  8  1  0
 10  9  1  0
 11 10  1  0
 11 12  1  0
 12 23  1  1
 12  7  1  0
 13 21  1  0
 13 12  1  0
 14 13  1  0
 15 14  2  0
 15 16  1  0
 16 17  2  0
 16 21  1  0
 17 18  1  0
 18 19  2  0
 20 19  1  0
 21 20  2  0
 22 17  1  0
 23 26  1  0
 23 25  1  0
 24 23  1  0
  1 27  1  0
  2 28  1  0
  3 29  1  0
  8 30  1  0
  8 31  1  0
  9 32  1  0
  9 33  1  0
 11 34  1  0
 11 35  1  0
 14 36  1  0
 19 37  1  0
 22 38  1  0
 22 39  1  0
M  ISO  8  27  14  28  14  29  14  30  13  31  13  32  13  33  13  34  13
M  ISO  3  35  13  36  14  37  14
M  END
>  <minimizedAffinity>  (1) 
-4.85887241

>  <minimizedRMSD>  (1) 
0.661637604

$$$$
