
     RDKit          3D

 36 38  0  0  1  0  0  0  0  0999 V2000
   39.8960   22.9850   37.7030 C   0  0  0  0  0  0  0  0  0  0  0  0
   38.9170   23.1690   38.7210 C   0  0  0  0  0  0  0  0  0  0  0  0
   37.7910   23.9170   38.3830 C   0  0  0  0  0  0  0  0  0  0  0  0
   37.7130   24.4080   37.1210 N   0  0  0  0  0  0  0  0  0  0  0  0
   38.6780   24.2040   36.1820 C   0  0  0  0  0  0  0  0  0  0  0  0
   39.7490   23.5010   36.4800 N   0  0  0  0  0  0  0  0  0  0  0  0
   38.4730   24.7610   34.8850 N   0  0  0  0  0  0  0  0  0  0  0  0
   37.7170   26.0180   34.7900 C   0  0  0  0  0  0  0  0  0  0  0  0
   37.1040   26.1700   33.4320 C   0  0  0  0  0  0  0  0  0  0  0  0
   37.1090   24.9910   32.7040 O   0  0  0  0  0  0  0  0  0  0  0  0
   38.4430   24.7430   32.4610 C   0  0  0  0  0  0  0  0  0  0  0  0
   38.9720   24.0390   33.7750 C   0  0  1  0  0  0  0  0  0  0  0  0
   40.3520   24.1010   33.4740 N   0  0  0  0  0  0  0  0  0  0  0  0
   40.9650   25.0240   34.2840 C   0  0  0  0  0  0  0  0  0  0  0  0
   42.3240   25.3000   34.2180 C   0  0  0  0  0  0  0  0  0  0  0  0
   43.1220   24.6390   33.3110 C   0  0  0  0  0  0  0  0  0  0  0  0
   44.3580   24.7670   33.1210 O   0  0  0  0  0  0  0  0  0  0  0  0
   42.5040   23.7390   32.5260 N   0  0  0  0  0  0  0  0  0  0  0  0
   41.1890   23.5080   32.6270 C   0  0  0  0  0  0  0  0  0  0  0  0
   40.6230   22.6680   31.8910 O   0  0  0  0  0  0  0  0  0  0  0  0
   38.3030   22.6660   33.6720 C   0  0  0  0  0  0  0  0  0  0  0  0
   38.1850   22.4010   32.3280 F   0  0  0  0  0  0  0  0  0  0  0  0
   37.2460   22.4830   34.4550 F   0  0  0  0  0  0  0  0  0  0  0  0
   39.3150   21.7490   34.1260 F   0  0  0  0  0  0  0  0  0  0  0  0
   40.7997   22.4007   37.9308 H   0  0  0  0  0  0  0  0  0  0  0  0
   39.0438   22.7409   39.7263 H   0  0  0  0  0  0  0  0  0  0  0  0
   36.9917   24.1032   39.1155 H   0  0  0  0  0  0  0  0  0  0  0  0
   36.9193   26.0169   35.5474 H   0  0  0  0  0  0  0  0  0  0  0  0
   38.4069   26.8575   34.9608 H   0  0  0  0  0  0  0  0  0  0  0  0
   36.0629   26.5041   33.5521 H   0  0  0  0  0  0  0  0  0  0  0  0
   37.7074   26.9035   32.8772 H   0  0  0  0  0  0  0  0  0  0  0  0
   38.5612   24.0792   31.5919 H   0  0  0  0  0  0  0  0  0  0  0  0
   39.0001   25.6632   32.2312 H   0  0  0  0  0  0  0  0  0  0  0  0
   40.3527   25.5689   35.0176 H   0  0  0  0  0  0  0  0  0  0  0  0
   42.7647   26.0490   34.8923 H   0  0  0  0  0  0  0  0  0  0  0  0
   43.0549   23.2152   31.8310 H   0  0  0  0  0  0  0  0  0  0  0  0
  1  2  2  0
  3  2  1  0
  4  3  2  0
  5  6  2  0
  5  4  1  0
  6  1  1  0
  7  5  1  0
  8  7  1  0
  9  8  1  0
 10  9  1  0
 11 10  1  0
 11 12  1  0
 12 21  1  1
 12  7  1  0
 13 12  1  0
 13 14  1  0
 15 14  2  0
 16 15  1  0
 17 16  2  0
 18 19  1  0
 18 16  1  0
 19 13  1  0
 20 19  2  0
 21 24  1  0
 21 23  1  0
 22 21  1  0
  1 25  1  0
  2 26  1  0
  3 27  1  0
  8 28  1  0
  8 29  1  0
  9 30  1  0
  9 31  1  0
 11 32  1  0
 11 33  1  0
 14 34  1  0
 15 35  1  0
 18 36  1  0
M  ISO  8  25  14  26  14  27  14  28  13  29  13  30  13  31  13  32  13
M  ISO  4  33  13  34  14  35  14  36   9
M  END
>  <minimizedAffinity>  (1) 
-4.60541582

>  <minimizedRMSD>  (1) 
0.318998724

$$$$
