
     RDKit          3D

 39 41  0  0  1  0  0  0  0  0999 V2000
   39.8880   23.0070   37.6650 C   0  0  0  0  0  0  0  0  0  0  0  0
   38.9050   23.2250   38.6610 C   0  0  0  0  0  0  0  0  0  0  0  0
   37.7790   23.9520   38.2800 C   0  0  0  0  0  0  0  0  0  0  0  0
   37.7130   24.3900   36.9960 N   0  0  0  0  0  0  0  0  0  0  0  0
   38.6810   24.1560   36.0770 C   0  0  0  0  0  0  0  0  0  0  0  0
   39.7510   23.4720   36.4210 N   0  0  0  0  0  0  0  0  0  0  0  0
   38.4950   24.6600   34.7600 N   0  0  0  0  0  0  0  0  0  0  0  0
   37.7460   25.9170   34.6020 C   0  0  0  0  0  0  0  0  0  0  0  0
   37.1190   25.9920   33.2420 C   0  0  0  0  0  0  0  0  0  0  0  0
   37.1580   24.7920   32.5550 O   0  0  0  0  0  0  0  0  0  0  0  0
   38.5020   24.5480   32.3380 C   0  0  0  0  0  0  0  0  0  0  0  0
   39.0190   23.8950   33.6800 C   0  0  1  0  0  0  0  0  0  0  0  0
   40.3820   23.8210   33.3880 N   0  0  0  0  0  0  0  0  0  0  0  0
   41.1560   24.9900   33.5530 C   0  0  0  0  0  0  0  0  0  0  0  0
   42.5680   24.6060   33.0110 C   0  0  0  0  0  0  0  0  0  0  0  0
   43.1710   23.8560   33.9880 O   0  0  0  0  0  0  0  0  0  0  0  0
   42.3290   22.9870   34.6370 C   0  0  0  0  0  0  0  0  0  0  0  0
   41.0880   22.6660   33.7970 C   0  0  0  0  0  0  0  0  0  0  0  0
   38.3480   22.5110   33.6260 C   0  0  0  0  0  0  0  0  0  0  0  0
   38.3940   22.1390   32.3000 F   0  0  0  0  0  0  0  0  0  0  0  0
   37.2140   22.3930   34.3100 F   0  0  0  0  0  0  0  0  0  0  0  0
   39.3050   21.6450   34.2620 F   0  0  0  0  0  0  0  0  0  0  0  0
   40.7923   22.4370   37.9244 H   0  0  0  0  0  0  0  0  0  0  0  0
   39.0245   22.8396   39.6843 H   0  0  0  0  0  0  0  0  0  0  0  0
   36.9706   24.1641   38.9952 H   0  0  0  0  0  0  0  0  0  0  0  0
   36.9569   25.9659   35.3668 H   0  0  0  0  0  0  0  0  0  0  0  0
   38.4421   26.7608   34.7179 H   0  0  0  0  0  0  0  0  0  0  0  0
   36.0676   26.2938   33.3583 H   0  0  0  0  0  0  0  0  0  0  0  0
   37.6971   26.7219   32.6563 H   0  0  0  0  0  0  0  0  0  0  0  0
   38.6383   23.8563   31.4936 H   0  0  0  0  0  0  0  0  0  0  0  0
   39.0536   25.4654   32.0848 H   0  0  0  0  0  0  0  0  0  0  0  0
   40.7306   25.8225   32.9734 H   0  0  0  0  0  0  0  0  0  0  0  0
   41.1878   25.3253   34.6002 H   0  0  0  0  0  0  0  0  0  0  0  0
   42.4728   24.0186   32.0859 H   0  0  0  0  0  0  0  0  0  0  0  0
   43.1605   25.5025   32.7761 H   0  0  0  0  0  0  0  0  0  0  0  0
   42.8713   22.0524   34.8433 H   0  0  0  0  0  0  0  0  0  0  0  0
   41.9968   23.4645   35.5706 H   0  0  0  0  0  0  0  0  0  0  0  0
   40.4131   22.0366   34.3956 H   0  0  0  0  0  0  0  0  0  0  0  0
   41.4313   22.1517   32.8873 H   0  0  0  0  0  0  0  0  0  0  0  0
  1  2  2  0
  3  2  1  0
  4  3  2  0
  5  6  2  0
  5  4  1  0
  6  1  1  0
  7  5  1  0
  8  7  1  0
  9  8  1  0
 10  9  1  0
 11 10  1  0
 11 12  1  0
 12 19  1  1
 12  7  1  0
 13 14  1  0
 13 12  1  0
 13 18  1  0
 15 14  1  0
 15 16  1  0
 16 17  1  0
 18 17  1  0
 19 22  1  0
 19 21  1  0
 20 19  1  0
  1 23  1  0
  2 24  1  0
  3 25  1  0
  8 26  1  0
  8 27  1  0
  9 28  1  0
  9 29  1  0
 11 30  1  0
 11 31  1  0
 14 32  1  0
 14 33  1  0
 15 34  1  0
 15 35  1  0
 17 36  1  0
 17 37  1  0
 18 38  1  0
 18 39  1  0
M  ISO  8  23  14  24  14  25  14  26  13  27  13  28  13  29  13  30  13
M  ISO  8  31  13  32  13  33  13  34  13  35  13  36  13  37  13  38  13
M  ISO  1  39  13
M  END
>  <minimizedAffinity>  (1) 
-4.44670439

>  <minimizedRMSD>  (1) 
0.533549488

$$$$
