
     RDKit          3D

 39 41  0  0  1  0  0  0  0  0999 V2000
   39.8330   23.1550   37.3850 C   0  0  0  0  0  0  0  0  0  0  0  0
   38.7280   22.8550   38.2500 C   0  0  0  0  0  0  0  0  0  0  0  0
   37.5170   23.4840   37.9710 C   0  0  0  0  0  0  0  0  0  0  0  0
   37.4750   24.3290   36.9110 N   0  0  0  0  0  0  0  0  0  0  0  0
   38.5520   24.5840   36.1170 C   0  0  0  0  0  0  0  0  0  0  0  0
   39.7040   24.0000   36.3630 N   0  0  0  0  0  0  0  0  0  0  0  0
   38.3710   25.4830   35.0260 N   0  0  0  0  0  0  0  0  0  0  0  0
   37.3840   26.5610   35.1830 C   0  0  0  0  0  0  0  0  0  0  0  0
   36.9100   27.0510   33.8500 C   0  0  0  0  0  0  0  0  0  0  0  0
   37.2300   26.1830   32.8180 O   0  0  0  0  0  0  0  0  0  0  0  0
   38.6060   26.2400   32.7390 C   0  0  0  0  0  0  0  0  0  0  0  0
   39.1130   25.2430   33.8490 C   0  0  1  0  0  0  0  0  0  0  0  0
   43.1890   26.4940   33.5430 C   0  0  0  0  0  0  0  0  0  0  0  0
   42.1420   27.3490   33.7090 C   0  0  0  0  0  0  0  0  0  0  0  0
   40.8410   26.8770   33.8030 C   0  0  0  0  0  0  0  0  0  0  0  0
   40.5370   25.5130   33.7350 C   0  0  0  0  0  0  0  0  0  0  0  0
   41.5850   24.6490   33.5700 C   0  0  0  0  0  0  0  0  0  0  0  0
   42.8630   25.1450   33.4780 C   0  0  0  0  0  0  0  0  0  0  0  0
   44.8660   26.9500   33.4110 S   0  0  0  0  0  0  0  0  0  0  0  0
   45.7070   25.6880   33.4010 O   0  0  0  0  0  0  0  0  0  0  0  0
   45.2570   27.8080   34.5890 O   0  0  0  0  0  0  0  0  0  0  0  0
   38.7450   23.8760   33.2370 C   0  0  0  0  0  0  0  0  0  0  0  0
   39.0080   24.0080   31.8900 F   0  0  0  0  0  0  0  0  0  0  0  0
   37.5900   23.3660   33.6500 F   0  0  0  0  0  0  0  0  0  0  0  0
   39.7820   22.9950   33.7060 F   0  0  0  0  0  0  0  0  0  0  0  0
   40.8066   22.6775   37.5695 H   0  0  0  0  0  0  0  0  0  0  0  0
   38.8327   22.1593   39.0956 H   0  0  0  0  0  0  0  0  0  0  0  0
   36.6255   23.3017   38.5890 H   0  0  0  0  0  0  0  0  0  0  0  0
   36.5237   26.1811   35.7536 H   0  0  0  0  0  0  0  0  0  0  0  0
   37.8597   27.3976   35.7157 H   0  0  0  0  0  0  0  0  0  0  0  0
   35.8168   27.1676   33.8860 H   0  0  0  0  0  0  0  0  0  0  0  0
   37.4139   28.0078   33.6486 H   0  0  0  0  0  0  0  0  0  0  0  0
   38.9508   25.9209   31.7444 H   0  0  0  0  0  0  0  0  0  0  0  0
   38.9893   27.2600   32.8898 H   0  0  0  0  0  0  0  0  0  0  0  0
   42.3310   28.4310   33.7695 H   0  0  0  0  0  0  0  0  0  0  0  0
   40.0215   27.5987   33.9353 H   0  0  0  0  0  0  0  0  0  0  0  0
   41.4057   23.5653   33.5114 H   0  0  0  0  0  0  0  0  0  0  0  0
   43.6838   24.4251   33.3438 H   0  0  0  0  0  0  0  0  0  0  0  0
   45.0675   27.6623   32.2582 H   0  0  0  0  0  0  0  0  0  0  0  0
  1  2  2  0
  3  2  1  0
  4  3  2  0
  5  6  2  0
  5  4  1  0
  6  1  1  0
  7  8  1  0
  7  5  1  0
  9  8  1  0
 10  9  1  0
 11 10  1  0
 11 12  1  0
 12 22  1  6
 12  7  1  0
 13 14  2  0
 14 15  1  0
 16 15  2  0
 16 12  1  0
 17 16  1  0
 18 13  1  0
 18 17  2  0
 19 13  1  0
 19 21  2  0
 20 19  2  0
 22 24  1  0
 22 25  1  0
 23 22  1  0
  1 26  1  0
  2 27  1  0
  3 28  1  0
  8 29  1  0
  8 30  1  0
  9 31  1  0
  9 32  1  0
 11 33  1  0
 11 34  1  0
 14 35  1  0
 15 36  1  0
 17 37  1  0
 18 38  1  0
 19 39  1  0
M  ISO  8  26  14  27  14  28  14  29  13  30  13  31  13  32  13  33  13
M  ISO  6  34  13  35  14  36  14  37  14  38  14  39  11
M  END
>  <minimizedAffinity>  (1) 
-4.58714294

>  <minimizedRMSD>  (1) 
2.23884773

$$$$
