
     RDKit          3D

 36 38  0  0  1  0  0  0  0  0999 V2000
   40.5270   23.1030   36.5160 C   0  0  0  0  0  0  0  0  0  0  0  0
   39.7210   22.7220   37.6340 C   0  0  0  0  0  0  0  0  0  0  0  0
   38.5300   23.4200   37.8210 C   0  0  0  0  0  0  0  0  0  0  0  0
   38.2310   24.4030   36.9330 N   0  0  0  0  0  0  0  0  0  0  0  0
   39.0300   24.7300   35.8830 C   0  0  0  0  0  0  0  0  0  0  0  0
   40.1570   24.0830   35.6880 N   0  0  0  0  0  0  0  0  0  0  0  0
   38.5970   25.7740   35.0150 N   0  0  0  0  0  0  0  0  0  0  0  0
   37.8000   26.8660   35.6000 C   0  0  0  0  0  0  0  0  0  0  0  0
   36.9480   27.5240   34.5530 C   0  0  0  0  0  0  0  0  0  0  0  0
   36.8710   26.7870   33.3810 O   0  0  0  0  0  0  0  0  0  0  0  0
   38.1510   26.8190   32.8750 C   0  0  0  0  0  0  0  0  0  0  0  0
   38.9170   25.6740   33.6430 C   0  0  1  0  0  0  0  0  0  0  0  0
   40.2390   25.9190   33.1010 C   0  0  0  0  0  0  0  0  0  0  0  0
   40.7140   27.1890   33.4460 C   0  0  0  0  0  0  0  0  0  0  0  0
   41.9660   27.6570   33.0330 C   0  0  0  0  0  0  0  0  0  0  0  0
   42.7660   26.8330   32.2540 C   0  0  0  0  0  0  0  0  0  0  0  0
   42.2770   25.6050   31.9350 C   0  0  0  0  0  0  0  0  0  0  0  0
   41.0510   25.1310   32.3310 C   0  0  0  0  0  0  0  0  0  0  0  0
   38.2890   24.4110   33.0230 C   0  0  0  0  0  0  0  0  0  0  0  0
   38.0570   24.7380   31.7040 F   0  0  0  0  0  0  0  0  0  0  0  0
   37.3260   23.8450   33.7450 F   0  0  0  0  0  0  0  0  0  0  0  0
   39.3770   23.4730   32.9660 F   0  0  0  0  0  0  0  0  0  0  0  0
   41.4751   22.5758   36.3336 H   0  0  0  0  0  0  0  0  0  0  0  0
   40.0274   21.9146   38.3153 H   0  0  0  0  0  0  0  0  0  0  0  0
   37.8561   23.1835   38.6577 H   0  0  0  0  0  0  0  0  0  0  0  0
   37.1510   26.4566   36.3882 H   0  0  0  0  0  0  0  0  0  0  0  0
   38.4853   27.6169   36.0201 H   0  0  0  0  0  0  0  0  0  0  0  0
   35.9322   27.6510   34.9555 H   0  0  0  0  0  0  0  0  0  0  0  0
   37.4134   28.4898   34.3066 H   0  0  0  0  0  0  0  0  0  0  0  0
   38.1448   26.6226   31.7927 H   0  0  0  0  0  0  0  0  0  0  0  0
   38.6271   27.8011   33.0120 H   0  0  0  0  0  0  0  0  0  0  0  0
   40.0806   27.8426   34.0638 H   0  0  0  0  0  0  0  0  0  0  0  0
   42.3105   28.6612   33.3209 H   0  0  0  0  0  0  0  0  0  0  0  0
   43.7574   27.1606   31.9080 H   0  0  0  0  0  0  0  0  0  0  0  0
   42.9063   24.9469   31.3179 H   0  0  0  0  0  0  0  0  0  0  0  0
   40.7234   24.1245   32.0314 H   0  0  0  0  0  0  0  0  0  0  0  0
  1  2  2  0
  2  3  1  0
  4  3  2  0
  5  4  1  0
  6  5  2  0
  6  1  1  0
  7  8  1  0
  7  5  1  0
  9  8  1  0
 10  9  1  0
 11 10  1  0
 11 12  1  0
 12 19  1  6
 12  7  1  0
 13 14  2  0
 13 12  1  0
 15 14  1  0
 16 15  2  0
 17 16  1  0
 17 18  2  0
 18 13  1  0
 19 21  1  0
 20 19  1  0
 22 19  1  0
  1 23  1  0
  2 24  1  0
  3 25  1  0
  8 26  1  0
  8 27  1  0
  9 28  1  0
  9 29  1  0
 11 30  1  0
 11 31  1  0
 14 32  1  0
 15 33  1  0
 16 34  1  0
 17 35  1  0
 18 36  1  0
M  ISO  8  23  14  24  14  25  14  26  13  27  13  28  13  29  13  30  13
M  ISO  6  31  13  32  14  33  14  34  14  35  14  36  14
M  END
>  <minimizedAffinity>  (1) 
-4.65310383

>  <minimizedRMSD>  (1) 
2.14677668

$$$$
