
     RDKit          3D

 40 42  0  0  1  0  0  0  0  0999 V2000
   39.8680   23.0030   37.6750 C   0  0  0  0  0  0  0  0  0  0  0  0
   38.8870   23.2380   38.6660 C   0  0  0  0  0  0  0  0  0  0  0  0
   37.7720   23.9770   38.2800 C   0  0  0  0  0  0  0  0  0  0  0  0
   37.7170   24.4080   36.9950 N   0  0  0  0  0  0  0  0  0  0  0  0
   38.6840   24.1570   36.0770 C   0  0  0  0  0  0  0  0  0  0  0  0
   39.7430   23.4620   36.4220 N   0  0  0  0  0  0  0  0  0  0  0  0
   38.5020   24.6570   34.7550 N   0  0  0  0  0  0  0  0  0  0  0  0
   37.7490   25.9100   34.5910 C   0  0  0  0  0  0  0  0  0  0  0  0
   37.1120   25.9790   33.2340 C   0  0  0  0  0  0  0  0  0  0  0  0
   37.1570   24.7780   32.5510 O   0  0  0  0  0  0  0  0  0  0  0  0
   38.4910   24.5270   32.3350 C   0  0  0  0  0  0  0  0  0  0  0  0
   39.0180   23.8860   33.6820 C   0  0  1  0  0  0  0  0  0  0  0  0
   40.3860   23.8810   33.3880 N   0  0  0  0  0  0  0  0  0  0  0  0
   41.1650   25.0260   33.3930 C   0  0  0  0  0  0  0  0  0  0  0  0
   42.4500   24.9240   34.2070 C   0  0  0  0  0  0  0  0  0  0  0  0
   43.1780   23.7850   33.7530 N   0  0  0  0  0  0  0  0  0  0  0  0
   42.3820   22.6230   34.0930 C   0  0  0  0  0  0  0  0  0  0  0  0
   41.0490   22.6260   33.3780 C   0  0  0  0  0  0  0  0  0  0  0  0
   38.3410   22.5040   33.6350 C   0  0  0  0  0  0  0  0  0  0  0  0
   38.3800   22.1110   32.3210 F   0  0  0  0  0  0  0  0  0  0  0  0
   37.2020   22.3970   34.3110 F   0  0  0  0  0  0  0  0  0  0  0  0
   39.2950   21.6460   34.2900 F   0  0  0  0  0  0  0  0  0  0  0  0
   40.7643   22.4237   37.9416 H   0  0  0  0  0  0  0  0  0  0  0  0
   38.9993   22.8558   39.6913 H   0  0  0  0  0  0  0  0  0  0  0  0
   36.9644   24.2033   38.9917 H   0  0  0  0  0  0  0  0  0  0  0  0
   36.9643   25.9618   35.3601 H   0  0  0  0  0  0  0  0  0  0  0  0
   38.4459   26.7547   34.6952 H   0  0  0  0  0  0  0  0  0  0  0  0
   36.0590   26.2727   33.3563 H   0  0  0  0  0  0  0  0  0  0  0  0
   37.6790   26.7133   32.6430 H   0  0  0  0  0  0  0  0  0  0  0  0
   38.6205   23.8254   31.4978 H   0  0  0  0  0  0  0  0  0  0  0  0
   39.0432   25.4413   32.0721 H   0  0  0  0  0  0  0  0  0  0  0  0
   41.4369   25.2590   32.3529 H   0  0  0  0  0  0  0  0  0  0  0  0
   40.5586   25.8099   33.8703 H   0  0  0  0  0  0  0  0  0  0  0  0
   43.0537   25.8324   34.0645 H   0  0  0  0  0  0  0  0  0  0  0  0
   42.2142   24.8216   35.2765 H   0  0  0  0  0  0  0  0  0  0  0  0
   44.0937   23.7382   34.2222 H   0  0  0  0  0  0  0  0  0  0  0  0
   42.9363   21.7163   33.8090 H   0  0  0  0  0  0  0  0  0  0  0  0
   42.1891   22.6458   35.1757 H   0  0  0  0  0  0  0  0  0  0  0  0
   40.3953   21.8867   33.8639 H   0  0  0  0  0  0  0  0  0  0  0  0
   41.2550   22.3858   32.3245 H   0  0  0  0  0  0  0  0  0  0  0  0
  1  2  2  0
  3  2  1  0
  4  3  2  0
  5  6  2  0
  5  4  1  0
  6  1  1  0
  7  5  1  0
  8  7  1  0
  9  8  1  0
 10  9  1  0
 11 10  1  0
 11 12  1  0
 12 19  1  1
 12  7  1  0
 13 14  1  0
 13 12  1  0
 14 15  1  0
 16 17  1  0
 16 15  1  0
 18 13  1  0
 18 17  1  0
 19 22  1  0
 19 21  1  0
 20 19  1  0
  1 23  1  0
  2 24  1  0
  3 25  1  0
  8 26  1  0
  8 27  1  0
  9 28  1  0
  9 29  1  0
 11 30  1  0
 11 31  1  0
 14 32  1  0
 14 33  1  0
 15 34  1  0
 15 35  1  0
 16 36  1  0
 17 37  1  0
 17 38  1  0
 18 39  1  0
 18 40  1  0
M  ISO  8  23  14  24  14  25  14  26  13  27  13  28  13  29  13  30  13
M  ISO  8  31  13  32  13  33  13  34  13  35  13  36   5  37  13  38  13
M  ISO  2  39  13  40  13
M  END
>  <minimizedAffinity>  (1) 
-4.45518589

>  <minimizedRMSD>  (1) 
0.311674744

$$$$
