
     RDKit          3D

 34 36  0  0  1  0  0  0  0  0999 V2000
   39.9050   22.9750   37.6580 C   0  0  0  0  0  0  0  0  0  0  0  0
   38.9460   23.1950   38.6960 C   0  0  0  0  0  0  0  0  0  0  0  0
   37.8310   23.9650   38.3700 C   0  0  0  0  0  0  0  0  0  0  0  0
   37.7400   24.4430   37.1040 N   0  0  0  0  0  0  0  0  0  0  0  0
   38.6830   24.2050   36.1480 C   0  0  0  0  0  0  0  0  0  0  0  0
   39.7410   23.4810   36.4360 N   0  0  0  0  0  0  0  0  0  0  0  0
   38.4650   24.7530   34.8520 N   0  0  0  0  0  0  0  0  0  0  0  0
   37.7250   26.0210   34.7600 C   0  0  0  0  0  0  0  0  0  0  0  0
   37.1080   26.1830   33.4040 C   0  0  0  0  0  0  0  0  0  0  0  0
   37.0800   24.9980   32.6880 O   0  0  0  0  0  0  0  0  0  0  0  0
   38.4060   24.7210   32.4320 C   0  0  0  0  0  0  0  0  0  0  0  0
   38.9280   24.0150   33.7400 C   0  0  1  0  0  0  0  0  0  0  0  0
   40.3370   23.9300   33.3790 C   0  0  0  0  0  0  0  0  0  0  0  0
   41.4330   24.0310   34.1910 C   0  0  0  0  0  0  0  0  0  0  0  0
   42.6930   23.9350   33.6590 C   0  0  0  0  0  0  0  0  0  0  0  0
   42.8790   23.7420   32.3430 N   0  0  0  0  0  0  0  0  0  0  0  0
   41.7950   23.6450   31.5550 C   0  0  0  0  0  0  0  0  0  0  0  0
   40.5330   23.7360   32.0590 N   0  0  0  0  0  0  0  0  0  0  0  0
   38.2220   22.6450   33.6610 C   0  0  0  0  0  0  0  0  0  0  0  0
   38.0450   22.4160   32.3140 F   0  0  0  0  0  0  0  0  0  0  0  0
   37.2170   22.4800   34.5120 F   0  0  0  0  0  0  0  0  0  0  0  0
   39.2470   21.7060   34.0370 F   0  0  0  0  0  0  0  0  0  0  0  0
   40.8002   22.3732   37.8736 H   0  0  0  0  0  0  0  0  0  0  0  0
   39.0820   22.7762   39.7040 H   0  0  0  0  0  0  0  0  0  0  0  0
   37.0503   24.1781   39.1151 H   0  0  0  0  0  0  0  0  0  0  0  0
   36.9304   26.0303   35.5206 H   0  0  0  0  0  0  0  0  0  0  0  0
   38.4274   26.8508   34.9279 H   0  0  0  0  0  0  0  0  0  0  0  0
   36.0766   26.5451   33.5269 H   0  0  0  0  0  0  0  0  0  0  0  0
   37.7241   26.8990   32.8404 H   0  0  0  0  0  0  0  0  0  0  0  0
   38.5017   24.0507   31.5651 H   0  0  0  0  0  0  0  0  0  0  0  0
   38.9810   25.6272   32.1909 H   0  0  0  0  0  0  0  0  0  0  0  0
   41.3034   24.1894   35.2718 H   0  0  0  0  0  0  0  0  0  0  0  0
   43.5670   24.0175   34.3218 H   0  0  0  0  0  0  0  0  0  0  0  0
   41.9304   23.4880   30.4747 H   0  0  0  0  0  0  0  0  0  0  0  0
  1  2  2  0
  3  2  1  0
  4  3  2  0
  5  6  2  0
  5  4  1  0
  6  1  1  0
  7  5  1  0
  8  7  1  0
  9  8  1  0
 10  9  1  0
 11 10  1  0
 11 12  1  0
 12 19  1  1
 12  7  1  0
 13 12  1  0
 13 14  2  0
 15 14  1  0
 16 15  2  0
 17 18  2  0
 17 16  1  0
 18 13  1  0
 19 22  1  0
 19 21  1  0
 20 19  1  0
  1 23  1  0
  2 24  1  0
  3 25  1  0
  8 26  1  0
  8 27  1  0
  9 28  1  0
  9 29  1  0
 11 30  1  0
 11 31  1  0
 14 32  1  0
 15 33  1  0
 17 34  1  0
M  ISO  8  23  14  24  14  25  14  26  13  27  13  28  13  29  13  30  13
M  ISO  4  31  13  32  14  33  14  34  14
M  END
>  <minimizedAffinity>  (1) 
-4.41004372

>  <minimizedRMSD>  (1) 
0.229047611

$$$$
