
     RDKit          3D

 34 36  0  0  1  0  0  0  0  0999 V2000
   39.9000   22.9790   37.6520 C   0  0  0  0  0  0  0  0  0  0  0  0
   38.9430   23.1880   38.6850 C   0  0  0  0  0  0  0  0  0  0  0  0
   37.8270   23.9560   38.3580 C   0  0  0  0  0  0  0  0  0  0  0  0
   37.7370   24.4410   37.0940 N   0  0  0  0  0  0  0  0  0  0  0  0
   38.6850   24.2100   36.1400 C   0  0  0  0  0  0  0  0  0  0  0  0
   39.7430   23.4890   36.4280 N   0  0  0  0  0  0  0  0  0  0  0  0
   38.4670   24.7590   34.8450 N   0  0  0  0  0  0  0  0  0  0  0  0
   37.7200   26.0230   34.7540 C   0  0  0  0  0  0  0  0  0  0  0  0
   37.0960   26.1820   33.4010 C   0  0  0  0  0  0  0  0  0  0  0  0
   37.0810   25.0010   32.6780 O   0  0  0  0  0  0  0  0  0  0  0  0
   38.4110   24.7310   32.4240 C   0  0  0  0  0  0  0  0  0  0  0  0
   38.9330   24.0300   33.7310 C   0  0  1  0  0  0  0  0  0  0  0  0
   40.3480   23.9080   33.3720 C   0  0  0  0  0  0  0  0  0  0  0  0
   40.7550   23.3300   32.1910 C   0  0  0  0  0  0  0  0  0  0  0  0
   42.1300   23.3120   32.0340 C   0  0  0  0  0  0  0  0  0  0  0  0
   43.0260   23.7960   32.9100 N   0  0  0  0  0  0  0  0  0  0  0  0
   42.5670   24.3500   34.0460 C   0  0  0  0  0  0  0  0  0  0  0  0
   41.2560   24.3880   34.2400 N   0  0  0  0  0  0  0  0  0  0  0  0
   38.2310   22.6520   33.6480 C   0  0  0  0  0  0  0  0  0  0  0  0
   38.0920   22.4130   32.2960 F   0  0  0  0  0  0  0  0  0  0  0  0
   37.2090   22.4920   34.4740 F   0  0  0  0  0  0  0  0  0  0  0  0
   39.2570   21.7260   34.0560 F   0  0  0  0  0  0  0  0  0  0  0  0
   40.7961   22.3791   37.8688 H   0  0  0  0  0  0  0  0  0  0  0  0
   39.0777   22.7644   39.6912 H   0  0  0  0  0  0  0  0  0  0  0  0
   37.0433   24.1626   39.1017 H   0  0  0  0  0  0  0  0  0  0  0  0
   36.9286   26.0289   35.5180 H   0  0  0  0  0  0  0  0  0  0  0  0
   38.4196   26.8560   34.9172 H   0  0  0  0  0  0  0  0  0  0  0  0
   36.0602   26.5292   33.5296 H   0  0  0  0  0  0  0  0  0  0  0  0
   37.7013   26.9084   32.8389 H   0  0  0  0  0  0  0  0  0  0  0  0
   38.5121   24.0608   31.5576 H   0  0  0  0  0  0  0  0  0  0  0  0
   38.9815   25.6402   32.1833 H   0  0  0  0  0  0  0  0  0  0  0  0
   40.0563   22.9225   31.4454 H   0  0  0  0  0  0  0  0  0  0  0  0
   42.5237   22.8618   31.1108 H   0  0  0  0  0  0  0  0  0  0  0  0
   43.2607   24.7607   34.7944 H   0  0  0  0  0  0  0  0  0  0  0  0
  1  2  2  0
  3  2  1  0
  4  3  2  0
  5  6  2  0
  5  4  1  0
  6  1  1  0
  7  5  1  0
  8  7  1  0
  9  8  1  0
 10  9  1  0
 11 10  1  0
 11 12  1  0
 12 19  1  1
 12  7  1  0
 13 12  1  0
 13 18  1  0
 14 13  2  0
 15 14  1  0
 15 16  2  0
 16 17  1  0
 17 18  2  0
 19 22  1  0
 19 21  1  0
 20 19  1  0
  1 23  1  0
  2 24  1  0
  3 25  1  0
  8 26  1  0
  8 27  1  0
  9 28  1  0
  9 29  1  0
 11 30  1  0
 11 31  1  0
 14 32  1  0
 15 33  1  0
 17 34  1  0
M  ISO  8  23  14  24  14  25  14  26  13  27  13  28  13  29  13  30  13
M  ISO  4  31  13  32  14  33  14  34  14
M  END
>  <minimizedAffinity>  (1) 
-4.39907122

>  <minimizedRMSD>  (1) 
0.229474679

$$$$
