
     RDKit          3D

 35 36  0  0  1  0  0  0  0  0999 V2000
   39.8660   22.9600   37.6350 C   0  0  0  0  0  0  0  0  0  0  0  0
   38.9330   23.2470   38.6640 C   0  0  0  0  0  0  0  0  0  0  0  0
   37.8360   24.0330   38.3160 C   0  0  0  0  0  0  0  0  0  0  0  0
   37.7460   24.4590   37.0300 N   0  0  0  0  0  0  0  0  0  0  0  0
   38.6690   24.1550   36.0780 C   0  0  0  0  0  0  0  0  0  0  0  0
   39.7100   23.4140   36.3870 N   0  0  0  0  0  0  0  0  0  0  0  0
   38.4580   24.6500   34.7600 N   0  0  0  0  0  0  0  0  0  0  0  0
   37.7640   25.9400   34.6140 C   0  0  0  0  0  0  0  0  0  0  0  0
   37.1000   26.0410   33.2710 C   0  0  0  0  0  0  0  0  0  0  0  0
   37.0320   24.8220   32.6120 O   0  0  0  0  0  0  0  0  0  0  0  0
   38.3500   24.5040   32.3410 C   0  0  0  0  0  0  0  0  0  0  0  0
   38.8880   23.8530   33.6720 C   0  0  2  0  0  0  0  0  0  0  0  0
   38.1470   22.4990   33.6690 C   0  0  0  0  0  0  0  0  0  0  0  0
   37.9030   22.2270   32.3400 F   0  0  0  0  0  0  0  0  0  0  0  0
   37.1710   22.3780   34.5630 F   0  0  0  0  0  0  0  0  0  0  0  0
   39.1640   21.5460   34.0320 F   0  0  0  0  0  0  0  0  0  0  0  0
   40.3180   23.7300   33.2870 C   0  0  0  0  0  0  0  0  0  0  0  0
   41.1260   24.9660   33.6520 C   0  0  0  0  0  0  0  0  0  0  0  0
   40.5770   23.4850   31.8390 C   0  0  0  0  0  0  0  0  0  0  0  0
   40.7463   22.3441   37.8712 H   0  0  0  0  0  0  0  0  0  0  0  0
   39.0687   22.8675   39.6875 H   0  0  0  0  0  0  0  0  0  0  0  0
   37.0690   24.2992   39.0582 H   0  0  0  0  0  0  0  0  0  0  0  0
   37.0007   26.0297   35.4010 H   0  0  0  0  0  0  0  0  0  0  0  0
   38.5035   26.7495   34.7027 H   0  0  0  0  0  0  0  0  0  0  0  0
   36.0777   26.4218   33.4121 H   0  0  0  0  0  0  0  0  0  0  0  0
   37.7060   26.7189   32.6520 H   0  0  0  0  0  0  0  0  0  0  0  0
   38.4128   23.7895   31.5070 H   0  0  0  0  0  0  0  0  0  0  0  0
   38.9371   25.3850   32.0424 H   0  0  0  0  0  0  0  0  0  0  0  0
   40.6301   22.8438   33.8591 H   0  0  0  0  0  0  0  0  0  0  0  0
   41.1846   25.0556   34.7468 H   0  0  0  0  0  0  0  0  0  0  0  0
   42.1406   24.8766   33.2366 H   0  0  0  0  0  0  0  0  0  0  0  0
   40.6371   25.8595   33.2366 H   0  0  0  0  0  0  0  0  0  0  0  0
   41.3722   22.7327   31.7309 H   0  0  0  0  0  0  0  0  0  0  0  0
   39.6577   23.1183   31.3590 H   0  0  0  0  0  0  0  0  0  0  0  0
   40.8921   24.4232   31.3590 H   0  0  0  0  0  0  0  0  0  0  0  0
  1  2  2  0
  3  2  1  0
  4  3  2  0
  5  6  2  0
  5  4  1  0
  6  1  1  0
  7  5  1  0
  8  7  1  0
  9  8  1  0
 10  9  1  0
 11 10  1  0
 11 12  1  0
 12 17  1  6
 12  7  1  0
 13 12  1  0
 13 16  1  0
 13 15  1  0
 14 13  1  0
 17 18  1  0
 19 17  1  0
  1 20  1  0
  2 21  1  0
  3 22  1  0
  8 23  1  0
  8 24  1  0
  9 25  1  0
  9 26  1  0
 11 27  1  0
 11 28  1  0
 17 29  1  0
 18 30  1  0
 18 31  1  0
 18 32  1  0
 19 33  1  0
 19 34  1  0
 19 35  1  0
M  ISO  8  20  14  21  14  22  14  23  13  24  13  25  13  26  13  27  13
M  ISO  8  28  13  29   8  30   8  31   8  32   8  33   8  34   8  35   8
M  END
>  <minimizedAffinity>  (1) 
-4.24497843

>  <minimizedRMSD>  (1) 
0.621324778

$$$$
