
     RDKit          3D

 33 35  0  0  1  0  0  0  0  0999 V2000
   39.9080   22.9660   37.6710 C   0  0  0  0  0  0  0  0  0  0  0  0
   38.9500   23.2020   38.7110 C   0  0  0  0  0  0  0  0  0  0  0  0
   37.8390   23.9770   38.3830 C   0  0  0  0  0  0  0  0  0  0  0  0
   37.7500   24.4450   37.1130 N   0  0  0  0  0  0  0  0  0  0  0  0
   38.6860   24.1940   36.1570 C   0  0  0  0  0  0  0  0  0  0  0  0
   39.7410   23.4660   36.4470 N   0  0  0  0  0  0  0  0  0  0  0  0
   38.4770   24.7360   34.8570 N   0  0  0  0  0  0  0  0  0  0  0  0
   37.7720   26.0250   34.7530 C   0  0  0  0  0  0  0  0  0  0  0  0
   37.1210   26.1650   33.4070 C   0  0  0  0  0  0  0  0  0  0  0  0
   37.0790   24.9750   32.6980 O   0  0  0  0  0  0  0  0  0  0  0  0
   38.4010   24.6830   32.4340 C   0  0  0  0  0  0  0  0  0  0  0  0
   38.9230   23.9820   33.7460 C   0  0  1  0  0  0  0  0  0  0  0  0
   40.3270   23.8550   33.3780 C   0  0  0  0  0  0  0  0  0  0  0  0
   40.7940   23.3610   32.1820 C   0  0  0  0  0  0  0  0  0  0  0  0
   42.1450   23.4330   32.3020 N   0  0  0  0  0  0  0  0  0  0  0  0
   42.4780   23.9440   33.5000 C   0  0  0  0  0  0  0  0  0  0  0  0
   41.3410   24.2130   34.1860 N   0  0  0  0  0  0  0  0  0  0  0  0
   38.2040   22.6200   33.6860 C   0  0  0  0  0  0  0  0  0  0  0  0
   38.0390   22.3680   32.3390 F   0  0  0  0  0  0  0  0  0  0  0  0
   37.1880   22.4760   34.5250 F   0  0  0  0  0  0  0  0  0  0  0  0
   39.2210   21.6820   34.0860 F   0  0  0  0  0  0  0  0  0  0  0  0
   40.7997   22.3595   37.8878 H   0  0  0  0  0  0  0  0  0  0  0  0
   39.0856   22.7901   39.7219 H   0  0  0  0  0  0  0  0  0  0  0  0
   37.0615   24.2013   39.1281 H   0  0  0  0  0  0  0  0  0  0  0  0
   37.0003   26.0790   35.5350 H   0  0  0  0  0  0  0  0  0  0  0  0
   38.5009   26.8389   34.8804 H   0  0  0  0  0  0  0  0  0  0  0  0
   36.0910   26.5231   33.5516 H   0  0  0  0  0  0  0  0  0  0  0  0
   37.7249   26.8745   32.8223 H   0  0  0  0  0  0  0  0  0  0  0  0
   38.4842   24.0048   31.5719 H   0  0  0  0  0  0  0  0  0  0  0  0
   38.9839   25.5807   32.1804 H   0  0  0  0  0  0  0  0  0  0  0  0
   40.2087   22.9929   31.3265 H   0  0  0  0  0  0  0  0  0  0  0  0
   43.5023   24.1151   33.8627 H   0  0  0  0  0  0  0  0  0  0  0  0
   41.2680   24.6107   35.1333 H   0  0  0  0  0  0  0  0  0  0  0  0
  1  2  2  0
  3  2  1  0
  4  3  2  0
  5  6  2  0
  5  4  1  0
  6  1  1  0
  7  5  1  0
  8  7  1  0
  9  8  1  0
 10  9  1  0
 11 10  1  0
 11 12  1  0
 12 18  1  1
 12  7  1  0
 13 12  1  0
 13 17  1  0
 14 15  1  0
 14 13  2  0
 15 16  2  0
 16 17  1  0
 18 21  1  0
 18 20  1  0
 19 18  1  0
  1 22  1  0
  2 23  1  0
  3 24  1  0
  8 25  1  0
  8 26  1  0
  9 27  1  0
  9 28  1  0
 11 29  1  0
 11 30  1  0
 14 31  1  0
 16 32  1  0
 17 33  1  0
M  ISO  8  22  14  23  14  24  14  25  13  26  13  27  13  28  13  29  13
M  ISO  4  30  13  31  14  32  14  33   9
M  END
>  <minimizedAffinity>  (1) 
-4.33701181

>  <minimizedRMSD>  (1) 
0.708218277

$$$$
