
     RDKit          3D

 33 35  0  0  1  0  0  0  0  0999 V2000
   39.8710   22.9830   37.6690 C   0  0  0  0  0  0  0  0  0  0  0  0
   38.9160   23.2580   38.6960 C   0  0  0  0  0  0  0  0  0  0  0  0
   37.8080   24.0240   38.3360 C   0  0  0  0  0  0  0  0  0  0  0  0
   37.7250   24.4450   37.0480 N   0  0  0  0  0  0  0  0  0  0  0  0
   38.6630   24.1570   36.1070 C   0  0  0  0  0  0  0  0  0  0  0  0
   39.7150   23.4360   36.4240 N   0  0  0  0  0  0  0  0  0  0  0  0
   38.4540   24.6490   34.7850 N   0  0  0  0  0  0  0  0  0  0  0  0
   37.7410   25.9290   34.6360 C   0  0  0  0  0  0  0  0  0  0  0  0
   37.0860   26.0230   33.2890 C   0  0  0  0  0  0  0  0  0  0  0  0
   37.0550   24.8100   32.6180 O   0  0  0  0  0  0  0  0  0  0  0  0
   38.3760   24.5110   32.3690 C   0  0  0  0  0  0  0  0  0  0  0  0
   38.9000   23.8600   33.7040 C   0  0  1  0  0  0  0  0  0  0  0  0
   40.2770   23.6720   33.3230 C   0  0  0  0  0  0  0  0  0  0  0  0
   41.3570   23.7650   34.0790 C   0  0  0  0  0  0  0  0  0  0  0  0
   42.6270   23.5870   33.7250 C   0  0  0  0  0  0  0  0  0  0  0  0
   42.6850   23.2530   32.2970 C   0  0  0  0  0  0  0  0  0  0  0  0
   40.8390   23.2660   31.7470 S   0  0  0  0  0  0  0  0  0  0  0  0
   38.1800   22.4920   33.6930 C   0  0  0  0  0  0  0  0  0  0  0  0
   37.9840   22.2110   32.3560 F   0  0  0  0  0  0  0  0  0  0  0  0
   37.1820   22.3710   34.5580 F   0  0  0  0  0  0  0  0  0  0  0  0
   39.2040   21.5630   34.0930 F   0  0  0  0  0  0  0  0  0  0  0  0
   40.7592   22.3812   37.9118 H   0  0  0  0  0  0  0  0  0  0  0  0
   39.0487   22.8832   39.7216 H   0  0  0  0  0  0  0  0  0  0  0  0
   37.0287   24.2782   39.0696 H   0  0  0  0  0  0  0  0  0  0  0  0
   36.9705   26.0052   35.4173 H   0  0  0  0  0  0  0  0  0  0  0  0
   38.4675   26.7494   34.7318 H   0  0  0  0  0  0  0  0  0  0  0  0
   36.0529   26.3753   33.4250 H   0  0  0  0  0  0  0  0  0  0  0  0
   37.6801   26.7212   32.6812 H   0  0  0  0  0  0  0  0  0  0  0  0
   38.4617   23.8019   31.5325 H   0  0  0  0  0  0  0  0  0  0  0  0
   38.9567   25.4011   32.0854 H   0  0  0  0  0  0  0  0  0  0  0  0
   41.1840   24.0221   35.1344 H   0  0  0  0  0  0  0  0  0  0  0  0
   43.4947   23.6759   34.3952 H   0  0  0  0  0  0  0  0  0  0  0  0
   43.5744   23.0442   31.6843 H   0  0  0  0  0  0  0  0  0  0  0  0
  1  2  2  0
  3  2  1  0
  4  3  2  0
  5  6  2  0
  5  4  1  0
  6  1  1  0
  7  5  1  0
  8  7  1  0
  9  8  1  0
 10  9  1  0
 11 10  1  0
 11 12  1  0
 12 18  1  1
 12  7  1  0
 13 12  1  0
 13 14  2  0
 15 14  1  0
 16 15  2  0
 17 16  1  0
 17 13  1  0
 18 21  1  0
 18 20  1  0
 19 18  1  0
  1 22  1  0
  2 23  1  0
  3 24  1  0
  8 25  1  0
  8 26  1  0
  9 27  1  0
  9 28  1  0
 11 29  1  0
 11 30  1  0
 14 31  1  0
 15 32  1  0
 16 33  1  0
M  ISO  8  22  14  23  14  24  14  25  13  26  13  27  13  28  13  29  13
M  ISO  4  30  13  31  14  32  14  33  14
M  END
>  <minimizedAffinity>  (1) 
-4.33348989

>  <minimizedRMSD>  (1) 
0.211597964

$$$$
