
     RDKit          3D

 32 34  0  0  1  0  0  0  0  0999 V2000
   39.8790   22.9750   37.6630 C   0  0  0  0  0  0  0  0  0  0  0  0
   38.9250   23.2550   38.6940 C   0  0  0  0  0  0  0  0  0  0  0  0
   37.8190   24.0230   38.3390 C   0  0  0  0  0  0  0  0  0  0  0  0
   37.7310   24.4440   37.0520 N   0  0  0  0  0  0  0  0  0  0  0  0
   38.6660   24.1520   36.1060 C   0  0  0  0  0  0  0  0  0  0  0  0
   39.7180   23.4280   36.4170 N   0  0  0  0  0  0  0  0  0  0  0  0
   38.4470   24.6450   34.7880 N   0  0  0  0  0  0  0  0  0  0  0  0
   37.7200   25.9160   34.6470 C   0  0  0  0  0  0  0  0  0  0  0  0
   37.1120   26.0360   33.2820 C   0  0  0  0  0  0  0  0  0  0  0  0
   37.0550   24.8210   32.6200 O   0  0  0  0  0  0  0  0  0  0  0  0
   38.3750   24.5110   32.3710 C   0  0  0  0  0  0  0  0  0  0  0  0
   38.8850   23.8570   33.7100 C   0  0  1  0  0  0  0  0  0  0  0  0
   40.3050   23.7070   33.3560 C   0  0  0  0  0  0  0  0  0  0  0  0
   41.3610   24.3820   34.0270 C   0  0  0  0  0  0  0  0  0  0  0  0
   42.7990   23.7320   33.0490 S   0  0  0  0  0  0  0  0  0  0  0  0
   41.6840   22.6810   31.9340 C   0  0  0  0  0  0  0  0  0  0  0  0
   40.5980   22.9020   32.3480 N   0  0  0  0  0  0  0  0  0  0  0  0
   38.1630   22.4950   33.6910 C   0  0  0  0  0  0  0  0  0  0  0  0
   38.0190   22.1890   32.3550 F   0  0  0  0  0  0  0  0  0  0  0  0
   37.1380   22.3960   34.5270 F   0  0  0  0  0  0  0  0  0  0  0  0
   39.1670   21.5650   34.1470 F   0  0  0  0  0  0  0  0  0  0  0  0
   40.7667   22.3716   37.9035 H   0  0  0  0  0  0  0  0  0  0  0  0
   39.0599   22.8805   39.7194 H   0  0  0  0  0  0  0  0  0  0  0  0
   37.0438   24.2794   39.0761 H   0  0  0  0  0  0  0  0  0  0  0  0
   36.9213   25.9597   35.4021 H   0  0  0  0  0  0  0  0  0  0  0  0
   38.4295   26.7444   34.7897 H   0  0  0  0  0  0  0  0  0  0  0  0
   36.0904   26.4308   33.3840 H   0  0  0  0  0  0  0  0  0  0  0  0
   37.7481   26.7106   32.6900 H   0  0  0  0  0  0  0  0  0  0  0  0
   38.4567   23.8004   31.5353 H   0  0  0  0  0  0  0  0  0  0  0  0
   38.9655   25.3938   32.0849 H   0  0  0  0  0  0  0  0  0  0  0  0
   41.3341   25.0823   34.8749 H   0  0  0  0  0  0  0  0  0  0  0  0
   41.9762   22.0235   31.1019 H   0  0  0  0  0  0  0  0  0  0  0  0
  1  2  2  0
  3  2  1  0
  4  3  2  0
  5  6  2  0
  5  4  1  0
  6  1  1  0
  7  5  1  0
  8  7  1  0
  9  8  1  0
 10  9  1  0
 11 10  1  0
 11 12  1  0
 12 18  1  1
 12  7  1  0
 13 12  1  0
 13 14  2  0
 15 14  1  0
 16 17  2  0
 16 15  1  0
 17 13  1  0
 18 21  1  0
 18 20  1  0
 19 18  1  0
  1 22  1  0
  2 23  1  0
  3 24  1  0
  8 25  1  0
  8 26  1  0
  9 27  1  0
  9 28  1  0
 11 29  1  0
 11 30  1  0
 14 31  1  0
 16 32  1  0
M  ISO  8  22  14  23  14  24  14  25  13  26  13  27  13  28  13  29  13
M  ISO  3  30  13  31  14  32  14
M  END
>  <minimizedAffinity>  (1) 
-4.32683325

>  <minimizedRMSD>  (1) 
0.429304779

$$$$
