
     RDKit          3D

 28 29  0  0  1  0  0  0  0  0999 V2000
   39.8920   22.9600   37.5790 C   0  0  0  0  0  0  0  0  0  0  0  0
   38.9520   23.2280   38.6180 C   0  0  0  0  0  0  0  0  0  0  0  0
   37.8430   23.9990   38.2800 C   0  0  0  0  0  0  0  0  0  0  0  0
   37.7460   24.4320   36.9960 N   0  0  0  0  0  0  0  0  0  0  0  0
   38.6700   24.1500   36.0420 C   0  0  0  0  0  0  0  0  0  0  0  0
   39.7280   23.4230   36.3340 N   0  0  0  0  0  0  0  0  0  0  0  0
   38.4460   24.6570   34.7310 N   0  0  0  0  0  0  0  0  0  0  0  0
   37.7210   25.9310   34.6030 C   0  0  0  0  0  0  0  0  0  0  0  0
   37.1050   26.0650   33.2470 C   0  0  0  0  0  0  0  0  0  0  0  0
   37.0410   24.8550   32.5760 O   0  0  0  0  0  0  0  0  0  0  0  0
   38.3600   24.5430   32.3110 C   0  0  0  0  0  0  0  0  0  0  0  0
   38.8870   23.8770   33.6350 C   0  0  2  0  0  0  0  0  0  0  0  0
   38.1500   22.5160   33.6170 C   0  0  0  0  0  0  0  0  0  0  0  0
   37.9850   22.2240   32.2790 F   0  0  0  0  0  0  0  0  0  0  0  0
   37.1340   22.4100   34.4600 F   0  0  0  0  0  0  0  0  0  0  0  0
   39.1600   21.5810   34.0480 F   0  0  0  0  0  0  0  0  0  0  0  0
   40.2360   23.6980   33.2620 N   0  0  0  0  0  0  0  0  0  0  0  0
   40.7803   22.3532   37.8085 H   0  0  0  0  0  0  0  0  0  0  0  0
   39.0965   22.8435   39.6384 H   0  0  0  0  0  0  0  0  0  0  0  0
   37.0735   24.2484   39.0254 H   0  0  0  0  0  0  0  0  0  0  0  0
   36.9275   25.9710   35.3638 H   0  0  0  0  0  0  0  0  0  0  0  0
   38.4349   26.7556   34.7459 H   0  0  0  0  0  0  0  0  0  0  0  0
   36.0851   26.4613   33.3596 H   0  0  0  0  0  0  0  0  0  0  0  0
   37.7373   26.7440   32.6561 H   0  0  0  0  0  0  0  0  0  0  0  0
   38.4304   23.8395   31.4683 H   0  0  0  0  0  0  0  0  0  0  0  0
   38.9482   25.4284   32.0280 H   0  0  0  0  0  0  0  0  0  0  0  0
   40.8187   23.6207   34.1078 H   0  0  0  0  0  0  0  0  0  0  0  0
   40.3264   22.8376   32.7030 H   0  0  0  0  0  0  0  0  0  0  0  0
  1  2  2  0
  3  2  1  0
  4  3  2  0
  5  6  2  0
  5  4  1  0
  6  1  1  0
  7  5  1  0
  8  7  1  0
  9  8  1  0
 10  9  1  0
 11 10  1  0
 11 12  1  0
 12 17  1  6
 12  7  1  0
 13 12  1  0
 13 16  1  0
 13 15  1  0
 14 13  1  0
  1 18  1  0
  2 19  1  0
  3 20  1  0
  8 21  1  0
  8 22  1  0
  9 23  1  0
  9 24  1  0
 11 25  1  0
 11 26  1  0
 17 27  1  0
 17 28  1  0
M  ISO  8  18  14  19  14  20  14  21  13  22  13  23  13  24  13  25  13
M  ISO  3  26  13  27   5  28   5
M  END
>  <minimizedAffinity>  (1) 
-4.23696566

>  <minimizedRMSD>  (1) 
0.0243907981

$$$$
