
     RDKit          3D

 29 30  0  0  1  0  0  0  0  0999 V2000
   39.8950   22.9670   37.5700 C   0  0  0  0  0  0  0  0  0  0  0  0
   38.9480   23.2230   38.6010 C   0  0  0  0  0  0  0  0  0  0  0  0
   37.8350   23.9870   38.2570 C   0  0  0  0  0  0  0  0  0  0  0  0
   37.7380   24.4260   36.9770 N   0  0  0  0  0  0  0  0  0  0  0  0
   38.6740   24.1520   36.0260 C   0  0  0  0  0  0  0  0  0  0  0  0
   39.7330   23.4330   36.3290 N   0  0  0  0  0  0  0  0  0  0  0  0
   38.4550   24.6590   34.7140 N   0  0  0  0  0  0  0  0  0  0  0  0
   37.7230   25.9300   34.5830 C   0  0  0  0  0  0  0  0  0  0  0  0
   37.1010   26.0490   33.2240 C   0  0  0  0  0  0  0  0  0  0  0  0
   37.0590   24.8400   32.5480 O   0  0  0  0  0  0  0  0  0  0  0  0
   38.3840   24.5480   32.2950 C   0  0  0  0  0  0  0  0  0  0  0  0
   38.9070   23.8850   33.6230 C   0  0  2  0  0  0  0  0  0  0  0  0
   38.1900   22.5150   33.5930 C   0  0  0  0  0  0  0  0  0  0  0  0
   38.0590   22.2190   32.2520 F   0  0  0  0  0  0  0  0  0  0  0  0
   37.1590   22.3990   34.4160 F   0  0  0  0  0  0  0  0  0  0  0  0
   39.2020   21.5950   34.0480 F   0  0  0  0  0  0  0  0  0  0  0  0
   40.3330   23.7210   33.2570 C   0  0  0  0  0  0  0  0  0  0  0  0
   40.7873   22.3672   37.8023 H   0  0  0  0  0  0  0  0  0  0  0  0
   39.0882   22.8360   39.6211 H   0  0  0  0  0  0  0  0  0  0  0  0
   37.0596   24.2266   38.9995 H   0  0  0  0  0  0  0  0  0  0  0  0
   36.9321   25.9709   35.3464 H   0  0  0  0  0  0  0  0  0  0  0  0
   38.4313   26.7604   34.7203 H   0  0  0  0  0  0  0  0  0  0  0  0
   36.0733   26.4240   33.3388 H   0  0  0  0  0  0  0  0  0  0  0  0
   37.7218   26.7388   32.6334 H   0  0  0  0  0  0  0  0  0  0  0  0
   38.4728   23.8483   31.4509 H   0  0  0  0  0  0  0  0  0  0  0  0
   38.9624   25.4424   32.0203 H   0  0  0  0  0  0  0  0  0  0  0  0
   40.9405   23.6511   34.1713 H   0  0  0  0  0  0  0  0  0  0  0  0
   40.4561   22.8028   32.6639 H   0  0  0  0  0  0  0  0  0  0  0  0
   40.6613   24.5873   32.6639 H   0  0  0  0  0  0  0  0  0  0  0  0
  1  2  2  0
  3  2  1  0
  4  3  2  0
  5  6  2  0
  5  4  1  0
  6  1  1  0
  7  5  1  0
  8  7  1  0
  9  8  1  0
 10  9  1  0
 11 10  1  0
 11 12  1  0
 12 17  1  6
 12  7  1  0
 13 12  1  0
 13 16  1  0
 13 15  1  0
 14 13  1  0
  1 18  1  0
  2 19  1  0
  3 20  1  0
  8 21  1  0
  8 22  1  0
  9 23  1  0
  9 24  1  0
 11 25  1  0
 11 26  1  0
 17 27  1  0
 17 28  1  0
 17 29  1  0
M  ISO  8  18  14  19  14  20  14  21  13  22  13  23  13  24  13  25  13
M  ISO  4  26  13  27   8  28   8  29   8
M  END
>  <minimizedAffinity>  (1) 
-4.23756075

>  <minimizedRMSD>  (1) 
0.0422810502

$$$$
