
     RDKit          3D

 29 30  0  0  1  0  0  0  0  0999 V2000
   39.8770   22.9670   37.6080 C   0  0  0  0  0  0  0  0  0  0  0  0
   38.9420   23.2410   38.6470 C   0  0  0  0  0  0  0  0  0  0  0  0
   37.8360   24.0160   38.3070 C   0  0  0  0  0  0  0  0  0  0  0  0
   37.7350   24.4470   37.0230 N   0  0  0  0  0  0  0  0  0  0  0  0
   38.6580   24.1570   36.0660 C   0  0  0  0  0  0  0  0  0  0  0  0
   39.7100   23.4260   36.3660 N   0  0  0  0  0  0  0  0  0  0  0  0
   38.4400   24.6590   34.7520 N   0  0  0  0  0  0  0  0  0  0  0  0
   37.7440   25.9490   34.6160 C   0  0  0  0  0  0  0  0  0  0  0  0
   37.0890   26.0590   33.2710 C   0  0  0  0  0  0  0  0  0  0  0  0
   37.0190   24.8460   32.6030 O   0  0  0  0  0  0  0  0  0  0  0  0
   38.3330   24.5290   32.3340 C   0  0  0  0  0  0  0  0  0  0  0  0
   38.8670   23.8670   33.6610 C   0  0  2  0  0  0  0  0  0  0  0  0
   38.1280   22.5110   33.6490 C   0  0  0  0  0  0  0  0  0  0  0  0
   37.8900   22.2470   32.3180 F   0  0  0  0  0  0  0  0  0  0  0  0
   37.1570   22.3870   34.5440 F   0  0  0  0  0  0  0  0  0  0  0  0
   39.1560   21.5650   34.0060 F   0  0  0  0  0  0  0  0  0  0  0  0
   40.2800   23.7640   33.2840 C   0  0  0  0  0  0  0  0  0  0  0  0
   41.2550   23.8650   34.0730 O   0  0  0  0  0  0  0  0  0  0  0  0
   40.4760   23.5350   31.9300 O   0  0  0  0  0  0  0  0  0  0  0  0
   40.7642   22.3582   37.8364 H   0  0  0  0  0  0  0  0  0  0  0  0
   39.0865   22.8590   39.6684 H   0  0  0  0  0  0  0  0  0  0  0  0
   37.0695   24.2707   39.0537 H   0  0  0  0  0  0  0  0  0  0  0  0
   36.9759   26.0292   35.3993 H   0  0  0  0  0  0  0  0  0  0  0  0
   38.4798   26.7603   34.7184 H   0  0  0  0  0  0  0  0  0  0  0  0
   36.0675   26.4431   33.4087 H   0  0  0  0  0  0  0  0  0  0  0  0
   37.7030   26.7369   32.6598 H   0  0  0  0  0  0  0  0  0  0  0  0
   38.3968   23.8208   31.4947 H   0  0  0  0  0  0  0  0  0  0  0  0
   38.9221   25.4115   32.0439 H   0  0  0  0  0  0  0  0  0  0  0  0
   41.3944   23.4491   31.5703 H   0  0  0  0  0  0  0  0  0  0  0  0
  1  2  2  0
  3  2  1  0
  4  3  2  0
  5  6  2  0
  5  4  1  0
  6  1  1  0
  7  5  1  0
  8  7  1  0
  9  8  1  0
 10  9  1  0
 11 10  1  0
 11 12  1  0
 12 17  1  0
 12  7  1  0
 12 13  1  1
 13 16  1  0
 13 15  1  0
 14 13  1  0
 17 18  2  0
 19 17  1  0
  1 20  1  0
  2 21  1  0
  3 22  1  0
  8 23  1  0
  8 24  1  0
  9 25  1  0
  9 26  1  0
 11 27  1  0
 11 28  1  0
 19 29  1  0
M  ISO  8  20  14  21  14  22  14  23  13  24  13  25  13  26  13  27  13
M  ISO  2  28  13  29   3
M  END
>  <minimizedAffinity>  (1) 
-4.23136663

>  <minimizedRMSD>  (1) 
0.20066832

$$$$
