
     RDKit          3D

 41 44  0  0  1  0  0  0  0  0999 V2000
   39.6910   23.0070   37.8720 C   0  0  0  0  0  0  0  0  0  0  0  0
   38.5890   23.1610   38.7740 C   0  0  0  0  0  0  0  0  0  0  0  0
   37.4720   23.8210   38.2940 C   0  0  0  0  0  0  0  0  0  0  0  0
   37.4980   24.2700   37.0150 N   0  0  0  0  0  0  0  0  0  0  0  0
   38.5660   24.0980   36.2000 C   0  0  0  0  0  0  0  0  0  0  0  0
   39.6380   23.4770   36.6290 N   0  0  0  0  0  0  0  0  0  0  0  0
   38.4770   24.6130   34.8740 N   0  0  0  0  0  0  0  0  0  0  0  0
   37.6870   25.8330   34.6550 C   0  0  0  0  0  0  0  0  0  0  0  0
   37.2120   25.9120   33.2280 C   0  0  0  0  0  0  0  0  0  0  0  0
   37.3540   24.7060   32.5500 O   0  0  0  0  0  0  0  0  0  0  0  0
   38.7310   24.5410   32.4560 C   0  0  0  0  0  0  0  0  0  0  0  0
   39.1540   23.9250   33.8320 C   0  0  2  0  0  0  0  0  0  0  0  0
   38.5710   22.4880   33.7050 C   0  0  0  0  0  0  0  0  0  0  0  0
   38.6730   22.1690   32.3760 F   0  0  0  0  0  0  0  0  0  0  0  0
   37.4310   22.2730   34.3530 F   0  0  0  0  0  0  0  0  0  0  0  0
   39.5590   21.6590   34.3350 F   0  0  0  0  0  0  0  0  0  0  0  0
   40.5020   23.9450   33.6700 O   0  0  0  0  0  0  0  0  0  0  0  0
   41.4370   24.9170   33.8150 C   0  0  0  0  0  0  0  0  0  0  0  0
   41.5510   26.1230   33.2320 N   0  0  0  0  0  0  0  0  0  0  0  0
   42.5640   26.9650   33.5050 C   0  0  0  0  0  0  0  0  0  0  0  0
   43.5270   26.6420   34.3850 N   0  0  0  0  0  0  0  0  0  0  0  0
   43.4790   25.4510   35.0080 C   0  0  0  0  0  0  0  0  0  0  0  0
   44.4950   25.1740   35.9010 C   0  0  0  0  0  0  0  0  0  0  0  0
   44.4810   23.9630   36.5590 C   0  0  0  0  0  0  0  0  0  0  0  0
   43.4690   23.0740   36.3120 C   0  0  0  0  0  0  0  0  0  0  0  0
   42.4810   23.3860   35.4210 C   0  0  0  0  0  0  0  0  0  0  0  0
   42.4320   24.5770   34.7270 C   0  0  0  0  0  0  0  0  0  0  0  0
   40.5994   22.4896   38.2143 H   0  0  0  0  0  0  0  0  0  0  0  0
   38.6291   22.7720   39.8021 H   0  0  0  0  0  0  0  0  0  0  0  0
   36.5889   23.9769   38.9311 H   0  0  0  0  0  0  0  0  0  0  0  0
   36.8151   25.8236   35.3256 H   0  0  0  0  0  0  0  0  0  0  0  0
   38.3212   26.7069   34.8650 H   0  0  0  0  0  0  0  0  0  0  0  0
   36.1489   26.1946   33.2256 H   0  0  0  0  0  0  0  0  0  0  0  0
   37.8315   26.6599   32.7113 H   0  0  0  0  0  0  0  0  0  0  0  0
   38.9842   23.8584   31.6314 H   0  0  0  0  0  0  0  0  0  0  0  0
   39.2498   25.4884   32.2477 H   0  0  0  0  0  0  0  0  0  0  0  0
   42.6050   27.9396   32.9966 H   0  0  0  0  0  0  0  0  0  0  0  0
   45.2978   25.9036   36.0832 H   0  0  0  0  0  0  0  0  0  0  0  0
   45.2762   23.7126   37.2767 H   0  0  0  0  0  0  0  0  0  0  0  0
   43.4514   22.1052   36.8327 H   0  0  0  0  0  0  0  0  0  0  0  0
   41.6831   22.6488   35.2482 H   0  0  0  0  0  0  0  0  0  0  0  0
  1  2  2  0
  3  2  1  0
  4  3  2  0
  5  6  2  0
  5  4  1  0
  6  1  1  0
  7  5  1  0
  8  7  1  0
  9  8  1  0
 10  9  1  0
 11 10  1  0
 11 12  1  0
 12 17  1  1
 12  7  1  0
 13 12  1  0
 13 16  1  0
 13 15  1  0
 14 13  1  0
 17 18  1  0
 18 27  2  0
 19 20  2  0
 19 18  1  0
 20 21  1  0
 21 22  2  0
 22 23  1  0
 23 24  2  0
 25 24  1  0
 26 25  2  0
 27 22  1  0
 27 26  1  0
  1 28  1  0
  2 29  1  0
  3 30  1  0
  8 31  1  0
  8 32  1  0
  9 33  1  0
  9 34  1  0
 11 35  1  0
 11 36  1  0
 20 37  1  0
 23 38  1  0
 24 39  1  0
 25 40  1  0
 26 41  1  0
M  ISO  8  28  14  29  14  30  14  31  13  32  13  33  13  34  13  35  13
M  ISO  6  36  13  37  14  38  14  39  14  40  14  41  14
M  END
>  <minimizedAffinity>  (1) 
-5.47672272

>  <minimizedRMSD>  (1) 
2.28537536

$$$$
