
     RDKit          3D

 37 39  0  0  1  0  0  0  0  0999 V2000
   39.8980   22.9930   37.5940 C   0  0  0  0  0  0  0  0  0  0  0  0
   38.9300   23.2150   38.6290 C   0  0  0  0  0  0  0  0  0  0  0  0
   37.8030   23.9540   38.2970 C   0  0  0  0  0  0  0  0  0  0  0  0
   37.7020   24.4090   37.0220 N   0  0  0  0  0  0  0  0  0  0  0  0
   38.6480   24.1720   36.0740 C   0  0  0  0  0  0  0  0  0  0  0  0
   39.7210   23.4740   36.3740 N   0  0  0  0  0  0  0  0  0  0  0  0
   38.4110   24.7140   34.7660 N   0  0  0  0  0  0  0  0  0  0  0  0
   37.6750   25.9690   34.6680 C   0  0  0  0  0  0  0  0  0  0  0  0
   37.0260   26.0910   33.3160 C   0  0  0  0  0  0  0  0  0  0  0  0
   37.0490   24.9170   32.5940 O   0  0  0  0  0  0  0  0  0  0  0  0
   38.3950   24.6740   32.3540 C   0  0  0  0  0  0  0  0  0  0  0  0
   38.9170   23.9730   33.6600 C   0  0  2  0  0  0  0  0  0  0  0  0
   38.2390   22.6010   33.5890 C   0  0  0  0  0  0  0  0  0  0  0  0
   38.1160   22.3300   32.2450 F   0  0  0  0  0  0  0  0  0  0  0  0
   37.2060   22.4240   34.4070 F   0  0  0  0  0  0  0  0  0  0  0  0
   39.2610   21.6860   34.0390 F   0  0  0  0  0  0  0  0  0  0  0  0
   40.2380   23.9320   33.3350 O   0  0  0  0  0  0  0  0  0  0  0  0
   41.2050   24.8440   33.6090 C   0  0  0  0  0  0  0  0  0  0  0  0
   41.0350   26.0250   32.8780 C   0  0  0  0  0  0  0  0  0  0  0  0
   41.9200   27.0950   33.0080 C   0  0  0  0  0  0  0  0  0  0  0  0
   42.9870   27.0060   33.8700 C   0  0  0  0  0  0  0  0  0  0  0  0
   43.1630   25.8410   34.5980 C   0  0  0  0  0  0  0  0  0  0  0  0
   42.2970   24.7920   34.4700 C   0  0  0  0  0  0  0  0  0  0  0  0
   40.8046   22.4119   37.8187 H   0  0  0  0  0  0  0  0  0  0  0  0
   39.0749   22.8161   39.6438 H   0  0  0  0  0  0  0  0  0  0  0  0
   37.0197   24.1635   39.0404 H   0  0  0  0  0  0  0  0  0  0  0  0
   36.8986   25.9958   35.4467 H   0  0  0  0  0  0  0  0  0  0  0  0
   38.3758   26.8058   34.8047 H   0  0  0  0  0  0  0  0  0  0  0  0
   35.9780   26.3938   33.4575 H   0  0  0  0  0  0  0  0  0  0  0  0
   37.5985   26.8368   32.7450 H   0  0  0  0  0  0  0  0  0  0  0  0
   38.5200   24.0133   31.4834 H   0  0  0  0  0  0  0  0  0  0  0  0
   38.9493   25.5971   32.1290 H   0  0  0  0  0  0  0  0  0  0  0  0
   40.1846   26.1114   32.1856 H   0  0  0  0  0  0  0  0  0  0  0  0
   41.7640   28.0114   32.4199 H   0  0  0  0  0  0  0  0  0  0  0  0
   43.6891   27.8457   33.9797 H   0  0  0  0  0  0  0  0  0  0  0  0
   44.0138   25.7589   35.2904 H   0  0  0  0  0  0  0  0  0  0  0  0
   42.4676   23.8817   35.0636 H   0  0  0  0  0  0  0  0  0  0  0  0
  1  2  2  0
  3  2  1  0
  4  3  2  0
  5  6  2  0
  5  4  1  0
  6  1  1  0
  7  5  1  0
  8  7  1  0
  9  8  1  0
 10  9  1  0
 11 10  1  0
 11 12  1  0
 12 17  1  6
 12  7  1  0
 13 12  1  0
 13 16  1  0
 13 15  1  0
 14 13  1  0
 17 18  1  0
 18 23  2  0
 19 20  2  0
 19 18  1  0
 20 21  1  0
 21 22  2  0
 23 22  1  0
  1 24  1  0
  2 25  1  0
  3 26  1  0
  8 27  1  0
  8 28  1  0
  9 29  1  0
  9 30  1  0
 11 31  1  0
 11 32  1  0
 19 33  1  0
 20 34  1  0
 21 35  1  0
 22 36  1  0
 23 37  1  0
M  ISO  8  24  14  25  14  26  14  27  13  28  13  29  13  30  13  31  13
M  ISO  6  32  13  33  14  34  14  35  14  36  14  37  14
M  END
>  <minimizedAffinity>  (1) 
-4.74219513

>  <minimizedRMSD>  (1) 
0.773825407

$$$$
