
     RDKit          3D

 39 43  0  0  0  0  0  0  0  0999 V2000
   38.6350   23.9280   36.8210 C   0  0  0  0  0  0  0  0  0  0  0  0
   39.9370   23.4650   36.5960 C   0  0  0  0  0  0  0  0  0  0  0  0
   40.6610   24.0650   35.5330 C   0  0  0  0  0  0  0  0  0  0  0  0
   40.0580   25.0360   34.8100 N   0  0  0  0  0  0  0  0  0  0  0  0
   38.8140   25.4480   35.0580 C   0  0  0  0  0  0  0  0  0  0  0  0
   38.1060   24.8990   36.0560 N   0  0  0  0  0  0  0  0  0  0  0  0
   38.1300   26.4670   34.3240 N   0  0  0  0  0  0  0  0  0  0  0  0
   37.0370   27.1550   34.7080 C   0  0  0  0  0  0  0  0  0  0  0  0
   36.5170   28.0980   33.8580 C   0  0  0  0  0  0  0  0  0  0  0  0
   37.0890   28.3380   32.6520 C   0  0  0  0  0  0  0  0  0  0  0  0
   36.6160   29.1990   31.8710 O   0  0  0  0  0  0  0  0  0  0  0  0
   38.1890   27.6340   32.2870 N   0  0  0  0  0  0  0  0  0  0  0  0
   38.7010   26.7080   33.1200 C   0  0  0  0  0  0  0  0  0  0  0  0
   39.7310   26.1160   32.6630 O   0  0  0  0  0  0  0  0  0  0  0  0
   38.7510   27.9280   31.0160 C   0  0  0  0  0  0  0  0  0  0  0  0
   39.8870   27.3270   30.6000 N   0  0  0  0  0  0  0  0  0  0  0  0
   40.2190   27.7460   29.4130 O   0  0  0  0  0  0  0  0  0  0  0  0
   39.2890   28.6190   29.0700 C   0  0  0  0  0  0  0  0  0  0  0  0
   38.3660   28.7460   30.0570 N   0  0  0  0  0  0  0  0  0  0  0  0
   39.3660   29.2660   27.8090 N   0  0  0  0  0  0  0  0  0  0  0  0
   40.1420   29.0620   26.7340 C   0  0  0  0  0  0  0  0  0  0  0  0
   39.7890   29.9820   25.7950 N   0  0  0  0  0  0  0  0  0  0  0  0
   38.7940   30.7540   26.2900 C   0  0  0  0  0  0  0  0  0  0  0  0
   38.1470   31.8050   25.6600 C   0  0  0  0  0  0  0  0  0  0  0  0
   37.1770   32.4130   26.3930 N   0  0  0  0  0  0  0  0  0  0  0  0
   36.9080   31.9700   27.6530 C   0  0  0  0  0  0  0  0  0  0  0  0
   37.5570   30.9510   28.2220 N   0  0  0  0  0  0  0  0  0  0  0  0
   38.5210   30.3060   27.5640 C   0  0  0  0  0  0  0  0  0  0  0  0
   37.8180   23.3240   37.9380 C   0  0  0  0  0  0  0  0  0  0  0  0
   38.6160   22.5420   38.7720 F   0  0  0  0  0  0  0  0  0  0  0  0
   37.2510   24.3150   38.6990 F   0  0  0  0  0  0  0  0  0  0  0  0
   36.8210   22.5290   37.3680 F   0  0  0  0  0  0  0  0  0  0  0  0
   40.3793   22.6712   37.2158 H   0  0  0  0  0  0  0  0  0  0  0  0
   41.6887   23.7477   35.3025 H   0  0  0  0  0  0  0  0  0  0  0  0
   36.5700   26.9640   35.6855 H   0  0  0  0  0  0  0  0  0  0  0  0
   35.6247   28.6667   34.1585 H   0  0  0  0  0  0  0  0  0  0  0  0
   40.9209   28.2922   26.6303 H   0  0  0  0  0  0  0  0  0  0  0  0
   38.4005   32.1248   24.6385 H   0  0  0  0  0  0  0  0  0  0  0  0
   36.1189   32.4756   28.2289 H   0  0  0  0  0  0  0  0  0  0  0  0
  1 29  1  0
  2  1  2  0
  3  2  1  0
  4  5  1  0
  4  3  2  0
  5  6  2  0
  6  1  1  0
  7  8  1  0
  7  5  1  0
  9  8  2  0
 10  9  1  0
 11 10  2  0
 12 10  1  0
 12 13  1  0
 13  7  1  0
 14 13  2  0
 15 12  1  0
 16 15  2  0
 17 16  1  0
 18 17  1  0
 18 19  2  0
 19 15  1  0
 20 18  1  0
 21 20  1  0
 22 23  1  0
 22 21  2  0
 23 28  2  0
 24 23  1  0
 24 25  2  0
 25 26  1  0
 26 27  2  0
 28 20  1  0
 28 27  1  0
 29 31  1  0
 29 30  1  0
 32 29  1  0
  2 33  1  0
  3 34  1  0
  8 35  1  0
  9 36  1  0
 21 37  1  0
 24 38  1  0
 26 39  1  0
M  ISO  7  33  14  34  14  35  14  36  14  37  14  38  14  39  14
M  END
>  <minimizedAffinity>  (1) 
-6.36020136

>  <minimizedRMSD>  (1) 
1.37482262

$$$$
