
     RDKit          3D

 34 36  0  0  1  0  0  0  0  0999 V2000
   39.8860   23.0070   37.6120 C   0  0  0  0  0  0  0  0  0  0  0  0
   38.8720   23.0940   38.6110 C   0  0  0  0  0  0  0  0  0  0  0  0
   37.7150   23.7890   38.2840 C   0  0  0  0  0  0  0  0  0  0  0  0
   37.6340   24.3350   37.0390 N   0  0  0  0  0  0  0  0  0  0  0  0
   38.6280   24.2230   36.1270 C   0  0  0  0  0  0  0  0  0  0  0  0
   39.7260   23.5720   36.4160 N   0  0  0  0  0  0  0  0  0  0  0  0
   38.4190   24.8440   34.8510 N   0  0  0  0  0  0  0  0  0  0  0  0
   37.6080   26.0740   34.8020 C   0  0  0  0  0  0  0  0  0  0  0  0
   37.0180   26.2540   33.4410 C   0  0  0  0  0  0  0  0  0  0  0  0
   37.1170   25.1210   32.6410 O   0  0  0  0  0  0  0  0  0  0  0  0
   38.4680   24.9660   32.4310 C   0  0  0  0  0  0  0  0  0  0  0  0
   39.0130   24.2240   33.7150 C   0  0  2  0  0  0  0  0  0  0  0  0
   38.4070   22.8150   33.5240 C   0  0  0  0  0  0  0  0  0  0  0  0
   38.3810   22.6220   32.1630 F   0  0  0  0  0  0  0  0  0  0  0  0
   37.3450   22.5330   34.2680 F   0  0  0  0  0  0  0  0  0  0  0  0
   39.4680   21.9450   33.9610 F   0  0  0  0  0  0  0  0  0  0  0  0
   40.3420   24.3140   33.4390 O   0  0  0  0  0  0  0  0  0  0  0  0
   41.2330   25.3460   33.6520 C   0  0  0  0  0  0  0  0  0  0  0  0
   41.5460   26.4390   32.8690 C   0  0  0  0  0  0  0  0  0  0  0  0
   42.5010   27.1350   33.5770 C   0  0  0  0  0  0  0  0  0  0  0  0
   42.7190   26.4580   34.7200 N   0  0  0  0  0  0  0  0  0  0  0  0
   41.9620   25.3750   34.7830 N   0  0  0  0  0  0  0  0  0  0  0  0
   40.8167   22.4638   37.8328 H   0  0  0  0  0  0  0  0  0  0  0  0
   39.0010   22.6297   39.5998 H   0  0  0  0  0  0  0  0  0  0  0  0
   36.8919   23.8949   39.0061 H   0  0  0  0  0  0  0  0  0  0  0  0
   36.7974   26.0036   35.5422 H   0  0  0  0  0  0  0  0  0  0  0  0
   38.2525   26.9361   35.0288 H   0  0  0  0  0  0  0  0  0  0  0  0
   35.9540   26.5094   33.5534 H   0  0  0  0  0  0  0  0  0  0  0  0
   37.5876   27.0529   32.9437 H   0  0  0  0  0  0  0  0  0  0  0  0
   38.6501   24.3605   31.5309 H   0  0  0  0  0  0  0  0  0  0  0  0
   38.9699   25.9322   32.2745 H   0  0  0  0  0  0  0  0  0  0  0  0
   41.1225   26.6991   31.8876 H   0  0  0  0  0  0  0  0  0  0  0  0
   42.9930   28.0686   33.2667 H   0  0  0  0  0  0  0  0  0  0  0  0
   43.3871   26.7454   35.4493 H   0  0  0  0  0  0  0  0  0  0  0  0
  1  2  2  0
  3  2  1  0
  4  3  2  0
  5  6  2  0
  5  4  1  0
  6  1  1  0
  7  5  1  0
  8  7  1  0
  9  8  1  0
 10  9  1  0
 11 10  1  0
 11 12  1  0
 12 17  1  1
 12  7  1  0
 13 12  1  0
 13 16  1  0
 13 15  1  0
 14 13  1  0
 17 18  1  0
 18 22  2  0
 19 20  2  0
 19 18  1  0
 20 21  1  0
 21 22  1  0
  1 23  1  0
  2 24  1  0
  3 25  1  0
  8 26  1  0
  8 27  1  0
  9 28  1  0
  9 29  1  0
 11 30  1  0
 11 31  1  0
 19 32  1  0
 20 33  1  0
 21 34  1  0
M  ISO  8  23  14  24  14  25  14  26  13  27  13  28  13  29  13  30  13
M  ISO  4  31  13  32  14  33  14  34   9
M  END
>  <minimizedAffinity>  (1) 
-4.67218399

>  <minimizedRMSD>  (1) 
2.20727491

$$$$
