
     RDKit          3D

 42 44  0  0  1  0  0  0  0  0999 V2000
   40.0080   23.1990   36.9650 C   0  0  0  0  0  0  0  0  0  0  0  0
   39.0420   22.9940   38.0070 C   0  0  0  0  0  0  0  0  0  0  0  0
   37.8150   23.6290   37.8620 C   0  0  0  0  0  0  0  0  0  0  0  0
   37.6170   24.3890   36.7570 N   0  0  0  0  0  0  0  0  0  0  0  0
   38.5690   24.5480   35.8000 C   0  0  0  0  0  0  0  0  0  0  0  0
   39.7300   23.9630   35.9120 N   0  0  0  0  0  0  0  0  0  0  0  0
   38.2450   25.3690   34.6840 N   0  0  0  0  0  0  0  0  0  0  0  0
   37.3330   26.5130   34.8930 C   0  0  0  0  0  0  0  0  0  0  0  0
   36.6220   26.8730   33.6220 C   0  0  0  0  0  0  0  0  0  0  0  0
   36.7720   25.9130   32.6220 O   0  0  0  0  0  0  0  0  0  0  0  0
   38.1260   25.9380   32.3200 C   0  0  0  0  0  0  0  0  0  0  0  0
   38.8050   25.0610   33.4220 C   0  0  2  0  0  0  0  0  0  0  0  0
   38.3310   23.6400   32.9920 C   0  0  0  0  0  0  0  0  0  0  0  0
   38.2370   23.6910   31.6190 F   0  0  0  0  0  0  0  0  0  0  0  0
   37.3260   23.1290   33.6950 F   0  0  0  0  0  0  0  0  0  0  0  0
   39.4610   22.7980   33.2230 F   0  0  0  0  0  0  0  0  0  0  0  0
   40.1050   25.2610   33.1010 O   0  0  0  0  0  0  0  0  0  0  0  0
   43.3610   27.3270   33.8700 N   0  0  0  0  0  0  0  0  0  0  0  0
   42.7410   27.6470   32.6170 C   0  0  0  0  0  0  0  0  0  0  0  0
   41.9080   26.4680   32.1210 C   0  0  0  0  0  0  0  0  0  0  0  0
   40.5830   26.5020   32.9040 C   0  0  0  0  0  0  0  0  0  0  0  0
   41.0240   27.0100   34.2910 C   0  0  0  0  0  0  0  0  0  0  0  0
   42.4190   26.4780   34.5860 C   0  0  0  0  0  0  0  0  0  0  0  0
   40.9939   22.7166   37.0384 H   0  0  0  0  0  0  0  0  0  0  0  0
   39.2633   22.3629   38.8804 H   0  0  0  0  0  0  0  0  0  0  0  0
   37.0271   23.5184   38.6216 H   0  0  0  0  0  0  0  0  0  0  0  0
   36.5892   26.2450   35.6578 H   0  0  0  0  0  0  0  0  0  0  0  0
   37.9268   27.3794   35.2198 H   0  0  0  0  0  0  0  0  0  0  0  0
   35.5499   26.9868   33.8404 H   0  0  0  0  0  0  0  0  0  0  0  0
   37.0672   27.8075   33.2498 H   0  0  0  0  0  0  0  0  0  0  0  0
   38.3070   25.5126   31.3219 H   0  0  0  0  0  0  0  0  0  0  0  0
   38.5260   26.9626   32.3040 H   0  0  0  0  0  0  0  0  0  0  0  0
   43.5457   28.1866   34.4065 H   0  0  0  0  0  0  0  0  0  0  0  0
   42.0882   28.5226   32.7484 H   0  0  0  0  0  0  0  0  0  0  0  0
   43.5241   27.8681   31.8768 H   0  0  0  0  0  0  0  0  0  0  0  0
   41.7139   26.5679   31.0429 H   0  0  0  0  0  0  0  0  0  0  0  0
   42.4364   25.5162   32.2786 H   0  0  0  0  0  0  0  0  0  0  0  0
   39.8179   27.0973   32.3841 H   0  0  0  0  0  0  0  0  0  0  0  0
   41.0392   28.1099   34.2945 H   0  0  0  0  0  0  0  0  0  0  0  0
   40.3194   26.6592   35.0595 H   0  0  0  0  0  0  0  0  0  0  0  0
   42.5079   25.4384   34.2377 H   0  0  0  0  0  0  0  0  0  0  0  0
   42.6229   26.4915   35.6669 H   0  0  0  0  0  0  0  0  0  0  0  0
  1  2  2  0
  3  2  1  0
  4  3  2  0
  5  6  2  0
  5  4  1  0
  6  1  1  0
  7  8  1  0
  7  5  1  0
  9  8  1  0
 10  9  1  0
 11 10  1  0
 11 12  1  0
 12 17  1  1
 12  7  1  0
 13 16  1  0
 13 12  1  0
 13 15  1  0
 14 13  1  0
 18 23  1  0
 19 18  1  0
 20 19  1  0
 20 21  1  0
 21 17  1  0
 21 22  1  0
 22 23  1  0
  1 24  1  0
  2 25  1  0
  3 26  1  0
  8 27  1  0
  8 28  1  0
  9 29  1  0
  9 30  1  0
 11 31  1  0
 11 32  1  0
 18 33  1  0
 19 34  1  0
 19 35  1  0
 20 36  1  0
 20 37  1  0
 21 38  1  0
 22 39  1  0
 22 40  1  0
 23 41  1  0
 23 42  1  0
M  ISO  8  24  14  25  14  26  14  27  13  28  13  29  13  30  13  31  13
M  ISO  8  32  13  33   5  34  13  35  13  36  13  37  13  38  13  39  13
M  ISO  3  40  13  41  13  42  13
M  END
>  <minimizedAffinity>  (1) 
-4.58232212

>  <minimizedRMSD>  (1) 
1.71237552

$$$$
