
     RDKit          3D

 34 36  0  0  1  0  0  0  0  0999 V2000
   40.6520   23.1590   36.3570 C   0  0  0  0  0  0  0  0  0  0  0  0
   39.8730   22.7340   37.4820 C   0  0  0  0  0  0  0  0  0  0  0  0
   38.6760   23.4030   37.7130 C   0  0  0  0  0  0  0  0  0  0  0  0
   38.3350   24.4020   36.8620 N   0  0  0  0  0  0  0  0  0  0  0  0
   39.1090   24.7680   35.8110 C   0  0  0  0  0  0  0  0  0  0  0  0
   40.2420   24.1520   35.5730 N   0  0  0  0  0  0  0  0  0  0  0  0
   38.6460   25.8290   34.9860 N   0  0  0  0  0  0  0  0  0  0  0  0
   37.8580   26.9080   35.6110 C   0  0  0  0  0  0  0  0  0  0  0  0
   36.9660   27.5790   34.6040 C   0  0  0  0  0  0  0  0  0  0  0  0
   36.8770   26.8710   33.4070 O   0  0  0  0  0  0  0  0  0  0  0  0
   38.1580   26.9380   32.8740 C   0  0  0  0  0  0  0  0  0  0  0  0
   38.9570   25.8130   33.6050 C   0  0  2  0  0  0  0  0  0  0  0  0
   38.3310   24.5400   32.9590 C   0  0  0  0  0  0  0  0  0  0  0  0
   37.9810   24.9150   31.6850 F   0  0  0  0  0  0  0  0  0  0  0  0
   37.4580   23.8830   33.7140 F   0  0  0  0  0  0  0  0  0  0  0  0
   39.4450   23.6610   32.7590 F   0  0  0  0  0  0  0  0  0  0  0  0
   40.2020   26.0670   33.1140 O   0  0  0  0  0  0  0  0  0  0  0  0
   40.8390   27.1930   33.5400 C   0  0  0  0  0  0  0  0  0  0  0  0
   41.9380   27.6940   32.5930 C   0  0  0  0  0  0  0  0  0  0  0  0
   42.3480   27.0820   33.8690 C   0  0  0  0  0  0  0  0  0  0  0  0
   41.6052   22.6555   36.1381 H   0  0  0  0  0  0  0  0  0  0  0  0
   40.2073   21.9141   38.1346 H   0  0  0  0  0  0  0  0  0  0  0  0
   38.0270   23.1307   38.5584 H   0  0  0  0  0  0  0  0  0  0  0  0
   37.2375   26.4816   36.4130 H   0  0  0  0  0  0  0  0  0  0  0  0
   38.5527   27.6579   36.0173 H   0  0  0  0  0  0  0  0  0  0  0  0
   35.9577   27.6715   35.0337 H   0  0  0  0  0  0  0  0  0  0  0  0
   37.4034   28.5622   34.3763 H   0  0  0  0  0  0  0  0  0  0  0  0
   38.1360   26.7548   31.7896 H   0  0  0  0  0  0  0  0  0  0  0  0
   38.6142   27.9288   33.0160 H   0  0  0  0  0  0  0  0  0  0  0  0
   39.9591   27.6045   34.0561 H   0  0  0  0  0  0  0  0  0  0  0  0
   42.1270   27.1626   31.6486 H   0  0  0  0  0  0  0  0  0  0  0  0
   42.1469   28.6561   32.1025 H   0  0  0  0  0  0  0  0  0  0  0  0
   42.7828   27.7086   34.6617 H   0  0  0  0  0  0  0  0  0  0  0  0
   43.0184   26.2560   34.1488 H   0  0  0  0  0  0  0  0  0  0  0  0
  1  2  2  0
  2  3  1  0
  4  3  2  0
  5  4  1  0
  6  5  2  0
  6  1  1  0
  7  8  1  0
  7  5  1  0
  9  8  1  0
 10  9  1  0
 11 10  1  0
 11 12  1  0
 12 17  1  1
 12  7  1  0
 13 12  1  0
 13 15  1  0
 14 13  1  0
 16 13  1  0
 17 18  1  0
 18 20  1  0
 19 18  1  0
 19 20  1  0
  1 21  1  0
  2 22  1  0
  3 23  1  0
  8 24  1  0
  8 25  1  0
  9 26  1  0
  9 27  1  0
 11 28  1  0
 11 29  1  0
 18 30  1  0
 19 31  1  0
 19 32  1  0
 20 33  1  0
 20 34  1  0
M  ISO  8  21  14  22  14  23  14  24  13  25  13  26  13  27  13  28  13
M  ISO  6  29  13  30  13  31  13  32  13  33  13  34  13
M  END
>  <minimizedAffinity>  (1) 
-4.32891512

>  <minimizedRMSD>  (1) 
1.96146739

$$$$
