
     RDKit          3D

 33 35  0  0  1  0  0  0  0  0999 V2000
   39.8890   22.9840   37.6680 C   0  0  0  0  0  0  0  0  0  0  0  0
   38.9070   23.2380   38.6830 C   0  0  0  0  0  0  0  0  0  0  0  0
   37.7910   23.9750   38.3110 C   0  0  0  0  0  0  0  0  0  0  0  0
   37.7100   24.3960   37.0250 N   0  0  0  0  0  0  0  0  0  0  0  0
   38.6680   24.1290   36.1000 C   0  0  0  0  0  0  0  0  0  0  0  0
   39.7270   23.4350   36.4340 N   0  0  0  0  0  0  0  0  0  0  0  0
   38.4690   24.6280   34.7770 N   0  0  0  0  0  0  0  0  0  0  0  0
   37.7510   25.9050   34.6230 C   0  0  0  0  0  0  0  0  0  0  0  0
   37.1230   25.9890   33.2580 C   0  0  0  0  0  0  0  0  0  0  0  0
   37.1250   24.7860   32.5850 O   0  0  0  0  0  0  0  0  0  0  0  0
   38.4590   24.5140   32.3650 C   0  0  0  0  0  0  0  0  0  0  0  0
   38.9790   23.8570   33.6950 C   0  0  2  0  0  0  0  0  0  0  0  0
   38.2750   22.4820   33.6640 C   0  0  0  0  0  0  0  0  0  0  0  0
   38.1670   22.1760   32.3270 F   0  0  0  0  0  0  0  0  0  0  0  0
   37.2220   22.3530   34.4690 F   0  0  0  0  0  0  0  0  0  0  0  0
   39.2710   21.5780   34.1450 F   0  0  0  0  0  0  0  0  0  0  0  0
   40.3060   23.8060   33.3880 O   0  0  0  0  0  0  0  0  0  0  0  0
   41.2540   24.8180   33.6470 C   0  0  0  0  0  0  0  0  0  0  0  0
   41.3390   25.9530   32.8950 C   0  0  0  0  0  0  0  0  0  0  0  0
   42.6940   26.8630   33.6630 S   0  0  0  0  0  0  0  0  0  0  0  0
   42.9390   25.4800   34.9510 C   0  0  0  0  0  0  0  0  0  0  0  0
   42.1190   24.7360   34.6310 N   0  0  0  0  0  0  0  0  0  0  0  0
   40.7903   22.4056   37.9192 H   0  0  0  0  0  0  0  0  0  0  0  0
   39.0330   22.8653   39.7102 H   0  0  0  0  0  0  0  0  0  0  0  0
   36.9980   24.2098   39.0363 H   0  0  0  0  0  0  0  0  0  0  0  0
   36.9647   25.9741   35.3892 H   0  0  0  0  0  0  0  0  0  0  0  0
   38.4649   26.7336   34.7404 H   0  0  0  0  0  0  0  0  0  0  0  0
   36.0815   26.3241   33.3722 H   0  0  0  0  0  0  0  0  0  0  0  0
   37.7217   26.6964   32.6654 H   0  0  0  0  0  0  0  0  0  0  0  0
   38.5753   23.8178   31.5213 H   0  0  0  0  0  0  0  0  0  0  0  0
   39.0241   25.4229   32.1109 H   0  0  0  0  0  0  0  0  0  0  0  0
   40.7277   26.2437   32.0279 H   0  0  0  0  0  0  0  0  0  0  0  0
   43.6647   25.4107   35.7747 H   0  0  0  0  0  0  0  0  0  0  0  0
  1  2  2  0
  3  2  1  0
  4  3  2  0
  5  6  2  0
  5  4  1  0
  6  1  1  0
  7  5  1  0
  8  7  1  0
  9  8  1  0
 10  9  1  0
 11 10  1  0
 11 12  1  0
 12 17  1  6
 12  7  1  0
 13 12  1  0
 13 16  1  0
 13 15  1  0
 14 13  1  0
 17 18  1  0
 18 22  1  0
 19 18  2  0
 19 20  1  0
 20 21  1  0
 22 21  2  0
  1 23  1  0
  2 24  1  0
  3 25  1  0
  8 26  1  0
  8 27  1  0
  9 28  1  0
  9 29  1  0
 11 30  1  0
 11 31  1  0
 19 32  1  0
 21 33  1  0
M  ISO  8  23  14  24  14  25  14  26  13  27  13  28  13  29  13  30  13
M  ISO  3  31  13  32  14  33  14
M  END
>  <minimizedAffinity>  (1) 
-4.50466394

>  <minimizedRMSD>  (1) 
2.12312722

$$$$
