
     RDKit          3D

 36 38  0  0  1  0  0  0  0  0999 V2000
   39.9080   23.0270   37.5350 C   0  0  0  0  0  0  0  0  0  0  0  0
   38.9100   23.1890   38.5550 C   0  0  0  0  0  0  0  0  0  0  0  0
   37.7610   23.8930   38.2120 C   0  0  0  0  0  0  0  0  0  0  0  0
   37.6630   24.3710   36.9470 N   0  0  0  0  0  0  0  0  0  0  0  0
   38.6290   24.1950   36.0130 C   0  0  0  0  0  0  0  0  0  0  0  0
   39.7300   23.5300   36.3170 N   0  0  0  0  0  0  0  0  0  0  0  0
   38.4130   24.7480   34.7090 N   0  0  0  0  0  0  0  0  0  0  0  0
   37.6390   25.9940   34.6190 C   0  0  0  0  0  0  0  0  0  0  0  0
   36.9970   26.1100   33.2650 C   0  0  0  0  0  0  0  0  0  0  0  0
   37.0600   24.9320   32.5310 O   0  0  0  0  0  0  0  0  0  0  0  0
   38.4150   24.7570   32.2980 C   0  0  0  0  0  0  0  0  0  0  0  0
   38.9610   24.0550   33.5990 C   0  0  2  0  0  0  0  0  0  0  0  0
   38.3220   22.6500   33.4960 C   0  0  0  0  0  0  0  0  0  0  0  0
   38.2600   22.3980   32.1400 F   0  0  0  0  0  0  0  0  0  0  0  0
   37.2660   22.4370   34.2780 F   0  0  0  0  0  0  0  0  0  0  0  0
   39.3580   21.7760   33.9680 F   0  0  0  0  0  0  0  0  0  0  0  0
   40.2910   24.0830   33.3000 O   0  0  0  0  0  0  0  0  0  0  0  0
   41.1430   25.1350   33.1260 C   0  0  0  0  0  0  0  0  0  0  0  0
   41.3720   26.0820   34.1030 C   0  0  0  0  0  0  0  0  0  0  0  0
   42.2410   27.1310   33.8870 C   0  0  0  0  0  0  0  0  0  0  0  0
   42.8850   27.2240   32.6710 C   0  0  0  0  0  0  0  0  0  0  0  0
   42.6480   26.2740   31.7060 C   0  0  0  0  0  0  0  0  0  0  0  0
   41.7980   25.2660   31.9440 N   0  0  0  0  0  0  0  0  0  0  0  0
   40.8335   22.4786   37.7648 H   0  0  0  0  0  0  0  0  0  0  0  0
   39.0486   22.7740   39.5642 H   0  0  0  0  0  0  0  0  0  0  0  0
   36.9566   24.0570   38.9442 H   0  0  0  0  0  0  0  0  0  0  0  0
   36.8572   25.9927   35.3928 H   0  0  0  0  0  0  0  0  0  0  0  0
   38.3154   26.8482   34.7697 H   0  0  0  0  0  0  0  0  0  0  0  0
   35.9399   26.3823   33.4006 H   0  0  0  0  0  0  0  0  0  0  0  0
   37.5502   26.8772   32.7035 H   0  0  0  0  0  0  0  0  0  0  0  0
   38.5772   24.1192   31.4166 H   0  0  0  0  0  0  0  0  0  0  0  0
   38.9272   25.7089   32.0943 H   0  0  0  0  0  0  0  0  0  0  0  0
   40.8533   25.9990   35.0695 H   0  0  0  0  0  0  0  0  0  0  0  0
   42.4176   27.8812   34.6718 H   0  0  0  0  0  0  0  0  0  0  0  0
   43.5826   28.0516   32.4749 H   0  0  0  0  0  0  0  0  0  0  0  0
   43.1585   26.3417   30.7340 H   0  0  0  0  0  0  0  0  0  0  0  0
  1  2  2  0
  3  2  1  0
  4  3  2  0
  5  6  2  0
  5  4  1  0
  6  1  1  0
  7  5  1  0
  8  7  1  0
  9  8  1  0
 10  9  1  0
 11 10  1  0
 11 12  1  0
 12 17  1  1
 12  7  1  0
 13 12  1  0
 13 16  1  0
 13 15  1  0
 14 13  1  0
 18 17  1  0
 18 19  2  0
 20 19  1  0
 21 20  2  0
 22 23  2  0
 22 21  1  0
 23 18  1  0
  1 24  1  0
  2 25  1  0
  3 26  1  0
  8 27  1  0
  8 28  1  0
  9 29  1  0
  9 30  1  0
 11 31  1  0
 11 32  1  0
 19 33  1  0
 20 34  1  0
 21 35  1  0
 22 36  1  0
M  ISO  8  24  14  25  14  26  14  27  13  28  13  29  13  30  13  31  13
M  ISO  5  32  13  33  14  34  14  35  14  36  14
M  END
>  <minimizedAffinity>  (1) 
-4.58262634

>  <minimizedRMSD>  (1) 
2.33809566

$$$$
