
     RDKit          3D

 44 47  0  0  1  0  0  0  0  0999 V2000
   40.0820   22.8200   36.8560 C   0  0  0  0  0  0  0  0  0  0  0  0
   39.1140   22.6030   37.8890 C   0  0  0  0  0  0  0  0  0  0  0  0
   38.1010   23.5260   37.9960 C   0  0  0  0  0  0  0  0  0  0  0  0
   38.0940   24.5640   37.1220 N   0  0  0  0  0  0  0  0  0  0  0  0
   39.0360   24.7300   36.1550 C   0  0  0  0  0  0  0  0  0  0  0  0
   40.0010   23.8680   36.0380 N   0  0  0  0  0  0  0  0  0  0  0  0
   38.9120   25.8560   35.3010 N   0  0  0  0  0  0  0  0  0  0  0  0
   38.3270   27.0990   35.8510 C   0  0  0  0  0  0  0  0  0  0  0  0
   37.6800   27.8970   34.7820 C   0  0  0  0  0  0  0  0  0  0  0  0
   37.6040   27.2440   33.5620 O   0  0  0  0  0  0  0  0  0  0  0  0
   38.9100   27.0360   33.1690 C   0  0  1  0  0  0  0  0  0  0  0  0
   39.3490   25.7600   33.9430 C   0  0  2  0  0  0  0  0  0  0  0  0
   39.2340   27.0650   31.7730 C   0  0  0  0  0  0  0  0  0  0  0  0
   40.2120   26.2610   31.3670 N   0  0  0  0  0  0  0  0  0  0  0  0
   40.6330   26.1290   30.1070 C   0  0  0  0  0  0  0  0  0  0  0  0
   40.0920   26.8250   29.0630 N   0  0  0  0  0  0  0  0  0  0  0  0
   39.0860   27.6750   29.3740 C   0  0  0  0  0  0  0  0  0  0  0  0
   38.4710   28.4390   28.4090 C   0  0  0  0  0  0  0  0  0  0  0  0
   37.4370   29.3330   28.7140 C   0  0  0  0  0  0  0  0  0  0  0  0
   37.0510   29.4180   30.0570 C   0  0  0  0  0  0  0  0  0  0  0  0
   37.6820   28.6490   30.9720 C   0  0  0  0  0  0  0  0  0  0  0  0
   38.6990   27.7640   30.6910 C   0  0  0  0  0  0  0  0  0  0  0  0
   38.5090   24.6460   33.2610 C   0  0  0  0  0  0  0  0  0  0  0  0
   38.1160   25.1680   32.0750 F   0  0  0  0  0  0  0  0  0  0  0  0
   37.6030   24.0360   34.0130 F   0  0  0  0  0  0  0  0  0  0  0  0
   39.4620   23.6450   32.8770 F   0  0  0  0  0  0  0  0  0  0  0  0
   40.6270   25.6660   33.5640 O   0  0  0  0  0  0  0  0  0  0  0  0
   41.7030   26.1310   34.1000 C   0  0  0  0  0  0  0  0  0  0  0  0
   41.5950   27.5310   34.2010 F   0  0  0  0  0  0  0  0  0  0  0  0
   42.8190   25.9650   33.2740 F   0  0  0  0  0  0  0  0  0  0  0  0
   42.1420   25.7940   35.3470 F   0  0  0  0  0  0  0  0  0  0  0  0
   40.9100   22.1059   36.7356 H   0  0  0  0  0  0  0  0  0  0  0  0
   39.1782   21.7379   38.5654 H   0  0  0  0  0  0  0  0  0  0  0  0
   37.3211   23.4264   38.7654 H   0  0  0  0  0  0  0  0  0  0  0  0
   37.5754   26.8380   36.6106 H   0  0  0  0  0  0  0  0  0  0  0  0
   39.1331   27.6989   36.2986 H   0  0  0  0  0  0  0  0  0  0  0  0
   36.6587   28.1462   35.1057 H   0  0  0  0  0  0  0  0  0  0  0  0
   38.3038   28.7899   34.6280 H   0  0  0  0  0  0  0  0  0  0  0  0
   39.5080   27.9216   33.4302 H   0  0  0  0  0  0  0  0  0  0  0  0
   41.4540   25.4269   29.8995 H   0  0  0  0  0  0  0  0  0  0  0  0
   38.8021   28.3446   27.3643 H   0  0  0  0  0  0  0  0  0  0  0  0
   36.9513   29.9395   27.9354 H   0  0  0  0  0  0  0  0  0  0  0  0
   36.2452   30.1013   30.3634 H   0  0  0  0  0  0  0  0  0  0  0  0
   37.3589   28.7366   32.0198 H   0  0  0  0  0  0  0  0  0  0  0  0
  1  2  2  0
  2  3  1  0
  4  3  2  0
  5  4  1  0
  6  5  2  0
  6  1  1  0
  7  8  1  0
  7  5  1  0
  9  8  1  0
 10  9  1  0
 11 10  1  0
 11 12  1  0
 12 27  1  1
 12  7  1  0
 13 11  1  0
 14 13  2  0
 15 14  1  0
 16 17  1  0
 16 15  2  0
 17 22  2  0
 18 19  2  0
 18 17  1  0
 19 20  1  0
 20 21  2  0
 22 21  1  0
 22 13  1  0
 23 12  1  0
 23 25  1  0
 24 23  1  0
 26 23  1  0
 27 28  1  0
 28 29  1  0
 28 31  1  0
 30 28  1  0
  1 32  1  0
  2 33  1  0
  3 34  1  0
  8 35  1  0
  8 36  1  0
  9 37  1  0
  9 38  1  0
 11 39  1  1
 15 40  1  0
 18 41  1  0
 19 42  1  0
 20 43  1  0
 21 44  1  0
M  ISO  8  32  14  33  14  34  14  35  13  36  13  37  13  38  13  39  13
M  ISO  5  40  14  41  14  42  14  43  14  44  14
M  END
>  <minimizedAffinity>  (1) 
-5.53942013

>  <minimizedRMSD>  (1) 
2.56726217

$$$$
