
     RDKit          3D

 41 44  0  0  1  0  0  0  0  0999 V2000
   39.9340   23.1230   36.7240 C   0  0  0  0  0  0  0  0  0  0  0  0
   38.9330   22.7590   37.6840 C   0  0  0  0  0  0  0  0  0  0  0  0
   37.7690   23.4930   37.6830 C   0  0  0  0  0  0  0  0  0  0  0  0
   37.6580   24.4980   36.7810 N   0  0  0  0  0  0  0  0  0  0  0  0
   38.6360   24.8110   35.8830 C   0  0  0  0  0  0  0  0  0  0  0  0
   39.7420   24.1270   35.8710 N   0  0  0  0  0  0  0  0  0  0  0  0
   38.3950   25.8880   34.9840 N   0  0  0  0  0  0  0  0  0  0  0  0
   37.5640   27.0070   35.4550 C   0  0  0  0  0  0  0  0  0  0  0  0
   36.8760   27.6740   34.3060 C   0  0  0  0  0  0  0  0  0  0  0  0
   36.9970   26.9790   33.1080 O   0  0  0  0  0  0  0  0  0  0  0  0
   38.3710   26.9860   32.8420 C   0  0  1  0  0  0  0  0  0  0  0  0
   38.9590   25.8460   33.6730 C   0  0  2  0  0  0  0  0  0  0  0  0
   38.6820   27.0280   31.4680 N   0  0  0  0  0  0  0  0  0  0  0  0
   39.4030   26.3400   30.5690 C   0  0  0  0  0  0  0  0  0  0  0  0
   39.3430   26.8670   29.3310 N   0  0  0  0  0  0  0  0  0  0  0  0
   38.5640   27.9390   29.3850 C   0  0  0  0  0  0  0  0  0  0  0  0
   38.1950   28.8130   28.3880 C   0  0  0  0  0  0  0  0  0  0  0  0
   37.3880   29.8290   28.7070 N   0  0  0  0  0  0  0  0  0  0  0  0
   36.9690   29.9610   29.9790 C   0  0  0  0  0  0  0  0  0  0  0  0
   37.3340   29.1040   30.9460 N   0  0  0  0  0  0  0  0  0  0  0  0
   38.1560   28.0420   30.6940 C   0  0  0  0  0  0  0  0  0  0  0  0
   38.3890   24.5860   32.9610 C   0  0  0  0  0  0  0  0  0  0  0  0
   38.0500   24.9940   31.7150 F   0  0  0  0  0  0  0  0  0  0  0  0
   37.5130   23.8480   33.6460 F   0  0  0  0  0  0  0  0  0  0  0  0
   39.5190   23.7340   32.7250 F   0  0  0  0  0  0  0  0  0  0  0  0
   40.2600   25.9710   33.4110 O   0  0  0  0  0  0  0  0  0  0  0  0
   41.1770   26.7030   33.9520 C   0  0  0  0  0  0  0  0  0  0  0  0
   40.6530   27.2170   35.1570 F   0  0  0  0  0  0  0  0  0  0  0  0
   41.4180   27.8560   33.2060 F   0  0  0  0  0  0  0  0  0  0  0  0
   42.3970   26.2470   34.3340 F   0  0  0  0  0  0  0  0  0  0  0  0
   40.8794   22.5615   36.6917 H   0  0  0  0  0  0  0  0  0  0  0  0
   39.0886   21.9299   38.3899 H   0  0  0  0  0  0  0  0  0  0  0  0
   36.9563   23.2714   38.3904 H   0  0  0  0  0  0  0  0  0  0  0  0
   36.8077   26.6250   36.1565 H   0  0  0  0  0  0  0  0  0  0  0  0
   38.2112   27.7424   35.9553 H   0  0  0  0  0  0  0  0  0  0  0  0
   35.8070   27.7682   34.5474 H   0  0  0  0  0  0  0  0  0  0  0  0
   37.3591   28.6518   34.1630 H   0  0  0  0  0  0  0  0  0  0  0  0
   38.8590   27.9210   33.1546 H   0  0  0  0  0  0  0  0  0  0  0  0
   39.9829   25.4389   30.8176 H   0  0  0  0  0  0  0  0  0  0  0  0
   38.5545   28.6788   27.3571 H   0  0  0  0  0  0  0  0  0  0  0  0
   36.3048   30.7996   30.2352 H   0  0  0  0  0  0  0  0  0  0  0  0
  1  2  2  0
  3  2  1  0
  4  3  2  0
  5  4  1  0
  6  5  2  0
  6  1  1  0
  7  8  1  0
  7  5  1  0
  9  8  1  0
 10  9  1  0
 11 10  1  0
 11 12  1  0
 12 26  1  1
 12  7  1  0
 13 11  1  0
 14 13  1  0
 15 16  1  0
 15 14  2  0
 16 21  2  0
 17 18  2  0
 17 16  1  0
 18 19  1  0
 19 20  2  0
 21 20  1  0
 21 13  1  0
 22 24  1  0
 22 12  1  0
 23 22  1  0
 25 22  1  0
 26 27  1  0
 27 30  1  0
 27 28  1  0
 29 27  1  0
  1 31  1  0
  2 32  1  0
  3 33  1  0
  8 34  1  0
  8 35  1  0
  9 36  1  0
  9 37  1  0
 11 38  1  1
 14 39  1  0
 17 40  1  0
 19 41  1  0
M  ISO  8  31  14  32  14  33  14  34  13  35  13  36  13  37  13  38  13
M  ISO  3  39  14  40  14  41  14
M  END
>  <minimizedAffinity>  (1) 
-5.71113777

>  <minimizedRMSD>  (1) 
2.58715391

$$$$
