
     RDKit          3D

 42 46  0  0  0  0  0  0  0  0999 V2000
   38.6150   23.9380   36.8180 C   0  0  0  0  0  0  0  0  0  0  0  0
   39.9200   23.4940   36.5710 C   0  0  0  0  0  0  0  0  0  0  0  0
   40.6300   24.1130   35.5080 C   0  0  0  0  0  0  0  0  0  0  0  0
   40.0130   25.0800   34.8060 N   0  0  0  0  0  0  0  0  0  0  0  0
   38.7610   25.4830   35.0660 C   0  0  0  0  0  0  0  0  0  0  0  0
   38.0590   24.9180   36.0680 N   0  0  0  0  0  0  0  0  0  0  0  0
   38.0620   26.5070   34.3480 N   0  0  0  0  0  0  0  0  0  0  0  0
   36.9830   27.1790   34.7480 C   0  0  0  0  0  0  0  0  0  0  0  0
   36.4450   28.1280   33.9260 C   0  0  0  0  0  0  0  0  0  0  0  0
   37.0000   28.3940   32.7090 C   0  0  0  0  0  0  0  0  0  0  0  0
   36.5210   29.2650   31.9350 O   0  0  0  0  0  0  0  0  0  0  0  0
   38.0910   27.7020   32.3240 N   0  0  0  0  0  0  0  0  0  0  0  0
   38.6140   26.7680   33.1410 C   0  0  0  0  0  0  0  0  0  0  0  0
   39.6570   26.1780   32.6580 O   0  0  0  0  0  0  0  0  0  0  0  0
   38.6550   27.9930   31.0500 C   0  0  0  0  0  0  0  0  0  0  0  0
   39.7910   27.4260   30.6270 N   0  0  0  0  0  0  0  0  0  0  0  0
   40.0970   27.8530   29.4370 O   0  0  0  0  0  0  0  0  0  0  0  0
   39.1500   28.6970   29.1020 C   0  0  0  0  0  0  0  0  0  0  0  0
   38.2330   28.8090   30.0870 N   0  0  0  0  0  0  0  0  0  0  0  0
   39.1120   29.4070   27.8310 C   0  0  0  0  0  0  0  0  0  0  0  0
   39.8660   29.1100   26.7140 C   0  0  0  0  0  0  0  0  0  0  0  0
   39.5650   29.9800   25.7290 N   0  0  0  0  0  0  0  0  0  0  0  0
   38.6270   30.8470   26.1720 C   0  0  0  0  0  0  0  0  0  0  0  0
   37.9320   31.9360   25.6470 C   0  0  0  0  0  0  0  0  0  0  0  0
   37.0010   32.6100   26.4430 C   0  0  0  0  0  0  0  0  0  0  0  0
   36.7470   32.2210   27.7510 C   0  0  0  0  0  0  0  0  0  0  0  0
   37.4310   31.1460   28.2720 C   0  0  0  0  0  0  0  0  0  0  0  0
   38.3430   30.4950   27.4750 C   0  0  0  0  0  0  0  0  0  0  0  0
   37.8300   23.3190   37.9230 C   0  0  0  0  0  0  0  0  0  0  0  0
   38.6400   22.5390   38.7560 F   0  0  0  0  0  0  0  0  0  0  0  0
   37.2610   24.2940   38.7080 F   0  0  0  0  0  0  0  0  0  0  0  0
   36.8250   22.5210   37.3720 F   0  0  0  0  0  0  0  0  0  0  0  0
   40.3771   22.6973   37.1763 H   0  0  0  0  0  0  0  0  0  0  0  0
   41.6589   23.8090   35.2650 H   0  0  0  0  0  0  0  0  0  0  0  0
   36.5307   26.9718   35.7291 H   0  0  0  0  0  0  0  0  0  0  0  0
   35.5531   28.6846   34.2496 H   0  0  0  0  0  0  0  0  0  0  0  0
   40.5976   28.2920   26.6391 H   0  0  0  0  0  0  0  0  0  0  0  0
   39.9835   29.9836   24.7879 H   0  0  0  0  0  0  0  0  0  0  0  0
   38.1152   32.2628   24.6128 H   0  0  0  0  0  0  0  0  0  0  0  0
   36.4570   33.4688   26.0228 H   0  0  0  0  0  0  0  0  0  0  0  0
   36.0104   32.7634   28.3619 H   0  0  0  0  0  0  0  0  0  0  0  0
   37.2516   30.8144   29.3054 H   0  0  0  0  0  0  0  0  0  0  0  0
  1 29  1  0
  2  1  2  0
  3  2  1  0
  4  5  1  0
  4  3  2  0
  5  6  2  0
  6  1  1  0
  7  8  1  0
  7  5  1  0
  9  8  2  0
 10  9  1  0
 11 10  2  0
 12 10  1  0
 12 13  1  0
 13  7  1  0
 14 13  2  0
 15 12  1  0
 16 15  2  0
 17 16  1  0
 18 17  1  0
 18 19  2  0
 19 15  1  0
 20 18  1  0
 21 20  2  0
 22 23  1  0
 22 21  1  0
 23 28  2  0
 24 23  1  0
 24 25  2  0
 25 26  1  0
 26 27  2  0
 28 20  1  0
 28 27  1  0
 29 31  1  0
 29 30  1  0
 32 29  1  0
  2 33  1  0
  3 34  1  0
  8 35  1  0
  9 36  1  0
 21 37  1  0
 22 38  1  0
 24 39  1  0
 25 40  1  0
 26 41  1  0
 27 42  1  0
M  ISO  8  33  14  34  14  35  14  36  14  37  14  38   9  39  14  40  14
M  ISO  2  41  14  42  14
M  END
>  <minimizedAffinity>  (1) 
-6.2730794

>  <minimizedRMSD>  (1) 
1.26659775

$$$$
