
     RDKit          3D

 43 45  0  0  1  0  0  0  0  0999 V2000
   39.8280   23.0170   37.7410 C   0  0  0  0  0  0  0  0  0  0  0  0
   38.7740   23.0830   38.7120 C   0  0  0  0  0  0  0  0  0  0  0  0
   37.6480   23.7970   38.3680 C   0  0  0  0  0  0  0  0  0  0  0  0
   37.6210   24.3780   37.1400 N   0  0  0  0  0  0  0  0  0  0  0  0
   38.6460   24.2870   36.2470 C   0  0  0  0  0  0  0  0  0  0  0  0
   39.7140   23.6200   36.5570 N   0  0  0  0  0  0  0  0  0  0  0  0
   38.4970   24.9390   34.9930 N   0  0  0  0  0  0  0  0  0  0  0  0
   37.7030   26.1820   34.9490 C   0  0  0  0  0  0  0  0  0  0  0  0
   37.1060   26.3830   33.6000 C   0  0  0  0  0  0  0  0  0  0  0  0
   37.2310   25.2710   32.7860 O   0  0  0  0  0  0  0  0  0  0  0  0
   38.6200   25.1330   32.6000 C   0  0  1  0  0  0  0  0  0  0  0  0
   39.1080   24.3810   33.8260 C   0  0  2  0  0  0  0  0  0  0  0  0
   38.8260   24.6550   31.3180 N   0  0  0  0  0  0  0  0  0  0  0  0
   38.9450   23.3760   30.8570 C   0  0  0  0  0  0  0  0  0  0  0  0
   39.1660   22.9590   29.5650 C   0  0  0  0  0  0  0  0  0  0  0  0
   39.2720   21.5320   29.2240 C   0  0  0  0  0  0  0  0  0  0  0  0
   39.2880   23.9310   28.5980 C   0  0  0  0  0  0  0  0  0  0  0  0
   39.4910   23.6650   27.3940 O   0  0  0  0  0  0  0  0  0  0  0  0
   39.1830   25.2150   28.9760 N   0  0  0  0  0  0  0  0  0  0  0  0
   38.9680   25.5190   30.2500 C   0  0  0  0  0  0  0  0  0  0  0  0
   38.8850   26.7720   30.4970 O   0  0  0  0  0  0  0  0  0  0  0  0
   38.5130   22.9600   33.6300 C   0  0  0  0  0  0  0  0  0  0  0  0
   37.6710   23.0750   32.5760 F   0  0  0  0  0  0  0  0  0  0  0  0
   38.0800   22.3310   34.7240 F   0  0  0  0  0  0  0  0  0  0  0  0
   39.5790   22.1620   33.1100 F   0  0  0  0  0  0  0  0  0  0  0  0
   40.4270   24.3580   33.6430 O   0  0  0  0  0  0  0  0  0  0  0  0
   41.3420   25.2580   33.8170 C   0  0  0  0  0  0  0  0  0  0  0  0
   41.9360   25.5160   32.5630 F   0  0  0  0  0  0  0  0  0  0  0  0
   42.4250   24.7430   34.5500 F   0  0  0  0  0  0  0  0  0  0  0  0
   41.1100   26.4880   34.3080 F   0  0  0  0  0  0  0  0  0  0  0  0
   40.7462   22.4593   37.9772 H   0  0  0  0  0  0  0  0  0  0  0  0
   38.8615   22.5849   39.6888 H   0  0  0  0  0  0  0  0  0  0  0  0
   36.8005   23.8936   39.0626 H   0  0  0  0  0  0  0  0  0  0  0  0
   36.8964   26.1208   35.6944 H   0  0  0  0  0  0  0  0  0  0  0  0
   38.3665   27.0311   35.1700 H   0  0  0  0  0  0  0  0  0  0  0  0
   36.0368   26.6123   33.7197 H   0  0  0  0  0  0  0  0  0  0  0  0
   37.6495   27.2087   33.1176 H   0  0  0  0  0  0  0  0  0  0  0  0
   39.2478   26.0361   32.5845 H   0  0  0  0  0  0  0  0  0  0  0  0
   38.8528   22.5808   31.6114 H   0  0  0  0  0  0  0  0  0  0  0  0
   39.3162   20.9366   30.1478 H   0  0  0  0  0  0  0  0  0  0  0  0
   38.3938   21.2296   28.6346 H   0  0  0  0  0  0  0  0  0  0  0  0
   40.1852   21.3627   28.6346 H   0  0  0  0  0  0  0  0  0  0  0  0
   39.2695   25.9656   28.2760 H   0  0  0  0  0  0  0  0  0  0  0  0
  1  2  2  0
  3  2  1  0
  4  3  2  0
  5  6  2  0
  5  4  1  0
  6  1  1  0
  7  5  1  0
  8  7  1  0
  9  8  1  0
 10  9  1  0
 11 10  1  0
 11 12  1  0
 12 26  1  1
 12  7  1  0
 13 11  1  0
 14 13  1  0
 15 14  2  0
 16 15  1  0
 17 19  1  0
 17 15  1  0
 18 17  2  0
 19 20  1  0
 20 21  2  0
 20 13  1  0
 22 12  1  0
 22 24  1  0
 23 22  1  0
 25 22  1  0
 26 27  1  0
 27 30  1  0
 27 29  1  0
 28 27  1  0
  1 31  1  0
  2 32  1  0
  3 33  1  0
  8 34  1  0
  8 35  1  0
  9 36  1  0
  9 37  1  0
 11 38  1  6
 14 39  1  0
 16 40  1  0
 16 41  1  0
 16 42  1  0
 19 43  1  0
M  ISO  8  31  14  32  14  33  14  34  13  35  13  36  13  37  13  38  13
M  ISO  5  39  14  40   8  41   8  42   8  43   9
M  END
>  <minimizedAffinity>  (1) 
-5.21239614

>  <minimizedRMSD>  (1) 
0.905820668

$$$$
