
     RDKit          3D

 46 48  0  0  1  0  0  0  0  0999 V2000
   40.7020   22.8390   36.5350 C   0  0  0  0  0  0  0  0  0  0  0  0
   39.9630   22.5060   37.7130 C   0  0  0  0  0  0  0  0  0  0  0  0
   38.8550   23.2900   38.0090 C   0  0  0  0  0  0  0  0  0  0  0  0
   38.5720   24.3050   37.1530 N   0  0  0  0  0  0  0  0  0  0  0  0
   39.3040   24.5850   36.0420 C   0  0  0  0  0  0  0  0  0  0  0  0
   40.3430   23.8580   35.7540 N   0  0  0  0  0  0  0  0  0  0  0  0
   38.8920   25.6750   35.2350 N   0  0  0  0  0  0  0  0  0  0  0  0
   38.2510   26.8130   35.9030 C   0  0  0  0  0  0  0  0  0  0  0  0
   37.3270   27.5160   34.9670 C   0  0  0  0  0  0  0  0  0  0  0  0
   37.1400   26.8630   33.7480 O   0  0  0  0  0  0  0  0  0  0  0  0
   38.3960   26.7810   33.1820 C   0  0  1  0  0  0  0  0  0  0  0  0
   39.1220   25.6130   33.8130 C   0  0  2  0  0  0  0  0  0  0  0  0
   38.3440   27.0170   31.7840 C   0  0  0  0  0  0  0  0  0  0  0  0
   37.0880   27.9550   31.6430 C   0  0  0  0  0  0  0  0  0  0  0  0
   36.6390   28.0750   30.2490 C   0  0  0  0  0  0  0  0  0  0  0  0
   37.7190   28.6450   29.3850 C   0  0  0  0  0  0  0  0  0  0  0  0
   39.0440   27.9470   29.5860 C   0  0  0  0  0  0  0  0  0  0  0  0
   39.3700   27.8140   31.0790 C   0  0  0  0  0  0  0  0  0  0  0  0
   38.3310   24.3860   33.2830 C   0  0  0  0  0  0  0  0  0  0  0  0
   39.2620   23.4200   33.1280 F   0  0  0  0  0  0  0  0  0  0  0  0
   37.4600   24.5930   32.3050 F   0  0  0  0  0  0  0  0  0  0  0  0
   37.5790   23.9210   34.4130 F   0  0  0  0  0  0  0  0  0  0  0  0
   40.3230   25.6920   33.2550 O   0  0  0  0  0  0  0  0  0  0  0  0
   41.3990   26.3150   33.6010 C   0  0  0  0  0  0  0  0  0  0  0  0
   41.0570   27.6270   33.9710 F   0  0  0  0  0  0  0  0  0  0  0  0
   42.2550   26.5130   32.5150 F   0  0  0  0  0  0  0  0  0  0  0  0
   42.2070   25.9260   34.6280 F   0  0  0  0  0  0  0  0  0  0  0  0
   41.5859   22.2414   36.2674 H   0  0  0  0  0  0  0  0  0  0  0  0
   40.2592   21.6650   38.3573 H   0  0  0  0  0  0  0  0  0  0  0  0
   38.2350   23.0971   38.8969 H   0  0  0  0  0  0  0  0  0  0  0  0
   37.6800   26.4490   36.7699 H   0  0  0  0  0  0  0  0  0  0  0  0
   39.0296   27.5178   36.2302 H   0  0  0  0  0  0  0  0  0  0  0  0
   36.3480   27.6152   35.4587 H   0  0  0  0  0  0  0  0  0  0  0  0
   37.7895   28.4872   34.7370 H   0  0  0  0  0  0  0  0  0  0  0  0
   39.0941   27.5975   33.4186 H   0  0  0  0  0  0  0  0  0  0  0  0
   38.4139   26.0094   31.3484 H   0  0  0  0  0  0  0  0  0  0  0  0
   36.2665   27.5400   32.2454 H   0  0  0  0  0  0  0  0  0  0  0  0
   37.3741   28.9577   31.9933 H   0  0  0  0  0  0  0  0  0  0  0  0
   36.3653   27.0784   29.8722 H   0  0  0  0  0  0  0  0  0  0  0  0
   35.7716   28.7507   30.2172 H   0  0  0  0  0  0  0  0  0  0  0  0
   37.8405   29.7109   29.6280 H   0  0  0  0  0  0  0  0  0  0  0  0
   37.4201   28.5030   28.3359 H   0  0  0  0  0  0  0  0  0  0  0  0
   38.9947   26.9440   29.1371 H   0  0  0  0  0  0  0  0  0  0  0  0
   39.8329   28.5440   29.1052 H   0  0  0  0  0  0  0  0  0  0  0  0
   40.3464   27.3197   31.1899 H   0  0  0  0  0  0  0  0  0  0  0  0
   39.3912   28.8212   31.5207 H   0  0  0  0  0  0  0  0  0  0  0  0
  1  2  2  0
  2  3  1  0
  4  3  2  0
  5  4  1  0
  6  5  2  0
  6  1  1  0
  7  8  1  0
  7  5  1  0
  9  8  1  0
 10  9  1  0
 11 10  1  0
 11 12  1  0
 12 23  1  1
 12  7  1  0
 13 11  1  0
 14 13  1  0
 15 14  1  0
 16 17  1  0
 16 15  1  0
 17 18  1  0
 18 13  1  0
 19 12  1  0
 19 22  1  0
 20 19  1  0
 21 19  1  0
 23 24  1  0
 24 25  1  0
 24 27  1  0
 26 24  1  0
  1 28  1  0
  2 29  1  0
  3 30  1  0
  8 31  1  0
  8 32  1  0
  9 33  1  0
  9 34  1  0
 11 35  1  1
 13 36  1  0
 14 37  1  0
 14 38  1  0
 15 39  1  0
 15 40  1  0
 16 41  1  0
 16 42  1  0
 17 43  1  0
 17 44  1  0
 18 45  1  0
 18 46  1  0
M  ISO  8  28  14  29  14  30  14  31  13  32  13  33  13  34  13  35  13
M  ISO  8  36  13  37  13  38  13  39  13  40  13  41  13  42  13  43  13
M  ISO  3  44  13  45  13  46  13
M  END
>  <minimizedAffinity>  (1) 
-5.22671223

>  <minimizedRMSD>  (1) 
2.96438813

$$$$
