
     RDKit          3D

 43 45  0  0  1  0  0  0  0  0999 V2000
   40.1040   23.1770   36.4960 C   0  0  0  0  0  0  0  0  0  0  0  0
   39.2570   22.9260   37.6190 C   0  0  0  0  0  0  0  0  0  0  0  0
   38.1790   23.7840   37.8040 C   0  0  0  0  0  0  0  0  0  0  0  0
   38.0180   24.7890   36.9050 N   0  0  0  0  0  0  0  0  0  0  0  0
   38.8600   24.9860   35.8430 C   0  0  0  0  0  0  0  0  0  0  0  0
   39.8710   24.1890   35.6620 N   0  0  0  0  0  0  0  0  0  0  0  0
   38.5830   26.0720   34.9760 N   0  0  0  0  0  0  0  0  0  0  0  0
   37.9550   27.2670   35.5530 C   0  0  0  0  0  0  0  0  0  0  0  0
   37.1580   27.9980   34.5280 C   0  0  0  0  0  0  0  0  0  0  0  0
   37.0150   27.3090   33.3180 O   0  0  0  0  0  0  0  0  0  0  0  0
   38.3110   27.1430   32.8520 C   0  0  1  0  0  0  0  0  0  0  0  0
   38.9210   25.9650   33.5950 C   0  0  2  0  0  0  0  0  0  0  0  0
   38.3610   27.2490   31.4300 C   0  0  0  0  0  0  0  0  0  0  0  0
   39.4320   28.0140   30.7660 C   0  0  0  0  0  0  0  0  0  0  0  0
   38.9440   28.0200   29.3210 C   0  0  0  0  0  0  0  0  0  0  0  0
   37.4560   28.2640   29.5200 C   0  0  0  0  0  0  0  0  0  0  0  0
   37.2430   28.2830   31.0170 C   0  0  0  0  0  0  0  0  0  0  0  0
   38.0950   24.7580   33.0240 C   0  0  0  0  0  0  0  0  0  0  0  0
   36.8180   24.9910   33.4020 F   0  0  0  0  0  0  0  0  0  0  0  0
   38.5950   23.5440   33.2000 F   0  0  0  0  0  0  0  0  0  0  0  0
   38.0510   24.9730   31.6100 F   0  0  0  0  0  0  0  0  0  0  0  0
   40.1540   25.9450   33.1170 O   0  0  0  0  0  0  0  0  0  0  0  0
   41.2460   26.4760   33.5480 C   0  0  0  0  0  0  0  0  0  0  0  0
   41.0770   27.8710   33.5550 F   0  0  0  0  0  0  0  0  0  0  0  0
   42.2980   26.2970   32.6450 F   0  0  0  0  0  0  0  0  0  0  0  0
   41.7820   26.2480   34.7760 F   0  0  0  0  0  0  0  0  0  0  0  0
   40.9676   22.5199   36.3162 H   0  0  0  0  0  0  0  0  0  0  0  0
   39.4496   22.0900   38.3074 H   0  0  0  0  0  0  0  0  0  0  0  0
   37.4833   23.6539   38.6461 H   0  0  0  0  0  0  0  0  0  0  0  0
   37.2910   26.9630   36.3756 H   0  0  0  0  0  0  0  0  0  0  0  0
   38.7465   27.9349   35.9239 H   0  0  0  0  0  0  0  0  0  0  0  0
   36.1552   28.1858   34.9393 H   0  0  0  0  0  0  0  0  0  0  0  0
   37.7049   28.9254   34.3026 H   0  0  0  0  0  0  0  0  0  0  0  0
   39.0096   27.9577   33.0933 H   0  0  0  0  0  0  0  0  0  0  0  0
   38.3775   26.1842   31.1546 H   0  0  0  0  0  0  0  0  0  0  0  0
   39.5075   29.0345   31.1697 H   0  0  0  0  0  0  0  0  0  0  0  0
   40.4379   27.5895   30.8998 H   0  0  0  0  0  0  0  0  0  0  0  0
   39.1329   27.0557   28.8265 H   0  0  0  0  0  0  0  0  0  0  0  0
   39.4430   28.7584   28.6763 H   0  0  0  0  0  0  0  0  0  0  0  0
   37.1626   29.2277   29.0783 H   0  0  0  0  0  0  0  0  0  0  0  0
   36.8478   27.4879   29.0324 H   0  0  0  0  0  0  0  0  0  0  0  0
   37.4214   29.2793   31.4477 H   0  0  0  0  0  0  0  0  0  0  0  0
   36.2243   28.0435   31.3560 H   0  0  0  0  0  0  0  0  0  0  0  0
  1  2  2  0
  2  3  1  0
  4  3  2  0
  5  4  1  0
  6  5  2  0
  6  1  1  0
  7  8  1  0
  7  5  1  0
  9  8  1  0
 10  9  1  0
 11 10  1  0
 11 12  1  0
 12 22  1  1
 12  7  1  0
 13 11  1  0
 14 13  1  0
 15 16  1  0
 15 14  1  0
 16 17  1  0
 17 13  1  0
 18 20  1  0
 18 19  1  0
 18 12  1  0
 21 18  1  0
 22 23  1  0
 23 24  1  0
 23 26  1  0
 25 23  1  0
  1 27  1  0
  2 28  1  0
  3 29  1  0
  8 30  1  0
  8 31  1  0
  9 32  1  0
  9 33  1  0
 11 34  1  1
 13 35  1  0
 14 36  1  0
 14 37  1  0
 15 38  1  0
 15 39  1  0
 16 40  1  0
 16 41  1  0
 17 42  1  0
 17 43  1  0
M  ISO  8  27  14  28  14  29  14  30  13  31  13  32  13  33  13  34  13
M  ISO  8  35  13  36  13  37  13  38  13  39  13  40  13  41  13  42  13
M  ISO  1  43  13
M  END
>  <minimizedAffinity>  (1) 
-4.92819214

>  <minimizedRMSD>  (1) 
2.88372874

$$$$
