
     RDKit          3D

 42 43  0  0  1  0  0  0  0  0999 V2000
   39.9140   23.1100   37.0110 C   0  0  0  0  0  0  0  0  0  0  0  0
   39.0700   23.0320   38.1620 C   0  0  0  0  0  0  0  0  0  0  0  0
   37.9980   23.8890   38.2120 C   0  0  0  0  0  0  0  0  0  0  0  0
   37.8240   24.7350   37.1760 N   0  0  0  0  0  0  0  0  0  0  0  0
   38.6490   24.7830   36.0920 C   0  0  0  0  0  0  0  0  0  0  0  0
   39.6670   23.9780   36.0310 N   0  0  0  0  0  0  0  0  0  0  0  0
   38.3580   25.7090   35.0710 N   0  0  0  0  0  0  0  0  0  0  0  0
   37.7210   26.9850   35.4530 C   0  0  0  0  0  0  0  0  0  0  0  0
   36.8910   27.5170   34.3300 C   0  0  0  0  0  0  0  0  0  0  0  0
   36.7890   26.6640   33.2520 O   0  0  0  0  0  0  0  0  0  0  0  0
   38.0930   26.4480   32.8080 C   0  0  1  0  0  0  0  0  0  0  0  0
   38.6960   25.3720   33.7080 C   0  0  2  0  0  0  0  0  0  0  0  0
   37.8880   24.1070   33.3410 C   0  0  0  0  0  0  0  0  0  0  0  0
   36.8450   24.5570   32.6280 F   0  0  0  0  0  0  0  0  0  0  0  0
   37.6590   23.2270   34.3070 F   0  0  0  0  0  0  0  0  0  0  0  0
   38.6930   23.4360   32.3590 F   0  0  0  0  0  0  0  0  0  0  0  0
   38.3270   26.7150   31.4640 C   0  0  0  0  0  0  0  0  0  0  0  0
   39.2210   27.7060   30.8280 C   0  0  0  0  0  0  0  0  0  0  0  0
   36.9440   27.3470   30.9250 C   0  0  0  0  0  0  0  0  0  0  0  0
   38.3080   25.4580   30.6030 C   0  0  0  0  0  0  0  0  0  0  0  0
   39.9340   25.3220   33.2630 O   0  0  0  0  0  0  0  0  0  0  0  0
   41.0050   25.9580   33.5610 C   0  0  0  0  0  0  0  0  0  0  0  0
   40.6660   27.2970   33.8650 F   0  0  0  0  0  0  0  0  0  0  0  0
   41.8530   26.1210   32.4600 F   0  0  0  0  0  0  0  0  0  0  0  0
   41.8150   25.6460   34.6090 F   0  0  0  0  0  0  0  0  0  0  0  0
   40.7836   22.4409   36.9330 H   0  0  0  0  0  0  0  0  0  0  0  0
   39.2705   22.3163   38.9729 H   0  0  0  0  0  0  0  0  0  0  0  0
   37.3057   23.8856   39.0668 H   0  0  0  0  0  0  0  0  0  0  0  0
   37.0784   26.8195   36.3303 H   0  0  0  0  0  0  0  0  0  0  0  0
   38.5077   27.7166   35.6893 H   0  0  0  0  0  0  0  0  0  0  0  0
   35.8783   27.7135   34.7120 H   0  0  0  0  0  0  0  0  0  0  0  0
   37.3927   28.4266   33.9682 H   0  0  0  0  0  0  0  0  0  0  0  0
   38.8807   27.2056   32.9329 H   0  0  0  0  0  0  0  0  0  0  0  0
   39.7416   28.2830   31.6065 H   0  0  0  0  0  0  0  0  0  0  0  0
   39.9602   27.1845   30.2022 H   0  0  0  0  0  0  0  0  0  0  0  0
   38.6264   28.3878   30.2022 H   0  0  0  0  0  0  0  0  0  0  0  0
   36.3145   27.6347   31.7800 H   0  0  0  0  0  0  0  0  0  0  0  0
   37.1605   28.2355   30.3137 H   0  0  0  0  0  0  0  0  0  0  0  0
   36.4139   26.6017   30.3137 H   0  0  0  0  0  0  0  0  0  0  0  0
   38.2946   24.5696   31.2515 H   0  0  0  0  0  0  0  0  0  0  0  0
   37.4098   25.4621   29.9680 H   0  0  0  0  0  0  0  0  0  0  0  0
   39.2059   25.4349   29.9680 H   0  0  0  0  0  0  0  0  0  0  0  0
  1  2  2  0
  2  3  1  0
  4  3  2  0
  5  4  1  0
  6  5  2  0
  6  1  1  0
  7  8  1  0
  7  5  1  0
  9  8  1  0
 10  9  1  0
 11 10  1  0
 11 12  1  0
 12 21  1  1
 12  7  1  0
 13 12  1  0
 13 15  1  0
 14 13  1  0
 16 13  1  0
 17 11  1  0
 18 17  1  0
 19 17  1  0
 20 17  1  0
 21 22  1  0
 22 23  1  0
 22 25  1  0
 24 22  1  0
  1 26  1  0
  2 27  1  0
  3 28  1  0
  8 29  1  0
  8 30  1  0
  9 31  1  0
  9 32  1  0
 11 33  1  1
 18 34  1  0
 18 35  1  0
 18 36  1  0
 19 37  1  0
 19 38  1  0
 19 39  1  0
 20 40  1  0
 20 41  1  0
 20 42  1  0
M  ISO  8  26  14  27  14  28  14  29  13  30  13  31  13  32  13  33  13
M  ISO  8  34   8  35   8  36   8  37   8  38   8  39   8  40   8  41   8
M  ISO  1  42   8
M  END
>  <minimizedAffinity>  (1) 
-5.01736689

>  <minimizedRMSD>  (1) 
1.78951776

$$$$
