
     RDKit          3D

 33 34  0  0  1  0  0  0  0  0999 V2000
   39.7220   22.8630   37.6000 C   0  0  0  0  0  0  0  0  0  0  0  0
   38.8960   23.3320   38.6700 C   0  0  0  0  0  0  0  0  0  0  0  0
   37.9080   24.2330   38.3520 C   0  0  0  0  0  0  0  0  0  0  0  0
   37.7920   24.6100   37.0520 N   0  0  0  0  0  0  0  0  0  0  0  0
   38.5980   24.1390   36.0640 C   0  0  0  0  0  0  0  0  0  0  0  0
   39.5390   23.2850   36.3510 N   0  0  0  0  0  0  0  0  0  0  0  0
   38.3710   24.6080   34.7430 N   0  0  0  0  0  0  0  0  0  0  0  0
   37.8620   25.9790   34.5750 C   0  0  0  0  0  0  0  0  0  0  0  0
   37.0600   26.0930   33.3170 C   0  0  0  0  0  0  0  0  0  0  0  0
   36.8460   24.8880   32.6720 O   0  0  0  0  0  0  0  0  0  0  0  0
   38.1020   24.3910   32.3730 C   0  0  1  0  0  0  0  0  0  0  0  0
   38.6450   23.7290   33.6370 C   0  0  2  0  0  0  0  0  0  0  0  0
   37.7070   22.4970   33.8000 C   0  0  0  0  0  0  0  0  0  0  0  0
   36.7950   22.6260   32.8020 F   0  0  0  0  0  0  0  0  0  0  0  0
   37.2680   22.2150   35.0190 F   0  0  0  0  0  0  0  0  0  0  0  0
   38.5000   21.3800   33.3840 F   0  0  0  0  0  0  0  0  0  0  0  0
   38.3400   23.8530   31.0650 C   0  0  0  0  0  0  0  0  0  0  0  0
   39.2330   24.4690   30.2200 F   0  0  0  0  0  0  0  0  0  0  0  0
   37.1570   24.0880   30.2430 F   0  0  0  0  0  0  0  0  0  0  0  0
   38.3060   22.4540   30.9040 F   0  0  0  0  0  0  0  0  0  0  0  0
   39.8530   23.3660   33.2510 O   0  0  0  0  0  0  0  0  0  0  0  0
   40.9830   23.9900   33.2740 C   0  0  0  0  0  0  0  0  0  0  0  0
   40.7560   25.3370   32.9440 F   0  0  0  0  0  0  0  0  0  0  0  0
   41.8220   23.5680   32.2380 F   0  0  0  0  0  0  0  0  0  0  0  0
   41.7850   24.1030   34.3710 F   0  0  0  0  0  0  0  0  0  0  0  0
   40.5232   22.1402   37.8136 H   0  0  0  0  0  0  0  0  0  0  0  0
   39.0454   22.9861   39.7035 H   0  0  0  0  0  0  0  0  0  0  0  0
   37.2346   24.6349   39.1233 H   0  0  0  0  0  0  0  0  0  0  0  0
   37.2250   26.2359   35.4342 H   0  0  0  0  0  0  0  0  0  0  0  0
   38.7163   26.6693   34.5145 H   0  0  0  0  0  0  0  0  0  0  0  0
   36.0818   26.5282   33.5693 H   0  0  0  0  0  0  0  0  0  0  0  0
   37.6404   26.7232   32.6271 H   0  0  0  0  0  0  0  0  0  0  0  0
   38.8018   25.2053   32.1338 H   0  0  0  0  0  0  0  0  0  0  0  0
  1  2  2  0
  3  2  1  0
  4  3  2  0
  5  6  2  0
  5  4  1  0
  6  1  1  0
  7  5  1  0
  8  7  1  0
  9  8  1  0
 10  9  1  0
 11 10  1  0
 11 12  1  0
 12 21  1  6
 12 13  1  0
 12  7  1  0
 13 15  1  0
 14 13  1  0
 16 13  1  0
 17 11  1  0
 18 17  1  0
 19 17  1  0
 20 17  1  0
 21 22  1  0
 22 25  1  0
 23 22  1  0
 24 22  1  0
  1 26  1  0
  2 27  1  0
  3 28  1  0
  8 29  1  0
  8 30  1  0
  9 31  1  0
  9 32  1  0
 11 33  1  6
M  ISO  8  26  14  27  14  28  14  29  13  30  13  31  13  32  13  33  13
M  END
>  <minimizedAffinity>  (1) 
-4.81864977

>  <minimizedRMSD>  (1) 
0.673930764

$$$$
