
     RDKit          3D

 39 42  0  0  0  0  0  0  0  0999 V2000
   38.6680   24.1000   36.4260 C   0  0  0  0  0  0  0  0  0  0  0  0
   39.9870   23.7540   36.1160 C   0  0  0  0  0  0  0  0  0  0  0  0
   40.6280   24.4770   35.0750 C   0  0  0  0  0  0  0  0  0  0  0  0
   39.9340   25.4510   34.4510 N   0  0  0  0  0  0  0  0  0  0  0  0
   38.6740   25.7580   34.7730 C   0  0  0  0  0  0  0  0  0  0  0  0
   38.0430   25.0850   35.7560 N   0  0  0  0  0  0  0  0  0  0  0  0
   37.8850   26.7750   34.1520 N   0  0  0  0  0  0  0  0  0  0  0  0
   36.7840   27.3620   34.6300 C   0  0  0  0  0  0  0  0  0  0  0  0
   36.1620   28.3270   33.8750 C   0  0  0  0  0  0  0  0  0  0  0  0
   36.6590   28.6810   32.6620 C   0  0  0  0  0  0  0  0  0  0  0  0
   36.0940   29.5640   31.9660 O   0  0  0  0  0  0  0  0  0  0  0  0
   37.7690   28.0820   32.1910 N   0  0  0  0  0  0  0  0  0  0  0  0
   38.3720   27.1400   32.9330 C   0  0  0  0  0  0  0  0  0  0  0  0
   39.4190   26.6400   32.3850 O   0  0  0  0  0  0  0  0  0  0  0  0
   38.2520   28.4840   30.9180 C   0  0  0  0  0  0  0  0  0  0  0  0
   39.3810   27.9690   30.3890 N   0  0  0  0  0  0  0  0  0  0  0  0
   39.6240   28.4830   29.2260 O   0  0  0  0  0  0  0  0  0  0  0  0
   38.6340   29.3390   29.0070 C   0  0  0  0  0  0  0  0  0  0  0  0
   37.7740   29.3520   30.0480 N   0  0  0  0  0  0  0  0  0  0  0  0
   38.6010   30.0820   27.7960 N   0  0  0  0  0  0  0  0  0  0  0  0
   37.6420   30.9490   27.4940 C   0  0  0  0  0  0  0  0  0  0  0  0
   37.5490   31.6990   26.3430 C   0  0  0  0  0  0  0  0  0  0  0  0
   38.5660   31.5130   25.4300 C   0  0  0  0  0  0  0  0  0  0  0  0
   38.5550   32.2420   24.2180 N   0  0  0  0  0  0  0  0  0  0  0  0
   39.5420   30.6480   25.7100 N   0  0  0  0  0  0  0  0  0  0  0  0
   39.5750   29.9420   26.8600 C   0  0  0  0  0  0  0  0  0  0  0  0
   40.5400   29.1450   27.0370 O   0  0  0  0  0  0  0  0  0  0  0  0
   37.9670   23.3530   37.5200 C   0  0  0  0  0  0  0  0  0  0  0  0
   38.8460   22.6110   38.2850 F   0  0  0  0  0  0  0  0  0  0  0  0
   37.3580   24.2610   38.3750 F   0  0  0  0  0  0  0  0  0  0  0  0
   36.9840   22.5420   36.9480 F   0  0  0  0  0  0  0  0  0  0  0  0
   40.5087   22.9517   36.6583 H   0  0  0  0  0  0  0  0  0  0  0  0
   41.6642   24.2485   34.7849 H   0  0  0  0  0  0  0  0  0  0  0  0
   36.3815   27.0770   35.6133 H   0  0  0  0  0  0  0  0  0  0  0  0
   35.2539   28.8168   34.2564 H   0  0  0  0  0  0  0  0  0  0  0  0
   36.8420   31.0814   28.2373 H   0  0  0  0  0  0  0  0  0  0  0  0
   36.7197   32.3991   26.1637 H   0  0  0  0  0  0  0  0  0  0  0  0
   37.7912   32.9048   24.0226 H   0  0  0  0  0  0  0  0  0  0  0  0
   39.3108   32.1101   23.5308 H   0  0  0  0  0  0  0  0  0  0  0  0
  1 28  1  0
  2  1  2  0
  3  2  1  0
  4  5  1  0
  4  3  2  0
  5  6  2  0
  6  1  1  0
  7  8  1  0
  7  5  1  0
  9  8  2  0
 10  9  1  0
 11 10  2  0
 12 10  1  0
 12 13  1  0
 13  7  1  0
 14 13  2  0
 15 12  1  0
 16 15  2  0
 17 16  1  0
 18 17  1  0
 18 19  2  0
 19 15  1  0
 20 18  1  0
 21 20  1  0
 22 21  2  0
 23 25  2  0
 23 22  1  0
 24 23  1  0
 25 26  1  0
 26 27  2  0
 26 20  1  0
 28 29  1  0
 28 30  1  0
 31 28  1  0
  2 32  1  0
  3 33  1  0
  8 34  1  0
  9 35  1  0
 21 36  1  0
 22 37  1  0
 24 38  1  0
 24 39  1  0
M  ISO  6  32  14  33  14  34  14  35  14  36  14  37  14
M  END
>  <minimizedAffinity>  (1) 
-6.18716717

>  <minimizedRMSD>  (1) 
0.984114587

$$$$
