
     RDKit          3D

 32 33  0  0  1  0  0  0  0  0999 V2000
   39.8990   22.9810   37.6510 C   0  0  0  0  0  0  0  0  0  0  0  0
   38.9300   23.1860   38.6760 C   0  0  0  0  0  0  0  0  0  0  0  0
   37.8160   23.9490   38.3470 C   0  0  0  0  0  0  0  0  0  0  0  0
   37.7370   24.4360   37.0830 N   0  0  0  0  0  0  0  0  0  0  0  0
   38.6990   24.2090   36.1350 C   0  0  0  0  0  0  0  0  0  0  0  0
   39.7420   23.4970   36.4340 N   0  0  0  0  0  0  0  0  0  0  0  0
   38.4980   24.7750   34.8440 N   0  0  0  0  0  0  0  0  0  0  0  0
   37.7800   26.0500   34.7440 C   0  0  0  0  0  0  0  0  0  0  0  0
   37.0960   26.1830   33.4310 C   0  0  0  0  0  0  0  0  0  0  0  0
   37.1100   25.0080   32.6600 O   0  0  0  0  0  0  0  0  0  0  0  0
   38.4470   24.7640   32.4300 C   0  0  1  0  0  0  0  0  0  0  0  0
   38.9920   24.0950   33.7020 C   0  0  2  0  0  0  0  0  0  0  0  0
   38.2730   22.6980   33.6470 C   0  0  0  0  0  0  0  0  0  0  0  0
   38.1600   22.3950   32.3220 F   0  0  0  0  0  0  0  0  0  0  0  0
   37.2210   22.5330   34.4330 F   0  0  0  0  0  0  0  0  0  0  0  0
   39.2630   21.7610   34.1050 F   0  0  0  0  0  0  0  0  0  0  0  0
   38.7850   24.0960   31.2160 N   0  0  0  0  0  0  0  0  0  0  0  0
   40.2780   23.9430   33.3980 O   0  0  0  0  0  0  0  0  0  0  0  0
   41.2890   24.7250   33.5930 C   0  0  0  0  0  0  0  0  0  0  0  0
   40.9370   26.0130   33.1340 F   0  0  0  0  0  0  0  0  0  0  0  0
   42.3570   24.3820   32.7490 F   0  0  0  0  0  0  0  0  0  0  0  0
   41.8340   24.9830   34.8060 F   0  0  0  0  0  0  0  0  0  0  0  0
   40.7961   22.3834   37.8704 H   0  0  0  0  0  0  0  0  0  0  0  0
   39.0581   22.7596   39.6819 H   0  0  0  0  0  0  0  0  0  0  0  0
   37.0261   24.1510   39.0854 H   0  0  0  0  0  0  0  0  0  0  0  0
   37.0291   26.1023   35.5461 H   0  0  0  0  0  0  0  0  0  0  0  0
   38.5094   26.8677   34.8399 H   0  0  0  0  0  0  0  0  0  0  0  0
   36.0486   26.4653   33.6132 H   0  0  0  0  0  0  0  0  0  0  0  0
   37.6459   26.9459   32.8604 H   0  0  0  0  0  0  0  0  0  0  0  0
   38.9475   25.7250   32.2405 H   0  0  0  0  0  0  0  0  0  0  0  0
   39.2395   23.1977   31.4335 H   0  0  0  0  0  0  0  0  0  0  0  0
   37.9294   23.9243   30.6689 H   0  0  0  0  0  0  0  0  0  0  0  0
  1  2  2  0
  3  2  1  0
  4  3  2  0
  5  6  2  0
  5  4  1  0
  6  1  1  0
  7  5  1  0
  8  7  1  0
  9  8  1  0
 10  9  1  0
 11 10  1  0
 11 12  1  0
 12 18  1  6
 12  7  1  0
 13 12  1  0
 13 16  1  0
 13 15  1  0
 14 13  1  0
 17 11  1  0
 18 19  1  0
 19 22  1  0
 20 19  1  0
 21 19  1  0
  1 23  1  0
  2 24  1  0
  3 25  1  0
  8 26  1  0
  8 27  1  0
  9 28  1  0
  9 29  1  0
 11 30  1  6
 17 31  1  0
 17 32  1  0
M  ISO  8  23  14  24  14  25  14  26  13  27  13  28  13  29  13  30  13
M  ISO  2  31   5  32   5
M  END
>  <minimizedAffinity>  (1) 
-4.30856943

>  <minimizedRMSD>  (1) 
0.0452380218

$$$$
