
     RDKit          3D

 32 33  0  0  1  0  0  0  0  0999 V2000
   39.8940   22.9710   37.6600 C   0  0  0  0  0  0  0  0  0  0  0  0
   38.9360   23.1970   38.6890 C   0  0  0  0  0  0  0  0  0  0  0  0
   37.8320   23.9720   38.3620 C   0  0  0  0  0  0  0  0  0  0  0  0
   37.7520   24.4520   37.0940 N   0  0  0  0  0  0  0  0  0  0  0  0
   38.7030   24.2040   36.1400 C   0  0  0  0  0  0  0  0  0  0  0  0
   39.7470   23.4770   36.4330 N   0  0  0  0  0  0  0  0  0  0  0  0
   38.4970   24.7640   34.8470 N   0  0  0  0  0  0  0  0  0  0  0  0
   37.7980   26.0410   34.7380 C   0  0  0  0  0  0  0  0  0  0  0  0
   37.0980   26.1730   33.4390 C   0  0  0  0  0  0  0  0  0  0  0  0
   37.1010   24.9960   32.6720 O   0  0  0  0  0  0  0  0  0  0  0  0
   38.4280   24.7340   32.4420 C   0  0  1  0  0  0  0  0  0  0  0  0
   38.9760   24.0630   33.7070 C   0  0  2  0  0  0  0  0  0  0  0  0
   38.2450   22.6780   33.6660 C   0  0  0  0  0  0  0  0  0  0  0  0
   38.0870   22.3750   32.3520 F   0  0  0  0  0  0  0  0  0  0  0  0
   37.1960   22.5290   34.4790 F   0  0  0  0  0  0  0  0  0  0  0  0
   39.2220   21.7260   34.1080 F   0  0  0  0  0  0  0  0  0  0  0  0
   38.7920   24.1040   31.1820 C   0  0  0  0  0  0  0  0  0  0  0  0
   38.5900   24.3030   29.9960 O   0  0  0  0  0  0  0  0  0  0  0  0
   40.2560   23.8930   33.3920 O   0  0  0  0  0  0  0  0  0  0  0  0
   41.2830   24.6490   33.5980 C   0  0  0  0  0  0  0  0  0  0  0  0
   40.9470   25.9570   33.1860 F   0  0  0  0  0  0  0  0  0  0  0  0
   42.3270   24.3170   32.7160 F   0  0  0  0  0  0  0  0  0  0  0  0
   41.8500   24.8660   34.8110 F   0  0  0  0  0  0  0  0  0  0  0  0
   40.7820   22.3612   37.8826 H   0  0  0  0  0  0  0  0  0  0  0  0
   39.0651   22.7765   39.6972 H   0  0  0  0  0  0  0  0  0  0  0  0
   37.0494   24.1898   39.1037 H   0  0  0  0  0  0  0  0  0  0  0  0
   37.0595   26.1137   35.5500 H   0  0  0  0  0  0  0  0  0  0  0  0
   38.5430   26.8471   34.8097 H   0  0  0  0  0  0  0  0  0  0  0  0
   36.0535   26.4567   33.6350 H   0  0  0  0  0  0  0  0  0  0  0  0
   37.6391   26.9351   32.8591 H   0  0  0  0  0  0  0  0  0  0  0  0
   38.9356   25.6934   32.2631 H   0  0  0  0  0  0  0  0  0  0  0  0
   39.4146   23.2113   31.3416 H   0  0  0  0  0  0  0  0  0  0  0  0
  1  2  2  0
  3  2  1  0
  4  3  2  0
  5  6  2  0
  5  4  1  0
  6  1  1  0
  7  5  1  0
  8  7  1  0
  9  8  1  0
 10  9  1  0
 11 10  1  0
 11 12  1  0
 12 19  1  6
 12  7  1  0
 13 12  1  0
 13 16  1  0
 13 15  1  0
 14 13  1  0
 17 11  1  0
 18 17  2  0
 19 20  1  0
 20 23  1  0
 21 20  1  0
 22 20  1  0
  1 24  1  0
  2 25  1  0
  3 26  1  0
  8 27  1  0
  8 28  1  0
  9 29  1  0
  9 30  1  0
 11 31  1  6
 17 32  1  0
M  ISO  8  24  14  25  14  26  14  27  13  28  13  29  13  30  13  31  13
M  ISO  1  32   6
M  END
>  <minimizedAffinity>  (1) 
-4.27510691

>  <minimizedRMSD>  (1) 
0.155863792

$$$$
