
     RDKit          3D

 48 52  0  0  1  0  0  0  0  0999 V2000
   39.8100   22.9410   37.6500 C   0  0  0  0  0  0  0  0  0  0  0  0
   38.9210   23.2540   38.7250 C   0  0  0  0  0  0  0  0  0  0  0  0
   37.8920   24.1240   38.4530 C   0  0  0  0  0  0  0  0  0  0  0  0
   37.7880   24.6250   37.1930 N   0  0  0  0  0  0  0  0  0  0  0  0
   38.6690   24.2900   36.1970 C   0  0  0  0  0  0  0  0  0  0  0  0
   39.6530   23.4650   36.4380 N   0  0  0  0  0  0  0  0  0  0  0  0
   38.4470   24.8860   34.9200 N   0  0  0  0  0  0  0  0  0  0  0  0
   37.8720   26.2340   34.8470 C   0  0  0  0  0  0  0  0  0  0  0  0
   37.0770   26.3910   33.5940 C   0  0  0  0  0  0  0  0  0  0  0  0
   36.9750   25.2310   32.8110 O   0  0  0  0  0  0  0  0  0  0  0  0
   38.2720   24.8950   32.5290 C   0  0  1  0  0  0  0  0  0  0  0  0
   38.8090   24.1140   33.7480 C   0  0  2  0  0  0  0  0  0  0  0  0
   38.5580   24.2870   31.2590 C   0  0  0  0  0  0  0  0  0  0  0  0
   38.4910   23.0950   30.6470 N   0  0  0  0  0  0  0  0  0  0  0  0
   38.9160   23.2020   29.4400 O   0  0  0  0  0  0  0  0  0  0  0  0
   39.2800   24.4220   29.1730 C   0  0  0  0  0  0  0  0  0  0  0  0
   39.0610   25.1000   30.2970 N   0  0  0  0  0  0  0  0  0  0  0  0
   39.7990   24.8660   27.9140 N   0  0  0  0  0  0  0  0  0  0  0  0
   40.4350   26.0690   27.7740 C   0  0  0  0  0  0  0  0  0  0  0  0
   40.8370   26.2870   26.5270 N   0  0  0  0  0  0  0  0  0  0  0  0
   40.4640   25.2090   25.8180 C   0  0  0  0  0  0  0  0  0  0  0  0
   40.5660   24.7930   24.4920 C   0  0  0  0  0  0  0  0  0  0  0  0
   40.0570   23.6020   24.1150 N   0  0  0  0  0  0  0  0  0  0  0  0
   39.4350   22.7770   25.0030 C   0  0  0  0  0  0  0  0  0  0  0  0
   39.3070   23.1320   26.3070 N   0  0  0  0  0  0  0  0  0  0  0  0
   39.8140   24.3180   26.6790 C   0  0  0  0  0  0  0  0  0  0  0  0
   41.2230   25.6730   23.5750 N   0  0  0  0  0  0  0  0  0  0  0  0
   37.9470   22.8350   33.7500 C   0  0  0  0  0  0  0  0  0  0  0  0
   37.1530   22.9230   32.6550 F   0  0  0  0  0  0  0  0  0  0  0  0
   37.3960   22.4790   34.9080 F   0  0  0  0  0  0  0  0  0  0  0  0
   38.8570   21.7830   33.4080 F   0  0  0  0  0  0  0  0  0  0  0  0
   40.0480   23.8690   33.3750 O   0  0  0  0  0  0  0  0  0  0  0  0
   41.1430   24.5360   33.5000 C   0  0  0  0  0  0  0  0  0  0  0  0
   40.8700   25.8880   33.2670 F   0  0  0  0  0  0  0  0  0  0  0  0
   42.0400   24.2280   32.4750 F   0  0  0  0  0  0  0  0  0  0  0  0
   41.8730   24.5970   34.6490 F   0  0  0  0  0  0  0  0  0  0  0  0
   40.6456   22.2487   37.8302 H   0  0  0  0  0  0  0  0  0  0  0  0
   39.0545   22.8178   39.7259 H   0  0  0  0  0  0  0  0  0  0  0  0
   37.1714   24.4076   39.2342 H   0  0  0  0  0  0  0  0  0  0  0  0
   37.2165   26.3964   35.7153 H   0  0  0  0  0  0  0  0  0  0  0  0
   38.6881   26.9715   34.8476 H   0  0  0  0  0  0  0  0  0  0  0  0
   36.0605   26.7068   33.8713 H   0  0  0  0  0  0  0  0  0  0  0  0
   37.6103   27.1320   32.9805 H   0  0  0  0  0  0  0  0  0  0  0  0
   38.8226   25.8349   32.3757 H   0  0  0  0  0  0  0  0  0  0  0  0
   40.5954   26.7762   28.6011 H   0  0  0  0  0  0  0  0  0  0  0  0
   39.0321   21.8127   24.6596 H   0  0  0  0  0  0  0  0  0  0  0  0
   41.3209   25.4057   22.5851 H   0  0  0  0  0  0  0  0  0  0  0  0
   41.5981   26.5738   23.9047 H   0  0  0  0  0  0  0  0  0  0  0  0
  1  2  2  0
  3  2  1  0
  4  3  2  0
  5  6  2  0
  5  4  1  0
  6  1  1  0
  7  5  1  0
  8  7  1  0
  9  8  1  0
 10  9  1  0
 11 10  1  0
 11 12  1  0
 12 32  1  6
 12 28  1  0
 12  7  1  0
 13 11  1  0
 14 13  2  0
 15 14  1  0
 16 15  1  0
 16 17  2  0
 17 13  1  0
 18 16  1  0
 19 18  1  0
 20 19  2  0
 21 20  1  0
 21 26  2  0
 22 21  1  0
 23 22  2  0
 23 24  1  0
 24 25  2  0
 25 26  1  0
 26 18  1  0
 27 22  1  0
 28 30  1  0
 29 28  1  0
 31 28  1  0
 32 33  1  0
 33 36  1  0
 34 33  1  0
 35 33  1  0
  1 37  1  0
  2 38  1  0
  3 39  1  0
  8 40  1  0
  8 41  1  0
  9 42  1  0
  9 43  1  0
 11 44  1  6
 19 45  1  0
 24 46  1  0
 27 47  1  0
 27 48  1  0
M  ISO  8  37  14  38  14  39  14  40  13  41  13  42  13  43  13  44  13
M  ISO  2  45  14  46  14
M  END
>  <minimizedAffinity>  (1) 
-6.02912235

>  <minimizedRMSD>  (1) 
0.742755532

$$$$
