
     RDKit          3D

 48 51  0  0  1  0  0  0  0  0999 V2000
   39.8740   22.9800   37.5200 C   0  0  0  0  0  0  0  0  0  0  0  0
   38.9450   23.0990   38.6050 C   0  0  0  0  0  0  0  0  0  0  0  0
   37.8790   23.9580   38.4330 C   0  0  0  0  0  0  0  0  0  0  0  0
   37.7860   24.6260   37.2540 N   0  0  0  0  0  0  0  0  0  0  0  0
   38.6980   24.4810   36.2460 C   0  0  0  0  0  0  0  0  0  0  0  0
   39.7120   23.6710   36.3940 N   0  0  0  0  0  0  0  0  0  0  0  0
   38.4800   25.2420   35.0620 N   0  0  0  0  0  0  0  0  0  0  0  0
   37.8400   26.5530   35.1700 C   0  0  0  0  0  0  0  0  0  0  0  0
   37.0700   26.8630   33.9250 C   0  0  0  0  0  0  0  0  0  0  0  0
   37.0440   25.8280   32.9810 O   0  0  0  0  0  0  0  0  0  0  0  0
   38.3660   25.5900   32.6950 C   0  0  1  0  0  0  0  0  0  0  0  0
   38.9090   24.6670   33.8040 C   0  0  2  0  0  0  0  0  0  0  0  0
   38.7090   25.1900   31.3590 C   0  0  0  0  0  0  0  0  0  0  0  0
   38.8560   24.0840   30.6180 N   0  0  0  0  0  0  0  0  0  0  0  0
   39.1940   24.4020   29.4170 O   0  0  0  0  0  0  0  0  0  0  0  0
   39.2920   25.6910   29.2840 C   0  0  0  0  0  0  0  0  0  0  0  0
   38.9920   26.1890   30.4830 N   0  0  0  0  0  0  0  0  0  0  0  0
   39.6510   26.3670   28.0720 N   0  0  0  0  0  0  0  0  0  0  0  0
   40.2140   25.6190   27.1030 C   0  0  0  0  0  0  0  0  0  0  0  0
   40.6040   26.1500   25.8900 C   0  0  0  0  0  0  0  0  0  0  0  0
   41.2250   25.2530   24.8580 C   0  0  0  0  0  0  0  0  0  0  0  0
   40.4090   27.4810   25.6740 C   0  0  0  0  0  0  0  0  0  0  0  0
   40.7640   27.9450   24.5800 O   0  0  0  0  0  0  0  0  0  0  0  0
   39.8450   28.2010   26.6620 N   0  0  0  0  0  0  0  0  0  0  0  0
   39.4610   27.6810   27.8510 C   0  0  0  0  0  0  0  0  0  0  0  0
   38.9360   28.3660   28.7650 O   0  0  0  0  0  0  0  0  0  0  0  0
   38.1140   23.3610   33.5880 C   0  0  0  0  0  0  0  0  0  0  0  0
   37.3630   23.5640   32.4790 F   0  0  0  0  0  0  0  0  0  0  0  0
   37.5270   22.8280   34.6600 F   0  0  0  0  0  0  0  0  0  0  0  0
   39.0870   22.4090   33.1580 F   0  0  0  0  0  0  0  0  0  0  0  0
   40.1680   24.5370   33.4350 O   0  0  0  0  0  0  0  0  0  0  0  0
   41.2260   25.2210   33.7010 C   0  0  0  0  0  0  0  0  0  0  0  0
   40.8850   26.5790   33.7330 F   0  0  0  0  0  0  0  0  0  0  0  0
   42.1390   25.1480   32.6450 F   0  0  0  0  0  0  0  0  0  0  0  0
   41.9490   25.0940   34.8490 F   0  0  0  0  0  0  0  0  0  0  0  0
   40.7369   22.3051   37.6197 H   0  0  0  0  0  0  0  0  0  0  0  0
   39.0765   22.5289   39.5365 H   0  0  0  0  0  0  0  0  0  0  0  0
   37.1286   24.0973   39.2252 H   0  0  0  0  0  0  0  0  0  0  0  0
   37.1535   26.5513   36.0295 H   0  0  0  0  0  0  0  0  0  0  0  0
   38.6175   27.3188   35.3081 H   0  0  0  0  0  0  0  0  0  0  0  0
   36.0329   27.0920   34.2114 H   0  0  0  0  0  0  0  0  0  0  0  0
   37.5826   27.7095   33.4447 H   0  0  0  0  0  0  0  0  0  0  0  0
   38.8795   26.5628   32.6987 H   0  0  0  0  0  0  0  0  0  0  0  0
   40.3686   24.5453   27.2853 H   0  0  0  0  0  0  0  0  0  0  0  0
   41.7823   24.4480   25.3595 H   0  0  0  0  0  0  0  0  0  0  0  0
   40.4353   24.8157   24.2293 H   0  0  0  0  0  0  0  0  0  0  0  0
   41.9122   25.8382   24.2293 H   0  0  0  0  0  0  0  0  0  0  0  0
   39.6969   29.2079   26.5034 H   0  0  0  0  0  0  0  0  0  0  0  0
  1  2  2  0
  3  2  1  0
  4  3  2  0
  5  6  2  0
  5  4  1  0
  6  1  1  0
  7  8  1  0
  7  5  1  0
  9  8  1  0
 10  9  1  0
 11 10  1  0
 11 12  1  0
 12 31  1  1
 12  7  1  0
 13 11  1  0
 14 13  2  0
 15 14  1  0
 16 15  1  0
 16 17  2  0
 17 13  1  0
 18 16  1  0
 19 18  1  0
 20 19  2  0
 21 20  1  0
 22 20  1  0
 22 24  1  0
 23 22  2  0
 24 25  1  0
 25 18  1  0
 25 26  2  0
 27 12  1  0
 27 29  1  0
 28 27  1  0
 30 27  1  0
 31 32  1  0
 32 33  1  0
 32 35  1  0
 34 32  1  0
  1 36  1  0
  2 37  1  0
  3 38  1  0
  8 39  1  0
  8 40  1  0
  9 41  1  0
  9 42  1  0
 11 43  1  1
 19 44  1  0
 21 45  1  0
 21 46  1  0
 21 47  1  0
 24 48  1  0
M  ISO  8  36  14  37  14  38  14  39  13  40  13  41  13  42  13  43  13
M  ISO  5  44  14  45   8  46   8  47   8  48   9
M  END
>  <minimizedAffinity>  (1) 
-5.89199066

>  <minimizedRMSD>  (1) 
1.05139267

$$$$
