
     RDKit          3D

 46 49  0  0  1  0  0  0  0  0999 V2000
   40.1090   22.9410   37.0560 C   0  0  0  0  0  0  0  0  0  0  0  0
   39.2560   22.7820   38.1970 C   0  0  0  0  0  0  0  0  0  0  0  0
   38.2120   23.6720   38.3340 C   0  0  0  0  0  0  0  0  0  0  0  0
   38.0660   24.6300   37.3840 N   0  0  0  0  0  0  0  0  0  0  0  0
   38.8950   24.7520   36.3130 C   0  0  0  0  0  0  0  0  0  0  0  0
   39.8950   23.9100   36.1680 N   0  0  0  0  0  0  0  0  0  0  0  0
   38.6320   25.7990   35.3890 N   0  0  0  0  0  0  0  0  0  0  0  0
   38.0520   27.0490   35.8850 C   0  0  0  0  0  0  0  0  0  0  0  0
   37.2040   27.6800   34.8290 C   0  0  0  0  0  0  0  0  0  0  0  0
   37.0840   26.9350   33.6480 O   0  0  0  0  0  0  0  0  0  0  0  0
   38.3680   26.7740   33.2130 C   0  0  1  0  0  0  0  0  0  0  0  0
   38.9560   25.5720   33.9970 C   0  0  2  0  0  0  0  0  0  0  0  0
   38.6100   26.7320   31.7970 C   0  0  0  0  0  0  0  0  0  0  0  0
   38.8500   25.8490   30.8190 N   0  0  0  0  0  0  0  0  0  0  0  0
   38.9850   26.4650   29.6960 O   0  0  0  0  0  0  0  0  0  0  0  0
   38.8490   27.7470   29.8470 C   0  0  0  0  0  0  0  0  0  0  0  0
   38.6160   27.9190   31.1480 N   0  0  0  0  0  0  0  0  0  0  0  0
   38.9440   28.7020   28.7870 N   0  0  0  0  0  0  0  0  0  0  0  0
   40.0740   28.7290   28.0550 C   0  0  0  0  0  0  0  0  0  0  0  0
   40.1230   29.6650   27.0430 C   0  0  0  0  0  0  0  0  0  0  0  0
   39.0270   30.4860   26.8660 C   0  0  0  0  0  0  0  0  0  0  0  0
   38.9780   31.4790   25.8560 N   0  0  0  0  0  0  0  0  0  0  0  0
   37.9220   30.4010   27.6430 N   0  0  0  0  0  0  0  0  0  0  0  0
   37.8710   29.5000   28.6190 C   0  0  0  0  0  0  0  0  0  0  0  0
   36.8590   29.3940   29.3610 O   0  0  0  0  0  0  0  0  0  0  0  0
   38.1030   24.3880   33.5030 C   0  0  0  0  0  0  0  0  0  0  0  0
   37.2760   24.8920   32.5560 F   0  0  0  0  0  0  0  0  0  0  0  0
   37.5840   23.5880   34.4430 F   0  0  0  0  0  0  0  0  0  0  0  0
   39.0030   23.5710   32.7530 F   0  0  0  0  0  0  0  0  0  0  0  0
   40.1870   25.5190   33.5120 O   0  0  0  0  0  0  0  0  0  0  0  0
   41.2780   26.0950   33.8670 C   0  0  0  0  0  0  0  0  0  0  0  0
   41.0810   27.4820   33.8550 F   0  0  0  0  0  0  0  0  0  0  0  0
   42.2700   25.9190   32.8960 F   0  0  0  0  0  0  0  0  0  0  0  0
   41.8780   25.9140   35.0760 F   0  0  0  0  0  0  0  0  0  0  0  0
   40.9539   22.2515   36.9116 H   0  0  0  0  0  0  0  0  0  0  0  0
   39.4273   21.9827   38.9331 H   0  0  0  0  0  0  0  0  0  0  0  0
   37.5195   23.6076   39.1862 H   0  0  0  0  0  0  0  0  0  0  0  0
   37.4329   26.8365   36.7691 H   0  0  0  0  0  0  0  0  0  0  0  0
   38.8649   27.7401   36.1526 H   0  0  0  0  0  0  0  0  0  0  0  0
   36.1960   27.8290   35.2434 H   0  0  0  0  0  0  0  0  0  0  0  0
   37.7031   28.6204   34.5523 H   0  0  0  0  0  0  0  0  0  0  0  0
   38.9036   27.7094   33.4326 H   0  0  0  0  0  0  0  0  0  0  0  0
   40.9109   28.0432   28.2530 H   0  0  0  0  0  0  0  0  0  0  0  0
   41.0084   29.7547   26.3965 H   0  0  0  0  0  0  0  0  0  0  0  0
   38.1414   32.0716   25.7566 H   0  0  0  0  0  0  0  0  0  0  0  0
   39.7789   31.6081   25.2214 H   0  0  0  0  0  0  0  0  0  0  0  0
  1  2  2  0
  2  3  1  0
  4  3  2  0
  5  4  1  0
  6  5  2  0
  6  1  1  0
  7  8  1  0
  7  5  1  0
  9  8  1  0
 10  9  1  0
 11 10  1  0
 11 12  1  0
 12 30  1  1
 12  7  1  0
 13 11  1  0
 14 13  2  0
 15 16  1  0
 15 14  1  0
 16 17  2  0
 17 13  1  0
 18 16  1  0
 19 18  1  0
 20 19  2  0
 21 20  1  0
 21 23  2  0
 22 21  1  0
 23 24  1  0
 24 18  1  0
 24 25  2  0
 26 12  1  0
 26 28  1  0
 27 26  1  0
 29 26  1  0
 30 31  1  0
 31 34  1  0
 32 31  1  0
 33 31  1  0
  1 35  1  0
  2 36  1  0
  3 37  1  0
  8 38  1  0
  8 39  1  0
  9 40  1  0
  9 41  1  0
 11 42  1  1
 19 43  1  0
 20 44  1  0
 22 45  1  0
 22 46  1  0
M  ISO  8  35  14  36  14  37  14  38  13  39  13  40  13  41  13  42  13
M  ISO  2  43  14  44  14
M  END
>  <minimizedAffinity>  (1) 
-5.95708704

>  <minimizedRMSD>  (1) 
2.60217524

$$$$
