
     RDKit          3D

 45 48  0  0  1  0  0  0  0  0999 V2000
   40.0290   23.0110   37.1570 C   0  0  0  0  0  0  0  0  0  0  0  0
   39.1520   22.8900   38.2860 C   0  0  0  0  0  0  0  0  0  0  0  0
   38.0780   23.7540   38.3450 C   0  0  0  0  0  0  0  0  0  0  0  0
   37.9250   24.6530   37.3370 N   0  0  0  0  0  0  0  0  0  0  0  0
   38.7910   24.7310   36.2790 C   0  0  0  0  0  0  0  0  0  0  0  0
   39.8070   23.9230   36.2120 N   0  0  0  0  0  0  0  0  0  0  0  0
   38.5160   25.7190   35.2910 N   0  0  0  0  0  0  0  0  0  0  0  0
   37.8830   26.9760   35.6990 C   0  0  0  0  0  0  0  0  0  0  0  0
   37.0440   27.5160   34.5860 C   0  0  0  0  0  0  0  0  0  0  0  0
   36.9760   26.7070   33.4490 O   0  0  0  0  0  0  0  0  0  0  0  0
   38.2760   26.5500   33.0540 C   0  0  1  0  0  0  0  0  0  0  0  0
   38.8800   25.4220   33.9210 C   0  0  2  0  0  0  0  0  0  0  0  0
   38.5560   26.4340   31.6500 C   0  0  0  0  0  0  0  0  0  0  0  0
   38.5450   25.5180   30.6700 N   0  0  0  0  0  0  0  0  0  0  0  0
   38.9180   26.0570   29.5650 O   0  0  0  0  0  0  0  0  0  0  0  0
   39.1930   27.3170   29.7260 C   0  0  0  0  0  0  0  0  0  0  0  0
   38.9710   27.5600   31.0170 N   0  0  0  0  0  0  0  0  0  0  0  0
   39.6370   28.2020   28.6880 N   0  0  0  0  0  0  0  0  0  0  0  0
   40.9590   28.2380   28.4300 C   0  0  0  0  0  0  0  0  0  0  0  0
   41.4910   29.0700   27.4360 C   0  0  0  0  0  0  0  0  0  0  0  0
   40.5910   29.8620   26.7220 C   0  0  0  0  0  0  0  0  0  0  0  0
   41.0210   30.6370   25.8070 O   0  0  0  0  0  0  0  0  0  0  0  0
   39.2710   29.7910   27.0190 N   0  0  0  0  0  0  0  0  0  0  0  0
   38.7890   28.9780   27.9840 C   0  0  0  0  0  0  0  0  0  0  0  0
   37.5590   28.9150   28.2560 O   0  0  0  0  0  0  0  0  0  0  0  0
   38.0750   24.1790   33.4830 C   0  0  0  0  0  0  0  0  0  0  0  0
   37.1910   24.6210   32.5570 F   0  0  0  0  0  0  0  0  0  0  0  0
   37.6300   23.3750   34.4490 F   0  0  0  0  0  0  0  0  0  0  0  0
   38.9980   23.4000   32.7160 F   0  0  0  0  0  0  0  0  0  0  0  0
   40.1200   25.3830   33.4730 O   0  0  0  0  0  0  0  0  0  0  0  0
   41.1860   26.0220   33.8110 C   0  0  0  0  0  0  0  0  0  0  0  0
   40.8550   27.3680   34.0090 F   0  0  0  0  0  0  0  0  0  0  0  0
   42.0880   26.0720   32.7480 F   0  0  0  0  0  0  0  0  0  0  0  0
   41.9160   25.7490   34.9300 F   0  0  0  0  0  0  0  0  0  0  0  0
   40.8971   22.3410   37.0706 H   0  0  0  0  0  0  0  0  0  0  0  0
   39.3284   22.1402   39.0713 H   0  0  0  0  0  0  0  0  0  0  0  0
   37.3665   23.7165   39.1831 H   0  0  0  0  0  0  0  0  0  0  0  0
   37.2473   26.7942   36.5781 H   0  0  0  0  0  0  0  0  0  0  0  0
   38.6655   27.7083   35.9467 H   0  0  0  0  0  0  0  0  0  0  0  0
   36.0214   27.6554   34.9667 H   0  0  0  0  0  0  0  0  0  0  0  0
   37.5241   28.4529   34.2671 H   0  0  0  0  0  0  0  0  0  0  0  0
   38.7801   27.5116   33.2305 H   0  0  0  0  0  0  0  0  0  0  0  0
   41.6372   27.5985   29.0140 H   0  0  0  0  0  0  0  0  0  0  0  0
   42.5707   29.0976   27.2277 H   0  0  0  0  0  0  0  0  0  0  0  0
   38.6110   30.3784   26.4896 H   0  0  0  0  0  0  0  0  0  0  0  0
  1  2  2  0
  2  3  1  0
  4  3  2  0
  5  4  1  0
  6  5  2  0
  6  1  1  0
  7  8  1  0
  7  5  1  0
  9  8  1  0
 10  9  1  0
 11 10  1  0
 11 12  1  0
 12 30  1  1
 12  7  1  0
 13 11  1  0
 14 13  2  0
 15 16  1  0
 15 14  1  0
 16 17  2  0
 17 13  1  0
 18 16  1  0
 19 18  1  0
 20 19  2  0
 21 23  1  0
 21 20  1  0
 22 21  2  0
 23 24  1  0
 24 25  2  0
 24 18  1  0
 26 12  1  0
 26 28  1  0
 27 26  1  0
 29 26  1  0
 30 31  1  0
 31 32  1  0
 31 34  1  0
 33 31  1  0
  1 35  1  0
  2 36  1  0
  3 37  1  0
  8 38  1  0
  8 39  1  0
  9 40  1  0
  9 41  1  0
 11 42  1  1
 19 43  1  0
 20 44  1  0
 23 45  1  0
M  ISO  8  35  14  36  14  37  14  38  13  39  13  40  13  41  13  42  13
M  ISO  3  43  14  44  14  45   9
M  END
>  <minimizedAffinity>  (1) 
-5.85807753

>  <minimizedRMSD>  (1) 
2.0838275

$$$$
