
     RDKit          3D

 41 44  0  0  1  0  0  0  0  0999 V2000
   39.8370   22.9700   37.5220 C   0  0  0  0  0  0  0  0  0  0  0  0
   38.9550   23.1640   38.6360 C   0  0  0  0  0  0  0  0  0  0  0  0
   37.9220   24.0530   38.4750 C   0  0  0  0  0  0  0  0  0  0  0  0
   37.8070   24.6840   37.2770 N   0  0  0  0  0  0  0  0  0  0  0  0
   38.6650   24.4750   36.2410 C   0  0  0  0  0  0  0  0  0  0  0  0
   39.6530   23.6320   36.3800 N   0  0  0  0  0  0  0  0  0  0  0  0
   38.4280   25.2060   35.0400 N   0  0  0  0  0  0  0  0  0  0  0  0
   37.8460   26.5420   35.1270 C   0  0  0  0  0  0  0  0  0  0  0  0
   37.0440   26.8450   33.9000 C   0  0  0  0  0  0  0  0  0  0  0  0
   36.9350   25.7730   32.9990 O   0  0  0  0  0  0  0  0  0  0  0  0
   38.2290   25.4750   32.6670 C   0  0  1  0  0  0  0  0  0  0  0  0
   38.7830   24.5690   33.7900 C   0  0  2  0  0  0  0  0  0  0  0  0
   38.5050   25.0150   31.3340 C   0  0  0  0  0  0  0  0  0  0  0  0
   38.2880   23.9530   30.5490 N   0  0  0  0  0  0  0  0  0  0  0  0
   38.8120   24.1490   29.3910 O   0  0  0  0  0  0  0  0  0  0  0  0
   39.3910   25.3100   29.3300 C   0  0  0  0  0  0  0  0  0  0  0  0
   39.2040   25.8520   30.5330 N   0  0  0  0  0  0  0  0  0  0  0  0
   40.0710   25.8380   28.1810 N   0  0  0  0  0  0  0  0  0  0  0  0
   41.1190   25.4500   27.4490 C   0  0  0  0  0  0  0  0  0  0  0  0
   41.3360   26.3380   26.4590 N   0  0  0  0  0  0  0  0  0  0  0  0
   40.4010   27.2970   26.5830 C   0  0  0  0  0  0  0  0  0  0  0  0
   39.6140   26.9860   27.6540 N   0  0  0  0  0  0  0  0  0  0  0  0
   37.9370   23.2890   33.6530 C   0  0  0  0  0  0  0  0  0  0  0  0
   37.0070   23.5620   32.6940 F   0  0  0  0  0  0  0  0  0  0  0  0
   37.5160   22.7160   34.7800 F   0  0  0  0  0  0  0  0  0  0  0  0
   38.7900   22.3410   33.0200 F   0  0  0  0  0  0  0  0  0  0  0  0
   40.0200   24.3710   33.3780 O   0  0  0  0  0  0  0  0  0  0  0  0
   41.1170   25.0160   33.5830 C   0  0  0  0  0  0  0  0  0  0  0  0
   40.8700   26.3860   33.4170 F   0  0  0  0  0  0  0  0  0  0  0  0
   42.0520   24.7460   32.5740 F   0  0  0  0  0  0  0  0  0  0  0  0
   41.8000   25.0010   34.7610 F   0  0  0  0  0  0  0  0  0  0  0  0
   40.6768   22.2652   37.6113 H   0  0  0  0  0  0  0  0  0  0  0  0
   39.1007   22.6218   39.5819 H   0  0  0  0  0  0  0  0  0  0  0  0
   37.2096   24.2486   39.2900 H   0  0  0  0  0  0  0  0  0  0  0  0
   37.1916   26.5951   36.0095 H   0  0  0  0  0  0  0  0  0  0  0  0
   38.6580   27.2791   35.2124 H   0  0  0  0  0  0  0  0  0  0  0  0
   36.0305   27.1348   34.2143 H   0  0  0  0  0  0  0  0  0  0  0  0
   37.5744   27.6490   33.3688 H   0  0  0  0  0  0  0  0  0  0  0  0
   38.7755   26.4279   32.6097 H   0  0  0  0  0  0  0  0  0  0  0  0
   41.7148   24.5427   27.6275 H   0  0  0  0  0  0  0  0  0  0  0  0
   40.2899   28.1784   25.9343 H   0  0  0  0  0  0  0  0  0  0  0  0
  1  2  2  0
  3  2  1  0
  4  3  2  0
  5  6  2  0
  5  4  1  0
  6  1  1  0
  7  8  1  0
  7  5  1  0
  9  8  1  0
 10  9  1  0
 11 10  1  0
 11 12  1  0
 12 27  1  6
 12  7  1  0
 13 11  1  0
 14 13  2  0
 15 14  1  0
 16 15  1  0
 16 17  2  0
 17 13  1  0
 18 16  1  0
 19 18  1  0
 20 21  1  0
 20 19  2  0
 21 22  2  0
 22 18  1  0
 23 12  1  0
 23 25  1  0
 24 23  1  0
 26 23  1  0
 27 28  1  0
 28 31  1  0
 29 28  1  0
 30 28  1  0
  1 32  1  0
  2 33  1  0
  3 34  1  0
  8 35  1  0
  8 36  1  0
  9 37  1  0
  9 38  1  0
 11 39  1  6
 19 40  1  0
 21 41  1  0
M  ISO  8  32  14  33  14  34  14  35  13  36  13  37  13  38  13  39  13
M  ISO  2  40  14  41  14
M  END
>  <minimizedAffinity>  (1) 
-5.36341381

>  <minimizedRMSD>  (1) 
0.34945339

$$$$
