
     RDKit          3D

 42 45  0  0  1  0  0  0  0  0999 V2000
   39.7430   22.8750   37.7640 C   0  0  0  0  0  0  0  0  0  0  0  0
   38.8740   23.3580   38.8100 C   0  0  0  0  0  0  0  0  0  0  0  0
   37.9060   24.2650   38.4600 C   0  0  0  0  0  0  0  0  0  0  0  0
   37.8250   24.6500   37.1600 N   0  0  0  0  0  0  0  0  0  0  0  0
   38.6610   24.1750   36.1970 C   0  0  0  0  0  0  0  0  0  0  0  0
   39.5990   23.3040   36.5110 N   0  0  0  0  0  0  0  0  0  0  0  0
   38.4760   24.6530   34.8730 N   0  0  0  0  0  0  0  0  0  0  0  0
   37.9770   26.0180   34.6730 C   0  0  0  0  0  0  0  0  0  0  0  0
   37.1830   26.1150   33.4200 C   0  0  0  0  0  0  0  0  0  0  0  0
   37.0170   24.8960   32.7400 O   0  0  0  0  0  0  0  0  0  0  0  0
   38.3010   24.4660   32.4890 C   0  0  1  0  0  0  0  0  0  0  0  0
   38.7860   23.7690   33.7740 C   0  0  2  0  0  0  0  0  0  0  0  0
   38.5410   23.7310   31.2720 C   0  0  0  0  0  0  0  0  0  0  0  0
   38.4920   22.4770   30.8010 N   0  0  0  0  0  0  0  0  0  0  0  0
   38.8490   22.4730   29.5490 O   0  0  0  0  0  0  0  0  0  0  0  0
   39.1340   23.6680   29.1600 C   0  0  0  0  0  0  0  0  0  0  0  0
   38.9520   24.4570   30.2080 N   0  0  0  0  0  0  0  0  0  0  0  0
   39.5660   24.0470   27.8330 C   0  0  0  0  0  0  0  0  0  0  0  0
   39.5540   23.4010   26.6250 C   0  0  0  0  0  0  0  0  0  0  0  0
   40.0310   24.0420   25.5360 C   0  0  0  0  0  0  0  0  0  0  0  0
   40.5430   25.3740   25.6310 C   0  0  0  0  0  0  0  0  0  0  0  0
   40.3050   25.7180   27.4820 S   0  0  0  0  0  0  0  0  0  0  0  0
   37.8550   22.5430   33.8830 C   0  0  0  0  0  0  0  0  0  0  0  0
   37.0550   22.5920   32.7910 F   0  0  0  0  0  0  0  0  0  0  0  0
   37.2980   22.3140   35.0690 F   0  0  0  0  0  0  0  0  0  0  0  0
   38.7070   21.4180   33.6220 F   0  0  0  0  0  0  0  0  0  0  0  0
   40.0180   23.4170   33.4250 O   0  0  0  0  0  0  0  0  0  0  0  0
   41.1390   24.0280   33.4990 C   0  0  0  0  0  0  0  0  0  0  0  0
   40.9750   25.3350   33.0100 F   0  0  0  0  0  0  0  0  0  0  0  0
   42.0680   23.4880   32.5910 F   0  0  0  0  0  0  0  0  0  0  0  0
   41.8160   24.2580   34.6580 F   0  0  0  0  0  0  0  0  0  0  0  0
   40.5313   22.1461   38.0034 H   0  0  0  0  0  0  0  0  0  0  0  0
   38.9836   23.0121   39.8484 H   0  0  0  0  0  0  0  0  0  0  0  0
   37.2135   24.6699   39.2126 H   0  0  0  0  0  0  0  0  0  0  0  0
   37.3401   26.2970   35.5253 H   0  0  0  0  0  0  0  0  0  0  0  0
   38.8376   26.6989   34.5970 H   0  0  0  0  0  0  0  0  0  0  0  0
   36.1864   26.5054   33.6740 H   0  0  0  0  0  0  0  0  0  0  0  0
   37.7443   26.7768   32.7440 H   0  0  0  0  0  0  0  0  0  0  0  0
   38.9136   25.3490   32.2547 H   0  0  0  0  0  0  0  0  0  0  0  0
   39.1621   22.3764   26.5432 H   0  0  0  0  0  0  0  0  0  0  0  0
   40.0256   23.5319   24.5614 H   0  0  0  0  0  0  0  0  0  0  0  0
   40.9605   26.0217   24.8460 H   0  0  0  0  0  0  0  0  0  0  0  0
  1  2  2  0
  3  2  1  0
  4  3  2  0
  5  6  2  0
  5  4  1  0
  6  1  1  0
  7  5  1  0
  8  7  1  0
  9  8  1  0
 10  9  1  0
 11 10  1  0
 11 12  1  0
 12 27  1  6
 12 23  1  0
 12  7  1  0
 13 11  1  0
 14 13  2  0
 15 14  1  0
 16 15  1  0
 16 17  2  0
 17 13  1  0
 18 16  1  0
 19 18  2  0
 20 21  2  0
 20 19  1  0
 21 22  1  0
 22 18  1  0
 23 25  1  0
 24 23  1  0
 26 23  1  0
 27 28  1  0
 28 31  1  0
 29 28  1  0
 30 28  1  0
  1 32  1  0
  2 33  1  0
  3 34  1  0
  8 35  1  0
  8 36  1  0
  9 37  1  0
  9 38  1  0
 11 39  1  6
 19 40  1  0
 20 41  1  0
 21 42  1  0
M  ISO  8  32  14  33  14  34  14  35  13  36  13  37  13  38  13  39  13
M  ISO  3  40  14  41  14  42  14
M  END
>  <minimizedAffinity>  (1) 
-5.36292982

>  <minimizedRMSD>  (1) 
1.12234437

$$$$
