
     RDKit          3D

 42 45  0  0  1  0  0  0  0  0999 V2000
   39.8550   22.9690   37.5200 C   0  0  0  0  0  0  0  0  0  0  0  0
   38.9610   23.1480   38.6320 C   0  0  0  0  0  0  0  0  0  0  0  0
   37.9160   24.0300   38.4680 C   0  0  0  0  0  0  0  0  0  0  0  0
   37.8010   24.6690   37.2750 N   0  0  0  0  0  0  0  0  0  0  0  0
   38.6740   24.4720   36.2430 C   0  0  0  0  0  0  0  0  0  0  0  0
   39.6730   23.6350   36.3830 N   0  0  0  0  0  0  0  0  0  0  0  0
   38.4400   25.2050   35.0450 N   0  0  0  0  0  0  0  0  0  0  0  0
   37.8380   26.5380   35.1340 C   0  0  0  0  0  0  0  0  0  0  0  0
   37.0360   26.8270   33.9100 C   0  0  0  0  0  0  0  0  0  0  0  0
   36.9540   25.7660   32.9950 O   0  0  0  0  0  0  0  0  0  0  0  0
   38.2580   25.4890   32.6740 C   0  0  1  0  0  0  0  0  0  0  0  0
   38.8150   24.5840   33.7920 C   0  0  2  0  0  0  0  0  0  0  0  0
   38.5490   25.0450   31.3390 C   0  0  0  0  0  0  0  0  0  0  0  0
   38.4520   23.9520   30.5740 N   0  0  0  0  0  0  0  0  0  0  0  0
   38.9080   24.1980   29.3960 O   0  0  0  0  0  0  0  0  0  0  0  0
   39.3260   25.4260   29.3030 C   0  0  0  0  0  0  0  0  0  0  0  0
   39.1050   25.9560   30.5040 N   0  0  0  0  0  0  0  0  0  0  0  0
   39.8920   26.0210   28.1260 N   0  0  0  0  0  0  0  0  0  0  0  0
   39.6280   27.3280   27.9210 C   0  0  0  0  0  0  0  0  0  0  0  0
   40.2760   27.6560   26.7430 C   0  0  0  0  0  0  0  0  0  0  0  0
   40.8940   26.5460   26.2930 N   0  0  0  0  0  0  0  0  0  0  0  0
   40.6570   25.5250   27.1520 C   0  0  0  0  0  0  0  0  0  0  0  0
   37.9800   23.2950   33.6390 C   0  0  0  0  0  0  0  0  0  0  0  0
   37.1090   23.5350   32.6260 F   0  0  0  0  0  0  0  0  0  0  0  0
   37.5130   22.7440   34.7630 F   0  0  0  0  0  0  0  0  0  0  0  0
   38.8810   22.3410   33.0750 F   0  0  0  0  0  0  0  0  0  0  0  0
   40.0640   24.4020   33.3840 O   0  0  0  0  0  0  0  0  0  0  0  0
   41.1420   25.0700   33.6010 C   0  0  0  0  0  0  0  0  0  0  0  0
   40.8620   26.4380   33.4880 F   0  0  0  0  0  0  0  0  0  0  0  0
   42.0680   24.8630   32.5760 F   0  0  0  0  0  0  0  0  0  0  0  0
   41.8410   25.0300   34.7710 F   0  0  0  0  0  0  0  0  0  0  0  0
   40.7010   22.2718   37.6108 H   0  0  0  0  0  0  0  0  0  0  0  0
   39.1060   22.6022   39.5760 H   0  0  0  0  0  0  0  0  0  0  0  0
   37.1957   24.2116   39.2793 H   0  0  0  0  0  0  0  0  0  0  0  0
   37.1823   26.5818   36.0161 H   0  0  0  0  0  0  0  0  0  0  0  0
   38.6388   27.2870   35.2220 H   0  0  0  0  0  0  0  0  0  0  0  0
   36.0145   27.0875   34.2240 H   0  0  0  0  0  0  0  0  0  0  0  0
   37.5524   27.6462   33.3882 H   0  0  0  0  0  0  0  0  0  0  0  0
   38.7939   26.4488   32.6329 H   0  0  0  0  0  0  0  0  0  0  0  0
   39.0247   27.9930   28.5564 H   0  0  0  0  0  0  0  0  0  0  0  0
   40.2851   28.6446   26.2608 H   0  0  0  0  0  0  0  0  0  0  0  0
   41.0231   24.4915   27.0636 H   0  0  0  0  0  0  0  0  0  0  0  0
  1  2  2  0
  3  2  1  0
  4  3  2  0
  5  6  2  0
  5  4  1  0
  6  1  1  0
  7  8  1  0
  7  5  1  0
  9  8  1  0
 10  9  1  0
 11 10  1  0
 11 12  1  0
 12 27  1  6
 12  7  1  0
 13 11  1  0
 14 13  2  0
 15 14  1  0
 16 15  1  0
 16 17  2  0
 17 13  1  0
 18 16  1  0
 19 18  1  0
 20 19  2  0
 21 20  1  0
 21 22  2  0
 22 18  1  0
 23 12  1  0
 23 25  1  0
 24 23  1  0
 26 23  1  0
 27 28  1  0
 28 31  1  0
 29 28  1  0
 30 28  1  0
  1 32  1  0
  2 33  1  0
  3 34  1  0
  8 35  1  0
  8 36  1  0
  9 37  1  0
  9 38  1  0
 11 39  1  1
 19 40  1  0
 20 41  1  0
 22 42  1  0
M  ISO  8  32  14  33  14  34  14  35  13  36  13  37  13  38  13  39  13
M  ISO  3  40  14  41  14  42  14
M  END
>  <minimizedAffinity>  (1) 
-5.34945726

>  <minimizedRMSD>  (1) 
0.507238865

$$$$
