
     RDKit          3D

 40 43  0  0  1  0  0  0  0  0999 V2000
   39.8400   22.9600   37.5250 C   0  0  0  0  0  0  0  0  0  0  0  0
   38.9560   23.1550   38.6440 C   0  0  0  0  0  0  0  0  0  0  0  0
   37.9140   24.0550   38.4840 C   0  0  0  0  0  0  0  0  0  0  0  0
   37.8050   24.6840   37.2880 N   0  0  0  0  0  0  0  0  0  0  0  0
   38.6570   24.4770   36.2500 C   0  0  0  0  0  0  0  0  0  0  0  0
   39.6520   23.6250   36.3870 N   0  0  0  0  0  0  0  0  0  0  0  0
   38.4260   25.2070   35.0480 N   0  0  0  0  0  0  0  0  0  0  0  0
   37.8480   26.5460   35.1370 C   0  0  0  0  0  0  0  0  0  0  0  0
   37.0360   26.8390   33.9170 C   0  0  0  0  0  0  0  0  0  0  0  0
   36.9350   25.7740   33.0100 O   0  0  0  0  0  0  0  0  0  0  0  0
   38.2270   25.4900   32.6730 C   0  0  1  0  0  0  0  0  0  0  0  0
   38.7800   24.5710   33.7960 C   0  0  2  0  0  0  0  0  0  0  0  0
   38.5030   25.0290   31.3410 C   0  0  0  0  0  0  0  0  0  0  0  0
   38.2510   23.9890   30.5370 N   0  0  0  0  0  0  0  0  0  0  0  0
   38.8080   24.1730   29.3890 O   0  0  0  0  0  0  0  0  0  0  0  0
   39.4420   25.3040   29.3580 C   0  0  0  0  0  0  0  0  0  0  0  0
   39.2570   25.8390   30.5650 N   0  0  0  0  0  0  0  0  0  0  0  0
   40.1820   25.8130   28.1960 C   0  0  0  0  0  0  0  0  0  0  0  0
   41.4270   25.4430   27.8600 N   0  0  0  0  0  0  0  0  0  0  0  0
   41.7820   26.0860   26.7760 O   0  0  0  0  0  0  0  0  0  0  0  0
   40.8130   26.8810   26.3660 C   0  0  0  0  0  0  0  0  0  0  0  0
   39.7900   26.7200   27.2550 N   0  0  0  0  0  0  0  0  0  0  0  0
   37.9270   23.2970   33.6520 C   0  0  0  0  0  0  0  0  0  0  0  0
   36.9980   23.5760   32.7140 F   0  0  0  0  0  0  0  0  0  0  0  0
   37.5290   22.7090   34.7860 F   0  0  0  0  0  0  0  0  0  0  0  0
   38.7850   22.3550   32.9980 F   0  0  0  0  0  0  0  0  0  0  0  0
   40.0200   24.3810   33.3800 O   0  0  0  0  0  0  0  0  0  0  0  0
   41.1150   25.0160   33.5970 C   0  0  0  0  0  0  0  0  0  0  0  0
   40.8730   26.3840   33.4390 F   0  0  0  0  0  0  0  0  0  0  0  0
   42.0550   24.7610   32.5860 F   0  0  0  0  0  0  0  0  0  0  0  0
   41.8000   24.9970   34.7730 F   0  0  0  0  0  0  0  0  0  0  0  0
   40.6795   22.2544   37.6109 H   0  0  0  0  0  0  0  0  0  0  0  0
   39.1016   22.6112   39.5890 H   0  0  0  0  0  0  0  0  0  0  0  0
   37.2011   24.2518   39.2983 H   0  0  0  0  0  0  0  0  0  0  0  0
   37.2027   26.6050   36.0259 H   0  0  0  0  0  0  0  0  0  0  0  0
   38.6604   27.2836   35.2135 H   0  0  0  0  0  0  0  0  0  0  0  0
   36.0203   27.1122   34.2390 H   0  0  0  0  0  0  0  0  0  0  0  0
   37.5550   27.6507   33.3862 H   0  0  0  0  0  0  0  0  0  0  0  0
   38.7674   26.4464   32.6151 H   0  0  0  0  0  0  0  0  0  0  0  0
   40.8265   27.5404   25.4857 H   0  0  0  0  0  0  0  0  0  0  0  0
  1  2  2  0
  3  2  1  0
  4  3  2  0
  5  6  2  0
  5  4  1  0
  6  1  1  0
  7  8  1  0
  7  5  1  0
  9  8  1  0
 10  9  1  0
 11 10  1  0
 11 12  1  0
 12 27  1  6
 12  7  1  0
 13 11  1  0
 14 13  2  0
 15 14  1  0
 16 15  1  0
 16 17  2  0
 17 13  1  0
 18 16  1  0
 19 18  2  0
 20 19  1  0
 21 20  1  0
 21 22  2  0
 22 18  1  0
 23 12  1  0
 23 25  1  0
 24 23  1  0
 26 23  1  0
 27 28  1  0
 28 31  1  0
 29 28  1  0
 30 28  1  0
  1 32  1  0
  2 33  1  0
  3 34  1  0
  8 35  1  0
  8 36  1  0
  9 37  1  0
  9 38  1  0
 11 39  1  6
 21 40  1  0
M  ISO  8  32  14  33  14  34  14  35  13  36  13  37  13  38  13  39  13
M  ISO  1  40  14
M  END
>  <minimizedAffinity>  (1) 
-5.09517241

>  <minimizedRMSD>  (1) 
0.312974691

$$$$
