
     RDKit          3D

 42 45  0  0  1  0  0  0  0  0999 V2000
   39.8220   22.9160   37.5930 C   0  0  0  0  0  0  0  0  0  0  0  0
   38.9680   23.2190   38.7030 C   0  0  0  0  0  0  0  0  0  0  0  0
   37.9540   24.1290   38.4890 C   0  0  0  0  0  0  0  0  0  0  0  0
   37.8370   24.6700   37.2480 N   0  0  0  0  0  0  0  0  0  0  0  0
   38.6700   24.3540   36.2180 C   0  0  0  0  0  0  0  0  0  0  0  0
   39.6400   23.4900   36.4090 N   0  0  0  0  0  0  0  0  0  0  0  0
   38.4470   24.9850   34.9690 N   0  0  0  0  0  0  0  0  0  0  0  0
   37.9080   26.3580   34.9560 C   0  0  0  0  0  0  0  0  0  0  0  0
   37.0850   26.5780   33.7310 C   0  0  0  0  0  0  0  0  0  0  0  0
   36.9320   25.4470   32.9120 O   0  0  0  0  0  0  0  0  0  0  0  0
   38.2100   25.0860   32.5860 C   0  0  1  0  0  0  0  0  0  0  0  0
   38.7580   24.2510   33.7630 C   0  0  2  0  0  0  0  0  0  0  0  0
   38.4530   24.5200   31.2870 C   0  0  0  0  0  0  0  0  0  0  0  0
   38.2040   23.4060   30.5850 N   0  0  0  0  0  0  0  0  0  0  0  0
   38.7100   23.5090   29.4090 O   0  0  0  0  0  0  0  0  0  0  0  0
   39.3090   24.6520   29.2520 C   0  0  0  0  0  0  0  0  0  0  0  0
   39.1530   25.2840   30.4120 N   0  0  0  0  0  0  0  0  0  0  0  0
   39.9930   25.0940   28.0300 C   0  0  0  0  0  0  0  0  0  0  0  0
   39.8250   24.4580   26.8180 C   0  0  0  0  0  0  0  0  0  0  0  0
   40.6220   25.1620   25.9400 C   0  0  0  0  0  0  0  0  0  0  0  0
   41.2440   26.1830   26.6010 N   0  0  0  0  0  0  0  0  0  0  0  0
   40.8420   26.1180   27.8760 N   0  0  0  0  0  0  0  0  0  0  0  0
   37.8620   22.9950   33.7380 C   0  0  0  0  0  0  0  0  0  0  0  0
   36.9700   23.1970   32.7410 F   0  0  0  0  0  0  0  0  0  0  0  0
   37.4180   22.5530   34.9170 F   0  0  0  0  0  0  0  0  0  0  0  0
   38.7070   21.9600   33.2200 F   0  0  0  0  0  0  0  0  0  0  0  0
   39.9860   23.9800   33.3480 O   0  0  0  0  0  0  0  0  0  0  0  0
   41.0970   24.6230   33.4770 C   0  0  0  0  0  0  0  0  0  0  0  0
   40.8520   25.9920   33.3200 F   0  0  0  0  0  0  0  0  0  0  0  0
   41.9560   24.3470   32.4130 F   0  0  0  0  0  0  0  0  0  0  0  0
   41.8600   24.6070   34.6060 F   0  0  0  0  0  0  0  0  0  0  0  0
   40.6428   22.1954   37.7237 H   0  0  0  0  0  0  0  0  0  0  0  0
   39.1150   22.7455   39.6849 H   0  0  0  0  0  0  0  0  0  0  0  0
   37.2620   24.4080   39.2972 H   0  0  0  0  0  0  0  0  0  0  0  0
   37.2811   26.5105   35.8469 H   0  0  0  0  0  0  0  0  0  0  0  0
   38.7450   27.0717   34.9585 H   0  0  0  0  0  0  0  0  0  0  0  0
   36.0847   26.9099   34.0461 H   0  0  0  0  0  0  0  0  0  0  0  0
   37.6213   27.3259   33.1284 H   0  0  0  0  0  0  0  0  0  0  0  0
   38.7800   26.0170   32.4509 H   0  0  0  0  0  0  0  0  0  0  0  0
   39.1949   23.5831   26.5999 H   0  0  0  0  0  0  0  0  0  0  0  0
   40.7391   24.9358   24.8699 H   0  0  0  0  0  0  0  0  0  0  0  0
   41.8962   26.8700   26.1965 H   0  0  0  0  0  0  0  0  0  0  0  0
  1  2  2  0
  3  2  1  0
  4  3  2  0
  5  6  2  0
  5  4  1  0
  6  1  1  0
  7  5  1  0
  8  7  1  0
  9  8  1  0
 10  9  1  0
 11 10  1  0
 11 12  1  0
 12 27  1  6
 12  7  1  0
 13 11  1  0
 14 13  2  0
 15 14  1  0
 16 15  1  0
 16 17  2  0
 17 13  1  0
 18 16  1  0
 19 18  1  0
 20 21  1  0
 20 19  2  0
 21 22  1  0
 22 18  2  0
 23 12  1  0
 23 25  1  0
 24 23  1  0
 26 23  1  0
 27 28  1  0
 28 31  1  0
 29 28  1  0
 30 28  1  0
  1 32  1  0
  2 33  1  0
  3 34  1  0
  8 35  1  0
  8 36  1  0
  9 37  1  0
  9 38  1  0
 11 39  1  6
 19 40  1  0
 20 41  1  0
 21 42  1  0
M  ISO  8  32  14  33  14  34  14  35  13  36  13  37  13  38  13  39  13
M  ISO  3  40  14  41  14  42   9
M  END
>  <minimizedAffinity>  (1) 
-5.13267326

>  <minimizedRMSD>  (1) 
0.380930483

$$$$
