
     RDKit          3D

 43 46  0  0  1  0  0  0  0  0999 V2000
   39.8400   22.9800   37.5060 C   0  0  0  0  0  0  0  0  0  0  0  0
   38.9500   23.1280   38.6140 C   0  0  0  0  0  0  0  0  0  0  0  0
   37.8900   24.0060   38.4580 C   0  0  0  0  0  0  0  0  0  0  0  0
   37.7750   24.6570   37.2710 N   0  0  0  0  0  0  0  0  0  0  0  0
   38.6580   24.4770   36.2410 C   0  0  0  0  0  0  0  0  0  0  0  0
   39.6660   23.6510   36.3730 N   0  0  0  0  0  0  0  0  0  0  0  0
   38.4180   25.2240   35.0520 N   0  0  0  0  0  0  0  0  0  0  0  0
   37.8020   26.5560   35.1550 C   0  0  0  0  0  0  0  0  0  0  0  0
   37.0020   26.8520   33.9320 C   0  0  0  0  0  0  0  0  0  0  0  0
   36.9330   25.8050   33.0030 O   0  0  0  0  0  0  0  0  0  0  0  0
   38.2400   25.5420   32.6830 C   0  0  1  0  0  0  0  0  0  0  0  0
   38.7990   24.6240   33.7900 C   0  0  2  0  0  0  0  0  0  0  0  0
   38.5400   25.1140   31.3450 C   0  0  0  0  0  0  0  0  0  0  0  0
   38.3230   24.0820   30.5170 N   0  0  0  0  0  0  0  0  0  0  0  0
   38.8830   24.3080   29.3800 O   0  0  0  0  0  0  0  0  0  0  0  0
   39.4860   25.4590   29.3750 C   0  0  0  0  0  0  0  0  0  0  0  0
   39.2790   25.9660   30.5880 N   0  0  0  0  0  0  0  0  0  0  0  0
   40.2210   26.0190   28.2330 C   0  0  0  0  0  0  0  0  0  0  0  0
   41.4960   25.5290   28.0200 C   0  0  0  0  0  0  0  0  0  0  0  0
   42.1650   26.0810   26.9290 C   0  0  0  0  0  0  0  0  0  0  0  0
   41.6100   27.0270   26.1330 N   0  0  0  0  0  0  0  0  0  0  0  0
   40.3640   27.4690   26.3840 C   0  0  0  0  0  0  0  0  0  0  0  0
   39.6690   26.9590   27.4430 N   0  0  0  0  0  0  0  0  0  0  0  0
   37.9770   23.3320   33.6200 C   0  0  0  0  0  0  0  0  0  0  0  0
   37.0630   23.5980   32.6570 F   0  0  0  0  0  0  0  0  0  0  0  0
   37.5650   22.7290   34.7370 F   0  0  0  0  0  0  0  0  0  0  0  0
   38.8690   22.4110   32.9810 F   0  0  0  0  0  0  0  0  0  0  0  0
   40.0440   24.4640   33.3910 O   0  0  0  0  0  0  0  0  0  0  0  0
   41.1240   25.1310   33.6190 C   0  0  0  0  0  0  0  0  0  0  0  0
   40.8140   26.4950   33.6220 F   0  0  0  0  0  0  0  0  0  0  0  0
   42.0180   25.0250   32.5500 F   0  0  0  0  0  0  0  0  0  0  0  0
   41.8640   25.0160   34.7580 F   0  0  0  0  0  0  0  0  0  0  0  0
   40.6931   22.2911   37.5938 H   0  0  0  0  0  0  0  0  0  0  0  0
   39.1000   22.5693   39.5496 H   0  0  0  0  0  0  0  0  0  0  0  0
   37.1650   24.1708   39.2687 H   0  0  0  0  0  0  0  0  0  0  0  0
   37.1430   26.5840   36.0353 H   0  0  0  0  0  0  0  0  0  0  0  0
   38.5960   27.3108   35.2546 H   0  0  0  0  0  0  0  0  0  0  0  0
   35.9769   27.0982   34.2458 H   0  0  0  0  0  0  0  0  0  0  0  0
   37.5134   27.6822   33.4229 H   0  0  0  0  0  0  0  0  0  0  0  0
   38.7663   26.5076   32.6563 H   0  0  0  0  0  0  0  0  0  0  0  0
   41.9489   24.7606   28.6637 H   0  0  0  0  0  0  0  0  0  0  0  0
   43.1848   25.7348   26.7050 H   0  0  0  0  0  0  0  0  0  0  0  0
   39.9084   28.2360   25.7404 H   0  0  0  0  0  0  0  0  0  0  0  0
  1  2  2  0
  3  2  1  0
  4  3  2  0
  5  6  2  0
  5  4  1  0
  6  1  1  0
  7  8  1  0
  7  5  1  0
  9  8  1  0
 10  9  1  0
 11 10  1  0
 11 12  1  0
 12 28  1  1
 12  7  1  0
 13 11  1  0
 14 13  2  0
 15 14  1  0
 16 15  1  0
 16 17  2  0
 17 13  1  0
 18 16  1  0
 19 18  2  0
 20 19  1  0
 21 22  1  0
 21 20  2  0
 22 23  2  0
 23 18  1  0
 24 12  1  0
 24 26  1  0
 25 24  1  0
 27 24  1  0
 28 29  1  0
 29 30  1  0
 29 32  1  0
 31 29  1  0
  1 33  1  0
  2 34  1  0
  3 35  1  0
  8 36  1  0
  8 37  1  0
  9 38  1  0
  9 39  1  0
 11 40  1  1
 19 41  1  0
 20 42  1  0
 22 43  1  0
M  ISO  8  33  14  34  14  35  14  36  13  37  13  38  13  39  13  40  13
M  ISO  3  41  14  42  14  43  14
M  END
>  <minimizedAffinity>  (1) 
-5.19020319

>  <minimizedRMSD>  (1) 
0.447607696

$$$$
