
     RDKit          3D

 41 44  0  0  1  0  0  0  0  0999 V2000
   39.8380   22.9700   37.5140 C   0  0  0  0  0  0  0  0  0  0  0  0
   38.9480   23.1540   38.6350 C   0  0  0  0  0  0  0  0  0  0  0  0
   37.9080   24.0380   38.4760 C   0  0  0  0  0  0  0  0  0  0  0  0
   37.7930   24.6740   37.2830 N   0  0  0  0  0  0  0  0  0  0  0  0
   38.6550   24.4760   36.2470 C   0  0  0  0  0  0  0  0  0  0  0  0
   39.6430   23.6400   36.3840 N   0  0  0  0  0  0  0  0  0  0  0  0
   38.4200   25.2060   35.0490 N   0  0  0  0  0  0  0  0  0  0  0  0
   37.8220   26.5500   35.1400 C   0  0  0  0  0  0  0  0  0  0  0  0
   37.0150   26.8400   33.9210 C   0  0  0  0  0  0  0  0  0  0  0  0
   36.9260   25.7830   33.0040 O   0  0  0  0  0  0  0  0  0  0  0  0
   38.2240   25.5100   32.6740 C   0  0  1  0  0  0  0  0  0  0  0  0
   38.7830   24.5910   33.7950 C   0  0  2  0  0  0  0  0  0  0  0  0
   38.5110   25.0590   31.3390 C   0  0  0  0  0  0  0  0  0  0  0  0
   38.2610   24.0230   30.5290 N   0  0  0  0  0  0  0  0  0  0  0  0
   38.8400   24.2310   29.3810 O   0  0  0  0  0  0  0  0  0  0  0  0
   39.4710   25.3610   29.3680 C   0  0  0  0  0  0  0  0  0  0  0  0
   39.2700   25.8740   30.5770 N   0  0  0  0  0  0  0  0  0  0  0  0
   40.2490   25.9660   28.2720 C   0  0  0  0  0  0  0  0  0  0  0  0
   41.6180   25.8050   28.3080 C   0  0  0  0  0  0  0  0  0  0  0  0
   42.2010   26.7040   26.7750 S   0  0  0  0  0  0  0  0  0  0  0  0
   40.3960   27.1360   26.3740 C   0  0  0  0  0  0  0  0  0  0  0  0
   39.8450   26.6600   27.2260 N   0  0  0  0  0  0  0  0  0  0  0  0
   37.9430   23.3080   33.6410 C   0  0  0  0  0  0  0  0  0  0  0  0
   37.0200   23.5810   32.6940 F   0  0  0  0  0  0  0  0  0  0  0  0
   37.5470   22.7120   34.7700 F   0  0  0  0  0  0  0  0  0  0  0  0
   38.8200   22.3790   32.9830 F   0  0  0  0  0  0  0  0  0  0  0  0
   40.0290   24.4080   33.3810 O   0  0  0  0  0  0  0  0  0  0  0  0
   41.1180   25.0660   33.6080 C   0  0  0  0  0  0  0  0  0  0  0  0
   40.8500   26.4300   33.4980 F   0  0  0  0  0  0  0  0  0  0  0  0
   42.0440   24.8490   32.5880 F   0  0  0  0  0  0  0  0  0  0  0  0
   41.8070   25.0150   34.7830 F   0  0  0  0  0  0  0  0  0  0  0  0
   40.6830   22.2706   37.5960 H   0  0  0  0  0  0  0  0  0  0  0  0
   39.0961   22.6086   39.5787 H   0  0  0  0  0  0  0  0  0  0  0  0
   37.1917   24.2240   39.2898 H   0  0  0  0  0  0  0  0  0  0  0  0
   37.1718   26.5988   36.0259 H   0  0  0  0  0  0  0  0  0  0  0  0
   38.6269   27.2952   35.2223 H   0  0  0  0  0  0  0  0  0  0  0  0
   35.9954   27.1010   34.2409 H   0  0  0  0  0  0  0  0  0  0  0  0
   37.5315   27.6582   33.3978 H   0  0  0  0  0  0  0  0  0  0  0  0
   38.7560   26.4716   32.6268 H   0  0  0  0  0  0  0  0  0  0  0  0
   42.2225   25.2748   29.0586 H   0  0  0  0  0  0  0  0  0  0  0  0
   39.9943   27.7068   25.5238 H   0  0  0  0  0  0  0  0  0  0  0  0
  1  2  2  0
  3  2  1  0
  4  3  2  0
  5  6  2  0
  5  4  1  0
  6  1  1  0
  7  8  1  0
  7  5  1  0
  9  8  1  0
 10  9  1  0
 11 10  1  0
 11 12  1  0
 12 27  1  6
 12  7  1  0
 13 11  1  0
 14 13  2  0
 15 14  1  0
 16 15  1  0
 16 17  2  0
 17 13  1  0
 18 19  2  0
 18 16  1  0
 20 19  1  0
 21 20  1  0
 21 22  2  0
 22 18  1  0
 23 12  1  0
 23 25  1  0
 24 23  1  0
 26 23  1  0
 27 28  1  0
 28 31  1  0
 29 28  1  0
 30 28  1  0
  1 32  1  0
  2 33  1  0
  3 34  1  0
  8 35  1  0
  8 36  1  0
  9 37  1  0
  9 38  1  0
 11 39  1  1
 19 40  1  0
 21 41  1  0
M  ISO  8  32  14  33  14  34  14  35  13  36  13  37  13  38  13  39  13
M  ISO  2  40  14  41  14
M  END
>  <minimizedAffinity>  (1) 
-5.15640926

>  <minimizedRMSD>  (1) 
0.356850713

$$$$
