
     RDKit          3D

 25 27  0  0  0  0  0  0  0  0999 V2000
   38.1840   24.6100   35.6120 N   0  0  0  0  0  0  0  0  0  0  0  0
   37.4630   24.0380   36.6170 C   0  0  0  0  0  0  0  0  0  0  0  0
   38.2910   23.1740   37.2730 N   0  0  0  0  0  0  0  0  0  0  0  0
   39.5010   23.2150   36.6780 C   0  0  0  0  0  0  0  0  0  0  0  0
   40.6920   22.5610   36.9190 C   0  0  0  0  0  0  0  0  0  0  0  0
   41.7770   22.8090   36.1340 N   0  0  0  0  0  0  0  0  0  0  0  0
   41.6900   23.6930   35.1220 C   0  0  0  0  0  0  0  0  0  0  0  0
   40.5320   24.3470   34.8660 N   0  0  0  0  0  0  0  0  0  0  0  0
   39.4440   24.1160   35.6300 C   0  0  0  0  0  0  0  0  0  0  0  0
   37.6660   25.5710   34.7010 C   0  0  0  0  0  0  0  0  0  0  0  0
   37.2490   26.8100   35.2000 C   0  0  0  0  0  0  0  0  0  0  0  0
   36.7430   27.7530   34.3210 C   0  0  0  0  0  0  0  0  0  0  0  0
   36.6690   27.4340   32.9840 N   0  0  0  0  0  0  0  0  0  0  0  0
   37.0810   26.2270   32.5370 C   0  0  0  0  0  0  0  0  0  0  0  0
   37.5720   25.3090   33.3740 N   0  0  0  0  0  0  0  0  0  0  0  0
   36.2830   29.0470   34.6750 N   0  0  0  0  0  0  0  0  0  0  0  0
   40.8150   21.6170   37.9860 N   0  0  0  0  0  0  0  0  0  0  0  0
   36.4076   24.2362   36.8556 H   0  0  0  0  0  0  0  0  0  0  0  0
   42.5722   23.8868   34.4942 H   0  0  0  0  0  0  0  0  0  0  0  0
   37.3220   27.0318   36.2749 H   0  0  0  0  0  0  0  0  0  0  0  0
   37.0107   25.9962   31.4638 H   0  0  0  0  0  0  0  0  0  0  0  0
   35.9221   29.6819   33.9486 H   0  0  0  0  0  0  0  0  0  0  0  0
   36.3098   29.3519   35.6585 H   0  0  0  0  0  0  0  0  0  0  0  0
   41.7126   21.1391   38.1499 H   0  0  0  0  0  0  0  0  0  0  0  0
   40.0060   21.4150   38.5907 H   0  0  0  0  0  0  0  0  0  0  0  0
  1  9  1  0
  1  2  1  0
  2  3  2  0
  4  5  2  0
  4  3  1  0
  5 17  1  0
  6  5  1  0
  7  6  2  0
  8  7  1  0
  8  9  2  0
  9  4  1  0
 10 11  2  0
 10  1  1  0
 12 16  1  0
 12 11  1  0
 13 12  2  0
 14 13  1  0
 14 15  2  0
 15 10  1  0
  2 18  1  0
  7 19  1  0
 11 20  1  0
 14 21  1  0
 16 22  1  0
 16 23  1  0
 17 24  1  0
 17 25  1  0
M  ISO  4  18  14  19  14  20  14  21  14
M  END
>  <minimizedAffinity>  (1) 
-4.78043365

>  <minimizedRMSD>  (1) 
4.90242958

$$$$
