
     RDKit          3D

 28 30  0  0  0  0  0  0  0  0999 V2000
   41.0020   22.1820   36.3220 C   0  0  0  0  0  0  0  0  0  0  0  0
   40.6060   22.5700   37.5920 C   0  0  0  0  0  0  0  0  0  0  0  0
   39.3230   22.9750   37.8860 C   0  0  0  0  0  0  0  0  0  0  0  0
   38.4350   22.9780   36.8520 N   0  0  0  0  0  0  0  0  0  0  0  0
   38.8060   22.6030   35.6120 C   0  0  0  0  0  0  0  0  0  0  0  0
   40.0530   22.2250   35.3950 N   0  0  0  0  0  0  0  0  0  0  0  0
   38.8840   23.3760   39.1640 N   0  0  0  0  0  0  0  0  0  0  0  0
   42.4010   21.7880   36.2120 C   0  0  0  0  0  0  0  0  0  0  0  0
   42.8270   20.4830   36.0960 C   0  0  0  0  0  0  0  0  0  0  0  0
   44.1150   20.0820   35.9920 C   0  0  0  0  0  0  0  0  0  0  0  0
   45.1260   21.0040   35.9960 C   0  0  0  0  0  0  0  0  0  0  0  0
   44.7900   22.3260   36.1070 C   0  0  0  0  0  0  0  0  0  0  0  0
   45.8130   23.2420   36.1100 C   0  0  0  0  0  0  0  0  0  0  0  0
   45.5560   24.5880   36.2190 C   0  0  0  0  0  0  0  0  0  0  0  0
   44.2300   24.9760   36.3250 C   0  0  0  0  0  0  0  0  0  0  0  0
   43.2480   24.0190   36.3160 C   0  0  0  0  0  0  0  0  0  0  0  0
   43.4590   22.6670   36.2100 C   0  0  0  0  0  0  0  0  0  0  0  0
   41.3501   22.5538   38.4019 H   0  0  0  0  0  0  0  0  0  0  0  0
   38.0772   22.6116   34.7881 H   0  0  0  0  0  0  0  0  0  0  0  0
   37.9058   23.6662   39.3049 H   0  0  0  0  0  0  0  0  0  0  0  0
   39.5414   23.3788   39.9569 H   0  0  0  0  0  0  0  0  0  0  0  0
   42.0541   19.7003   36.0872 H   0  0  0  0  0  0  0  0  0  0  0  0
   44.3502   19.0111   35.9039 H   0  0  0  0  0  0  0  0  0  0  0  0
   46.1775   20.6919   35.9125 H   0  0  0  0  0  0  0  0  0  0  0  0
   46.8529   22.8938   36.0240 H   0  0  0  0  0  0  0  0  0  0  0  0
   46.3704   25.3275   36.2220 H   0  0  0  0  0  0  0  0  0  0  0  0
   43.9679   26.0405   36.4154 H   0  0  0  0  0  0  0  0  0  0  0  0
   42.2065   24.3628   36.4006 H   0  0  0  0  0  0  0  0  0  0  0  0
  1  2  2  0
  2  3  1  0
  3  7  1  0
  4  3  2  0
  5  4  1  0
  6  5  2  0
  6  1  1  0
  8  1  1  0
  9  8  2  0
 10 11  2  0
 10  9  1  0
 11 12  1  0
 12 13  1  0
 12 17  2  0
 13 14  2  0
 14 15  1  0
 16 15  2  0
 17  8  1  0
 17 16  1  0
  2 18  1  0
  5 19  1  0
  7 20  1  0
  7 21  1  0
  9 22  1  0
 10 23  1  0
 11 24  1  0
 13 25  1  0
 14 26  1  0
 15 27  1  0
 16 28  1  0
M  ISO  8  18  14  19  14  22  14  23  14  24  14  25  14  26  14  27  14
M  ISO  1  28  14
M  END
>  <minimizedAffinity>  (1) 
-4.86863518

>  <minimizedRMSD>  (1) 
2.77189827

$$$$
