
     RDKit          3D

 28 29  0  0  0  0  0  0  0  0999 V2000
   40.1860   23.5210   36.2100 C   0  0  0  0  0  0  0  0  0  0  0  0
   39.8660   22.8590   37.4000 C   0  0  0  0  0  0  0  0  0  0  0  0
   38.6340   23.1650   38.0020 C   0  0  0  0  0  0  0  0  0  0  0  0
   37.8120   24.0860   37.4080 N   0  0  0  0  0  0  0  0  0  0  0  0
   38.1720   24.7080   36.2400 C   0  0  0  0  0  0  0  0  0  0  0  0
   39.3450   24.4190   35.6620 N   0  0  0  0  0  0  0  0  0  0  0  0
   38.1490   22.5950   39.2040 N   0  0  0  0  0  0  0  0  0  0  0  0
   41.4900   23.1950   35.5710 C   0  0  0  0  0  0  0  0  0  0  0  0
   42.1210   24.3560   34.9060 C   0  0  0  0  0  0  0  0  0  0  0  0
   43.2060   25.0360   35.6840 C   0  0  0  0  0  0  0  0  0  0  0  0
   44.1300   24.1290   36.4320 C   0  0  0  0  0  0  0  0  0  0  0  0
   43.8180   22.6560   36.2140 C   0  0  0  0  0  0  0  0  0  0  0  0
   42.3510   22.5290   36.6110 C   0  0  0  0  0  0  0  0  0  0  0  0
   40.5533   22.1261   37.8478 H   0  0  0  0  0  0  0  0  0  0  0  0
   37.4975   25.4440   35.7781 H   0  0  0  0  0  0  0  0  0  0  0  0
   37.2309   22.8787   39.5748 H   0  0  0  0  0  0  0  0  0  0  0  0
   38.7143   21.8966   39.7076 H   0  0  0  0  0  0  0  0  0  0  0  0
   41.3377   22.4956   34.7357 H   0  0  0  0  0  0  0  0  0  0  0  0
   42.5526   24.0085   33.9558 H   0  0  0  0  0  0  0  0  0  0  0  0
   41.3234   25.1038   34.7847 H   0  0  0  0  0  0  0  0  0  0  0  0
   43.8090   25.6266   34.9786 H   0  0  0  0  0  0  0  0  0  0  0  0
   42.6950   25.6412   36.4473 H   0  0  0  0  0  0  0  0  0  0  0  0
   45.1597   24.3231   36.0972 H   0  0  0  0  0  0  0  0  0  0  0  0
   44.0021   24.3385   37.5043 H   0  0  0  0  0  0  0  0  0  0  0  0
   43.9638   22.3769   35.1600 H   0  0  0  0  0  0  0  0  0  0  0  0
   44.4741   21.9927   36.7967 H   0  0  0  0  0  0  0  0  0  0  0  0
   42.1914   23.0147   37.5849 H   0  0  0  0  0  0  0  0  0  0  0  0
   42.0816   21.4650   36.6833 H   0  0  0  0  0  0  0  0  0  0  0  0
  1  2  2  0
  2  3  1  0
  3  7  1  0
  4  3  2  0
  5  4  1  0
  6  1  1  0
  6  5  2  0
  8  1  1  0
  8 13  1  0
  9  8  1  0
  9 10  1  0
 10 11  1  0
 12 11  1  0
 12 13  1  0
  2 14  1  0
  5 15  1  0
  7 16  1  0
  7 17  1  0
  8 18  1  0
  9 19  1  0
  9 20  1  0
 10 21  1  0
 10 22  1  0
 11 23  1  0
 11 24  1  0
 12 25  1  0
 12 26  1  0
 13 27  1  0
 13 28  1  0
M  ISO  8  14  14  15  14  18  13  19  13  20  13  21  13  22  13  23  13
M  ISO  5  24  13  25  13  26  13  27  13  28  13
M  END
>  <minimizedAffinity>  (1) 
-4.32571125

>  <minimizedRMSD>  (1) 
2.60363507

$$$$
