
     RDKit          3D

 19 19  0  0  0  0  0  0  0  0999 V2000
   38.6330   24.5920   36.3150 C   0  0  0  0  0  0  0  0  0  0  0  0
   39.5660   23.5530   36.3790 C   0  0  0  0  0  0  0  0  0  0  0  0
   39.6550   22.8740   37.5830 C   0  0  0  0  0  0  0  0  0  0  0  0
   38.8490   23.2320   38.6430 N   0  0  0  0  0  0  0  0  0  0  0  0
   37.9630   24.2520   38.5140 C   0  0  0  0  0  0  0  0  0  0  0  0
   37.8580   24.9290   37.3510 N   0  0  0  0  0  0  0  0  0  0  0  0
   40.5320   21.7930   37.8570 N   0  0  0  0  0  0  0  0  0  0  0  0
   38.5290   25.3000   35.0860 N   0  0  0  0  0  0  0  0  0  0  0  0
   38.8510   26.6900   35.0080 C   0  0  0  0  0  0  0  0  0  0  0  0
   38.8930   27.3620   36.1090 N   0  0  0  0  0  0  0  0  0  0  0  0
   39.1070   27.2640   33.7230 N   0  0  0  0  0  0  0  0  0  0  0  0
   39.1300   28.3730   36.0290 H   0  0  0  0  0  0  0  0  0  0  0  0
   40.1969   23.2883   35.5177 H   0  0  0  0  0  0  0  0  0  0  0  0
   37.3243   24.5297   39.3655 H   0  0  0  0  0  0  0  0  0  0  0  0
   40.5270   21.3486   38.7862 H   0  0  0  0  0  0  0  0  0  0  0  0
   41.1737   21.4526   37.1267 H   0  0  0  0  0  0  0  0  0  0  0  0
   38.2169   24.8034   34.2394 H   0  0  0  0  0  0  0  0  0  0  0  0
   39.3410   28.2639   33.6429 H   0  0  0  0  0  0  0  0  0  0  0  0
   39.0574   26.6774   32.8778 H   0  0  0  0  0  0  0  0  0  0  0  0
  1  2  2  0
  1  6  1  0
  2  3  1  0
  3  7  1  0
  3  4  2  0
  5  4  1  0
  6  5  2  0
  8  1  1  0
  9  8  1  0
  9 10  2  0
 11  9  1  0
 12 10  1  0
  2 13  1  0
  5 14  1  0
  7 15  1  0
  7 16  1  0
  8 17  1  0
 11 18  1  0
 11 19  1  0
M  ISO  2  13  14  14  14
M  END
>  <minimizedAffinity>  (1) 
-4.30748749

>  <minimizedRMSD>  (1) 
4.49688339

$$$$
