
     RDKit          3D

 42 45  0  0  0  0  0  0  0  0999 V2000
   38.5830   23.8370   37.0410 C   0  0  0  0  0  0  0  0  0  0  0  0
   39.8570   23.3040   36.8060 C   0  0  0  0  0  0  0  0  0  0  0  0
   40.5930   23.8470   35.7190 C   0  0  0  0  0  0  0  0  0  0  0  0
   40.0340   24.8270   34.9860 N   0  0  0  0  0  0  0  0  0  0  0  0
   38.8020   25.3150   35.2420 C   0  0  0  0  0  0  0  0  0  0  0  0
   38.0940   24.8200   36.2580 N   0  0  0  0  0  0  0  0  0  0  0  0
   38.1710   26.3460   34.4850 N   0  0  0  0  0  0  0  0  0  0  0  0
   37.1230   27.0920   34.8610 C   0  0  0  0  0  0  0  0  0  0  0  0
   36.6260   28.0390   34.0020 C   0  0  0  0  0  0  0  0  0  0  0  0
   37.1910   28.2160   32.7860 C   0  0  0  0  0  0  0  0  0  0  0  0
   36.7510   29.0830   31.9740 O   0  0  0  0  0  0  0  0  0  0  0  0
   38.2370   27.4660   32.4200 N   0  0  0  0  0  0  0  0  0  0  0  0
   38.7330   26.5260   33.2640 C   0  0  0  0  0  0  0  0  0  0  0  0
   39.7330   25.8680   32.8100 O   0  0  0  0  0  0  0  0  0  0  0  0
   38.8050   27.6610   31.1250 C   0  0  0  0  0  0  0  0  0  0  0  0
   39.8970   27.0030   30.6910 N   0  0  0  0  0  0  0  0  0  0  0  0
   40.2050   27.3480   29.4860 O   0  0  0  0  0  0  0  0  0  0  0  0
   39.3020   28.2430   29.1320 C   0  0  0  0  0  0  0  0  0  0  0  0
   38.4240   28.4450   30.1490 N   0  0  0  0  0  0  0  0  0  0  0  0
   38.9540   29.0710   27.9970 N   0  0  0  0  0  0  0  0  0  0  0  0
   39.7820   29.0680   26.8040 C   0  0  0  0  0  0  0  0  0  0  0  0
   40.3030   30.4200   26.4520 C   0  0  0  0  0  0  0  0  0  0  0  0
   39.6760   31.5250   27.0670 N   0  0  0  0  0  0  0  0  0  0  0  0
   38.5290   31.3620   27.8440 C   0  0  0  0  0  0  0  0  0  0  0  0
   37.8540   30.0040   27.8070 C   0  0  0  0  0  0  0  0  0  0  0  0
   37.7720   23.2920   38.1780 C   0  0  0  0  0  0  0  0  0  0  0  0
   38.5610   22.5690   39.0690 F   0  0  0  0  0  0  0  0  0  0  0  0
   37.1990   24.3350   38.8870 F   0  0  0  0  0  0  0  0  0  0  0  0
   36.7500   22.5040   37.6560 F   0  0  0  0  0  0  0  0  0  0  0  0
   40.2690   22.5011   37.4349 H   0  0  0  0  0  0  0  0  0  0  0  0
   41.6000   23.4736   35.4813 H   0  0  0  0  0  0  0  0  0  0  0  0
   36.6651   26.9461   35.8505 H   0  0  0  0  0  0  0  0  0  0  0  0
   35.7662   28.6557   34.3028 H   0  0  0  0  0  0  0  0  0  0  0  0
   40.6365   28.3961   26.9723 H   0  0  0  0  0  0  0  0  0  0  0  0
   39.1522   28.7305   25.9677 H   0  0  0  0  0  0  0  0  0  0  0  0
   41.3681   30.4474   26.7254 H   0  0  0  0  0  0  0  0  0  0  0  0
   40.0990   30.5355   25.3773 H   0  0  0  0  0  0  0  0  0  0  0  0
   40.3829   31.9602   27.6768 H   0  0  0  0  0  0  0  0  0  0  0  0
   38.8055   31.5658   28.8890 H   0  0  0  0  0  0  0  0  0  0  0  0
   37.7931   32.0564   27.4124 H   0  0  0  0  0  0  0  0  0  0  0  0
   37.1151   29.9103   28.6165 H   0  0  0  0  0  0  0  0  0  0  0  0
   37.2994   29.8272   26.8736 H   0  0  0  0  0  0  0  0  0  0  0  0
  1 26  1  0
  2  1  2  0
  3  2  1  0
  4  5  1  0
  4  3  2  0
  5  6  2  0
  6  1  1  0
  7  8  1  0
  7  5  1  0
  9  8  2  0
 10  9  1  0
 11 10  2  0
 12 10  1  0
 12 13  1  0
 13  7  1  0
 14 13  2  0
 15 12  1  0
 16 15  2  0
 17 16  1  0
 18 17  1  0
 18 19  2  0
 19 15  1  0
 20 18  1  0
 21 20  1  0
 22 21  1  0
 22 23  1  0
 23 24  1  0
 25 24  1  0
 25 20  1  0
 26 28  1  0
 26 27  1  0
 29 26  1  0
  2 30  1  0
  3 31  1  0
  8 32  1  0
  9 33  1  0
 21 34  1  0
 21 35  1  0
 22 36  1  0
 22 37  1  0
 23 38  1  0
 24 39  1  0
 24 40  1  0
 25 41  1  0
 25 42  1  0
M  ISO  8  30  14  31  14  32  14  33  14  34  13  35  13  36  13  37  13
M  ISO  5  38   5  39  13  40  13  41  13  42  13
M  END
>  <minimizedAffinity>  (1) 
-6.0221386

>  <minimizedRMSD>  (1) 
1.39760184

$$$$
