
     RDKit          3D

 27 28  0  0  0  0  0  0  0  0999 V2000
   38.3500   23.0570   35.3040 C   0  0  0  0  0  0  0  0  0  0  0  0
   39.3740   22.2590   35.8200 C   0  0  0  0  0  0  0  0  0  0  0  0
   39.6850   22.4120   37.1610 C   0  0  0  0  0  0  0  0  0  0  0  0
   38.9880   23.3250   37.9200 N   0  0  0  0  0  0  0  0  0  0  0  0
   37.9950   24.0800   37.3630 C   0  0  0  0  0  0  0  0  0  0  0  0
   37.6940   23.9330   36.0730 N   0  0  0  0  0  0  0  0  0  0  0  0
   40.6850   21.7000   37.8650 N   0  0  0  0  0  0  0  0  0  0  0  0
   38.0160   22.9130   33.9280 N   0  0  0  0  0  0  0  0  0  0  0  0
   37.7230   24.0500   33.0980 C   0  0  0  0  0  0  0  0  0  0  0  0
   37.1400   23.4900   31.8000 C   0  0  0  0  0  0  0  0  0  0  0  0
   36.0430   22.5150   32.1700 C   0  0  0  0  0  0  0  0  0  0  0  0
   36.5230   21.3370   32.9670 C   0  0  0  0  0  0  0  0  0  0  0  0
   37.9660   21.5910   33.3340 C   0  0  0  0  0  0  0  0  0  0  0  0
   39.9117   21.5381   35.1867 H   0  0  0  0  0  0  0  0  0  0  0  0
   37.4451   24.8077   37.9779 H   0  0  0  0  0  0  0  0  0  0  0  0
   40.8415   21.8859   38.8659 H   0  0  0  0  0  0  0  0  0  0  0  0
   41.2564   20.9959   37.3765 H   0  0  0  0  0  0  0  0  0  0  0  0
   36.9915   24.7055   33.5932 H   0  0  0  0  0  0  0  0  0  0  0  0
   38.6246   24.6504   32.9069 H   0  0  0  0  0  0  0  0  0  0  0  0
   37.9250   22.9717   31.2299 H   0  0  0  0  0  0  0  0  0  0  0  0
   36.7386   24.3024   31.1764 H   0  0  0  0  0  0  0  0  0  0  0  0
   35.2882   23.0512   32.7639 H   0  0  0  0  0  0  0  0  0  0  0  0
   35.6346   22.1197   31.2282 H   0  0  0  0  0  0  0  0  0  0  0  0
   35.9174   21.2294   33.8790 H   0  0  0  0  0  0  0  0  0  0  0  0
   36.4309   20.4107   32.3809 H   0  0  0  0  0  0  0  0  0  0  0  0
   38.3123   20.8371   34.0563 H   0  0  0  0  0  0  0  0  0  0  0  0
   38.6171   21.5286   32.4496 H   0  0  0  0  0  0  0  0  0  0  0  0
  1  2  2  0
  1  6  1  0
  2  3  1  0
  3  7  1  0
  3  4  2  0
  5  4  1  0
  6  5  2  0
  8  1  1  0
  9  8  1  0
 10 11  1  0
 10  9  1  0
 11 12  1  0
 12 13  1  0
 13  8  1  0
  2 14  1  0
  5 15  1  0
  7 16  1  0
  7 17  1  0
  9 18  1  0
  9 19  1  0
 10 20  1  0
 10 21  1  0
 11 22  1  0
 11 23  1  0
 12 24  1  0
 12 25  1  0
 13 26  1  0
 13 27  1  0
M  ISO  8  14  14  15  14  18  13  19  13  20  13  21  13  22  13  23  13
M  ISO  4  24  13  25  13  26  13  27  13
M  END
>  <minimizedAffinity>  (1) 
-4.04504395

>  <minimizedRMSD>  (1) 
5.37897587

$$$$
