
     RDKit          3D

 19 20  0  0  0  0  0  0  0  0999 V2000
   37.8130   22.2750   36.1070 C   0  0  0  0  0  0  0  0  0  0  0  0
   39.2070   22.1620   36.0920 C   0  0  0  0  0  0  0  0  0  0  0  0
   39.9240   22.7110   37.1680 C   0  0  0  0  0  0  0  0  0  0  0  0
   39.2300   23.3220   38.1660 N   0  0  0  0  0  0  0  0  0  0  0  0
   37.8810   23.4100   38.1410 C   0  0  0  0  0  0  0  0  0  0  0  0
   37.1810   22.8870   37.1140 N   0  0  0  0  0  0  0  0  0  0  0  0
   41.3330   22.6740   37.2900 N   0  0  0  0  0  0  0  0  0  0  0  0
   37.0910   21.7270   35.0320 C   0  0  0  0  0  0  0  0  0  0  0  0
   36.0010   20.9070   34.9870 C   0  0  0  0  0  0  0  0  0  0  0  0
   35.4900   20.5150   33.7710 C   0  0  0  0  0  0  0  0  0  0  0  0
   36.1220   20.9850   32.6170 C   0  0  0  0  0  0  0  0  0  0  0  0
   37.4980   22.0230   33.3370 S   0  0  0  0  0  0  0  0  0  0  0  0
   39.7260   21.6586   35.2630 H   0  0  0  0  0  0  0  0  0  0  0  0
   37.3510   23.9116   38.9640 H   0  0  0  0  0  0  0  0  0  0  0  0
   41.7903   23.0987   38.1094 H   0  0  0  0  0  0  0  0  0  0  0  0
   41.9015   22.2224   36.5594 H   0  0  0  0  0  0  0  0  0  0  0  0
   35.5324   20.5605   35.9199 H   0  0  0  0  0  0  0  0  0  0  0  0
   34.6132   19.8537   33.7095 H   0  0  0  0  0  0  0  0  0  0  0  0
   35.8745   20.7941   31.5623 H   0  0  0  0  0  0  0  0  0  0  0  0
  1  6  1  0
  2  1  2  0
  2  3  1  0
  3  7  1  0
  3  4  2  0
  5  4  1  0
  6  5  2  0
  8  1  1  0
  9  8  2  0
 10  9  1  0
 11 12  1  0
 11 10  2  0
 12  8  1  0
  2 13  1  0
  5 14  1  0
  7 15  1  0
  7 16  1  0
  9 17  1  0
 10 18  1  0
 11 19  1  0
M  ISO  5  13  14  14  14  17  14  18  14  19  14
M  END
>  <minimizedAffinity>  (1) 
-3.80390286

>  <minimizedRMSD>  (1) 
4.96507835

$$$$
