
     RDKit          3D

 15 15  0  0  0  0  0  0  0  0999 V2000
   40.4230   22.1030   37.0470 C   0  0  0  0  0  0  0  0  0  0  0  0
   39.8860   22.9100   38.0510 C   0  0  0  0  0  0  0  0  0  0  0  0
   38.6250   23.4750   37.8280 C   0  0  0  0  0  0  0  0  0  0  0  0
   37.9910   23.2110   36.6540 N   0  0  0  0  0  0  0  0  0  0  0  0
   38.5530   22.4120   35.6930 C   0  0  0  0  0  0  0  0  0  0  0  0
   39.7680   21.8670   35.9040 N   0  0  0  0  0  0  0  0  0  0  0  0
   37.9300   24.3160   38.7350 N   0  0  0  0  0  0  0  0  0  0  0  0
   41.7380   21.5210   37.2930 C   0  0  0  0  0  0  0  0  0  0  0  0
   42.7310   21.9140   36.6320 O   0  0  0  0  0  0  0  0  0  0  0  0
   41.8760   20.5270   38.2730 O   0  0  0  0  0  0  0  0  0  0  0  0
   40.4351   23.0957   38.9859 H   0  0  0  0  0  0  0  0  0  0  0  0
   38.0152   22.2161   34.7536 H   0  0  0  0  0  0  0  0  0  0  0  0
   37.0024   24.6876   38.4853 H   0  0  0  0  0  0  0  0  0  0  0  0
   38.3531   24.5550   39.6432 H   0  0  0  0  0  0  0  0  0  0  0  0
   42.7634   20.1248   38.4486 H   0  0  0  0  0  0  0  0  0  0  0  0
  1  8  1  0
  1  2  2  0
  3  2  1  0
  3  7  1  0
  4  3  2  0
  5  6  2  0
  5  4  1  0
  6  1  1  0
  8 10  1  0
  9  8  2  0
  2 11  1  0
  5 12  1  0
  7 13  1  0
  7 14  1  0
 10 15  1  0
M  ISO  3  11  14  12  14  15   3
M  END
>  <minimizedAffinity>  (1) 
-3.68220544

>  <minimizedRMSD>  (1) 
0.55619508

$$$$
