
     RDKit          3D

 21 22  0  0  0  0  0  0  0  0999 V2000
   39.8340   22.2410   36.5790 C   0  0  0  0  0  0  0  0  0  0  0  0
   39.6540   23.0460   37.7080 C   0  0  0  0  0  0  0  0  0  0  0  0
   38.3950   23.6010   37.9220 C   0  0  0  0  0  0  0  0  0  0  0  0
   37.3900   23.3450   37.0370 N   0  0  0  0  0  0  0  0  0  0  0  0
   37.6150   22.5490   35.9440 C   0  0  0  0  0  0  0  0  0  0  0  0
   38.8140   22.0140   35.7280 N   0  0  0  0  0  0  0  0  0  0  0  0
   38.0430   24.4360   39.0090 N   0  0  0  0  0  0  0  0  0  0  0  0
   41.1500   21.6560   36.3470 C   0  0  0  0  0  0  0  0  0  0  0  0
   41.8180   21.0660   37.4030 C   0  0  0  0  0  0  0  0  0  0  0  0
   43.0630   20.5180   37.1600 C   0  0  0  0  0  0  0  0  0  0  0  0
   43.5530   20.6040   35.8580 C   0  0  0  0  0  0  0  0  0  0  0  0
   42.8790   21.1950   34.8060 C   0  0  0  0  0  0  0  0  0  0  0  0
   41.6600   21.7180   35.0970 N   0  0  0  0  0  0  0  0  0  0  0  0
   40.4825   23.2353   38.4065 H   0  0  0  0  0  0  0  0  0  0  0  0
   36.7954   22.3503   35.2377 H   0  0  0  0  0  0  0  0  0  0  0  0
   37.0837   24.8027   39.0871 H   0  0  0  0  0  0  0  0  0  0  0  0
   38.7461   24.6770   39.7220 H   0  0  0  0  0  0  0  0  0  0  0  0
   41.3716   21.0335   38.4078 H   0  0  0  0  0  0  0  0  0  0  0  0
   43.6427   20.0345   37.9601 H   0  0  0  0  0  0  0  0  0  0  0  0
   44.5438   20.1720   35.6538 H   0  0  0  0  0  0  0  0  0  0  0  0
   43.3049   21.2391   33.7927 H   0  0  0  0  0  0  0  0  0  0  0  0
  1  2  2  0
  2  3  1  0
  3  7  1  0
  4  3  2  0
  5  4  1  0
  6  5  2  0
  6  1  1  0
  8  1  1  0
  8  9  2  0
 10  9  1  0
 11 10  2  0
 12 13  2  0
 12 11  1  0
 13  8  1  0
  2 14  1  0
  5 15  1  0
  7 16  1  0
  7 17  1  0
  9 18  1  0
 10 19  1  0
 11 20  1  0
 12 21  1  0
M  ISO  6  14  14  15  14  18  14  19  14  20  14  21  14
M  END
>  <minimizedAffinity>  (1) 
-3.69831872

>  <minimizedRMSD>  (1) 
0.564857662

$$$$
