
     RDKit          3D

 22 23  0  0  0  0  0  0  0  0999 V2000
   40.0000   22.5300   36.7900 C   0  0  0  0  0  0  0  0  0  0  0  0
   39.5940   23.3400   37.8450 C   0  0  0  0  0  0  0  0  0  0  0  0
   38.2570   23.6700   37.9800 C   0  0  0  0  0  0  0  0  0  0  0  0
   37.3710   23.1790   37.0590 N   0  0  0  0  0  0  0  0  0  0  0  0
   37.7880   22.3910   36.0410 C   0  0  0  0  0  0  0  0  0  0  0  0
   39.0750   22.0820   35.9200 N   0  0  0  0  0  0  0  0  0  0  0  0
   37.7110   24.4810   39.0010 N   0  0  0  0  0  0  0  0  0  0  0  0
   41.3930   22.1650   36.6160 C   0  0  0  0  0  0  0  0  0  0  0  0
   41.9150   20.9170   36.8690 C   0  0  0  0  0  0  0  0  0  0  0  0
   43.2420   20.5790   36.7000 C   0  0  0  0  0  0  0  0  0  0  0  0
   44.1260   21.5380   36.2490 C   0  0  0  0  0  0  0  0  0  0  0  0
   43.6350   22.7980   35.9870 C   0  0  0  0  0  0  0  0  0  0  0  0
   42.3010   23.0900   36.1700 C   0  0  0  0  0  0  0  0  0  0  0  0
   40.3320   23.7165   38.5686 H   0  0  0  0  0  0  0  0  0  0  0  0
   37.0602   22.0053   35.3120 H   0  0  0  0  0  0  0  0  0  0  0  0
   36.6992   24.6729   39.0205 H   0  0  0  0  0  0  0  0  0  0  0  0
   38.3249   24.8800   39.7254 H   0  0  0  0  0  0  0  0  0  0  0  0
   41.2285   20.1370   37.2300 H   0  0  0  0  0  0  0  0  0  0  0  0
   43.5904   19.5595   36.9216 H   0  0  0  0  0  0  0  0  0  0  0  0
   45.1907   21.3032   36.1031 H   0  0  0  0  0  0  0  0  0  0  0  0
   44.3174   23.5819   35.6267 H   0  0  0  0  0  0  0  0  0  0  0  0
   41.9497   24.1087   35.9488 H   0  0  0  0  0  0  0  0  0  0  0  0
  1  2  2  0
  2  3  1  0
  3  7  1  0
  4  3  2  0
  5  4  1  0
  6  5  2  0
  6  1  1  0
  8  1  1  0
  8  9  2  0
 10  9  1  0
 11 10  2  0
 12 13  2  0
 12 11  1  0
 13  8  1  0
  2 14  1  0
  5 15  1  0
  7 16  1  0
  7 17  1  0
  9 18  1  0
 10 19  1  0
 11 20  1  0
 12 21  1  0
 13 22  1  0
M  ISO  7  14  14  15  14  18  14  19  14  20  14  21  14  22  14
M  END
>  <minimizedAffinity>  (1) 
-3.86346889

>  <minimizedRMSD>  (1) 
0.783470333

$$$$
