
     RDKit          3D

 19 20  0  0  0  0  0  0  0  0999 V2000
   40.0170   22.2190   36.7770 C   0  0  0  0  0  0  0  0  0  0  0  0
   39.6840   23.0140   37.8790 C   0  0  0  0  0  0  0  0  0  0  0  0
   38.4740   23.7000   37.8400 C   0  0  0  0  0  0  0  0  0  0  0  0
   37.6830   23.5640   36.7440 N   0  0  0  0  0  0  0  0  0  0  0  0
   38.0390   22.7850   35.6970 C   0  0  0  0  0  0  0  0  0  0  0  0
   39.2060   22.1140   35.7180 N   0  0  0  0  0  0  0  0  0  0  0  0
   37.9820   24.5480   38.8660 N   0  0  0  0  0  0  0  0  0  0  0  0
   41.2870   21.5020   36.8230 C   0  0  0  0  0  0  0  0  0  0  0  0
   42.1850   21.3470   35.7870 C   0  0  0  0  0  0  0  0  0  0  0  0
   43.2650   20.6030   36.2360 C   0  0  0  0  0  0  0  0  0  0  0  0
   42.9830   20.3270   37.5430 N   0  0  0  0  0  0  0  0  0  0  0  0
   41.8020   20.8680   37.8850 N   0  0  0  0  0  0  0  0  0  0  0  0
   40.3556   23.0940   38.7465 H   0  0  0  0  0  0  0  0  0  0  0  0
   37.3730   22.6995   34.8258 H   0  0  0  0  0  0  0  0  0  0  0  0
   37.0725   25.0182   38.7536 H   0  0  0  0  0  0  0  0  0  0  0  0
   38.5344   24.6933   39.7231 H   0  0  0  0  0  0  0  0  0  0  0  0
   42.0636   21.7485   34.7701 H   0  0  0  0  0  0  0  0  0  0  0  0
   44.1548   20.3010   35.6642 H   0  0  0  0  0  0  0  0  0  0  0  0
   43.5878   19.7831   38.1749 H   0  0  0  0  0  0  0  0  0  0  0  0
  1  8  1  0
  1  2  2  0
  3  2  1  0
  3  7  1  0
  4  3  2  0
  5  6  2  0
  5  4  1  0
  6  1  1  0
  8 12  2  0
  9 10  2  0
  9  8  1  0
 10 11  1  0
 11 12  1  0
  2 13  1  0
  5 14  1  0
  7 15  1  0
  7 16  1  0
  9 17  1  0
 10 18  1  0
 11 19  1  0
M  ISO  5  13  14  14  14  17  14  18  14  19   9
M  END
>  <minimizedAffinity>  (1) 
-3.53710866

>  <minimizedRMSD>  (1) 
0.113335252

$$$$
