
     RDKit          3D

 18 19  0  0  0  0  0  0  0  0999 V2000
   39.9160   22.1980   36.6740 C   0  0  0  0  0  0  0  0  0  0  0  0
   39.6750   23.0180   37.7930 C   0  0  0  0  0  0  0  0  0  0  0  0
   38.4230   23.5900   37.9420 C   0  0  0  0  0  0  0  0  0  0  0  0
   37.4720   23.3420   37.0050 N   0  0  0  0  0  0  0  0  0  0  0  0
   37.7270   22.5470   35.9340 C   0  0  0  0  0  0  0  0  0  0  0  0
   38.9310   21.9900   35.7790 N   0  0  0  0  0  0  0  0  0  0  0  0
   38.0420   24.4330   39.0160 N   0  0  0  0  0  0  0  0  0  0  0  0
   41.1990   21.6060   36.5130 N   0  0  0  0  0  0  0  0  0  0  0  0
   41.9310   21.5320   35.4060 C   0  0  0  0  0  0  0  0  0  0  0  0
   43.1010   20.8840   35.6720 N   0  0  0  0  0  0  0  0  0  0  0  0
   43.0290   20.5750   36.9950 C   0  0  0  0  0  0  0  0  0  0  0  0
   41.8540   21.0240   37.5020 N   0  0  0  0  0  0  0  0  0  0  0  0
   40.4665   23.2007   38.5348 H   0  0  0  0  0  0  0  0  0  0  0  0
   36.9380   22.3608   35.1904 H   0  0  0  0  0  0  0  0  0  0  0  0
   37.0881   24.8196   39.0538 H   0  0  0  0  0  0  0  0  0  0  0  0
   38.7191   24.6589   39.7586 H   0  0  0  0  0  0  0  0  0  0  0  0
   41.6376   21.9326   34.4245 H   0  0  0  0  0  0  0  0  0  0  0  0
   43.8044   20.0429   37.5656 H   0  0  0  0  0  0  0  0  0  0  0  0
  1  2  2  0
  2  3  1  0
  3  7  1  0
  4  3  2  0
  5  4  1  0
  6  5  2  0
  6  1  1  0
  8  1  1  0
  8 12  1  0
  9 10  2  0
  9  8  1  0
 10 11  1  0
 11 12  2  0
  2 13  1  0
  5 14  1  0
  7 15  1  0
  7 16  1  0
  9 17  1  0
 11 18  1  0
M  ISO  4  13  14  14  14  17  14  18  14
M  END
>  <minimizedAffinity>  (1) 
-3.48161578

>  <minimizedRMSD>  (1) 
0.388846457

$$$$
