
     RDKit          3D

 35 38  0  0  0  0  0  0  0  0999 V2000
   38.5920   24.1630   35.6950 C   0  0  0  0  0  0  0  0  0  0  0  0
   39.8670   23.8150   35.2120 C   0  0  0  0  0  0  0  0  0  0  0  0
   40.4060   24.6130   34.1690 C   0  0  0  0  0  0  0  0  0  0  0  0
   39.6690   25.6440   33.7090 N   0  0  0  0  0  0  0  0  0  0  0  0
   38.4550   25.9490   34.1920 C   0  0  0  0  0  0  0  0  0  0  0  0
   37.9070   25.2160   35.1820 N   0  0  0  0  0  0  0  0  0  0  0  0
   37.6440   27.0280   33.7340 N   0  0  0  0  0  0  0  0  0  0  0  0
   36.6140   27.5960   34.3730 C   0  0  0  0  0  0  0  0  0  0  0  0
   35.9440   28.6330   33.7750 C   0  0  0  0  0  0  0  0  0  0  0  0
   36.3200   29.0810   32.5460 C   0  0  0  0  0  0  0  0  0  0  0  0
   35.7130   30.0280   31.9930 O   0  0  0  0  0  0  0  0  0  0  0  0
   37.3630   28.4920   31.9190 N   0  0  0  0  0  0  0  0  0  0  0  0
   38.0140   27.4810   32.5070 C   0  0  0  0  0  0  0  0  0  0  0  0
   38.9820   27.0090   31.8100 O   0  0  0  0  0  0  0  0  0  0  0  0
   37.7210   28.9900   30.6410 C   0  0  0  0  0  0  0  0  0  0  0  0
   38.8210   28.5530   29.9820 N   0  0  0  0  0  0  0  0  0  0  0  0
   38.9320   29.1580   28.8350 O   0  0  0  0  0  0  0  0  0  0  0  0
   37.9110   29.9800   28.7550 C   0  0  0  0  0  0  0  0  0  0  0  0
   37.1360   29.8980   29.8660 N   0  0  0  0  0  0  0  0  0  0  0  0
   37.6110   30.8790   27.6370 C   0  0  0  0  0  0  0  0  0  0  0  0
   36.8060   31.9980   27.6660 C   0  0  0  0  0  0  0  0  0  0  0  0
   36.7930   32.5390   26.4440 N   0  0  0  0  0  0  0  0  0  0  0  0
   37.5790   31.7620   25.6730 C   0  0  0  0  0  0  0  0  0  0  0  0
   38.0880   30.7410   26.3870 N   0  0  0  0  0  0  0  0  0  0  0  0
   37.9860   23.3450   36.7980 C   0  0  0  0  0  0  0  0  0  0  0  0
   38.9570   22.8610   37.6670 F   0  0  0  0  0  0  0  0  0  0  0  0
   37.1290   24.1350   37.5420 F   0  0  0  0  0  0  0  0  0  0  0  0
   37.2680   22.2950   36.2230 F   0  0  0  0  0  0  0  0  0  0  0  0
   40.4228   22.9604   35.6253 H   0  0  0  0  0  0  0  0  0  0  0  0
   41.3985   24.3960   33.7473 H   0  0  0  0  0  0  0  0  0  0  0  0
   36.3083   27.2354   35.3662 H   0  0  0  0  0  0  0  0  0  0  0  0
   35.0965   29.1060   34.2927 H   0  0  0  0  0  0  0  0  0  0  0  0
   36.2665   32.3803   28.5451 H   0  0  0  0  0  0  0  0  0  0  0  0
   37.7775   31.9382   24.6055 H   0  0  0  0  0  0  0  0  0  0  0  0
   38.7175   30.0012   26.0444 H   0  0  0  0  0  0  0  0  0  0  0  0
  1 25  1  0
  2  1  2  0
  3  2  1  0
  4  3  2  0
  4  5  1  0
  5  6  2  0
  6  1  1  0
  7  5  1  0
  7  8  1  0
  9  8  2  0
 10  9  1  0
 11 10  2  0
 12 13  1  0
 12 10  1  0
 13  7  1  0
 14 13  2  0
 15 12  1  0
 16 15  2  0
 17 16  1  0
 18 17  1  0
 18 19  2  0
 19 15  1  0
 20 21  2  0
 20 18  1  0
 22 21  1  0
 23 24  1  0
 23 22  2  0
 24 20  1  0
 25 27  1  0
 25 26  1  0
 28 25  1  0
  2 29  1  0
  3 30  1  0
  8 31  1  0
  9 32  1  0
 21 33  1  0
 23 34  1  0
 24 35  1  0
M  ISO  7  29  14  30  14  31  14  32  14  33  14  34  14  35   9
M  END
>  <minimizedAffinity>  (1) 
-5.84528875

>  <minimizedRMSD>  (1) 
1.02935553

$$$$
