
     RDKit          3D

 14 14  0  0  0  0  0  0  0  0999 V2000
   40.0150   22.1670   36.8160 C   0  0  0  0  0  0  0  0  0  0  0  0
   39.6090   22.9920   37.8720 C   0  0  0  0  0  0  0  0  0  0  0  0
   38.4060   23.6690   37.7600 C   0  0  0  0  0  0  0  0  0  0  0  0
   37.6740   23.4990   36.6250 N   0  0  0  0  0  0  0  0  0  0  0  0
   38.1010   22.6860   35.6120 C   0  0  0  0  0  0  0  0  0  0  0  0
   39.2640   22.0300   35.7170 N   0  0  0  0  0  0  0  0  0  0  0  0
   37.8410   24.5390   38.7190 N   0  0  0  0  0  0  0  0  0  0  0  0
   41.2740   21.5470   37.0950 N   0  0  0  0  0  0  0  0  0  0  0  0
   40.2325   23.1001   38.7717 H   0  0  0  0  0  0  0  0  0  0  0  0
   37.4867   22.5702   34.7069 H   0  0  0  0  0  0  0  0  0  0  0  0
   36.9354   24.9928   38.5324 H   0  0  0  0  0  0  0  0  0  0  0  0
   38.3347   24.7195   39.6048 H   0  0  0  0  0  0  0  0  0  0  0  0
   41.6986   20.9105   36.4055 H   0  0  0  0  0  0  0  0  0  0  0  0
   41.7557   21.7372   37.9853 H   0  0  0  0  0  0  0  0  0  0  0  0
  1  8  1  0
  1  2  2  0
  3  2  1  0
  3  7  1  0
  4  3  2  0
  5  6  2  0
  5  4  1  0
  6  1  1  0
  2  9  1  0
  5 10  1  0
  7 11  1  0
  7 12  1  0
  8 13  1  0
  8 14  1  0
M  ISO  2   9  14  10  14
M  END
>  <minimizedAffinity>  (1) 
-2.98596835

>  <minimizedRMSD>  (1) 
0.136609033

$$$$
