
     RDKit          3D

 14 14  0  0  0  0  0  0  0  0999 V2000
   40.0060   22.2060   36.8380 C   0  0  0  0  0  0  0  0  0  0  0  0
   39.7050   23.0370   37.9190 C   0  0  0  0  0  0  0  0  0  0  0  0
   38.4380   23.6100   37.9470 C   0  0  0  0  0  0  0  0  0  0  0  0
   37.5520   23.3450   36.9420 N   0  0  0  0  0  0  0  0  0  0  0  0
   37.8950   22.5280   35.9120 C   0  0  0  0  0  0  0  0  0  0  0  0
   39.1040   21.9740   35.8720 N   0  0  0  0  0  0  0  0  0  0  0  0
   37.9550   24.4820   38.9680 N   0  0  0  0  0  0  0  0  0  0  0  0
   41.3270   21.6300   36.8410 C   0  0  0  0  0  0  0  0  0  0  0  0
   41.8600   21.0470   37.8300 O   0  0  0  0  0  0  0  0  0  0  0  0
   40.4391   23.2303   38.7150 H   0  0  0  0  0  0  0  0  0  0  0  0
   37.1713   22.3241   35.1091 H   0  0  0  0  0  0  0  0  0  0  0  0
   36.9998   24.8631   38.9104 H   0  0  0  0  0  0  0  0  0  0  0  0
   38.5615   24.7304   39.7626 H   0  0  0  0  0  0  0  0  0  0  0  0
   41.9160   21.7024   35.9148 H   0  0  0  0  0  0  0  0  0  0  0  0
  1  8  1  0
  1  2  2  0
  2  3  1  0
  3  7  1  0
  4  3  2  0
  5  4  1  0
  6  5  2  0
  6  1  1  0
  8  9  2  0
  2 10  1  0
  5 11  1  0
  7 12  1  0
  7 13  1  0
  8 14  1  0
M  ISO  3  10  14  11  14  14   6
M  END
>  <minimizedAffinity>  (1) 
-3.1286788

>  <minimizedRMSD>  (1) 
0.259428412

$$$$
