
     RDKit          3D

 28 29  0  0  0  0  0  0  0  0999 V2000
   41.3120   21.8470   36.1220 C   0  0  0  0  0  0  0  0  0  0  0  0
   39.9080   22.2880   36.4040 C   0  0  0  0  0  0  0  0  0  0  0  0
   39.7580   23.0750   37.5440 C   0  0  0  0  0  0  0  0  0  0  0  0
   38.4660   23.5080   37.8440 C   0  0  0  0  0  0  0  0  0  0  0  0
   37.4260   23.1580   37.0360 N   0  0  0  0  0  0  0  0  0  0  0  0
   37.6390   22.3890   35.9380 C   0  0  0  0  0  0  0  0  0  0  0  0
   38.8830   21.9570   35.6270 N   0  0  0  0  0  0  0  0  0  0  0  0
   38.1260   24.3170   38.9660 N   0  0  0  0  0  0  0  0  0  0  0  0
   42.1650   22.9840   35.8100 N   0  0  0  0  0  0  0  0  0  0  0  0
   43.0030   23.3920   36.7960 C   0  0  0  0  0  0  0  0  0  0  0  0
   43.8420   24.4820   36.5410 C   0  0  0  0  0  0  0  0  0  0  0  0
   44.7950   25.0210   37.5250 C   0  0  0  0  0  0  0  0  0  0  0  0
   43.7100   25.0250   35.2800 C   0  0  0  0  0  0  0  0  0  0  0  0
   44.4620   26.0100   35.0360 O   0  0  0  0  0  0  0  0  0  0  0  0
   42.8880   24.6400   34.2870 N   0  0  0  0  0  0  0  0  0  0  0  0
   42.0960   23.5710   34.6000 C   0  0  0  0  0  0  0  0  0  0  0  0
   41.3030   23.1610   33.7120 O   0  0  0  0  0  0  0  0  0  0  0  0
   41.7112   21.3306   37.0074 H   0  0  0  0  0  0  0  0  0  0  0  0
   41.2986   21.1714   35.2540 H   0  0  0  0  0  0  0  0  0  0  0  0
   40.6170   23.3421   38.1771 H   0  0  0  0  0  0  0  0  0  0  0  0
   36.7909   22.1139   35.2938 H   0  0  0  0  0  0  0  0  0  0  0  0
   37.1470   24.5971   39.1212 H   0  0  0  0  0  0  0  0  0  0  0  0
   38.8591   24.6219   39.6221 H   0  0  0  0  0  0  0  0  0  0  0  0
   43.0222   22.8797   37.7692 H   0  0  0  0  0  0  0  0  0  0  0  0
   44.4290   24.8140   38.5414 H   0  0  0  0  0  0  0  0  0  0  0  0
   45.7762   24.5441   37.3844 H   0  0  0  0  0  0  0  0  0  0  0  0
   44.8919   26.1077   37.3844 H   0  0  0  0  0  0  0  0  0  0  0  0
   42.8581   25.1098   33.3709 H   0  0  0  0  0  0  0  0  0  0  0  0
  1  2  1  0
  2  3  2  0
  3  4  1  0
  4  8  1  0
  5  4  2  0
  6  5  1  0
  7  6  2  0
  7  2  1  0
  9  1  1  0
  9 10  1  0
 11 10  2  0
 11 12  1  0
 13 11  1  0
 14 13  2  0
 15 16  1  0
 15 13  1  0
 16  9  1  0
 17 16  2  0
  1 18  1  0
  1 19  1  0
  3 20  1  0
  6 21  1  0
  8 22  1  0
  8 23  1  0
 10 24  1  0
 12 25  1  0
 12 26  1  0
 12 27  1  0
 15 28  1  0
M  ISO  8  18   8  19   8  20  14  21  14  24  14  25   8  26   8  27   8
M  ISO  1  28   9
M  END
>  <minimizedAffinity>  (1) 
-4.26495552

>  <minimizedRMSD>  (1) 
1.31680787

$$$$
