
     RDKit          3D

 31 33  0  0  0  0  0  0  0  0999 V2000
   41.7320   21.4780   37.4220 C   0  0  0  0  0  0  0  0  0  0  0  0
   40.4520   22.1420   37.0410 C   0  0  0  0  0  0  0  0  0  0  0  0
   39.8320   22.9110   38.0390 C   0  0  0  0  0  0  0  0  0  0  0  0
   38.6310   23.5410   37.7040 C   0  0  0  0  0  0  0  0  0  0  0  0
   38.1240   23.3840   36.4410 N   0  0  0  0  0  0  0  0  0  0  0  0
   38.7560   22.6350   35.5140 C   0  0  0  0  0  0  0  0  0  0  0  0
   39.9140   22.0230   35.8270 N   0  0  0  0  0  0  0  0  0  0  0  0
   37.8580   24.3540   38.5810 N   0  0  0  0  0  0  0  0  0  0  0  0
   42.6590   21.5960   36.3020 C   0  0  0  0  0  0  0  0  0  0  0  0
   42.7230   20.5250   35.4220 C   0  0  0  0  0  0  0  0  0  0  0  0
   43.5660   20.5130   34.3070 C   0  0  0  0  0  0  0  0  0  0  0  0
   44.3620   21.6170   34.0810 C   0  0  0  0  0  0  0  0  0  0  0  0
   44.2670   22.6630   34.9820 C   0  0  0  0  0  0  0  0  0  0  0  0
   45.0740   23.7590   34.7440 C   0  0  0  0  0  0  0  0  0  0  0  0
   45.0790   24.8800   35.5780 C   0  0  0  0  0  0  0  0  0  0  0  0
   44.2240   24.8590   36.6860 C   0  0  0  0  0  0  0  0  0  0  0  0
   43.4100   23.7860   36.9500 C   0  0  0  0  0  0  0  0  0  0  0  0
   43.4320   22.6970   36.1040 C   0  0  0  0  0  0  0  0  0  0  0  0
   42.1564   21.9697   38.3098 H   0  0  0  0  0  0  0  0  0  0  0  0
   41.5543   20.4183   37.6575 H   0  0  0  0  0  0  0  0  0  0  0  0
   40.2731   23.0130   39.0415 H   0  0  0  0  0  0  0  0  0  0  0  0
   38.3274   22.5246   34.5070 H   0  0  0  0  0  0  0  0  0  0  0  0
   36.9815   24.7810   38.2488 H   0  0  0  0  0  0  0  0  0  0  0  0
   38.1753   24.5150   39.5476 H   0  0  0  0  0  0  0  0  0  0  0  0
   42.0841   19.6494   35.6095 H   0  0  0  0  0  0  0  0  0  0  0  0
   43.5939   19.6475   33.6287 H   0  0  0  0  0  0  0  0  0  0  0  0
   45.0445   21.6638   33.2196 H   0  0  0  0  0  0  0  0  0  0  0  0
   45.7366   23.7486   33.8660 H   0  0  0  0  0  0  0  0  0  0  0  0
   45.7283   25.7437   35.3722 H   0  0  0  0  0  0  0  0  0  0  0  0
   44.2039   25.7256   37.3632 H   0  0  0  0  0  0  0  0  0  0  0  0
   42.7467   23.7945   37.8275 H   0  0  0  0  0  0  0  0  0  0  0  0
  2  1  1  0
  2  3  2  0
  4  3  1  0
  4  8  1  0
  5  4  2  0
  6  7  2  0
  6  5  1  0
  7  2  1  0
  9  1  1  0
 10  9  2  0
 11 10  1  0
 12 11  2  0
 12 13  1  0
 13 18  2  0
 14 13  1  0
 14 15  2  0
 15 16  1  0
 16 17  2  0
 18  9  1  0
 18 17  1  0
  1 19  1  0
  1 20  1  0
  3 21  1  0
  6 22  1  0
  8 23  1  0
  8 24  1  0
 10 25  1  0
 11 26  1  0
 12 27  1  0
 14 28  1  0
 15 29  1  0
 16 30  1  0
 17 31  1  0
M  ISO  8  19   8  20   8  21  14  22  14  25  14  26  14  27  14  28  14
M  ISO  3  29  14  30  14  31  14
M  END
>  <minimizedAffinity>  (1) 
-4.46913147

>  <minimizedRMSD>  (1) 
2.31450868

$$$$
