
     RDKit          3D

 29 30  0  0  0  0  0  0  0  0999 V2000
   37.2630   21.8660   34.3050 C   0  0  0  0  0  0  0  0  0  0  0  0
   37.5400   22.7660   33.2680 C   0  0  0  0  0  0  0  0  0  0  0  0
   36.6980   22.7240   32.1570 C   0  0  0  0  0  0  0  0  0  0  0  0
   35.6610   21.8260   32.1300 N   0  0  0  0  0  0  0  0  0  0  0  0
   35.4480   20.9850   33.1630 C   0  0  0  0  0  0  0  0  0  0  0  0
   36.2420   21.0120   34.2310 N   0  0  0  0  0  0  0  0  0  0  0  0
   36.8330   23.5610   31.0190 N   0  0  0  0  0  0  0  0  0  0  0  0
   38.1780   21.9280   35.4860 C   0  0  0  0  0  0  0  0  0  0  0  0
   38.3760   23.2630   35.9830 N   0  0  0  0  0  0  0  0  0  0  0  0
   37.5020   23.6140   37.0680 C   0  0  0  0  0  0  0  0  0  0  0  0
   38.2580   23.7460   38.3640 C   0  0  0  0  0  0  0  0  0  0  0  0
   39.2060   22.6830   38.5960 N   0  0  0  0  0  0  0  0  0  0  0  0
   40.1920   22.6480   37.5430 C   0  0  0  0  0  0  0  0  0  0  0  0
   39.7510   23.4710   36.3420 C   0  0  0  0  0  0  0  0  0  0  0  0
   38.3814   23.4721   33.3271 H   0  0  0  0  0  0  0  0  0  0  0  0
   34.6118   20.2715   33.1224 H   0  0  0  0  0  0  0  0  0  0  0  0
   36.1721   23.4732   30.2339 H   0  0  0  0  0  0  0  0  0  0  0  0
   37.5918   24.2563   30.9782 H   0  0  0  0  0  0  0  0  0  0  0  0
   37.7490   21.3153   36.2925 H   0  0  0  0  0  0  0  0  0  0  0  0
   39.1590   21.5537   35.1580 H   0  0  0  0  0  0  0  0  0  0  0  0
   37.0149   24.5733   36.8388 H   0  0  0  0  0  0  0  0  0  0  0  0
   36.7558   22.8141   37.1832 H   0  0  0  0  0  0  0  0  0  0  0  0
   38.8039   24.7009   38.3514 H   0  0  0  0  0  0  0  0  0  0  0  0
   37.5159   23.6960   39.1744 H   0  0  0  0  0  0  0  0  0  0  0  0
   39.6782   22.8405   39.4977 H   0  0  0  0  0  0  0  0  0  0  0  0
   41.1397   23.0539   37.9265 H   0  0  0  0  0  0  0  0  0  0  0  0
   40.3168   21.6039   37.2202 H   0  0  0  0  0  0  0  0  0  0  0  0
   40.3810   23.1989   35.4823 H   0  0  0  0  0  0  0  0  0  0  0  0
   39.8586   24.5307   36.6168 H   0  0  0  0  0  0  0  0  0  0  0  0
  1  8  1  0
  2  1  2  0
  3  2  1  0
  4  3  2  0
  4  5  1  0
  5  6  2  0
  6  1  1  0
  7  3  1  0
  8  9  1  0
  9 14  1  0
  9 10  1  0
 10 11  1  0
 11 12  1  0
 13 12  1  0
 14 13  1  0
  2 15  1  0
  5 16  1  0
  7 17  1  0
  7 18  1  0
  8 19  1  0
  8 20  1  0
 10 21  1  0
 10 22  1  0
 11 23  1  0
 11 24  1  0
 12 25  1  0
 13 26  1  0
 13 27  1  0
 14 28  1  0
 14 29  1  0
M  ISO  8  15  14  16  14  19   8  20   8  21  13  22  13  23  13  24  13
M  ISO  5  25   5  26  13  27  13  28  13  29  13
M  END
>  <minimizedAffinity>  (1) 
-4.30655861

>  <minimizedRMSD>  (1) 
4.7498188

$$$$
