
     RDKit          3D

 28 30  0  0  0  0  0  0  0  0999 V2000
   41.3040   22.2420   35.8320 C   0  0  0  0  0  0  0  0  0  0  0  0
   39.8640   22.4710   36.1870 C   0  0  0  0  0  0  0  0  0  0  0  0
   39.6240   23.2300   37.3370 C   0  0  0  0  0  0  0  0  0  0  0  0
   38.3010   23.4530   37.6830 C   0  0  0  0  0  0  0  0  0  0  0  0
   37.2970   22.9260   36.8970 N   0  0  0  0  0  0  0  0  0  0  0  0
   37.5860   22.1990   35.7950 C   0  0  0  0  0  0  0  0  0  0  0  0
   38.8690   21.9810   35.4570 N   0  0  0  0  0  0  0  0  0  0  0  0
   37.8670   24.1940   38.8050 N   0  0  0  0  0  0  0  0  0  0  0  0
   41.7550   23.5110   35.2740 N   0  0  0  0  0  0  0  0  0  0  0  0
   41.3030   24.2850   34.2840 C   0  0  0  0  0  0  0  0  0  0  0  0
   42.0730   25.3790   34.1450 N   0  0  0  0  0  0  0  0  0  0  0  0
   43.0660   25.3270   35.0710 C   0  0  0  0  0  0  0  0  0  0  0  0
   44.1140   26.1810   35.3610 C   0  0  0  0  0  0  0  0  0  0  0  0
   44.9100   25.7900   36.3700 N   0  0  0  0  0  0  0  0  0  0  0  0
   44.7370   24.6690   37.0650 C   0  0  0  0  0  0  0  0  0  0  0  0
   43.7160   23.8410   36.7780 N   0  0  0  0  0  0  0  0  0  0  0  0
   42.8500   24.1410   35.7760 C   0  0  0  0  0  0  0  0  0  0  0  0
   44.3070   27.3830   34.6240 N   0  0  0  0  0  0  0  0  0  0  0  0
   41.8877   21.9830   36.7277 H   0  0  0  0  0  0  0  0  0  0  0  0
   41.4305   21.4087   35.1252 H   0  0  0  0  0  0  0  0  0  0  0  0
   40.4504   23.6328   37.9410 H   0  0  0  0  0  0  0  0  0  0  0  0
   36.7746   21.7872   35.1769 H   0  0  0  0  0  0  0  0  0  0  0  0
   36.8599   24.3101   38.9873 H   0  0  0  0  0  0  0  0  0  0  0  0
   38.5577   24.6181   39.4406 H   0  0  0  0  0  0  0  0  0  0  0  0
   40.4213   24.0587   33.6665 H   0  0  0  0  0  0  0  0  0  0  0  0
   45.4327   24.4175   37.8791 H   0  0  0  0  0  0  0  0  0  0  0  0
   45.0932   28.0074   34.8539 H   0  0  0  0  0  0  0  0  0  0  0  0
   43.6605   27.6285   33.8607 H   0  0  0  0  0  0  0  0  0  0  0  0
  1  2  1  0
  2  3  2  0
  3  4  1  0
  4  8  1  0
  5  4  2  0
  6  5  1  0
  7  6  2  0
  7  2  1  0
  9 17  1  0
  9  1  1  0
 10  9  1  0
 11 10  2  0
 11 12  1  0
 12 13  2  0
 12 17  1  0
 13 14  1  0
 14 15  2  0
 16 15  1  0
 17 16  2  0
 18 13  1  0
  1 19  1  0
  1 20  1  0
  3 21  1  0
  6 22  1  0
  8 23  1  0
  8 24  1  0
 10 25  1  0
 15 26  1  0
 18 27  1  0
 18 28  1  0
M  ISO  6  19   8  20   8  21  14  22  14  25  14  26  14
M  END
>  <minimizedAffinity>  (1) 
-4.42866564

>  <minimizedRMSD>  (1) 
1.81514275

$$$$
