
     RDKit          3D

 22 23  0  0  0  0  0  0  0  0999 V2000
   40.3430   22.1900   36.9830 C   0  0  0  0  0  0  0  0  0  0  0  0
   39.7580   22.9120   38.0140 C   0  0  0  0  0  0  0  0  0  0  0  0
   38.5680   23.5700   37.7510 C   0  0  0  0  0  0  0  0  0  0  0  0
   38.0210   23.4780   36.4840 N   0  0  0  0  0  0  0  0  0  0  0  0
   38.6330   22.7630   35.5230 C   0  0  0  0  0  0  0  0  0  0  0  0
   39.7890   22.1190   35.7600 N   0  0  0  0  0  0  0  0  0  0  0  0
   37.8200   24.3510   38.6580 N   0  0  0  0  0  0  0  0  0  0  0  0
   41.6270   21.5000   37.3160 C   0  0  0  0  0  0  0  0  0  0  0  0
   42.7780   22.1190   36.5990 C   0  0  0  0  0  0  0  0  0  0  0  0
   43.0570   23.4750   36.6650 C   0  0  0  0  0  0  0  0  0  0  0  0
   44.1720   23.7810   35.9120 C   0  0  0  0  0  0  0  0  0  0  0  0
   44.5280   22.5290   35.4020 C   0  0  0  0  0  0  0  0  0  0  0  0
   43.7050   21.5930   35.8170 O   0  0  0  0  0  0  0  0  0  0  0  0
   40.2249   22.9601   39.0088 H   0  0  0  0  0  0  0  0  0  0  0  0
   38.1784   22.7040   34.5231 H   0  0  0  0  0  0  0  0  0  0  0  0
   36.9435   24.7973   38.3523 H   0  0  0  0  0  0  0  0  0  0  0  0
   38.1506   24.4747   39.6256 H   0  0  0  0  0  0  0  0  0  0  0  0
   41.8007   21.5704   38.3999 H   0  0  0  0  0  0  0  0  0  0  0  0
   41.5474   20.4490   37.0013 H   0  0  0  0  0  0  0  0  0  0  0  0
   42.4699   24.2070   37.2391 H   0  0  0  0  0  0  0  0  0  0  0  0
   44.6552   24.7565   35.7541 H   0  0  0  0  0  0  0  0  0  0  0  0
   45.3870   22.3506   34.7384 H   0  0  0  0  0  0  0  0  0  0  0  0
  1  8  1  0
  1  2  2  0
  3  2  1  0
  3  7  1  0
  4  3  2  0
  5  6  2  0
  5  4  1  0
  6  1  1  0
  9 10  2  0
  9  8  1  0
 11 10  1  0
 12 13  1  0
 12 11  2  0
 13  9  1  0
  2 14  1  0
  5 15  1  0
  7 16  1  0
  7 17  1  0
  8 18  1  0
  8 19  1  0
 10 20  1  0
 11 21  1  0
 12 22  1  0
M  ISO  7  14  14  15  14  18   8  19   8  20  14  21  14  22  14
M  END
>  <minimizedAffinity>  (1) 
-3.7460885

>  <minimizedRMSD>  (1) 
3.28811431

$$$$
