
     RDKit          3D

 20 21  0  0  0  0  0  0  0  0999 V2000
   39.9820   22.3300   36.8440 C   0  0  0  0  0  0  0  0  0  0  0  0
   39.6480   23.1490   37.9160 C   0  0  0  0  0  0  0  0  0  0  0  0
   38.3450   23.6240   37.9860 C   0  0  0  0  0  0  0  0  0  0  0  0
   37.4550   23.2710   37.0050 N   0  0  0  0  0  0  0  0  0  0  0  0
   37.8370   22.4680   35.9790 C   0  0  0  0  0  0  0  0  0  0  0  0
   39.0900   22.0020   35.9010 N   0  0  0  0  0  0  0  0  0  0  0  0
   37.8340   24.4640   39.0010 N   0  0  0  0  0  0  0  0  0  0  0  0
   41.3920   21.8390   36.8050 C   0  0  0  0  0  0  0  0  0  0  0  0
   42.1820   23.0060   36.2900 C   0  0  0  0  0  0  0  0  0  0  0  0
   41.9440   23.9270   35.3390 N   0  0  0  0  0  0  0  0  0  0  0  0
   42.9640   24.7400   35.2780 O   0  0  0  0  0  0  0  0  0  0  0  0
   43.8750   24.3970   36.1530 C   0  0  0  0  0  0  0  0  0  0  0  0
   43.4000   23.3300   36.7780 N   0  0  0  0  0  0  0  0  0  0  0  0
   40.3909   23.4122   38.6833 H   0  0  0  0  0  0  0  0  0  0  0  0
   37.1076   22.1966   35.2016 H   0  0  0  0  0  0  0  0  0  0  0  0
   36.8503   24.7679   38.9712 H   0  0  0  0  0  0  0  0  0  0  0  0
   38.4452   24.7723   39.7706 H   0  0  0  0  0  0  0  0  0  0  0  0
   41.7321   21.5529   37.8112 H   0  0  0  0  0  0  0  0  0  0  0  0
   41.5064   20.9453   36.1740 H   0  0  0  0  0  0  0  0  0  0  0  0
   44.8396   24.8941   36.3329 H   0  0  0  0  0  0  0  0  0  0  0  0
  1  2  2  0
  2  3  1  0
  3  7  1  0
  4  3  2  0
  5  4  1  0
  6  5  2  0
  6  1  1  0
  8  1  1  0
  9 13  1  0
  9  8  1  0
 10  9  2  0
 11 10  1  0
 11 12  1  0
 12 13  2  0
  2 14  1  0
  5 15  1  0
  7 16  1  0
  7 17  1  0
  8 18  1  0
  8 19  1  0
 12 20  1  0
M  ISO  5  14  14  15  14  18   8  19   8  20  14
M  END
>  <minimizedAffinity>  (1) 
-3.64810395

>  <minimizedRMSD>  (1) 
0.541912735

$$$$
