
     RDKit          3D

 22 22  0  0  0  0  0  0  0  0999 V2000
   39.8960   22.2960   36.7220 C   0  0  0  0  0  0  0  0  0  0  0  0
   39.6020   23.1160   37.8030 C   0  0  0  0  0  0  0  0  0  0  0  0
   38.3060   23.5910   37.9110 C   0  0  0  0  0  0  0  0  0  0  0  0
   37.3730   23.2400   36.9650 N   0  0  0  0  0  0  0  0  0  0  0  0
   37.7210   22.4410   35.9410 C   0  0  0  0  0  0  0  0  0  0  0  0
   38.9790   21.9670   35.8140 N   0  0  0  0  0  0  0  0  0  0  0  0
   37.8240   24.4380   38.9480 N   0  0  0  0  0  0  0  0  0  0  0  0
   41.3060   21.8020   36.6330 C   0  0  0  0  0  0  0  0  0  0  0  0
   42.2370   22.9220   36.7640 N   0  0  0  0  0  0  0  0  0  0  0  0
   43.6090   22.8210   36.4020 C   0  0  0  0  0  0  0  0  0  0  0  0
   44.0590   21.7310   35.8760 N   0  0  0  0  0  0  0  0  0  0  0  0
   44.4600   23.9300   36.6320 N   0  0  0  0  0  0  0  0  0  0  0  0
   43.4370   20.9250   35.7110 H   0  0  0  0  0  0  0  0  0  0  0  0
   40.3698   23.3784   38.5457 H   0  0  0  0  0  0  0  0  0  0  0  0
   36.9646   22.1676   35.1906 H   0  0  0  0  0  0  0  0  0  0  0  0
   36.8403   24.7434   38.9480 H   0  0  0  0  0  0  0  0  0  0  0  0
   38.4588   24.7456   39.6985 H   0  0  0  0  0  0  0  0  0  0  0  0
   41.4903   21.0786   37.4409 H   0  0  0  0  0  0  0  0  0  0  0  0
   41.4583   21.3178   35.6571 H   0  0  0  0  0  0  0  0  0  0  0  0
   41.8862   23.8177   37.1322 H   0  0  0  0  0  0  0  0  0  0  0  0
   45.4564   23.8762   36.3767 H   0  0  0  0  0  0  0  0  0  0  0  0
   44.0823   24.7901   37.0545 H   0  0  0  0  0  0  0  0  0  0  0  0
  1  2  2  0
  2  3  1  0
  3  7  1  0
  4  3  2  0
  5  4  1  0
  6  5  2  0
  6  1  1  0
  8  1  1  0
  8  9  1  0
 10 12  1  0
 10  9  1  0
 11 10  2  0
 13 11  1  0
  2 14  1  0
  5 15  1  0
  7 16  1  0
  7 17  1  0
  8 18  1  0
  8 19  1  0
  9 20  1  0
 12 21  1  0
 12 22  1  0
M  ISO  4  14  14  15  14  18   8  19   8
M  END
>  <minimizedAffinity>  (1) 
-3.35868764

>  <minimizedRMSD>  (1) 
0.790731728

$$$$
