
     RDKit          3D

 16 16  0  0  0  0  0  0  0  0999 V2000
   40.0640   22.2320   36.9610 C   0  0  0  0  0  0  0  0  0  0  0  0
   39.6840   23.0860   38.0050 C   0  0  0  0  0  0  0  0  0  0  0  0
   38.4390   23.7020   37.9030 C   0  0  0  0  0  0  0  0  0  0  0  0
   37.6510   23.4580   36.8160 N   0  0  0  0  0  0  0  0  0  0  0  0
   38.0680   22.6200   35.8300 C   0  0  0  0  0  0  0  0  0  0  0  0
   39.2580   22.0290   35.9240 N   0  0  0  0  0  0  0  0  0  0  0  0
   37.9090   24.5920   38.8730 N   0  0  0  0  0  0  0  0  0  0  0  0
   41.4070   21.5960   37.1170 C   0  0  0  0  0  0  0  0  0  0  0  0
   42.6220   22.7820   36.4230 S   0  0  0  0  0  0  0  0  0  0  0  0
   40.3415   23.2625   38.8690 H   0  0  0  0  0  0  0  0  0  0  0  0
   37.4250   22.4307   34.9578 H   0  0  0  0  0  0  0  0  0  0  0  0
   36.9792   25.0123   38.7327 H   0  0  0  0  0  0  0  0  0  0  0  0
   38.4541   24.8176   39.7173 H   0  0  0  0  0  0  0  0  0  0  0  0
   41.6197   21.4112   38.1803 H   0  0  0  0  0  0  0  0  0  0  0  0
   41.4531   20.6270   36.5985 H   0  0  0  0  0  0  0  0  0  0  0  0
   43.2742   23.4186   37.4458 H   0  0  0  0  0  0  0  0  0  0  0  0
  1  8  1  0
  1  2  2  0
  3  2  1  0
  3  7  1  0
  4  3  2  0
  5  6  2  0
  5  4  1  0
  6  1  1  0
  9  8  1  0
  2 10  1  0
  5 11  1  0
  7 12  1  0
  7 13  1  0
  8 14  1  0
  8 15  1  0
  9 16  1  0
M  ISO  5  10  14  11  14  14   8  15   8  16  11
M  END
>  <minimizedAffinity>  (1) 
-3.07923961

>  <minimizedRMSD>  (1) 
0.0645117834

$$$$
