
     RDKit          3D

 34 37  0  0  0  0  0  0  0  0999 V2000
   38.6500   24.1760   36.2280 C   0  0  0  0  0  0  0  0  0  0  0  0
   39.9480   23.8390   35.8510 C   0  0  0  0  0  0  0  0  0  0  0  0
   40.5450   24.5970   34.8020 C   0  0  0  0  0  0  0  0  0  0  0  0
   39.8150   25.5870   34.2440 N   0  0  0  0  0  0  0  0  0  0  0  0
   38.5620   25.8820   34.6360 C   0  0  0  0  0  0  0  0  0  0  0  0
   37.9940   25.1800   35.6180 N   0  0  0  0  0  0  0  0  0  0  0  0
   37.7630   26.9160   34.0740 N   0  0  0  0  0  0  0  0  0  0  0  0
   36.6820   27.4870   34.6250 C   0  0  0  0  0  0  0  0  0  0  0  0
   36.0240   28.4790   33.9390 C   0  0  0  0  0  0  0  0  0  0  0  0
   36.4590   28.8770   32.7210 C   0  0  0  0  0  0  0  0  0  0  0  0
   35.8760   29.7810   32.0740 O   0  0  0  0  0  0  0  0  0  0  0  0
   37.5420   28.2980   32.1800 N   0  0  0  0  0  0  0  0  0  0  0  0
   38.1930   27.3190   32.8550 C   0  0  0  0  0  0  0  0  0  0  0  0
   39.2120   26.8430   32.2370 O   0  0  0  0  0  0  0  0  0  0  0  0
   37.9790   28.7380   30.8930 C   0  0  0  0  0  0  0  0  0  0  0  0
   39.1340   28.2970   30.3370 N   0  0  0  0  0  0  0  0  0  0  0  0
   39.3190   28.8330   29.1710 O   0  0  0  0  0  0  0  0  0  0  0  0
   38.2670   29.6250   28.9880 C   0  0  0  0  0  0  0  0  0  0  0  0
   37.4210   29.5850   30.0420 N   0  0  0  0  0  0  0  0  0  0  0  0
   38.1600   30.3760   27.7840 N   0  0  0  0  0  0  0  0  0  0  0  0
   39.1440   30.3520   26.8670 C   0  0  0  0  0  0  0  0  0  0  0  0
   38.8390   31.1360   25.7970 N   0  0  0  0  0  0  0  0  0  0  0  0
   37.6270   31.6500   26.0820 C   0  0  0  0  0  0  0  0  0  0  0  0
   37.2270   31.1780   27.2920 N   0  0  0  0  0  0  0  0  0  0  0  0
   38.0010   23.3920   37.3310 C   0  0  0  0  0  0  0  0  0  0  0  0
   38.9240   22.6610   38.0600 F   0  0  0  0  0  0  0  0  0  0  0  0
   37.3730   24.2680   38.2130 F   0  0  0  0  0  0  0  0  0  0  0  0
   37.0350   22.5590   36.7870 F   0  0  0  0  0  0  0  0  0  0  0  0
   40.4913   23.0194   36.3440 H   0  0  0  0  0  0  0  0  0  0  0  0
   41.5675   24.3826   34.4578 H   0  0  0  0  0  0  0  0  0  0  0  0
   36.3262   27.1649   35.6148 H   0  0  0  0  0  0  0  0  0  0  0  0
   35.1366   28.9534   34.3834 H   0  0  0  0  0  0  0  0  0  0  0  0
   40.0743   29.7739   26.9687 H   0  0  0  0  0  0  0  0  0  0  0  0
   37.0556   32.3379   25.4414 H   0  0  0  0  0  0  0  0  0  0  0  0
  1 25  1  0
  2  1  2  0
  3  2  1  0
  4  5  1  0
  4  3  2  0
  5  6  2  0
  6  1  1  0
  7  8  1  0
  7  5  1  0
  9  8  2  0
 10  9  1  0
 11 10  2  0
 12 10  1  0
 12 13  1  0
 13  7  1  0
 14 13  2  0
 15 12  1  0
 16 15  2  0
 17 16  1  0
 18 17  1  0
 18 19  2  0
 19 15  1  0
 20 18  1  0
 21 20  1  0
 22 23  1  0
 22 21  2  0
 23 24  2  0
 24 20  1  0
 25 26  1  0
 25 27  1  0
 28 25  1  0
  2 29  1  0
  3 30  1  0
  8 31  1  0
  9 32  1  0
 21 33  1  0
 23 34  1  0
M  ISO  6  29  14  30  14  31  14  32  14  33  14  34  14
M  END
>  <minimizedAffinity>  (1) 
-5.82745123

>  <minimizedRMSD>  (1) 
0.812417328

$$$$
