
     RDKit          3D

 32 34  0  0  0  0  0  0  0  0999 V2000
   43.3230   22.6790   36.2110 C   0  0  0  0  0  0  0  0  0  0  0  0
   41.8820   23.0590   36.2810 C   0  0  0  0  0  0  0  0  0  0  0  0
   41.1990   22.6010   37.3950 C   0  0  0  0  0  0  0  0  0  0  0  0
   39.8550   22.9480   37.4750 C   0  0  0  0  0  0  0  0  0  0  0  0
   39.2800   23.7100   36.4710 N   0  0  0  0  0  0  0  0  0  0  0  0
   40.0050   24.1180   35.4200 C   0  0  0  0  0  0  0  0  0  0  0  0
   41.2950   23.8000   35.3180 N   0  0  0  0  0  0  0  0  0  0  0  0
   38.9700   22.5890   38.5230 N   0  0  0  0  0  0  0  0  0  0  0  0
   44.1170   23.7740   35.9020 O   0  0  0  0  0  0  0  0  0  0  0  0
   44.7950   24.4220   36.9260 C   0  0  0  0  0  0  0  0  0  0  0  0
   44.1980   25.3850   37.7070 C   0  0  0  0  0  0  0  0  0  0  0  0
   44.8330   26.0560   38.7380 C   0  0  0  0  0  0  0  0  0  0  0  0
   46.1680   25.7300   38.9960 C   0  0  0  0  0  0  0  0  0  0  0  0
   46.7440   24.7610   38.2000 C   0  0  0  0  0  0  0  0  0  0  0  0
   48.0790   24.4730   38.5010 C   0  0  0  0  0  0  0  0  0  0  0  0
   48.7740   23.5340   37.7930 C   0  0  0  0  0  0  0  0  0  0  0  0
   48.1170   22.8800   36.7710 C   0  0  0  0  0  0  0  0  0  0  0  0
   46.8030   23.1330   36.4420 C   0  0  0  0  0  0  0  0  0  0  0  0
   46.1290   24.0910   37.1820 C   0  0  0  0  0  0  0  0  0  0  0  0
   43.6347   22.2734   37.1848 H   0  0  0  0  0  0  0  0  0  0  0  0
   43.4461   21.9254   35.4192 H   0  0  0  0  0  0  0  0  0  0  0  0
   41.6913   21.9975   38.1718 H   0  0  0  0  0  0  0  0  0  0  0  0
   39.5298   24.7220   34.6330 H   0  0  0  0  0  0  0  0  0  0  0  0
   37.9868   22.8945   38.4941 H   0  0  0  0  0  0  0  0  0  0  0  0
   39.3103   22.0227   39.3132 H   0  0  0  0  0  0  0  0  0  0  0  0
   43.1480   25.6380   37.4985 H   0  0  0  0  0  0  0  0  0  0  0  0
   44.3068   26.8175   39.3323 H   0  0  0  0  0  0  0  0  0  0  0  0
   46.7346   26.2245   39.7987 H   0  0  0  0  0  0  0  0  0  0  0  0
   48.5773   25.0111   39.3208 H   0  0  0  0  0  0  0  0  0  0  0  0
   49.8238   23.3065   38.0300 H   0  0  0  0  0  0  0  0  0  0  0  0
   48.6668   22.1227   36.1929 H   0  0  0  0  0  0  0  0  0  0  0  0
   46.3071   22.5938   35.6214 H   0  0  0  0  0  0  0  0  0  0  0  0
  1  2  1  0
  2  3  2  0
  3  4  1  0
  4  8  1  0
  5  4  2  0
  6  5  1  0
  7  6  2  0
  7  2  1  0
  9  1  1  0
  9 10  1  0
 10 19  1  0
 10 11  2  0
 11 12  1  0
 12 13  2  0
 14 15  2  0
 14 13  1  0
 16 15  1  0
 17 16  2  0
 18 17  1  0
 18 19  2  0
 19 14  1  0
  1 20  1  0
  1 21  1  0
  3 22  1  0
  6 23  1  0
  8 24  1  0
  8 25  1  0
 11 26  1  0
 12 27  1  0
 13 28  1  0
 15 29  1  0
 16 30  1  0
 17 31  1  0
 18 32  1  0
M  ISO  8  20   8  21   8  22  14  23  14  26  14  27  14  28  14  29  14
M  ISO  3  30  14  31  14  32  14
M  END
>  <minimizedAffinity>  (1) 
-5.49775505

>  <minimizedRMSD>  (1) 
3.13570976

$$$$
