
     RDKit          3D

 37 39  0  0  0  0  0  0  0  0999 V2000
   38.6320   24.0560   36.8040 C   0  0  0  0  0  0  0  0  0  0  0  0
   39.8910   23.5780   36.4200 C   0  0  0  0  0  0  0  0  0  0  0  0
   40.4960   24.1770   35.2930 C   0  0  0  0  0  0  0  0  0  0  0  0
   39.8360   25.1680   34.6560 N   0  0  0  0  0  0  0  0  0  0  0  0
   38.6290   25.6020   35.0520 C   0  0  0  0  0  0  0  0  0  0  0  0
   38.0250   25.0570   36.1130 N   0  0  0  0  0  0  0  0  0  0  0  0
   37.8880   26.6450   34.4130 N   0  0  0  0  0  0  0  0  0  0  0  0
   36.8860   27.3530   34.9230 C   0  0  0  0  0  0  0  0  0  0  0  0
   36.2860   28.3220   34.1630 C   0  0  0  0  0  0  0  0  0  0  0  0
   36.7140   28.5570   32.8980 C   0  0  0  0  0  0  0  0  0  0  0  0
   36.1780   29.4470   32.1710 O   0  0  0  0  0  0  0  0  0  0  0  0
   37.7280   27.8380   32.3890 N   0  0  0  0  0  0  0  0  0  0  0  0
   38.3080   26.8880   33.1460 C   0  0  0  0  0  0  0  0  0  0  0  0
   39.2690   26.2650   32.5520 O   0  0  0  0  0  0  0  0  0  0  0  0
   38.1450   28.1140   31.0620 C   0  0  0  0  0  0  0  0  0  0  0  0
   39.2420   27.5260   30.5220 N   0  0  0  0  0  0  0  0  0  0  0  0
   39.4260   27.9320   29.3000 O   0  0  0  0  0  0  0  0  0  0  0  0
   38.4430   28.7810   29.0620 C   0  0  0  0  0  0  0  0  0  0  0  0
   37.6300   28.9180   30.1360 N   0  0  0  0  0  0  0  0  0  0  0  0
   37.9560   23.4430   37.9970 C   0  0  0  0  0  0  0  0  0  0  0  0
   38.8480   22.7290   38.7790 F   0  0  0  0  0  0  0  0  0  0  0  0
   37.4200   24.4370   38.7910 F   0  0  0  0  0  0  0  0  0  0  0  0
   36.9350   22.6210   37.5510 F   0  0  0  0  0  0  0  0  0  0  0  0
   38.2790   29.4860   27.7640 C   0  0  0  0  0  0  0  0  0  0  0  0
   39.6550   29.6630   27.1110 C   0  0  0  0  0  0  0  0  0  0  0  0
   37.6510   30.8510   27.9030 C   0  0  0  0  0  0  0  0  0  0  0  0
   40.3888   22.7685   36.9739 H   0  0  0  0  0  0  0  0  0  0  0  0
   41.4836   23.8434   34.9417 H   0  0  0  0  0  0  0  0  0  0  0  0
   36.5402   27.1621   35.9496 H   0  0  0  0  0  0  0  0  0  0  0  0
   35.4554   28.9106   34.5797 H   0  0  0  0  0  0  0  0  0  0  0  0
   37.6074   28.8665   27.1514 H   0  0  0  0  0  0  0  0  0  0  0  0
   40.4221   29.7617   27.8932 H   0  0  0  0  0  0  0  0  0  0  0  0
   39.8796   28.7863   26.4857 H   0  0  0  0  0  0  0  0  0  0  0  0
   39.6504   30.5680   26.4857 H   0  0  0  0  0  0  0  0  0  0  0  0
   37.5383   31.0959   28.9695 H   0  0  0  0  0  0  0  0  0  0  0  0
   38.2944   31.6015   27.4204 H   0  0  0  0  0  0  0  0  0  0  0  0
   36.6625   30.8507   27.4204 H   0  0  0  0  0  0  0  0  0  0  0  0
  1 20  1  0
  2  1  2  0
  3  2  1  0
  4  5  1  0
  4  3  2  0
  5  6  2  0
  6  1  1  0
  7  8  1  0
  7  5  1  0
  9  8  2  0
 10  9  1  0
 11 10  2  0
 12 10  1  0
 12 13  1  0
 13  7  1  0
 14 13  2  0
 15 12  1  0
 16 15  2  0
 17 16  1  0
 18 17  1  0
 18 19  2  0
 19 15  1  0
 20 21  1  0
 20 22  1  0
 23 20  1  0
 24 26  1  0
 24 18  1  0
 25 24  1  0
  2 27  1  0
  3 28  1  0
  8 29  1  0
  9 30  1  0
 24 31  1  0
 25 32  1  0
 25 33  1  0
 25 34  1  0
 26 35  1  0
 26 36  1  0
 26 37  1  0
M  ISO  8  27  14  28  14  29  14  30  14  31   8  32   8  33   8  34   8
M  ISO  3  35   8  36   8  37   8
M  END
>  <minimizedAffinity>  (1) 
-5.82693863

>  <minimizedRMSD>  (1) 
0.69101119

$$$$
