
     RDKit          3D

 23 24  0  0  0  0  0  0  0  0999 V2000
   40.3460   23.4500   36.2750 C   0  0  0  0  0  0  0  0  0  0  0  0
   40.0580   22.8440   37.4890 C   0  0  0  0  0  0  0  0  0  0  0  0
   38.8010   23.0850   38.0280 C   0  0  0  0  0  0  0  0  0  0  0  0
   37.9260   23.8970   37.3430 N   0  0  0  0  0  0  0  0  0  0  0  0
   38.2560   24.4620   36.1650 C   0  0  0  0  0  0  0  0  0  0  0  0
   39.4720   24.2340   35.6340 N   0  0  0  0  0  0  0  0  0  0  0  0
   38.2900   22.5770   39.2410 N   0  0  0  0  0  0  0  0  0  0  0  0
   41.7060   23.1610   35.7360 C   0  0  0  0  0  0  0  0  0  0  0  0
   42.4870   24.3000   35.6780 O   0  0  0  0  0  0  0  0  0  0  0  0
   43.7760   24.2730   36.2060 C   0  0  0  0  0  0  0  0  0  0  0  0
   44.4530   24.9640   37.1900 C   0  0  0  0  0  0  0  0  0  0  0  0
   45.7190   24.4980   37.2670 N   0  0  0  0  0  0  0  0  0  0  0  0
   45.8010   23.5330   36.3340 C   0  0  0  0  0  0  0  0  0  0  0  0
   44.6370   23.3640   35.6630 N   0  0  0  0  0  0  0  0  0  0  0  0
   40.7907   22.2027   38.0007 H   0  0  0  0  0  0  0  0  0  0  0  0
   37.5355   25.1063   35.6399 H   0  0  0  0  0  0  0  0  0  0  0  0
   37.3369   22.8252   39.5424 H   0  0  0  0  0  0  0  0  0  0  0  0
   38.8701   21.9580   39.8251 H   0  0  0  0  0  0  0  0  0  0  0  0
   42.1984   22.4243   36.3878 H   0  0  0  0  0  0  0  0  0  0  0  0
   41.5933   22.7708   34.7137 H   0  0  0  0  0  0  0  0  0  0  0  0
   44.0297   25.7661   37.8124 H   0  0  0  0  0  0  0  0  0  0  0  0
   46.7110   22.9470   36.1380 H   0  0  0  0  0  0  0  0  0  0  0  0
   44.4431   22.6935   34.9056 H   0  0  0  0  0  0  0  0  0  0  0  0
  1  2  2  0
  2  3  1  0
  3  7  1  0
  4  3  2  0
  5  4  1  0
  6  5  2  0
  6  1  1  0
  8  1  1  0
  9  8  1  0
  9 10  1  0
 10 11  2  0
 11 12  1  0
 13 12  2  0
 14 10  1  0
 14 13  1  0
  2 15  1  0
  5 16  1  0
  7 17  1  0
  7 18  1  0
  8 19  1  0
  8 20  1  0
 11 21  1  0
 13 22  1  0
 14 23  1  0
M  ISO  7  15  14  16  14  19   8  20   8  21  14  22  14  23   9
M  END
>  <minimizedAffinity>  (1) 
-3.68042278

>  <minimizedRMSD>  (1) 
2.15546083

$$$$
