
     RDKit          3D

 25 26  0  0  0  0  0  0  0  0999 V2000
   39.5930   25.4530   34.8410 C   0  0  0  0  0  0  0  0  0  0  0  0
   40.3630   26.5270   34.4530 C   0  0  0  0  0  0  0  0  0  0  0  0
   41.7550   26.3640   34.5450 C   0  0  0  0  0  0  0  0  0  0  0  0
   42.2660   25.1640   35.0070 N   0  0  0  0  0  0  0  0  0  0  0  0
   41.4470   24.1620   35.3670 C   0  0  0  0  0  0  0  0  0  0  0  0
   40.1260   24.3020   35.2850 N   0  0  0  0  0  0  0  0  0  0  0  0
   42.7170   27.3440   34.1970 N   0  0  0  0  0  0  0  0  0  0  0  0
   38.1250   25.6620   34.7300 C   0  0  0  0  0  0  0  0  0  0  0  0
   37.7470   25.9880   33.4380 O   0  0  0  0  0  0  0  0  0  0  0  0
   37.0660   25.0120   32.6960 C   0  0  0  0  0  0  0  0  0  0  0  0
   36.1130   25.3810   31.7700 C   0  0  0  0  0  0  0  0  0  0  0  0
   35.4540   24.4090   31.0510 C   0  0  0  0  0  0  0  0  0  0  0  0
   35.7170   23.0780   31.2240 C   0  0  0  0  0  0  0  0  0  0  0  0
   36.6880   22.7250   32.1670 C   0  0  0  0  0  0  0  0  0  0  0  0
   37.3010   23.6970   32.8420 N   0  0  0  0  0  0  0  0  0  0  0  0
   39.9119   27.4624   34.0904 H   0  0  0  0  0  0  0  0  0  0  0  0
   41.8725   23.2161   35.7333 H   0  0  0  0  0  0  0  0  0  0  0  0
   43.7213   27.1380   34.2967 H   0  0  0  0  0  0  0  0  0  0  0  0
   42.4122   28.2625   33.8443 H   0  0  0  0  0  0  0  0  0  0  0  0
   37.6103   24.7369   35.0286 H   0  0  0  0  0  0  0  0  0  0  0  0
   37.8486   26.4990   35.3880 H   0  0  0  0  0  0  0  0  0  0  0  0
   35.8810   26.4438   31.6070 H   0  0  0  0  0  0  0  0  0  0  0  0
   34.6938   24.7119   30.3159 H   0  0  0  0  0  0  0  0  0  0  0  0
   35.1836   22.3120   30.6420 H   0  0  0  0  0  0  0  0  0  0  0  0
   36.9398   21.6695   32.3473 H   0  0  0  0  0  0  0  0  0  0  0  0
  1  6  2  0
  2  3  2  0
  2  1  1  0
  3  4  1  0
  4  5  2  0
  6  5  1  0
  7  3  1  0
  8  1  1  0
  9  8  1  0
 10 15  1  0
 10  9  1  0
 11 10  2  0
 12 13  2  0
 12 11  1  0
 13 14  1  0
 14 15  2  0
  2 16  1  0
  5 17  1  0
  7 18  1  0
  7 19  1  0
  8 20  1  0
  8 21  1  0
 11 22  1  0
 12 23  1  0
 13 24  1  0
 14 25  1  0
M  ISO  8  16  14  17  14  20   8  21   8  22  14  23  14  24  14  25  14
M  END
>  <minimizedAffinity>  (1) 
-3.81825852

>  <minimizedRMSD>  (1) 
7.78315306

$$$$
