
     RDKit          3D

 22 23  0  0  0  0  0  0  0  0999 V2000
   40.0250   22.2330   36.8110 C   0  0  0  0  0  0  0  0  0  0  0  0
   39.6740   23.0020   37.9260 C   0  0  0  0  0  0  0  0  0  0  0  0
   38.4220   23.6080   37.9030 C   0  0  0  0  0  0  0  0  0  0  0  0
   37.6100   23.4280   36.8160 N   0  0  0  0  0  0  0  0  0  0  0  0
   38.0090   22.6700   35.7670 C   0  0  0  0  0  0  0  0  0  0  0  0
   39.2020   22.0870   35.7780 N   0  0  0  0  0  0  0  0  0  0  0  0
   37.8770   24.4240   38.9260 N   0  0  0  0  0  0  0  0  0  0  0  0
   41.3690   21.6120   36.8910 C   0  0  0  0  0  0  0  0  0  0  0  0
   42.3740   22.5710   36.9490 O   0  0  0  0  0  0  0  0  0  0  0  0
   42.5300   23.5930   36.0290 C   0  0  0  0  0  0  0  0  0  0  0  0
   43.8150   23.8920   36.7220 C   0  0  0  0  0  0  0  0  0  0  0  0
   44.4220   25.3840   35.6740 S   0  0  0  0  0  0  0  0  0  0  0  0
   42.8510   25.2740   34.5680 C   0  0  0  0  0  0  0  0  0  0  0  0
   42.2260   24.3650   35.0080 N   0  0  0  0  0  0  0  0  0  0  0  0
   40.3561   23.1218   38.7807 H   0  0  0  0  0  0  0  0  0  0  0  0
   37.3421   22.5368   34.9024 H   0  0  0  0  0  0  0  0  0  0  0  0
   36.9366   24.8293   38.8153 H   0  0  0  0  0  0  0  0  0  0  0  0
   38.4214   24.6116   39.7800 H   0  0  0  0  0  0  0  0  0  0  0  0
   41.4199   20.9866   37.7945 H   0  0  0  0  0  0  0  0  0  0  0  0
   41.5227   21.0073   35.9851 H   0  0  0  0  0  0  0  0  0  0  0  0
   44.2828   23.3991   37.5870 H   0  0  0  0  0  0  0  0  0  0  0  0
   42.5886   25.9146   33.7131 H   0  0  0  0  0  0  0  0  0  0  0  0
  1  8  1  0
  1  2  2  0
  3  2  1  0
  3  7  1  0
  4  3  2  0
  5  6  2  0
  5  4  1  0
  6  1  1  0
  8  9  1  0
 10 11  2  0
 10  9  1  0
 12 11  1  0
 13 14  2  0
 13 12  1  0
 14 10  1  0
  2 15  1  0
  5 16  1  0
  7 17  1  0
  7 18  1  0
  8 19  1  0
  8 20  1  0
 11 21  1  0
 13 22  1  0
M  ISO  6  15  14  16  14  19   8  20   8  21  14  22  14
M  END
>  <minimizedAffinity>  (1) 
-3.62607169

>  <minimizedRMSD>  (1) 
0.955345929

$$$$
