
     RDKit          3D

 35 38  0  0  0  0  0  0  0  0999 V2000
   38.6380   24.1030   36.4660 C   0  0  0  0  0  0  0  0  0  0  0  0
   39.9530   23.7300   36.1240 C   0  0  0  0  0  0  0  0  0  0  0  0
   40.5750   24.4390   35.0750 C   0  0  0  0  0  0  0  0  0  0  0  0
   39.8810   25.4230   34.4650 N   0  0  0  0  0  0  0  0  0  0  0  0
   38.6310   25.7500   34.8160 C   0  0  0  0  0  0  0  0  0  0  0  0
   38.0130   25.0970   35.8080 N   0  0  0  0  0  0  0  0  0  0  0  0
   37.8590   26.7850   34.1980 N   0  0  0  0  0  0  0  0  0  0  0  0
   36.7850   27.3870   34.7050 C   0  0  0  0  0  0  0  0  0  0  0  0
   36.1580   28.3700   33.9690 C   0  0  0  0  0  0  0  0  0  0  0  0
   36.6330   28.7180   32.7440 C   0  0  0  0  0  0  0  0  0  0  0  0
   36.0770   29.6170   32.0450 O   0  0  0  0  0  0  0  0  0  0  0  0
   37.7230   28.0950   32.2500 N   0  0  0  0  0  0  0  0  0  0  0  0
   38.3290   27.1330   32.9790 C   0  0  0  0  0  0  0  0  0  0  0  0
   39.3530   26.6170   32.4020 O   0  0  0  0  0  0  0  0  0  0  0  0
   38.1950   28.4800   30.9670 C   0  0  0  0  0  0  0  0  0  0  0  0
   39.3230   27.9830   30.4440 N   0  0  0  0  0  0  0  0  0  0  0  0
   39.5420   28.4880   29.2630 O   0  0  0  0  0  0  0  0  0  0  0  0
   38.5490   29.3120   29.0310 C   0  0  0  0  0  0  0  0  0  0  0  0
   37.6830   29.3320   30.0810 N   0  0  0  0  0  0  0  0  0  0  0  0
   38.3770   30.1080   27.8210 C   0  0  0  0  0  0  0  0  0  0  0  0
   37.4290   31.0840   27.6080 C   0  0  0  0  0  0  0  0  0  0  0  0
   37.6060   31.5950   26.3350 C   0  0  0  0  0  0  0  0  0  0  0  0
   38.6510   30.9190   25.8160 N   0  0  0  0  0  0  0  0  0  0  0  0
   39.0910   30.0540   26.6920 N   0  0  0  0  0  0  0  0  0  0  0  0
   37.9430   23.3720   37.5780 C   0  0  0  0  0  0  0  0  0  0  0  0
   38.8420   22.6180   38.3220 F   0  0  0  0  0  0  0  0  0  0  0  0
   37.3500   24.2780   38.4340 F   0  0  0  0  0  0  0  0  0  0  0  0
   36.9700   22.5630   37.0310 F   0  0  0  0  0  0  0  0  0  0  0  0
   40.4736   22.9186   36.6537 H   0  0  0  0  0  0  0  0  0  0  0  0
   41.6010   24.1958   34.7616 H   0  0  0  0  0  0  0  0  0  0  0  0
   36.4033   27.1041   35.6971 H   0  0  0  0  0  0  0  0  0  0  0  0
   35.2692   28.8750   34.3752 H   0  0  0  0  0  0  0  0  0  0  0  0
   36.6612   31.4031   28.3282 H   0  0  0  0  0  0  0  0  0  0  0  0
   37.0177   32.3867   25.8481 H   0  0  0  0  0  0  0  0  0  0  0  0
   39.0424   31.0621   24.8741 H   0  0  0  0  0  0  0  0  0  0  0  0
  1 25  1  0
  2  1  2  0
  3  2  1  0
  4  5  1  0
  4  3  2  0
  5  6  2  0
  6  1  1  0
  7  8  1  0
  7  5  1  0
  9  8  2  0
 10  9  1  0
 11 10  2  0
 12 10  1  0
 12 13  1  0
 13  7  1  0
 14 13  2  0
 15 12  1  0
 16 15  2  0
 17 16  1  0
 18 17  1  0
 18 19  2  0
 19 15  1  0
 20 18  1  0
 21 20  1  0
 22 21  2  0
 23 22  1  0
 23 24  1  0
 24 20  2  0
 25 26  1  0
 25 27  1  0
 28 25  1  0
  2 29  1  0
  3 30  1  0
  8 31  1  0
  9 32  1  0
 21 33  1  0
 22 34  1  0
 23 35  1  0
M  ISO  7  29  14  30  14  31  14  32  14  33  14  34  14  35   9
M  END
>  <minimizedAffinity>  (1) 
-5.81512785

>  <minimizedRMSD>  (1) 
0.805572569

$$$$
