
     RDKit          3D

 28 28  0  0  0  0  0  0  0  0999 V2000
   39.9050   22.3470   36.6940 C   0  0  0  0  0  0  0  0  0  0  0  0
   39.6140   23.1580   37.7720 C   0  0  0  0  0  0  0  0  0  0  0  0
   38.3060   23.6020   37.9170 C   0  0  0  0  0  0  0  0  0  0  0  0
   37.3710   23.2070   36.9710 N   0  0  0  0  0  0  0  0  0  0  0  0
   37.7100   22.4150   35.9390 C   0  0  0  0  0  0  0  0  0  0  0  0
   38.9640   21.9900   35.8030 N   0  0  0  0  0  0  0  0  0  0  0  0
   37.7890   24.4300   38.9320 N   0  0  0  0  0  0  0  0  0  0  0  0
   41.3250   21.9080   36.6020 C   0  0  0  0  0  0  0  0  0  0  0  0
   42.1900   22.8700   37.0900 O   0  0  0  0  0  0  0  0  0  0  0  0
   43.2440   23.1620   36.2490 C   0  0  0  0  0  0  0  0  0  0  0  0
   43.9850   21.8920   35.8790 C   0  0  0  0  0  0  0  0  0  0  0  0
   44.2370   24.1360   36.8020 C   0  0  0  0  0  0  0  0  0  0  0  0
   42.7550   23.7650   34.9260 C   0  0  0  0  0  0  0  0  0  0  0  0
   40.3934   23.4438   38.4937 H   0  0  0  0  0  0  0  0  0  0  0  0
   36.9479   22.1169   35.2039 H   0  0  0  0  0  0  0  0  0  0  0  0
   36.7923   24.6897   38.9270 H   0  0  0  0  0  0  0  0  0  0  0  0
   38.4076   24.7760   39.6794 H   0  0  0  0  0  0  0  0  0  0  0  0
   41.4515   20.9851   37.1870 H   0  0  0  0  0  0  0  0  0  0  0  0
   41.5636   21.7383   35.5417 H   0  0  0  0  0  0  0  0  0  0  0  0
   44.2917   21.3663   36.7953 H   0  0  0  0  0  0  0  0  0  0  0  0
   43.3247   21.2415   35.2867 H   0  0  0  0  0  0  0  0  0  0  0  0
   44.8762   22.1468   35.2867 H   0  0  0  0  0  0  0  0  0  0  0  0
   44.2067   24.1063   37.9012 H   0  0  0  0  0  0  0  0  0  0  0  0
   45.2459   23.8676   36.4556 H   0  0  0  0  0  0  0  0  0  0  0  0
   43.9881   25.1499   36.4556 H   0  0  0  0  0  0  0  0  0  0  0  0
   42.0747   24.6039   35.1346 H   0  0  0  0  0  0  0  0  0  0  0  0
   43.6174   24.1275   34.3473 H   0  0  0  0  0  0  0  0  0  0  0  0
   42.2222   22.9961   34.3473 H   0  0  0  0  0  0  0  0  0  0  0  0
  1  2  2  0
  2  3  1  0
  3  7  1  0
  4  3  2  0
  5  4  1  0
  6  5  2  0
  6  1  1  0
  8  1  1  0
  8  9  1  0
 10 12  1  0
 10  9  1  0
 11 10  1  0
 13 10  1  0
  2 14  1  0
  5 15  1  0
  7 16  1  0
  7 17  1  0
  8 18  1  0
  8 19  1  0
 11 20  1  0
 11 21  1  0
 11 22  1  0
 12 23  1  0
 12 24  1  0
 12 25  1  0
 13 26  1  0
 13 27  1  0
 13 28  1  0
M  ISO  8  14  14  15  14  18   8  19   8  20   8  21   8  22   8  23   8
M  ISO  5  24   8  25   8  26   8  27   8  28   8
M  END
>  <minimizedAffinity>  (1) 
-3.50224805

>  <minimizedRMSD>  (1) 
1.21572471

$$$$
