
     RDKit          3D

 19 19  0  0  0  0  0  0  0  0999 V2000
   39.9510   22.2600   36.9100 C   0  0  0  0  0  0  0  0  0  0  0  0
   39.6720   23.1030   37.9670 C   0  0  0  0  0  0  0  0  0  0  0  0
   38.4200   23.7300   37.9580 C   0  0  0  0  0  0  0  0  0  0  0  0
   37.5610   23.4680   36.9070 N   0  0  0  0  0  0  0  0  0  0  0  0
   37.8950   22.6350   35.9050 C   0  0  0  0  0  0  0  0  0  0  0  0
   39.0980   22.0340   35.9180 N   0  0  0  0  0  0  0  0  0  0  0  0
   37.9320   24.6190   38.9270 N   0  0  0  0  0  0  0  0  0  0  0  0
   41.2940   21.6180   36.9680 C   0  0  0  0  0  0  0  0  0  0  0  0
   42.3250   22.5530   36.9150 O   0  0  0  0  0  0  0  0  0  0  0  0
   42.6410   22.9450   35.6400 C   0  0  0  0  0  0  0  0  0  0  0  0
   40.3973   23.2737   38.7762 H   0  0  0  0  0  0  0  0  0  0  0  0
   37.1900   22.4470   35.0818 H   0  0  0  0  0  0  0  0  0  0  0  0
   36.9917   25.0267   38.8249 H   0  0  0  0  0  0  0  0  0  0  0  0
   38.5140   24.8641   39.7407 H   0  0  0  0  0  0  0  0  0  0  0  0
   41.3763   21.0523   37.9078 H   0  0  0  0  0  0  0  0  0  0  0  0
   41.3912   20.9570   36.0941 H   0  0  0  0  0  0  0  0  0  0  0  0
   43.3309   23.8008   35.6799 H   0  0  0  0  0  0  0  0  0  0  0  0
   43.1221   22.1107   35.1085 H   0  0  0  0  0  0  0  0  0  0  0  0
   41.7236   23.2380   35.1085 H   0  0  0  0  0  0  0  0  0  0  0  0
  1  8  1  0
  1  2  2  0
  3  2  1  0
  3  7  1  0
  4  3  2  0
  5  6  2  0
  5  4  1  0
  6  1  1  0
  9  8  1  0
 10  9  1  0
  2 11  1  0
  5 12  1  0
  7 13  1  0
  7 14  1  0
  8 15  1  0
  8 16  1  0
 10 17  1  0
 10 18  1  0
 10 19  1  0
M  ISO  7  11  14  12  14  15   8  16   8  17   8  18   8  19   8
M  END
>  <minimizedAffinity>  (1) 
-3.01568222

>  <minimizedRMSD>  (1) 
0.157524183

$$$$
