
     RDKit          3D

 22 22  0  0  0  0  0  0  0  0999 V2000
   39.9620   22.2550   36.9880 C   0  0  0  0  0  0  0  0  0  0  0  0
   39.6520   23.1120   38.0210 C   0  0  0  0  0  0  0  0  0  0  0  0
   38.4260   23.7580   37.9600 C   0  0  0  0  0  0  0  0  0  0  0  0
   37.5950   23.5170   36.8900 N   0  0  0  0  0  0  0  0  0  0  0  0
   37.9610   22.6620   35.9090 C   0  0  0  0  0  0  0  0  0  0  0  0
   39.1330   22.0310   35.9470 N   0  0  0  0  0  0  0  0  0  0  0  0
   37.9130   24.6750   38.9100 N   0  0  0  0  0  0  0  0  0  0  0  0
   41.2980   21.5810   37.1040 C   0  0  0  0  0  0  0  0  0  0  0  0
   42.0970   21.8520   36.0130 O   0  0  0  0  0  0  0  0  0  0  0  0
   43.3630   22.3160   36.3350 C   0  0  0  0  0  0  0  0  0  0  0  0
   43.3990   23.8070   36.5640 C   0  0  0  0  0  0  0  0  0  0  0  0
   40.3465   23.2769   38.8579 H   0  0  0  0  0  0  0  0  0  0  0  0
   37.2788   22.4844   35.0646 H   0  0  0  0  0  0  0  0  0  0  0  0
   36.9855   25.0996   38.7672 H   0  0  0  0  0  0  0  0  0  0  0  0
   38.4675   24.9172   39.7436 H   0  0  0  0  0  0  0  0  0  0  0  0
   41.8016   21.9397   38.0138 H   0  0  0  0  0  0  0  0  0  0  0  0
   41.1336   20.4943   37.1501 H   0  0  0  0  0  0  0  0  0  0  0  0
   43.6993   21.8113   37.2527 H   0  0  0  0  0  0  0  0  0  0  0  0
   44.0228   22.0960   35.4828 H   0  0  0  0  0  0  0  0  0  0  0  0
   43.4039   24.0120   37.6447 H   0  0  0  0  0  0  0  0  0  0  0  0
   44.3075   24.2263   36.1071 H   0  0  0  0  0  0  0  0  0  0  0  0
   42.5118   24.2697   36.1071 H   0  0  0  0  0  0  0  0  0  0  0  0
  1  8  1  0
  1  2  2  0
  3  2  1  0
  3  7  1  0
  4  3  2  0
  5  6  2  0
  5  4  1  0
  6  1  1  0
  9 10  1  0
  9  8  1  0
 10 11  1  0
  2 12  1  0
  5 13  1  0
  7 14  1  0
  7 15  1  0
  8 16  1  0
  8 17  1  0
 10 18  1  0
 10 19  1  0
 11 20  1  0
 11 21  1  0
 11 22  1  0
M  ISO  8  12  14  13  14  16   8  17   8  18   8  19   8  20   8  21   8
M  ISO  1  22   8
M  END
>  <minimizedAffinity>  (1) 
-3.22286057

>  <minimizedRMSD>  (1) 
0.863850236

$$$$
