
     RDKit          3D

 37 40  0  0  1  0  0  0  0  0999 V2000
   43.1260   22.9550   36.2480 C   0  0  1  0  0  0  0  0  0  0  0  0
   42.8390   24.2560   35.6090 C   0  0  0  0  0  0  0  0  0  0  0  0
   43.8380   24.1970   36.7230 C   0  0  2  0  0  0  0  0  0  0  0  0
   45.1710   24.5080   36.2890 N   0  0  0  0  0  0  0  0  0  0  0  0
   46.1850   23.6150   36.4910 C   0  0  0  0  0  0  0  0  0  0  0  0
   47.3690   24.0950   36.0110 N   0  0  0  0  0  0  0  0  0  0  0  0
   47.0940   25.3260   35.4900 C   0  0  0  0  0  0  0  0  0  0  0  0
   47.8660   26.2890   34.8710 C   0  0  0  0  0  0  0  0  0  0  0  0
   49.0820   25.9980   34.7460 O   0  0  0  0  0  0  0  0  0  0  0  0
   47.2610   27.4200   34.4710 N   0  0  0  0  0  0  0  0  0  0  0  0
   45.9390   27.6160   34.6620 C   0  0  0  0  0  0  0  0  0  0  0  0
   45.4970   28.8850   34.1610 N   0  0  0  0  0  0  0  0  0  0  0  0
   45.1690   26.6720   35.2720 N   0  0  0  0  0  0  0  0  0  0  0  0
   45.7430   25.5360   35.6830 C   0  0  0  0  0  0  0  0  0  0  0  0
   42.2560   22.3970   37.1780 O   0  0  0  0  0  0  0  0  0  0  0  0
   41.2950   21.6430   36.5850 C   0  0  0  0  0  0  0  0  0  0  0  0
   39.9240   22.2010   36.6330 C   0  0  0  0  0  0  0  0  0  0  0  0
   39.7250   22.9980   37.7480 C   0  0  0  0  0  0  0  0  0  0  0  0
   38.4590   23.5680   37.9320 C   0  0  0  0  0  0  0  0  0  0  0  0
   37.4920   23.2960   36.9870 N   0  0  0  0  0  0  0  0  0  0  0  0
   37.7470   22.5050   35.9130 C   0  0  0  0  0  0  0  0  0  0  0  0
   38.9730   21.9640   35.7510 N   0  0  0  0  0  0  0  0  0  0  0  0
   38.0350   24.3990   38.9740 N   0  0  0  0  0  0  0  0  0  0  0  0
   43.3887   21.9713   35.8316 H   0  0  0  0  0  0  0  0  0  0  0  0
   43.1773   24.4469   34.5799 H   0  0  0  0  0  0  0  0  0  0  0  0
   41.9255   24.8393   35.4208 H   0  0  0  0  0  0  0  0  0  0  0  0
   43.9937   24.6160   37.7281 H   0  0  0  0  0  0  0  0  0  0  0  0
   46.0630   22.6360   36.9775 H   0  0  0  0  0  0  0  0  0  0  0  0
   47.8176   28.1531   34.0088 H   0  0  0  0  0  0  0  0  0  0  0  0
   44.5068   29.1557   34.2459 H   0  0  0  0  0  0  0  0  0  0  0  0
   46.1697   29.5257   33.7163 H   0  0  0  0  0  0  0  0  0  0  0  0
   41.2789   20.6623   37.0829 H   0  0  0  0  0  0  0  0  0  0  0  0
   41.5639   21.5962   35.5194 H   0  0  0  0  0  0  0  0  0  0  0  0
   40.5372   23.1780   38.4677 H   0  0  0  0  0  0  0  0  0  0  0  0
   36.9553   22.3054   35.1759 H   0  0  0  0  0  0  0  0  0  0  0  0
   37.0678   24.7528   38.9895 H   0  0  0  0  0  0  0  0  0  0  0  0
   38.6899   24.6572   39.7259 H   0  0  0  0  0  0  0  0  0  0  0  0
  1  3  1  0
  1 15  1  0
  2  1  1  0
  2  3  1  0
  4  5  1  0
  4  3  1  0
  6  5  2  0
  7 14  2  0
  7  6  1  0
  8  7  1  0
  9  8  2  0
 10 11  1  0
 10  8  1  0
 11 13  2  0
 12 11  1  0
 13 14  1  0
 14  4  1  0
 16 17  1  0
 16 15  1  0
 17 18  2  0
 18 19  1  0
 19 23  1  0
 20 19  2  0
 21 20  1  0
 22 21  2  0
 22 17  1  0
  1 24  1  6
  2 25  1  0
  2 26  1  0
  3 27  1  1
  5 28  1  0
 10 29  1  0
 12 30  1  0
 12 31  1  0
 16 32  1  0
 16 33  1  0
 18 34  1  0
 21 35  1  0
 23 36  1  0
 23 37  1  0
M  ISO  8  24  13  25  13  26  13  27  13  28  14  29   9  32   8  33   8
M  ISO  2  34  14  35  14
M  END
>  <minimizedAffinity>  (1) 
-4.84645367

>  <minimizedRMSD>  (1) 
2.06157088

$$$$
