
     RDKit          3D

 39 41  0  0  1  0  0  0  0  0999 V2000
   41.3950   21.6840   36.7530 C   0  0  0  0  0  0  0  0  0  0  0  0
   40.0280   22.2240   36.7160 C   0  0  0  0  0  0  0  0  0  0  0  0
   39.7530   23.0130   37.8260 C   0  0  0  0  0  0  0  0  0  0  0  0
   38.4670   23.5700   37.9480 C   0  0  0  0  0  0  0  0  0  0  0  0
   37.5500   23.2900   36.9380 N   0  0  0  0  0  0  0  0  0  0  0  0
   37.8890   22.5190   35.8950 C   0  0  0  0  0  0  0  0  0  0  0  0
   39.1280   21.9940   35.7940 N   0  0  0  0  0  0  0  0  0  0  0  0
   38.0100   24.4040   38.9740 N   0  0  0  0  0  0  0  0  0  0  0  0
   42.3960   22.5720   36.8710 O   0  0  0  0  0  0  0  0  0  0  0  0
   42.7410   23.1750   35.6650 C   0  0  1  0  0  0  0  0  0  0  0  0
   42.6720   24.6280   35.4460 C   0  0  0  0  0  0  0  0  0  0  0  0
   43.9970   24.0120   35.7540 C   0  0  1  0  0  0  0  0  0  0  0  0
   44.6810   24.2470   37.0550 C   0  0  0  0  0  0  0  0  0  0  0  0
   44.5280   25.6920   37.4810 C   0  0  0  0  0  0  0  0  0  0  0  0
   45.1510   25.9360   38.8410 C   0  0  0  0  0  0  0  0  0  0  0  0
   46.4650   25.1820   38.9770 C   0  0  0  0  0  0  0  0  0  0  0  0
   47.0160   24.9580   37.5790 C   0  0  0  0  0  0  0  0  0  0  0  0
   46.1500   23.9190   36.8920 C   0  0  0  0  0  0  0  0  0  0  0  0
   41.5562   21.1234   35.8204 H   0  0  0  0  0  0  0  0  0  0  0  0
   41.4394   21.0782   37.6700 H   0  0  0  0  0  0  0  0  0  0  0  0
   40.5219   23.1976   38.5906 H   0  0  0  0  0  0  0  0  0  0  0  0
   37.1466   22.3114   35.1103 H   0  0  0  0  0  0  0  0  0  0  0  0
   37.0417   24.7547   38.9598 H   0  0  0  0  0  0  0  0  0  0  0  0
   38.6419   24.6673   39.7436 H   0  0  0  0  0  0  0  0  0  0  0  0
   42.3359   22.3375   35.0781 H   0  0  0  0  0  0  0  0  0  0  0  0
   42.4728   25.0196   34.4376 H   0  0  0  0  0  0  0  0  0  0  0  0
   42.0822   25.4458   35.8858 H   0  0  0  0  0  0  0  0  0  0  0  0
   44.9871   23.9988   35.2749 H   0  0  0  0  0  0  0  0  0  0  0  0
   44.2290   23.6075   37.8275 H   0  0  0  0  0  0  0  0  0  0  0  0
   45.0217   26.3379   36.7400 H   0  0  0  0  0  0  0  0  0  0  0  0
   43.4543   25.9223   37.5455 H   0  0  0  0  0  0  0  0  0  0  0  0
   45.3389   27.0129   38.9635 H   0  0  0  0  0  0  0  0  0  0  0  0
   44.4573   25.5775   39.6157 H   0  0  0  0  0  0  0  0  0  0  0  0
   47.1773   25.7745   39.5699 H   0  0  0  0  0  0  0  0  0  0  0  0
   46.3064   24.2205   39.4872 H   0  0  0  0  0  0  0  0  0  0  0  0
   46.9885   25.9002   37.0120 H   0  0  0  0  0  0  0  0  0  0  0  0
   48.0585   24.6109   37.6313 H   0  0  0  0  0  0  0  0  0  0  0  0
   46.3502   22.9327   37.3359 H   0  0  0  0  0  0  0  0  0  0  0  0
   46.3920   23.9136   35.8190 H   0  0  0  0  0  0  0  0  0  0  0  0
  1  9  1  0
  2  1  1  0
  2  3  2  0
  3  4  1  0
  4  8  1  0
  5  4  2  0
  6  5  1  0
  7  6  2  0
  7  2  1  0
 10 12  1  0
 10  9  1  0
 11 10  1  0
 11 12  1  0
 12 13  1  0
 13 14  1  0
 14 15  1  0
 15 16  1  0
 17 16  1  0
 18 13  1  0
 18 17  1  0
  1 19  1  0
  1 20  1  0
  3 21  1  0
  6 22  1  0
  8 23  1  0
  8 24  1  0
 10 25  1  6
 11 26  1  0
 11 27  1  0
 12 28  1  6
 13 29  1  0
 14 30  1  0
 14 31  1  0
 15 32  1  0
 15 33  1  0
 16 34  1  0
 16 35  1  0
 17 36  1  0
 17 37  1  0
 18 38  1  0
 18 39  1  0
M  ISO  8  19   8  20   8  21  14  22  14  25  13  26  13  27  13  28  13
M  ISO  8  29  13  30  13  31  13  32  13  33  13  34  13  35  13  36  13
M  ISO  3  37  13  38  13  39  13
M  END
>  <minimizedAffinity>  (1) 
-5.23908043

>  <minimizedRMSD>  (1) 
2.71195102

$$$$
