
     RDKit          3D

 36 38  0  0  1  0  0  0  0  0999 V2000
   41.8980   21.8510   36.8820 C   0  0  0  0  0  0  0  0  0  0  0  0
   40.4970   22.2630   36.6730 C   0  0  0  0  0  0  0  0  0  0  0  0
   40.0090   22.9500   37.7770 C   0  0  0  0  0  0  0  0  0  0  0  0
   38.6710   23.3800   37.7640 C   0  0  0  0  0  0  0  0  0  0  0  0
   37.9260   23.0830   36.6350 N   0  0  0  0  0  0  0  0  0  0  0  0
   38.4520   22.4110   35.5870 C   0  0  0  0  0  0  0  0  0  0  0  0
   39.7410   22.0100   35.6260 N   0  0  0  0  0  0  0  0  0  0  0  0
   37.9900   24.0870   38.7570 N   0  0  0  0  0  0  0  0  0  0  0  0
   42.8020   22.8370   37.0130 O   0  0  0  0  0  0  0  0  0  0  0  0
   43.1710   23.4110   35.8020 C   0  0  1  0  0  0  0  0  0  0  0  0
   42.9960   24.8550   35.5400 C   0  0  0  0  0  0  0  0  0  0  0  0
   44.3470   24.3520   35.9020 C   0  0  1  0  0  0  0  0  0  0  0  0
   44.9250   24.5040   37.2580 C   0  0  0  0  0  0  0  0  0  0  0  0
   44.6450   25.7790   37.9710 C   0  0  0  0  0  0  0  0  0  0  0  0
   45.7390   25.8220   39.0440 C   0  0  0  0  0  0  0  0  0  0  0  0
   46.7760   24.8030   38.6430 C   0  0  0  0  0  0  0  0  0  0  0  0
   46.4340   24.4250   37.2190 C   0  0  0  0  0  0  0  0  0  0  0  0
   42.1972   21.2362   36.0203 H   0  0  0  0  0  0  0  0  0  0  0  0
   41.9040   21.3220   37.8464 H   0  0  0  0  0  0  0  0  0  0  0  0
   40.6559   23.1532   38.6431 H   0  0  0  0  0  0  0  0  0  0  0  0
   37.8322   22.1914   34.7051 H   0  0  0  0  0  0  0  0  0  0  0  0
   37.0016   24.3430   38.6211 H   0  0  0  0  0  0  0  0  0  0  0  0
   38.4760   24.3526   39.6254 H   0  0  0  0  0  0  0  0  0  0  0  0
   42.8741   22.5190   35.2309 H   0  0  0  0  0  0  0  0  0  0  0  0
   42.7993   25.2048   34.5158 H   0  0  0  0  0  0  0  0  0  0  0  0
   42.3319   25.6357   35.9394 H   0  0  0  0  0  0  0  0  0  0  0  0
   45.3359   24.4910   35.4408 H   0  0  0  0  0  0  0  0  0  0  0  0
   44.4333   23.6817   37.7983 H   0  0  0  0  0  0  0  0  0  0  0  0
   44.7256   26.6388   37.2897 H   0  0  0  0  0  0  0  0  0  0  0  0
   43.6279   25.8285   38.3870 H   0  0  0  0  0  0  0  0  0  0  0  0
   46.1891   26.8248   39.0872 H   0  0  0  0  0  0  0  0  0  0  0  0
   45.3274   25.5987   40.0394 H   0  0  0  0  0  0  0  0  0  0  0  0
   47.7846   25.2389   38.6943 H   0  0  0  0  0  0  0  0  0  0  0  0
   46.7726   23.9294   39.3114 H   0  0  0  0  0  0  0  0  0  0  0  0
   46.7798   23.4095   36.9758 H   0  0  0  0  0  0  0  0  0  0  0  0
   46.9032   25.0614   36.4543 H   0  0  0  0  0  0  0  0  0  0  0  0
  1  9  1  0
  2  1  1  0
  2  3  2  0
  4  3  1  0
  4  8  1  0
  5  4  2  0
  6  7  2  0
  6  5  1  0
  7  2  1  0
 10 12  1  0
 10  9  1  0
 11 10  1  0
 11 12  1  0
 12 13  1  0
 13 14  1  0
 14 15  1  0
 16 15  1  0
 17 13  1  0
 17 16  1  0
  1 18  1  0
  1 19  1  0
  3 20  1  0
  6 21  1  0
  8 22  1  0
  8 23  1  0
 10 24  1  6
 11 25  1  0
 11 26  1  0
 12 27  1  6
 13 28  1  0
 14 29  1  0
 14 30  1  0
 15 31  1  0
 15 32  1  0
 16 33  1  0
 16 34  1  0
 17 35  1  0
 17 36  1  0
M  ISO  8  18   8  19   8  20  14  21  14  24  13  25  13  26  13  27  13
M  ISO  8  28  13  29  13  30  13  31  13  32  13  33  13  34  13  35  13
M  ISO  1  36  13
M  END
>  <minimizedAffinity>  (1) 
-4.90492868

>  <minimizedRMSD>  (1) 
2.64866543

$$$$
