
     RDKit          3D

 38 41  0  0  0  0  0  0  0  0999 V2000
   38.6460   24.1040   36.4580 C   0  0  0  0  0  0  0  0  0  0  0  0
   39.9550   23.7240   36.1370 C   0  0  0  0  0  0  0  0  0  0  0  0
   40.5970   24.4230   35.0800 C   0  0  0  0  0  0  0  0  0  0  0  0
   39.9160   25.4030   34.4510 N   0  0  0  0  0  0  0  0  0  0  0  0
   38.6640   25.7380   34.7890 C   0  0  0  0  0  0  0  0  0  0  0  0
   38.0290   25.0980   35.7820 N   0  0  0  0  0  0  0  0  0  0  0  0
   37.9040   26.7650   34.1550 N   0  0  0  0  0  0  0  0  0  0  0  0
   36.8130   27.3770   34.6490 C   0  0  0  0  0  0  0  0  0  0  0  0
   36.1970   28.3490   33.9050 C   0  0  0  0  0  0  0  0  0  0  0  0
   36.6900   28.6920   32.6760 C   0  0  0  0  0  0  0  0  0  0  0  0
   36.1350   29.5790   31.9880 O   0  0  0  0  0  0  0  0  0  0  0  0
   37.7800   28.0730   32.2000 N   0  0  0  0  0  0  0  0  0  0  0  0
   38.3740   27.1170   32.9410 C   0  0  0  0  0  0  0  0  0  0  0  0
   39.4060   26.5920   32.3900 O   0  0  0  0  0  0  0  0  0  0  0  0
   38.2700   28.4510   30.9150 C   0  0  0  0  0  0  0  0  0  0  0  0
   39.3530   27.8790   30.3710 N   0  0  0  0  0  0  0  0  0  0  0  0
   39.6000   28.3900   29.2040 O   0  0  0  0  0  0  0  0  0  0  0  0
   38.6610   29.2960   29.0100 C   0  0  0  0  0  0  0  0  0  0  0  0
   37.8120   29.3560   30.0680 N   0  0  0  0  0  0  0  0  0  0  0  0
   38.5590   30.1200   27.8100 C   0  0  0  0  0  0  0  0  0  0  0  0
   39.5870   30.0190   26.8690 C   0  0  0  0  0  0  0  0  0  0  0  0
   39.4410   30.8230   25.7460 C   0  0  0  0  0  0  0  0  0  0  0  0
   38.3890   31.6780   25.5130 C   0  0  0  0  0  0  0  0  0  0  0  0
   37.3900   31.7430   26.4800 C   0  0  0  0  0  0  0  0  0  0  0  0
   37.4820   30.9610   27.6240 C   0  0  0  0  0  0  0  0  0  0  0  0
   37.9440   23.3840   37.5690 C   0  0  0  0  0  0  0  0  0  0  0  0
   38.8140   22.6200   38.3280 F   0  0  0  0  0  0  0  0  0  0  0  0
   37.3430   24.3020   38.4070 F   0  0  0  0  0  0  0  0  0  0  0  0
   36.9540   22.5690   37.0140 F   0  0  0  0  0  0  0  0  0  0  0  0
   40.4658   22.9163   36.6817 H   0  0  0  0  0  0  0  0  0  0  0  0
   41.6253   24.1711   34.7814 H   0  0  0  0  0  0  0  0  0  0  0  0
   36.4199   27.1006   35.6385 H   0  0  0  0  0  0  0  0  0  0  0  0
   35.3028   28.8553   34.2975 H   0  0  0  0  0  0  0  0  0  0  0  0
   40.4497   29.3508   27.0077 H   0  0  0  0  0  0  0  0  0  0  0  0
   40.2301   30.7719   24.9814 H   0  0  0  0  0  0  0  0  0  0  0  0
   38.3392   32.2867   24.5981 H   0  0  0  0  0  0  0  0  0  0  0  0
   36.5290   32.4127   26.3383 H   0  0  0  0  0  0  0  0  0  0  0  0
   36.6909   31.0128   28.3865 H   0  0  0  0  0  0  0  0  0  0  0  0
  1 26  1  0
  2  1  2  0
  3  2  1  0
  4  5  1  0
  4  3  2  0
  5  6  2  0
  6  1  1  0
  7  8  1  0
  7  5  1  0
  9  8  2  0
 10  9  1  0
 11 10  2  0
 12 10  1  0
 12 13  1  0
 13  7  1  0
 14 13  2  0
 15 12  1  0
 16 15  2  0
 17 16  1  0
 18 17  1  0
 18 19  2  0
 19 15  1  0
 20 18  1  0
 21 20  2  0
 22 21  1  0
 23 22  2  0
 23 24  1  0
 24 25  2  0
 25 20  1  0
 26 27  1  0
 26 28  1  0
 29 26  1  0
  2 30  1  0
  3 31  1  0
  8 32  1  0
  9 33  1  0
 21 34  1  0
 22 35  1  0
 23 36  1  0
 24 37  1  0
 25 38  1  0
M  ISO  8  30  14  31  14  32  14  33  14  34  14  35  14  36  14  37  14
M  ISO  1  38  14
M  END
>  <minimizedAffinity>  (1) 
-5.77686501

>  <minimizedRMSD>  (1) 
0.86601913

$$$$
