
     RDKit          3D

 36 38  0  0  1  0  0  0  0  0999 V2000
   41.3560   21.6130   36.9760 C   0  0  0  0  0  0  0  0  0  0  0  0
   39.9730   22.2400   36.8430 C   0  0  0  0  0  0  0  0  0  0  0  0
   39.6980   23.0550   37.9290 C   0  0  0  0  0  0  0  0  0  0  0  0
   38.4230   23.6150   37.9670 C   0  0  0  0  0  0  0  0  0  0  0  0
   37.5320   23.3280   36.9360 N   0  0  0  0  0  0  0  0  0  0  0  0
   37.8850   22.5290   35.9230 C   0  0  0  0  0  0  0  0  0  0  0  0
   39.1110   21.9860   35.8780 N   0  0  0  0  0  0  0  0  0  0  0  0
   37.9450   24.4840   38.9730 N   0  0  0  0  0  0  0  0  0  0  0  0
   42.3660   22.4760   36.9220 O   0  0  0  0  0  0  0  0  0  0  0  0
   42.6230   23.0180   35.6660 C   0  0  1  0  0  0  0  0  0  0  0  0
   42.5360   24.4660   35.4060 C   0  0  0  0  0  0  0  0  0  0  0  0
   43.8810   23.8540   35.6110 C   0  0  1  0  0  0  0  0  0  0  0  0
   44.6550   24.1260   36.7810 N   0  0  0  0  0  0  0  0  0  0  0  0
   44.6190   25.5830   36.9820 C   0  0  0  0  0  0  0  0  0  0  0  0
   45.6750   26.1530   36.0610 C   0  0  0  0  0  0  0  0  0  0  0  0
   46.8890   25.9510   36.7130 O   0  0  0  0  0  0  0  0  0  0  0  0
   47.0340   24.6430   37.1180 C   0  0  0  0  0  0  0  0  0  0  0  0
   46.0190   23.6870   36.5430 C   0  0  0  0  0  0  0  0  0  0  0  0
   41.4035   21.0904   37.9428 H   0  0  0  0  0  0  0  0  0  0  0  0
   41.4760   20.9408   36.1136 H   0  0  0  0  0  0  0  0  0  0  0  0
   40.4427   23.2486   38.7151 H   0  0  0  0  0  0  0  0  0  0  0  0
   37.1641   22.3153   35.1201 H   0  0  0  0  0  0  0  0  0  0  0  0
   36.9846   24.8526   38.9215 H   0  0  0  0  0  0  0  0  0  0  0  0
   38.5569   24.7490   39.7580 H   0  0  0  0  0  0  0  0  0  0  0  0
   42.1800   22.1553   35.1470 H   0  0  0  0  0  0  0  0  0  0  0  0
   42.1173   25.1346   36.1726 H   0  0  0  0  0  0  0  0  0  0  0  0
   42.0819   25.0805   34.6147 H   0  0  0  0  0  0  0  0  0  0  0  0
   44.8229   23.8165   35.0440 H   0  0  0  0  0  0  0  0  0  0  0  0
   43.6275   25.9812   36.7206 H   0  0  0  0  0  0  0  0  0  0  0  0
   44.8099   25.8515   38.0315 H   0  0  0  0  0  0  0  0  0  0  0  0
   45.5017   27.2267   35.8961 H   0  0  0  0  0  0  0  0  0  0  0  0
   45.6579   25.6691   35.0733 H   0  0  0  0  0  0  0  0  0  0  0  0
   48.0353   24.3007   36.8175 H   0  0  0  0  0  0  0  0  0  0  0  0
   46.8824   24.6374   38.2075 H   0  0  0  0  0  0  0  0  0  0  0  0
   46.1595   22.6998   37.0074 H   0  0  0  0  0  0  0  0  0  0  0  0
   46.1747   23.6436   35.4549 H   0  0  0  0  0  0  0  0  0  0  0  0
  2  1  1  0
  2  3  2  0
  3  4  1  0
  4  8  1  0
  5  4  2  0
  6  5  1  0
  7  6  2  0
  7  2  1  0
  9  1  1  0
 10  9  1  0
 11 12  1  0
 11 10  1  0
 12 10  1  0
 12 13  1  0
 13 14  1  0
 15 16  1  0
 15 14  1  0
 16 17  1  0
 18 13  1  0
 18 17  1  0
  1 19  1  0
  1 20  1  0
  3 21  1  0
  6 22  1  0
  8 23  1  0
  8 24  1  0
 10 25  1  6
 11 26  1  0
 11 27  1  0
 12 28  1  6
 14 29  1  0
 14 30  1  0
 15 31  1  0
 15 32  1  0
 17 33  1  0
 17 34  1  0
 18 35  1  0
 18 36  1  0
M  ISO  8  19   8  20   8  21  14  22  14  25  13  26  13  27  13  28  13
M  ISO  8  29  13  30  13  31  13  32  13  33  13  34  13  35  13  36  13
M  END
>  <minimizedAffinity>  (1) 
-4.15800667

>  <minimizedRMSD>  (1) 
2.96609068

$$$$
