
     RDKit          3D

 40 42  0  0  1  0  0  0  0  0999 V2000
   35.8860   28.9580   33.3060 C   0  0  0  0  0  0  0  0  0  0  0  0
   35.9740   28.1930   32.1730 C   0  0  0  0  0  0  0  0  0  0  0  0
   36.5730   26.9380   32.2630 C   0  0  0  0  0  0  0  0  0  0  0  0
   37.0640   26.4880   33.4760 C   0  0  0  0  0  0  0  0  0  0  0  0
   36.9770   27.2480   34.6090 C   0  0  0  0  0  0  0  0  0  0  0  0
   36.3860   28.4920   34.5340 C   0  0  0  0  0  0  0  0  0  0  0  0
   37.6770   25.1410   33.3820 C   0  0  0  0  0  0  0  0  0  0  0  0
   37.9480   24.7000   31.9740 C   0  0  2  0  0  0  0  0  0  0  0  0
   37.6260   21.2610   30.7540 C   0  0  0  0  0  0  0  0  0  0  0  0
   36.2780   20.9330   31.0350 C   0  0  0  0  0  0  0  0  0  0  0  0
   35.4820   21.9100   31.6510 C   0  0  0  0  0  0  0  0  0  0  0  0
   36.0500   23.1270   31.9450 N   0  0  0  0  0  0  0  0  0  0  0  0
   37.3360   23.3970   31.6590 C   0  0  0  0  0  0  0  0  0  0  0  0
   38.1300   22.4730   31.0660 N   0  0  0  0  0  0  0  0  0  0  0  0
   39.4600   24.5640   31.8070 C   0  0  0  0  0  0  0  0  0  0  0  0
   35.1170   30.5240   33.2080 S   0  0  0  0  0  0  0  0  0  0  0  0
   33.9960   30.4120   32.1850 O   0  0  0  0  0  0  0  0  0  0  0  0
   36.0750   31.5740   32.7770 O   0  0  0  0  0  0  0  0  0  0  0  0
   34.4710   30.9130   34.7700 C   0  0  0  0  0  0  0  0  0  0  0  0
   33.2360   30.5150   35.2580 C   0  0  0  0  0  0  0  0  0  0  0  0
   32.8870   30.9210   36.5290 C   0  0  0  0  0  0  0  0  0  0  0  0
   33.6800   31.6720   37.3050 N   0  0  0  0  0  0  0  0  0  0  0  0
   34.8740   32.0460   36.8130 C   0  0  0  0  0  0  0  0  0  0  0  0
   35.2570   31.6730   35.5740 N   0  0  0  0  0  0  0  0  0  0  0  0
   35.5807   28.5610   31.2139 H   0  0  0  0  0  0  0  0  0  0  0  0
   36.6557   26.3038   31.3680 H   0  0  0  0  0  0  0  0  0  0  0  0
   37.3719   26.8735   35.5649 H   0  0  0  0  0  0  0  0  0  0  0  0
   36.3061   29.1187   35.4344 H   0  0  0  0  0  0  0  0  0  0  0  0
   38.6297   25.1537   33.9317 H   0  0  0  0  0  0  0  0  0  0  0  0
   36.9560   24.4286   33.8094 H   0  0  0  0  0  0  0  0  0  0  0  0
   37.5136   25.4489   31.2955 H   0  0  0  0  0  0  0  0  0  0  0  0
   38.2744   20.5142   30.2725 H   0  0  0  0  0  0  0  0  0  0  0  0
   35.8683   19.9448   30.7788 H   0  0  0  0  0  0  0  0  0  0  0  0
   34.4283   21.7072   31.8931 H   0  0  0  0  0  0  0  0  0  0  0  0
   39.9359   24.5212   32.7978 H   0  0  0  0  0  0  0  0  0  0  0  0
   39.6861   23.6419   31.2515 H   0  0  0  0  0  0  0  0  0  0  0  0
   39.8470   25.4310   31.2515 H   0  0  0  0  0  0  0  0  0  0  0  0
   32.5575   29.8965   34.6521 H   0  0  0  0  0  0  0  0  0  0  0  0
   31.9084   30.6127   36.9256 H   0  0  0  0  0  0  0  0  0  0  0  0
   35.5462   32.6630   37.4273 H   0  0  0  0  0  0  0  0  0  0  0  0
  1  6  2  0
  2  3  2  0
  2  1  1  0
  3  4  1  0
  4  5  2  0
  6  5  1  0
  7  4  1  0
  8  7  1  0
  9 10  2  0
  9 14  1  0
 10 11  1  0
 11 12  2  0
 13 12  1  0
 13  8  1  0
 14 13  2  0
 15  8  1  0
 16  1  1  0
 16 19  1  0
 17 16  2  0
 18 16  2  0
 19 20  2  0
 19 24  1  0
 20 21  1  0
 21 22  2  0
 23 22  1  0
 24 23  2  0
  2 25  1  0
  3 26  1  0
  5 27  1  0
  6 28  1  0
  7 29  1  0
  7 30  1  0
  8 31  1  6
  9 32  1  0
 10 33  1  0
 11 34  1  0
 15 35  1  0
 15 36  1  0
 15 37  1  0
 20 38  1  0
 21 39  1  0
 23 40  1  0
M  ISO  8  25  14  26  14  27  14  28  14  29   8  30   8  31   8  32  14
M  ISO  8  33  14  34  14  35   8  36   8  37   8  38  14  39  14  40  14
M  END
>  <minimizedAffinity>  (1) 
-4.85318375

>  <minimizedRMSD>  (1) 
5.17327404

$$$$
