
     RDKit          3D

 30 32  0  0  1  0  0  0  0  0999 V2000
   41.3240   21.6780   36.5510 C   0  0  0  0  0  0  0  0  0  0  0  0
   39.9490   22.2120   36.6060 C   0  0  0  0  0  0  0  0  0  0  0  0
   39.7390   23.0090   37.7230 C   0  0  0  0  0  0  0  0  0  0  0  0
   38.4670   23.5520   37.9160 C   0  0  0  0  0  0  0  0  0  0  0  0
   37.4910   23.2570   36.9710 N   0  0  0  0  0  0  0  0  0  0  0  0
   37.7630   22.4710   35.9000 C   0  0  0  0  0  0  0  0  0  0  0  0
   39.0000   21.9580   35.7340 N   0  0  0  0  0  0  0  0  0  0  0  0
   38.0450   24.3830   38.9620 N   0  0  0  0  0  0  0  0  0  0  0  0
   42.2640   22.3880   37.2190 O   0  0  0  0  0  0  0  0  0  0  0  0
   43.2120   22.9430   36.3640 C   0  0  1  0  0  0  0  0  0  0  0  0
   42.9400   24.0960   35.4900 C   0  0  0  0  0  0  0  0  0  0  0  0
   43.6850   24.3180   36.7690 C   0  0  2  0  0  0  0  0  0  0  0  0
   45.1310   24.5880   36.5630 C   0  0  0  0  0  0  0  0  0  0  0  0
   46.1280   24.6150   37.5100 C   0  0  0  0  0  0  0  0  0  0  0  0
   47.3010   24.8970   36.9050 N   0  0  0  0  0  0  0  0  0  0  0  0
   47.0510   25.0470   35.6020 C   0  0  0  0  0  0  0  0  0  0  0  0
   45.7340   24.8580   35.3970 N   0  0  0  0  0  0  0  0  0  0  0  0
   41.3075   20.6619   36.9721 H   0  0  0  0  0  0  0  0  0  0  0  0
   41.6168   21.7217   35.4916 H   0  0  0  0  0  0  0  0  0  0  0  0
   40.5523   23.2074   38.4366 H   0  0  0  0  0  0  0  0  0  0  0  0
   36.9742   22.2513   35.1655 H   0  0  0  0  0  0  0  0  0  0  0  0
   37.0722   24.7200   38.9915 H   0  0  0  0  0  0  0  0  0  0  0  0
   38.7076   24.6569   39.7015 H   0  0  0  0  0  0  0  0  0  0  0  0
   43.6347   21.9518   36.1430 H   0  0  0  0  0  0  0  0  0  0  0  0
   43.4652   24.1889   34.5280 H   0  0  0  0  0  0  0  0  0  0  0  0
   42.0326   24.5265   35.0413 H   0  0  0  0  0  0  0  0  0  0  0  0
   43.5694   24.9426   37.6670 H   0  0  0  0  0  0  0  0  0  0  0  0
   45.9914   24.4357   38.5867 H   0  0  0  0  0  0  0  0  0  0  0  0
   47.7950   25.2847   34.8274 H   0  0  0  0  0  0  0  0  0  0  0  0
   45.2618   24.9126   34.4833 H   0  0  0  0  0  0  0  0  0  0  0  0
  1  2  1  0
  1  9  1  0
  2  3  2  0
  3  4  1  0
  4  8  1  0
  5  4  2  0
  6  5  1  0
  7  6  2  0
  7  2  1  0
 10 12  1  0
 10  9  1  0
 11 10  1  0
 11 12  1  0
 13 12  1  0
 13 14  2  0
 15 14  1  0
 16 15  2  0
 17 16  1  0
 17 13  1  0
  1 18  1  0
  1 19  1  0
  3 20  1  0
  6 21  1  0
  8 22  1  0
  8 23  1  0
 10 24  1  6
 11 25  1  0
 11 26  1  0
 12 27  1  1
 14 28  1  0
 16 29  1  0
 17 30  1  0
M  ISO  8  18   8  19   8  20  14  21  14  24  13  25  13  26  13  27  13
M  ISO  3  28  14  29  14  30   9
M  END
>  <minimizedAffinity>  (1) 
-3.90621972

>  <minimizedRMSD>  (1) 
2.0371778

$$$$
