
     RDKit          3D

 25 26  0  0  1  0  0  0  0  0999 V2000
   41.2840   21.5690   36.7600 C   0  0  0  0  0  0  0  0  0  0  0  0
   39.9020   22.1970   36.7100 C   0  0  0  0  0  0  0  0  0  0  0  0
   39.6810   22.9990   37.8210 C   0  0  0  0  0  0  0  0  0  0  0  0
   38.4210   23.5840   37.9390 C   0  0  0  0  0  0  0  0  0  0  0  0
   37.4860   23.3210   36.9420 N   0  0  0  0  0  0  0  0  0  0  0  0
   37.7750   22.5370   35.8990 C   0  0  0  0  0  0  0  0  0  0  0  0
   38.9870   21.9770   35.7870 N   0  0  0  0  0  0  0  0  0  0  0  0
   38.0000   24.4360   38.9710 N   0  0  0  0  0  0  0  0  0  0  0  0
   42.2450   22.3710   37.2300 O   0  0  0  0  0  0  0  0  0  0  0  0
   43.0880   22.8950   36.2560 C   0  0  1  0  0  0  0  0  0  0  0  0
   42.8960   24.2570   35.7180 C   0  0  0  0  0  0  0  0  0  0  0  0
   43.9670   24.0260   36.7370 C   0  0  2  0  0  0  0  0  0  0  0  0
   45.3020   24.1970   36.2340 N   0  0  0  0  0  0  0  0  0  0  0  0
   41.5597   21.2655   35.7393 H   0  0  0  0  0  0  0  0  0  0  0  0
   41.2158   20.7227   37.4593 H   0  0  0  0  0  0  0  0  0  0  0  0
   40.4648   23.1656   38.5746 H   0  0  0  0  0  0  0  0  0  0  0  0
   37.0132   22.3503   35.1278 H   0  0  0  0  0  0  0  0  0  0  0  0
   37.0433   24.8175   38.9658 H   0  0  0  0  0  0  0  0  0  0  0  0
   38.6476   24.6800   39.7338 H   0  0  0  0  0  0  0  0  0  0  0  0
   43.2045   21.9189   35.7623 H   0  0  0  0  0  0  0  0  0  0  0  0
   43.1708   24.4772   34.6759 H   0  0  0  0  0  0  0  0  0  0  0  0
   42.0391   24.9424   35.6414 H   0  0  0  0  0  0  0  0  0  0  0  0
   44.2413   24.3798   37.7418 H   0  0  0  0  0  0  0  0  0  0  0  0
   45.9582   24.2811   37.0235 H   0  0  0  0  0  0  0  0  0  0  0  0
   45.5593   23.3821   35.6590 H   0  0  0  0  0  0  0  0  0  0  0  0
  1  9  1  0
  2  1  1  0
  2  3  2  0
  3  4  1  0
  4  8  1  0
  5  4  2  0
  6  5  1  0
  7  6  2  0
  7  2  1  0
 10 12  1  0
 10  9  1  0
 11 10  1  0
 11 12  1  0
 13 12  1  0
  1 14  1  0
  1 15  1  0
  3 16  1  0
  6 17  1  0
  8 18  1  0
  8 19  1  0
 10 20  1  6
 11 21  1  0
 11 22  1  0
 12 23  1  1
 13 24  1  0
 13 25  1  0
M  ISO  8  14   8  15   8  16  14  17  14  20  13  21  13  22  13  23  13
M  ISO  2  24   5  25   5
M  END
>  <minimizedAffinity>  (1) 
-3.46690893

>  <minimizedRMSD>  (1) 
0.748592019

$$$$
