
     RDKit          3D

 26 27  0  0  1  0  0  0  0  0999 V2000
   41.2600   21.6060   36.6960 C   0  0  0  0  0  0  0  0  0  0  0  0
   39.8990   22.1820   36.6800 C   0  0  0  0  0  0  0  0  0  0  0  0
   39.6790   22.9900   37.7840 C   0  0  0  0  0  0  0  0  0  0  0  0
   38.4270   23.5920   37.9450 C   0  0  0  0  0  0  0  0  0  0  0  0
   37.4790   23.3320   36.9720 N   0  0  0  0  0  0  0  0  0  0  0  0
   37.7470   22.5320   35.9090 C   0  0  0  0  0  0  0  0  0  0  0  0
   38.9580   21.9690   35.7820 N   0  0  0  0  0  0  0  0  0  0  0  0
   37.9970   24.4390   38.9690 N   0  0  0  0  0  0  0  0  0  0  0  0
   42.2280   22.3610   37.2330 O   0  0  0  0  0  0  0  0  0  0  0  0
   43.1060   22.8960   36.2930 C   0  0  1  0  0  0  0  0  0  0  0  0
   42.8890   24.2370   35.7140 C   0  0  0  0  0  0  0  0  0  0  0  0
   43.9100   24.0700   36.7920 C   0  0  2  0  0  0  0  0  0  0  0  0
   45.3280   24.2760   36.3030 C   0  0  0  0  0  0  0  0  0  0  0  0
   41.5434   21.3921   35.6549 H   0  0  0  0  0  0  0  0  0  0  0  0
   41.1910   20.7208   37.3453 H   0  0  0  0  0  0  0  0  0  0  0  0
   40.4771   23.1554   38.5227 H   0  0  0  0  0  0  0  0  0  0  0  0
   36.9714   22.3453   35.1517 H   0  0  0  0  0  0  0  0  0  0  0  0
   37.0372   24.8126   38.9594 H   0  0  0  0  0  0  0  0  0  0  0  0
   38.6397   24.6900   39.7337 H   0  0  0  0  0  0  0  0  0  0  0  0
   43.2898   21.9149   35.8308 H   0  0  0  0  0  0  0  0  0  0  0  0
   43.2108   24.4466   34.6832 H   0  0  0  0  0  0  0  0  0  0  0  0
   42.0112   24.8854   35.5760 H   0  0  0  0  0  0  0  0  0  0  0  0
   44.1152   24.4591   37.8002 H   0  0  0  0  0  0  0  0  0  0  0  0
   46.0029   24.3740   37.1661 H   0  0  0  0  0  0  0  0  0  0  0  0
   45.6348   23.4130   35.6938 H   0  0  0  0  0  0  0  0  0  0  0  0
   45.3766   25.1906   35.6938 H   0  0  0  0  0  0  0  0  0  0  0  0
  1  9  1  0
  2  1  1  0
  2  3  2  0
  3  4  1  0
  4  8  1  0
  5  4  2  0
  6  5  1  0
  7  6  2  0
  7  2  1  0
 10 12  1  0
 10  9  1  0
 11 10  1  0
 11 12  1  0
 13 12  1  0
  1 14  1  0
  1 15  1  0
  3 16  1  0
  6 17  1  0
  8 18  1  0
  8 19  1  0
 10 20  1  6
 11 21  1  0
 11 22  1  0
 12 23  1  1
 13 24  1  0
 13 25  1  0
 13 26  1  0
M  ISO  8  14   8  15   8  16  14  17  14  20  13  21  13  22  13  23  13
M  ISO  3  24   8  25   8  26   8
M  END
>  <minimizedAffinity>  (1) 
-3.65459013

>  <minimizedRMSD>  (1) 
0.79286176

$$$$
