
     RDKit          3D

 28 30  0  0  1  0  0  0  0  0999 V2000
   41.3160   21.6810   36.5230 C   0  0  0  0  0  0  0  0  0  0  0  0
   39.9410   22.2120   36.5930 C   0  0  0  0  0  0  0  0  0  0  0  0
   39.7490   23.0070   37.7150 C   0  0  0  0  0  0  0  0  0  0  0  0
   38.4640   23.5520   37.9170 C   0  0  0  0  0  0  0  0  0  0  0  0
   37.4880   23.2520   36.9740 N   0  0  0  0  0  0  0  0  0  0  0  0
   37.7560   22.4750   35.9130 C   0  0  0  0  0  0  0  0  0  0  0  0
   38.9720   21.9640   35.7310 N   0  0  0  0  0  0  0  0  0  0  0  0
   38.0700   24.3840   38.9720 N   0  0  0  0  0  0  0  0  0  0  0  0
   42.2650   22.3910   37.1680 O   0  0  0  0  0  0  0  0  0  0  0  0
   43.1850   22.9710   36.2970 C   0  0  1  0  0  0  0  0  0  0  0  0
   42.8920   24.2190   35.5690 C   0  0  0  0  0  0  0  0  0  0  0  0
   43.7610   24.2750   36.7870 C   0  0  2  0  0  0  0  0  0  0  0  0
   45.1820   24.5720   36.4760 C   0  0  0  0  0  0  0  0  0  0  0  0
   45.6360   25.1700   35.3420 N   0  0  0  0  0  0  0  0  0  0  0  0
   46.9420   25.2610   35.4290 O   0  0  0  0  0  0  0  0  0  0  0  0
   47.3610   24.7500   36.5670 C   0  0  0  0  0  0  0  0  0  0  0  0
   46.2710   24.3180   37.2260 N   0  0  0  0  0  0  0  0  0  0  0  0
   41.3062   20.6680   36.9516 H   0  0  0  0  0  0  0  0  0  0  0  0
   41.5921   21.7216   35.4590 H   0  0  0  0  0  0  0  0  0  0  0  0
   40.5693   23.2046   38.4207 H   0  0  0  0  0  0  0  0  0  0  0  0
   36.9610   22.2576   35.1845 H   0  0  0  0  0  0  0  0  0  0  0  0
   37.1002   24.7272   39.0227 H   0  0  0  0  0  0  0  0  0  0  0  0
   38.7500   24.6529   39.6974 H   0  0  0  0  0  0  0  0  0  0  0  0
   43.5458   21.9909   35.9517 H   0  0  0  0  0  0  0  0  0  0  0  0
   43.3313   24.3888   34.5749 H   0  0  0  0  0  0  0  0  0  0  0  0
   41.9708   24.7308   35.2535 H   0  0  0  0  0  0  0  0  0  0  0  0
   43.7649   24.7833   37.7625 H   0  0  0  0  0  0  0  0  0  0  0  0
   48.4033   24.6880   36.9131 H   0  0  0  0  0  0  0  0  0  0  0  0
  1  2  1  0
  1  9  1  0
  2  3  2  0
  3  4  1  0
  4  8  1  0
  5  4  2  0
  6  5  1  0
  7  6  2  0
  7  2  1  0
 10 12  1  0
 10  9  1  0
 11 10  1  0
 11 12  1  0
 13 12  1  0
 13 17  1  0
 14 15  1  0
 14 13  2  0
 15 16  1  0
 16 17  2  0
  1 18  1  0
  1 19  1  0
  3 20  1  0
  6 21  1  0
  8 22  1  0
  8 23  1  0
 10 24  1  6
 11 25  1  0
 11 26  1  0
 12 27  1  1
 16 28  1  0
M  ISO  8  18   8  19   8  20  14  21  14  24  13  25  13  26  13  27  13
M  ISO  1  28  14
M  END
>  <minimizedAffinity>  (1) 
-3.90912175

>  <minimizedRMSD>  (1) 
1.87976491

$$$$
