
     RDKit          3D

 35 38  0  0  0  0  0  0  0  0999 V2000
   38.6260   24.1550   35.5480 C   0  0  0  0  0  0  0  0  0  0  0  0
   39.9070   23.8610   35.0680 C   0  0  0  0  0  0  0  0  0  0  0  0
   40.4390   24.7060   34.0620 C   0  0  0  0  0  0  0  0  0  0  0  0
   39.6840   25.7400   33.6260 N   0  0  0  0  0  0  0  0  0  0  0  0
   38.4470   25.9900   34.1170 C   0  0  0  0  0  0  0  0  0  0  0  0
   37.9230   25.2110   35.0630 N   0  0  0  0  0  0  0  0  0  0  0  0
   37.6250   27.0740   33.6790 N   0  0  0  0  0  0  0  0  0  0  0  0
   36.5960   27.5950   34.3460 C   0  0  0  0  0  0  0  0  0  0  0  0
   35.9050   28.6440   33.7870 C   0  0  0  0  0  0  0  0  0  0  0  0
   36.2580   29.1440   32.5750 C   0  0  0  0  0  0  0  0  0  0  0  0
   35.6460   30.1060   32.0300 O   0  0  0  0  0  0  0  0  0  0  0  0
   37.2940   28.5990   31.9280 N   0  0  0  0  0  0  0  0  0  0  0  0
   37.9790   27.5710   32.4700 C   0  0  0  0  0  0  0  0  0  0  0  0
   38.9510   27.1320   31.7590 O   0  0  0  0  0  0  0  0  0  0  0  0
   37.6500   29.1330   30.6410 C   0  0  0  0  0  0  0  0  0  0  0  0
   38.7580   28.7200   29.9790 N   0  0  0  0  0  0  0  0  0  0  0  0
   38.8640   29.3340   28.8480 O   0  0  0  0  0  0  0  0  0  0  0  0
   37.8280   30.1370   28.7840 C   0  0  0  0  0  0  0  0  0  0  0  0
   37.0380   30.0390   29.8980 N   0  0  0  0  0  0  0  0  0  0  0  0
   37.5100   31.0340   27.7010 N   0  0  0  0  0  0  0  0  0  0  0  0
   37.9590   30.9840   26.4510 N   0  0  0  0  0  0  0  0  0  0  0  0
   37.4290   32.0000   25.7390 C   0  0  0  0  0  0  0  0  0  0  0  0
   36.6090   32.7100   26.6040 C   0  0  0  0  0  0  0  0  0  0  0  0
   36.6700   32.0830   27.8520 C   0  0  0  0  0  0  0  0  0  0  0  0
   38.0370   23.2810   36.6110 C   0  0  0  0  0  0  0  0  0  0  0  0
   38.9990   22.8240   37.5000 F   0  0  0  0  0  0  0  0  0  0  0  0
   37.1410   24.0280   37.3690 F   0  0  0  0  0  0  0  0  0  0  0  0
   37.3660   22.2400   36.0060 F   0  0  0  0  0  0  0  0  0  0  0  0
   40.4797   23.0061   35.4568 H   0  0  0  0  0  0  0  0  0  0  0  0
   41.4412   24.5253   33.6461 H   0  0  0  0  0  0  0  0  0  0  0  0
   36.3042   27.1927   35.3273 H   0  0  0  0  0  0  0  0  0  0  0  0
   35.0549   29.0840   34.3289 H   0  0  0  0  0  0  0  0  0  0  0  0
   37.6118   32.2225   24.6774 H   0  0  0  0  0  0  0  0  0  0  0  0
   36.0184   33.6036   26.3535 H   0  0  0  0  0  0  0  0  0  0  0  0
   36.1423   32.3820   28.7697 H   0  0  0  0  0  0  0  0  0  0  0  0
  1 25  1  0
  2  1  2  0
  3  2  1  0
  4  3  2  0
  4  5  1  0
  5  6  2  0
  6  1  1  0
  7  5  1  0
  7  8  1  0
  9  8  2  0
 10  9  1  0
 11 10  2  0
 12 13  1  0
 12 10  1  0
 13  7  1  0
 14 13  2  0
 15 12  1  0
 16 15  2  0
 17 16  1  0
 18 17  1  0
 18 19  2  0
 19 15  1  0
 20 24  1  0
 20 18  1  0
 21 20  1  0
 22 21  2  0
 22 23  1  0
 23 24  2  0
 25 27  1  0
 25 26  1  0
 28 25  1  0
  2 29  1  0
  3 30  1  0
  8 31  1  0
  9 32  1  0
 22 33  1  0
 23 34  1  0
 24 35  1  0
M  ISO  7  29  14  30  14  31  14  32  14  33  14  34  14  35  14
M  END
>  <minimizedAffinity>  (1) 
-5.73676491

>  <minimizedRMSD>  (1) 
1.17649496

$$$$
