
     RDKit          3D

 33 36  0  0  0  0  0  0  0  0999 V2000
   38.7280   23.7440   37.0720 C   0  0  0  0  0  0  0  0  0  0  0  0
   39.9870   23.1210   36.9510 C   0  0  0  0  0  0  0  0  0  0  0  0
   40.7870   23.4940   35.8510 C   0  0  0  0  0  0  0  0  0  0  0  0
   40.3150   24.4130   34.9840 N   0  0  0  0  0  0  0  0  0  0  0  0
   39.1150   24.9870   35.1250 C   0  0  0  0  0  0  0  0  0  0  0  0
   38.3290   24.6500   36.1670 N   0  0  0  0  0  0  0  0  0  0  0  0
   38.5560   25.9600   34.2490 N   0  0  0  0  0  0  0  0  0  0  0  0
   37.5500   26.7960   34.4880 C   0  0  0  0  0  0  0  0  0  0  0  0
   37.1380   27.6640   33.5250 C   0  0  0  0  0  0  0  0  0  0  0  0
   37.7530   27.6840   32.3060 C   0  0  0  0  0  0  0  0  0  0  0  0
   37.4020   28.4700   31.3920 O   0  0  0  0  0  0  0  0  0  0  0  0
   38.7650   26.8390   32.0720 N   0  0  0  0  0  0  0  0  0  0  0  0
   39.1630   25.9820   33.0410 C   0  0  0  0  0  0  0  0  0  0  0  0
   40.1460   25.2220   32.6910 O   0  0  0  0  0  0  0  0  0  0  0  0
   39.4000   26.8770   30.7860 C   0  0  0  0  0  0  0  0  0  0  0  0
   40.4790   26.1250   30.4980 N   0  0  0  0  0  0  0  0  0  0  0  0
   40.8740   26.3280   29.2820 O   0  0  0  0  0  0  0  0  0  0  0  0
   40.0310   27.2220   28.7890 C   0  0  0  0  0  0  0  0  0  0  0  0
   39.0990   27.5820   29.7110 N   0  0  0  0  0  0  0  0  0  0  0  0
   40.1700   27.6980   27.4180 C   0  0  0  0  0  0  0  0  0  0  0  0
   40.2360   26.8570   26.3750 N   0  0  0  0  0  0  0  0  0  0  0  0
   40.3580   27.5150   25.2750 O   0  0  0  0  0  0  0  0  0  0  0  0
   40.3740   28.7930   25.5580 C   0  0  0  0  0  0  0  0  0  0  0  0
   40.2580   28.9380   26.9040 N   0  0  0  0  0  0  0  0  0  0  0  0
   37.8350   23.3820   38.2270 C   0  0  0  0  0  0  0  0  0  0  0  0
   38.5420   22.6770   39.1980 F   0  0  0  0  0  0  0  0  0  0  0  0
   37.3500   24.5230   38.8150 F   0  0  0  0  0  0  0  0  0  0  0  0
   36.7790   22.6090   37.7390 F   0  0  0  0  0  0  0  0  0  0  0  0
   40.3307   22.3757   37.6834 H   0  0  0  0  0  0  0  0  0  0  0  0
   41.7793   23.0430   35.7027 H   0  0  0  0  0  0  0  0  0  0  0  0
   37.0494   26.7857   35.4674 H   0  0  0  0  0  0  0  0  0  0  0  0
   36.3053   28.3532   33.7293 H   0  0  0  0  0  0  0  0  0  0  0  0
   40.4659   29.6116   24.8290 H   0  0  0  0  0  0  0  0  0  0  0  0
  1 25  1  0
  2  1  2  0
  3  2  1  0
  4  5  1  0
  4  3  2  0
  5  6  2  0
  6  1  1  0
  7  8  1  0
  7  5  1  0
  9  8  2  0
 10  9  1  0
 11 10  2  0
 12 10  1  0
 12 13  1  0
 13  7  1  0
 14 13  2  0
 15 12  1  0
 16 15  2  0
 17 16  1  0
 18 17  1  0
 18 19  2  0
 19 15  1  0
 20 18  1  0
 21 20  2  0
 22 23  1  0
 22 21  1  0
 23 24  2  0
 24 20  1  0
 25 27  1  0
 25 26  1  0
 28 25  1  0
  2 29  1  0
  3 30  1  0
  8 31  1  0
  9 32  1  0
 23 33  1  0
M  ISO  5  29  14  30  14  31  14  32  14  33  14
M  END
>  <minimizedAffinity>  (1) 
-5.69293213

>  <minimizedRMSD>  (1) 
2.18793845

$$$$
