
     RDKit          3D

 34 37  0  0  0  0  0  0  0  0999 V2000
   38.6410   24.1760   36.2510 C   0  0  0  0  0  0  0  0  0  0  0  0
   39.9570   23.8220   35.8780 C   0  0  0  0  0  0  0  0  0  0  0  0
   40.5500   24.5570   34.8270 C   0  0  0  0  0  0  0  0  0  0  0  0
   39.8320   25.5420   34.2480 N   0  0  0  0  0  0  0  0  0  0  0  0
   38.5770   25.8490   34.6350 C   0  0  0  0  0  0  0  0  0  0  0  0
   37.9910   25.1740   35.6230 N   0  0  0  0  0  0  0  0  0  0  0  0
   37.7790   26.8840   34.0520 N   0  0  0  0  0  0  0  0  0  0  0  0
   36.7020   27.4740   34.5810 C   0  0  0  0  0  0  0  0  0  0  0  0
   36.0570   28.4590   33.8740 C   0  0  0  0  0  0  0  0  0  0  0  0
   36.5060   28.8340   32.6470 C   0  0  0  0  0  0  0  0  0  0  0  0
   35.9330   29.7300   31.9840 O   0  0  0  0  0  0  0  0  0  0  0  0
   37.5950   28.2220   32.1380 N   0  0  0  0  0  0  0  0  0  0  0  0
   38.2230   27.2630   32.8260 C   0  0  0  0  0  0  0  0  0  0  0  0
   39.2340   26.7700   32.2310 O   0  0  0  0  0  0  0  0  0  0  0  0
   38.0450   28.6520   30.8570 C   0  0  0  0  0  0  0  0  0  0  0  0
   39.1730   28.1920   30.3060 N   0  0  0  0  0  0  0  0  0  0  0  0
   39.3910   28.7350   29.1470 O   0  0  0  0  0  0  0  0  0  0  0  0
   38.3700   29.5640   28.9560 C   0  0  0  0  0  0  0  0  0  0  0  0
   37.5300   29.5220   30.0060 N   0  0  0  0  0  0  0  0  0  0  0  0
   38.2440   30.3740   27.7540 C   0  0  0  0  0  0  0  0  0  0  0  0
   39.3430   30.3760   26.7570 C   0  0  0  0  0  0  0  0  0  0  0  0
   38.7890   31.4890   25.4490 S   0  0  0  0  0  0  0  0  0  0  0  0
   37.1770   31.8050   26.3920 C   0  0  0  0  0  0  0  0  0  0  0  0
   37.3120   31.1700   27.3040 N   0  0  0  0  0  0  0  0  0  0  0  0
   37.9880   23.4130   37.3630 C   0  0  0  0  0  0  0  0  0  0  0  0
   38.9130   22.7020   38.1180 F   0  0  0  0  0  0  0  0  0  0  0  0
   37.3890   24.3130   38.2390 F   0  0  0  0  0  0  0  0  0  0  0  0
   37.0130   22.5970   36.8360 F   0  0  0  0  0  0  0  0  0  0  0  0
   40.4971   23.0085   36.3845 H   0  0  0  0  0  0  0  0  0  0  0  0
   41.5722   24.3317   34.4889 H   0  0  0  0  0  0  0  0  0  0  0  0
   36.3359   27.1731   35.5737 H   0  0  0  0  0  0  0  0  0  0  0  0
   35.1704   28.9481   34.3038 H   0  0  0  0  0  0  0  0  0  0  0  0
   40.2906   29.8194   26.8049 H   0  0  0  0  0  0  0  0  0  0  0  0
   36.3276   32.4467   26.1150 H   0  0  0  0  0  0  0  0  0  0  0  0
  1 25  1  0
  2  1  2  0
  3  2  1  0
  4  5  1  0
  4  3  2  0
  5  6  2  0
  6  1  1  0
  7  8  1  0
  7  5  1  0
  9  8  2  0
 10  9  1  0
 11 10  2  0
 12 10  1  0
 12 13  1  0
 13  7  1  0
 14 13  2  0
 15 12  1  0
 16 15  2  0
 17 16  1  0
 18 17  1  0
 18 19  2  0
 19 15  1  0
 20 18  1  0
 21 20  2  0
 22 23  1  0
 22 21  1  0
 23 24  2  0
 24 20  1  0
 25 26  1  0
 25 27  1  0
 28 25  1  0
  2 29  1  0
  3 30  1  0
  8 31  1  0
  9 32  1  0
 21 33  1  0
 23 34  1  0
M  ISO  6  29  14  30  14  31  14  32  14  33  14  34  14
M  END
>  <minimizedAffinity>  (1) 
-5.69273567

>  <minimizedRMSD>  (1) 
0.782904983

$$$$
