
     RDKit          3D

 34 36  0  0  0  0  0  0  0  0999 V2000
   38.6310   24.0550   36.7910 C   0  0  0  0  0  0  0  0  0  0  0  0
   39.8920   23.5780   36.4130 C   0  0  0  0  0  0  0  0  0  0  0  0
   40.5010   24.1820   35.2880 C   0  0  0  0  0  0  0  0  0  0  0  0
   39.8410   25.1680   34.6530 N   0  0  0  0  0  0  0  0  0  0  0  0
   38.6340   25.5990   35.0450 C   0  0  0  0  0  0  0  0  0  0  0  0
   38.0210   25.0500   36.1110 N   0  0  0  0  0  0  0  0  0  0  0  0
   37.9000   26.6360   34.4050 N   0  0  0  0  0  0  0  0  0  0  0  0
   36.8880   27.3470   34.9260 C   0  0  0  0  0  0  0  0  0  0  0  0
   36.2870   28.3200   34.1630 C   0  0  0  0  0  0  0  0  0  0  0  0
   36.7100   28.5600   32.9000 C   0  0  0  0  0  0  0  0  0  0  0  0
   36.1760   29.4480   32.1770 O   0  0  0  0  0  0  0  0  0  0  0  0
   37.7290   27.8400   32.3830 N   0  0  0  0  0  0  0  0  0  0  0  0
   38.3070   26.8930   33.1400 C   0  0  0  0  0  0  0  0  0  0  0  0
   39.2670   26.2670   32.5500 O   0  0  0  0  0  0  0  0  0  0  0  0
   38.1460   28.1190   31.0560 C   0  0  0  0  0  0  0  0  0  0  0  0
   39.2270   27.5320   30.5170 N   0  0  0  0  0  0  0  0  0  0  0  0
   39.4190   27.9360   29.2930 O   0  0  0  0  0  0  0  0  0  0  0  0
   38.4390   28.7990   29.0540 C   0  0  0  0  0  0  0  0  0  0  0  0
   37.6380   28.9240   30.1390 N   0  0  0  0  0  0  0  0  0  0  0  0
   37.9450   23.4390   37.9870 C   0  0  0  0  0  0  0  0  0  0  0  0
   38.8490   22.7200   38.7590 F   0  0  0  0  0  0  0  0  0  0  0  0
   37.4170   24.4330   38.7790 F   0  0  0  0  0  0  0  0  0  0  0  0
   36.9260   22.6150   37.5340 F   0  0  0  0  0  0  0  0  0  0  0  0
   38.2710   29.5150   27.7520 C   0  0  0  0  0  0  0  0  0  0  0  0
   37.6080   30.8360   28.0290 C   0  0  0  0  0  0  0  0  0  0  0  0
   40.3882   22.7678   36.9674 H   0  0  0  0  0  0  0  0  0  0  0  0
   41.4914   23.8532   34.9402 H   0  0  0  0  0  0  0  0  0  0  0  0
   36.5431   27.1533   35.9524 H   0  0  0  0  0  0  0  0  0  0  0  0
   35.4567   28.9074   34.5819 H   0  0  0  0  0  0  0  0  0  0  0  0
   37.6428   28.9168   27.0756 H   0  0  0  0  0  0  0  0  0  0  0  0
   39.2491   29.6717   27.2737 H   0  0  0  0  0  0  0  0  0  0  0  0
   37.5320   30.9874   29.1159 H   0  0  0  0  0  0  0  0  0  0  0  0
   38.2062   31.6463   27.5869 H   0  0  0  0  0  0  0  0  0  0  0  0
   36.6008   30.8406   27.5869 H   0  0  0  0  0  0  0  0  0  0  0  0
  1 20  1  0
  2  1  2  0
  3  2  1  0
  4  5  1  0
  4  3  2  0
  5  6  2  0
  6  1  1  0
  7  8  1  0
  7  5  1  0
  9  8  2  0
 10  9  1  0
 11 10  2  0
 12 10  1  0
 12 13  1  0
 13  7  1  0
 14 13  2  0
 15 12  1  0
 16 15  2  0
 17 16  1  0
 18 17  1  0
 18 19  2  0
 19 15  1  0
 20 21  1  0
 20 22  1  0
 23 20  1  0
 24 25  1  0
 24 18  1  0
  2 26  1  0
  3 27  1  0
  8 28  1  0
  9 29  1  0
 24 30  1  0
 24 31  1  0
 25 32  1  0
 25 33  1  0
 25 34  1  0
M  ISO  8  26  14  27  14  28  14  29  14  30   8  31   8  32   8  33   8
M  ISO  1  34   8
M  END
>  <minimizedAffinity>  (1) 
-5.68758249

>  <minimizedRMSD>  (1) 
0.701646984

$$$$
