
     RDKit          3D

 45 48  0  0  1  0  0  0  0  0999 V2000
   43.5400   23.3670   36.4790 C   0  0  1  0  0  0  0  0  0  0  0  0
   43.7410   24.7210   35.6620 C   0  0  0  0  0  0  0  0  0  0  0  0
   44.1960   24.5190   37.0650 C   0  0  2  0  0  0  0  0  0  0  0  0
   45.5700   24.5850   37.3350 N   0  0  0  0  0  0  0  0  0  0  0  0
   46.3900   24.6430   36.1690 C   0  0  0  0  0  0  0  0  0  0  0  0
   47.7780   24.9870   36.7340 C   0  0  0  0  0  0  0  0  0  0  0  0
   47.4530   25.9390   37.8540 C   0  0  0  0  0  0  0  0  0  0  0  0
   46.0200   25.6560   38.1920 C   0  0  2  0  0  0  0  0  0  0  0  0
   45.8390   25.4030   39.5370 O   0  0  0  0  0  0  0  0  0  0  0  0
   42.2250   23.2660   36.8080 O   0  0  0  0  0  0  0  0  0  0  0  0
   41.6010   22.1670   36.3670 C   0  0  0  0  0  0  0  0  0  0  0  0
   40.1490   22.3350   36.2830 C   0  0  0  0  0  0  0  0  0  0  0  0
   39.6530   22.9530   37.4430 C   0  0  0  0  0  0  0  0  0  0  0  0
   38.2640   23.2100   37.5390 C   0  0  0  0  0  0  0  0  0  0  0  0
   37.4570   22.8270   36.4580 N   0  0  0  0  0  0  0  0  0  0  0  0
   38.0000   22.2300   35.3550 C   0  0  0  0  0  0  0  0  0  0  0  0
   39.3390   21.9940   35.2880 N   0  0  0  0  0  0  0  0  0  0  0  0
   37.6000   23.8140   38.6100 N   0  0  0  0  0  0  0  0  0  0  0  0
   37.1400   21.8420   34.2440 C   0  0  0  0  0  0  0  0  0  0  0  0
   36.1970   20.8520   34.4270 C   0  0  0  0  0  0  0  0  0  0  0  0
   35.3450   20.4380   33.3980 C   0  0  0  0  0  0  0  0  0  0  0  0
   35.5070   21.0920   32.1710 C   0  0  0  0  0  0  0  0  0  0  0  0
   36.4600   22.0770   32.0220 C   0  0  0  0  0  0  0  0  0  0  0  0
   37.2670   22.4430   33.0600 N   0  0  0  0  0  0  0  0  0  0  0  0
   43.8035   22.3029   36.3883 H   0  0  0  0  0  0  0  0  0  0  0  0
   44.4686   24.7766   34.8389 H   0  0  0  0  0  0  0  0  0  0  0  0
   43.0995   25.4337   35.1230 H   0  0  0  0  0  0  0  0  0  0  0  0
   44.0118   25.0271   38.0231 H   0  0  0  0  0  0  0  0  0  0  0  0
   46.4049   23.6741   35.6484 H   0  0  0  0  0  0  0  0  0  0  0  0
   46.0334   25.3716   35.4260 H   0  0  0  0  0  0  0  0  0  0  0  0
   48.2861   24.0878   37.1126 H   0  0  0  0  0  0  0  0  0  0  0  0
   48.4613   25.4123   35.9842 H   0  0  0  0  0  0  0  0  0  0  0  0
   48.1007   25.7509   38.7229 H   0  0  0  0  0  0  0  0  0  0  0  0
   47.6128   26.9887   37.5668 H   0  0  0  0  0  0  0  0  0  0  0  0
   45.4005   26.5454   38.0046 H   0  0  0  0  0  0  0  0  0  0  0  0
   46.3249   26.0821   40.0688 H   0  0  0  0  0  0  0  0  0  0  0  0
   41.9852   21.9225   35.3657 H   0  0  0  0  0  0  0  0  0  0  0  0
   41.8003   21.3607   37.0882 H   0  0  0  0  0  0  0  0  0  0  0  0
   40.3318   23.2323   38.2623 H   0  0  0  0  0  0  0  0  0  0  0  0
   36.5800   23.9517   38.5719 H   0  0  0  0  0  0  0  0  0  0  0  0
   38.1306   24.1214   39.4375 H   0  0  0  0  0  0  0  0  0  0  0  0
   36.1124   20.3729   35.4136 H   0  0  0  0  0  0  0  0  0  0  0  0
   34.5941   19.6475   33.5439 H   0  0  0  0  0  0  0  0  0  0  0  0
   34.8684   20.8176   31.3184 H   0  0  0  0  0  0  0  0  0  0  0  0
   36.5720   22.5771   31.0487 H   0  0  0  0  0  0  0  0  0  0  0  0
  1 10  1  0
  1  3  1  0
  2  1  1  0
  2  3  1  0
  3  4  1  0
  4  5  1  0
  4  8  1  0
  5  6  1  0
  6  7  1  0
  7  8  1  0
  8  9  1  0
 11 10  1  0
 12 11  1  0
 12 13  2  0
 13 14  1  0
 14 18  1  0
 15 14  2  0
 16 15  1  0
 17 16  2  0
 17 12  1  0
 19 20  2  0
 19 16  1  0
 21 20  1  0
 22 21  2  0
 23 22  1  0
 23 24  2  0
 24 19  1  0
  1 25  1  6
  2 26  1  0
  2 27  1  0
  3 28  1  1
  5 29  1  0
  5 30  1  0
  6 31  1  0
  6 32  1  0
  7 33  1  0
  7 34  1  0
  8 35  1  6
  9 36  1  0
 11 37  1  0
 11 38  1  0
 13 39  1  0
 18 40  1  0
 18 41  1  0
 20 42  1  0
 21 43  1  0
 22 44  1  0
 23 45  1  0
M  ISO  8  25  13  26  13  27  13  28  13  29  13  30  13  31  13  32  13
M  ISO  8  33  13  34  13  35  13  36   3  37   8  38   8  39  14  42  14
M  ISO  3  43  14  44  14  45  14
M  END
>  <minimizedAffinity>  (1) 
-5.71635056

>  <minimizedRMSD>  (1) 
0.590116024

$$$$
