
     RDKit          3D

 51 54  0  0  1  0  0  0  0  0999 V2000
   43.2510   23.8360   35.4160 C   0  0  1  0  0  0  0  0  0  0  0  0
   43.6640   25.3630   35.2100 C   0  0  0  0  0  0  0  0  0  0  0  0
   43.5670   24.6980   36.5370 C   0  0  2  0  0  0  0  0  0  0  0  0
   44.7350   24.5860   37.3080 N   0  0  0  0  0  0  0  0  0  0  0  0
   45.8500   24.0530   36.6010 C   0  0  0  0  0  0  0  0  0  0  0  0
   47.0270   24.3130   37.5530 C   0  0  0  0  0  0  0  0  0  0  0  0
   46.6950   25.6920   38.1050 C   0  0  0  0  0  0  0  0  0  0  0  0
   45.1990   25.7790   37.9720 C   0  0  2  0  0  0  0  0  0  0  0  0
   44.5410   26.0420   39.1570 O   0  0  0  0  0  0  0  0  0  0  0  0
   41.9240   23.7370   35.1590 O   0  0  0  0  0  0  0  0  0  0  0  0
   41.4720   22.4890   34.9430 C   0  0  0  0  0  0  0  0  0  0  0  0
   40.0220   22.3950   35.2620 C   0  0  0  0  0  0  0  0  0  0  0  0
   39.7510   22.7530   36.5750 C   0  0  0  0  0  0  0  0  0  0  0  0
   38.4150   22.7200   37.0060 C   0  0  0  0  0  0  0  0  0  0  0  0
   37.4250   22.3250   36.0800 N   0  0  0  0  0  0  0  0  0  0  0  0
   37.7670   21.9890   34.8130 C   0  0  0  0  0  0  0  0  0  0  0  0
   39.0490   22.0240   34.4130 N   0  0  0  0  0  0  0  0  0  0  0  0
   37.9540   23.0490   38.2910 N   0  0  0  0  0  0  0  0  0  0  0  0
   36.7460   21.5960   33.9080 N   0  0  0  0  0  0  0  0  0  0  0  0
   35.7080   20.6700   34.3110 C   0  0  0  0  0  0  0  0  0  0  0  0
   35.4790   19.6560   33.2140 C   0  0  0  0  0  0  0  0  0  0  0  0
   35.1550   20.2940   31.9010 C   0  0  0  0  0  0  0  0  0  0  0  0
   35.4380   21.7730   31.8450 C   0  0  0  0  0  0  0  0  0  0  0  0
   36.7150   22.1140   32.5540 C   0  0  0  0  0  0  0  0  0  0  0  0
   43.5905   22.8359   35.1084 H   0  0  0  0  0  0  0  0  0  0  0  0
   44.6437   25.6266   34.7850 H   0  0  0  0  0  0  0  0  0  0  0  0
   43.2319   26.2512   34.7258 H   0  0  0  0  0  0  0  0  0  0  0  0
   43.0039   24.8867   37.4629 H   0  0  0  0  0  0  0  0  0  0  0  0
   45.7221   22.9761   36.4171 H   0  0  0  0  0  0  0  0  0  0  0  0
   45.9891   24.5080   35.6092 H   0  0  0  0  0  0  0  0  0  0  0  0
   47.0651   23.5609   38.3548 H   0  0  0  0  0  0  0  0  0  0  0  0
   48.0109   24.2580   37.0642 H   0  0  0  0  0  0  0  0  0  0  0  0
   47.0007   25.7769   39.1583 H   0  0  0  0  0  0  0  0  0  0  0  0
   47.2178   26.5009   37.5737 H   0  0  0  0  0  0  0  0  0  0  0  0
   44.9512   26.6570   37.3575 H   0  0  0  0  0  0  0  0  0  0  0  0
   45.1276   25.8075   39.9193 H   0  0  0  0  0  0  0  0  0  0  0  0
   41.6275   22.2260   33.8863 H   0  0  0  0  0  0  0  0  0  0  0  0
   42.0240   21.7943   35.5931 H   0  0  0  0  0  0  0  0  0  0  0  0
   40.5590   23.0538   37.2581 H   0  0  0  0  0  0  0  0  0  0  0  0
   36.9487   22.9919   38.5077 H   0  0  0  0  0  0  0  0  0  0  0  0
   38.6212   23.3474   39.0168 H   0  0  0  0  0  0  0  0  0  0  0  0
   36.0171   20.1511   35.2304 H   0  0  0  0  0  0  0  0  0  0  0  0
   34.7761   21.2242   34.4964 H   0  0  0  0  0  0  0  0  0  0  0  0
   36.3906   19.0516   33.0968 H   0  0  0  0  0  0  0  0  0  0  0  0
   34.6175   19.0375   33.5060 H   0  0  0  0  0  0  0  0  0  0  0  0
   35.7517   19.7990   31.1206 H   0  0  0  0  0  0  0  0  0  0  0  0
   34.0720   20.1740   31.7506 H   0  0  0  0  0  0  0  0  0  0  0  0
   35.5197   22.0820   30.7925 H   0  0  0  0  0  0  0  0  0  0  0  0
   34.6131   22.3021   32.3447 H   0  0  0  0  0  0  0  0  0  0  0  0
   37.5576   21.6854   31.9916 H   0  0  0  0  0  0  0  0  0  0  0  0
   36.7870   23.2102   32.6105 H   0  0  0  0  0  0  0  0  0  0  0  0
  1  3  1  0
  2  1  1  0
  2  3  1  0
  3  4  1  0
  4  5  1  0
  4  8  1  0
  5  6  1  0
  6  7  1  0
  8  7  1  0
  8  9  1  0
 10  1  1  0
 11 10  1  0
 11 12  1  0
 12 13  2  0
 13 14  1  0
 14 18  1  0
 15 14  2  0
 16 15  1  0
 17 16  2  0
 17 12  1  0
 19 20  1  0
 19 16  1  0
 21 20  1  0
 22 21  1  0
 23 22  1  0
 23 24  1  0
 24 19  1  0
  1 25  1  6
  2 26  1  0
  2 27  1  0
  3 28  1  1
  5 29  1  0
  5 30  1  0
  6 31  1  0
  6 32  1  0
  7 33  1  0
  7 34  1  0
  8 35  1  6
  9 36  1  0
 11 37  1  0
 11 38  1  0
 13 39  1  0
 18 40  1  0
 18 41  1  0
 20 42  1  0
 20 43  1  0
 21 44  1  0
 21 45  1  0
 22 46  1  0
 22 47  1  0
 23 48  1  0
 23 49  1  0
 24 50  1  0
 24 51  1  0
M  ISO  8  25  13  26  13  27  13  28  13  29  13  30  13  31  13  32  13
M  ISO  8  33  13  34  13  35  13  36   3  37   8  38   8  39  14  42  13
M  ISO  8  43  13  44  13  45  13  46  13  47  13  48  13  49  13  50  13
M  ISO  1  51  13
M  END
>  <minimizedAffinity>  (1) 
-6.15852118

>  <minimizedRMSD>  (1) 
1.09674847

$$$$
