
     RDKit          3D

 50 53  0  0  1  0  0  0  0  0999 V2000
   44.1990   23.4840   35.5500 C   0  0  1  0  0  0  0  0  0  0  0  0
   44.2430   25.0630   35.3210 C   0  0  0  0  0  0  0  0  0  0  0  0
   44.0860   24.4160   36.6530 C   0  0  2  0  0  0  0  0  0  0  0  0
   45.0920   24.6210   37.6100 N   0  0  0  0  0  0  0  0  0  0  0  0
   46.3680   24.1140   37.2270 C   0  0  0  0  0  0  0  0  0  0  0  0
   47.3120   24.7070   38.2850 C   0  0  0  0  0  0  0  0  0  0  0  0
   46.7430   26.0840   38.4980 C   0  0  0  0  0  0  0  0  0  0  0  0
   45.3130   25.9750   38.0530 C   0  0  2  0  0  0  0  0  0  0  0  0
   44.4190   26.3970   39.0150 O   0  0  0  0  0  0  0  0  0  0  0  0
   43.0020   23.0330   35.0960 O   0  0  0  0  0  0  0  0  0  0  0  0
   42.2450   22.3850   35.9930 C   0  0  0  0  0  0  0  0  0  0  0  0
   40.9580   23.0360   36.2140 C   0  0  0  0  0  0  0  0  0  0  0  0
   40.3580   22.5900   37.3960 C   0  0  0  0  0  0  0  0  0  0  0  0
   39.1010   23.1180   37.7800 C   0  0  0  0  0  0  0  0  0  0  0  0
   38.5230   24.0730   36.9310 N   0  0  0  0  0  0  0  0  0  0  0  0
   39.1480   24.4690   35.7970 C   0  0  0  0  0  0  0  0  0  0  0  0
   40.3570   23.9490   35.4480 N   0  0  0  0  0  0  0  0  0  0  0  0
   38.3680   22.7870   38.9210 N   0  0  0  0  0  0  0  0  0  0  0  0
   38.5420   25.4370   34.9550 N   0  0  0  0  0  0  0  0  0  0  0  0
   37.4300   26.2540   35.4040 C   0  0  0  0  0  0  0  0  0  0  0  0
   36.9940   27.1480   34.2530 C   0  0  0  0  0  0  0  0  0  0  0  0
   36.8120   26.4310   33.0330 N   0  0  0  0  0  0  0  0  0  0  0  0
   37.7930   25.4440   32.7220 C   0  0  0  0  0  0  0  0  0  0  0  0
   39.0090   25.6540   33.6000 C   0  0  0  0  0  0  0  0  0  0  0  0
   44.8301   22.6037   35.3581 H   0  0  0  0  0  0  0  0  0  0  0  0
   45.1833   25.5644   35.0481 H   0  0  0  0  0  0  0  0  0  0  0  0
   43.6927   25.8009   34.7188 H   0  0  0  0  0  0  0  0  0  0  0  0
   43.3403   24.4681   37.4600 H   0  0  0  0  0  0  0  0  0  0  0  0
   46.3813   23.0145   37.2580 H   0  0  0  0  0  0  0  0  0  0  0  0
   46.6487   24.3834   36.1981 H   0  0  0  0  0  0  0  0  0  0  0  0
   47.2866   24.1188   39.2142 H   0  0  0  0  0  0  0  0  0  0  0  0
   48.3675   24.7129   37.9754 H   0  0  0  0  0  0  0  0  0  0  0  0
   46.7990   26.3676   39.5593 H   0  0  0  0  0  0  0  0  0  0  0  0
   47.2959   26.8549   37.9412 H   0  0  0  0  0  0  0  0  0  0  0  0
   45.1284   26.6610   37.2131 H   0  0  0  0  0  0  0  0  0  0  0  0
   44.7938   26.2201   39.9141 H   0  0  0  0  0  0  0  0  0  0  0  0
   42.0651   21.3625   35.6294 H   0  0  0  0  0  0  0  0  0  0  0  0
   42.7877   22.3850   36.9498 H   0  0  0  0  0  0  0  0  0  0  0  0
   40.8578   21.8360   38.0218 H   0  0  0  0  0  0  0  0  0  0  0  0
   37.4594   23.2385   39.0983 H   0  0  0  0  0  0  0  0  0  0  0  0
   38.7358   22.0913   39.5855 H   0  0  0  0  0  0  0  0  0  0  0  0
   36.5939   25.6077   35.7094 H   0  0  0  0  0  0  0  0  0  0  0  0
   37.7358   26.8680   36.2639 H   0  0  0  0  0  0  0  0  0  0  0  0
   36.0424   27.6292   34.5230 H   0  0  0  0  0  0  0  0  0  0  0  0
   37.7924   27.8862   34.0868 H   0  0  0  0  0  0  0  0  0  0  0  0
   35.8977   25.9591   33.0809 H   0  0  0  0  0  0  0  0  0  0  0  0
   37.3769   24.4421   32.9038 H   0  0  0  0  0  0  0  0  0  0  0  0
   38.0822   25.5318   31.6643 H   0  0  0  0  0  0  0  0  0  0  0  0
   39.7988   24.9324   33.3440 H   0  0  0  0  0  0  0  0  0  0  0  0
   39.4414   26.6571   33.4701 H   0  0  0  0  0  0  0  0  0  0  0  0
  1  3  1  0
  2  1  1  0
  2  3  1  0
  3  4  1  0
  4  5  1  0
  4  8  1  0
  5  6  1  0
  6  7  1  0
  8  7  1  0
  8  9  1  0
 10  1  1  0
 10 11  1  0
 11 12  1  0
 12 13  2  0
 13 14  1  0
 14 18  1  0
 15 14  2  0
 16 15  1  0
 17 16  2  0
 17 12  1  0
 19 20  1  0
 19 16  1  0
 21 20  1  0
 22 21  1  0
 23 22  1  0
 23 24  1  0
 24 19  1  0
  1 25  1  1
  2 26  1  0
  2 27  1  0
  3 28  1  1
  5 29  1  0
  5 30  1  0
  6 31  1  0
  6 32  1  0
  7 33  1  0
  7 34  1  0
  8 35  1  6
  9 36  1  0
 11 37  1  0
 11 38  1  0
 13 39  1  0
 18 40  1  0
 18 41  1  0
 20 42  1  0
 20 43  1  0
 21 44  1  0
 21 45  1  0
 22 46  1  0
 23 47  1  0
 23 48  1  0
 24 49  1  0
 24 50  1  0
M  ISO  8  25  13  26  13  27  13  28  13  29  13  30  13  31  13  32  13
M  ISO  8  33  13  34  13  35  13  36   3  37   8  38   8  39  14  42  13
M  ISO  8  43  13  44  13  45  13  46   5  47  13  48  13  49  13  50  13
M  END
>  <minimizedAffinity>  (1) 
-5.88365459

>  <minimizedRMSD>  (1) 
3.10408092

$$$$
