
     RDKit          3D

 41 44  0  0  1  0  0  0  0  0999 V2000
   43.4800   23.3940   36.4820 C   0  0  1  0  0  0  0  0  0  0  0  0
   43.8580   24.6200   35.5390 C   0  0  0  0  0  0  0  0  0  0  0  0
   44.1850   24.5570   36.9900 C   0  0  2  0  0  0  0  0  0  0  0  0
   45.5400   24.5420   37.3620 N   0  0  0  0  0  0  0  0  0  0  0  0
   46.4410   24.4510   36.2620 C   0  0  0  0  0  0  0  0  0  0  0  0
   47.8070   24.7270   36.9130 C   0  0  0  0  0  0  0  0  0  0  0  0
   47.4720   25.8180   37.9110 C   0  0  0  0  0  0  0  0  0  0  0  0
   46.0060   25.6390   38.1740 C   0  0  2  0  0  0  0  0  0  0  0  0
   45.7100   25.5080   39.5120 O   0  0  0  0  0  0  0  0  0  0  0  0
   42.1440   23.4250   36.7080 O   0  0  0  0  0  0  0  0  0  0  0  0
   41.5070   22.2510   36.6260 C   0  0  0  0  0  0  0  0  0  0  0  0
   40.0590   22.3960   36.6370 C   0  0  0  0  0  0  0  0  0  0  0  0
   39.6270   23.2190   37.6850 C   0  0  0  0  0  0  0  0  0  0  0  0
   38.2500   23.4850   37.8360 C   0  0  0  0  0  0  0  0  0  0  0  0
   37.3770   22.8970   36.9070 N   0  0  0  0  0  0  0  0  0  0  0  0
   37.8470   22.1000   35.9010 C   0  0  0  0  0  0  0  0  0  0  0  0
   39.1880   21.8630   35.7840 N   0  0  0  0  0  0  0  0  0  0  0  0
   37.6460   24.2750   38.8080 N   0  0  0  0  0  0  0  0  0  0  0  0
   36.8840   21.5190   34.9700 C   0  0  0  0  0  0  0  0  0  0  0  0
   35.7650   20.7810   35.0900 N   0  0  0  0  0  0  0  0  0  0  0  0
   35.2780   20.5260   33.9090 O   0  0  0  0  0  0  0  0  0  0  0  0
   36.0630   21.0890   32.9990 C   0  0  0  0  0  0  0  0  0  0  0  0
   37.0890   21.7250   33.6360 N   0  0  0  0  0  0  0  0  0  0  0  0
   43.6587   22.3098   36.5334 H   0  0  0  0  0  0  0  0  0  0  0  0
   44.6493   24.5212   34.7813 H   0  0  0  0  0  0  0  0  0  0  0  0
   43.3225   25.3085   34.8688 H   0  0  0  0  0  0  0  0  0  0  0  0
   43.9716   25.1910   37.8632 H   0  0  0  0  0  0  0  0  0  0  0  0
   46.4134   23.4487   35.8097 H   0  0  0  0  0  0  0  0  0  0  0  0
   46.2006   25.1471   35.4449 H   0  0  0  0  0  0  0  0  0  0  0  0
   48.1965   23.8307   37.4178 H   0  0  0  0  0  0  0  0  0  0  0  0
   48.5892   25.0116   36.1939 H   0  0  0  0  0  0  0  0  0  0  0  0
   48.0527   25.6916   38.8367 H   0  0  0  0  0  0  0  0  0  0  0  0
   47.7126   26.8227   37.5333 H   0  0  0  0  0  0  0  0  0  0  0  0
   45.4625   26.5506   37.8849 H   0  0  0  0  0  0  0  0  0  0  0  0
   46.4686   25.8437   40.0522 H   0  0  0  0  0  0  0  0  0  0  0  0
   41.8049   21.6284   37.4825 H   0  0  0  0  0  0  0  0  0  0  0  0
   41.7873   21.7869   35.6689 H   0  0  0  0  0  0  0  0  0  0  0  0
   40.3557   23.6543   38.3846 H   0  0  0  0  0  0  0  0  0  0  0  0
   36.6228   24.3930   38.8131 H   0  0  0  0  0  0  0  0  0  0  0  0
   38.2218   24.7422   39.5229 H   0  0  0  0  0  0  0  0  0  0  0  0
   35.9116   21.0496   31.9102 H   0  0  0  0  0  0  0  0  0  0  0  0
  1 10  1  0
  1  3  1  0
  2  1  1  0
  2  3  1  0
  3  4  1  0
  4  5  1  0
  4  8  1  0
  5  6  1  0
  6  7  1  0
  7  8  1  0
  8  9  1  0
 11 12  1  0
 11 10  1  0
 12 13  2  0
 13 14  1  0
 14 18  1  0
 15 14  2  0
 16 15  1  0
 17 16  2  0
 17 12  1  0
 19 20  2  0
 19 16  1  0
 21 20  1  0
 22 23  2  0
 22 21  1  0
 23 19  1  0
  1 24  1  6
  2 25  1  0
  2 26  1  0
  3 27  1  1
  5 28  1  0
  5 29  1  0
  6 30  1  0
  6 31  1  0
  7 32  1  0
  7 33  1  0
  8 34  1  6
  9 35  1  0
 11 36  1  0
 11 37  1  0
 13 38  1  0
 18 39  1  0
 18 40  1  0
 22 41  1  0
M  ISO  8  24  13  25  13  26  13  27  13  28  13  29  13  30  13  31  13
M  ISO  8  32  13  33  13  34  13  35   3  36   8  37   8  38  14  41  14
M  END
>  <minimizedAffinity>  (1) 
-5.37040138

>  <minimizedRMSD>  (1) 
0.226505861

$$$$
