
     RDKit          3D

 44 47  0  0  1  0  0  0  0  0999 V2000
   43.9400   24.0340   35.1910 C   0  0  1  0  0  0  0  0  0  0  0  0
   44.0400   25.6180   35.3090 C   0  0  0  0  0  0  0  0  0  0  0  0
   43.8880   24.7050   36.4740 C   0  0  2  0  0  0  0  0  0  0  0  0
   44.9260   24.6660   37.4200 N   0  0  0  0  0  0  0  0  0  0  0  0
   46.1650   24.1920   36.9040 C   0  0  0  0  0  0  0  0  0  0  0  0
   47.1590   24.5140   38.0320 C   0  0  0  0  0  0  0  0  0  0  0  0
   46.6660   25.8750   38.5080 C   0  0  0  0  0  0  0  0  0  0  0  0
   45.2160   25.8920   38.1230 C   0  0  2  0  0  0  0  0  0  0  0  0
   44.3730   26.1190   39.1940 O   0  0  0  0  0  0  0  0  0  0  0  0
   42.7190   23.7330   34.6850 O   0  0  0  0  0  0  0  0  0  0  0  0
   42.3080   22.4700   34.8860 C   0  0  0  0  0  0  0  0  0  0  0  0
   40.8790   22.4390   35.2970 C   0  0  0  0  0  0  0  0  0  0  0  0
   40.7160   22.6790   36.6480 C   0  0  0  0  0  0  0  0  0  0  0  0
   39.4150   22.6870   37.1700 C   0  0  0  0  0  0  0  0  0  0  0  0
   38.3450   22.4500   36.2890 N   0  0  0  0  0  0  0  0  0  0  0  0
   38.5740   22.2170   34.9610 C   0  0  0  0  0  0  0  0  0  0  0  0
   39.8440   22.2140   34.4770 N   0  0  0  0  0  0  0  0  0  0  0  0
   39.0440   22.9080   38.5040 N   0  0  0  0  0  0  0  0  0  0  0  0
   37.4490   21.9730   34.0680 C   0  0  0  0  0  0  0  0  0  0  0  0
   37.3450   22.6830   32.8900 C   0  0  0  0  0  0  0  0  0  0  0  0
   36.2320   22.3810   32.1000 C   0  0  0  0  0  0  0  0  0  0  0  0
   35.3130   21.4720   32.4290 N   0  0  0  0  0  0  0  0  0  0  0  0
   35.4580   20.8040   33.5880 C   0  0  0  0  0  0  0  0  0  0  0  0
   36.5240   21.0560   34.4030 N   0  0  0  0  0  0  0  0  0  0  0  0
   44.5320   23.1963   34.7937 H   0  0  0  0  0  0  0  0  0  0  0  0
   44.9928   26.1351   35.1224 H   0  0  0  0  0  0  0  0  0  0  0  0
   43.5051   26.4867   34.8976 H   0  0  0  0  0  0  0  0  0  0  0  0
   43.1639   24.6037   37.2958 H   0  0  0  0  0  0  0  0  0  0  0  0
   46.1241   23.1099   36.7108 H   0  0  0  0  0  0  0  0  0  0  0  0
   46.4376   24.6527   35.9431 H   0  0  0  0  0  0  0  0  0  0  0  0
   47.1067   23.7659   38.8367 H   0  0  0  0  0  0  0  0  0  0  0  0
   48.2112   24.5102   37.7111 H   0  0  0  0  0  0  0  0  0  0  0  0
   46.7823   25.9737   39.5974 H   0  0  0  0  0  0  0  0  0  0  0  0
   47.2311   26.7082   38.0648 H   0  0  0  0  0  0  0  0  0  0  0  0
   45.0257   26.7457   37.4560 H   0  0  0  0  0  0  0  0  0  0  0  0
   44.8703   25.9851   40.0395 H   0  0  0  0  0  0  0  0  0  0  0  0
   42.4275   21.8991   33.9534 H   0  0  0  0  0  0  0  0  0  0  0  0
   42.9154   22.0248   35.6878 H   0  0  0  0  0  0  0  0  0  0  0  0
   41.5853   22.8592   37.2975 H   0  0  0  0  0  0  0  0  0  0  0  0
   38.0496   22.8899   38.7718 H   0  0  0  0  0  0  0  0  0  0  0  0
   39.7659   23.0884   39.2162 H   0  0  0  0  0  0  0  0  0  0  0  0
   38.0886   23.4369   32.5920 H   0  0  0  0  0  0  0  0  0  0  0  0
   36.1068   22.9246   31.1519 H   0  0  0  0  0  0  0  0  0  0  0  0
   34.7127   20.0498   33.8808 H   0  0  0  0  0  0  0  0  0  0  0  0
  1  2  1  0
  1  3  1  0
  2  3  1  0
  3  4  1  0
  4  5  1  0
  4  8  1  0
  5  6  1  0
  6  7  1  0
  8  7  1  0
  8  9  1  0
 10 11  1  0
 10  1  1  0
 11 12  1  0
 12 13  2  0
 13 14  1  0
 14 18  1  0
 15 14  2  0
 16 15  1  0
 17 16  2  0
 17 12  1  0
 19 24  1  0
 19 16  1  0
 20 19  2  0
 21 22  2  0
 21 20  1  0
 22 23  1  0
 23 24  2  0
  1 25  1  1
  2 26  1  0
  2 27  1  0
  3 28  1  1
  5 29  1  0
  5 30  1  0
  6 31  1  0
  6 32  1  0
  7 33  1  0
  7 34  1  0
  8 35  1  6
  9 36  1  0
 11 37  1  0
 11 38  1  0
 13 39  1  0
 18 40  1  0
 18 41  1  0
 20 42  1  0
 21 43  1  0
 23 44  1  0
M  ISO  8  25  13  26  13  27  13  28  13  29  13  30  13  31  13  32  13
M  ISO  8  33  13  34  13  35  13  36   3  37   8  38   8  39  14  42  14
M  ISO  2  43  14  44  14
M  END
>  <minimizedAffinity>  (1) 
-5.56595325

>  <minimizedRMSD>  (1) 
1.41376555

$$$$
