
     RDKit          3D

 52 55  0  0  1  0  0  0  0  0999 V2000
   43.3150   23.9960   35.2790 C   0  0  1  0  0  0  0  0  0  0  0  0
   43.7750   25.5200   35.1590 C   0  0  0  0  0  0  0  0  0  0  0  0
   43.6080   24.7970   36.4490 C   0  0  2  0  0  0  0  0  0  0  0  0
   44.7420   24.6190   37.2580 N   0  0  0  0  0  0  0  0  0  0  0  0
   45.8650   24.0810   36.5720 C   0  0  0  0  0  0  0  0  0  0  0  0
   47.0180   24.2690   37.5660 C   0  0  0  0  0  0  0  0  0  0  0  0
   46.7030   25.6030   38.1830 C   0  0  0  0  0  0  0  0  0  0  0  0
   45.2240   25.7740   37.9760 C   0  0  2  0  0  0  0  0  0  0  0  0
   44.5300   26.0290   39.1420 O   0  0  0  0  0  0  0  0  0  0  0  0
   41.9960   23.9340   34.9740 O   0  0  0  0  0  0  0  0  0  0  0  0
   41.5520   22.7560   34.5240 C   0  0  0  0  0  0  0  0  0  0  0  0
   40.1290   22.5530   34.7900 C   0  0  0  0  0  0  0  0  0  0  0  0
   39.8450   22.7150   36.1510 C   0  0  0  0  0  0  0  0  0  0  0  0
   38.5140   22.5720   36.6050 C   0  0  0  0  0  0  0  0  0  0  0  0
   37.5310   22.2670   35.6400 N   0  0  0  0  0  0  0  0  0  0  0  0
   37.8720   22.1190   34.3240 C   0  0  0  0  0  0  0  0  0  0  0  0
   39.1600   22.2620   33.9150 N   0  0  0  0  0  0  0  0  0  0  0  0
   38.0430   22.6960   37.9050 N   0  0  0  0  0  0  0  0  0  0  0  0
   36.8270   21.7990   33.3350 C   0  0  0  0  0  0  0  0  0  0  0  0
   35.8690   20.7540   33.8410 C   0  0  0  0  0  0  0  0  0  0  0  0
   35.2960   19.9510   32.6940 C   0  0  0  0  0  0  0  0  0  0  0  0
   36.3410   19.0220   32.1210 C   0  0  0  0  0  0  0  0  0  0  0  0
   37.6850   19.7320   32.2080 C   0  0  0  0  0  0  0  0  0  0  0  0
   37.5030   21.2310   32.0900 C   0  0  0  0  0  0  0  0  0  0  0  0
   43.6425   23.0040   34.9344 H   0  0  0  0  0  0  0  0  0  0  0  0
   44.7773   25.7758   34.7848 H   0  0  0  0  0  0  0  0  0  0  0  0
   43.3856   26.4408   34.7002 H   0  0  0  0  0  0  0  0  0  0  0  0
   43.0131   24.9580   37.3602 H   0  0  0  0  0  0  0  0  0  0  0  0
   45.7127   23.0157   36.3439 H   0  0  0  0  0  0  0  0  0  0  0  0
   46.0501   24.5708   35.6046 H   0  0  0  0  0  0  0  0  0  0  0  0
   47.0230   23.4719   38.3240 H   0  0  0  0  0  0  0  0  0  0  0  0
   48.0120   24.2272   37.0968 H   0  0  0  0  0  0  0  0  0  0  0  0
   46.9480   25.6029   39.2554 H   0  0  0  0  0  0  0  0  0  0  0  0
   47.2855   26.4201   37.7324 H   0  0  0  0  0  0  0  0  0  0  0  0
   45.0417   26.6776   37.3758 H   0  0  0  0  0  0  0  0  0  0  0  0
   45.1040   25.8181   39.9205 H   0  0  0  0  0  0  0  0  0  0  0  0
   42.1205   21.9536   35.0168 H   0  0  0  0  0  0  0  0  0  0  0  0
   41.6925   22.7416   33.4331 H   0  0  0  0  0  0  0  0  0  0  0  0
   40.6509   22.9516   36.8614 H   0  0  0  0  0  0  0  0  0  0  0  0
   37.0408   22.5665   38.1042 H   0  0  0  0  0  0  0  0  0  0  0  0
   38.6958   22.9175   38.6703 H   0  0  0  0  0  0  0  0  0  0  0  0
   36.2666   22.7224   33.1269 H   0  0  0  0  0  0  0  0  0  0  0  0
   36.4019   20.0768   34.5247 H   0  0  0  0  0  0  0  0  0  0  0  0
   35.0438   21.2567   34.3667 H   0  0  0  0  0  0  0  0  0  0  0  0
   34.4448   19.3570   33.0582 H   0  0  0  0  0  0  0  0  0  0  0  0
   34.9668   20.6438   31.9056 H   0  0  0  0  0  0  0  0  0  0  0  0
   36.1047   18.7934   31.0713 H   0  0  0  0  0  0  0  0  0  0  0  0
   36.3666   18.0761   32.6820 H   0  0  0  0  0  0  0  0  0  0  0  0
   38.1550   19.4996   33.1750 H   0  0  0  0  0  0  0  0  0  0  0  0
   38.3239   19.3856   31.3823 H   0  0  0  0  0  0  0  0  0  0  0  0
   38.4883   21.7046   31.9678 H   0  0  0  0  0  0  0  0  0  0  0  0
   36.8649   21.4393   31.2185 H   0  0  0  0  0  0  0  0  0  0  0  0
  1  3  1  0
  2  1  1  0
  2  3  1  0
  3  4  1  0
  4  5  1  0
  4  8  1  0
  5  6  1  0
  6  7  1  0
  8  7  1  0
  8  9  1  0
 10  1  1  0
 11 12  1  0
 11 10  1  0
 12 13  2  0
 13 14  1  0
 14 18  1  0
 15 14  2  0
 16 15  1  0
 17 16  2  0
 17 12  1  0
 19 20  1  0
 19 16  1  0
 21 20  1  0
 22 23  1  0
 22 21  1  0
 24 23  1  0
 24 19  1  0
  1 25  1  6
  2 26  1  0
  2 27  1  0
  3 28  1  1
  5 29  1  0
  5 30  1  0
  6 31  1  0
  6 32  1  0
  7 33  1  0
  7 34  1  0
  8 35  1  6
  9 36  1  0
 11 37  1  0
 11 38  1  0
 13 39  1  0
 18 40  1  0
 18 41  1  0
 19 42  1  0
 20 43  1  0
 20 44  1  0
 21 45  1  0
 21 46  1  0
 22 47  1  0
 22 48  1  0
 23 49  1  0
 23 50  1  0
 24 51  1  0
 24 52  1  0
M  ISO  8  25  13  26  13  27  13  28  13  29  13  30  13  31  13  32  13
M  ISO  8  33  13  34  13  35  13  36   3  37   8  38   8  39  14  42  13
M  ISO  8  43  13  44  13  45  13  46  13  47  13  48  13  49  13  50  13
M  ISO  2  51  13  52  13
M  END
>  <minimizedAffinity>  (1) 
-5.36033916

>  <minimizedRMSD>  (1) 
1.38136911

$$$$
