
     RDKit          3D

 43 46  0  0  1  0  0  0  0  0999 V2000
   43.5780   23.4010   36.5060 C   0  0  1  0  0  0  0  0  0  0  0  0
   43.9070   24.6540   35.5720 C   0  0  0  0  0  0  0  0  0  0  0  0
   44.2700   24.5680   37.0130 C   0  0  2  0  0  0  0  0  0  0  0  0
   45.6320   24.5800   37.3550 N   0  0  0  0  0  0  0  0  0  0  0  0
   46.5120   24.5630   36.2350 C   0  0  0  0  0  0  0  0  0  0  0  0
   47.8840   24.8530   36.8670 C   0  0  0  0  0  0  0  0  0  0  0  0
   47.5330   25.9190   37.8950 C   0  0  0  0  0  0  0  0  0  0  0  0
   46.0860   25.6480   38.2120 C   0  0  2  0  0  0  0  0  0  0  0  0
   45.8330   25.4270   39.5490 O   0  0  0  0  0  0  0  0  0  0  0  0
   42.2470   23.4060   36.7390 O   0  0  0  0  0  0  0  0  0  0  0  0
   41.6410   22.2110   36.6520 C   0  0  0  0  0  0  0  0  0  0  0  0
   40.1690   22.3730   36.5030 C   0  0  0  0  0  0  0  0  0  0  0  0
   39.5980   23.0120   37.5980 C   0  0  0  0  0  0  0  0  0  0  0  0
   38.2170   23.2420   37.5860 C   0  0  0  0  0  0  0  0  0  0  0  0
   37.4840   22.8120   36.4640 N   0  0  0  0  0  0  0  0  0  0  0  0
   38.1070   22.1890   35.4190 C   0  0  0  0  0  0  0  0  0  0  0  0
   39.4420   21.9760   35.4490 N   0  0  0  0  0  0  0  0  0  0  0  0
   37.4610   23.8650   38.5870 N   0  0  0  0  0  0  0  0  0  0  0  0
   37.2860   21.7580   34.2630 C   0  0  0  0  0  0  0  0  0  0  0  0
   37.2820   22.5980   33.0320 C   0  0  0  0  0  0  0  0  0  0  0  0
   38.0460   21.3050   33.0420 C   0  0  0  0  0  0  0  0  0  0  0  0
   43.7821   22.3209   36.5482 H   0  0  0  0  0  0  0  0  0  0  0  0
   44.6809   24.5856   34.7933 H   0  0  0  0  0  0  0  0  0  0  0  0
   43.3418   25.3436   34.9278 H   0  0  0  0  0  0  0  0  0  0  0  0
   44.0644   25.1805   37.9032 H   0  0  0  0  0  0  0  0  0  0  0  0
   46.5042   23.5801   35.7412 H   0  0  0  0  0  0  0  0  0  0  0  0
   46.2333   25.2861   35.4543 H   0  0  0  0  0  0  0  0  0  0  0  0
   48.3018   23.9557   37.3469 H   0  0  0  0  0  0  0  0  0  0  0  0
   48.6509   25.1667   36.1434 H   0  0  0  0  0  0  0  0  0  0  0  0
   48.1573   25.8166   38.7948 H   0  0  0  0  0  0  0  0  0  0  0  0
   47.7037   26.9406   37.5245 H   0  0  0  0  0  0  0  0  0  0  0  0
   45.5025   26.5569   38.0035 H   0  0  0  0  0  0  0  0  0  0  0  0
   46.4542   25.9696   40.0965 H   0  0  0  0  0  0  0  0  0  0  0  0
   42.0343   21.6702   35.7786 H   0  0  0  0  0  0  0  0  0  0  0  0
   41.8414   21.6467   37.5747 H   0  0  0  0  0  0  0  0  0  0  0  0
   40.2153   23.3286   38.4516 H   0  0  0  0  0  0  0  0  0  0  0  0
   36.4444   23.9801   38.4682 H   0  0  0  0  0  0  0  0  0  0  0  0
   37.9217   24.2081   39.4420 H   0  0  0  0  0  0  0  0  0  0  0  0
   36.4948   21.3426   34.9045 H   0  0  0  0  0  0  0  0  0  0  0  0
   37.8238   23.5552   33.0193 H   0  0  0  0  0  0  0  0  0  0  0  0
   36.4991   23.0303   32.3916 H   0  0  0  0  0  0  0  0  0  0  0  0
   37.6863   20.4470   32.4550 H   0  0  0  0  0  0  0  0  0  0  0  0
   39.0847   21.0093   32.8331 H   0  0  0  0  0  0  0  0  0  0  0  0
  1 10  1  0
  1  3  1  0
  2  1  1  0
  2  3  1  0
  3  4  1  0
  4  5  1  0
  4  8  1  0
  5  6  1  0
  6  7  1  0
  7  8  1  0
  8  9  1  0
 11 10  1  0
 12 11  1  0
 12 13  2  0
 14 13  1  0
 14 18  1  0
 15 14  2  0
 16 17  2  0
 16 15  1  0
 17 12  1  0
 19 16  1  0
 20 21  1  0
 20 19  1  0
 21 19  1  0
  1 22  1  6
  2 23  1  0
  2 24  1  0
  3 25  1  1
  5 26  1  0
  5 27  1  0
  6 28  1  0
  6 29  1  0
  7 30  1  0
  7 31  1  0
  8 32  1  6
  9 33  1  0
 11 34  1  0
 11 35  1  0
 13 36  1  0
 18 37  1  0
 18 38  1  0
 19 39  1  0
 20 40  1  0
 20 41  1  0
 21 42  1  0
 21 43  1  0
M  ISO  8  22  13  23  13  24  13  25  13  26  13  27  13  28  13  29  13
M  ISO  8  30  13  31  13  32  13  33   3  34   8  35   8  36  14  39  13
M  ISO  4  40  13  41  13  42  13  43  13
M  END
>  <minimizedAffinity>  (1) 
-4.76794529

>  <minimizedRMSD>  (1) 
0.453712344

$$$$
