
     RDKit          3D

 38 40  0  0  1  0  0  0  0  0999 V2000
   43.4440   23.3720   36.4650 C   0  0  1  0  0  0  0  0  0  0  0  0
   43.8060   24.6280   35.5530 C   0  0  0  0  0  0  0  0  0  0  0  0
   44.1400   24.5270   37.0000 C   0  0  2  0  0  0  0  0  0  0  0  0
   45.4970   24.5250   37.3630 N   0  0  0  0  0  0  0  0  0  0  0  0
   46.3930   24.3980   36.2640 C   0  0  0  0  0  0  0  0  0  0  0  0
   47.7610   24.7150   36.8870 C   0  0  0  0  0  0  0  0  0  0  0  0
   47.4280   25.8230   37.8650 C   0  0  0  0  0  0  0  0  0  0  0  0
   45.9670   25.6380   38.1510 C   0  0  2  0  0  0  0  0  0  0  0  0
   45.6920   25.5110   39.4980 O   0  0  0  0  0  0  0  0  0  0  0  0
   42.1070   23.3900   36.6890 O   0  0  0  0  0  0  0  0  0  0  0  0
   41.4760   22.2220   36.5070 C   0  0  0  0  0  0  0  0  0  0  0  0
   39.9980   22.3950   36.5640 C   0  0  0  0  0  0  0  0  0  0  0  0
   39.6200   23.2010   37.6240 C   0  0  0  0  0  0  0  0  0  0  0  0
   38.2450   23.4690   37.8000 C   0  0  0  0  0  0  0  0  0  0  0  0
   37.3440   22.8970   36.8840 N   0  0  0  0  0  0  0  0  0  0  0  0
   37.7920   22.1100   35.8590 C   0  0  0  0  0  0  0  0  0  0  0  0
   39.1100   21.8660   35.7090 N   0  0  0  0  0  0  0  0  0  0  0  0
   37.6650   24.2500   38.8010 N   0  0  0  0  0  0  0  0  0  0  0  0
   36.8180   21.5540   34.9550 C   0  0  0  0  0  0  0  0  0  0  0  0
   35.8710   20.8900   35.4630 O   0  0  0  0  0  0  0  0  0  0  0  0
   43.6334   22.2887   36.4909 H   0  0  0  0  0  0  0  0  0  0  0  0
   44.5946   24.5577   34.7893 H   0  0  0  0  0  0  0  0  0  0  0  0
   43.2611   25.3298   34.9044 H   0  0  0  0  0  0  0  0  0  0  0  0
   43.9236   25.1298   37.8943 H   0  0  0  0  0  0  0  0  0  0  0  0
   46.3731   23.3771   35.8549 H   0  0  0  0  0  0  0  0  0  0  0  0
   46.1391   25.0590   35.4222 H   0  0  0  0  0  0  0  0  0  0  0  0
   48.1741   23.8376   37.4061 H   0  0  0  0  0  0  0  0  0  0  0  0
   48.5243   24.9982   36.1473 H   0  0  0  0  0  0  0  0  0  0  0  0
   48.0213   25.7214   38.7857 H   0  0  0  0  0  0  0  0  0  0  0  0
   47.6544   26.8213   37.4622 H   0  0  0  0  0  0  0  0  0  0  0  0
   45.4172   26.5448   37.8586 H   0  0  0  0  0  0  0  0  0  0  0  0
   46.4530   25.8624   40.0247 H   0  0  0  0  0  0  0  0  0  0  0  0
   41.7859   21.5199   37.2950 H   0  0  0  0  0  0  0  0  0  0  0  0
   41.7435   21.8321   35.5138 H   0  0  0  0  0  0  0  0  0  0  0  0
   40.3701   23.6211   38.3102 H   0  0  0  0  0  0  0  0  0  0  0  0
   36.6430   24.3753   38.8293 H   0  0  0  0  0  0  0  0  0  0  0  0
   38.2590   24.7010   39.5114 H   0  0  0  0  0  0  0  0  0  0  0  0
   36.8956   21.7015   33.8677 H   0  0  0  0  0  0  0  0  0  0  0  0
  1 10  1  0
  1  3  1  0
  2  1  1  0
  2  3  1  0
  3  4  1  0
  4  5  1  0
  4  8  1  0
  5  6  1  0
  6  7  1  0
  7  8  1  0
  8  9  1  0
 11 12  1  0
 11 10  1  0
 12 13  2  0
 13 14  1  0
 14 18  1  0
 15 14  2  0
 16 15  1  0
 17 16  2  0
 17 12  1  0
 19 20  2  0
 19 16  1  0
  1 21  1  6
  2 22  1  0
  2 23  1  0
  3 24  1  1
  5 25  1  0
  5 26  1  0
  6 27  1  0
  6 28  1  0
  7 29  1  0
  7 30  1  0
  8 31  1  6
  9 32  1  0
 11 33  1  0
 11 34  1  0
 13 35  1  0
 18 36  1  0
 18 37  1  0
 19 38  1  0
M  ISO  8  21  13  22  13  23  13  24  13  25  13  26  13  27  13  28  13
M  ISO  8  29  13  30  13  31  13  32   3  33   8  34   8  35  14  38   6
M  END
>  <minimizedAffinity>  (1) 
-4.67457724

>  <minimizedRMSD>  (1) 
0.182949454

$$$$
