
     RDKit          3D

 39 41  0  0  1  0  0  0  0  0999 V2000
   43.3470   23.4420   36.3330 C   0  0  1  0  0  0  0  0  0  0  0  0
   43.7200   24.7770   35.5550 C   0  0  0  0  0  0  0  0  0  0  0  0
   44.0450   24.5300   36.9880 C   0  0  2  0  0  0  0  0  0  0  0  0
   45.3980   24.4770   37.3600 N   0  0  0  0  0  0  0  0  0  0  0  0
   46.2950   24.3250   36.2580 C   0  0  0  0  0  0  0  0  0  0  0  0
   47.6700   24.5410   36.9110 C   0  0  0  0  0  0  0  0  0  0  0  0
   47.3810   25.7050   37.8480 C   0  0  0  0  0  0  0  0  0  0  0  0
   45.9120   25.5830   38.1280 C   0  0  2  0  0  0  0  0  0  0  0  0
   45.6110   25.5130   39.4740 O   0  0  0  0  0  0  0  0  0  0  0  0
   42.0070   23.4400   36.5620 O   0  0  0  0  0  0  0  0  0  0  0  0
   41.3720   22.2960   36.2830 C   0  0  0  0  0  0  0  0  0  0  0  0
   39.9200   22.4090   36.4260 C   0  0  0  0  0  0  0  0  0  0  0  0
   39.5830   23.2640   37.4920 C   0  0  0  0  0  0  0  0  0  0  0  0
   38.2180   23.5030   37.7750 C   0  0  0  0  0  0  0  0  0  0  0  0
   37.2700   22.8640   36.9630 N   0  0  0  0  0  0  0  0  0  0  0  0
   37.6580   22.0420   35.9410 C   0  0  0  0  0  0  0  0  0  0  0  0
   38.9790   21.8300   35.6900 N   0  0  0  0  0  0  0  0  0  0  0  0
   37.7060   24.3170   38.7820 N   0  0  0  0  0  0  0  0  0  0  0  0
   36.6260   21.4050   35.1320 C   0  0  0  0  0  0  0  0  0  0  0  0
   36.7180   21.5190   33.8860 O   0  0  0  0  0  0  0  0  0  0  0  0
   35.6060   20.7130   35.7700 O   0  0  0  0  0  0  0  0  0  0  0  0
   43.5302   22.3610   36.2439 H   0  0  0  0  0  0  0  0  0  0  0  0
   44.5128   24.7787   34.7925 H   0  0  0  0  0  0  0  0  0  0  0  0
   43.1827   25.5431   34.9767 H   0  0  0  0  0  0  0  0  0  0  0  0
   43.8274   25.0439   37.9359 H   0  0  0  0  0  0  0  0  0  0  0  0
   46.2177   23.3193   35.8191 H   0  0  0  0  0  0  0  0  0  0  0  0
   46.0908   25.0190   35.4293 H   0  0  0  0  0  0  0  0  0  0  0  0
   47.9956   23.6492   37.4665 H   0  0  0  0  0  0  0  0  0  0  0  0
   48.4819   24.7331   36.1941 H   0  0  0  0  0  0  0  0  0  0  0  0
   47.9654   25.6158   38.7756 H   0  0  0  0  0  0  0  0  0  0  0  0
   47.6517   26.6784   37.4131 H   0  0  0  0  0  0  0  0  0  0  0  0
   45.4055   26.5057   37.8085 H   0  0  0  0  0  0  0  0  0  0  0  0
   46.4251   25.7023   40.0045 H   0  0  0  0  0  0  0  0  0  0  0  0
   41.7339   21.5159   36.9689 H   0  0  0  0  0  0  0  0  0  0  0  0
   41.5848   22.0442   35.2336 H   0  0  0  0  0  0  0  0  0  0  0  0
   40.3697   23.7394   38.0962 H   0  0  0  0  0  0  0  0  0  0  0  0
   36.6871   24.4168   38.8954 H   0  0  0  0  0  0  0  0  0  0  0  0
   38.3461   24.8194   39.4135 H   0  0  0  0  0  0  0  0  0  0  0  0
   34.8966   20.2742   35.2368 H   0  0  0  0  0  0  0  0  0  0  0  0
  1 10  1  0
  1  3  1  0
  2  1  1  0
  2  3  1  0
  3  4  1  0
  4  5  1  0
  4  8  1  0
  5  6  1  0
  6  7  1  0
  7  8  1  0
  8  9  1  0
 11 12  1  0
 11 10  1  0
 12 13  2  0
 13 14  1  0
 14 18  1  0
 15 14  2  0
 16 15  1  0
 17 16  2  0
 17 12  1  0
 19 21  1  0
 19 16  1  0
 20 19  2  0
  1 22  1  6
  2 23  1  0
  2 24  1  0
  3 25  1  1
  5 26  1  0
  5 27  1  0
  6 28  1  0
  6 29  1  0
  7 30  1  0
  7 31  1  0
  8 32  1  6
  9 33  1  0
 11 34  1  0
 11 35  1  0
 13 36  1  0
 18 37  1  0
 18 38  1  0
 21 39  1  0
M  ISO  8  22  13  23  13  24  13  25  13  26  13  27  13  28  13  29  13
M  ISO  8  30  13  31  13  32  13  33   3  34   8  35   8  36  14  39   3
M  END
>  <minimizedAffinity>  (1) 
-4.97941303

>  <minimizedRMSD>  (1) 
0.314739794

$$$$
