
     RDKit          3D

 17 17  0  0  0  0  0  0  0  0999 V2000
   37.7730   25.7670   35.7940 C   0  0  0  0  0  0  0  0  0  0  0  0
   38.1340   24.5630   35.1430 C   0  0  0  0  0  0  0  0  0  0  0  0
   37.9900   24.4770   33.7520 C   0  0  0  0  0  0  0  0  0  0  0  0
   37.5080   25.5650   33.1130 N   0  0  0  0  0  0  0  0  0  0  0  0
   37.1730   26.6940   33.7480 C   0  0  0  0  0  0  0  0  0  0  0  0
   37.3060   26.7990   35.1040 N   0  0  0  0  0  0  0  0  0  0  0  0
   38.6460   23.3940   35.7840 C   0  0  0  0  0  0  0  0  0  0  0  0
   38.0230   22.2700   35.8440 O   0  0  0  0  0  0  0  0  0  0  0  0
   39.8800   23.2810   36.4370 O   0  0  0  0  0  0  0  0  0  0  0  0
   40.0650   22.5890   37.6220 C   0  0  0  0  0  0  0  0  0  0  0  0
   39.1600   22.7870   38.7310 N   0  0  0  0  0  0  0  0  0  0  0  0
   41.0260   21.7850   37.7350 O   0  0  0  0  0  0  0  0  0  0  0  0
   37.8811   25.8477   36.8857 H   0  0  0  0  0  0  0  0  0  0  0  0
   38.2582   23.5620   33.2035 H   0  0  0  0  0  0  0  0  0  0  0  0
   36.7861   27.5475   33.1719 H   0  0  0  0  0  0  0  0  0  0  0  0
   39.3021   22.2698   39.6103 H   0  0  0  0  0  0  0  0  0  0  0  0
   38.3729   23.4454   38.6422 H   0  0  0  0  0  0  0  0  0  0  0  0
  2  7  1  0
  2  1  2  0
  3  2  1  0
  4  5  1  0
  4  3  2  0
  5  6  2  0
  6  1  1  0
  7  8  2  0
  7  9  1  0
  9 10  1  0
 10 12  2  0
 10 11  1  0
  1 13  1  0
  3 14  1  0
  5 15  1  0
 11 16  1  0
 11 17  1  0
M  ISO  3  13  14  14  14  15  14
M  END
>  <minimizedAffinity>  (1) 
-3.63785553

>  <minimizedRMSD>  (1) 
2.99308801

$$$$
