
     RDKit          3D

 28 29  0  0  0  0  0  0  0  0999 V2000
   37.5920   26.4520   35.1000 C   0  0  0  0  0  0  0  0  0  0  0  0
   37.8660   27.5700   35.6660 O   0  0  0  0  0  0  0  0  0  0  0  0
   38.1000   24.8000   36.9410 C   0  0  0  0  0  0  0  0  0  0  0  0
   37.9870   25.1600   35.5970 C   0  0  0  0  0  0  0  0  0  0  0  0
   38.2720   24.2150   34.6140 C   0  0  0  0  0  0  0  0  0  0  0  0
   38.6500   22.9740   35.0150 N   0  0  0  0  0  0  0  0  0  0  0  0
   38.7550   22.6400   36.3070 C   0  0  0  0  0  0  0  0  0  0  0  0
   38.4800   23.5540   37.2730 N   0  0  0  0  0  0  0  0  0  0  0  0
   36.8570   26.7100   33.9380 O   0  0  0  0  0  0  0  0  0  0  0  0
   36.7700   26.1450   30.6790 N   0  0  0  0  0  0  0  0  0  0  0  0
   38.0420   26.1010   31.2680 C   0  0  0  0  0  0  0  0  0  0  0  0
   38.3840   27.2060   32.2130 C   0  0  0  0  0  0  0  0  0  0  0  0
   37.2160   27.7100   33.0190 C   0  0  0  0  0  0  0  0  0  0  0  0
   36.0640   28.0360   32.0960 C   0  0  0  0  0  0  0  0  0  0  0  0
   35.7160   26.7300   31.4240 C   0  0  0  0  0  0  0  0  0  0  0  0
   37.8782   25.5357   37.7281 H   0  0  0  0  0  0  0  0  0  0  0  0
   38.1933   24.4663   33.5460 H   0  0  0  0  0  0  0  0  0  0  0  0
   39.0649   21.6224   36.5870 H   0  0  0  0  0  0  0  0  0  0  0  0
   36.8566   26.6758   29.8006 H   0  0  0  0  0  0  0  0  0  0  0  0
   38.1202   25.1535   31.8213 H   0  0  0  0  0  0  0  0  0  0  0  0
   38.7502   26.2062   30.4329 H   0  0  0  0  0  0  0  0  0  0  0  0
   39.1519   26.8391   32.9099 H   0  0  0  0  0  0  0  0  0  0  0  0
   38.7342   28.0499   31.6005 H   0  0  0  0  0  0  0  0  0  0  0  0
   37.4835   28.6283   33.5623 H   0  0  0  0  0  0  0  0  0  0  0  0
   35.2055   28.4159   32.6693 H   0  0  0  0  0  0  0  0  0  0  0  0
   36.3282   28.8166   31.3674 H   0  0  0  0  0  0  0  0  0  0  0  0
   34.8733   26.9109   30.7405 H   0  0  0  0  0  0  0  0  0  0  0  0
   35.4767   26.0212   32.2305 H   0  0  0  0  0  0  0  0  0  0  0  0
  1  4  1  0
  1  2  2  0
  3  8  2  0
  4  3  1  0
  5  6  1  0
  5  4  2  0
  6  7  2  0
  7  8  1  0
  9  1  1  0
 10 11  1  0
 10 15  1  0
 11 12  1  0
 12 13  1  0
 13  9  1  0
 14 13  1  0
 15 14  1  0
  3 16  1  0
  5 17  1  0
  7 18  1  0
 10 19  1  0
 11 20  1  0
 11 21  1  0
 12 22  1  0
 12 23  1  0
 13 24  1  0
 14 25  1  0
 14 26  1  0
 15 27  1  0
 15 28  1  0
M  ISO  8  16  14  17  14  18  14  19   5  20  13  21  13  22  13  23  13
M  ISO  5  24  13  25  13  26  13  27  13  28  13
M  END
>  <minimizedAffinity>  (1) 
-3.88373852

>  <minimizedRMSD>  (1) 
6.78369331

$$$$
