
     RDKit          3D

 37 39  0  0  1  0  0  0  0  0999 V2000
   43.5580   23.3900   36.5030 C   0  0  1  0  0  0  0  0  0  0  0  0
   43.8770   24.6500   35.5760 C   0  0  0  0  0  0  0  0  0  0  0  0
   44.2460   24.5580   37.0160 C   0  0  2  0  0  0  0  0  0  0  0  0
   45.6080   24.5740   37.3540 N   0  0  0  0  0  0  0  0  0  0  0  0
   46.4840   24.5690   36.2280 C   0  0  0  0  0  0  0  0  0  0  0  0
   47.8580   24.8560   36.8550 C   0  0  0  0  0  0  0  0  0  0  0  0
   47.5160   25.8830   37.9130 C   0  0  0  0  0  0  0  0  0  0  0  0
   46.0650   25.6430   38.2080 C   0  0  2  0  0  0  0  0  0  0  0  0
   45.8150   25.4210   39.5480 O   0  0  0  0  0  0  0  0  0  0  0  0
   42.2260   23.3870   36.7590 O   0  0  0  0  0  0  0  0  0  0  0  0
   41.6060   22.2080   36.6130 C   0  0  0  0  0  0  0  0  0  0  0  0
   40.1600   22.3520   36.4660 C   0  0  0  0  0  0  0  0  0  0  0  0
   39.6060   23.0120   37.5710 C   0  0  0  0  0  0  0  0  0  0  0  0
   38.2160   23.2570   37.6150 C   0  0  0  0  0  0  0  0  0  0  0  0
   37.4540   22.8120   36.5220 N   0  0  0  0  0  0  0  0  0  0  0  0
   38.0430   22.1720   35.4680 C   0  0  0  0  0  0  0  0  0  0  0  0
   39.3880   21.9490   35.4500 N   0  0  0  0  0  0  0  0  0  0  0  0
   37.4920   23.8840   38.6120 N   0  0  0  0  0  0  0  0  0  0  0  0
   37.0270   21.6350   34.1200 S   0  0  0  0  0  0  0  0  0  0  0  0
   43.7665   22.3102   36.5287 H   0  0  0  0  0  0  0  0  0  0  0  0
   44.6485   24.5903   34.7942 H   0  0  0  0  0  0  0  0  0  0  0  0
   43.3056   25.3402   34.9379 H   0  0  0  0  0  0  0  0  0  0  0  0
   44.0406   25.1647   37.9103 H   0  0  0  0  0  0  0  0  0  0  0  0
   46.4757   23.5906   35.7254 H   0  0  0  0  0  0  0  0  0  0  0  0
   46.1999   25.2988   35.4555 H   0  0  0  0  0  0  0  0  0  0  0  0
   48.2893   23.9490   37.3037 H   0  0  0  0  0  0  0  0  0  0  0  0
   48.6113   25.2005   36.1312 H   0  0  0  0  0  0  0  0  0  0  0  0
   48.1272   25.7315   38.8150 H   0  0  0  0  0  0  0  0  0  0  0  0
   47.7119   26.9123   37.5781 H   0  0  0  0  0  0  0  0  0  0  0  0
   45.4889   26.5532   37.9852 H   0  0  0  0  0  0  0  0  0  0  0  0
   46.4324   25.9693   40.0941 H   0  0  0  0  0  0  0  0  0  0  0  0
   42.0038   21.7085   35.7173 H   0  0  0  0  0  0  0  0  0  0  0  0
   41.7928   21.6168   37.5216 H   0  0  0  0  0  0  0  0  0  0  0  0
   40.2510   23.3378   38.4004 H   0  0  0  0  0  0  0  0  0  0  0  0
   36.4729   23.9973   38.5148 H   0  0  0  0  0  0  0  0  0  0  0  0
   37.9717   24.2379   39.4520 H   0  0  0  0  0  0  0  0  0  0  0  0
   35.8961   21.0372   34.6104 H   0  0  0  0  0  0  0  0  0  0  0  0
  1 10  1  0
  1  3  1  0
  2  1  1  0
  2  3  1  0
  3  4  1  0
  4  5  1  0
  4  8  1  0
  5  6  1  0
  6  7  1  0
  7  8  1  0
  8  9  1  0
 11 10  1  0
 12 11  1  0
 12 13  2  0
 13 14  1  0
 14 18  1  0
 15 14  2  0
 16 15  1  0
 17 16  2  0
 17 12  1  0
 19 16  1  0
  1 20  1  6
  2 21  1  0
  2 22  1  0
  3 23  1  1
  5 24  1  0
  5 25  1  0
  6 26  1  0
  6 27  1  0
  7 28  1  0
  7 29  1  0
  8 30  1  6
  9 31  1  0
 11 32  1  0
 11 33  1  0
 13 34  1  0
 18 35  1  0
 18 36  1  0
 19 37  1  0
M  ISO  8  20  13  21  13  22  13  23  13  24  13  25  13  26  13  27  13
M  ISO  8  28  13  29  13  30  13  31   3  32   8  33   8  34  14  37  11
M  END
>  <minimizedAffinity>  (1) 
-4.57758093

>  <minimizedRMSD>  (1) 
0.307344615

$$$$
