
     RDKit          3D

 16 16  0  0  0  0  0  0  0  0999 V2000
   38.9840   26.1100   35.3570 C   0  0  0  0  0  0  0  0  0  0  0  0
   39.4830   24.8170   35.5290 C   0  0  0  0  0  0  0  0  0  0  0  0
   40.7840   24.5020   35.1030 C   0  0  0  0  0  0  0  0  0  0  0  0
   41.5050   25.4930   34.5340 N   0  0  0  0  0  0  0  0  0  0  0  0
   41.0050   26.7390   34.3750 C   0  0  0  0  0  0  0  0  0  0  0  0
   39.7520   27.0430   34.7850 N   0  0  0  0  0  0  0  0  0  0  0  0
   38.7840   23.7170   36.1220 C   0  0  0  0  0  0  0  0  0  0  0  0
   37.8340   23.0550   35.6110 O   0  0  0  0  0  0  0  0  0  0  0  0
   38.9980   23.1430   37.3760 O   0  0  0  0  0  0  0  0  0  0  0  0
   38.3410   23.6630   38.5390 C   0  0  0  0  0  0  0  0  0  0  0  0
   37.3800   22.7620   38.9840 F   0  0  0  0  0  0  0  0  0  0  0  0
   37.8180   24.9110   38.2950 F   0  0  0  0  0  0  0  0  0  0  0  0
   39.2890   23.7560   39.5390 F   0  0  0  0  0  0  0  0  0  0  0  0
   37.9657   26.3592   35.6900 H   0  0  0  0  0  0  0  0  0  0  0  0
   41.1985   23.4907   35.2275 H   0  0  0  0  0  0  0  0  0  0  0  0
   41.6256   27.5165   33.9057 H   0  0  0  0  0  0  0  0  0  0  0  0
  1  2  2  0
  2  7  1  0
  3  2  1  0
  4  3  2  0
  5  4  1  0
  5  6  2  0
  6  1  1  0
  7  9  1  0
  8  7  2  0
  9 10  1  0
 10 11  1  0
 10 13  1  0
 12 10  1  0
  1 14  1  0
  3 15  1  0
  5 16  1  0
M  ISO  3  14  14  15  14  16  14
M  END
>  <minimizedAffinity>  (1) 
-3.8507123

>  <minimizedRMSD>  (1) 
2.86293793

$$$$
