
     RDKit          3D

 19 19  0  0  0  0  0  0  0  0999 V2000
   37.5430   26.7210   35.3240 C   0  0  0  0  0  0  0  0  0  0  0  0
   37.7310   25.5090   34.6210 C   0  0  0  0  0  0  0  0  0  0  0  0
   37.4160   25.4520   33.2770 C   0  0  0  0  0  0  0  0  0  0  0  0
   36.9370   26.5750   32.6870 N   0  0  0  0  0  0  0  0  0  0  0  0
   36.7620   27.7200   33.3650 C   0  0  0  0  0  0  0  0  0  0  0  0
   37.0670   27.7840   34.6850 N   0  0  0  0  0  0  0  0  0  0  0  0
   38.2310   24.3030   35.1930 C   0  0  0  0  0  0  0  0  0  0  0  0
   38.0250   23.1170   34.8000 O   0  0  0  0  0  0  0  0  0  0  0  0
   39.0530   24.1830   36.3100 O   0  0  0  0  0  0  0  0  0  0  0  0
   38.6830   23.4560   37.4600 C   0  0  0  0  0  0  0  0  0  0  0  0
   37.9440   24.2770   38.4660 C   0  0  0  0  0  0  0  0  0  0  0  0
   37.7895   26.7835   36.3942 H   0  0  0  0  0  0  0  0  0  0  0  0
   37.5498   24.5234   32.7027 H   0  0  0  0  0  0  0  0  0  0  0  0
   36.3702   28.6088   32.8488 H   0  0  0  0  0  0  0  0  0  0  0  0
   38.0393   22.6190   37.1518 H   0  0  0  0  0  0  0  0  0  0  0  0
   39.6108   23.1107   37.9396 H   0  0  0  0  0  0  0  0  0  0  0  0
   38.2298   23.9595   39.4796 H   0  0  0  0  0  0  0  0  0  0  0  0
   38.1966   25.3389   38.3295 H   0  0  0  0  0  0  0  0  0  0  0  0
   36.8615   24.1371   38.3295 H   0  0  0  0  0  0  0  0  0  0  0  0
  2  7  1  0
  2  1  2  0
  3  2  1  0
  4  3  2  0
  4  5  1  0
  5  6  2  0
  6  1  1  0
  7  9  1  0
  8  7  2  0
  9 10  1  0
 10 11  1  0
  1 12  1  0
  3 13  1  0
  5 14  1  0
 10 15  1  0
 10 16  1  0
 11 17  1  0
 11 18  1  0
 11 19  1  0
M  ISO  8  12  14  13  14  14  14  15   8  16   8  17   8  18   8  19   8
M  END
>  <minimizedAffinity>  (1) 
-2.96801972

>  <minimizedRMSD>  (1) 
3.53364491

$$$$
