
     RDKit          3D

 16 16  0  0  0  0  0  0  0  0999 V2000
   38.1220   25.5050   36.4020 C   0  0  0  0  0  0  0  0  0  0  0  0
   38.5020   24.1790   36.1120 C   0  0  0  0  0  0  0  0  0  0  0  0
   38.3980   23.6850   34.8050 C   0  0  0  0  0  0  0  0  0  0  0  0
   37.9240   24.5440   33.8750 N   0  0  0  0  0  0  0  0  0  0  0  0
   37.5660   25.8020   34.1650 C   0  0  0  0  0  0  0  0  0  0  0  0
   37.6640   26.2830   35.4230 N   0  0  0  0  0  0  0  0  0  0  0  0
   39.0090   23.2420   37.0630 C   0  0  0  0  0  0  0  0  0  0  0  0
   38.8160   23.2520   38.3340 O   0  0  0  0  0  0  0  0  0  0  0  0
   39.8120   22.1280   36.8110 O   0  0  0  0  0  0  0  0  0  0  0  0
   41.0260   21.8840   37.4530 C   0  0  0  0  0  0  0  0  0  0  0  0
   38.2030   25.8937   37.4278 H   0  0  0  0  0  0  0  0  0  0  0  0
   38.6863   22.6546   34.5496 H   0  0  0  0  0  0  0  0  0  0  0  0
   37.1858   26.4541   33.3649 H   0  0  0  0  0  0  0  0  0  0  0  0
   40.8771   21.9139   38.5425 H   0  0  0  0  0  0  0  0  0  0  0  0
   41.4022   20.8923   37.1614 H   0  0  0  0  0  0  0  0  0  0  0  0
   41.7561   22.6534   37.1614 H   0  0  0  0  0  0  0  0  0  0  0  0
  2  1  2  0
  2  7  1  0
  3  2  1  0
  4  5  1  0
  4  3  2  0
  5  6  2  0
  6  1  1  0
  7  8  2  0
  9  7  1  0
  9 10  1  0
  1 11  1  0
  3 12  1  0
  5 13  1  0
 10 14  1  0
 10 15  1  0
 10 16  1  0
M  ISO  6  11  14  12  14  13  14  14   8  15   8  16   8
M  END
>  <minimizedAffinity>  (1) 
-2.89481497

>  <minimizedRMSD>  (1) 
2.11125255

$$$$
