
     RDKit          3D

 32 34  0  0  0  0  0  0  0  0999 V2000
   39.3610   25.6270   35.3210 C   0  0  0  0  0  0  0  0  0  0  0  0
   39.3010   24.2500   35.1820 C   0  0  0  0  0  0  0  0  0  0  0  0
   39.8850   23.6390   34.0690 C   0  0  0  0  0  0  0  0  0  0  0  0
   40.4890   24.4390   33.1740 N   0  0  0  0  0  0  0  0  0  0  0  0
   40.5500   25.7580   33.3060 C   0  0  0  0  0  0  0  0  0  0  0  0
   39.9890   26.3390   34.3690 N   0  0  0  0  0  0  0  0  0  0  0  0
   41.1610   26.7670   32.4370 C   0  0  0  0  0  0  0  0  0  0  0  0
   42.4600   27.2590   32.5930 C   0  0  0  0  0  0  0  0  0  0  0  0
   43.0510   28.1990   31.7950 C   0  0  0  0  0  0  0  0  0  0  0  0
   42.3450   28.7280   30.7440 C   0  0  0  0  0  0  0  0  0  0  0  0
   41.0590   28.2970   30.5210 C   0  0  0  0  0  0  0  0  0  0  0  0
   40.4060   28.8640   29.4550 C   0  0  0  0  0  0  0  0  0  0  0  0
   39.1170   28.4840   29.1690 C   0  0  0  0  0  0  0  0  0  0  0  0
   38.5300   27.5280   29.9890 C   0  0  0  0  0  0  0  0  0  0  0  0
   39.2440   27.0070   31.0330 C   0  0  0  0  0  0  0  0  0  0  0  0
   40.5280   27.3490   31.3640 C   0  0  0  0  0  0  0  0  0  0  0  0
   38.6800   23.3460   36.1130 C   0  0  0  0  0  0  0  0  0  0  0  0
   37.6690   22.6290   35.9120 O   0  0  0  0  0  0  0  0  0  0  0  0
   39.0830   23.0810   37.4330 O   0  0  0  0  0  0  0  0  0  0  0  0
   38.3870   23.6760   38.5410 C   0  0  0  0  0  0  0  0  0  0  0  0
   37.4020   22.8120   38.9970 F   0  0  0  0  0  0  0  0  0  0  0  0
   37.8870   24.9200   38.2060 F   0  0  0  0  0  0  0  0  0  0  0  0
   39.2950   23.8040   39.5690 F   0  0  0  0  0  0  0  0  0  0  0  0
   38.9058   26.1258   36.1893 H   0  0  0  0  0  0  0  0  0  0  0  0
   39.8516   22.5482   33.9313 H   0  0  0  0  0  0  0  0  0  0  0  0
   43.0556   26.8571   33.4259 H   0  0  0  0  0  0  0  0  0  0  0  0
   44.0818   28.5277   31.9935 H   0  0  0  0  0  0  0  0  0  0  0  0
   42.8013   29.4855   30.0898 H   0  0  0  0  0  0  0  0  0  0  0  0
   40.9115   29.6179   28.8336 H   0  0  0  0  0  0  0  0  0  0  0  0
   38.5692   28.9210   28.3211 H   0  0  0  0  0  0  0  0  0  0  0  0
   37.4995   27.1929   29.8001 H   0  0  0  0  0  0  0  0  0  0  0  0
   38.7458   26.2512   31.6580 H   0  0  0  0  0  0  0  0  0  0  0  0
  2  1  2  0
  2 17  1  0
  3  2  1  0
  4  5  1  0
  4  3  2  0
  5  6  2  0
  6  1  1  0
  7  8  2  0
  7  5  1  0
  9  8  1  0
 10  9  2  0
 11 10  1  0
 11 16  2  0
 12 11  1  0
 13 12  2  0
 13 14  1  0
 14 15  2  0
 15 16  1  0
 16  7  1  0
 17 19  1  0
 18 17  2  0
 19 20  1  0
 20 21  1  0
 20 23  1  0
 22 20  1  0
  1 24  1  0
  3 25  1  0
  8 26  1  0
  9 27  1  0
 10 28  1  0
 12 29  1  0
 13 30  1  0
 14 31  1  0
 15 32  1  0
M  ISO  8  24  14  25  14  26  14  27  14  28  14  29  14  30  14  31  14
M  ISO  1  32  14
M  END
>  <minimizedAffinity>  (1) 
-4.84901142

>  <minimizedRMSD>  (1) 
2.56838775

$$$$
