
     RDKit          3D

 27 29  0  0  0  0  0  0  0  0999 V2000
   40.2190   25.5890   34.9420 C   0  0  0  0  0  0  0  0  0  0  0  0
   40.1090   24.2960   35.4510 C   0  0  0  0  0  0  0  0  0  0  0  0
   41.2750   23.5730   35.7810 C   0  0  0  0  0  0  0  0  0  0  0  0
   42.4610   24.1880   35.5810 N   0  0  0  0  0  0  0  0  0  0  0  0
   42.5380   25.4450   35.0860 C   0  0  0  0  0  0  0  0  0  0  0  0
   41.4190   26.1300   34.7730 N   0  0  0  0  0  0  0  0  0  0  0  0
   43.8170   26.0400   34.8980 N   0  0  0  0  0  0  0  0  0  0  0  0
   44.0450   26.8950   33.8840 C   0  0  0  0  0  0  0  0  0  0  0  0
   45.3300   27.3090   33.9340 N   0  0  0  0  0  0  0  0  0  0  0  0
   45.9020   26.6940   35.0030 C   0  0  0  0  0  0  0  0  0  0  0  0
   47.1950   26.7400   35.5390 C   0  0  0  0  0  0  0  0  0  0  0  0
   47.4600   25.9990   36.6300 N   0  0  0  0  0  0  0  0  0  0  0  0
   46.4910   25.2470   37.1670 C   0  0  0  0  0  0  0  0  0  0  0  0
   45.2080   25.1420   36.7120 N   0  0  0  0  0  0  0  0  0  0  0  0
   44.9550   25.8980   35.6070 C   0  0  0  0  0  0  0  0  0  0  0  0
   38.8930   23.5690   35.6940 C   0  0  0  0  0  0  0  0  0  0  0  0
   37.9110   23.4650   34.9010 O   0  0  0  0  0  0  0  0  0  0  0  0
   38.5430   22.8400   36.8300 O   0  0  0  0  0  0  0  0  0  0  0  0
   38.3090   23.5120   38.0720 C   0  0  0  0  0  0  0  0  0  0  0  0
   37.3260   22.8520   38.8020 F   0  0  0  0  0  0  0  0  0  0  0  0
   38.0220   24.8460   37.8760 F   0  0  0  0  0  0  0  0  0  0  0  0
   39.4780   23.4200   38.8060 F   0  0  0  0  0  0  0  0  0  0  0  0
   39.3148   26.1587   34.6814 H   0  0  0  0  0  0  0  0  0  0  0  0
   41.2205   22.5511   36.1843 H   0  0  0  0  0  0  0  0  0  0  0  0
   43.3033   27.2070   33.1340 H   0  0  0  0  0  0  0  0  0  0  0  0
   47.9741   27.3661   35.0796 H   0  0  0  0  0  0  0  0  0  0  0  0
   46.7533   24.6585   38.0586 H   0  0  0  0  0  0  0  0  0  0  0  0
  1  2  2  0
  2 16  1  0
  2  3  1  0
  4  3  2  0
  5  4  1  0
  6  1  1  0
  6  5  2  0
  7  5  1  0
  7 15  1  0
  8  9  2  0
  8  7  1  0
  9 10  1  0
 10 11  1  0
 10 15  2  0
 11 12  2  0
 12 13  1  0
 14 13  2  0
 15 14  1  0
 16 18  1  0
 17 16  2  0
 18 19  1  0
 19 20  1  0
 19 22  1  0
 21 19  1  0
  1 23  1  0
  3 24  1  0
  8 25  1  0
 11 26  1  0
 13 27  1  0
M  ISO  5  23  14  24  14  25  14  26  14  27  14
M  END
>  <minimizedAffinity>  (1) 
-5.06168318

>  <minimizedRMSD>  (1) 
2.59718895

$$$$
