
     RDKit          3D

 27 28  0  0  0  0  0  0  0  0999 V2000
   38.6990   24.0720   33.9970 C   0  0  0  0  0  0  0  0  0  0  0  0
   39.7860   24.4610   34.7690 C   0  0  0  0  0  0  0  0  0  0  0  0
   39.9330   25.8040   35.1760 C   0  0  0  0  0  0  0  0  0  0  0  0
   38.9680   26.6610   34.7710 N   0  0  0  0  0  0  0  0  0  0  0  0
   37.9170   26.2610   34.0170 C   0  0  0  0  0  0  0  0  0  0  0  0
   37.7860   24.9720   33.6340 N   0  0  0  0  0  0  0  0  0  0  0  0
   36.9310   27.2240   33.6250 N   0  0  0  0  0  0  0  0  0  0  0  0
   36.5620   28.1880   34.4710 C   0  0  0  0  0  0  0  0  0  0  0  0
   35.6090   29.1010   34.0630 C   0  0  0  0  0  0  0  0  0  0  0  0
   35.0640   29.0020   32.8030 C   0  0  0  0  0  0  0  0  0  0  0  0
   34.0740   29.8640   32.2380 N   0  0  0  0  0  0  0  0  0  0  0  0
   35.4590   28.0120   31.9700 N   0  0  0  0  0  0  0  0  0  0  0  0
   36.3850   27.1450   32.3990 C   0  0  0  0  0  0  0  0  0  0  0  0
   36.7710   26.2180   31.6510 O   0  0  0  0  0  0  0  0  0  0  0  0
   40.8480   23.6070   35.2350 C   0  0  0  0  0  0  0  0  0  0  0  0
   41.6840   22.9720   34.5110 O   0  0  0  0  0  0  0  0  0  0  0  0
   41.1920   23.2910   36.5400 O   0  0  0  0  0  0  0  0  0  0  0  0
   40.3970   22.3850   37.3150 C   0  0  0  0  0  0  0  0  0  0  0  0
   41.2190   21.4730   37.9650 F   0  0  0  0  0  0  0  0  0  0  0  0
   39.4440   21.7740   36.5300 F   0  0  0  0  0  0  0  0  0  0  0  0
   39.7660   23.1320   38.3030 F   0  0  0  0  0  0  0  0  0  0  0  0
   38.5920   23.0224   33.6857 H   0  0  0  0  0  0  0  0  0  0  0  0
   40.7846   26.1355   35.7883 H   0  0  0  0  0  0  0  0  0  0  0  0
   37.0083   28.2543   35.4742 H   0  0  0  0  0  0  0  0  0  0  0  0
   35.2870   29.9039   34.7424 H   0  0  0  0  0  0  0  0  0  0  0  0
   33.7335   29.6989   31.2800 H   0  0  0  0  0  0  0  0  0  0  0  0
   33.7009   30.6504   32.7888 H   0  0  0  0  0  0  0  0  0  0  0  0
  1  2  2  0
  2  3  1  0
  2 15  1  0
  4  3  2  0
  5  4  1  0
  6  1  1  0
  6  5  2  0
  7  5  1  0
  7  8  1  0
  9  8  2  0
 10  9  1  0
 11 10  1  0
 12 13  1  0
 12 10  2  0
 13  7  1  0
 14 13  2  0
 15 17  1  0
 16 15  2  0
 17 18  1  0
 18 19  1  0
 18 21  1  0
 20 18  1  0
  1 22  1  0
  3 23  1  0
  8 24  1  0
  9 25  1  0
 11 26  1  0
 11 27  1  0
M  ISO  4  22  14  23  14  24  14  25  14
M  END
>  <minimizedAffinity>  (1) 
-4.87635946

>  <minimizedRMSD>  (1) 
4.85878181

$$$$
