
     RDKit          3D

 26 27  0  0  0  0  0  0  0  0999 V2000
   39.1800   26.2070   35.3510 C   0  0  0  0  0  0  0  0  0  0  0  0
   39.2220   24.8210   35.3920 C   0  0  0  0  0  0  0  0  0  0  0  0
   40.3020   24.1310   34.7980 C   0  0  0  0  0  0  0  0  0  0  0  0
   41.2620   24.8750   34.2070 N   0  0  0  0  0  0  0  0  0  0  0  0
   41.2000   26.2280   34.1800 C   0  0  0  0  0  0  0  0  0  0  0  0
   40.1700   26.8770   34.7460 N   0  0  0  0  0  0  0  0  0  0  0  0
   42.2950   26.9250   33.5120 C   0  0  0  0  0  0  0  0  0  0  0  0
   43.6030   26.8040   33.9520 C   0  0  0  0  0  0  0  0  0  0  0  0
   44.6340   27.4610   33.3240 C   0  0  0  0  0  0  0  0  0  0  0  0
   44.4050   28.2720   32.2250 C   0  0  0  0  0  0  0  0  0  0  0  0
   43.0870   28.3720   31.8110 C   0  0  0  0  0  0  0  0  0  0  0  0
   42.0210   27.7150   32.4320 C   0  0  0  0  0  0  0  0  0  0  0  0
   38.2580   23.9590   35.9900 C   0  0  0  0  0  0  0  0  0  0  0  0
   37.8620   22.8440   35.5510 O   0  0  0  0  0  0  0  0  0  0  0  0
   37.5510   24.1550   37.1780 O   0  0  0  0  0  0  0  0  0  0  0  0
   38.1330   23.8150   38.4460 C   0  0  0  0  0  0  0  0  0  0  0  0
   38.1210   24.9190   39.2850 F   0  0  0  0  0  0  0  0  0  0  0  0
   39.3910   23.2940   38.2800 F   0  0  0  0  0  0  0  0  0  0  0  0
   37.3220   22.8650   39.0260 F   0  0  0  0  0  0  0  0  0  0  0  0
   38.3417   26.7508   35.8109 H   0  0  0  0  0  0  0  0  0  0  0  0
   40.3589   23.0326   34.8160 H   0  0  0  0  0  0  0  0  0  0  0  0
   43.8212   26.1683   34.8228 H   0  0  0  0  0  0  0  0  0  0  0  0
   45.6602   27.3404   33.7013 H   0  0  0  0  0  0  0  0  0  0  0  0
   45.2199   28.8041   31.7123 H   0  0  0  0  0  0  0  0  0  0  0  0
   42.8658   29.0071   30.9405 H   0  0  0  0  0  0  0  0  0  0  0  0
   40.9916   27.8308   32.0618 H   0  0  0  0  0  0  0  0  0  0  0  0
  1  2  2  0
  2 13  1  0
  3  2  1  0
  4  3  2  0
  5  4  1  0
  5  6  2  0
  6  1  1  0
  7  8  2  0
  7  5  1  0
  9  8  1  0
 10  9  2  0
 11 10  1  0
 11 12  2  0
 12  7  1  0
 13 15  1  0
 14 13  2  0
 15 16  1  0
 16 19  1  0
 16 17  1  0
 18 16  1  0
  1 20  1  0
  3 21  1  0
  8 22  1  0
  9 23  1  0
 10 24  1  0
 11 25  1  0
 12 26  1  0
M  ISO  7  20  14  21  14  22  14  23  14  24  14  25  14  26  14
M  END
>  <minimizedAffinity>  (1) 
-4.51357603

>  <minimizedRMSD>  (1) 
1.30144632

$$$$
