
     RDKit          3D

 28 29  0  0  0  0  0  0  0  0999 V2000
   40.1040   24.6520   35.0710 C   0  0  0  0  0  0  0  0  0  0  0  0
   40.1020   23.3000   35.4820 C   0  0  0  0  0  0  0  0  0  0  0  0
   39.0940   22.5260   34.9140 C   0  0  0  0  0  0  0  0  0  0  0  0
   38.2150   23.0660   34.0460 N   0  0  0  0  0  0  0  0  0  0  0  0
   38.2510   24.3690   33.6780 C   0  0  0  0  0  0  0  0  0  0  0  0
   39.2090   25.1450   34.2060 N   0  0  0  0  0  0  0  0  0  0  0  0
   37.2400   24.7480   32.7530 N   0  0  0  0  0  0  0  0  0  0  0  0
   36.7350   23.7180   32.0440 C   0  0  0  0  0  0  0  0  0  0  0  0
   35.7310   23.9430   31.0970 C   0  0  0  0  0  0  0  0  0  0  0  0
   35.3220   25.2530   30.9580 C   0  0  0  0  0  0  0  0  0  0  0  0
   34.3010   25.4810   29.9940 N   0  0  0  0  0  0  0  0  0  0  0  0
   35.8420   26.2640   31.6780 N   0  0  0  0  0  0  0  0  0  0  0  0
   36.8190   26.0180   32.5950 C   0  0  0  0  0  0  0  0  0  0  0  0
   37.3640   26.8930   33.3120 O   0  0  0  0  0  0  0  0  0  0  0  0
   41.0500   22.7840   36.3930 N   0  0  0  0  0  0  0  0  0  0  0  0
   40.7360   22.1160   37.5930 C   0  0  0  0  0  0  0  0  0  0  0  0
   39.7120   22.6110   38.2670 N   0  0  0  0  0  0  0  0  0  0  0  0
   41.5720   20.9760   37.9320 N   0  0  0  0  0  0  0  0  0  0  0  0
   39.4030   22.1670   39.1460 H   0  0  0  0  0  0  0  0  0  0  0  0
   40.8717   25.3264   35.4781 H   0  0  0  0  0  0  0  0  0  0  0  0
   39.0137   21.4608   35.1766 H   0  0  0  0  0  0  0  0  0  0  0  0
   37.1136   22.6988   32.2110 H   0  0  0  0  0  0  0  0  0  0  0  0
   35.2953   23.1275   30.5011 H   0  0  0  0  0  0  0  0  0  0  0  0
   33.9457   26.4348   29.8359 H   0  0  0  0  0  0  0  0  0  0  0  0
   33.9170   24.6923   29.4541 H   0  0  0  0  0  0  0  0  0  0  0  0
   42.0465   22.9053   36.1625 H   0  0  0  0  0  0  0  0  0  0  0  0
   41.3935   20.4455   38.7967 H   0  0  0  0  0  0  0  0  0  0  0  0
   42.3428   20.6988   37.3075 H   0  0  0  0  0  0  0  0  0  0  0  0
  1  2  2  0
  2 15  1  0
  3  2  1  0
  4  3  2  0
  5  4  1  0
  5  6  2  0
  6  1  1  0
  7  5  1  0
  8  7  1  0
  9  8  2  0
 10  9  1  0
 10 12  2  0
 11 10  1  0
 12 13  1  0
 13  7  1  0
 13 14  2  0
 15 16  1  0
 16 18  1  0
 16 17  2  0
 17 19  1  0
  1 20  1  0
  3 21  1  0
  8 22  1  0
  9 23  1  0
 11 24  1  0
 11 25  1  0
 15 26  1  0
 18 27  1  0
 18 28  1  0
M  ISO  4  20  14  21  14  22  14  23  14
M  END
>  <minimizedAffinity>  (1) 
-5.78644848

>  <minimizedRMSD>  (1) 
0.478637844

$$$$
