
     RDKit          3D

 29 30  0  0  0  0  0  0  0  0999 V2000
   41.3380   24.8310   35.0690 C   0  0  0  0  0  0  0  0  0  0  0  0
   40.9260   23.6650   35.7050 C   0  0  0  0  0  0  0  0  0  0  0  0
   41.8080   22.9770   36.5600 C   0  0  0  0  0  0  0  0  0  0  0  0
   43.0470   23.5110   36.7150 N   0  0  0  0  0  0  0  0  0  0  0  0
   43.4190   24.6380   36.0880 C   0  0  0  0  0  0  0  0  0  0  0  0
   42.5740   25.3010   35.2670 N   0  0  0  0  0  0  0  0  0  0  0  0
   47.3010   26.1000   36.7640 C   0  0  0  0  0  0  0  0  0  0  0  0
   46.6490   26.4010   35.5850 C   0  0  0  0  0  0  0  0  0  0  0  0
   45.3730   25.9390   35.3280 C   0  0  0  0  0  0  0  0  0  0  0  0
   44.7740   25.1600   36.3020 C   0  0  0  0  0  0  0  0  0  0  0  0
   45.4270   24.8590   37.4790 C   0  0  0  0  0  0  0  0  0  0  0  0
   46.7150   25.3260   37.7390 C   0  0  0  0  0  0  0  0  0  0  0  0
   48.9300   26.7340   37.0060 S   0  0  0  0  0  0  0  0  0  0  0  0
   49.5070   27.1790   35.6850 O   0  0  0  0  0  0  0  0  0  0  0  0
   49.7570   25.6470   37.6320 O   0  0  0  0  0  0  0  0  0  0  0  0
   39.6340   23.0490   35.5850 C   0  0  0  0  0  0  0  0  0  0  0  0
   38.9770   22.8520   34.5340 O   0  0  0  0  0  0  0  0  0  0  0  0
   38.8350   22.5350   36.6180 O   0  0  0  0  0  0  0  0  0  0  0  0
   38.3300   23.3930   37.6470 C   0  0  0  0  0  0  0  0  0  0  0  0
   37.1690   22.8480   38.1810 F   0  0  0  0  0  0  0  0  0  0  0  0
   38.1610   24.6740   37.1850 F   0  0  0  0  0  0  0  0  0  0  0  0
   39.2750   23.3990   38.6640 F   0  0  0  0  0  0  0  0  0  0  0  0
   40.6465   25.3671   34.4024 H   0  0  0  0  0  0  0  0  0  0  0  0
   41.5085   22.0532   37.0766 H   0  0  0  0  0  0  0  0  0  0  0  0
   47.1572   27.0228   34.8333 H   0  0  0  0  0  0  0  0  0  0  0  0
   44.8547   26.1803   34.3883 H   0  0  0  0  0  0  0  0  0  0  0  0
   44.9198   24.2359   38.2303 H   0  0  0  0  0  0  0  0  0  0  0  0
   47.2368   25.0873   38.6775 H   0  0  0  0  0  0  0  0  0  0  0  0
   48.9164   27.8264   37.8326 H   0  0  0  0  0  0  0  0  0  0  0  0
  1  6  2  0
  1  2  1  0
  2  3  2  0
  3  4  1  0
  5 10  1  0
  5  4  2  0
  6  5  1  0
  7 13  1  0
  7 12  2  0
  8  7  1  0
  9  8  2  0
  9 10  1  0
 10 11  2  0
 11 12  1  0
 13 15  2  0
 14 13  2  0
 16  2  1  0
 16 18  1  0
 17 16  2  0
 18 19  1  0
 19 20  1  0
 19 22  1  0
 21 19  1  0
  1 23  1  0
  3 24  1  0
  8 25  1  0
  9 26  1  0
 11 27  1  0
 12 28  1  0
 13 29  1  0
M  ISO  7  23  14  24  14  25  14  26  14  27  14  28  14  29  11
M  END
>  <minimizedAffinity>  (1) 
-4.7397933

>  <minimizedRMSD>  (1) 
4.68843889

$$$$
