
     RDKit          3D

 21 22  0  0  0  0  0  0  0  0999 V2000
   37.8590   26.1990   35.7690 C   0  0  0  0  0  0  0  0  0  0  0  0
   38.0230   24.8790   35.3200 C   0  0  0  0  0  0  0  0  0  0  0  0
   37.8070   24.5650   33.9750 C   0  0  0  0  0  0  0  0  0  0  0  0
   37.4430   25.5680   33.1560 N   0  0  0  0  0  0  0  0  0  0  0  0
   37.2890   26.8310   33.6010 C   0  0  0  0  0  0  0  0  0  0  0  0
   37.4980   27.1410   34.9090 N   0  0  0  0  0  0  0  0  0  0  0  0
   36.8920   27.7960   32.5820 C   0  0  0  0  0  0  0  0  0  0  0  0
   35.6600   28.3720   32.5550 N   0  0  0  0  0  0  0  0  0  0  0  0
   35.5810   29.1940   31.5360 O   0  0  0  0  0  0  0  0  0  0  0  0
   36.7330   29.1850   30.8730 C   0  0  0  0  0  0  0  0  0  0  0  0
   37.5450   28.3140   31.5280 N   0  0  0  0  0  0  0  0  0  0  0  0
   38.4090   23.7580   36.1380 C   0  0  0  0  0  0  0  0  0  0  0  0
   38.1750   22.5320   35.8960 O   0  0  0  0  0  0  0  0  0  0  0  0
   39.1010   23.7660   37.3370 O   0  0  0  0  0  0  0  0  0  0  0  0
   38.4070   23.8960   38.5850 C   0  0  0  0  0  0  0  0  0  0  0  0
   37.4490   22.8940   38.7080 F   0  0  0  0  0  0  0  0  0  0  0  0
   37.8540   25.1570   38.7160 F   0  0  0  0  0  0  0  0  0  0  0  0
   39.3300   23.7010   39.5990 F   0  0  0  0  0  0  0  0  0  0  0  0
   38.0288   26.4497   36.8265 H   0  0  0  0  0  0  0  0  0  0  0  0
   37.9299   23.5378   33.6011 H   0  0  0  0  0  0  0  0  0  0  0  0
   36.9801   29.7670   29.9729 H   0  0  0  0  0  0  0  0  0  0  0  0
  2  1  2  0
  2 12  1  0
  3  2  1  0
  4  5  1  0
  4  3  2  0
  5  6  2  0
  6  1  1  0
  7  5  1  0
  8  7  2  0
  9  8  1  0
 10 11  2  0
 10  9  1  0
 11  7  1  0
 12 14  1  0
 13 12  2  0
 14 15  1  0
 15 16  1  0
 15 17  1  0
 15 18  1  0
  1 19  1  0
  3 20  1  0
 10 21  1  0
M  ISO  3  19  14  20  14  21  14
M  END
>  <minimizedAffinity>  (1) 
-4.62868881

>  <minimizedRMSD>  (1) 
3.76411438

$$$$
