
     RDKit          3D

 32 33  0  0  0  0  0  0  0  0999 V2000
   39.2290   26.0030   35.3140 C   0  0  0  0  0  0  0  0  0  0  0  0
   39.5960   24.6760   35.4940 C   0  0  0  0  0  0  0  0  0  0  0  0
   40.8300   24.2350   35.0130 C   0  0  0  0  0  0  0  0  0  0  0  0
   41.6240   25.1280   34.3840 N   0  0  0  0  0  0  0  0  0  0  0  0
   41.2480   26.4120   34.2190 C   0  0  0  0  0  0  0  0  0  0  0  0
   40.0490   26.8550   34.6840 N   0  0  0  0  0  0  0  0  0  0  0  0
   42.2430   27.2480   33.5080 C   0  0  0  0  0  0  0  0  0  0  0  0
   43.6070   26.5650   33.4460 C   0  0  0  0  0  0  0  0  0  0  0  0
   44.5970   27.6630   33.1000 C   0  0  0  0  0  0  0  0  0  0  0  0
   44.2410   28.3670   31.8220 C   0  0  0  0  0  0  0  0  0  0  0  0
   42.8020   28.6670   31.6220 C   0  0  0  0  0  0  0  0  0  0  0  0
   41.8670   27.5670   32.0880 C   0  0  0  0  0  0  0  0  0  0  0  0
   38.8150   23.6720   36.1490 C   0  0  0  0  0  0  0  0  0  0  0  0
   37.7950   23.0820   35.6910 O   0  0  0  0  0  0  0  0  0  0  0  0
   39.0030   23.1290   37.4150 O   0  0  0  0  0  0  0  0  0  0  0  0
   38.3440   23.6860   38.5680 C   0  0  0  0  0  0  0  0  0  0  0  0
   37.3480   22.8110   39.0020 F   0  0  0  0  0  0  0  0  0  0  0  0
   37.8480   24.9440   38.2880 F   0  0  0  0  0  0  0  0  0  0  0  0
   39.2760   23.7740   39.5780 F   0  0  0  0  0  0  0  0  0  0  0  0
   38.2583   26.3572   35.6912 H   0  0  0  0  0  0  0  0  0  0  0  0
   41.1467   23.1896   35.1427 H   0  0  0  0  0  0  0  0  0  0  0  0
   42.2760   28.1774   34.0954 H   0  0  0  0  0  0  0  0  0  0  0  0
   43.8562   26.1156   34.4186 H   0  0  0  0  0  0  0  0  0  0  0  0
   43.6229   25.7534   32.7037 H   0  0  0  0  0  0  0  0  0  0  0  0
   44.6100   28.3986   33.9177 H   0  0  0  0  0  0  0  0  0  0  0  0
   45.5841   27.1968   32.9646 H   0  0  0  0  0  0  0  0  0  0  0  0
   44.7895   29.3202   31.7992 H   0  0  0  0  0  0  0  0  0  0  0  0
   44.5129   27.6707   31.0150 H   0  0  0  0  0  0  0  0  0  0  0  0
   42.5602   29.5843   32.1789 H   0  0  0  0  0  0  0  0  0  0  0  0
   42.6490   28.7738   30.5379 H   0  0  0  0  0  0  0  0  0  0  0  0
   40.8236   27.9122   32.0412 H   0  0  0  0  0  0  0  0  0  0  0  0
   41.9553   26.6771   31.4475 H   0  0  0  0  0  0  0  0  0  0  0  0
  1  2  2  0
  2 13  1  0
  3  2  1  0
  4  3  2  0
  5  4  1  0
  5  6  2  0
  6  1  1  0
  7  5  1  0
  8  7  1  0
  9  8  1  0
 10  9  1  0
 11 10  1  0
 11 12  1  0
 12  7  1  0
 13 15  1  0
 14 13  2  0
 15 16  1  0
 16 17  1  0
 16 19  1  0
 18 16  1  0
  1 20  1  0
  3 21  1  0
  7 22  1  0
  8 23  1  0
  8 24  1  0
  9 25  1  0
  9 26  1  0
 10 27  1  0
 10 28  1  0
 11 29  1  0
 11 30  1  0
 12 31  1  0
 12 32  1  0
M  ISO  8  20  14  21  14  22  13  23  13  24  13  25  13  26  13  27  13
M  ISO  5  28  13  29  13  30  13  31  13  32  13
M  END
>  <minimizedAffinity>  (1) 
-4.45585728

>  <minimizedRMSD>  (1) 
0.447425902

$$$$
