
     RDKit          3D

 29 30  0  0  0  0  0  0  0  0999 V2000
   39.3490   25.8690   35.1480 C   0  0  0  0  0  0  0  0  0  0  0  0
   39.7360   24.5830   35.5130 C   0  0  0  0  0  0  0  0  0  0  0  0
   41.0440   24.1450   35.2970 C   0  0  0  0  0  0  0  0  0  0  0  0
   41.8950   25.0180   34.7300 N   0  0  0  0  0  0  0  0  0  0  0  0
   41.5160   26.2620   34.3810 C   0  0  0  0  0  0  0  0  0  0  0  0
   40.2460   26.6930   34.5870 N   0  0  0  0  0  0  0  0  0  0  0  0
   42.3900   27.2800   33.7520 C   0  0  0  0  0  0  0  0  0  0  0  0
   43.7470   26.7500   33.3810 C   0  0  0  0  0  0  0  0  0  0  0  0
   44.2980   27.8670   32.5190 C   0  0  0  0  0  0  0  0  0  0  0  0
   43.1080   28.2120   31.6490 C   0  0  0  0  0  0  0  0  0  0  0  0
   41.8740   27.7030   32.3840 C   0  0  0  0  0  0  0  0  0  0  0  0
   38.8810   23.5940   36.1230 C   0  0  0  0  0  0  0  0  0  0  0  0
   37.8690   23.0360   35.6010 O   0  0  0  0  0  0  0  0  0  0  0  0
   38.9920   23.0480   37.4130 O   0  0  0  0  0  0  0  0  0  0  0  0
   38.3190   23.6680   38.5190 C   0  0  0  0  0  0  0  0  0  0  0  0
   37.3210   22.8370   38.9870 F   0  0  0  0  0  0  0  0  0  0  0  0
   37.8770   24.9220   38.1930 F   0  0  0  0  0  0  0  0  0  0  0  0
   39.2570   23.7580   39.5380 F   0  0  0  0  0  0  0  0  0  0  0  0
   38.3161   26.2067   35.3182 H   0  0  0  0  0  0  0  0  0  0  0  0
   41.3641   23.1308   35.5782 H   0  0  0  0  0  0  0  0  0  0  0  0
   42.4174   28.0785   34.5080 H   0  0  0  0  0  0  0  0  0  0  0  0
   44.3705   26.5890   34.2728 H   0  0  0  0  0  0  0  0  0  0  0  0
   43.7181   25.7735   32.8755 H   0  0  0  0  0  0  0  0  0  0  0  0
   44.6085   28.7272   33.1303 H   0  0  0  0  0  0  0  0  0  0  0  0
   45.1959   27.5851   31.9495 H   0  0  0  0  0  0  0  0  0  0  0  0
   43.1974   27.7192   30.6696 H   0  0  0  0  0  0  0  0  0  0  0  0
   43.0463   29.2956   31.4702 H   0  0  0  0  0  0  0  0  0  0  0  0
   41.1233   28.5011   32.4817 H   0  0  0  0  0  0  0  0  0  0  0  0
   41.3812   26.8771   31.8501 H   0  0  0  0  0  0  0  0  0  0  0  0
  1  2  2  0
  2 12  1  0
  3  2  1  0
  4  3  2  0
  5  6  2  0
  5  4  1  0
  6  1  1  0
  7  5  1  0
  8  7  1  0
  9  8  1  0
 10 11  1  0
 10  9  1  0
 11  7  1  0
 12 14  1  0
 13 12  2  0
 14 15  1  0
 15 16  1  0
 15 18  1  0
 17 15  1  0
  1 19  1  0
  3 20  1  0
  7 21  1  0
  8 22  1  0
  8 23  1  0
  9 24  1  0
  9 25  1  0
 10 26  1  0
 10 27  1  0
 11 28  1  0
 11 29  1  0
M  ISO  8  19  14  20  14  21  13  22  13  23  13  24  13  25  13  26  13
M  ISO  3  27  13  28  13  29  13
M  END
>  <minimizedAffinity>  (1) 
-4.35645437

>  <minimizedRMSD>  (1) 
0.80140841

$$$$
