
     RDKit          3D

 23 24  0  0  0  0  0  0  0  0999 V2000
   40.0370   25.7630   35.1090 C   0  0  0  0  0  0  0  0  0  0  0  0
   40.1340   24.4220   35.4830 C   0  0  0  0  0  0  0  0  0  0  0  0
   41.3600   23.7460   35.3840 C   0  0  0  0  0  0  0  0  0  0  0  0
   42.4100   24.4470   34.9200 N   0  0  0  0  0  0  0  0  0  0  0  0
   42.3100   25.7410   34.5620 C   0  0  0  0  0  0  0  0  0  0  0  0
   41.1250   26.3900   34.6580 N   0  0  0  0  0  0  0  0  0  0  0  0
   43.3970   26.5150   34.0670 N   0  0  0  0  0  0  0  0  0  0  0  0
   44.4100   26.5960   34.9300 N   0  0  0  0  0  0  0  0  0  0  0  0
   45.3970   27.3510   34.3740 C   0  0  0  0  0  0  0  0  0  0  0  0
   44.9720   27.7560   33.1040 C   0  0  0  0  0  0  0  0  0  0  0  0
   43.6960   27.2020   32.9500 C   0  0  0  0  0  0  0  0  0  0  0  0
   39.0610   23.6080   35.9850 C   0  0  0  0  0  0  0  0  0  0  0  0
   37.9910   23.3060   35.3660 O   0  0  0  0  0  0  0  0  0  0  0  0
   38.9560   22.9850   37.2270 O   0  0  0  0  0  0  0  0  0  0  0  0
   38.3370   23.6660   38.3260 C   0  0  0  0  0  0  0  0  0  0  0  0
   37.2580   22.9360   38.8020 F   0  0  0  0  0  0  0  0  0  0  0  0
   37.9940   24.9610   37.9840 F   0  0  0  0  0  0  0  0  0  0  0  0
   39.2770   23.7080   39.3500 F   0  0  0  0  0  0  0  0  0  0  0  0
   39.0774   26.2954   35.1849 H   0  0  0  0  0  0  0  0  0  0  0  0
   41.4579   22.6892   35.6732 H   0  0  0  0  0  0  0  0  0  0  0  0
   46.3610   27.5994   34.8419 H   0  0  0  0  0  0  0  0  0  0  0  0
   45.5225   28.3766   32.3817 H   0  0  0  0  0  0  0  0  0  0  0  0
   43.0488   27.3099   32.0671 H   0  0  0  0  0  0  0  0  0  0  0  0
  1  2  2  0
  2 12  1  0
  3  2  1  0
  4  3  2  0
  5  6  2  0
  5  4  1  0
  6  1  1  0
  7  5  1  0
  7  8  1  0
  9  8  2  0
 10  9  1  0
 11 10  2  0
 11  7  1  0
 12 14  1  0
 13 12  2  0
 14 15  1  0
 15 16  1  0
 15 18  1  0
 17 15  1  0
  1 19  1  0
  3 20  1  0
  9 21  1  0
 10 22  1  0
 11 23  1  0
M  ISO  5  19  14  20  14  21  14  22  14  23  14
M  END
>  <minimizedAffinity>  (1) 
-4.30706978

>  <minimizedRMSD>  (1) 
1.53036487

$$$$
