
     RDKit          3D

 19 19  0  0  0  0  0  0  0  0999 V2000
   39.3330   25.8590   35.1530 C   0  0  0  0  0  0  0  0  0  0  0  0
   39.7000   24.5730   35.5180 C   0  0  0  0  0  0  0  0  0  0  0  0
   41.0120   24.1620   35.2820 C   0  0  0  0  0  0  0  0  0  0  0  0
   41.8690   25.0340   34.7070 N   0  0  0  0  0  0  0  0  0  0  0  0
   41.4790   26.2760   34.3640 C   0  0  0  0  0  0  0  0  0  0  0  0
   40.2010   26.6900   34.5900 N   0  0  0  0  0  0  0  0  0  0  0  0
   38.8680   23.5890   36.1280 C   0  0  0  0  0  0  0  0  0  0  0  0
   37.8630   23.0260   35.6160 O   0  0  0  0  0  0  0  0  0  0  0  0
   38.9800   23.0460   37.4060 O   0  0  0  0  0  0  0  0  0  0  0  0
   38.3250   23.6550   38.5220 C   0  0  0  0  0  0  0  0  0  0  0  0
   37.3100   22.8300   38.9910 F   0  0  0  0  0  0  0  0  0  0  0  0
   37.8760   24.9240   38.2060 F   0  0  0  0  0  0  0  0  0  0  0  0
   39.2630   23.7550   39.5350 F   0  0  0  0  0  0  0  0  0  0  0  0
   42.3540   27.2630   33.7410 C   0  0  0  0  0  0  0  0  0  0  0  0
   42.0890   27.8780   32.6760 O   0  0  0  0  0  0  0  0  0  0  0  0
   43.5820   27.6430   34.2410 O   0  0  0  0  0  0  0  0  0  0  0  0
   38.3020   26.1973   35.3336 H   0  0  0  0  0  0  0  0  0  0  0  0
   41.3418   23.1496   35.5581 H   0  0  0  0  0  0  0  0  0  0  0  0
   44.1228   28.3208   33.7632 H   0  0  0  0  0  0  0  0  0  0  0  0
  1  2  2  0
  2  7  1  0
  3  2  1  0
  4  3  2  0
  5  6  2  0
  5  4  1  0
  6  1  1  0
  7  9  1  0
  8  7  2  0
  9 10  1  0
 10 11  1  0
 10 13  1  0
 12 10  1  0
 14 16  1  0
 14  5  1  0
 15 14  2  0
  1 17  1  0
  3 18  1  0
 16 19  1  0
M  ISO  3  17  14  18  14  19   3
M  END
>  <minimizedAffinity>  (1) 
-4.43010569

>  <minimizedRMSD>  (1) 
0.520656049

$$$$
