
     RDKit          3D

 24 25  0  0  0  0  0  0  0  0999 V2000
   39.5970   26.0590   35.1960 C   0  0  0  0  0  0  0  0  0  0  0  0
   39.8390   24.7110   35.4150 C   0  0  0  0  0  0  0  0  0  0  0  0
   41.0180   24.1210   34.9480 C   0  0  0  0  0  0  0  0  0  0  0  0
   41.8910   24.9000   34.2920 N   0  0  0  0  0  0  0  0  0  0  0  0
   41.6520   26.2160   34.0810 C   0  0  0  0  0  0  0  0  0  0  0  0
   40.5180   26.7830   34.5290 N   0  0  0  0  0  0  0  0  0  0  0  0
   42.6330   27.0260   33.3600 C   0  0  0  0  0  0  0  0  0  0  0  0
   42.2310   27.8190   32.3090 C   0  0  0  0  0  0  0  0  0  0  0  0
   43.1840   28.5610   31.6620 C   0  0  0  0  0  0  0  0  0  0  0  0
   44.4800   28.5320   32.0250 N   0  0  0  0  0  0  0  0  0  0  0  0
   44.8800   27.7600   33.0510 C   0  0  0  0  0  0  0  0  0  0  0  0
   43.9490   27.0470   33.6680 N   0  0  0  0  0  0  0  0  0  0  0  0
   38.9630   23.8080   36.1030 C   0  0  0  0  0  0  0  0  0  0  0  0
   37.8700   23.3280   35.6760 O   0  0  0  0  0  0  0  0  0  0  0  0
   39.1240   23.2670   37.3770 O   0  0  0  0  0  0  0  0  0  0  0  0
   38.4010   23.8000   38.4960 C   0  0  0  0  0  0  0  0  0  0  0  0
   37.3460   22.9570   38.8270 F   0  0  0  0  0  0  0  0  0  0  0  0
   37.9890   25.0780   38.2500 F   0  0  0  0  0  0  0  0  0  0  0  0
   39.2610   23.8030   39.5720 F   0  0  0  0  0  0  0  0  0  0  0  0
   38.6711   26.5285   35.5597 H   0  0  0  0  0  0  0  0  0  0  0  0
   41.2227   23.0529   35.1133 H   0  0  0  0  0  0  0  0  0  0  0  0
   41.1765   27.8559   31.9980 H   0  0  0  0  0  0  0  0  0  0  0  0
   42.8807   29.2003   30.8198 H   0  0  0  0  0  0  0  0  0  0  0  0
   45.9338   27.7221   33.3642 H   0  0  0  0  0  0  0  0  0  0  0  0
  1  2  2  0
  2 13  1  0
  3  2  1  0
  4  3  2  0
  5  4  1  0
  5  6  2  0
  6  1  1  0
  7 12  1  0
  7  5  1  0
  8  7  2  0
  9 10  2  0
  9  8  1  0
 10 11  1  0
 11 12  2  0
 13 15  1  0
 14 13  2  0
 15 16  1  0
 16 17  1  0
 16 19  1  0
 18 16  1  0
  1 20  1  0
  3 21  1  0
  8 22  1  0
  9 23  1  0
 11 24  1  0
M  ISO  5  20  14  21  14  22  14  23  14  24  14
M  END
>  <minimizedAffinity>  (1) 
-4.27867985

>  <minimizedRMSD>  (1) 
1.05619371

$$$$
