
     RDKit          3D

 22 22  0  0  0  0  0  0  0  0999 V2000
   39.4770   25.8640   35.1550 C   0  0  0  0  0  0  0  0  0  0  0  0
   39.8220   24.5660   35.5140 C   0  0  0  0  0  0  0  0  0  0  0  0
   41.1280   24.0990   35.2990 C   0  0  0  0  0  0  0  0  0  0  0  0
   41.9930   24.9630   34.7410 N   0  0  0  0  0  0  0  0  0  0  0  0
   41.6480   26.2180   34.3980 C   0  0  0  0  0  0  0  0  0  0  0  0
   40.3990   26.6650   34.6040 N   0  0  0  0  0  0  0  0  0  0  0  0
   38.9450   23.5960   36.1130 C   0  0  0  0  0  0  0  0  0  0  0  0
   37.9290   23.0570   35.5710 O   0  0  0  0  0  0  0  0  0  0  0  0
   39.0180   23.0470   37.3960 O   0  0  0  0  0  0  0  0  0  0  0  0
   38.3350   23.6730   38.4900 C   0  0  0  0  0  0  0  0  0  0  0  0
   37.3150   22.8410   38.9450 F   0  0  0  0  0  0  0  0  0  0  0  0
   37.8870   24.9170   38.1510 F   0  0  0  0  0  0  0  0  0  0  0  0
   39.2570   23.7710   39.5280 F   0  0  0  0  0  0  0  0  0  0  0  0
   42.6430   27.1350   33.7840 C   0  0  0  0  0  0  0  0  0  0  0  0
   42.0390   27.7450   32.5120 C   0  0  0  0  0  0  0  0  0  0  0  0
   38.4536   26.2311   35.3222 H   0  0  0  0  0  0  0  0  0  0  0  0
   41.4285   23.0770   35.5735 H   0  0  0  0  0  0  0  0  0  0  0  0
   42.8941   27.9364   34.4944 H   0  0  0  0  0  0  0  0  0  0  0  0
   43.5573   26.5777   33.5320 H   0  0  0  0  0  0  0  0  0  0  0  0
   41.2898   28.5016   32.7882 H   0  0  0  0  0  0  0  0  0  0  0  0
   42.8353   28.2173   31.9180 H   0  0  0  0  0  0  0  0  0  0  0  0
   41.5589   26.9534   31.9180 H   0  0  0  0  0  0  0  0  0  0  0  0
  1  2  2  0
  2  7  1  0
  3  2  1  0
  4  3  2  0
  5  6  2  0
  5  4  1  0
  6  1  1  0
  7  9  1  0
  8  7  2  0
  9 10  1  0
 10 11  1  0
 10 13  1  0
 12 10  1  0
 14  5  1  0
 15 14  1  0
  1 16  1  0
  3 17  1  0
 14 18  1  0
 14 19  1  0
 15 20  1  0
 15 21  1  0
 15 22  1  0
M  ISO  7  16  14  17  14  18   8  19   8  20   8  21   8  22   8
M  END
>  <minimizedAffinity>  (1) 
-4.02044296

>  <minimizedRMSD>  (1) 
0.660950661

$$$$
