
     RDKit          3D

 23 24  0  0  0  0  0  0  0  0999 V2000
   39.4970   25.8570   35.1560 C   0  0  0  0  0  0  0  0  0  0  0  0
   39.7980   24.5370   35.4570 C   0  0  0  0  0  0  0  0  0  0  0  0
   41.0250   23.9870   35.0700 C   0  0  0  0  0  0  0  0  0  0  0  0
   41.8870   24.7860   34.4010 N   0  0  0  0  0  0  0  0  0  0  0  0
   41.5810   26.0650   34.1150 C   0  0  0  0  0  0  0  0  0  0  0  0
   40.3880   26.6050   34.4900 N   0  0  0  0  0  0  0  0  0  0  0  0
   42.5600   26.9200   33.3710 C   0  0  0  0  0  0  0  0  0  0  0  0
   42.1330   27.7660   32.3320 C   0  0  0  0  0  0  0  0  0  0  0  0
   43.1070   28.5040   31.7180 C   0  0  0  0  0  0  0  0  0  0  0  0
   44.4350   28.3710   32.1540 C   0  0  0  0  0  0  0  0  0  0  0  0
   44.2570   27.0910   33.5480 S   0  0  0  0  0  0  0  0  0  0  0  0
   38.9580   23.6170   36.1580 C   0  0  0  0  0  0  0  0  0  0  0  0
   37.8900   23.0800   35.7130 O   0  0  0  0  0  0  0  0  0  0  0  0
   39.1100   23.1160   37.4400 O   0  0  0  0  0  0  0  0  0  0  0  0
   38.3850   23.7100   38.5380 C   0  0  0  0  0  0  0  0  0  0  0  0
   37.3600   22.8700   38.9440 F   0  0  0  0  0  0  0  0  0  0  0  0
   37.9340   24.9670   38.2120 F   0  0  0  0  0  0  0  0  0  0  0  0
   39.2590   23.7910   39.6030 F   0  0  0  0  0  0  0  0  0  0  0  0
   38.5323   26.2878   35.4621 H   0  0  0  0  0  0  0  0  0  0  0  0
   41.2794   22.9422   35.3016 H   0  0  0  0  0  0  0  0  0  0  0  0
   41.0770   27.8304   32.0307 H   0  0  0  0  0  0  0  0  0  0  0  0
   42.8542   29.1903   30.8963 H   0  0  0  0  0  0  0  0  0  0  0  0
   45.3406   28.8751   31.7856 H   0  0  0  0  0  0  0  0  0  0  0  0
  1  2  2  0
  2 12  1  0
  3  2  1  0
  4  3  2  0
  5  4  1  0
  5  6  2  0
  6  1  1  0
  7 11  1  0
  7  5  1  0
  8  7  2  0
  9 10  2  0
  9  8  1  0
 10 11  1  0
 12 14  1  0
 13 12  2  0
 14 15  1  0
 15 16  1  0
 15 18  1  0
 17 15  1  0
  1 19  1  0
  3 20  1  0
  8 21  1  0
  9 22  1  0
 10 23  1  0
M  ISO  5  19  14  20  14  21  14  22  14  23  14
M  END
>  <minimizedAffinity>  (1) 
-4.16450834

>  <minimizedRMSD>  (1) 
0.920825362

$$$$
