
     RDKit          3D

 23 24  0  0  0  0  0  0  0  0999 V2000
   39.3190   25.8420   35.0940 C   0  0  0  0  0  0  0  0  0  0  0  0
   39.7080   24.5720   35.5150 C   0  0  0  0  0  0  0  0  0  0  0  0
   41.0380   24.1470   35.3340 C   0  0  0  0  0  0  0  0  0  0  0  0
   41.8920   25.0220   34.7440 N   0  0  0  0  0  0  0  0  0  0  0  0
   41.4850   26.2510   34.3450 C   0  0  0  0  0  0  0  0  0  0  0  0
   40.2080   26.6490   34.5230 N   0  0  0  0  0  0  0  0  0  0  0  0
   42.4890   27.1540   33.7040 C   0  0  0  0  0  0  0  0  0  0  0  0
   43.0260   26.7050   32.3370 C   0  0  0  0  0  0  0  0  0  0  0  0
   42.1600   27.9010   32.4860 C   0  0  0  0  0  0  0  0  0  0  0  0
   38.8760   23.5850   36.1450 C   0  0  0  0  0  0  0  0  0  0  0  0
   37.8670   23.0160   35.6330 O   0  0  0  0  0  0  0  0  0  0  0  0
   38.9960   23.0550   37.4180 O   0  0  0  0  0  0  0  0  0  0  0  0
   38.3330   23.6640   38.5370 C   0  0  0  0  0  0  0  0  0  0  0  0
   37.3230   22.8360   38.9950 F   0  0  0  0  0  0  0  0  0  0  0  0
   37.8820   24.9290   38.2110 F   0  0  0  0  0  0  0  0  0  0  0  0
   39.2620   23.7670   39.5610 F   0  0  0  0  0  0  0  0  0  0  0  0
   38.2802   26.1757   35.2336 H   0  0  0  0  0  0  0  0  0  0  0  0
   41.3707   23.1494   35.6566 H   0  0  0  0  0  0  0  0  0  0  0  0
   42.9020   27.4465   34.6806 H   0  0  0  0  0  0  0  0  0  0  0  0
   42.6368   25.7936   31.8596 H   0  0  0  0  0  0  0  0  0  0  0  0
   44.0175   26.4972   31.9083 H   0  0  0  0  0  0  0  0  0  0  0  0
   42.5876   28.9027   32.3321 H   0  0  0  0  0  0  0  0  0  0  0  0
   41.2160   28.2203   32.0203 H   0  0  0  0  0  0  0  0  0  0  0  0
  1  2  2  0
  2 10  1  0
  3  2  1  0
  4  3  2  0
  5  6  2  0
  5  4  1  0
  6  1  1  0
  7  5  1  0
  8  9  1  0
  8  7  1  0
  9  7  1  0
 10 12  1  0
 11 10  2  0
 12 13  1  0
 13 14  1  0
 13 16  1  0
 15 13  1  0
  1 17  1  0
  3 18  1  0
  7 19  1  0
  8 20  1  0
  8 21  1  0
  9 22  1  0
  9 23  1  0
M  ISO  7  17  14  18  14  19  13  20  13  21  13  22  13  23  13
M  END
>  <minimizedAffinity>  (1) 
-4.07260656

>  <minimizedRMSD>  (1) 
0.469065279

$$$$
