
     RDKit          3D

 17 17  0  0  0  0  0  0  0  0999 V2000
   39.1280   26.0300   35.3780 C   0  0  0  0  0  0  0  0  0  0  0  0
   39.5060   24.6970   35.4500 C   0  0  0  0  0  0  0  0  0  0  0  0
   40.6470   24.2350   34.7740 C   0  0  0  0  0  0  0  0  0  0  0  0
   41.3420   25.1500   34.0630 N   0  0  0  0  0  0  0  0  0  0  0  0
   40.9600   26.4400   34.0030 C   0  0  0  0  0  0  0  0  0  0  0  0
   39.8580   26.8840   34.6580 N   0  0  0  0  0  0  0  0  0  0  0  0
   38.8160   23.6680   36.1870 C   0  0  0  0  0  0  0  0  0  0  0  0
   37.8210   22.9940   35.8190 O   0  0  0  0  0  0  0  0  0  0  0  0
   39.1160   23.2020   37.4780 O   0  0  0  0  0  0  0  0  0  0  0  0
   38.3830   23.6990   38.6100 C   0  0  0  0  0  0  0  0  0  0  0  0
   37.4270   22.7830   39.0090 F   0  0  0  0  0  0  0  0  0  0  0  0
   37.8560   24.9400   38.3540 F   0  0  0  0  0  0  0  0  0  0  0  0
   39.2870   23.8190   39.6560 F   0  0  0  0  0  0  0  0  0  0  0  0
   41.9860   27.5440   33.0150 S   0  0  0  0  0  0  0  0  0  0  0  0
   38.2320   26.3807   35.9112 H   0  0  0  0  0  0  0  0  0  0  0  0
   40.9592   23.1813   34.8210 H   0  0  0  0  0  0  0  0  0  0  0  0
   42.7281   28.3425   33.8449 H   0  0  0  0  0  0  0  0  0  0  0  0
  1  2  2  0
  2  7  1  0
  3  2  1  0
  4  3  2  0
  5  4  1  0
  5  6  2  0
  6  1  1  0
  7  9  1  0
  8  7  2  0
  9 10  1  0
 10 11  1  0
 10 13  1  0
 12 10  1  0
 14  5  1  0
  1 15  1  0
  3 16  1  0
 14 17  1  0
M  ISO  3  15  14  16  14  17  11
M  END
>  <minimizedAffinity>  (1) 
-3.87165022

>  <minimizedRMSD>  (1) 
0.333861113

$$$$
