
     RDKit          3D

 28 30  0  0  0  0  0  0  0  0999 V2000
   40.8180   24.8230   35.0200 C   0  0  0  0  0  0  0  0  0  0  0  0
   40.4050   23.6760   35.7470 C   0  0  0  0  0  0  0  0  0  0  0  0
   39.0430   23.3710   35.6450 C   0  0  0  0  0  0  0  0  0  0  0  0
   38.2200   24.1540   34.8870 N   0  0  0  0  0  0  0  0  0  0  0  0
   38.6770   25.2230   34.2260 C   0  0  0  0  0  0  0  0  0  0  0  0
   39.9640   25.5480   34.2960 N   0  0  0  0  0  0  0  0  0  0  0  0
   37.7850   26.0240   33.4390 N   0  0  0  0  0  0  0  0  0  0  0  0
   37.5830   27.3530   33.3680 C   0  0  0  0  0  0  0  0  0  0  0  0
   36.6090   27.5510   32.4470 N   0  0  0  0  0  0  0  0  0  0  0  0
   36.2170   26.3590   31.9560 C   0  0  0  0  0  0  0  0  0  0  0  0
   35.2480   26.1280   30.9990 C   0  0  0  0  0  0  0  0  0  0  0  0
   35.0550   24.8190   30.6900 N   0  0  0  0  0  0  0  0  0  0  0  0
   35.7800   23.8570   31.3000 C   0  0  0  0  0  0  0  0  0  0  0  0
   36.7110   24.0950   32.2220 N   0  0  0  0  0  0  0  0  0  0  0  0
   36.9520   25.3760   32.5750 C   0  0  0  0  0  0  0  0  0  0  0  0
   41.3050   22.8980   36.5190 N   0  0  0  0  0  0  0  0  0  0  0  0
   40.9160   22.0160   37.5510 C   0  0  0  0  0  0  0  0  0  0  0  0
   39.9250   22.4300   38.3180 N   0  0  0  0  0  0  0  0  0  0  0  0
   41.6500   20.7740   37.6360 N   0  0  0  0  0  0  0  0  0  0  0  0
   39.5670   21.8530   39.0950 H   0  0  0  0  0  0  0  0  0  0  0  0
   41.8756   25.1234   35.0548 H   0  0  0  0  0  0  0  0  0  0  0  0
   38.6345   22.4988   36.1765 H   0  0  0  0  0  0  0  0  0  0  0  0
   38.1073   28.1284   33.9459 H   0  0  0  0  0  0  0  0  0  0  0  0
   34.6775   26.9399   30.5244 H   0  0  0  0  0  0  0  0  0  0  0  0
   35.5897   22.8110   31.0176 H   0  0  0  0  0  0  0  0  0  0  0  0
   42.3107   22.9820   36.3130 H   0  0  0  0  0  0  0  0  0  0  0  0
   41.4161   20.0865   38.3664 H   0  0  0  0  0  0  0  0  0  0  0  0
   42.4070   20.5763   36.9661 H   0  0  0  0  0  0  0  0  0  0  0  0
  1  2  2  0
  2 16  1  0
  3  2  1  0
  4  3  2  0
  5  6  2  0
  5  4  1  0
  6  1  1  0
  7  5  1  0
  8  7  1  0
  9  8  2  0
 10  9  1  0
 10 15  2  0
 11 10  1  0
 12 11  2  0
 12 13  1  0
 13 14  2  0
 14 15  1  0
 15  7  1  0
 16 17  1  0
 17 19  1  0
 17 18  2  0
 18 20  1  0
  1 21  1  0
  3 22  1  0
  8 23  1  0
 11 24  1  0
 13 25  1  0
 16 26  1  0
 19 27  1  0
 19 28  1  0
M  ISO  5  21  14  22  14  23  14  24  14  25  14
M  END
>  <minimizedAffinity>  (1) 
-5.57251644

>  <minimizedRMSD>  (1) 
1.43207777

$$$$
