
     RDKit          3D

 34 36  0  0  0  0  0  0  0  0999 V2000
   43.4470   26.3450   34.2530 C   0  0  0  0  0  0  0  0  0  0  0  0
   43.3520   27.0730   33.0700 C   0  0  0  0  0  0  0  0  0  0  0  0
   44.4800   27.7480   32.6900 C   0  0  0  0  0  0  0  0  0  0  0  0
   45.6460   27.7060   33.4430 C   0  0  0  0  0  0  0  0  0  0  0  0
   45.6980   26.9760   34.6050 C   0  0  0  0  0  0  0  0  0  0  0  0
   44.5860   26.3280   34.9530 N   0  0  0  0  0  0  0  0  0  0  0  0
   39.9680   25.5760   35.0490 C   0  0  0  0  0  0  0  0  0  0  0  0
   40.0520   24.2910   35.5430 C   0  0  0  0  0  0  0  0  0  0  0  0
   41.2960   23.6490   35.6200 C   0  0  0  0  0  0  0  0  0  0  0  0
   42.3860   24.3290   35.1990 N   0  0  0  0  0  0  0  0  0  0  0  0
   42.2670   25.5990   34.7140 C   0  0  0  0  0  0  0  0  0  0  0  0
   41.0650   26.2130   34.6430 N   0  0  0  0  0  0  0  0  0  0  0  0
   38.9650   23.4880   36.0130 C   0  0  0  0  0  0  0  0  0  0  0  0
   37.9070   23.1740   35.3800 O   0  0  0  0  0  0  0  0  0  0  0  0
   38.8180   22.8790   37.2460 O   0  0  0  0  0  0  0  0  0  0  0  0
   38.3080   23.5710   38.3770 C   0  0  0  0  0  0  0  0  0  0  0  0
   37.2580   22.8560   38.9390 F   0  0  0  0  0  0  0  0  0  0  0  0
   37.9040   24.8530   38.0080 F   0  0  0  0  0  0  0  0  0  0  0  0
   39.2950   23.6710   39.3290 F   0  0  0  0  0  0  0  0  0  0  0  0
   46.8650   26.8620   35.4720 C   0  0  0  0  0  0  0  0  0  0  0  0
   46.9350   25.9980   36.5450 C   0  0  0  0  0  0  0  0  0  0  0  0
   48.0240   25.8710   37.3800 C   0  0  0  0  0  0  0  0  0  0  0  0
   49.1350   26.6480   37.1480 C   0  0  0  0  0  0  0  0  0  0  0  0
   49.0520   27.5060   36.0740 C   0  0  0  0  0  0  0  0  0  0  0  0
   47.9800   27.6190   35.2680 N   0  0  0  0  0  0  0  0  0  0  0  0
   42.4262   27.1037   32.4767 H   0  0  0  0  0  0  0  0  0  0  0  0
   44.4627   28.3399   31.7630 H   0  0  0  0  0  0  0  0  0  0  0  0
   46.5340   28.2612   33.1064 H   0  0  0  0  0  0  0  0  0  0  0  0
   38.9905   26.0771   34.9901 H   0  0  0  0  0  0  0  0  0  0  0  0
   41.3824   22.6243   36.0106 H   0  0  0  0  0  0  0  0  0  0  0  0
   46.0588   25.3650   36.7488 H   0  0  0  0  0  0  0  0  0  0  0  0
   48.0050   25.1595   38.2187 H   0  0  0  0  0  0  0  0  0  0  0  0
   50.0331   26.5879   37.7804 H   0  0  0  0  0  0  0  0  0  0  0  0
   49.9225   28.1434   35.8599 H   0  0  0  0  0  0  0  0  0  0  0  0
  1 11  1  0
  1  6  1  0
  2  1  2  0
  3  2  1  0
  3  4  2  0
  4  5  1  0
  5  6  2  0
  5 20  1  0
  7  8  2  0
  8  9  1  0
  8 13  1  0
 10  9  2  0
 11 10  1  0
 12 11  2  0
 12  7  1  0
 13 15  1  0
 14 13  2  0
 15 16  1  0
 16 17  1  0
 16 19  1  0
 18 16  1  0
 20 21  2  0
 21 22  1  0
 23 22  2  0
 24 23  1  0
 25 20  1  0
 25 24  2  0
  2 26  1  0
  3 27  1  0
  4 28  1  0
  7 29  1  0
  9 30  1  0
 21 31  1  0
 22 32  1  0
 23 33  1  0
 24 34  1  0
M  ISO  8  26  14  27  14  28  14  29  14  30  14  31  14  32  14  33  14
M  ISO  1  34  14
M  END
>  <minimizedAffinity>  (1) 
-5.0716033

>  <minimizedRMSD>  (1) 
1.65973973

$$$$
