
     RDKit          3D

 32 34  0  0  0  0  0  0  0  0999 V2000
   43.6000   26.3370   34.3500 C   0  0  0  0  0  0  0  0  0  0  0  0
   43.5560   27.0780   33.1720 C   0  0  0  0  0  0  0  0  0  0  0  0
   44.7150   27.7320   32.8270 C   0  0  0  0  0  0  0  0  0  0  0  0
   45.8430   27.6580   33.6010 C   0  0  0  0  0  0  0  0  0  0  0  0
   45.8490   26.9120   34.7670 C   0  0  0  0  0  0  0  0  0  0  0  0
   44.7150   26.2820   35.0860 N   0  0  0  0  0  0  0  0  0  0  0  0
   46.9380   26.7410   35.6680 N   0  0  0  0  0  0  0  0  0  0  0  0
   46.6510   25.9390   36.6780 N   0  0  0  0  0  0  0  0  0  0  0  0
   47.7120   25.8130   37.4970 C   0  0  0  0  0  0  0  0  0  0  0  0
   48.7230   26.5860   36.9620 C   0  0  0  0  0  0  0  0  0  0  0  0
   48.2120   27.1590   35.8140 C   0  0  0  0  0  0  0  0  0  0  0  0
   40.0760   25.6350   35.0110 C   0  0  0  0  0  0  0  0  0  0  0  0
   40.1150   24.3370   35.4990 C   0  0  0  0  0  0  0  0  0  0  0  0
   41.3340   23.6950   35.6060 C   0  0  0  0  0  0  0  0  0  0  0  0
   42.4520   24.3500   35.2320 N   0  0  0  0  0  0  0  0  0  0  0  0
   42.3810   25.6190   34.7590 C   0  0  0  0  0  0  0  0  0  0  0  0
   41.1940   26.2660   34.6470 N   0  0  0  0  0  0  0  0  0  0  0  0
   39.0000   23.5620   35.9170 C   0  0  0  0  0  0  0  0  0  0  0  0
   37.9360   23.3130   35.2530 O   0  0  0  0  0  0  0  0  0  0  0  0
   38.8120   22.9040   37.1330 O   0  0  0  0  0  0  0  0  0  0  0  0
   38.3420   23.5790   38.2880 C   0  0  0  0  0  0  0  0  0  0  0  0
   37.2850   22.8690   38.8650 F   0  0  0  0  0  0  0  0  0  0  0  0
   37.9650   24.8830   37.9710 F   0  0  0  0  0  0  0  0  0  0  0  0
   39.3500   23.6300   39.2200 F   0  0  0  0  0  0  0  0  0  0  0  0
   42.6478   27.1366   32.5541 H   0  0  0  0  0  0  0  0  0  0  0  0
   44.7373   28.3309   31.9046 H   0  0  0  0  0  0  0  0  0  0  0  0
   46.7517   28.1960   33.2932 H   0  0  0  0  0  0  0  0  0  0  0  0
   47.7635   25.2102   38.4157 H   0  0  0  0  0  0  0  0  0  0  0  0
   49.7359   26.7193   37.3697 H   0  0  0  0  0  0  0  0  0  0  0  0
   48.7504   27.8381   35.1366 H   0  0  0  0  0  0  0  0  0  0  0  0
   39.1090   26.1518   34.9228 H   0  0  0  0  0  0  0  0  0  0  0  0
   41.3916   22.6659   35.9902 H   0  0  0  0  0  0  0  0  0  0  0  0
  1 16  1  0
  1  6  1  0
  2  1  2  0
  3  2  1  0
  3  4  2  0
  4  5  1  0
  5  6  2  0
  5  7  1  0
  7 11  1  0
  7  8  1  0
  8  9  2  0
 10  9  1  0
 11 10  2  0
 12 13  2  0
 13 14  1  0
 13 18  1  0
 15 14  2  0
 16 15  1  0
 17 16  2  0
 17 12  1  0
 18 20  1  0
 19 18  2  0
 20 21  1  0
 21 22  1  0
 21 24  1  0
 23 21  1  0
  2 25  1  0
  3 26  1  0
  4 27  1  0
  9 28  1  0
 10 29  1  0
 11 30  1  0
 12 31  1  0
 14 32  1  0
M  ISO  8  25  14  26  14  27  14  28  14  29  14  30  14  31  14  32  14
M  END
>  <minimizedAffinity>  (1) 
-5.18954086

>  <minimizedRMSD>  (1) 
1.64673281

$$$$
