
     RDKit          3D

 31 33  0  0  0  0  0  0  0  0999 V2000
   40.1300   25.6720   34.9940 C   0  0  0  0  0  0  0  0  0  0  0  0
   40.1360   24.3810   35.4860 C   0  0  0  0  0  0  0  0  0  0  0  0
   41.3480   23.7080   35.6350 C   0  0  0  0  0  0  0  0  0  0  0  0
   42.4870   24.3470   35.2900 N   0  0  0  0  0  0  0  0  0  0  0  0
   42.4380   25.6250   34.8060 C   0  0  0  0  0  0  0  0  0  0  0  0
   41.2670   26.2830   34.6600 N   0  0  0  0  0  0  0  0  0  0  0  0
   43.6900   26.3240   34.4280 C   0  0  0  0  0  0  0  0  0  0  0  0
   43.6740   27.0800   33.2450 C   0  0  0  0  0  0  0  0  0  0  0  0
   44.8650   27.7040   32.9480 C   0  0  0  0  0  0  0  0  0  0  0  0
   45.9780   27.5900   33.7520 C   0  0  0  0  0  0  0  0  0  0  0  0
   45.9370   26.8360   34.9000 C   0  0  0  0  0  0  0  0  0  0  0  0
   44.7840   26.2290   35.1930 N   0  0  0  0  0  0  0  0  0  0  0  0
   47.0200   26.6480   35.8030 N   0  0  0  0  0  0  0  0  0  0  0  0
   48.2570   27.1110   35.9840 C   0  0  0  0  0  0  0  0  0  0  0  0
   48.8150   26.5230   37.0660 N   0  0  0  0  0  0  0  0  0  0  0  0
   47.8850   25.6820   37.5480 C   0  0  0  0  0  0  0  0  0  0  0  0
   46.7930   25.7670   36.7670 N   0  0  0  0  0  0  0  0  0  0  0  0
   39.0040   23.6030   35.8840 C   0  0  0  0  0  0  0  0  0  0  0  0
   37.9430   23.3900   35.2150 O   0  0  0  0  0  0  0  0  0  0  0  0
   38.8120   22.9120   37.0820 O   0  0  0  0  0  0  0  0  0  0  0  0
   38.3470   23.5880   38.2490 C   0  0  0  0  0  0  0  0  0  0  0  0
   37.2940   22.8910   38.8230 F   0  0  0  0  0  0  0  0  0  0  0  0
   37.9980   24.9030   37.9480 F   0  0  0  0  0  0  0  0  0  0  0  0
   39.3820   23.6110   39.1740 F   0  0  0  0  0  0  0  0  0  0  0  0
   39.1739   26.2031   34.8762 H   0  0  0  0  0  0  0  0  0  0  0  0
   41.3760   22.6797   36.0248 H   0  0  0  0  0  0  0  0  0  0  0  0
   42.7821   27.1668   32.6070 H   0  0  0  0  0  0  0  0  0  0  0  0
   44.9302   28.3155   32.0360 H   0  0  0  0  0  0  0  0  0  0  0  0
   46.9077   28.1072   33.4724 H   0  0  0  0  0  0  0  0  0  0  0  0
   48.7504   27.8602   35.3475 H   0  0  0  0  0  0  0  0  0  0  0  0
   47.9972   25.0347   38.4303 H   0  0  0  0  0  0  0  0  0  0  0  0
  1  2  2  0
  2  3  1  0
  2 18  1  0
  4  3  2  0
  5  4  1  0
  6  5  2  0
  6  1  1  0
  7  5  1  0
  7 12  1  0
  8  7  2  0
  9  8  1  0
  9 10  2  0
 10 11  1  0
 11 12  2  0
 11 13  1  0
 13 14  1  0
 13 17  1  0
 14 15  2  0
 15 16  1  0
 17 16  2  0
 18 20  1  0
 19 18  2  0
 20 21  1  0
 21 22  1  0
 21 24  1  0
 23 21  1  0
  1 25  1  0
  3 26  1  0
  8 27  1  0
  9 28  1  0
 10 29  1  0
 14 30  1  0
 16 31  1  0
M  ISO  7  25  14  26  14  27  14  28  14  29  14  30  14  31  14
M  END
>  <minimizedAffinity>  (1) 
-5.1069479

>  <minimizedRMSD>  (1) 
1.77180922

$$$$
