
     RDKit          3D

 38 40  0  0  0  0  0  0  0  0999 V2000
   43.2220   26.6000   33.9790 C   0  0  0  0  0  0  0  0  0  0  0  0
   43.0280   27.3060   32.8020 C   0  0  0  0  0  0  0  0  0  0  0  0
   44.1080   28.0170   32.3360 C   0  0  0  0  0  0  0  0  0  0  0  0
   45.3050   28.0240   33.0020 C   0  0  0  0  0  0  0  0  0  0  0  0
   45.4620   27.3060   34.1780 C   0  0  0  0  0  0  0  0  0  0  0  0
   44.4120   26.6160   34.6270 N   0  0  0  0  0  0  0  0  0  0  0  0
   46.6820   27.2550   34.9420 N   0  0  0  0  0  0  0  0  0  0  0  0
   46.6790   26.3350   35.9320 C   0  0  0  0  0  0  0  0  0  0  0  0
   47.7870   26.1980   36.7250 C   0  0  0  0  0  0  0  0  0  0  0  0
   47.8530   25.2100   37.8290 C   0  0  0  0  0  0  0  0  0  0  0  0
   48.8800   27.0210   36.4760 C   0  0  0  0  0  0  0  0  0  0  0  0
   49.9470   26.9700   37.1530 O   0  0  0  0  0  0  0  0  0  0  0  0
   48.8310   27.9200   35.4780 N   0  0  0  0  0  0  0  0  0  0  0  0
   47.7530   28.0650   34.6950 C   0  0  0  0  0  0  0  0  0  0  0  0
   47.6160   28.8750   33.7420 O   0  0  0  0  0  0  0  0  0  0  0  0
   39.8360   25.7260   35.0510 C   0  0  0  0  0  0  0  0  0  0  0  0
   39.9980   24.4290   35.4890 C   0  0  0  0  0  0  0  0  0  0  0  0
   41.2400   23.8200   35.4340 C   0  0  0  0  0  0  0  0  0  0  0  0
   42.2750   24.5420   34.9400 N   0  0  0  0  0  0  0  0  0  0  0  0
   42.0910   25.8240   34.5140 C   0  0  0  0  0  0  0  0  0  0  0  0
   40.8840   26.4000   34.5720 N   0  0  0  0  0  0  0  0  0  0  0  0
   38.9670   23.5830   36.0270 C   0  0  0  0  0  0  0  0  0  0  0  0
   37.8980   23.2120   35.4400 O   0  0  0  0  0  0  0  0  0  0  0  0
   38.8970   22.9910   37.2720 O   0  0  0  0  0  0  0  0  0  0  0  0
   38.3190   23.6580   38.3950 C   0  0  0  0  0  0  0  0  0  0  0  0
   37.2650   22.9000   38.8900 F   0  0  0  0  0  0  0  0  0  0  0  0
   37.9240   24.9310   38.0440 F   0  0  0  0  0  0  0  0  0  0  0  0
   39.2620   23.7330   39.3950 F   0  0  0  0  0  0  0  0  0  0  0  0
   42.0646   27.2977   32.2712 H   0  0  0  0  0  0  0  0  0  0  0  0
   44.0087   28.5947   31.4052 H   0  0  0  0  0  0  0  0  0  0  0  0
   46.1490   28.6041   32.6005 H   0  0  0  0  0  0  0  0  0  0  0  0
   45.7949   25.7022   36.0992 H   0  0  0  0  0  0  0  0  0  0  0  0
   47.8179   25.7361   38.7944 H   0  0  0  0  0  0  0  0  0  0  0  0
   46.9989   24.5207   37.7557 H   0  0  0  0  0  0  0  0  0  0  0  0
   48.7912   24.6404   37.7557 H   0  0  0  0  0  0  0  0  0  0  0  0
   49.6516   28.5191   35.3089 H   0  0  0  0  0  0  0  0  0  0  0  0
   38.8463   26.2040   35.0961 H   0  0  0  0  0  0  0  0  0  0  0  0
   41.3819   22.7854   35.7795 H   0  0  0  0  0  0  0  0  0  0  0  0
  1 20  1  0
  1  6  1  0
  2  1  2  0
  3  2  1  0
  3  4  2  0
  4  5  1  0
  5  6  2  0
  5  7  1  0
  7  8  1  0
  8  9  2  0
  9 10  1  0
 11  9  1  0
 11 12  2  0
 13 11  1  0
 14  7  1  0
 14 13  1  0
 15 14  2  0
 16 17  2  0
 17 22  1  0
 18 17  1  0
 19 18  2  0
 20 21  2  0
 20 19  1  0
 21 16  1  0
 22 24  1  0
 23 22  2  0
 24 25  1  0
 25 26  1  0
 25 28  1  0
 27 25  1  0
  2 29  1  0
  3 30  1  0
  4 31  1  0
  8 32  1  0
 10 33  1  0
 10 34  1  0
 10 35  1  0
 13 36  1  0
 16 37  1  0
 18 38  1  0
M  ISO  8  29  14  30  14  31  14  32  14  33   8  34   8  35   8  36   9
M  ISO  2  37  14  38  14
M  END
>  <minimizedAffinity>  (1) 
-5.63845921

>  <minimizedRMSD>  (1) 
1.2820034

$$$$
