
     RDKit          3D

 39 42  0  0  0  0  0  0  0  0999 V2000
   43.1960   26.6340   33.9210 C   0  0  0  0  0  0  0  0  0  0  0  0
   42.9830   27.2940   32.7030 C   0  0  0  0  0  0  0  0  0  0  0  0
   44.0420   28.0090   32.2150 C   0  0  0  0  0  0  0  0  0  0  0  0
   45.2370   28.0710   32.8860 C   0  0  0  0  0  0  0  0  0  0  0  0
   45.4080   27.4100   34.0780 C   0  0  0  0  0  0  0  0  0  0  0  0
   44.3750   26.7130   34.5520 N   0  0  0  0  0  0  0  0  0  0  0  0
   46.6890   27.4890   34.7750 C   0  0  0  0  0  0  0  0  0  0  0  0
   47.6570   28.4550   34.5930 C   0  0  0  0  0  0  0  0  0  0  0  0
   48.7020   28.2110   35.4040 N   0  0  0  0  0  0  0  0  0  0  0  0
   48.4140   27.0830   36.1150 C   0  0  0  0  0  0  0  0  0  0  0  0
   49.1290   26.3940   37.0770 C   0  0  0  0  0  0  0  0  0  0  0  0
   48.6470   25.2600   37.6790 C   0  0  0  0  0  0  0  0  0  0  0  0
   47.4000   24.8120   37.2910 C   0  0  0  0  0  0  0  0  0  0  0  0
   46.6680   25.4830   36.3320 C   0  0  0  0  0  0  0  0  0  0  0  0
   47.1570   26.6160   35.7360 C   0  0  0  0  0  0  0  0  0  0  0  0
   39.8270   25.7600   35.0570 C   0  0  0  0  0  0  0  0  0  0  0  0
   40.0070   24.4600   35.4930 C   0  0  0  0  0  0  0  0  0  0  0  0
   41.2550   23.8550   35.4150 C   0  0  0  0  0  0  0  0  0  0  0  0
   42.2760   24.5750   34.9020 N   0  0  0  0  0  0  0  0  0  0  0  0
   42.0830   25.8550   34.4770 C   0  0  0  0  0  0  0  0  0  0  0  0
   40.8630   26.4330   34.5580 N   0  0  0  0  0  0  0  0  0  0  0  0
   38.9920   23.6100   36.0520 C   0  0  0  0  0  0  0  0  0  0  0  0
   37.9150   23.2270   35.4960 O   0  0  0  0  0  0  0  0  0  0  0  0
   38.9580   23.0230   37.3140 O   0  0  0  0  0  0  0  0  0  0  0  0
   38.3220   23.6780   38.4160 C   0  0  0  0  0  0  0  0  0  0  0  0
   37.2660   22.9130   38.8850 F   0  0  0  0  0  0  0  0  0  0  0  0
   37.9280   24.9460   38.0650 F   0  0  0  0  0  0  0  0  0  0  0  0
   39.2620   23.7540   39.4410 F   0  0  0  0  0  0  0  0  0  0  0  0
   42.0216   27.2402   32.1713 H   0  0  0  0  0  0  0  0  0  0  0  0
   43.9329   28.5471   31.2618 H   0  0  0  0  0  0  0  0  0  0  0  0
   46.0675   28.6566   32.4648 H   0  0  0  0  0  0  0  0  0  0  0  0
   47.5850   29.2981   33.8902 H   0  0  0  0  0  0  0  0  0  0  0  0
   49.5622   28.7730   35.4751 H   0  0  0  0  0  0  0  0  0  0  0  0
   50.1206   26.7691   37.3702 H   0  0  0  0  0  0  0  0  0  0  0  0
   49.2323   24.7270   38.4428 H   0  0  0  0  0  0  0  0  0  0  0  0
   46.9829   23.9054   37.7537 H   0  0  0  0  0  0  0  0  0  0  0  0
   45.6775   25.1026   36.0419 H   0  0  0  0  0  0  0  0  0  0  0  0
   38.8367   26.2345   35.1216 H   0  0  0  0  0  0  0  0  0  0  0  0
   41.4069   22.8217   35.7603 H   0  0  0  0  0  0  0  0  0  0  0  0
  1 20  1  0
  1  6  1  0
  2  1  2  0
  3  2  1  0
  3  4  2  0
  4  5  1  0
  5  6  2  0
  5  7  1  0
  7 15  1  0
  8  7  2  0
  8  9  1  0
  9 10  1  0
 10 11  2  0
 11 12  1  0
 13 12  2  0
 14 13  1  0
 15 10  1  0
 15 14  2  0
 16 17  2  0
 17 22  1  0
 18 17  1  0
 19 18  2  0
 20 21  2  0
 20 19  1  0
 21 16  1  0
 22 24  1  0
 23 22  2  0
 24 25  1  0
 25 26  1  0
 25 28  1  0
 27 25  1  0
  2 29  1  0
  3 30  1  0
  4 31  1  0
  8 32  1  0
  9 33  1  0
 11 34  1  0
 12 35  1  0
 13 36  1  0
 14 37  1  0
 16 38  1  0
 18 39  1  0
M  ISO  8  29  14  30  14  31  14  32  14  33   9  34  14  35  14  36  14
M  ISO  3  37  14  38  14  39  14
M  END
>  <minimizedAffinity>  (1) 
-5.51455021

>  <minimizedRMSD>  (1) 
1.20381391

$$$$
