
     RDKit          3D

 30 31  0  0  0  0  0  0  0  0999 V2000
   40.3700   24.5220   35.0250 C   0  0  0  0  0  0  0  0  0  0  0  0
   40.2850   23.1930   35.5090 C   0  0  0  0  0  0  0  0  0  0  0  0
   39.1850   22.4950   35.0160 C   0  0  0  0  0  0  0  0  0  0  0  0
   38.3120   23.0840   34.1560 N   0  0  0  0  0  0  0  0  0  0  0  0
   38.4520   24.3470   33.7360 C   0  0  0  0  0  0  0  0  0  0  0  0
   39.4960   25.0540   34.1860 N   0  0  0  0  0  0  0  0  0  0  0  0
   37.4000   24.7050   32.8450 N   0  0  0  0  0  0  0  0  0  0  0  0
   37.0170   25.9730   32.6010 C   0  0  0  0  0  0  0  0  0  0  0  0
   35.9780   26.1630   31.7070 C   0  0  0  0  0  0  0  0  0  0  0  0
   35.5380   27.5490   31.4230 C   0  0  0  0  0  0  0  0  0  0  0  0
   35.3520   25.0870   31.0850 C   0  0  0  0  0  0  0  0  0  0  0  0
   34.4050   25.2950   30.2740 O   0  0  0  0  0  0  0  0  0  0  0  0
   35.7880   23.8400   31.3770 N   0  0  0  0  0  0  0  0  0  0  0  0
   36.8130   23.6490   32.2580 C   0  0  0  0  0  0  0  0  0  0  0  0
   37.1170   22.4530   32.4380 O   0  0  0  0  0  0  0  0  0  0  0  0
   41.2140   22.6230   36.4000 N   0  0  0  0  0  0  0  0  0  0  0  0
   40.8780   21.9700   37.6090 C   0  0  0  0  0  0  0  0  0  0  0  0
   39.8860   22.4980   38.2890 N   0  0  0  0  0  0  0  0  0  0  0  0
   41.6740   20.8010   37.9380 N   0  0  0  0  0  0  0  0  0  0  0  0
   39.5730   22.0830   39.1850 H   0  0  0  0  0  0  0  0  0  0  0  0
   41.2092   25.1462   35.3657 H   0  0  0  0  0  0  0  0  0  0  0  0
   39.0203   21.4527   35.3268 H   0  0  0  0  0  0  0  0  0  0  0  0
   37.5107   26.8240   33.0930 H   0  0  0  0  0  0  0  0  0  0  0  0
   35.3690   28.0815   32.3706 H   0  0  0  0  0  0  0  0  0  0  0  0
   36.3152   28.0690   30.8438 H   0  0  0  0  0  0  0  0  0  0  0  0
   34.6031   27.5255   30.8438 H   0  0  0  0  0  0  0  0  0  0  0  0
   35.3419   23.0264   30.9299 H   0  0  0  0  0  0  0  0  0  0  0  0
   42.2120   22.6861   36.1534 H   0  0  0  0  0  0  0  0  0  0  0  0
   41.4847   20.2761   38.8037 H   0  0  0  0  0  0  0  0  0  0  0  0
   42.4279   20.4967   37.3056 H   0  0  0  0  0  0  0  0  0  0  0  0
  1  2  2  0
  2 16  1  0
  3  2  1  0
  4  3  2  0
  5  4  1  0
  5  6  2  0
  6  1  1  0
  7  5  1  0
  8  7  1  0
  9  8  2  0
 10  9  1  0
 11 13  1  0
 11  9  1  0
 12 11  2  0
 13 14  1  0
 14 15  2  0
 14  7  1  0
 16 17  1  0
 17 19  1  0
 17 18  2  0
 18 20  1  0
  1 21  1  0
  3 22  1  0
  8 23  1  0
 10 24  1  0
 10 25  1  0
 10 26  1  0
 13 27  1  0
 16 28  1  0
 19 29  1  0
 19 30  1  0
M  ISO  7  21  14  22  14  23  14  24   8  25   8  26   8  27   9
M  END
>  <minimizedAffinity>  (1) 
-5.57136583

>  <minimizedRMSD>  (1) 
0.658656597

$$$$
