
     RDKit          3D

 38 40  0  0  0  0  0  0  0  0999 V2000
   43.0030   26.8770   33.6810 C   0  0  0  0  0  0  0  0  0  0  0  0
   42.7240   27.4940   32.4640 C   0  0  0  0  0  0  0  0  0  0  0  0
   43.7480   28.2230   31.9120 C   0  0  0  0  0  0  0  0  0  0  0  0
   44.9830   28.3310   32.5420 C   0  0  0  0  0  0  0  0  0  0  0  0
   45.2060   27.7020   33.7430 C   0  0  0  0  0  0  0  0  0  0  0  0
   44.2130   26.9930   34.2790 N   0  0  0  0  0  0  0  0  0  0  0  0
   39.7530   25.9550   35.0660 C   0  0  0  0  0  0  0  0  0  0  0  0
   39.9660   24.6370   35.4600 C   0  0  0  0  0  0  0  0  0  0  0  0
   41.2030   24.0490   35.2640 C   0  0  0  0  0  0  0  0  0  0  0  0
   42.1750   24.7880   34.6870 N   0  0  0  0  0  0  0  0  0  0  0  0
   41.9350   26.0810   34.3100 C   0  0  0  0  0  0  0  0  0  0  0  0
   40.7410   26.6520   34.4990 N   0  0  0  0  0  0  0  0  0  0  0  0
   39.0080   23.7740   36.0760 C   0  0  0  0  0  0  0  0  0  0  0  0
   37.8940   23.3790   35.5850 O   0  0  0  0  0  0  0  0  0  0  0  0
   39.0620   23.1750   37.3240 O   0  0  0  0  0  0  0  0  0  0  0  0
   38.3970   23.7460   38.4570 C   0  0  0  0  0  0  0  0  0  0  0  0
   37.3220   22.9340   38.8140 F   0  0  0  0  0  0  0  0  0  0  0  0
   37.9910   25.0290   38.1720 F   0  0  0  0  0  0  0  0  0  0  0  0
   39.2730   23.7650   39.5130 F   0  0  0  0  0  0  0  0  0  0  0  0
   48.8530   27.7360   35.9340 C   0  0  0  0  0  0  0  0  0  0  0  0
   47.9480   26.6900   36.0740 C   0  0  0  0  0  0  0  0  0  0  0  0
   46.7720   26.7290   35.3340 C   0  0  0  0  0  0  0  0  0  0  0  0
   46.4710   27.7620   34.4700 C   0  0  0  0  0  0  0  0  0  0  0  0
   47.3900   28.7840   34.3550 C   0  0  0  0  0  0  0  0  0  0  0  0
   48.5700   28.7810   35.0730 C   0  0  0  0  0  0  0  0  0  0  0  0
   50.3720   27.8440   36.7840 S   0  0  0  0  0  0  0  0  0  0  0  0
   51.4610   27.4620   35.7950 O   0  0  0  0  0  0  0  0  0  0  0  0
   50.6670   29.2500   37.2100 O   0  0  0  0  0  0  0  0  0  0  0  0
   41.7430   27.4028   31.9749 H   0  0  0  0  0  0  0  0  0  0  0  0
   43.5881   28.7328   30.9505 H   0  0  0  0  0  0  0  0  0  0  0  0
   45.7851   28.9227   32.0767 H   0  0  0  0  0  0  0  0  0  0  0  0
   38.7698   26.4229   35.2219 H   0  0  0  0  0  0  0  0  0  0  0  0
   41.3895   23.0089   35.5695 H   0  0  0  0  0  0  0  0  0  0  0  0
   48.1576   25.8514   36.7543 H   0  0  0  0  0  0  0  0  0  0  0  0
   46.0528   25.9037   35.4414 H   0  0  0  0  0  0  0  0  0  0  0  0
   47.1780   29.6221   33.6748 H   0  0  0  0  0  0  0  0  0  0  0  0
   49.2846   29.6096   34.9601 H   0  0  0  0  0  0  0  0  0  0  0  0
   50.3172   27.0354   37.8886 H   0  0  0  0  0  0  0  0  0  0  0  0
  1  6  1  0
  1 11  1  0
  2  1  2  0
  3  2  1  0
  3  4  2  0
  4  5  1  0
  5  6  2  0
  5 23  1  0
  7  8  2  0
  8 13  1  0
  9  8  1  0
 10  9  2  0
 11 12  2  0
 11 10  1  0
 12  7  1  0
 13 15  1  0
 14 13  2  0
 15 16  1  0
 16 17  1  0
 16 19  1  0
 18 16  1  0
 20 21  2  0
 20 26  1  0
 22 21  1  0
 23 22  2  0
 24 23  1  0
 24 25  2  0
 25 20  1  0
 26 28  2  0
 27 26  2  0
  2 29  1  0
  3 30  1  0
  4 31  1  0
  7 32  1  0
  9 33  1  0
 21 34  1  0
 22 35  1  0
 24 36  1  0
 25 37  1  0
 26 38  1  0
M  ISO  8  29  14  30  14  31  14  32  14  33  14  34  14  35  14  36  14
M  ISO  2  37  14  38  11
M  END
>  <minimizedAffinity>  (1) 
-5.05914879

>  <minimizedRMSD>  (1) 
1.27420938

$$$$
