
     RDKit          3D

 32 34  0  0  0  0  0  0  0  0999 V2000
   40.0240   25.4630   34.9500 C   0  0  0  0  0  0  0  0  0  0  0  0
   40.0180   24.1810   35.4870 C   0  0  0  0  0  0  0  0  0  0  0  0
   41.2170   23.5360   35.7530 C   0  0  0  0  0  0  0  0  0  0  0  0
   42.3590   24.1930   35.4730 N   0  0  0  0  0  0  0  0  0  0  0  0
   42.3380   25.4490   34.9480 C   0  0  0  0  0  0  0  0  0  0  0  0
   41.1830   26.0730   34.6910 N   0  0  0  0  0  0  0  0  0  0  0  0
   43.6020   26.1490   34.6500 C   0  0  0  0  0  0  0  0  0  0  0  0
   43.6200   27.0200   33.5590 C   0  0  0  0  0  0  0  0  0  0  0  0
   44.8110   27.6470   33.3200 C   0  0  0  0  0  0  0  0  0  0  0  0
   45.9330   27.4300   34.1130 C   0  0  0  0  0  0  0  0  0  0  0  0
   45.8580   26.5620   35.1730 C   0  0  0  0  0  0  0  0  0  0  0  0
   44.7060   25.9480   35.4130 N   0  0  0  0  0  0  0  0  0  0  0  0
   47.0350   26.3540   35.9800 C   0  0  0  0  0  0  0  0  0  0  0  0
   47.2220   25.4850   37.0240 C   0  0  0  0  0  0  0  0  0  0  0  0
   48.3980   25.4210   37.6730 C   0  0  0  0  0  0  0  0  0  0  0  0
   49.4210   26.3600   37.1470 C   0  0  0  0  0  0  0  0  0  0  0  0
   48.5040   27.2330   35.7390 S   0  0  0  0  0  0  0  0  0  0  0  0
   38.8560   23.4090   35.8140 C   0  0  0  0  0  0  0  0  0  0  0  0
   37.8570   23.1690   35.0620 O   0  0  0  0  0  0  0  0  0  0  0  0
   38.5630   22.7630   37.0010 O   0  0  0  0  0  0  0  0  0  0  0  0
   38.2650   23.5000   38.1980 C   0  0  0  0  0  0  0  0  0  0  0  0
   37.2810   22.8210   38.9160 F   0  0  0  0  0  0  0  0  0  0  0  0
   37.8890   24.7880   37.8820 F   0  0  0  0  0  0  0  0  0  0  0  0
   39.3860   23.5350   38.9880 F   0  0  0  0  0  0  0  0  0  0  0  0
   39.0737   25.9750   34.7384 H   0  0  0  0  0  0  0  0  0  0  0  0
   41.2345   22.5218   36.1784 H   0  0  0  0  0  0  0  0  0  0  0  0
   42.7326   27.1908   32.9319 H   0  0  0  0  0  0  0  0  0  0  0  0
   44.8844   28.3455   32.4734 H   0  0  0  0  0  0  0  0  0  0  0  0
   46.8757   27.9517   33.8914 H   0  0  0  0  0  0  0  0  0  0  0  0
   46.3959   24.8290   37.3360 H   0  0  0  0  0  0  0  0  0  0  0  0
   48.5846   24.7374   38.5143 H   0  0  0  0  0  0  0  0  0  0  0  0
   50.4551   26.5110   37.4902 H   0  0  0  0  0  0  0  0  0  0  0  0
  1  2  2  0
  2  3  1  0
  2 18  1  0
  4  3  2  0
  5  4  1  0
  6  5  2  0
  6  1  1  0
  7  5  1  0
  7 12  1  0
  8  7  2  0
  9  8  1  0
  9 10  2  0
 10 11  1  0
 11 12  2  0
 11 13  1  0
 13 14  2  0
 14 15  1  0
 16 15  2  0
 17 13  1  0
 17 16  1  0
 18 20  1  0
 19 18  2  0
 20 21  1  0
 21 22  1  0
 21 24  1  0
 23 21  1  0
  1 25  1  0
  3 26  1  0
  8 27  1  0
  9 28  1  0
 10 29  1  0
 14 30  1  0
 15 31  1  0
 16 32  1  0
M  ISO  8  25  14  26  14  27  14  28  14  29  14  30  14  31  14  32  14
M  END
>  <minimizedAffinity>  (1) 
-4.89408159

>  <minimizedRMSD>  (1) 
2.04665494

$$$$
