
     RDKit          3D

 38 40  0  0  0  0  0  0  0  0999 V2000
   39.5020   25.8360   35.1400 C   0  0  0  0  0  0  0  0  0  0  0  0
   39.8010   24.5170   35.4570 C   0  0  0  0  0  0  0  0  0  0  0  0
   41.0200   23.9740   35.0790 C   0  0  0  0  0  0  0  0  0  0  0  0
   41.8970   24.7560   34.4000 N   0  0  0  0  0  0  0  0  0  0  0  0
   41.5810   26.0350   34.1060 C   0  0  0  0  0  0  0  0  0  0  0  0
   40.3930   26.5760   34.4710 N   0  0  0  0  0  0  0  0  0  0  0  0
   42.5220   26.9000   33.3690 C   0  0  0  0  0  0  0  0  0  0  0  0
   42.0030   27.7370   32.3680 C   0  0  0  0  0  0  0  0  0  0  0  0
   42.9360   28.5170   31.7240 C   0  0  0  0  0  0  0  0  0  0  0  0
   44.2890   28.4780   32.0400 C   0  0  0  0  0  0  0  0  0  0  0  0
   44.7310   27.6370   33.0320 C   0  0  0  0  0  0  0  0  0  0  0  0
   43.8380   26.8880   33.6530 N   0  0  0  0  0  0  0  0  0  0  0  0
   46.1050   27.5640   33.3910 N   0  0  0  0  0  0  0  0  0  0  0  0
   46.8850   28.6680   33.8850 C   0  0  0  0  0  0  0  0  0  0  0  0
   47.8780   28.0480   34.8770 C   0  0  0  0  0  0  0  0  0  0  0  0
   47.3160   26.9550   35.5340 O   0  0  0  0  0  0  0  0  0  0  0  0
   47.1680   25.8590   34.6880 C   0  0  0  0  0  0  0  0  0  0  0  0
   46.8220   26.3100   33.2710 C   0  0  0  0  0  0  0  0  0  0  0  0
   38.9600   23.6060   36.1630 C   0  0  0  0  0  0  0  0  0  0  0  0
   37.8990   23.0460   35.7360 O   0  0  0  0  0  0  0  0  0  0  0  0
   39.1050   23.1240   37.4630 O   0  0  0  0  0  0  0  0  0  0  0  0
   38.4000   23.7080   38.5580 C   0  0  0  0  0  0  0  0  0  0  0  0
   37.3580   22.8620   38.9400 F   0  0  0  0  0  0  0  0  0  0  0  0
   37.9490   24.9660   38.2240 F   0  0  0  0  0  0  0  0  0  0  0  0
   39.2620   23.8140   39.6280 F   0  0  0  0  0  0  0  0  0  0  0  0
   38.5363   26.2702   35.4380 H   0  0  0  0  0  0  0  0  0  0  0  0
   41.2706   22.9314   35.3244 H   0  0  0  0  0  0  0  0  0  0  0  0
   40.9323   27.7669   32.1178 H   0  0  0  0  0  0  0  0  0  0  0  0
   42.5981   29.1975   30.9286 H   0  0  0  0  0  0  0  0  0  0  0  0
   45.0019   29.1172   31.4986 H   0  0  0  0  0  0  0  0  0  0  0  0
   47.4207   29.1611   33.0605 H   0  0  0  0  0  0  0  0  0  0  0  0
   46.2560   29.4358   34.3591 H   0  0  0  0  0  0  0  0  0  0  0  0
   48.7728   27.7167   34.3297 H   0  0  0  0  0  0  0  0  0  0  0  0
   48.1423   28.8079   35.6271 H   0  0  0  0  0  0  0  0  0  0  0  0
   48.1097   25.2910   34.6657 H   0  0  0  0  0  0  0  0  0  0  0  0
   46.3496   25.2293   35.0670 H   0  0  0  0  0  0  0  0  0  0  0  0
   46.1882   25.5576   32.7788 H   0  0  0  0  0  0  0  0  0  0  0  0
   47.7312   26.4331   32.6642 H   0  0  0  0  0  0  0  0  0  0  0  0
  1  2  2  0
  2 19  1  0
  3  2  1  0
  4  3  2  0
  5  4  1  0
  5  6  2  0
  6  1  1  0
  7 12  1  0
  7  5  1  0
  8  7  2  0
  9 10  2  0
  9  8  1  0
 10 11  1  0
 11 13  1  0
 11 12  2  0
 13 14  1  0
 14 15  1  0
 15 16  1  0
 17 16  1  0
 18 13  1  0
 18 17  1  0
 19 21  1  0
 20 19  2  0
 21 22  1  0
 22 23  1  0
 22 25  1  0
 24 22  1  0
  1 26  1  0
  3 27  1  0
  8 28  1  0
  9 29  1  0
 10 30  1  0
 14 31  1  0
 14 32  1  0
 15 33  1  0
 15 34  1  0
 17 35  1  0
 17 36  1  0
 18 37  1  0
 18 38  1  0
M  ISO  8  26  14  27  14  28  14  29  14  30  14  31  13  32  13  33  13
M  ISO  5  34  13  35  13  36  13  37  13  38  13
M  END
>  <minimizedAffinity>  (1) 
-4.95061827

>  <minimizedRMSD>  (1) 
0.0435077399

$$$$
