
     RDKit          3D

 32 33  0  0  0  0  0  0  0  0999 V2000
   42.3230   26.8330   33.1760 C   0  0  0  0  0  0  0  0  0  0  0  0
   41.6960   27.6400   32.2390 C   0  0  0  0  0  0  0  0  0  0  0  0
   42.5100   28.4610   31.4970 C   0  0  0  0  0  0  0  0  0  0  0  0
   43.8850   28.4620   31.6960 C   0  0  0  0  0  0  0  0  0  0  0  0
   44.4770   27.6530   32.6290 C   0  0  0  0  0  0  0  0  0  0  0  0
   43.6490   26.8770   33.3200 N   0  0  0  0  0  0  0  0  0  0  0  0
   45.8430   27.5290   32.9190 N   0  0  0  0  0  0  0  0  0  0  0  0
   46.4140   28.1670   34.0460 C   0  0  0  0  0  0  0  0  0  0  0  0
   46.1850   29.4160   34.2170 N   0  0  0  0  0  0  0  0  0  0  0  0
   47.2410   27.4550   34.9700 N   0  0  0  0  0  0  0  0  0  0  0  0
   45.6160   30.0230   33.6080 H   0  0  0  0  0  0  0  0  0  0  0  0
   39.5300   25.6170   35.1870 C   0  0  0  0  0  0  0  0  0  0  0  0
   39.9190   24.3320   35.5070 C   0  0  0  0  0  0  0  0  0  0  0  0
   41.1470   23.8450   35.0450 C   0  0  0  0  0  0  0  0  0  0  0  0
   41.9130   24.6650   34.2930 N   0  0  0  0  0  0  0  0  0  0  0  0
   41.4890   25.9320   33.9980 C   0  0  0  0  0  0  0  0  0  0  0  0
   40.3130   26.4020   34.4400 N   0  0  0  0  0  0  0  0  0  0  0  0
   39.1890   23.3920   36.2890 C   0  0  0  0  0  0  0  0  0  0  0  0
   38.2580   22.6220   35.8950 O   0  0  0  0  0  0  0  0  0  0  0  0
   39.3260   23.1050   37.6430 O   0  0  0  0  0  0  0  0  0  0  0  0
   38.4800   23.6990   38.6190 C   0  0  0  0  0  0  0  0  0  0  0  0
   37.4530   22.8250   38.9610 F   0  0  0  0  0  0  0  0  0  0  0  0
   38.0030   24.9140   38.1650 F   0  0  0  0  0  0  0  0  0  0  0  0
   39.2220   23.9310   39.7610 F   0  0  0  0  0  0  0  0  0  0  0  0
   40.6053   27.6237   32.0973 H   0  0  0  0  0  0  0  0  0  0  0  0
   42.0689   29.1239   30.7381 H   0  0  0  0  0  0  0  0  0  0  0  0
   44.5141   29.1295   31.0888 H   0  0  0  0  0  0  0  0  0  0  0  0
   46.4419   26.9634   32.3007 H   0  0  0  0  0  0  0  0  0  0  0  0
   47.6443   27.9433   35.7823 H   0  0  0  0  0  0  0  0  0  0  0  0
   47.4334   26.4538   34.8233 H   0  0  0  0  0  0  0  0  0  0  0  0
   38.5649   25.9995   35.5507 H   0  0  0  0  0  0  0  0  0  0  0  0
   41.4787   22.8245   35.2871 H   0  0  0  0  0  0  0  0  0  0  0  0
  1  6  1  0
  1 16  1  0
  2  1  2  0
  3  4  2  0
  3  2  1  0
  4  5  1  0
  5  7  1  0
  5  6  2  0
  7  8  1  0
  8  9  2  0
  8 10  1  0
 11  9  1  0
 12 13  2  0
 13 18  1  0
 14 13  1  0
 15 14  2  0
 16 15  1  0
 16 17  2  0
 17 12  1  0
 18 20  1  0
 19 18  2  0
 20 21  1  0
 21 22  1  0
 21 24  1  0
 23 21  1  0
  2 25  1  0
  3 26  1  0
  4 27  1  0
  7 28  1  0
 10 29  1  0
 10 30  1  0
 12 31  1  0
 14 32  1  0
M  ISO  5  25  14  26  14  27  14  31  14  32  14
M  END
>  <minimizedAffinity>  (1) 
-5.03800821

>  <minimizedRMSD>  (1) 
0.416832417

$$$$
