
     RDKit          3D

 32 34  0  0  0  0  0  0  0  0999 V2000
   39.7720   26.0340   35.0660 C   0  0  0  0  0  0  0  0  0  0  0  0
   40.0110   24.7170   35.4260 C   0  0  0  0  0  0  0  0  0  0  0  0
   41.2470   24.1240   35.1490 C   0  0  0  0  0  0  0  0  0  0  0  0
   42.1810   24.8790   34.5290 N   0  0  0  0  0  0  0  0  0  0  0  0
   41.9250   26.1580   34.1890 C   0  0  0  0  0  0  0  0  0  0  0  0
   40.7280   26.7330   34.4560 N   0  0  0  0  0  0  0  0  0  0  0  0
   42.9380   26.9860   33.5130 C   0  0  0  0  0  0  0  0  0  0  0  0
   42.6170   27.5620   32.2890 C   0  0  0  0  0  0  0  0  0  0  0  0
   43.6300   28.3230   31.7260 C   0  0  0  0  0  0  0  0  0  0  0  0
   44.8540   28.5000   32.3230 C   0  0  0  0  0  0  0  0  0  0  0  0
   45.1190   27.9070   33.5360 C   0  0  0  0  0  0  0  0  0  0  0  0
   44.1490   27.1800   34.0720 N   0  0  0  0  0  0  0  0  0  0  0  0
   46.3950   28.0460   34.2370 C   0  0  0  0  0  0  0  0  0  0  0  0
   47.0600   27.0650   34.9460 C   0  0  0  0  0  0  0  0  0  0  0  0
   48.1830   27.6450   35.4130 N   0  0  0  0  0  0  0  0  0  0  0  0
   48.2010   28.9270   35.0050 C   0  0  0  0  0  0  0  0  0  0  0  0
   47.0850   29.1950   34.2650 N   0  0  0  0  0  0  0  0  0  0  0  0
   39.0960   23.8380   36.0810 C   0  0  0  0  0  0  0  0  0  0  0  0
   37.9910   23.3910   35.6070 O   0  0  0  0  0  0  0  0  0  0  0  0
   39.1790   23.2760   37.3470 O   0  0  0  0  0  0  0  0  0  0  0  0
   38.4470   23.8010   38.4510 C   0  0  0  0  0  0  0  0  0  0  0  0
   37.3720   22.9710   38.7430 F   0  0  0  0  0  0  0  0  0  0  0  0
   38.0330   25.0990   38.1790 F   0  0  0  0  0  0  0  0  0  0  0  0
   39.2680   23.8130   39.5570 F   0  0  0  0  0  0  0  0  0  0  0  0
   38.7990   26.4991   35.2826 H   0  0  0  0  0  0  0  0  0  0  0  0
   41.4519   23.0794   35.4261 H   0  0  0  0  0  0  0  0  0  0  0  0
   41.6382   27.4250   31.8062 H   0  0  0  0  0  0  0  0  0  0  0  0
   43.4447   28.8075   30.7560 H   0  0  0  0  0  0  0  0  0  0  0  0
   45.6221   29.1154   31.8318 H   0  0  0  0  0  0  0  0  0  0  0  0
   46.7389   26.0240   35.0982 H   0  0  0  0  0  0  0  0  0  0  0  0
   48.9965   29.6516   35.2336 H   0  0  0  0  0  0  0  0  0  0  0  0
   46.8282   30.0891   33.8228 H   0  0  0  0  0  0  0  0  0  0  0  0
  1  2  2  0
  2 18  1  0
  3  2  1  0
  4  3  2  0
  5  6  2  0
  5  4  1  0
  6  1  1  0
  7 12  1  0
  7  5  1  0
  8  7  2  0
  9  8  1  0
  9 10  2  0
 10 11  1  0
 11 12  2  0
 11 13  1  0
 13 17  1  0
 13 14  2  0
 14 15  1  0
 16 15  2  0
 17 16  1  0
 18 20  1  0
 19 18  2  0
 20 21  1  0
 21 22  1  0
 21 24  1  0
 23 21  1  0
  1 25  1  0
  3 26  1  0
  8 27  1  0
  9 28  1  0
 10 29  1  0
 14 30  1  0
 16 31  1  0
 17 32  1  0
M  ISO  8  25  14  26  14  27  14  28  14  29  14  30  14  31  14  32   9
M  END
>  <minimizedAffinity>  (1) 
-4.85506201

>  <minimizedRMSD>  (1) 
0.76666373

$$$$
