
     RDKit          3D

 27 28  0  0  0  0  0  0  0  0999 V2000
   39.9130   24.3540   35.0130 C   0  0  0  0  0  0  0  0  0  0  0  0
   40.0760   22.9970   35.4090 C   0  0  0  0  0  0  0  0  0  0  0  0
   39.1530   22.1220   34.8240 C   0  0  0  0  0  0  0  0  0  0  0  0
   38.2080   22.5820   33.9620 N   0  0  0  0  0  0  0  0  0  0  0  0
   38.1120   23.8730   33.6350 C   0  0  0  0  0  0  0  0  0  0  0  0
   38.9690   24.7410   34.1670 N   0  0  0  0  0  0  0  0  0  0  0  0
   37.1330   24.3800   32.7360 N   0  0  0  0  0  0  0  0  0  0  0  0
   36.8990   25.6940   32.5830 C   0  0  0  0  0  0  0  0  0  0  0  0
   35.9050   26.0190   31.6600 C   0  0  0  0  0  0  0  0  0  0  0  0
   35.2300   25.0290   30.9720 C   0  0  0  0  0  0  0  0  0  0  0  0
   34.3220   25.3310   30.1310 O   0  0  0  0  0  0  0  0  0  0  0  0
   35.4820   23.7390   31.1430 N   0  0  0  0  0  0  0  0  0  0  0  0
   36.4510   23.4330   32.0430 C   0  0  0  0  0  0  0  0  0  0  0  0
   36.6840   22.1860   32.1980 O   0  0  0  0  0  0  0  0  0  0  0  0
   41.0700   22.5570   36.3070 N   0  0  0  0  0  0  0  0  0  0  0  0
   40.8330   21.9810   37.5700 C   0  0  0  0  0  0  0  0  0  0  0  0
   39.8330   22.5080   38.2530 N   0  0  0  0  0  0  0  0  0  0  0  0
   41.7130   20.9010   37.9450 N   0  0  0  0  0  0  0  0  0  0  0  0
   39.5830   22.1410   39.1860 H   0  0  0  0  0  0  0  0  0  0  0  0
   40.5967   25.1109   35.4248 H   0  0  0  0  0  0  0  0  0  0  0  0
   39.1930   21.0494   35.0648 H   0  0  0  0  0  0  0  0  0  0  0  0
   37.4525   26.4599   33.1461 H   0  0  0  0  0  0  0  0  0  0  0  0
   35.6558   27.0748   31.4779 H   0  0  0  0  0  0  0  0  0  0  0  0
   34.9720   23.0108   30.6230 H   0  0  0  0  0  0  0  0  0  0  0  0
   42.0516   22.6660   36.0148 H   0  0  0  0  0  0  0  0  0  0  0  0
   41.5962   20.4340   38.8556 H   0  0  0  0  0  0  0  0  0  0  0  0
   42.4581   20.5969   37.3021 H   0  0  0  0  0  0  0  0  0  0  0  0
  1  2  2  0
  2 15  1  0
  3  2  1  0
  4  3  2  0
  5  4  1  0
  5  6  2  0
  6  1  1  0
  7  5  1  0
  8  7  1  0
  9  8  2  0
 10 12  1  0
 10  9  1  0
 11 10  2  0
 12 13  1  0
 13 14  2  0
 13  7  1  0
 15 16  1  0
 16 18  1  0
 16 17  2  0
 17 19  1  0
  1 20  1  0
  3 21  1  0
  8 22  1  0
  9 23  1  0
 12 24  1  0
 15 25  1  0
 18 26  1  0
 18 27  1  0
M  ISO  5  20  14  21  14  22  14  23  14  24   9
M  END
>  <minimizedAffinity>  (1) 
-5.38454771

>  <minimizedRMSD>  (1) 
0.772304595

$$$$
