
     RDKit          3D

 32 34  0  0  0  0  0  0  0  0999 V2000
   43.0570   26.9140   33.6700 C   0  0  0  0  0  0  0  0  0  0  0  0
   42.7900   27.5220   32.4500 C   0  0  0  0  0  0  0  0  0  0  0  0
   43.8170   28.2490   31.9040 C   0  0  0  0  0  0  0  0  0  0  0  0
   45.0370   28.3690   32.5270 C   0  0  0  0  0  0  0  0  0  0  0  0
   45.2540   27.7490   33.7340 C   0  0  0  0  0  0  0  0  0  0  0  0
   44.2620   27.0430   34.2670 N   0  0  0  0  0  0  0  0  0  0  0  0
   39.7920   26.0040   35.0480 C   0  0  0  0  0  0  0  0  0  0  0  0
   39.9940   24.6900   35.4470 C   0  0  0  0  0  0  0  0  0  0  0  0
   41.2350   24.1040   35.2530 C   0  0  0  0  0  0  0  0  0  0  0  0
   42.2120   24.8320   34.6800 N   0  0  0  0  0  0  0  0  0  0  0  0
   41.9840   26.1230   34.2970 C   0  0  0  0  0  0  0  0  0  0  0  0
   40.7860   26.6920   34.4830 N   0  0  0  0  0  0  0  0  0  0  0  0
   39.0400   23.8340   36.0580 C   0  0  0  0  0  0  0  0  0  0  0  0
   37.9190   23.4540   35.5680 O   0  0  0  0  0  0  0  0  0  0  0  0
   39.0960   23.2180   37.3130 O   0  0  0  0  0  0  0  0  0  0  0  0
   38.4080   23.7790   38.4370 C   0  0  0  0  0  0  0  0  0  0  0  0
   37.3410   22.9620   38.7760 F   0  0  0  0  0  0  0  0  0  0  0  0
   38.0190   25.0800   38.1740 F   0  0  0  0  0  0  0  0  0  0  0  0
   39.2720   23.7830   39.5100 F   0  0  0  0  0  0  0  0  0  0  0  0
   46.5410   27.8640   34.4090 C   0  0  0  0  0  0  0  0  0  0  0  0
   47.1320   26.8820   35.1790 C   0  0  0  0  0  0  0  0  0  0  0  0
   48.3360   27.4530   35.6060 C   0  0  0  0  0  0  0  0  0  0  0  0
   48.4390   28.6960   35.1120 N   0  0  0  0  0  0  0  0  0  0  0  0
   47.3470   28.9550   34.3800 N   0  0  0  0  0  0  0  0  0  0  0  0
   41.8140   27.4263   31.9518 H   0  0  0  0  0  0  0  0  0  0  0  0
   43.6599   28.7514   30.9382 H   0  0  0  0  0  0  0  0  0  0  0  0
   45.8382   28.9605   32.0598 H   0  0  0  0  0  0  0  0  0  0  0  0
   38.8111   26.4789   35.1978 H   0  0  0  0  0  0  0  0  0  0  0  0
   41.4182   23.0641   35.5613 H   0  0  0  0  0  0  0  0  0  0  0  0
   46.7441   25.8779   35.4055 H   0  0  0  0  0  0  0  0  0  0  0  0
   49.0817   26.9596   36.2468 H   0  0  0  0  0  0  0  0  0  0  0  0
   49.2253   29.3425   35.2690 H   0  0  0  0  0  0  0  0  0  0  0  0
  1  6  1  0
  1 11  1  0
  2  1  2  0
  3  2  1  0
  3  4  2  0
  4  5  1  0
  5  6  2  0
  5 20  1  0
  7  8  2  0
  8 13  1  0
  9  8  1  0
 10  9  2  0
 11 12  2  0
 11 10  1  0
 12  7  1  0
 13 15  1  0
 14 13  2  0
 15 16  1  0
 16 17  1  0
 16 19  1  0
 18 16  1  0
 20 21  1  0
 21 22  2  0
 23 22  1  0
 24 20  2  0
 24 23  1  0
  2 25  1  0
  3 26  1  0
  4 27  1  0
  7 28  1  0
  9 29  1  0
 21 30  1  0
 22 31  1  0
 23 32  1  0
M  ISO  8  25  14  26  14  27  14  28  14  29  14  30  14  31  14  32   9
M  END
>  <minimizedAffinity>  (1) 
-4.82882595

>  <minimizedRMSD>  (1) 
0.934660196

$$$$
