
     RDKit          3D

 41 43  0  0  0  0  0  0  0  0999 V2000
   39.5310   25.8160   35.1280 C   0  0  0  0  0  0  0  0  0  0  0  0
   39.8280   24.4930   35.4520 C   0  0  0  0  0  0  0  0  0  0  0  0
   41.0410   23.9320   35.0740 C   0  0  0  0  0  0  0  0  0  0  0  0
   41.9050   24.7110   34.3920 N   0  0  0  0  0  0  0  0  0  0  0  0
   41.6020   26.0020   34.0830 C   0  0  0  0  0  0  0  0  0  0  0  0
   40.4220   26.5370   34.4540 N   0  0  0  0  0  0  0  0  0  0  0  0
   42.5530   26.8450   33.3380 C   0  0  0  0  0  0  0  0  0  0  0  0
   42.0310   27.7600   32.4240 C   0  0  0  0  0  0  0  0  0  0  0  0
   42.9660   28.5250   31.7520 C   0  0  0  0  0  0  0  0  0  0  0  0
   44.3220   28.3800   31.9820 C   0  0  0  0  0  0  0  0  0  0  0  0
   44.7830   27.4580   32.9000 C   0  0  0  0  0  0  0  0  0  0  0  0
   43.8700   26.7340   33.5340 N   0  0  0  0  0  0  0  0  0  0  0  0
   46.2080   27.1990   33.2450 C   0  0  0  0  0  0  0  0  0  0  0  0
   46.4320   27.0650   34.7220 C   0  0  0  0  0  0  0  0  0  0  0  0
   47.8190   27.4640   35.1480 C   0  0  0  0  0  0  0  0  0  0  0  0
   48.1730   28.8850   34.8380 C   0  0  0  0  0  0  0  0  0  0  0  0
   47.2220   29.3630   33.7460 C   0  0  0  0  0  0  0  0  0  0  0  0
   47.1420   28.2520   32.7210 C   0  0  0  0  0  0  0  0  0  0  0  0
   38.9770   23.5960   36.1680 C   0  0  0  0  0  0  0  0  0  0  0  0
   37.9020   23.0470   35.7460 O   0  0  0  0  0  0  0  0  0  0  0  0
   39.1150   23.1260   37.4610 O   0  0  0  0  0  0  0  0  0  0  0  0
   38.3960   23.7100   38.5590 C   0  0  0  0  0  0  0  0  0  0  0  0
   37.3560   22.8770   38.9450 F   0  0  0  0  0  0  0  0  0  0  0  0
   37.9490   24.9750   38.2220 F   0  0  0  0  0  0  0  0  0  0  0  0
   39.2560   23.8080   39.6340 F   0  0  0  0  0  0  0  0  0  0  0  0
   38.5695   26.2589   35.4269 H   0  0  0  0  0  0  0  0  0  0  0  0
   41.2882   22.8892   35.3221 H   0  0  0  0  0  0  0  0  0  0  0  0
   40.9500   27.8656   32.2499 H   0  0  0  0  0  0  0  0  0  0  0  0
   42.6230   29.2673   31.0162 H   0  0  0  0  0  0  0  0  0  0  0  0
   45.0390   29.0045   31.4289 H   0  0  0  0  0  0  0  0  0  0  0  0
   46.4345   26.2418   32.7526 H   0  0  0  0  0  0  0  0  0  0  0  0
   45.7072   27.7058   35.2454 H   0  0  0  0  0  0  0  0  0  0  0  0
   46.3034   26.0029   34.9779 H   0  0  0  0  0  0  0  0  0  0  0  0
   47.9011   27.3177   36.2351 H   0  0  0  0  0  0  0  0  0  0  0  0
   48.5175   26.8335   34.5782 H   0  0  0  0  0  0  0  0  0  0  0  0
   48.0555   29.5068   35.7378 H   0  0  0  0  0  0  0  0  0  0  0  0
   49.2183   28.9613   34.5040 H   0  0  0  0  0  0  0  0  0  0  0  0
   46.2263   29.5598   34.1701 H   0  0  0  0  0  0  0  0  0  0  0  0
   47.5816   30.2970   33.2895 H   0  0  0  0  0  0  0  0  0  0  0  0
   48.1406   27.8188   32.5622 H   0  0  0  0  0  0  0  0  0  0  0  0
   46.7734   28.6447   31.7618 H   0  0  0  0  0  0  0  0  0  0  0  0
  1  2  2  0
  2 19  1  0
  3  2  1  0
  4  3  2  0
  5  4  1  0
  5  6  2  0
  6  1  1  0
  7 12  1  0
  7  5  1  0
  8  7  2  0
  9 10  2  0
  9  8  1  0
 10 11  1  0
 11 13  1  0
 11 12  2  0
 13 14  1  0
 14 15  1  0
 16 15  1  0
 17 16  1  0
 18 13  1  0
 18 17  1  0
 19 21  1  0
 20 19  2  0
 21 22  1  0
 22 23  1  0
 22 25  1  0
 24 22  1  0
  1 26  1  0
  3 27  1  0
  8 28  1  0
  9 29  1  0
 10 30  1  0
 13 31  1  0
 14 32  1  0
 14 33  1  0
 15 34  1  0
 15 35  1  0
 16 36  1  0
 16 37  1  0
 17 38  1  0
 17 39  1  0
 18 40  1  0
 18 41  1  0
M  ISO  8  26  14  27  14  28  14  29  14  30  14  31  13  32  13  33  13
M  ISO  8  34  13  35  13  36  13  37  13  38  13  39  13  40  13  41  13
M  END
>  <minimizedAffinity>  (1) 
-4.74218798

>  <minimizedRMSD>  (1) 
0.279715925

$$$$
