
     RDKit          3D

 31 32  0  0  0  0  0  0  0  0999 V2000
   38.7260   24.9000   35.9860 C   0  0  0  0  0  0  0  0  0  0  0  0
   39.6500   23.8940   35.6220 C   0  0  0  0  0  0  0  0  0  0  0  0
   39.6010   23.5320   34.2740 C   0  0  0  0  0  0  0  0  0  0  0  0
   38.7150   24.1350   33.4320 N   0  0  0  0  0  0  0  0  0  0  0  0
   37.8690   25.0810   33.8430 C   0  0  0  0  0  0  0  0  0  0  0  0
   37.8790   25.4610   35.1260 N   0  0  0  0  0  0  0  0  0  0  0  0
   36.9600   25.6820   32.9250 N   0  0  0  0  0  0  0  0  0  0  0  0
   36.1800   24.9150   31.9630 C   0  0  0  0  0  0  0  0  0  0  0  0
   35.5760   25.8650   30.9590 C   0  0  0  0  0  0  0  0  0  0  0  0
   36.6560   26.7250   30.4920 N   0  0  0  0  0  0  0  0  0  0  0  0
   37.0450   27.6780   31.5140 C   0  0  0  0  0  0  0  0  0  0  0  0
   36.7760   27.1200   32.9140 C   0  0  0  0  0  0  0  0  0  0  0  0
   40.5480   23.3000   36.5290 N   0  0  0  0  0  0  0  0  0  0  0  0
   40.1830   22.4150   37.5710 C   0  0  0  0  0  0  0  0  0  0  0  0
   39.0570   22.6890   38.1880 N   0  0  0  0  0  0  0  0  0  0  0  0
   41.0910   21.3210   37.8290 N   0  0  0  0  0  0  0  0  0  0  0  0
   38.7060   22.0920   38.9550 H   0  0  0  0  0  0  0  0  0  0  0  0
   38.7059   25.2363   37.0331 H   0  0  0  0  0  0  0  0  0  0  0  0
   40.2805   22.7568   33.8902 H   0  0  0  0  0  0  0  0  0  0  0  0
   36.8334   24.1970   31.4459 H   0  0  0  0  0  0  0  0  0  0  0  0
   35.3824   24.3641   32.4830 H   0  0  0  0  0  0  0  0  0  0  0  0
   35.1475   25.3032   30.1159 H   0  0  0  0  0  0  0  0  0  0  0  0
   34.7672   26.4571   31.4121 H   0  0  0  0  0  0  0  0  0  0  0  0
   37.4694   26.1415   30.2493 H   0  0  0  0  0  0  0  0  0  0  0  0
   38.1186   27.8954   31.4134 H   0  0  0  0  0  0  0  0  0  0  0  0
   36.4525   28.5953   31.3821 H   0  0  0  0  0  0  0  0  0  0  0  0
   37.4736   27.5808   33.6288 H   0  0  0  0  0  0  0  0  0  0  0  0
   35.7388   27.3508   33.1986 H   0  0  0  0  0  0  0  0  0  0  0  0
   41.5474   23.5270   36.4262 H   0  0  0  0  0  0  0  0  0  0  0  0
   40.8811   20.6425   38.5749 H   0  0  0  0  0  0  0  0  0  0  0  0
   41.9482   21.2197   37.2670 H   0  0  0  0  0  0  0  0  0  0  0  0
  2  1  2  0
  2 13  1  0
  3  2  1  0
  4  5  1  0
  4  3  2  0
  5  6  2  0
  6  1  1  0
  7  5  1  0
  8  7  1  0
  9  8  1  0
 10  9  1  0
 10 11  1  0
 11 12  1  0
 12  7  1  0
 13 14  1  0
 14 16  1  0
 14 15  2  0
 15 17  1  0
  1 18  1  0
  3 19  1  0
  8 20  1  0
  8 21  1  0
  9 22  1  0
  9 23  1  0
 10 24  1  0
 11 25  1  0
 11 26  1  0
 12 27  1  0
 12 28  1  0
 13 29  1  0
 16 30  1  0
 16 31  1  0
M  ISO  8  18  14  19  14  20  13  21  13  22  13  23  13  24   5  25  13
M  ISO  3  26  13  27  13  28  13
M  END
>  <minimizedAffinity>  (1) 
-5.17734337

>  <minimizedRMSD>  (1) 
1.06099463

$$$$
