
     RDKit          3D

 27 28  0  0  0  0  0  0  0  0999 V2000
   39.5350   25.8430   35.1220 C   0  0  0  0  0  0  0  0  0  0  0  0
   39.8150   24.5230   35.4470 C   0  0  0  0  0  0  0  0  0  0  0  0
   41.0420   23.9780   35.0750 C   0  0  0  0  0  0  0  0  0  0  0  0
   41.9260   24.7510   34.4080 N   0  0  0  0  0  0  0  0  0  0  0  0
   41.6160   26.0350   34.1100 C   0  0  0  0  0  0  0  0  0  0  0  0
   40.4270   26.5770   34.4650 N   0  0  0  0  0  0  0  0  0  0  0  0
   42.5670   26.8950   33.3820 C   0  0  0  0  0  0  0  0  0  0  0  0
   42.0860   27.7160   32.3710 C   0  0  0  0  0  0  0  0  0  0  0  0
   43.0030   28.5000   31.7180 C   0  0  0  0  0  0  0  0  0  0  0  0
   44.3440   28.4660   32.0640 C   0  0  0  0  0  0  0  0  0  0  0  0
   44.7810   27.6380   33.0750 C   0  0  0  0  0  0  0  0  0  0  0  0
   43.8810   26.8860   33.6940 N   0  0  0  0  0  0  0  0  0  0  0  0
   46.1720   27.6510   33.3800 N   0  0  0  0  0  0  0  0  0  0  0  0
   38.9670   23.6180   36.1430 C   0  0  0  0  0  0  0  0  0  0  0  0
   37.8940   23.0800   35.7140 O   0  0  0  0  0  0  0  0  0  0  0  0
   39.1190   23.1190   37.4410 O   0  0  0  0  0  0  0  0  0  0  0  0
   38.4030   23.7060   38.5380 C   0  0  0  0  0  0  0  0  0  0  0  0
   37.3530   22.8810   38.9150 F   0  0  0  0  0  0  0  0  0  0  0  0
   37.9590   24.9770   38.2090 F   0  0  0  0  0  0  0  0  0  0  0  0
   39.2610   23.8090   39.6170 F   0  0  0  0  0  0  0  0  0  0  0  0
   38.5693   26.2841   35.4099 H   0  0  0  0  0  0  0  0  0  0  0  0
   41.2870   22.9342   35.3208 H   0  0  0  0  0  0  0  0  0  0  0  0
   41.0187   27.7369   32.1058 H   0  0  0  0  0  0  0  0  0  0  0  0
   42.6687   29.1651   30.9081 H   0  0  0  0  0  0  0  0  0  0  0  0
   45.0635   29.1032   31.5290 H   0  0  0  0  0  0  0  0  0  0  0  0
   46.5407   27.0473   34.1286 H   0  0  0  0  0  0  0  0  0  0  0  0
   46.8093   28.2641   32.8520 H   0  0  0  0  0  0  0  0  0  0  0  0
  1  2  2  0
  2 14  1  0
  3  2  1  0
  4  3  2  0
  5  4  1  0
  5  6  2  0
  6  1  1  0
  7 12  1  0
  7  5  1  0
  8  7  2  0
  9 10  2  0
  9  8  1  0
 10 11  1  0
 11 13  1  0
 11 12  2  0
 14 16  1  0
 15 14  2  0
 16 17  1  0
 17 18  1  0
 17 20  1  0
 19 17  1  0
  1 21  1  0
  3 22  1  0
  8 23  1  0
  9 24  1  0
 10 25  1  0
 13 26  1  0
 13 27  1  0
M  ISO  5  21  14  22  14  23  14  24  14  25  14
M  END
>  <minimizedAffinity>  (1) 
-4.36595011

>  <minimizedRMSD>  (1) 
0.0122957407

$$$$
