
     RDKit          3D

 39 42  0  0  0  0  0  0  0  0999 V2000
   41.7720   26.7480   33.9090 C   0  0  0  0  0  0  0  0  0  0  0  0
   41.6970   26.9870   32.5390 C   0  0  0  0  0  0  0  0  0  0  0  0
   40.4190   27.1640   32.0590 C   0  0  0  0  0  0  0  0  0  0  0  0
   39.2980   27.1100   32.8780 C   0  0  0  0  0  0  0  0  0  0  0  0
   39.4420   26.8690   34.2310 C   0  0  0  0  0  0  0  0  0  0  0  0
   40.6790   26.7000   34.6810 N   0  0  0  0  0  0  0  0  0  0  0  0
   45.3500   27.1740   34.5850 C   0  0  0  0  0  0  0  0  0  0  0  0
   45.5830   26.1960   35.5390 C   0  0  0  0  0  0  0  0  0  0  0  0
   44.5390   25.3800   35.9690 C   0  0  0  0  0  0  0  0  0  0  0  0
   43.3170   25.5690   35.4360 N   0  0  0  0  0  0  0  0  0  0  0  0
   43.1130   26.5490   34.4880 C   0  0  0  0  0  0  0  0  0  0  0  0
   44.1190   27.3380   34.0730 N   0  0  0  0  0  0  0  0  0  0  0  0
   46.8360   25.9130   36.1660 C   0  0  0  0  0  0  0  0  0  0  0  0
   47.9160   25.5390   35.5980 O   0  0  0  0  0  0  0  0  0  0  0  0
   47.1590   25.9790   37.5120 O   0  0  0  0  0  0  0  0  0  0  0  0
   47.1950   24.8020   38.3370 C   0  0  0  0  0  0  0  0  0  0  0  0
   48.4790   24.6100   38.8210 F   0  0  0  0  0  0  0  0  0  0  0  0
   46.7490   23.7100   37.6170 F   0  0  0  0  0  0  0  0  0  0  0  0
   46.3560   24.9990   39.4210 F   0  0  0  0  0  0  0  0  0  0  0  0
   38.2850   26.8110   35.0870 C   0  0  0  0  0  0  0  0  0  0  0  0
   37.9120   27.7900   35.7640 O   0  0  0  0  0  0  0  0  0  0  0  0
   37.5530   25.6260   35.1640 O   0  0  0  0  0  0  0  0  0  0  0  0
   39.1130   22.8190   38.4880 N   0  0  0  0  0  0  0  0  0  0  0  0
   38.5080   23.9140   39.0270 C   0  0  0  0  0  0  0  0  0  0  0  0
   38.0680   24.7050   38.0140 N   0  0  0  0  0  0  0  0  0  0  0  0
   38.4250   24.0580   36.8800 C   0  0  0  0  0  0  0  0  0  0  0  0
   38.1940   24.4680   35.5830 C   0  0  0  0  0  0  0  0  0  0  0  0
   38.6460   23.6490   34.6100 N   0  0  0  0  0  0  0  0  0  0  0  0
   39.2890   22.4880   34.9070 C   0  0  0  0  0  0  0  0  0  0  0  0
   39.5200   22.0750   36.1620 N   0  0  0  0  0  0  0  0  0  0  0  0
   39.0750   22.8840   37.1610 C   0  0  0  0  0  0  0  0  0  0  0  0
   42.5864   27.0308   31.8932 H   0  0  0  0  0  0  0  0  0  0  0  0
   40.2798   27.3557   30.9848 H   0  0  0  0  0  0  0  0  0  0  0  0
   38.2960   27.2591   32.4494 H   0  0  0  0  0  0  0  0  0  0  0  0
   46.1753   27.8176   34.2462 H   0  0  0  0  0  0  0  0  0  0  0  0
   44.7089   24.6000   36.7258 H   0  0  0  0  0  0  0  0  0  0  0  0
   39.5378   22.0527   39.0296 H   0  0  0  0  0  0  0  0  0  0  0  0
   38.3948   24.1225   40.1011 H   0  0  0  0  0  0  0  0  0  0  0  0
   39.6370   21.8561   34.0765 H   0  0  0  0  0  0  0  0  0  0  0  0
  1 11  1  0
  1  6  1  0
  2  1  2  0
  3  2  1  0
  3  4  2  0
  4  5  1  0
  5  6  2  0
  5 20  1  0
  7  8  2  0
  8  9  1  0
  8 13  1  0
 10  9  2  0
 11 10  1  0
 12 11  2  0
 12  7  1  0
 13 15  1  0
 14 13  2  0
 15 16  1  0
 16 17  1  0
 16 19  1  0
 18 16  1  0
 20 22  1  0
 20 21  2  0
 22 27  1  0
 23 24  1  0
 25 24  2  0
 26 31  2  0
 26 25  1  0
 27 26  1  0
 28 29  1  0
 28 27  2  0
 29 30  2  0
 30 31  1  0
 31 23  1  0
  2 32  1  0
  3 33  1  0
  4 34  1  0
  7 35  1  0
  9 36  1  0
 23 37  1  0
 24 38  1  0
 29 39  1  0
M  ISO  8  32  14  33  14  34  14  35  14  36  14  37   9  38  14  39  14
M  END
>  <minimizedAffinity>  (1) 
-6.20907688

>  <minimizedRMSD>  (1) 
8.86336231

$$$$
