
     RDKit          3D

 41 43  0  0  0  0  0  0  0  0999 V2000
   43.7740   25.4260   35.4680 C   0  0  0  0  0  0  0  0  0  0  0  0
   44.1970   26.0100   34.2680 C   0  0  0  0  0  0  0  0  0  0  0  0
   45.4850   26.5260   34.3050 C   0  0  0  0  0  0  0  0  0  0  0  0
   46.2700   26.4630   35.4360 C   0  0  0  0  0  0  0  0  0  0  0  0
   45.7970   25.8800   36.5730 C   0  0  0  0  0  0  0  0  0  0  0  0
   44.5710   25.3900   36.5320 N   0  0  0  0  0  0  0  0  0  0  0  0
   40.1560   25.0900   35.0300 C   0  0  0  0  0  0  0  0  0  0  0  0
   39.9180   23.8230   35.5290 C   0  0  0  0  0  0  0  0  0  0  0  0
   40.9690   23.0620   36.0210 C   0  0  0  0  0  0  0  0  0  0  0  0
   42.2100   23.6030   35.9910 N   0  0  0  0  0  0  0  0  0  0  0  0
   42.4150   24.8610   35.4900 C   0  0  0  0  0  0  0  0  0  0  0  0
   41.4000   25.5810   35.0210 N   0  0  0  0  0  0  0  0  0  0  0  0
   38.6480   23.1640   35.6050 C   0  0  0  0  0  0  0  0  0  0  0  0
   37.8250   22.9700   34.6550 O   0  0  0  0  0  0  0  0  0  0  0  0
   38.0380   22.5950   36.7170 O   0  0  0  0  0  0  0  0  0  0  0  0
   37.9270   23.3060   37.9440 C   0  0  0  0  0  0  0  0  0  0  0  0
   36.9770   22.7290   38.7640 F   0  0  0  0  0  0  0  0  0  0  0  0
   37.6410   24.6360   37.6980 F   0  0  0  0  0  0  0  0  0  0  0  0
   39.1420   23.2380   38.6010 F   0  0  0  0  0  0  0  0  0  0  0  0
   46.6030   25.8020   37.7700 C   0  0  0  0  0  0  0  0  0  0  0  0
   46.1120   25.6550   38.9160 O   0  0  0  0  0  0  0  0  0  0  0  0
   48.0070   25.8930   37.6590 O   0  0  0  0  0  0  0  0  0  0  0  0
   48.8010   24.7390   37.6480 C   0  0  0  0  0  0  0  0  0  0  0  0
   48.3840   23.6680   36.7080 C   0  0  0  0  0  0  0  0  0  0  0  0
   48.9110   22.3780   37.3160 C   0  0  0  0  0  0  0  0  0  0  0  0
   49.7020   22.7990   38.5440 C   0  0  0  0  0  0  0  0  0  0  0  0
   48.9020   24.0370   38.9750 C   0  0  0  0  0  0  0  0  0  0  0  0
   43.5619   26.0561   33.3711 H   0  0  0  0  0  0  0  0  0  0  0  0
   45.8931   27.0014   33.4008 H   0  0  0  0  0  0  0  0  0  0  0  0
   47.2852   26.8862   35.4207 H   0  0  0  0  0  0  0  0  0  0  0  0
   39.3230   25.6938   34.6407 H   0  0  0  0  0  0  0  0  0  0  0  0
   40.7995   22.0520   36.4224 H   0  0  0  0  0  0  0  0  0  0  0  0
   49.7564   25.1846   37.3338 H   0  0  0  0  0  0  0  0  0  0  0  0
   48.8244   23.8341   35.7138 H   0  0  0  0  0  0  0  0  0  0  0  0
   47.2929   23.6427   36.5709 H   0  0  0  0  0  0  0  0  0  0  0  0
   48.0775   21.7201   37.6030 H   0  0  0  0  0  0  0  0  0  0  0  0
   49.5331   21.8163   36.6036 H   0  0  0  0  0  0  0  0  0  0  0  0
   49.6945   22.0193   39.3199 H   0  0  0  0  0  0  0  0  0  0  0  0
   50.7713   22.9823   38.3622 H   0  0  0  0  0  0  0  0  0  0  0  0
   49.4456   24.6392   39.7179 H   0  0  0  0  0  0  0  0  0  0  0  0
   47.9417   23.8265   39.4685 H   0  0  0  0  0  0  0  0  0  0  0  0
  1 11  1  0
  1  6  2  0
  2  3  2  0
  2  1  1  0
  3  4  1  0
  4  5  2  0
  5 20  1  0
  6  5  1  0
  7  8  2  0
  8 13  1  0
  8  9  1  0
 10  9  2  0
 11 10  1  0
 12  7  1  0
 12 11  2  0
 13 15  1  0
 14 13  2  0
 15 16  1  0
 16 19  1  0
 16 17  1  0
 18 16  1  0
 20 21  2  0
 22 20  1  0
 23 22  1  0
 23 27  1  0
 24 25  1  0
 24 23  1  0
 25 26  1  0
 26 27  1  0
  2 28  1  0
  3 29  1  0
  4 30  1  0
  7 31  1  0
  9 32  1  0
 23 33  1  0
 24 34  1  0
 24 35  1  0
 25 36  1  0
 25 37  1  0
 26 38  1  0
 26 39  1  0
 27 40  1  0
 27 41  1  0
M  ISO  8  28  14  29  14  30  14  31  14  32  14  33  13  34  13  35  13
M  ISO  6  36  13  37  13  38  13  39  13  40  13  41  13
M  END
>  <minimizedAffinity>  (1) 
-4.92444468

>  <minimizedRMSD>  (1) 
3.52763987

$$$$
