
     RDKit          3D

 35 37  0  0  0  0  0  0  0  0999 V2000
   39.7580   25.9510   35.0540 C   0  0  0  0  0  0  0  0  0  0  0  0
   39.9670   24.6320   35.4430 C   0  0  0  0  0  0  0  0  0  0  0  0
   41.2080   24.0400   35.2600 C   0  0  0  0  0  0  0  0  0  0  0  0
   42.1800   24.7870   34.6980 N   0  0  0  0  0  0  0  0  0  0  0  0
   41.9630   26.0750   34.3220 C   0  0  0  0  0  0  0  0  0  0  0  0
   40.7560   26.6480   34.5000 N   0  0  0  0  0  0  0  0  0  0  0  0
   43.0380   26.8600   33.7150 C   0  0  0  0  0  0  0  0  0  0  0  0
   42.7680   27.4750   32.4760 C   0  0  0  0  0  0  0  0  0  0  0  0
   43.8230   28.2030   31.9530 C   0  0  0  0  0  0  0  0  0  0  0  0
   45.0380   28.3140   32.5970 C   0  0  0  0  0  0  0  0  0  0  0  0
   45.2390   27.6940   33.7970 C   0  0  0  0  0  0  0  0  0  0  0  0
   44.2320   26.9930   34.3060 N   0  0  0  0  0  0  0  0  0  0  0  0
   46.5150   27.7940   34.4990 C   0  0  0  0  0  0  0  0  0  0  0  0
   46.9860   26.8170   35.1490 O   0  0  0  0  0  0  0  0  0  0  0  0
   47.2130   29.0200   34.4310 O   0  0  0  0  0  0  0  0  0  0  0  0
   48.6440   28.9640   34.5330 C   0  0  0  0  0  0  0  0  0  0  0  0
   49.2550   29.8830   35.6190 C   0  0  0  0  0  0  0  0  0  0  0  0
   49.3200   30.2640   34.1750 C   0  0  0  0  0  0  0  0  0  0  0  0
   38.9880   23.7680   36.0480 C   0  0  0  0  0  0  0  0  0  0  0  0
   37.8820   23.3920   35.5530 O   0  0  0  0  0  0  0  0  0  0  0  0
   39.0370   23.1620   37.2930 O   0  0  0  0  0  0  0  0  0  0  0  0
   38.3750   23.7440   38.4310 C   0  0  0  0  0  0  0  0  0  0  0  0
   37.3100   22.9450   38.8050 F   0  0  0  0  0  0  0  0  0  0  0  0
   37.9880   25.0360   38.1460 F   0  0  0  0  0  0  0  0  0  0  0  0
   39.2680   23.7560   39.4870 F   0  0  0  0  0  0  0  0  0  0  0  0
   38.7739   26.4199   35.2017 H   0  0  0  0  0  0  0  0  0  0  0  0
   41.3927   22.9986   35.5624 H   0  0  0  0  0  0  0  0  0  0  0  0
   41.7977   27.3839   31.9659 H   0  0  0  0  0  0  0  0  0  0  0  0
   43.6874   28.7122   30.9874 H   0  0  0  0  0  0  0  0  0  0  0  0
   45.8475   28.9039   32.1424 H   0  0  0  0  0  0  0  0  0  0  0  0
   48.7530   27.9054   34.2546 H   0  0  0  0  0  0  0  0  0  0  0  0
   48.5985   30.4364   36.3066 H   0  0  0  0  0  0  0  0  0  0  0  0
   49.9901   29.7555   36.4273 H   0  0  0  0  0  0  0  0  0  0  0  0
   50.2871   30.2482   33.6510 H   0  0  0  0  0  0  0  0  0  0  0  0
   49.0154   31.1532   33.6035 H   0  0  0  0  0  0  0  0  0  0  0  0
  1  2  2  0
  2 19  1  0
  3  2  1  0
  4  3  2  0
  5  6  2  0
  5  4  1  0
  6  1  1  0
  7 12  1  0
  7  5  1  0
  8  7  2  0
  9  8  1  0
  9 10  2  0
 10 11  1  0
 11 12  2  0
 11 13  1  0
 13 14  2  0
 15 13  1  0
 15 16  1  0
 16 17  1  0
 18 16  1  0
 18 17  1  0
 19 21  1  0
 20 19  2  0
 21 22  1  0
 22 23  1  0
 22 25  1  0
 24 22  1  0
  1 26  1  0
  3 27  1  0
  8 28  1  0
  9 29  1  0
 10 30  1  0
 16 31  1  0
 17 32  1  0
 17 33  1  0
 18 34  1  0
 18 35  1  0
M  ISO  8  26  14  27  14  28  14  29  14  30  14  31  13  32  13  33  13
M  ISO  2  34  13  35  13
M  END
>  <minimizedAffinity>  (1) 
-4.4970355

>  <minimizedRMSD>  (1) 
0.666022062

$$$$
