
     RDKit          3D

 43 45  0  0  0  0  0  0  0  0999 V2000
   42.9640   26.7630   33.7270 C   0  0  0  0  0  0  0  0  0  0  0  0
   42.6590   27.3840   32.5110 C   0  0  0  0  0  0  0  0  0  0  0  0
   43.6920   28.1330   31.9790 C   0  0  0  0  0  0  0  0  0  0  0  0
   44.9170   28.2530   32.5980 C   0  0  0  0  0  0  0  0  0  0  0  0
   45.1590   27.6150   33.8010 C   0  0  0  0  0  0  0  0  0  0  0  0
   44.1730   26.9020   34.3080 N   0  0  0  0  0  0  0  0  0  0  0  0
   39.7100   25.7790   35.0810 C   0  0  0  0  0  0  0  0  0  0  0  0
   39.9520   24.4790   35.4970 C   0  0  0  0  0  0  0  0  0  0  0  0
   41.2060   23.9150   35.3300 C   0  0  0  0  0  0  0  0  0  0  0  0
   42.1740   24.6650   34.7550 N   0  0  0  0  0  0  0  0  0  0  0  0
   41.9080   25.9480   34.3530 C   0  0  0  0  0  0  0  0  0  0  0  0
   40.6940   26.4850   34.5180 N   0  0  0  0  0  0  0  0  0  0  0  0
   38.9940   23.6140   36.1110 C   0  0  0  0  0  0  0  0  0  0  0  0
   37.9100   23.1800   35.6090 O   0  0  0  0  0  0  0  0  0  0  0  0
   39.0420   23.0640   37.3930 O   0  0  0  0  0  0  0  0  0  0  0  0
   38.3660   23.6670   38.4880 C   0  0  0  0  0  0  0  0  0  0  0  0
   37.3040   22.8940   38.9060 F   0  0  0  0  0  0  0  0  0  0  0  0
   37.9630   24.9500   38.1420 F   0  0  0  0  0  0  0  0  0  0  0  0
   39.2600   23.7860   39.5430 F   0  0  0  0  0  0  0  0  0  0  0  0
   46.4430   27.7360   34.4620 C   0  0  0  0  0  0  0  0  0  0  0  0
   46.9890   26.7600   35.0180 O   0  0  0  0  0  0  0  0  0  0  0  0
   47.0750   28.9750   34.4710 O   0  0  0  0  0  0  0  0  0  0  0  0
   50.2160   31.4750   34.5130 N   0  0  0  0  0  0  0  0  0  0  0  0
   50.2950   30.4270   35.4760 C   0  0  0  0  0  0  0  0  0  0  0  0
   49.0840   29.5690   35.6190 C   0  0  0  0  0  0  0  0  0  0  0  0
   48.4610   29.1710   34.3140 C   0  0  0  0  0  0  0  0  0  0  0  0
   48.6820   30.1870   33.2230 C   0  0  0  0  0  0  0  0  0  0  0  0
   48.9940   31.5580   33.7790 C   0  0  0  0  0  0  0  0  0  0  0  0
   41.6798   27.2847   32.0197 H   0  0  0  0  0  0  0  0  0  0  0  0
   43.5295   28.6537   31.0238 H   0  0  0  0  0  0  0  0  0  0  0  0
   45.7075   28.8600   32.1325 H   0  0  0  0  0  0  0  0  0  0  0  0
   38.7138   26.2262   35.2138 H   0  0  0  0  0  0  0  0  0  0  0  0
   41.4094   22.8844   35.6563 H   0  0  0  0  0  0  0  0  0  0  0  0
   50.3480   32.3686   35.0078 H   0  0  0  0  0  0  0  0  0  0  0  0
   51.1358   29.7759   35.1946 H   0  0  0  0  0  0  0  0  0  0  0  0
   50.4150   30.9294   36.4472 H   0  0  0  0  0  0  0  0  0  0  0  0
   49.3699   28.6543   36.1590 H   0  0  0  0  0  0  0  0  0  0  0  0
   48.3344   30.1641   36.1612 H   0  0  0  0  0  0  0  0  0  0  0  0
   48.9544   28.2352   34.0127 H   0  0  0  0  0  0  0  0  0  0  0  0
   47.7718   30.2518   32.6087 H   0  0  0  0  0  0  0  0  0  0  0  0
   49.5445   29.8595   32.6240 H   0  0  0  0  0  0  0  0  0  0  0  0
   49.1031   32.2780   32.9546 H   0  0  0  0  0  0  0  0  0  0  0  0
   48.1788   31.8959   34.4358 H   0  0  0  0  0  0  0  0  0  0  0  0
  1  6  1  0
  1 11  1  0
  2  1  2  0
  3  2  1  0
  3  4  2  0
  4  5  1  0
  5  6  2  0
  5 20  1  0
  7  8  2  0
  8 13  1  0
  9  8  1  0
 10  9  2  0
 11 12  2  0
 11 10  1  0
 12  7  1  0
 13 15  1  0
 14 13  2  0
 15 16  1  0
 16 17  1  0
 16 19  1  0
 18 16  1  0
 20 22  1  0
 20 21  2  0
 23 24  1  0
 24 25  1  0
 26 22  1  0
 26 25  1  0
 27 28  1  0
 27 26  1  0
 28 23  1  0
  2 29  1  0
  3 30  1  0
  4 31  1  0
  7 32  1  0
  9 33  1  0
 23 34  1  0
 24 35  1  0
 24 36  1  0
 25 37  1  0
 25 38  1  0
 26 39  1  0
 27 40  1  0
 27 41  1  0
 28 42  1  0
 28 43  1  0
M  ISO  8  29  14  30  14  31  14  32  14  33  14  34   5  35  13  36  13
M  ISO  7  37  13  38  13  39  13  40  13  41  13  42  13  43  13
M  END
>  <minimizedAffinity>  (1) 
-4.67225409

>  <minimizedRMSD>  (1) 
0.810033917

$$$$
