
     RDKit          3D

 34 35  0  0  0  0  0  0  0  0999 V2000
   40.1080   25.3620   34.9870 C   0  0  0  0  0  0  0  0  0  0  0  0
   40.0140   24.0780   35.4840 C   0  0  0  0  0  0  0  0  0  0  0  0
   41.1620   23.3750   35.8330 C   0  0  0  0  0  0  0  0  0  0  0  0
   42.3440   24.0020   35.6610 N   0  0  0  0  0  0  0  0  0  0  0  0
   42.4160   25.2750   35.1670 C   0  0  0  0  0  0  0  0  0  0  0  0
   41.3040   25.9330   34.8380 N   0  0  0  0  0  0  0  0  0  0  0  0
   43.7160   25.9270   34.9940 C   0  0  0  0  0  0  0  0  0  0  0  0
   43.8630   26.7790   33.8860 C   0  0  0  0  0  0  0  0  0  0  0  0
   45.1130   27.3640   33.7780 C   0  0  0  0  0  0  0  0  0  0  0  0
   46.1270   27.1240   34.6870 C   0  0  0  0  0  0  0  0  0  0  0  0
   45.9150   26.2830   35.7420 C   0  0  0  0  0  0  0  0  0  0  0  0
   44.7270   25.7190   35.8570 N   0  0  0  0  0  0  0  0  0  0  0  0
   46.9780   26.0240   36.7050 C   0  0  0  0  0  0  0  0  0  0  0  0
   46.7230   25.5750   37.8570 O   0  0  0  0  0  0  0  0  0  0  0  0
   48.3000   26.2760   36.3560 O   0  0  0  0  0  0  0  0  0  0  0  0
   49.1010   27.2470   36.9660 C   0  0  0  0  0  0  0  0  0  0  0  0
   49.3550   28.4590   36.1360 C   0  0  0  0  0  0  0  0  0  0  0  0
   38.8020   23.3460   35.6940 C   0  0  0  0  0  0  0  0  0  0  0  0
   37.8680   23.1360   34.8430 O   0  0  0  0  0  0  0  0  0  0  0  0
   38.3750   22.7090   36.8580 O   0  0  0  0  0  0  0  0  0  0  0  0
   38.2190   23.4350   38.0900 C   0  0  0  0  0  0  0  0  0  0  0  0
   37.2720   22.8180   38.8880 F   0  0  0  0  0  0  0  0  0  0  0  0
   37.8850   24.7490   37.8230 F   0  0  0  0  0  0  0  0  0  0  0  0
   39.4260   23.4150   38.7640 F   0  0  0  0  0  0  0  0  0  0  0  0
   39.1968   25.9143   34.7138 H   0  0  0  0  0  0  0  0  0  0  0  0
   41.1085   22.3514   36.2322 H   0  0  0  0  0  0  0  0  0  0  0  0
   43.0531   26.9653   33.1654 H   0  0  0  0  0  0  0  0  0  0  0  0
   45.3070   28.0458   32.9369 H   0  0  0  0  0  0  0  0  0  0  0  0
   47.1052   27.6109   34.5603 H   0  0  0  0  0  0  0  0  0  0  0  0
   48.6050   27.5659   37.8946 H   0  0  0  0  0  0  0  0  0  0  0  0
   50.0810   26.7775   37.1368 H   0  0  0  0  0  0  0  0  0  0  0  0
   49.5359   29.3222   36.7933 H   0  0  0  0  0  0  0  0  0  0  0  0
   50.2373   28.2903   35.5011 H   0  0  0  0  0  0  0  0  0  0  0  0
   48.4792   28.6588   35.5011 H   0  0  0  0  0  0  0  0  0  0  0  0
  1  2  2  0
  2 18  1  0
  2  3  1  0
  4  3  2  0
  5  4  1  0
  6  1  1  0
  6  5  2  0
  7  5  1  0
  7 12  1  0
  8  7  2  0
  9  8  1  0
  9 10  2  0
 10 11  1  0
 11 12  2  0
 11 13  1  0
 13 14  2  0
 15 13  1  0
 15 16  1  0
 17 16  1  0
 18 20  1  0
 19 18  2  0
 20 21  1  0
 21 24  1  0
 21 22  1  0
 23 21  1  0
  1 25  1  0
  3 26  1  0
  8 27  1  0
  9 28  1  0
 10 29  1  0
 16 30  1  0
 16 31  1  0
 17 32  1  0
 17 33  1  0
 17 34  1  0
M  ISO  8  25  14  26  14  27  14  28  14  29  14  30   8  31   8  32   8
M  ISO  2  33   8  34   8
M  END
>  <minimizedAffinity>  (1) 
-4.53359222

>  <minimizedRMSD>  (1) 
1.9637363

$$$$
