
     RDKit          3D

 33 35  0  0  0  0  0  0  0  0999 V2000
   38.7570   22.4490   35.6950 N   0  0  0  0  0  0  0  0  0  0  0  0
   39.8300   21.7960   36.2220 C   0  0  0  0  0  0  0  0  0  0  0  0
   40.6780   22.7590   36.7220 C   0  0  0  0  0  0  0  0  0  0  0  0
   40.1080   23.9680   36.4930 N   0  0  0  0  0  0  0  0  0  0  0  0
   38.9230   23.7690   35.8580 C   0  0  0  0  0  0  0  0  0  0  0  0
   37.6480   21.6110   33.6870 C   0  0  0  0  0  0  0  0  0  0  0  0
   37.6660   21.8160   35.0850 C   0  0  0  0  0  0  0  0  0  0  0  0
   36.5770   21.3720   35.8200 C   0  0  0  0  0  0  0  0  0  0  0  0
   35.5540   20.7660   35.1670 N   0  0  0  0  0  0  0  0  0  0  0  0
   35.5560   20.5800   33.8290 C   0  0  0  0  0  0  0  0  0  0  0  0
   36.6080   21.0060   33.0990 N   0  0  0  0  0  0  0  0  0  0  0  0
   38.0320   24.8870   35.4540 C   0  0  0  0  0  0  0  0  0  0  0  0
   38.1410   25.2390   33.9980 C   0  0  0  0  0  0  0  0  0  0  0  0
   39.4280   25.9340   33.7280 C   0  0  0  0  0  0  0  0  0  0  0  0
   39.5740   27.1760   34.5280 C   0  0  0  0  0  0  0  0  0  0  0  0
   38.6390   27.3280   35.6870 C   0  0  0  0  0  0  0  0  0  0  0  0
   38.2410   26.0600   36.3530 C   0  0  0  0  0  0  0  0  0  0  0  0
   39.9888   20.7077   36.2440 H   0  0  0  0  0  0  0  0  0  0  0  0
   41.6435   22.5799   37.2177 H   0  0  0  0  0  0  0  0  0  0  0  0
   38.4966   21.9517   33.0757 H   0  0  0  0  0  0  0  0  0  0  0  0
   36.5434   21.5085   36.9110 H   0  0  0  0  0  0  0  0  0  0  0  0
   34.7056   20.0845   33.3377 H   0  0  0  0  0  0  0  0  0  0  0  0
   36.9937   24.5448   35.5757 H   0  0  0  0  0  0  0  0  0  0  0  0
   38.0933   24.3184   33.3979 H   0  0  0  0  0  0  0  0  0  0  0  0
   37.3105   25.9085   33.7294 H   0  0  0  0  0  0  0  0  0  0  0  0
   40.2564   25.2539   33.9755 H   0  0  0  0  0  0  0  0  0  0  0  0
   39.4436   26.2140   32.6644 H   0  0  0  0  0  0  0  0  0  0  0  0
   40.6016   27.2044   34.9195 H   0  0  0  0  0  0  0  0  0  0  0  0
   39.3288   27.9996   33.8413 H   0  0  0  0  0  0  0  0  0  0  0  0
   39.1285   27.9666   36.4370 H   0  0  0  0  0  0  0  0  0  0  0  0
   37.7140   27.7594   35.2769 H   0  0  0  0  0  0  0  0  0  0  0  0
   37.2994   26.2436   36.8913 H   0  0  0  0  0  0  0  0  0  0  0  0
   39.0855   25.7886   37.0035 H   0  0  0  0  0  0  0  0  0  0  0  0
  1  5  1  0
  1  2  1  0
  2  3  2  0
  4  3  1  0
  5  4  2  0
  6  7  2  0
  7  1  1  0
  7  8  1  0
  9  8  2  0
 10  9  1  0
 11  6  1  0
 11 10  2  0
 12  5  1  0
 12 17  1  0
 13 12  1  0
 14 13  1  0
 14 15  1  0
 15 16  1  0
 16 17  1  0
  2 18  1  0
  3 19  1  0
  6 20  1  0
  8 21  1  0
 10 22  1  0
 12 23  1  0
 13 24  1  0
 13 25  1  0
 14 26  1  0
 14 27  1  0
 15 28  1  0
 15 29  1  0
 16 30  1  0
 16 31  1  0
 17 32  1  0
 17 33  1  0
M  ISO  8  18  14  19  14  20  14  21  14  22  14  23  13  24  13  25  13
M  ISO  8  26  13  27  13  28  13  29  13  30  13  31  13  32  13  33  13
M  END
>  <minimizedAffinity>  (1) 
-4.32261753

>  <minimizedRMSD>  (1) 
3.26685095

$$$$
