
     RDKit          3D

 26 27  0  0  0  0  0  0  0  0999 V2000
   39.3640   22.5460   35.9180 N   0  0  0  0  0  0  0  0  0  0  0  0
   40.4460   21.7970   36.1770 C   0  0  0  0  0  0  0  0  0  0  0  0
   40.8340   22.0340   37.4710 C   0  0  0  0  0  0  0  0  0  0  0  0
   39.9640   22.9400   37.9830 N   0  0  0  0  0  0  0  0  0  0  0  0
   39.0670   23.2450   37.0160 C   0  0  0  0  0  0  0  0  0  0  0  0
   39.1180   23.4190   33.6640 C   0  0  0  0  0  0  0  0  0  0  0  0
   38.6620   22.5890   34.6960 C   0  0  0  0  0  0  0  0  0  0  0  0
   37.5270   21.8350   34.4720 C   0  0  0  0  0  0  0  0  0  0  0  0
   36.9190   21.9420   33.2640 N   0  0  0  0  0  0  0  0  0  0  0  0
   37.3690   22.7420   32.2880 C   0  0  0  0  0  0  0  0  0  0  0  0
   38.4850   23.4870   32.4980 N   0  0  0  0  0  0  0  0  0  0  0  0
   37.9590   24.2240   37.2520 C   0  0  0  0  0  0  0  0  0  0  0  0
   38.1920   25.5140   36.4990 C   0  0  0  0  0  0  0  0  0  0  0  0
   37.8590   24.4550   38.7600 C   0  0  0  0  0  0  0  0  0  0  0  0
   40.9379   21.1103   35.4724 H   0  0  0  0  0  0  0  0  0  0  0  0
   41.6873   21.5769   37.9935 H   0  0  0  0  0  0  0  0  0  0  0  0
   40.0202   24.0280   33.8225 H   0  0  0  0  0  0  0  0  0  0  0  0
   37.1278   21.1675   35.2499 H   0  0  0  0  0  0  0  0  0  0  0  0
   36.8394   22.7949   31.3253 H   0  0  0  0  0  0  0  0  0  0  0  0
   37.0081   23.8218   36.8726 H   0  0  0  0  0  0  0  0  0  0  0  0
   38.3403   26.3352   37.2157 H   0  0  0  0  0  0  0  0  0  0  0  0
   39.0864   25.4131   35.8667 H   0  0  0  0  0  0  0  0  0  0  0  0
   37.3188   25.7324   35.8667 H   0  0  0  0  0  0  0  0  0  0  0  0
   38.2414   23.5716   39.2924 H   0  0  0  0  0  0  0  0  0  0  0  0
   38.4561   25.3366   39.0363 H   0  0  0  0  0  0  0  0  0  0  0  0
   36.8076   24.6230   39.0363 H   0  0  0  0  0  0  0  0  0  0  0  0
  1  2  1  0
  1  5  1  0
  2  3  2  0
  3  4  1  0
  5 12  1  0
  5  4  2  0
  6  7  2  0
  7  1  1  0
  8  7  1  0
  9  8  2  0
 10 11  2  0
 10  9  1  0
 11  6  1  0
 12 14  1  0
 13 12  1  0
  2 15  1  0
  3 16  1  0
  6 17  1  0
  8 18  1  0
 10 19  1  0
 12 20  1  0
 13 21  1  0
 13 22  1  0
 13 23  1  0
 14 24  1  0
 14 25  1  0
 14 26  1  0
M  ISO  8  15  14  16  14  17  14  18  14  19  14  20   8  21   8  22   8
M  ISO  4  23   8  24   8  25   8  26   8
M  END
>  <minimizedAffinity>  (1) 
-3.86977744

>  <minimizedRMSD>  (1) 
2.12895298

$$$$
