
     RDKit          3D

 19 20  0  0  0  0  0  0  0  0999 V2000
   39.3560   22.6880   36.0480 N   0  0  0  0  0  0  0  0  0  0  0  0
   40.5210   22.0270   36.1260 C   0  0  0  0  0  0  0  0  0  0  0  0
   40.9360   22.0740   37.4360 C   0  0  0  0  0  0  0  0  0  0  0  0
   40.0090   22.7680   38.1340 N   0  0  0  0  0  0  0  0  0  0  0  0
   39.0300   23.1460   37.2630 C   0  0  0  0  0  0  0  0  0  0  0  0
   38.6810   24.0760   34.1660 C   0  0  0  0  0  0  0  0  0  0  0  0
   38.5930   22.8740   34.8770 C   0  0  0  0  0  0  0  0  0  0  0  0
   37.7450   21.9060   34.3820 C   0  0  0  0  0  0  0  0  0  0  0  0
   37.0490   22.1660   33.2500 N   0  0  0  0  0  0  0  0  0  0  0  0
   37.1500   23.3230   32.5900 C   0  0  0  0  0  0  0  0  0  0  0  0
   37.9830   24.3010   33.0550 N   0  0  0  0  0  0  0  0  0  0  0  0
   37.8720   23.9170   37.7010 C   0  0  0  0  0  0  0  0  0  0  0  0
   37.7850   24.6110   38.7480 O   0  0  0  0  0  0  0  0  0  0  0  0
   41.0479   21.5370   35.2939 H   0  0  0  0  0  0  0  0  0  0  0  0
   41.8556   21.6278   37.8425 H   0  0  0  0  0  0  0  0  0  0  0  0
   39.3517   24.8641   34.5389 H   0  0  0  0  0  0  0  0  0  0  0  0
   37.6359   20.9403   34.8972 H   0  0  0  0  0  0  0  0  0  0  0  0
   36.5637   23.4880   31.6740 H   0  0  0  0  0  0  0  0  0  0  0  0
   36.9850   23.8894   37.0510 H   0  0  0  0  0  0  0  0  0  0  0  0
  1  2  1  0
  1  5  1  0
  2  3  2  0
  3  4  1  0
  5 12  1  0
  5  4  2  0
  6  7  2  0
  7  1  1  0
  8  7  1  0
  9  8  2  0
 10 11  2  0
 10  9  1  0
 11  6  1  0
 12 13  2  0
  2 14  1  0
  3 15  1  0
  6 16  1  0
  8 17  1  0
 10 18  1  0
 12 19  1  0
M  ISO  6  14  14  15  14  16  14  17  14  18  14  19   6
M  END
>  <minimizedAffinity>  (1) 
-3.48823905

>  <minimizedRMSD>  (1) 
2.10875511

$$$$
