
     RDKit          3D

 23 24  0  0  0  0  0  0  0  0999 V2000
   39.2160   22.6590   35.9910 N   0  0  0  0  0  0  0  0  0  0  0  0
   40.4160   22.0140   36.0880 C   0  0  0  0  0  0  0  0  0  0  0  0
   40.7980   22.1330   37.4200 C   0  0  0  0  0  0  0  0  0  0  0  0
   39.8330   22.8360   38.0710 N   0  0  0  0  0  0  0  0  0  0  0  0
   38.8590   23.1570   37.1850 C   0  0  0  0  0  0  0  0  0  0  0  0
   38.6380   23.8850   33.9560 C   0  0  0  0  0  0  0  0  0  0  0  0
   38.4790   22.7650   34.8030 C   0  0  0  0  0  0  0  0  0  0  0  0
   37.5770   21.7830   34.4150 C   0  0  0  0  0  0  0  0  0  0  0  0
   36.9120   21.9740   33.2380 N   0  0  0  0  0  0  0  0  0  0  0  0
   37.0790   23.0400   32.4550 C   0  0  0  0  0  0  0  0  0  0  0  0
   37.9610   24.0180   32.8190 N   0  0  0  0  0  0  0  0  0  0  0  0
   37.6710   23.9370   37.6130 C   0  0  0  0  0  0  0  0  0  0  0  0
   37.9180   24.7710   38.8470 C   0  0  0  0  0  0  0  0  0  0  0  0
   40.9654   21.5066   35.2814 H   0  0  0  0  0  0  0  0  0  0  0  0
   41.7182   21.7297   37.8678 H   0  0  0  0  0  0  0  0  0  0  0  0
   39.3465   24.6744   34.2473 H   0  0  0  0  0  0  0  0  0  0  0  0
   37.4053   20.8878   35.0308 H   0  0  0  0  0  0  0  0  0  0  0  0
   36.5086   23.1319   31.5190 H   0  0  0  0  0  0  0  0  0  0  0  0
   37.3786   24.6072   36.7912 H   0  0  0  0  0  0  0  0  0  0  0  0
   36.8787   23.2151   37.8604 H   0  0  0  0  0  0  0  0  0  0  0  0
   37.7373   24.1608   39.7442 H   0  0  0  0  0  0  0  0  0  0  0  0
   38.9595   25.1249   38.8479 H   0  0  0  0  0  0  0  0  0  0  0  0
   37.2372   25.6350   38.8479 H   0  0  0  0  0  0  0  0  0  0  0  0
  1  2  1  0
  1  5  1  0
  2  3  2  0
  3  4  1  0
  5 12  1  0
  5  4  2  0
  6  7  2  0
  7  1  1  0
  8  7  1  0
  9  8  2  0
 10 11  2  0
 10  9  1  0
 11  6  1  0
 12 13  1  0
  2 14  1  0
  3 15  1  0
  6 16  1  0
  8 17  1  0
 10 18  1  0
 12 19  1  0
 12 20  1  0
 13 21  1  0
 13 22  1  0
 13 23  1  0
M  ISO  8  14  14  15  14  16  14  17  14  18  14  19   8  20   8  21   8
M  ISO  2  22   8  23   8
M  END
>  <minimizedAffinity>  (1) 
-3.63951564

>  <minimizedRMSD>  (1) 
1.78960574

$$$$
