
     RDKit          3D

 24 25  0  0  0  0  0  0  0  0999 V2000
   38.3170   23.2840   36.5300 N   0  0  0  0  0  0  0  0  0  0  0  0
   37.3160   23.4960   37.3960 C   0  0  0  0  0  0  0  0  0  0  0  0
   37.9010   23.6310   38.6420 C   0  0  0  0  0  0  0  0  0  0  0  0
   39.2420   23.4960   38.4920 N   0  0  0  0  0  0  0  0  0  0  0  0
   39.5040   23.2800   37.1790 C   0  0  0  0  0  0  0  0  0  0  0  0
   40.7900   23.0850   36.5980 N   0  0  0  0  0  0  0  0  0  0  0  0
   41.4560   21.8400   36.7770 C   0  0  0  0  0  0  0  0  0  0  0  0
   41.1800   21.0640   37.7710 N   0  0  0  0  0  0  0  0  0  0  0  0
   42.4500   21.4290   35.8470 N   0  0  0  0  0  0  0  0  0  0  0  0
   41.6360   20.1500   37.9420 H   0  0  0  0  0  0  0  0  0  0  0  0
   37.9210   21.8220   34.6140 C   0  0  0  0  0  0  0  0  0  0  0  0
   38.1470   23.0940   35.1390 C   0  0  0  0  0  0  0  0  0  0  0  0
   38.2000   24.1640   34.2480 C   0  0  0  0  0  0  0  0  0  0  0  0
   38.0280   23.9140   32.9250 N   0  0  0  0  0  0  0  0  0  0  0  0
   37.8110   22.6700   32.4490 C   0  0  0  0  0  0  0  0  0  0  0  0
   37.7580   21.6300   33.3020 N   0  0  0  0  0  0  0  0  0  0  0  0
   36.2426   23.5516   37.1621 H   0  0  0  0  0  0  0  0  0  0  0  0
   37.3715   23.8155   39.5884 H   0  0  0  0  0  0  0  0  0  0  0  0
   41.2338   23.8382   36.0533 H   0  0  0  0  0  0  0  0  0  0  0  0
   42.9334   20.5285   35.9743 H   0  0  0  0  0  0  0  0  0  0  0  0
   42.6866   22.0318   35.0460 H   0  0  0  0  0  0  0  0  0  0  0  0
   37.8760   20.9588   35.2943 H   0  0  0  0  0  0  0  0  0  0  0  0
   38.3772   25.1880   34.6086 H   0  0  0  0  0  0  0  0  0  0  0  0
   37.6781   22.5067   31.3693 H   0  0  0  0  0  0  0  0  0  0  0  0
  1  5  1  0
  1  2  1  0
  2  3  2  0
  4  3  1  0
  5  4  2  0
  6  7  1  0
  6  5  1  0
  7  8  2  0
  8 10  1  0
  9  7  1  0
 11 12  2  0
 12  1  1  0
 13 12  1  0
 14 13  2  0
 15 14  1  0
 15 16  2  0
 16 11  1  0
  2 17  1  0
  3 18  1  0
  6 19  1  0
  9 20  1  0
  9 21  1  0
 11 22  1  0
 13 23  1  0
 15 24  1  0
M  ISO  5  17  14  18  14  22  14  23  14  24  14
M  END
>  <minimizedAffinity>  (1) 
-4.1361146

>  <minimizedRMSD>  (1) 
4.04397869

$$$$
