
     RDKit          3D

 33 36  0  0  0  0  0  0  0  0999 V2000
   40.3220   24.2170   34.8030 C   0  0  0  0  0  0  0  0  0  0  0  0
   39.9720   22.9400   35.1970 C   0  0  0  0  0  0  0  0  0  0  0  0
   38.7590   22.4140   34.7500 C   0  0  0  0  0  0  0  0  0  0  0  0
   37.9880   23.2010   33.9450 N   0  0  0  0  0  0  0  0  0  0  0  0
   38.3530   24.4320   33.5820 C   0  0  0  0  0  0  0  0  0  0  0  0
   39.5370   24.9540   34.0140 N   0  0  0  0  0  0  0  0  0  0  0  0
   40.8130   22.1790   36.0290 N   0  0  0  0  0  0  0  0  0  0  0  0
   41.8950   21.4750   35.6060 C   0  0  0  0  0  0  0  0  0  0  0  0
   42.4370   20.8760   36.7240 C   0  0  0  0  0  0  0  0  0  0  0  0
   41.6950   21.2160   37.7920 N   0  0  0  0  0  0  0  0  0  0  0  0
   40.6760   22.0320   37.3680 C   0  0  0  0  0  0  0  0  0  0  0  0
   39.6320   22.6490   38.1270 N   0  0  0  0  0  0  0  0  0  0  0  0
   37.5230   25.2690   32.7200 C   0  0  0  0  0  0  0  0  0  0  0  0
   37.1830   24.9740   31.4220 C   0  0  0  0  0  0  0  0  0  0  0  0
   36.4170   25.9880   30.9870 N   0  0  0  0  0  0  0  0  0  0  0  0
   36.2470   26.9290   31.9540 C   0  0  0  0  0  0  0  0  0  0  0  0
   35.5680   28.1270   32.0100 C   0  0  0  0  0  0  0  0  0  0  0  0
   35.5600   28.9060   33.1440 C   0  0  0  0  0  0  0  0  0  0  0  0
   36.2660   28.4380   34.2380 C   0  0  0  0  0  0  0  0  0  0  0  0
   36.9620   27.2380   34.2230 C   0  0  0  0  0  0  0  0  0  0  0  0
   36.9460   26.4770   33.0540 C   0  0  0  0  0  0  0  0  0  0  0  0
   41.2766   24.6393   35.1500 H   0  0  0  0  0  0  0  0  0  0  0  0
   38.4363   21.4021   35.0362 H   0  0  0  0  0  0  0  0  0  0  0  0
   42.2664   21.3977   34.5735 H   0  0  0  0  0  0  0  0  0  0  0  0
   43.3265   20.2291   36.7391 H   0  0  0  0  0  0  0  0  0  0  0  0
   39.5785   22.5005   39.1448 H   0  0  0  0  0  0  0  0  0  0  0  0
   38.9338   23.2417   37.6556 H   0  0  0  0  0  0  0  0  0  0  0  0
   37.4799   24.0821   30.8508 H   0  0  0  0  0  0  0  0  0  0  0  0
   36.0106   26.0455   30.0423 H   0  0  0  0  0  0  0  0  0  0  0  0
   35.0165   28.4703   31.1223 H   0  0  0  0  0  0  0  0  0  0  0  0
   35.0151   29.8609   33.1794 H   0  0  0  0  0  0  0  0  0  0  0  0
   36.2758   29.0421   35.1572 H   0  0  0  0  0  0  0  0  0  0  0  0
   37.5130   26.8950   35.1111 H   0  0  0  0  0  0  0  0  0  0  0  0
  1  2  2  0
  2  7  1  0
  3  2  1  0
  4  3  2  0
  5  4  1  0
  5  6  2  0
  6  1  1  0
  7 11  1  0
  8  7  1  0
  8  9  2  0
  9 10  1  0
 11 10  2  0
 11 12  1  0
 13 21  1  0
 13  5  1  0
 14 13  2  0
 15 14  1  0
 15 16  1  0
 16 17  2  0
 16 21  1  0
 17 18  1  0
 18 19  2  0
 20 19  1  0
 21 20  2  0
  1 22  1  0
  3 23  1  0
  8 24  1  0
  9 25  1  0
 12 26  1  0
 12 27  1  0
 14 28  1  0
 15 29  1  0
 17 30  1  0
 18 31  1  0
 19 32  1  0
 20 33  1  0
M  ISO  8  22  14  23  14  24  14  25  14  28  14  29   9  30  14  31  14
M  ISO  2  32  14  33  14
M  END
>  <minimizedAffinity>  (1) 
-5.53596449

>  <minimizedRMSD>  (1) 
3.14351702

$$$$
