
     RDKit          3D

 33 36  0  0  0  0  0  0  0  0999 V2000
   40.2850   24.1160   34.8670 C   0  0  0  0  0  0  0  0  0  0  0  0
   40.0090   22.8140   35.2300 C   0  0  0  0  0  0  0  0  0  0  0  0
   38.8640   22.2310   34.7200 C   0  0  0  0  0  0  0  0  0  0  0  0
   38.1020   22.9980   33.8990 N   0  0  0  0  0  0  0  0  0  0  0  0
   38.3730   24.2510   33.5540 C   0  0  0  0  0  0  0  0  0  0  0  0
   39.4880   24.7890   34.0620 N   0  0  0  0  0  0  0  0  0  0  0  0
   37.3210   24.7580   32.6490 C   0  0  0  0  0  0  0  0  0  0  0  0
   36.7290   24.0470   31.6740 N   0  0  0  0  0  0  0  0  0  0  0  0
   35.7830   24.5310   30.8730 C   0  0  0  0  0  0  0  0  0  0  0  0
   35.3220   25.7880   30.9620 N   0  0  0  0  0  0  0  0  0  0  0  0
   35.8630   26.5680   31.9130 C   0  0  0  0  0  0  0  0  0  0  0  0
   35.3780   27.8550   31.9880 C   0  0  0  0  0  0  0  0  0  0  0  0
   35.8850   28.7120   32.9390 C   0  0  0  0  0  0  0  0  0  0  0  0
   36.8770   28.2350   33.7920 C   0  0  0  0  0  0  0  0  0  0  0  0
   37.3070   26.9390   33.6530 C   0  0  0  0  0  0  0  0  0  0  0  0
   36.8400   26.0450   32.7290 C   0  0  0  0  0  0  0  0  0  0  0  0
   40.8650   22.0960   36.0900 N   0  0  0  0  0  0  0  0  0  0  0  0
   41.9700   21.4080   35.6730 C   0  0  0  0  0  0  0  0  0  0  0  0
   42.5350   20.8450   36.7900 C   0  0  0  0  0  0  0  0  0  0  0  0
   41.7790   21.1940   37.8610 N   0  0  0  0  0  0  0  0  0  0  0  0
   40.7450   21.9700   37.4140 C   0  0  0  0  0  0  0  0  0  0  0  0
   39.6810   22.5790   38.1600 N   0  0  0  0  0  0  0  0  0  0  0  0
   41.1904   24.6031   35.2582 H   0  0  0  0  0  0  0  0  0  0  0  0
   38.5841   21.1964   34.9673 H   0  0  0  0  0  0  0  0  0  0  0  0
   35.3594   23.8702   30.1024 H   0  0  0  0  0  0  0  0  0  0  0  0
   34.5938   28.1946   31.2954 H   0  0  0  0  0  0  0  0  0  0  0  0
   35.5166   29.7451   33.0226 H   0  0  0  0  0  0  0  0  0  0  0  0
   37.3094   28.8869   34.5654 H   0  0  0  0  0  0  0  0  0  0  0  0
   38.0914   26.5907   34.3410 H   0  0  0  0  0  0  0  0  0  0  0  0
   42.3365   21.3219   34.6394 H   0  0  0  0  0  0  0  0  0  0  0  0
   43.4407   20.2211   36.8128 H   0  0  0  0  0  0  0  0  0  0  0  0
   39.6303   22.4533   39.1810 H   0  0  0  0  0  0  0  0  0  0  0  0
   38.9680   23.1418   37.6744 H   0  0  0  0  0  0  0  0  0  0  0  0
  1  2  2  0
  2 17  1  0
  3  2  1  0
  4  3  2  0
  5  4  1  0
  5  6  2  0
  6  1  1  0
  7 16  1  0
  7  5  1  0
  8  7  2  0
  9 10  2  0
  9  8  1  0
 10 11  1  0
 11 12  1  0
 11 16  2  0
 12 13  2  0
 13 14  1  0
 15 14  2  0
 16 15  1  0
 17 21  1  0
 18 17  1  0
 18 19  2  0
 19 20  1  0
 21 20  2  0
 21 22  1  0
  1 23  1  0
  3 24  1  0
  9 25  1  0
 12 26  1  0
 13 27  1  0
 14 28  1  0
 15 29  1  0
 18 30  1  0
 19 31  1  0
 22 32  1  0
 22 33  1  0
M  ISO  8  23  14  24  14  25  14  26  14  27  14  28  14  29  14  30  14
M  ISO  1  31  14
M  END
>  <minimizedAffinity>  (1) 
-5.47140694

>  <minimizedRMSD>  (1) 
2.99912786

$$$$
