
     RDKit          3D

 18 19  0  0  0  0  0  0  0  0999 V2000
   37.7570   22.1270   33.9380 C   0  0  0  0  0  0  0  0  0  0  0  0
   37.6030   21.8780   35.2970 C   0  0  0  0  0  0  0  0  0  0  0  0
   36.4770   21.1590   35.7050 C   0  0  0  0  0  0  0  0  0  0  0  0
   35.6020   20.7480   34.7400 N   0  0  0  0  0  0  0  0  0  0  0  0
   35.7860   21.0080   33.4290 C   0  0  0  0  0  0  0  0  0  0  0  0
   36.8760   21.7040   33.0320 N   0  0  0  0  0  0  0  0  0  0  0  0
   38.5510   22.3330   36.2320 N   0  0  0  0  0  0  0  0  0  0  0  0
   39.8330   21.8840   36.2910 C   0  0  0  0  0  0  0  0  0  0  0  0
   40.4180   22.5810   37.3430 C   0  0  0  0  0  0  0  0  0  0  0  0
   39.4900   23.4160   37.8790 N   0  0  0  0  0  0  0  0  0  0  0  0
   38.3420   23.2480   37.1800 C   0  0  0  0  0  0  0  0  0  0  0  0
   37.2000   23.9690   37.4900 O   0  0  0  0  0  0  0  0  0  0  0  0
   38.6370   22.6931   33.5986 H   0  0  0  0  0  0  0  0  0  0  0  0
   36.3010   20.9316   36.7668 H   0  0  0  0  0  0  0  0  0  0  0  0
   35.0540   20.6561   32.6872 H   0  0  0  0  0  0  0  0  0  0  0  0
   40.3065   21.1303   35.6447 H   0  0  0  0  0  0  0  0  0  0  0  0
   41.4583   22.4740   37.6840 H   0  0  0  0  0  0  0  0  0  0  0  0
   37.2126   24.6196   38.2361 H   0  0  0  0  0  0  0  0  0  0  0  0
  1  2  2  0
  2  3  1  0
  2  7  1  0
  4  3  2  0
  5  4  1  0
  6  5  2  0
  6  1  1  0
  7  8  1  0
  7 11  1  0
  8  9  2  0
  9 10  1  0
 11 12  1  0
 11 10  2  0
  1 13  1  0
  3 14  1  0
  5 15  1  0
  8 16  1  0
  9 17  1  0
 12 18  1  0
M  ISO  6  13  14  14  14  15  14  16  14  17  14  18   3
M  END
>  <minimizedAffinity>  (1) 
-3.21213484

>  <minimizedRMSD>  (1) 
0.503548622

$$$$
