
     RDKit          3D

 19 20  0  0  0  0  0  0  0  0999 V2000
   39.0570   22.7390   36.0300 N   0  0  0  0  0  0  0  0  0  0  0  0
   40.2600   22.1300   36.1840 C   0  0  0  0  0  0  0  0  0  0  0  0
   40.6090   22.2660   37.5120 C   0  0  0  0  0  0  0  0  0  0  0  0
   39.6250   22.9480   38.1370 N   0  0  0  0  0  0  0  0  0  0  0  0
   38.6630   23.2400   37.2150 C   0  0  0  0  0  0  0  0  0  0  0  0
   37.4260   23.9480   37.3930 N   0  0  0  0  0  0  0  0  0  0  0  0
   38.4850   23.9380   33.9890 C   0  0  0  0  0  0  0  0  0  0  0  0
   38.3510   22.8200   34.8080 C   0  0  0  0  0  0  0  0  0  0  0  0
   37.5110   21.7830   34.4090 C   0  0  0  0  0  0  0  0  0  0  0  0
   36.8630   21.9290   33.2210 N   0  0  0  0  0  0  0  0  0  0  0  0
   37.0020   23.0140   32.4400 C   0  0  0  0  0  0  0  0  0  0  0  0
   37.8260   24.0280   32.8360 N   0  0  0  0  0  0  0  0  0  0  0  0
   40.8444   21.6251   35.4008 H   0  0  0  0  0  0  0  0  0  0  0  0
   41.5287   21.8852   37.9802 H   0  0  0  0  0  0  0  0  0  0  0  0
   37.1701   24.3122   38.3218 H   0  0  0  0  0  0  0  0  0  0  0  0
   36.7948   24.0915   36.5918 H   0  0  0  0  0  0  0  0  0  0  0  0
   39.1462   24.7603   34.2999 H   0  0  0  0  0  0  0  0  0  0  0  0
   37.3769   20.8837   35.0281 H   0  0  0  0  0  0  0  0  0  0  0  0
   36.4554   23.0845   31.4880 H   0  0  0  0  0  0  0  0  0  0  0  0
  1  2  1  0
  1  5  1  0
  2  3  2  0
  3  4  1  0
  5  6  1  0
  5  4  2  0
  7  8  2  0
  8  1  1  0
  9  8  1  0
 10  9  2  0
 11 12  2  0
 11 10  1  0
 12  7  1  0
  2 13  1  0
  3 14  1  0
  6 15  1  0
  6 16  1  0
  7 17  1  0
  9 18  1  0
 11 19  1  0
M  ISO  5  13  14  14  14  17  14  18  14  19  14
M  END
>  <minimizedAffinity>  (1) 
-3.3664887

>  <minimizedRMSD>  (1) 
1.72563159

$$$$
