
     RDKit          3D

 26 28  0  0  0  0  0  0  0  0999 V2000
   39.7040   24.2310   34.8030 C   0  0  0  0  0  0  0  0  0  0  0  0
   39.6110   22.8660   35.0610 C   0  0  0  0  0  0  0  0  0  0  0  0
   38.6070   22.1130   34.4660 C   0  0  0  0  0  0  0  0  0  0  0  0
   37.7510   22.7700   33.6440 N   0  0  0  0  0  0  0  0  0  0  0  0
   37.8430   24.0820   33.3980 C   0  0  0  0  0  0  0  0  0  0  0  0
   38.8220   24.8160   33.9800 N   0  0  0  0  0  0  0  0  0  0  0  0
   36.9630   24.8020   32.5430 N   0  0  0  0  0  0  0  0  0  0  0  0
   36.1100   24.1160   31.7270 C   0  0  0  0  0  0  0  0  0  0  0  0
   35.3820   25.0670   31.0160 C   0  0  0  0  0  0  0  0  0  0  0  0
   35.7930   26.2780   31.4000 N   0  0  0  0  0  0  0  0  0  0  0  0
   36.7590   26.1240   32.3330 C   0  0  0  0  0  0  0  0  0  0  0  0
   40.5450   22.2470   35.9350 N   0  0  0  0  0  0  0  0  0  0  0  0
   41.7070   21.6730   35.5260 C   0  0  0  0  0  0  0  0  0  0  0  0
   42.3270   21.1900   36.6640 C   0  0  0  0  0  0  0  0  0  0  0  0
   41.5450   21.4730   37.7210 N   0  0  0  0  0  0  0  0  0  0  0  0
   40.4410   22.1280   37.2710 C   0  0  0  0  0  0  0  0  0  0  0  0
   39.3240   22.6340   38.0080 N   0  0  0  0  0  0  0  0  0  0  0  0
   40.4992   24.8280   35.2733 H   0  0  0  0  0  0  0  0  0  0  0  0
   38.5104   21.0333   34.6528 H   0  0  0  0  0  0  0  0  0  0  0  0
   36.0159   23.0230   31.6466 H   0  0  0  0  0  0  0  0  0  0  0  0
   34.6035   24.8569   30.2679 H   0  0  0  0  0  0  0  0  0  0  0  0
   37.2933   26.9410   32.8399 H   0  0  0  0  0  0  0  0  0  0  0  0
   42.0806   21.6058   34.4936 H   0  0  0  0  0  0  0  0  0  0  0  0
   43.2930   20.6650   36.6986 H   0  0  0  0  0  0  0  0  0  0  0  0
   39.2875   22.5196   39.0310 H   0  0  0  0  0  0  0  0  0  0  0  0
   38.5563   23.1127   37.5156 H   0  0  0  0  0  0  0  0  0  0  0  0
  1  2  2  0
  2 12  1  0
  3  2  1  0
  4  3  2  0
  5  4  1  0
  5  6  2  0
  6  1  1  0
  7  5  1  0
  8  7  1  0
  9 10  1  0
  9  8  2  0
 10 11  2  0
 11  7  1  0
 12 16  1  0
 13 12  1  0
 13 14  2  0
 14 15  1  0
 16 15  2  0
 16 17  1  0
  1 18  1  0
  3 19  1  0
  8 20  1  0
  9 21  1  0
 11 22  1  0
 13 23  1  0
 14 24  1  0
 17 25  1  0
 17 26  1  0
M  ISO  7  18  14  19  14  20  14  21  14  22  14  23  14  24  14
M  END
>  <minimizedAffinity>  (1) 
-4.65611315

>  <minimizedRMSD>  (1) 
2.10139537

$$$$
