
     RDKit          3D

 35 37  0  0  0  0  0  0  0  0999 V2000
   40.0420   25.0050   35.4950 C   0  0  0  0  0  0  0  0  0  0  0  0
   39.7360   23.6530   35.4620 C   0  0  0  0  0  0  0  0  0  0  0  0
   38.5680   23.2340   34.8210 C   0  0  0  0  0  0  0  0  0  0  0  0
   37.7880   24.1890   34.2590 N   0  0  0  0  0  0  0  0  0  0  0  0
   38.0960   25.4940   34.2990 C   0  0  0  0  0  0  0  0  0  0  0  0
   39.2280   25.9030   34.9190 N   0  0  0  0  0  0  0  0  0  0  0  0
   40.5950   22.7080   36.0690 N   0  0  0  0  0  0  0  0  0  0  0  0
   41.6430   22.1080   35.4430 C   0  0  0  0  0  0  0  0  0  0  0  0
   42.2250   21.2600   36.3650 C   0  0  0  0  0  0  0  0  0  0  0  0
   41.5230   21.3630   37.5240 N   0  0  0  0  0  0  0  0  0  0  0  0
   40.5180   22.2590   37.3290 C   0  0  0  0  0  0  0  0  0  0  0  0
   39.5130   22.7020   38.2590 N   0  0  0  0  0  0  0  0  0  0  0  0
   37.2530   26.5550   33.6890 C   0  0  0  0  0  0  0  0  0  0  0  0
   37.1250   27.6520   34.7270 C   0  0  0  0  0  0  0  0  0  0  0  0
   36.0630   28.6400   34.3030 C   0  0  0  0  0  0  0  0  0  0  0  0
   35.8240   28.6030   32.8100 C   0  0  0  0  0  0  0  0  0  0  0  0
   37.0780   28.3410   32.0240 C   0  0  0  0  0  0  0  0  0  0  0  0
   37.8680   27.1600   32.4710 C   0  0  0  0  0  0  0  0  0  0  0  0
   40.9598   25.3443   35.9976 H   0  0  0  0  0  0  0  0  0  0  0  0
   38.2920   22.1702   34.7742 H   0  0  0  0  0  0  0  0  0  0  0  0
   41.9649   22.2673   34.4033 H   0  0  0  0  0  0  0  0  0  0  0  0
   43.1002   20.6164   36.1920 H   0  0  0  0  0  0  0  0  0  0  0  0
   39.4968   22.3257   39.2177 H   0  0  0  0  0  0  0  0  0  0  0  0
   38.8099   23.3953   37.9659 H   0  0  0  0  0  0  0  0  0  0  0  0
   36.2929   26.1096   33.3894 H   0  0  0  0  0  0  0  0  0  0  0  0
   36.8452   27.2084   35.6939 H   0  0  0  0  0  0  0  0  0  0  0  0
   38.0883   28.1745   34.8224 H   0  0  0  0  0  0  0  0  0  0  0  0
   35.1232   28.3960   34.8200 H   0  0  0  0  0  0  0  0  0  0  0  0
   36.4103   29.6495   34.5683 H   0  0  0  0  0  0  0  0  0  0  0  0
   35.0988   27.8057   32.5902 H   0  0  0  0  0  0  0  0  0  0  0  0
   35.4473   29.5923   32.5111 H   0  0  0  0  0  0  0  0  0  0  0  0
   37.7209   29.2302   32.1014 H   0  0  0  0  0  0  0  0  0  0  0  0
   36.7551   28.1224   30.9954 H   0  0  0  0  0  0  0  0  0  0  0  0
   37.8887   26.4115   31.6652 H   0  0  0  0  0  0  0  0  0  0  0  0
   38.8913   27.4846   32.7110 H   0  0  0  0  0  0  0  0  0  0  0  0
  2  1  2  0
  2  7  1  0
  3  2  1  0
  4  5  1  0
  4  3  2  0
  5  6  2  0
  6  1  1  0
  7 11  1  0
  8  7  1  0
  8  9  2  0
  9 10  1  0
 11 10  2  0
 11 12  1  0
 13  5  1  0
 13 14  1  0
 15 14  1  0
 16 15  1  0
 17 18  1  0
 17 16  1  0
 18 13  1  0
  1 19  1  0
  3 20  1  0
  8 21  1  0
  9 22  1  0
 12 23  1  0
 12 24  1  0
 13 25  1  0
 14 26  1  0
 14 27  1  0
 15 28  1  0
 15 29  1  0
 16 30  1  0
 16 31  1  0
 17 32  1  0
 17 33  1  0
 18 34  1  0
 18 35  1  0
M  ISO  8  19  14  20  14  21  14  22  14  25  13  26  13  27  13  28  13
M  ISO  7  29  13  30  13  31  13  32  13  33  13  34  13  35  13
M  END
>  <minimizedAffinity>  (1) 
-4.96130466

>  <minimizedRMSD>  (1) 
3.64139748

$$$$
