
     RDKit          3D

 33 36  0  0  0  0  0  0  0  0999 V2000
   41.0900   23.7280   34.7170 C   0  0  0  0  0  0  0  0  0  0  0  0
   40.6970   22.4560   35.0990 C   0  0  0  0  0  0  0  0  0  0  0  0
   39.4500   21.9710   34.6940 C   0  0  0  0  0  0  0  0  0  0  0  0
   38.6920   22.8110   33.9320 N   0  0  0  0  0  0  0  0  0  0  0  0
   39.0860   24.0390   33.5700 C   0  0  0  0  0  0  0  0  0  0  0  0
   40.3020   24.4990   33.9710 N   0  0  0  0  0  0  0  0  0  0  0  0
   38.1640   24.7760   32.7730 N   0  0  0  0  0  0  0  0  0  0  0  0
   37.6420   24.5570   31.5610 C   0  0  0  0  0  0  0  0  0  0  0  0
   36.8030   25.5910   31.2690 N   0  0  0  0  0  0  0  0  0  0  0  0
   36.7890   26.4700   32.2890 C   0  0  0  0  0  0  0  0  0  0  0  0
   36.1550   27.6540   32.5470 C   0  0  0  0  0  0  0  0  0  0  0  0
   35.3790   28.0700   31.6300 O   0  0  0  0  0  0  0  0  0  0  0  0
   36.3110   28.3640   33.6790 N   0  0  0  0  0  0  0  0  0  0  0  0
   37.1480   27.8230   34.5560 C   0  0  0  0  0  0  0  0  0  0  0  0
   37.4230   28.4410   35.7920 N   0  0  0  0  0  0  0  0  0  0  0  0
   37.8000   26.6620   34.3590 N   0  0  0  0  0  0  0  0  0  0  0  0
   37.6540   25.9380   33.2290 C   0  0  0  0  0  0  0  0  0  0  0  0
   41.5460   21.6440   35.8940 N   0  0  0  0  0  0  0  0  0  0  0  0
   42.6320   20.9770   35.4080 C   0  0  0  0  0  0  0  0  0  0  0  0
   43.1940   20.3080   36.4690 C   0  0  0  0  0  0  0  0  0  0  0  0
   42.4480   20.5760   37.5720 N   0  0  0  0  0  0  0  0  0  0  0  0
   41.4310   21.4050   37.2030 C   0  0  0  0  0  0  0  0  0  0  0  0
   40.3840   21.9680   38.0000 N   0  0  0  0  0  0  0  0  0  0  0  0
   42.0717   24.1082   35.0361 H   0  0  0  0  0  0  0  0  0  0  0  0
   39.0992   20.9669   34.9745 H   0  0  0  0  0  0  0  0  0  0  0  0
   37.8529   23.6934   30.9131 H   0  0  0  0  0  0  0  0  0  0  0  0
   35.8215   29.2538   33.8510 H   0  0  0  0  0  0  0  0  0  0  0  0
   38.0767   27.9996   36.4544 H   0  0  0  0  0  0  0  0  0  0  0  0
   36.9703   29.3342   36.0332 H   0  0  0  0  0  0  0  0  0  0  0  0
   42.9891   20.9749   34.3676 H   0  0  0  0  0  0  0  0  0  0  0  0
   44.0887   19.6692   36.4315 H   0  0  0  0  0  0  0  0  0  0  0  0
   40.3330   21.7570   39.0069 H   0  0  0  0  0  0  0  0  0  0  0  0
   39.6815   22.5842   37.5667 H   0  0  0  0  0  0  0  0  0  0  0  0
  1  2  2  0
  2 18  1  0
  3  2  1  0
  4  3  2  0
  5  4  1  0
  5  6  2  0
  6  1  1  0
  7 17  1  0
  7  5  1  0
  8  7  1  0
  9  8  2  0
  9 10  1  0
 10 11  1  0
 10 17  2  0
 11 13  1  0
 12 11  2  0
 13 14  1  0
 14 15  1  0
 16 14  2  0
 17 16  1  0
 18 22  1  0
 19 18  1  0
 19 20  2  0
 20 21  1  0
 22 21  2  0
 22 23  1  0
  1 24  1  0
  3 25  1  0
  8 26  1  0
 13 27  1  0
 15 28  1  0
 15 29  1  0
 19 30  1  0
 20 31  1  0
 23 32  1  0
 23 33  1  0
M  ISO  6  24  14  25  14  26  14  27   9  30  14  31  14
M  END
>  <minimizedAffinity>  (1) 
-5.22203588

>  <minimizedRMSD>  (1) 
3.77969646

$$$$
