
     RDKit          3D

 26 28  0  0  0  0  0  0  0  0999 V2000
   39.1770   24.2510   34.5720 C   0  0  0  0  0  0  0  0  0  0  0  0
   39.2670   22.8890   34.8150 C   0  0  0  0  0  0  0  0  0  0  0  0
   38.4010   22.0300   34.1510 C   0  0  0  0  0  0  0  0  0  0  0  0
   37.5030   22.5700   33.2940 N   0  0  0  0  0  0  0  0  0  0  0  0
   37.4330   23.9000   33.0720 C   0  0  0  0  0  0  0  0  0  0  0  0
   38.2790   24.7410   33.7200 N   0  0  0  0  0  0  0  0  0  0  0  0
   36.5070   24.5110   32.1810 N   0  0  0  0  0  0  0  0  0  0  0  0
   36.6610   25.8360   32.0600 N   0  0  0  0  0  0  0  0  0  0  0  0
   35.7150   26.2820   31.1820 C   0  0  0  0  0  0  0  0  0  0  0  0
   34.9850   25.1550   30.7840 C   0  0  0  0  0  0  0  0  0  0  0  0
   35.5070   24.0310   31.4350 C   0  0  0  0  0  0  0  0  0  0  0  0
   40.2300   22.3730   35.7270 N   0  0  0  0  0  0  0  0  0  0  0  0
   41.4450   21.8900   35.3570 C   0  0  0  0  0  0  0  0  0  0  0  0
   42.0740   21.4910   36.5090 C   0  0  0  0  0  0  0  0  0  0  0  0
   41.2490   21.7330   37.5500 N   0  0  0  0  0  0  0  0  0  0  0  0
   40.0930   22.2870   37.0550 C   0  0  0  0  0  0  0  0  0  0  0  0
   38.9190   22.7170   37.7490 N   0  0  0  0  0  0  0  0  0  0  0  0
   39.8596   24.9389   35.0924 H   0  0  0  0  0  0  0  0  0  0  0  0
   38.4435   20.9434   34.3165 H   0  0  0  0  0  0  0  0  0  0  0  0
   35.5577   27.3198   30.8529 H   0  0  0  0  0  0  0  0  0  0  0  0
   34.1419   25.1533   30.0775 H   0  0  0  0  0  0  0  0  0  0  0  0
   35.1700   22.9872   31.3514 H   0  0  0  0  0  0  0  0  0  0  0  0
   41.8457   21.8306   34.3343 H   0  0  0  0  0  0  0  0  0  0  0  0
   43.0793   21.0492   36.5736 H   0  0  0  0  0  0  0  0  0  0  0  0
   38.8650   22.6283   38.7738 H   0  0  0  0  0  0  0  0  0  0  0  0
   38.1274   23.1154   37.2241 H   0  0  0  0  0  0  0  0  0  0  0  0
  1  2  2  0
  2 12  1  0
  3  2  1  0
  4  3  2  0
  5  4  1  0
  5  6  2  0
  6  1  1  0
  7  5  1  0
  8  7  1  0
  9  8  2  0
 10  9  1  0
 10 11  2  0
 11  7  1  0
 12 16  1  0
 13 12  1  0
 13 14  2  0
 14 15  1  0
 16 15  2  0
 16 17  1  0
  1 18  1  0
  3 19  1  0
  9 20  1  0
 10 21  1  0
 11 22  1  0
 13 23  1  0
 14 24  1  0
 17 25  1  0
 17 26  1  0
M  ISO  7  18  14  19  14  20  14  21  14  22  14  23  14  24  14
M  END
>  <minimizedAffinity>  (1) 
-4.68264103

>  <minimizedRMSD>  (1) 
1.69386625

$$$$
