
     RDKit          3D

 26 27  0  0  0  0  0  0  0  0999 V2000
   38.1960   25.3550   35.0990 C   0  0  0  0  0  0  0  0  0  0  0  0
   38.7000   24.0590   35.0280 C   0  0  0  0  0  0  0  0  0  0  0  0
   38.4860   23.2960   33.8710 C   0  0  0  0  0  0  0  0  0  0  0  0
   37.7770   23.9020   32.8710 N   0  0  0  0  0  0  0  0  0  0  0  0
   37.3010   25.1440   32.9550 C   0  0  0  0  0  0  0  0  0  0  0  0
   37.5150   25.8720   34.0780 N   0  0  0  0  0  0  0  0  0  0  0  0
   36.5720   25.7180   31.8820 N   0  0  0  0  0  0  0  0  0  0  0  0
   35.5610   24.9590   31.2300 C   0  0  0  0  0  0  0  0  0  0  0  0
   35.3640   23.7130   31.4750 N   0  0  0  0  0  0  0  0  0  0  0  0
   34.7240   25.6080   30.2560 N   0  0  0  0  0  0  0  0  0  0  0  0
   34.6250   23.1570   31.0010 H   0  0  0  0  0  0  0  0  0  0  0  0
   39.4230   23.5080   36.1090 N   0  0  0  0  0  0  0  0  0  0  0  0
   40.7500   23.2040   36.0700 C   0  0  0  0  0  0  0  0  0  0  0  0
   41.0730   22.6930   37.3110 C   0  0  0  0  0  0  0  0  0  0  0  0
   39.9530   22.6970   38.0700 N   0  0  0  0  0  0  0  0  0  0  0  0
   38.9450   23.2010   37.3180 C   0  0  0  0  0  0  0  0  0  0  0  0
   37.5620   23.4070   37.6810 N   0  0  0  0  0  0  0  0  0  0  0  0
   38.3616   25.9563   36.0051 H   0  0  0  0  0  0  0  0  0  0  0  0
   38.8668   22.2686   33.7734 H   0  0  0  0  0  0  0  0  0  0  0  0
   36.7740   26.6806   31.5762 H   0  0  0  0  0  0  0  0  0  0  0  0
   34.8618   26.6060   30.0418 H   0  0  0  0  0  0  0  0  0  0  0  0
   33.9871   25.0746   29.7730 H   0  0  0  0  0  0  0  0  0  0  0  0
   41.4310   23.3392   35.2168 H   0  0  0  0  0  0  0  0  0  0  0  0
   42.0669   22.3437   37.6274 H   0  0  0  0  0  0  0  0  0  0  0  0
   37.2345   23.1564   38.6248 H   0  0  0  0  0  0  0  0  0  0  0  0
   36.9035   23.8045   36.9960 H   0  0  0  0  0  0  0  0  0  0  0  0
  2  1  2  0
  2 12  1  0
  3  2  1  0
  4  5  1  0
  4  3  2  0
  5  6  2  0
  6  1  1  0
  7  5  1  0
  8  9  2  0
  8  7  1  0
 10  8  1  0
 11  9  1  0
 12 16  1  0
 13 12  1  0
 13 14  2  0
 14 15  1  0
 16 17  1  0
 16 15  2  0
  1 18  1  0
  3 19  1  0
  7 20  1  0
 10 21  1  0
 10 22  1  0
 13 23  1  0
 14 24  1  0
 17 25  1  0
 17 26  1  0
M  ISO  4  18  14  19  14  23  14  24  14
M  END
>  <minimizedAffinity>  (1) 
-4.62565899

>  <minimizedRMSD>  (1) 
1.76276481

$$$$
