
     RDKit          3D

 25 27  0  0  0  0  0  0  0  0999 V2000
   39.7450   24.3150   34.8750 C   0  0  0  0  0  0  0  0  0  0  0  0
   39.6500   22.9550   35.1010 C   0  0  0  0  0  0  0  0  0  0  0  0
   38.6380   22.2200   34.4670 C   0  0  0  0  0  0  0  0  0  0  0  0
   37.7960   22.9140   33.6500 N   0  0  0  0  0  0  0  0  0  0  0  0
   37.9050   24.2350   33.4410 C   0  0  0  0  0  0  0  0  0  0  0  0
   38.8950   24.9430   34.0640 N   0  0  0  0  0  0  0  0  0  0  0  0
   36.9460   24.8210   32.5550 N   0  0  0  0  0  0  0  0  0  0  0  0
   36.7520   26.1340   32.3290 C   0  0  0  0  0  0  0  0  0  0  0  0
   35.7570   26.2260   31.4300 N   0  0  0  0  0  0  0  0  0  0  0  0
   35.3390   24.9910   31.1020 C   0  0  0  0  0  0  0  0  0  0  0  0
   36.0860   24.1200   31.8070 N   0  0  0  0  0  0  0  0  0  0  0  0
   40.5540   22.2920   35.9620 N   0  0  0  0  0  0  0  0  0  0  0  0
   41.7030   21.6930   35.5560 C   0  0  0  0  0  0  0  0  0  0  0  0
   42.3090   21.1600   36.6800 C   0  0  0  0  0  0  0  0  0  0  0  0
   41.5210   21.4480   37.7310 N   0  0  0  0  0  0  0  0  0  0  0  0
   40.4410   22.1440   37.2920 C   0  0  0  0  0  0  0  0  0  0  0  0
   39.3240   22.6720   38.0370 N   0  0  0  0  0  0  0  0  0  0  0  0
   40.5382   24.8904   35.3747 H   0  0  0  0  0  0  0  0  0  0  0  0
   38.5289   21.1364   34.6214 H   0  0  0  0  0  0  0  0  0  0  0  0
   37.3007   26.9685   32.7900 H   0  0  0  0  0  0  0  0  0  0  0  0
   34.5378   24.7394   30.3916 H   0  0  0  0  0  0  0  0  0  0  0  0
   42.0819   21.6411   34.5246 H   0  0  0  0  0  0  0  0  0  0  0  0
   43.2580   20.6045   36.7085 H   0  0  0  0  0  0  0  0  0  0  0  0
   39.2751   22.5366   39.0569 H   0  0  0  0  0  0  0  0  0  0  0  0
   38.5755   23.1843   37.5490 H   0  0  0  0  0  0  0  0  0  0  0  0
  1  2  2  0
  2 12  1  0
  3  2  1  0
  4  3  2  0
  5  4  1  0
  5  6  2  0
  6  1  1  0
  7  5  1  0
  8  7  1  0
  9  8  2  0
 10  9  1  0
 10 11  2  0
 11  7  1  0
 12 16  1  0
 13 12  1  0
 13 14  2  0
 14 15  1  0
 16 15  2  0
 16 17  1  0
  1 18  1  0
  3 19  1  0
  8 20  1  0
 10 21  1  0
 13 22  1  0
 14 23  1  0
 17 24  1  0
 17 25  1  0
M  ISO  6  18  14  19  14  20  14  21  14  22  14  23  14
M  END
>  <minimizedAffinity>  (1) 
-4.66467428

>  <minimizedRMSD>  (1) 
2.19250774

$$$$
