
     RDKit          3D

 25 27  0  0  0  0  0  0  0  0999 V2000
   40.0420   24.2640   34.9400 C   0  0  0  0  0  0  0  0  0  0  0  0
   39.8380   22.9120   35.1980 C   0  0  0  0  0  0  0  0  0  0  0  0
   38.7620   22.2650   34.6210 C   0  0  0  0  0  0  0  0  0  0  0  0
   37.9460   22.9990   33.8180 N   0  0  0  0  0  0  0  0  0  0  0  0
   38.1520   24.3040   33.5770 C   0  0  0  0  0  0  0  0  0  0  0  0
   39.2140   24.9440   34.1440 N   0  0  0  0  0  0  0  0  0  0  0  0
   40.7280   22.2120   36.0430 N   0  0  0  0  0  0  0  0  0  0  0  0
   41.8550   21.5770   35.6230 C   0  0  0  0  0  0  0  0  0  0  0  0
   42.4490   21.0180   36.7250 C   0  0  0  0  0  0  0  0  0  0  0  0
   41.6850   21.3140   37.8010 N   0  0  0  0  0  0  0  0  0  0  0  0
   40.6210   22.0540   37.3670 C   0  0  0  0  0  0  0  0  0  0  0  0
   39.5370   22.6020   38.1350 N   0  0  0  0  0  0  0  0  0  0  0  0
   37.1770   24.9650   32.6810 C   0  0  0  0  0  0  0  0  0  0  0  0
   37.1090   26.3470   32.6040 C   0  0  0  0  0  0  0  0  0  0  0  0
   35.7460   26.5740   31.3610 S   0  0  0  0  0  0  0  0  0  0  0  0
   35.5390   24.6730   31.1930 C   0  0  0  0  0  0  0  0  0  0  0  0
   36.3340   24.2570   31.9200 N   0  0  0  0  0  0  0  0  0  0  0  0
   40.8983   24.7800   35.3988 H   0  0  0  0  0  0  0  0  0  0  0  0
   38.5727   21.1970   34.8042 H   0  0  0  0  0  0  0  0  0  0  0  0
   42.2229   21.5219   34.5878 H   0  0  0  0  0  0  0  0  0  0  0  0
   43.3806   20.4332   36.7326 H   0  0  0  0  0  0  0  0  0  0  0  0
   39.5000   22.4521   39.1534 H   0  0  0  0  0  0  0  0  0  0  0  0
   38.7971   23.1446   37.6671 H   0  0  0  0  0  0  0  0  0  0  0  0
   37.7022   27.1056   33.1356 H   0  0  0  0  0  0  0  0  0  0  0  0
   34.8344   24.1154   30.5585 H   0  0  0  0  0  0  0  0  0  0  0  0
  1  2  2  0
  2  7  1  0
  3  2  1  0
  4  3  2  0
  5  4  1  0
  5  6  2  0
  6  1  1  0
  7 11  1  0
  8  7  1  0
  8  9  2  0
  9 10  1  0
 11 10  2  0
 11 12  1  0
 13  5  1  0
 14 13  2  0
 15 14  1  0
 16 15  1  0
 16 17  2  0
 17 13  1  0
  1 18  1  0
  3 19  1  0
  8 20  1  0
  9 21  1  0
 12 22  1  0
 12 23  1  0
 14 24  1  0
 16 25  1  0
M  ISO  6  18  14  19  14  20  14  21  14  24  14  25  14
M  END
>  <minimizedAffinity>  (1) 
-4.43574572

>  <minimizedRMSD>  (1) 
2.45105314

$$$$
