
     RDKit          3D

 26 28  0  0  0  0  0  0  0  0999 V2000
   39.6510   24.2190   34.7300 C   0  0  0  0  0  0  0  0  0  0  0  0
   39.5710   22.8710   35.0200 C   0  0  0  0  0  0  0  0  0  0  0  0
   38.5720   22.1030   34.4320 C   0  0  0  0  0  0  0  0  0  0  0  0
   37.7150   22.7430   33.5840 N   0  0  0  0  0  0  0  0  0  0  0  0
   37.8070   24.0570   33.3130 C   0  0  0  0  0  0  0  0  0  0  0  0
   38.7860   24.7990   33.8940 N   0  0  0  0  0  0  0  0  0  0  0  0
   40.4940   22.2700   35.9090 N   0  0  0  0  0  0  0  0  0  0  0  0
   41.6730   21.7120   35.5230 C   0  0  0  0  0  0  0  0  0  0  0  0
   42.2830   21.2390   36.6740 C   0  0  0  0  0  0  0  0  0  0  0  0
   41.4700   21.5170   37.7180 N   0  0  0  0  0  0  0  0  0  0  0  0
   40.3760   22.1500   37.2330 C   0  0  0  0  0  0  0  0  0  0  0  0
   39.2270   22.6470   37.9540 N   0  0  0  0  0  0  0  0  0  0  0  0
   36.7840   24.5180   32.3820 C   0  0  0  0  0  0  0  0  0  0  0  0
   35.8340   23.9280   31.5760 C   0  0  0  0  0  0  0  0  0  0  0  0
   35.1970   25.0060   30.9510 C   0  0  0  0  0  0  0  0  0  0  0  0
   35.7990   26.1830   31.4130 C   0  0  0  0  0  0  0  0  0  0  0  0
   36.7430   25.8370   32.2670 O   0  0  0  0  0  0  0  0  0  0  0  0
   40.4414   24.8258   35.1960 H   0  0  0  0  0  0  0  0  0  0  0  0
   38.4766   21.0273   34.6410 H   0  0  0  0  0  0  0  0  0  0  0  0
   42.0656   21.6486   34.4974 H   0  0  0  0  0  0  0  0  0  0  0  0
   43.2557   20.7282   36.7285 H   0  0  0  0  0  0  0  0  0  0  0  0
   39.1727   22.5352   38.9765 H   0  0  0  0  0  0  0  0  0  0  0  0
   38.4621   23.1131   37.4456 H   0  0  0  0  0  0  0  0  0  0  0  0
   35.6245   22.8552   31.4524 H   0  0  0  0  0  0  0  0  0  0  0  0
   34.3716   24.9406   30.2268 H   0  0  0  0  0  0  0  0  0  0  0  0
   35.5332   27.2087   31.1177 H   0  0  0  0  0  0  0  0  0  0  0  0
  1  2  2  0
  2  7  1  0
  3  2  1  0
  4  3  2  0
  5  4  1  0
  5  6  2  0
  6  1  1  0
  7 11  1  0
  8  7  1  0
  8  9  2  0
  9 10  1  0
 11 10  2  0
 11 12  1  0
 13  5  1  0
 14 13  2  0
 15 16  2  0
 15 14  1  0
 16 17  1  0
 17 13  1  0
  1 18  1  0
  3 19  1  0
  8 20  1  0
  9 21  1  0
 12 22  1  0
 12 23  1  0
 14 24  1  0
 15 25  1  0
 16 26  1  0
M  ISO  7  18  14  19  14  20  14  21  14  24  14  25  14  26  14
M  END
>  <minimizedAffinity>  (1) 
-4.53260326

>  <minimizedRMSD>  (1) 
1.99640393

$$$$
