
     RDKit          3D

 22 23  0  0  0  0  0  0  0  0999 V2000
   38.3650   24.0030   34.1200 C   0  0  0  0  0  0  0  0  0  0  0  0
   38.3220   22.8510   34.8850 C   0  0  0  0  0  0  0  0  0  0  0  0
   37.5310   21.7870   34.4600 C   0  0  0  0  0  0  0  0  0  0  0  0
   36.8410   21.9560   33.3000 N   0  0  0  0  0  0  0  0  0  0  0  0
   36.8890   23.0700   32.5680 C   0  0  0  0  0  0  0  0  0  0  0  0
   37.6690   24.1110   32.9920 N   0  0  0  0  0  0  0  0  0  0  0  0
   39.0680   22.7530   36.0800 N   0  0  0  0  0  0  0  0  0  0  0  0
   40.2770   22.1250   36.1760 C   0  0  0  0  0  0  0  0  0  0  0  0
   40.6780   22.2450   37.4940 C   0  0  0  0  0  0  0  0  0  0  0  0
   39.7180   22.9340   38.1620 N   0  0  0  0  0  0  0  0  0  0  0  0
   38.7320   23.2400   37.2780 C   0  0  0  0  0  0  0  0  0  0  0  0
   37.5200   23.9550   37.5090 N   0  0  0  0  0  0  0  0  0  0  0  0
   36.1150   23.2120   31.2980 C   0  0  0  0  0  0  0  0  0  0  0  0
   36.9100   23.8940   30.3770 F   0  0  0  0  0  0  0  0  0  0  0  0
   35.0170   24.0550   31.5200 F   0  0  0  0  0  0  0  0  0  0  0  0
   35.6780   22.0250   30.7900 F   0  0  0  0  0  0  0  0  0  0  0  0
   38.9877   24.8469   34.4516 H   0  0  0  0  0  0  0  0  0  0  0  0
   37.4669   20.8521   35.0361 H   0  0  0  0  0  0  0  0  0  0  0  0
   40.8241   21.6226   35.3646 H   0  0  0  0  0  0  0  0  0  0  0  0
   41.6104   21.8515   37.9250 H   0  0  0  0  0  0  0  0  0  0  0  0
   37.3040   24.3118   38.4508 H   0  0  0  0  0  0  0  0  0  0  0  0
   36.8606   24.1147   36.7341 H   0  0  0  0  0  0  0  0  0  0  0  0
  1  2  2  0
  2  7  1  0
  3  2  1  0
  4  3  2  0
  5  6  2  0
  5  4  1  0
  6  1  1  0
  7  8  1  0
  7 11  1  0
  8  9  2  0
  9 10  1  0
 11 12  1  0
 11 10  2  0
 13 15  1  0
 13  5  1  0
 14 13  1  0
 16 13  1  0
  1 17  1  0
  3 18  1  0
  8 19  1  0
  9 20  1  0
 12 21  1  0
 12 22  1  0
M  ISO  4  17  14  18  14  19  14  20  14
M  END
>  <minimizedAffinity>  (1) 
-4.4968853

>  <minimizedRMSD>  (1) 
0.170109406

$$$$
