
     RDKit          3D

 29 31  0  0  0  0  0  0  0  0999 V2000
   38.8700   25.1860   34.1390 C   0  0  0  0  0  0  0  0  0  0  0  0
   39.9240   25.1100   33.2460 C   0  0  0  0  0  0  0  0  0  0  0  0
   39.9170   24.1030   32.2830 C   0  0  0  0  0  0  0  0  0  0  0  0
   38.8570   23.2470   32.2850 N   0  0  0  0  0  0  0  0  0  0  0  0
   37.8420   23.3440   33.1680 C   0  0  0  0  0  0  0  0  0  0  0  0
   37.8600   24.3280   34.1010 N   0  0  0  0  0  0  0  0  0  0  0  0
   36.8880   22.3170   32.9240 N   0  0  0  0  0  0  0  0  0  0  0  0
   36.6150   21.3310   33.8020 C   0  0  0  0  0  0  0  0  0  0  0  0
   35.6700   20.3800   33.4680 C   0  0  0  0  0  0  0  0  0  0  0  0
   34.9840   20.3890   32.2690 C   0  0  0  0  0  0  0  0  0  0  0  0
   34.1190   19.5330   31.9430 O   0  0  0  0  0  0  0  0  0  0  0  0
   35.3120   21.4130   31.4340 N   0  0  0  0  0  0  0  0  0  0  0  0
   36.2320   22.3450   31.7500 C   0  0  0  0  0  0  0  0  0  0  0  0
   36.4490   23.2360   30.9030 O   0  0  0  0  0  0  0  0  0  0  0  0
   40.9960   26.0370   33.3030 N   0  0  0  0  0  0  0  0  0  0  0  0
   41.1040   27.1400   32.5100 C   0  0  0  0  0  0  0  0  0  0  0  0
   42.2810   27.7700   32.8820 C   0  0  0  0  0  0  0  0  0  0  0  0
   42.8480   27.0580   33.8650 N   0  0  0  0  0  0  0  0  0  0  0  0
   42.0500   25.9760   34.1320 C   0  0  0  0  0  0  0  0  0  0  0  0
   42.2350   24.9370   35.0910 N   0  0  0  0  0  0  0  0  0  0  0  0
   38.8700   25.9795   34.9008 H   0  0  0  0  0  0  0  0  0  0  0  0
   40.7329   24.0033   31.5520 H   0  0  0  0  0  0  0  0  0  0  0  0
   37.1366   21.2844   34.7694 H   0  0  0  0  0  0  0  0  0  0  0  0
   35.4540   19.5788   34.1901 H   0  0  0  0  0  0  0  0  0  0  0  0
   34.8368   21.4779   30.5225 H   0  0  0  0  0  0  0  0  0  0  0  0
   40.3986   27.4650   31.7310 H   0  0  0  0  0  0  0  0  0  0  0  0
   42.6813   28.6966   32.4447 H   0  0  0  0  0  0  0  0  0  0  0  0
   43.0644   24.9416   35.7017 H   0  0  0  0  0  0  0  0  0  0  0  0
   41.5392   24.1819   35.1730 H   0  0  0  0  0  0  0  0  0  0  0  0
  2 15  1  0
  2  1  2  0
  3  4  2  0
  3  2  1  0
  4  5  1  0
  5  6  2  0
  6  1  1  0
  7  5  1  0
  7  8  1  0
  9  8  2  0
 10  9  1  0
 11 10  2  0
 12 13  1  0
 12 10  1  0
 13  7  1  0
 14 13  2  0
 15 19  1  0
 16 17  2  0
 16 15  1  0
 17 18  1  0
 18 19  2  0
 19 20  1  0
  1 21  1  0
  3 22  1  0
  8 23  1  0
  9 24  1  0
 12 25  1  0
 16 26  1  0
 17 27  1  0
 20 28  1  0
 20 29  1  0
M  ISO  7  21  14  22  14  23  14  24  14  25   9  26  14  27  14
M  END
>  <minimizedAffinity>  (1) 
-4.22780466

>  <minimizedRMSD>  (1) 
4.19724464

$$$$
