
     RDKit          3D

 25 26  0  0  0  0  0  0  0  0999 V2000
   39.5550   24.8870   35.3850 C   0  0  0  0  0  0  0  0  0  0  0  0
   39.8720   23.5170   35.5050 C   0  0  0  0  0  0  0  0  0  0  0  0
   39.1910   22.6910   34.6340 C   0  0  0  0  0  0  0  0  0  0  0  0
   38.2910   23.1940   33.7430 N   0  0  0  0  0  0  0  0  0  0  0  0
   38.0210   24.5170   33.6650 C   0  0  0  0  0  0  0  0  0  0  0  0
   38.6650   25.3440   34.4970 N   0  0  0  0  0  0  0  0  0  0  0  0
   40.8140   23.0310   36.4370 N   0  0  0  0  0  0  0  0  0  0  0  0
   40.5180   22.2690   37.5750 C   0  0  0  0  0  0  0  0  0  0  0  0
   39.4210   22.6280   38.2180 N   0  0  0  0  0  0  0  0  0  0  0  0
   41.4430   21.2020   37.8940 N   0  0  0  0  0  0  0  0  0  0  0  0
   39.1120   22.1160   39.0580 H   0  0  0  0  0  0  0  0  0  0  0  0
   37.0610   25.0730   32.7170 C   0  0  0  0  0  0  0  0  0  0  0  0
   36.3050   24.2600   31.8950 C   0  0  0  0  0  0  0  0  0  0  0  0
   35.3730   24.7510   30.9720 C   0  0  0  0  0  0  0  0  0  0  0  0
   35.2390   26.0890   30.9140 N   0  0  0  0  0  0  0  0  0  0  0  0
   35.9650   26.9000   31.7050 C   0  0  0  0  0  0  0  0  0  0  0  0
   36.8580   26.3990   32.5880 N   0  0  0  0  0  0  0  0  0  0  0  0
   40.0590   25.6065   36.0470 H   0  0  0  0  0  0  0  0  0  0  0  0
   39.3781   21.6073   34.6595 H   0  0  0  0  0  0  0  0  0  0  0  0
   41.8045   23.2559   36.2658 H   0  0  0  0  0  0  0  0  0  0  0  0
   41.2786   20.6073   38.7188 H   0  0  0  0  0  0  0  0  0  0  0  0
   42.2655   21.0376   37.2962 H   0  0  0  0  0  0  0  0  0  0  0  0
   36.4420   23.1711   31.9692 H   0  0  0  0  0  0  0  0  0  0  0  0
   34.7832   24.0802   30.3300 H   0  0  0  0  0  0  0  0  0  0  0  0
   35.8297   27.9892   31.6320 H   0  0  0  0  0  0  0  0  0  0  0  0
  1  2  2  0
  2  7  1  0
  3  2  1  0
  4  3  2  0
  5  4  1  0
  5  6  2  0
  6  1  1  0
  7  8  1  0
  8 10  1  0
  8  9  2  0
  9 11  1  0
 12  5  1  0
 13 12  2  0
 14 13  1  0
 15 14  2  0
 15 16  1  0
 16 17  2  0
 17 12  1  0
  1 18  1  0
  3 19  1  0
  7 20  1  0
 10 21  1  0
 10 22  1  0
 13 23  1  0
 14 24  1  0
 16 25  1  0
M  ISO  5  18  14  19  14  23  14  24  14  25  14
M  END
>  <minimizedAffinity>  (1) 
-4.81932878

>  <minimizedRMSD>  (1) 
0.493069172

$$$$
