
     RDKit          3D

 22 24  0  0  0  0  0  0  0  0999 V2000
   37.2910   21.6480   35.1230 C   0  0  0  0  0  0  0  0  0  0  0  0
   36.0240   21.1180   35.3380 C   0  0  0  0  0  0  0  0  0  0  0  0
   35.6080   20.5600   34.1230 C   0  0  0  0  0  0  0  0  0  0  0  0
   36.6190   20.7720   33.2440 N   0  0  0  0  0  0  0  0  0  0  0  0
   37.6410   21.4260   33.8310 N   0  0  0  0  0  0  0  0  0  0  0  0
   36.7050   20.4020   31.8680 C   0  0  0  0  0  0  0  0  0  0  0  0
   35.7910   19.8350   31.0560 N   0  0  0  0  0  0  0  0  0  0  0  0
   36.3120   19.6740   29.8580 O   0  0  0  0  0  0  0  0  0  0  0  0
   37.5530   20.1200   29.8500 C   0  0  0  0  0  0  0  0  0  0  0  0
   37.8200   20.5810   31.0980 N   0  0  0  0  0  0  0  0  0  0  0  0
   39.8490   22.8260   37.4720 C   0  0  0  0  0  0  0  0  0  0  0  0
   39.0830   23.5350   38.4180 C   0  0  0  0  0  0  0  0  0  0  0  0
   37.7030   23.5920   38.2280 C   0  0  0  0  0  0  0  0  0  0  0  0
   37.1610   22.9660   37.1470 N   0  0  0  0  0  0  0  0  0  0  0  0
   37.9450   22.2930   36.2570 C   0  0  0  0  0  0  0  0  0  0  0  0
   39.2660   22.2240   36.4170 N   0  0  0  0  0  0  0  0  0  0  0  0
   35.4575   21.1339   36.2808 H   0  0  0  0  0  0  0  0  0  0  0  0
   34.6533   20.0519   33.9218 H   0  0  0  0  0  0  0  0  0  0  0  0
   38.2422   20.1186   28.9927 H   0  0  0  0  0  0  0  0  0  0  0  0
   40.9401   22.7629   37.5966 H   0  0  0  0  0  0  0  0  0  0  0  0
   39.5584   24.0278   39.2789 H   0  0  0  0  0  0  0  0  0  0  0  0
   37.0626   24.1337   38.9396 H   0  0  0  0  0  0  0  0  0  0  0  0
  1  2  1  0
  1 15  1  0
  3  2  2  0
  4  5  1  0
  4  3  1  0
  5  1  2  0
  6  4  1  0
  7  6  2  0
  8  7  1  0
  9  8  1  0
  9 10  2  0
 10  6  1  0
 11 12  2  0
 13 12  1  0
 14 13  2  0
 15 16  2  0
 15 14  1  0
 16 11  1  0
  2 17  1  0
  3 18  1  0
  9 19  1  0
 11 20  1  0
 12 21  1  0
 13 22  1  0
M  ISO  6  17  14  18  14  19  14  20  14  21  14  22  14
M  END
>  <minimizedAffinity>  (1) 
-4.40336084

>  <minimizedRMSD>  (1) 
0.631321847

$$$$
