
     RDKit          3D

 25 27  0  0  0  0  0  0  0  0999 V2000
   37.6150   21.6750   34.7630 C   0  0  0  0  0  0  0  0  0  0  0  0
   36.2710   21.2860   34.7800 C   0  0  0  0  0  0  0  0  0  0  0  0
   36.0170   20.7520   33.5030 C   0  0  0  0  0  0  0  0  0  0  0  0
   37.1870   20.8370   32.7890 N   0  0  0  0  0  0  0  0  0  0  0  0
   38.1300   21.3860   33.5440 N   0  0  0  0  0  0  0  0  0  0  0  0
   39.9070   22.7480   37.4070 C   0  0  0  0  0  0  0  0  0  0  0  0
   39.0480   23.3970   38.3160 C   0  0  0  0  0  0  0  0  0  0  0  0
   37.6940   23.4500   37.9950 C   0  0  0  0  0  0  0  0  0  0  0  0
   37.2640   22.8800   36.8340 N   0  0  0  0  0  0  0  0  0  0  0  0
   38.1270   22.2670   35.9920 C   0  0  0  0  0  0  0  0  0  0  0  0
   39.4420   22.1900   36.2570 N   0  0  0  0  0  0  0  0  0  0  0  0
   37.3490   20.4010   31.4440 C   0  0  0  0  0  0  0  0  0  0  0  0
   36.3740   19.6280   30.8600 C   0  0  0  0  0  0  0  0  0  0  0  0
   36.5690   19.2220   29.5460 C   0  0  0  0  0  0  0  0  0  0  0  0
   37.6610   19.5640   28.8690 N   0  0  0  0  0  0  0  0  0  0  0  0
   38.5970   20.3180   29.4630 C   0  0  0  0  0  0  0  0  0  0  0  0
   38.4470   20.7360   30.7440 N   0  0  0  0  0  0  0  0  0  0  0  0
   35.5620   21.3782   35.6159 H   0  0  0  0  0  0  0  0  0  0  0  0
   35.0609   20.3433   33.1441 H   0  0  0  0  0  0  0  0  0  0  0  0
   40.9820   22.6911   37.6333 H   0  0  0  0  0  0  0  0  0  0  0  0
   39.4325   23.8449   39.2442 H   0  0  0  0  0  0  0  0  0  0  0  0
   36.9806   23.9456   38.6698 H   0  0  0  0  0  0  0  0  0  0  0  0
   35.4689   19.3403   31.4150 H   0  0  0  0  0  0  0  0  0  0  0  0
   35.8031   18.6039   29.0547 H   0  0  0  0  0  0  0  0  0  0  0  0
   39.5001   20.6017   28.9027 H   0  0  0  0  0  0  0  0  0  0  0  0
  1  2  1  0
  1 10  1  0
  3  2  2  0
  4  3  1  0
  4  5  1  0
  5  1  2  0
  6  7  2  0
  8  7  1  0
  9  8  2  0
 10 11  2  0
 10  9  1  0
 11  6  1  0
 12  4  1  0
 13 12  2  0
 14 13  1  0
 15 16  1  0
 15 14  2  0
 16 17  2  0
 17 12  1  0
  2 18  1  0
  3 19  1  0
  6 20  1  0
  7 21  1  0
  8 22  1  0
 13 23  1  0
 14 24  1  0
 16 25  1  0
M  ISO  8  18  14  19  14  20  14  21  14  22  14  23  14  24  14  25  14
M  END
>  <minimizedAffinity>  (1) 
-4.12491941

>  <minimizedRMSD>  (1) 
1.06252575

$$$$
