
     RDKit          3D

 30 32  0  0  0  0  0  0  0  0999 V2000
   37.7050   21.7010   34.7510 C   0  0  0  0  0  0  0  0  0  0  0  0
   36.3550   21.3380   34.7260 C   0  0  0  0  0  0  0  0  0  0  0  0
   36.1100   20.8050   33.4450 C   0  0  0  0  0  0  0  0  0  0  0  0
   37.3000   20.8720   32.7760 N   0  0  0  0  0  0  0  0  0  0  0  0
   38.2400   21.4030   33.5550 N   0  0  0  0  0  0  0  0  0  0  0  0
   39.9280   22.7570   37.4740 C   0  0  0  0  0  0  0  0  0  0  0  0
   39.0340   23.4090   38.3610 C   0  0  0  0  0  0  0  0  0  0  0  0
   37.6920   23.4650   37.9920 C   0  0  0  0  0  0  0  0  0  0  0  0
   37.3070   22.9020   36.8210 N   0  0  0  0  0  0  0  0  0  0  0  0
   38.1900   22.2800   35.9870 C   0  0  0  0  0  0  0  0  0  0  0  0
   39.4780   22.2110   36.3130 N   0  0  0  0  0  0  0  0  0  0  0  0
   37.6240   19.4850   28.8180 C   0  0  0  0  0  0  0  0  0  0  0  0
   38.6410   20.3000   29.3240 C   0  0  0  0  0  0  0  0  0  0  0  0
   38.5130   20.7500   30.6430 C   0  0  0  0  0  0  0  0  0  0  0  0
   37.4310   20.4150   31.4350 C   0  0  0  0  0  0  0  0  0  0  0  0
   36.4330   19.6100   30.9240 C   0  0  0  0  0  0  0  0  0  0  0  0
   36.5460   19.1530   29.6130 C   0  0  0  0  0  0  0  0  0  0  0  0
   37.8230   18.9490   27.1740 S   0  0  0  0  0  0  0  0  0  0  0  0
   38.5470   19.9790   26.3240 O   0  0  0  0  0  0  0  0  0  0  0  0
   36.5000   18.6660   26.5170 O   0  0  0  0  0  0  0  0  0  0  0  0
   35.6281   21.4470   35.5444 H   0  0  0  0  0  0  0  0  0  0  0  0
   35.1558   20.4146   33.0615 H   0  0  0  0  0  0  0  0  0  0  0  0
   40.9963   22.6924   37.7279 H   0  0  0  0  0  0  0  0  0  0  0  0
   39.3866   23.8531   39.3036 H   0  0  0  0  0  0  0  0  0  0  0  0
   36.9550   23.9593   38.6420 H   0  0  0  0  0  0  0  0  0  0  0  0
   39.5094   20.5772   28.7084 H   0  0  0  0  0  0  0  0  0  0  0  0
   39.3006   21.3924   31.0638 H   0  0  0  0  0  0  0  0  0  0  0  0
   35.5647   19.3345   31.5405 H   0  0  0  0  0  0  0  0  0  0  0  0
   35.7546   18.5101   29.2003 H   0  0  0  0  0  0  0  0  0  0  0  0
   38.5673   17.8012   27.2486 H   0  0  0  0  0  0  0  0  0  0  0  0
  1 10  1  0
  2  1  1  0
  3  2  2  0
  4  3  1  0
  4  5  1  0
  5  1  2  0
  6  7  2  0
  8  7  1  0
  9  8  2  0
 10 11  2  0
 10  9  1  0
 11  6  1  0
 12 13  2  0
 12 17  1  0
 13 14  1  0
 14 15  2  0
 15  4  1  0
 16 15  1  0
 17 16  2  0
 18 12  1  0
 19 18  2  0
 20 18  2  0
  2 21  1  0
  3 22  1  0
  6 23  1  0
  7 24  1  0
  8 25  1  0
 13 26  1  0
 14 27  1  0
 16 28  1  0
 17 29  1  0
 18 30  1  0
M  ISO  8  21  14  22  14  23  14  24  14  25  14  26  14  27  14  28  14
M  ISO  2  29  14  30  11
M  END
>  <minimizedAffinity>  (1) 
-4.34493732

>  <minimizedRMSD>  (1) 
1.51826274

$$$$
