
     RDKit          3D

 26 27  0  0  0  0  0  0  0  0999 V2000
   37.1940   21.7750   35.2280 C   0  0  0  0  0  0  0  0  0  0  0  0
   36.1000   20.9810   35.5840 C   0  0  0  0  0  0  0  0  0  0  0  0
   35.5200   20.5420   34.3800 C   0  0  0  0  0  0  0  0  0  0  0  0
   36.2650   21.0740   33.3800 N   0  0  0  0  0  0  0  0  0  0  0  0
   37.2660   21.8110   33.8790 N   0  0  0  0  0  0  0  0  0  0  0  0
   39.9760   22.7160   37.4070 C   0  0  0  0  0  0  0  0  0  0  0  0
   39.3400   23.4760   38.4080 C   0  0  0  0  0  0  0  0  0  0  0  0
   37.9600   23.6510   38.3140 C   0  0  0  0  0  0  0  0  0  0  0  0
   37.3090   23.0800   37.2650 N   0  0  0  0  0  0  0  0  0  0  0  0
   37.9650   22.3510   36.3170 C   0  0  0  0  0  0  0  0  0  0  0  0
   39.2840   22.1660   36.3800 N   0  0  0  0  0  0  0  0  0  0  0  0
   35.9800   20.8470   31.9800 C   0  0  0  0  0  0  0  0  0  0  0  0
   34.8690   19.8460   31.7840 C   0  0  0  0  0  0  0  0  0  0  0  0
   35.6990   22.1560   31.3070 C   0  0  0  0  0  0  0  0  0  0  0  0
   35.7601   20.7461   36.6034 H   0  0  0  0  0  0  0  0  0  0  0  0
   34.6369   19.8952   34.2714 H   0  0  0  0  0  0  0  0  0  0  0  0
   41.0643   22.5648   37.4605 H   0  0  0  0  0  0  0  0  0  0  0  0
   39.9133   23.9170   39.2367 H   0  0  0  0  0  0  0  0  0  0  0  0
   37.4123   24.2353   39.0681 H   0  0  0  0  0  0  0  0  0  0  0  0
   36.8664   20.3999   31.5062 H   0  0  0  0  0  0  0  0  0  0  0  0
   34.4988   19.5124   32.7646 H   0  0  0  0  0  0  0  0  0  0  0  0
   34.0478   20.3150   31.2222 H   0  0  0  0  0  0  0  0  0  0  0  0
   35.2502   18.9805   31.2222 H   0  0  0  0  0  0  0  0  0  0  0  0
   35.5325   22.9317   32.0689 H   0  0  0  0  0  0  0  0  0  0  0  0
   36.5573   22.4371   30.6790 H   0  0  0  0  0  0  0  0  0  0  0  0
   34.8010   22.0601   30.6790 H   0  0  0  0  0  0  0  0  0  0  0  0
  1  2  1  0
  1 10  1  0
  3  2  2  0
  4  5  1  0
  4  3  1  0
  5  1  2  0
  6  7  2  0
  8  7  1  0
  9  8  2  0
 10 11  2  0
 10  9  1  0
 11  6  1  0
 12  4  1  0
 13 12  1  0
 14 12  1  0
  2 15  1  0
  3 16  1  0
  6 17  1  0
  7 18  1  0
  8 19  1  0
 12 20  1  0
 13 21  1  0
 13 22  1  0
 13 23  1  0
 14 24  1  0
 14 25  1  0
 14 26  1  0
M  ISO  8  15  14  16  14  17  14  18  14  19  14  20   8  21   8  22   8
M  ISO  4  23   8  24   8  25   8  26   8
M  END
>  <minimizedAffinity>  (1) 
-4.32959938

>  <minimizedRMSD>  (1) 
0.356560081

$$$$
