
     RDKit          3D

 24 26  0  0  0  0  0  0  0  0999 V2000
   37.1550   21.7990   34.9600 C   0  0  0  0  0  0  0  0  0  0  0  0
   36.0970   20.9330   35.2370 C   0  0  0  0  0  0  0  0  0  0  0  0
   35.5230   20.5870   34.0200 C   0  0  0  0  0  0  0  0  0  0  0  0
   36.2380   21.2400   33.0660 N   0  0  0  0  0  0  0  0  0  0  0  0
   37.2230   21.9730   33.6190 N   0  0  0  0  0  0  0  0  0  0  0  0
   39.9170   22.6270   37.2200 C   0  0  0  0  0  0  0  0  0  0  0  0
   39.2630   23.2870   38.2740 C   0  0  0  0  0  0  0  0  0  0  0  0
   37.8730   23.4340   38.1840 C   0  0  0  0  0  0  0  0  0  0  0  0
   37.2340   22.9360   37.0940 N   0  0  0  0  0  0  0  0  0  0  0  0
   37.9180   22.3040   36.0980 C   0  0  0  0  0  0  0  0  0  0  0  0
   39.2400   22.1440   36.1480 N   0  0  0  0  0  0  0  0  0  0  0  0
   36.0930   21.2540   31.6240 C   0  0  0  0  0  0  0  0  0  0  0  0
   37.2450   20.9860   30.7410 C   0  0  0  0  0  0  0  0  0  0  0  0
   36.2830   19.8400   31.0030 C   0  0  0  0  0  0  0  0  0  0  0  0
   35.7774   20.5889   36.2317 H   0  0  0  0  0  0  0  0  0  0  0  0
   34.6634   19.9194   33.8606 H   0  0  0  0  0  0  0  0  0  0  0  0
   41.0085   22.4983   37.2652 H   0  0  0  0  0  0  0  0  0  0  0  0
   39.8223   23.6742   39.1384 H   0  0  0  0  0  0  0  0  0  0  0  0
   37.3101   23.9427   38.9804 H   0  0  0  0  0  0  0  0  0  0  0  0
   35.3520   22.0670   31.6258 H   0  0  0  0  0  0  0  0  0  0  0  0
   38.2587   20.9517   31.1667 H   0  0  0  0  0  0  0  0  0  0  0  0
   37.6330   21.4621   29.8284 H   0  0  0  0  0  0  0  0  0  0  0  0
   35.6096   19.4852   30.2089 H   0  0  0  0  0  0  0  0  0  0  0  0
   36.3605   18.8107   31.3833 H   0  0  0  0  0  0  0  0  0  0  0  0
  1  2  1  0
  1 10  1  0
  3  2  2  0
  4  5  1  0
  4  3  1  0
  5  1  2  0
  6  7  2  0
  8  7  1  0
  9  8  2  0
 10 11  2  0
 10  9  1  0
 11  6  1  0
 12  4  1  0
 13 14  1  0
 13 12  1  0
 14 12  1  0
  2 15  1  0
  3 16  1  0
  6 17  1  0
  7 18  1  0
  8 19  1  0
 12 20  1  0
 13 21  1  0
 13 22  1  0
 14 23  1  0
 14 24  1  0
M  ISO  8  15  14  16  14  17  14  18  14  19  14  20  13  21  13  22  13
M  ISO  2  23  13  24  13
M  END
>  <minimizedAffinity>  (1) 
-4.17004061

>  <minimizedRMSD>  (1) 
0.298572868

$$$$
