
     RDKit          3D

 34 37  0  0  0  0  0  0  0  0999 V2000
   37.1850   21.7540   35.2410 C   0  0  0  0  0  0  0  0  0  0  0  0
   36.0470   21.0400   35.6310 C   0  0  0  0  0  0  0  0  0  0  0  0
   35.4430   20.5670   34.4510 C   0  0  0  0  0  0  0  0  0  0  0  0
   36.2400   21.0160   33.4070 N   0  0  0  0  0  0  0  0  0  0  0  0
   37.2360   21.6990   33.9030 N   0  0  0  0  0  0  0  0  0  0  0  0
   40.0750   22.6330   37.2830 C   0  0  0  0  0  0  0  0  0  0  0  0
   39.4770   23.4210   38.3220 C   0  0  0  0  0  0  0  0  0  0  0  0
   38.0940   23.6220   38.2740 C   0  0  0  0  0  0  0  0  0  0  0  0
   37.4160   23.0570   37.2470 N   0  0  0  0  0  0  0  0  0  0  0  0
   37.9920   22.3270   36.2920 C   0  0  0  0  0  0  0  0  0  0  0  0
   39.3150   22.1090   36.2990 N   0  0  0  0  0  0  0  0  0  0  0  0
   35.9410   20.7120   32.0420 C   0  0  0  0  0  0  0  0  0  0  0  0
   36.0650   19.2940   31.6610 C   0  0  0  0  0  0  0  0  0  0  0  0
   35.5140   18.3720   32.5070 N   0  0  0  0  0  0  0  0  0  0  0  0
   35.5800   17.0470   32.2870 C   0  0  0  0  0  0  0  0  0  0  0  0
   36.2070   16.5590   31.1970 N   0  0  0  0  0  0  0  0  0  0  0  0
   36.7770   17.4150   30.3110 C   0  0  0  0  0  0  0  0  0  0  0  0
   37.4160   16.9340   29.1870 C   0  0  0  0  0  0  0  0  0  0  0  0
   37.9840   17.8200   28.2920 C   0  0  0  0  0  0  0  0  0  0  0  0
   37.8860   19.1700   28.5650 C   0  0  0  0  0  0  0  0  0  0  0  0
   37.2480   19.6460   29.6900 C   0  0  0  0  0  0  0  0  0  0  0  0
   36.6970   18.7640   30.5570 C   0  0  0  0  0  0  0  0  0  0  0  0
   35.6930   20.8794   36.6600 H   0  0  0  0  0  0  0  0  0  0  0  0
   34.5262   19.9643   34.3722 H   0  0  0  0  0  0  0  0  0  0  0  0
   41.1605   22.4548   37.2886 H   0  0  0  0  0  0  0  0  0  0  0  0
   40.0862   23.8528   39.1297 H   0  0  0  0  0  0  0  0  0  0  0  0
   37.5765   24.2165   39.0413 H   0  0  0  0  0  0  0  0  0  0  0  0
   34.9052   21.0255   31.8451 H   0  0  0  0  0  0  0  0  0  0  0  0
   36.6913   21.2498   31.4439 H   0  0  0  0  0  0  0  0  0  0  0  0
   35.1173   16.3531   33.0042 H   0  0  0  0  0  0  0  0  0  0  0  0
   37.4730   15.8508   29.0043 H   0  0  0  0  0  0  0  0  0  0  0  0
   38.4990   17.4607   27.3888 H   0  0  0  0  0  0  0  0  0  0  0  0
   38.3316   19.8889   27.8617 H   0  0  0  0  0  0  0  0  0  0  0  0
   37.1872   20.7276   29.8809 H   0  0  0  0  0  0  0  0  0  0  0  0
  1  2  1  0
  1 10  1  0
  3  2  2  0
  4  5  1  0
  4  3  1  0
  5  1  2  0
  6  7  2  0
  8  7  1  0
  9  8  2  0
 10 11  2  0
 10  9  1  0
 11  6  1  0
 12  4  1  0
 13 12  1  0
 13 14  2  0
 15 14  1  0
 16 15  2  0
 17 22  2  0
 17 16  1  0
 18 17  1  0
 19 20  1  0
 19 18  2  0
 20 21  2  0
 21 22  1  0
 22 13  1  0
  2 23  1  0
  3 24  1  0
  6 25  1  0
  7 26  1  0
  8 27  1  0
 12 28  1  0
 12 29  1  0
 15 30  1  0
 18 31  1  0
 19 32  1  0
 20 33  1  0
 21 34  1  0
M  ISO  8  23  14  24  14  25  14  26  14  27  14  28   8  29   8  30  14
M  ISO  4  31  14  32  14  33  14  34  14
M  END
>  <minimizedAffinity>  (1) 
-5.04258728

>  <minimizedRMSD>  (1) 
1.31763017

$$$$
