
     RDKit          3D

 36 38  0  0  0  0  0  0  0  0999 V2000
   38.0010   22.5830   34.7610 C   0  0  0  0  0  0  0  0  0  0  0  0
   37.0910   21.5650   34.5310 C   0  0  0  0  0  0  0  0  0  0  0  0
   36.8550   21.5070   33.1530 C   0  0  0  0  0  0  0  0  0  0  0  0
   37.6400   22.5040   32.6030 N   0  0  0  0  0  0  0  0  0  0  0  0
   38.3110   23.1330   33.5540 N   0  0  0  0  0  0  0  0  0  0  0  0
   39.9960   22.7360   37.8240 C   0  0  0  0  0  0  0  0  0  0  0  0
   39.0850   23.3190   38.7430 C   0  0  0  0  0  0  0  0  0  0  0  0
   37.8060   23.6430   38.2750 C   0  0  0  0  0  0  0  0  0  0  0  0
   37.5190   23.3800   36.9780 N   0  0  0  0  0  0  0  0  0  0  0  0
   38.3970   22.8290   36.1310 C   0  0  0  0  0  0  0  0  0  0  0  0
   39.6050   22.5180   36.5600 N   0  0  0  0  0  0  0  0  0  0  0  0
   37.6730   22.7650   31.1930 C   0  0  0  0  0  0  0  0  0  0  0  0
   37.0450   24.0920   30.8060 C   0  0  0  0  0  0  0  0  0  0  0  0
   37.7100   25.1390   31.6570 C   0  0  0  0  0  0  0  0  0  0  0  0
   36.9510   26.4140   31.7520 C   0  0  0  0  0  0  0  0  0  0  0  0
   35.7670   26.4580   30.7790 C   0  0  0  0  0  0  0  0  0  0  0  0
   34.8730   25.3030   31.1630 C   0  0  0  0  0  0  0  0  0  0  0  0
   35.5670   23.9740   31.0510 C   0  0  0  0  0  0  0  0  0  0  0  0
   36.6352   20.9178   35.2948 H   0  0  0  0  0  0  0  0  0  0  0  0
   36.1866   20.8149   32.6200 H   0  0  0  0  0  0  0  0  0  0  0  0
   41.0127   22.4657   38.1454 H   0  0  0  0  0  0  0  0  0  0  0  0
   39.3740   23.5097   39.7871 H   0  0  0  0  0  0  0  0  0  0  0  0
   37.0571   24.0973   38.9404 H   0  0  0  0  0  0  0  0  0  0  0  0
   38.7227   22.7680   30.8643 H   0  0  0  0  0  0  0  0  0  0  0  0
   37.0841   21.9746   30.7046 H   0  0  0  0  0  0  0  0  0  0  0  0
   37.1822   24.3674   29.7499 H   0  0  0  0  0  0  0  0  0  0  0  0
   37.8323   24.7330   32.6720 H   0  0  0  0  0  0  0  0  0  0  0  0
   38.6707   25.3760   31.1765 H   0  0  0  0  0  0  0  0  0  0  0  0
   36.5703   26.5238   32.7782 H   0  0  0  0  0  0  0  0  0  0  0  0
   37.6350   27.2342   31.4883 H   0  0  0  0  0  0  0  0  0  0  0  0
   36.1184   26.3420   29.7431 H   0  0  0  0  0  0  0  0  0  0  0  0
   35.2332   27.4182   30.8354 H   0  0  0  0  0  0  0  0  0  0  0  0
   34.5443   25.4424   32.2034 H   0  0  0  0  0  0  0  0  0  0  0  0
   34.0214   25.2944   30.4667 H   0  0  0  0  0  0  0  0  0  0  0  0
   35.1185   23.4156   30.2161 H   0  0  0  0  0  0  0  0  0  0  0  0
   35.4373   23.4575   32.0135 H   0  0  0  0  0  0  0  0  0  0  0  0
  1 10  1  0
  2  1  1  0
  3  2  2  0
  4  3  1  0
  4  5  1  0
  5  1  2  0
  6  7  2  0
  8  7  1  0
  9  8  2  0
 10 11  2  0
 10  9  1  0
 11  6  1  0
 12  4  1  0
 13 18  1  0
 13 12  1  0
 13 14  1  0
 14 15  1  0
 16 17  1  0
 16 15  1  0
 18 17  1  0
  2 19  1  0
  3 20  1  0
  6 21  1  0
  7 22  1  0
  8 23  1  0
 12 24  1  0
 12 25  1  0
 13 26  1  0
 14 27  1  0
 14 28  1  0
 15 29  1  0
 15 30  1  0
 16 31  1  0
 16 32  1  0
 17 33  1  0
 17 34  1  0
 18 35  1  0
 18 36  1  0
M  ISO  8  19  14  20  14  21  14  22  14  23  14  24   8  25   8  26  13
M  ISO  8  27  13  28  13  29  13  30  13  31  13  32  13  33  13  34  13
M  ISO  2  35  13  36  13
M  END
>  <minimizedAffinity>  (1) 
-4.70073557

>  <minimizedRMSD>  (1) 
1.82636893

$$$$
