
     RDKit          3D

 27 29  0  0  0  0  0  0  0  0999 V2000
   37.9660   22.6870   34.7980 C   0  0  0  0  0  0  0  0  0  0  0  0
   37.2340   21.5520   34.5200 C   0  0  0  0  0  0  0  0  0  0  0  0
   36.9300   21.5480   33.1530 C   0  0  0  0  0  0  0  0  0  0  0  0
   37.4950   22.6890   32.6570 N   0  0  0  0  0  0  0  0  0  0  0  0
   38.1110   23.3640   33.6370 N   0  0  0  0  0  0  0  0  0  0  0  0
   40.0080   22.7300   37.8240 C   0  0  0  0  0  0  0  0  0  0  0  0
   39.1250   23.3240   38.7690 C   0  0  0  0  0  0  0  0  0  0  0  0
   37.8360   23.6980   38.3340 C   0  0  0  0  0  0  0  0  0  0  0  0
   37.5250   23.4620   37.0350 N   0  0  0  0  0  0  0  0  0  0  0  0
   38.3900   22.8950   36.1620 C   0  0  0  0  0  0  0  0  0  0  0  0
   39.5950   22.5450   36.5650 N   0  0  0  0  0  0  0  0  0  0  0  0
   37.4040   23.0550   31.2640 C   0  0  0  0  0  0  0  0  0  0  0  0
   36.5110   24.2530   31.1050 C   0  0  0  0  0  0  0  0  0  0  0  0
   35.1210   24.2980   31.0250 C   0  0  0  0  0  0  0  0  0  0  0  0
   34.7450   25.6220   30.8830 C   0  0  0  0  0  0  0  0  0  0  0  0
   35.9460   26.3210   30.8830 C   0  0  0  0  0  0  0  0  0  0  0  0
   36.9490   25.4960   31.0130 O   0  0  0  0  0  0  0  0  0  0  0  0
   36.9392   20.7815   35.2476 H   0  0  0  0  0  0  0  0  0  0  0  0
   36.3590   20.7893   32.5978 H   0  0  0  0  0  0  0  0  0  0  0  0
   41.0210   22.4257   38.1261 H   0  0  0  0  0  0  0  0  0  0  0  0
   39.4391   23.4871   39.8105 H   0  0  0  0  0  0  0  0  0  0  0  0
   37.1126   24.1622   39.0205 H   0  0  0  0  0  0  0  0  0  0  0  0
   38.4079   23.2959   30.8843 H   0  0  0  0  0  0  0  0  0  0  0  0
   36.9827   22.2125   30.6959 H   0  0  0  0  0  0  0  0  0  0  0  0
   34.4421   23.4335   31.0673 H   0  0  0  0  0  0  0  0  0  0  0  0
   33.7271   26.0287   30.7910 H   0  0  0  0  0  0  0  0  0  0  0  0
   36.0382   27.4129   30.7872 H   0  0  0  0  0  0  0  0  0  0  0  0
  1 10  1  0
  2  1  1  0
  3  2  2  0
  4  3  1  0
  4  5  1  0
  5  1  2  0
  6  7  2  0
  8  7  1  0
  9  8  2  0
 10 11  2  0
 10  9  1  0
 11  6  1  0
 12  4  1  0
 13 12  1  0
 14 13  2  0
 15 14  1  0
 16 15  2  0
 16 17  1  0
 17 13  1  0
  2 18  1  0
  3 19  1  0
  6 20  1  0
  7 21  1  0
  8 22  1  0
 12 23  1  0
 12 24  1  0
 14 25  1  0
 15 26  1  0
 16 27  1  0
M  ISO  8  18  14  19  14  20  14  21  14  22  14  23   8  24   8  25  14
M  ISO  2  26  14  27  14
M  END
>  <minimizedAffinity>  (1) 
-4.53224373

>  <minimizedRMSD>  (1) 
1.78516364

$$$$
