
     RDKit          3D

 28 30  0  0  0  0  0  0  0  0999 V2000
   37.1250   21.7760   35.0600 C   0  0  0  0  0  0  0  0  0  0  0  0
   36.0500   20.9550   35.4190 C   0  0  0  0  0  0  0  0  0  0  0  0
   35.4430   20.5880   34.2000 C   0  0  0  0  0  0  0  0  0  0  0  0
   36.1580   21.1870   33.1990 N   0  0  0  0  0  0  0  0  0  0  0  0
   37.1550   21.8900   33.7140 N   0  0  0  0  0  0  0  0  0  0  0  0
   39.9940   22.5890   37.1810 C   0  0  0  0  0  0  0  0  0  0  0  0
   39.3730   23.2990   38.2580 C   0  0  0  0  0  0  0  0  0  0  0  0
   37.9820   23.4780   38.2230 C   0  0  0  0  0  0  0  0  0  0  0  0
   37.3130   22.9630   37.1650 N   0  0  0  0  0  0  0  0  0  0  0  0
   37.9290   22.2960   36.1610 C   0  0  0  0  0  0  0  0  0  0  0  0
   39.2360   22.1190   36.1770 N   0  0  0  0  0  0  0  0  0  0  0  0
   35.7710   20.9930   31.8370 C   0  0  0  0  0  0  0  0  0  0  0  0
   36.2050   19.6620   31.3100 C   0  0  0  0  0  0  0  0  0  0  0  0
   36.3870   18.4950   32.0400 C   0  0  0  0  0  0  0  0  0  0  0  0
   36.7960   17.3610   31.3580 C   0  0  0  0  0  0  0  0  0  0  0  0
   36.9930   17.4550   30.0280 N   0  0  0  0  0  0  0  0  0  0  0  0
   36.8210   18.5700   29.3220 C   0  0  0  0  0  0  0  0  0  0  0  0
   36.4300   19.6540   29.9750 N   0  0  0  0  0  0  0  0  0  0  0  0
   35.7443   20.6595   36.4335 H   0  0  0  0  0  0  0  0  0  0  0  0
   34.5611   19.9421   34.0772 H   0  0  0  0  0  0  0  0  0  0  0  0
   41.0824   22.4299   37.1759 H   0  0  0  0  0  0  0  0  0  0  0  0
   39.9715   23.6942   39.0920 H   0  0  0  0  0  0  0  0  0  0  0  0
   37.4552   24.0163   39.0247 H   0  0  0  0  0  0  0  0  0  0  0  0
   34.6754   21.0616   31.7669 H   0  0  0  0  0  0  0  0  0  0  0  0
   36.2605   21.7711   31.2329 H   0  0  0  0  0  0  0  0  0  0  0  0
   36.2119   18.4718   33.1257 H   0  0  0  0  0  0  0  0  0  0  0  0
   36.9556   16.4100   31.8872 H   0  0  0  0  0  0  0  0  0  0  0  0
   36.9970   18.5906   28.2364 H   0  0  0  0  0  0  0  0  0  0  0  0
  1  2  1  0
  1 10  1  0
  3  2  2  0
  4  5  1  0
  4  3  1  0
  5  1  2  0
  6  7  2  0
  8  7  1  0
  9  8  2  0
 10 11  2  0
 10  9  1  0
 11  6  1  0
 12  4  1  0
 13 12  1  0
 13 14  2  0
 15 14  1  0
 16 15  2  0
 17 18  2  0
 17 16  1  0
 18 13  1  0
  2 19  1  0
  3 20  1  0
  6 21  1  0
  7 22  1  0
  8 23  1  0
 12 24  1  0
 12 25  1  0
 14 26  1  0
 15 27  1  0
 17 28  1  0
M  ISO  8  19  14  20  14  21  14  22  14  23  14  24   8  25   8  26  14
M  ISO  2  27  14  28  14
M  END
>  <minimizedAffinity>  (1) 
-4.60346317

>  <minimizedRMSD>  (1) 
0.589093208

$$$$
