
     RDKit          3D

 27 29  0  0  0  0  0  0  0  0999 V2000
   37.5380   22.2450   34.8560 C   0  0  0  0  0  0  0  0  0  0  0  0
   36.6260   21.1820   34.8720 C   0  0  0  0  0  0  0  0  0  0  0  0
   36.1580   21.0580   33.5480 C   0  0  0  0  0  0  0  0  0  0  0  0
   36.7980   22.0340   32.8120 N   0  0  0  0  0  0  0  0  0  0  0  0
   37.6100   22.7280   33.5990 N   0  0  0  0  0  0  0  0  0  0  0  0
   40.0320   22.5890   37.5130 C   0  0  0  0  0  0  0  0  0  0  0  0
   39.2750   23.2120   38.5550 C   0  0  0  0  0  0  0  0  0  0  0  0
   37.9070   23.5000   38.3090 C   0  0  0  0  0  0  0  0  0  0  0  0
   37.4170   23.1580   37.0900 N   0  0  0  0  0  0  0  0  0  0  0  0
   38.1640   22.5690   36.1260 C   0  0  0  0  0  0  0  0  0  0  0  0
   39.4340   22.2980   36.3470 N   0  0  0  0  0  0  0  0  0  0  0  0
   36.5520   22.1970   31.4140 C   0  0  0  0  0  0  0  0  0  0  0  0
   36.2620   23.6320   31.1400 C   0  0  0  0  0  0  0  0  0  0  0  0
   35.1250   24.3980   31.2890 C   0  0  0  0  0  0  0  0  0  0  0  0
   35.4170   25.6690   30.8820 C   0  0  0  0  0  0  0  0  0  0  0  0
   36.7120   25.6950   30.4870 N   0  0  0  0  0  0  0  0  0  0  0  0
   37.2110   24.4790   30.6430 N   0  0  0  0  0  0  0  0  0  0  0  0
   36.3350   20.5703   35.7387 H   0  0  0  0  0  0  0  0  0  0  0  0
   35.4261   20.3265   33.1748 H   0  0  0  0  0  0  0  0  0  0  0  0
   41.0949   22.3505   37.6660 H   0  0  0  0  0  0  0  0  0  0  0  0
   39.7403   23.4609   39.5202 H   0  0  0  0  0  0  0  0  0  0  0  0
   37.2734   23.9780   39.0706 H   0  0  0  0  0  0  0  0  0  0  0  0
   37.4391   21.8840   30.8439 H   0  0  0  0  0  0  0  0  0  0  0  0
   35.6939   21.5787   31.1117 H   0  0  0  0  0  0  0  0  0  0  0  0
   34.1540   24.0474   31.6687 H   0  0  0  0  0  0  0  0  0  0  0  0
   34.7221   26.5217   30.8762 H   0  0  0  0  0  0  0  0  0  0  0  0
   37.2194   26.5164   30.1283 H   0  0  0  0  0  0  0  0  0  0  0  0
  1  2  1  0
  1 10  1  0
  3  2  2  0
  4  3  1  0
  4  5  1  0
  5  1  2  0
  6  7  2  0
  8  7  1  0
  9  8  2  0
 10 11  2  0
 10  9  1  0
 11  6  1  0
 12  4  1  0
 13 14  1  0
 13 12  1  0
 15 14  2  0
 16 17  1  0
 16 15  1  0
 17 13  2  0
  2 18  1  0
  3 19  1  0
  6 20  1  0
  7 21  1  0
  8 22  1  0
 12 23  1  0
 12 24  1  0
 14 25  1  0
 15 26  1  0
 16 27  1  0
M  ISO  8  18  14  19  14  20  14  21  14  22  14  23   8  24   8  25  14
M  ISO  2  26  14  27   9
M  END
>  <minimizedAffinity>  (1) 
-4.76211596

>  <minimizedRMSD>  (1) 
1.46642268

$$$$
