
     RDKit          3D

 31 34  0  0  0  0  0  0  0  0999 V2000
   37.2330   21.6930   34.9130 C   0  0  0  0  0  0  0  0  0  0  0  0
   36.0200   21.0540   35.1650 C   0  0  0  0  0  0  0  0  0  0  0  0
   35.5340   20.6140   33.9270 C   0  0  0  0  0  0  0  0  0  0  0  0
   36.4570   20.9980   32.9850 N   0  0  0  0  0  0  0  0  0  0  0  0
   37.4560   21.6340   33.5820 N   0  0  0  0  0  0  0  0  0  0  0  0
   39.9210   22.6260   37.2010 C   0  0  0  0  0  0  0  0  0  0  0  0
   39.2130   23.3130   38.2320 C   0  0  0  0  0  0  0  0  0  0  0  0
   37.8050   23.4350   38.1060 C   0  0  0  0  0  0  0  0  0  0  0  0
   37.2670   22.8820   37.0020 N   0  0  0  0  0  0  0  0  0  0  0  0
   37.9430   22.2410   36.0450 C   0  0  0  0  0  0  0  0  0  0  0  0
   39.2700   22.1120   36.1430 N   0  0  0  0  0  0  0  0  0  0  0  0
   36.3080   20.7230   31.5860 C   0  0  0  0  0  0  0  0  0  0  0  0
   36.5290   19.3310   31.2850 N   0  0  0  0  0  0  0  0  0  0  0  0
   36.7050   18.3710   32.2200 C   0  0  0  0  0  0  0  0  0  0  0  0
   36.8910   17.1640   31.6190 N   0  0  0  0  0  0  0  0  0  0  0  0
   36.8360   17.3390   30.2870 C   0  0  0  0  0  0  0  0  0  0  0  0
   36.9630   16.4410   29.2480 C   0  0  0  0  0  0  0  0  0  0  0  0
   36.8550   16.9530   27.9870 N   0  0  0  0  0  0  0  0  0  0  0  0
   36.6360   18.2650   27.8250 C   0  0  0  0  0  0  0  0  0  0  0  0
   36.5100   19.1570   28.8470 N   0  0  0  0  0  0  0  0  0  0  0  0
   36.6120   18.6880   30.1060 C   0  0  0  0  0  0  0  0  0  0  0  0
   35.5383   20.9212   36.1450 H   0  0  0  0  0  0  0  0  0  0  0  0
   34.5967   20.0679   33.7449 H   0  0  0  0  0  0  0  0  0  0  0  0
   41.0131   22.5156   37.2728 H   0  0  0  0  0  0  0  0  0  0  0  0
   39.7429   23.7354   39.0985 H   0  0  0  0  0  0  0  0  0  0  0  0
   37.1921   23.9483   38.8615 H   0  0  0  0  0  0  0  0  0  0  0  0
   35.2884   20.9961   31.2766 H   0  0  0  0  0  0  0  0  0  0  0  0
   37.0595   21.3130   31.0409 H   0  0  0  0  0  0  0  0  0  0  0  0
   36.6988   18.5403   33.3069 H   0  0  0  0  0  0  0  0  0  0  0  0
   37.1416   15.3702   29.4257 H   0  0  0  0  0  0  0  0  0  0  0  0
   36.5523   18.6478   26.7971 H   0  0  0  0  0  0  0  0  0  0  0  0
  1  2  1  0
  1 10  1  0
  3  2  2  0
  4  5  1  0
  4  3  1  0
  5  1  2  0
  6  7  2  0
  8  7  1  0
  9  8  2  0
 10 11  2  0
 10  9  1  0
 11  6  1  0
 12  4  1  0
 13 12  1  0
 13 14  1  0
 15 14  2  0
 16 15  1  0
 17 16  2  0
 18 17  1  0
 19 18  2  0
 19 20  1  0
 20 21  2  0
 21 16  1  0
 21 13  1  0
  2 22  1  0
  3 23  1  0
  6 24  1  0
  7 25  1  0
  8 26  1  0
 12 27  1  0
 12 28  1  0
 14 29  1  0
 17 30  1  0
 19 31  1  0
M  ISO  8  22  14  23  14  24  14  25  14  26  14  27   8  28   8  29  14
M  ISO  2  30  14  31  14
M  END
>  <minimizedAffinity>  (1) 
-4.78543043

>  <minimizedRMSD>  (1) 
1.10857093

$$$$
