
     RDKit          3D

 30 32  0  0  0  0  0  0  0  0999 V2000
   37.7180   22.4120   34.8590 C   0  0  0  0  0  0  0  0  0  0  0  0
   36.8630   21.3110   34.7430 C   0  0  0  0  0  0  0  0  0  0  0  0
   36.4830   21.2370   33.3920 C   0  0  0  0  0  0  0  0  0  0  0  0
   37.1080   22.2720   32.7600 N   0  0  0  0  0  0  0  0  0  0  0  0
   37.8480   22.9780   33.6280 N   0  0  0  0  0  0  0  0  0  0  0  0
   39.9930   22.6640   37.7100 C   0  0  0  0  0  0  0  0  0  0  0  0
   39.1610   23.2920   38.6890 C   0  0  0  0  0  0  0  0  0  0  0  0
   37.8450   23.6050   38.3310 C   0  0  0  0  0  0  0  0  0  0  0  0
   37.4350   23.2970   37.0780 N   0  0  0  0  0  0  0  0  0  0  0  0
   38.2540   22.7010   36.1770 C   0  0  0  0  0  0  0  0  0  0  0  0
   39.4970   22.3950   36.4880 N   0  0  0  0  0  0  0  0  0  0  0  0
   36.9640   22.5320   31.3480 C   0  0  0  0  0  0  0  0  0  0  0  0
   36.5940   23.9640   31.1680 C   0  0  0  0  0  0  0  0  0  0  0  0
   35.2990   24.4380   31.1470 C   0  0  0  0  0  0  0  0  0  0  0  0
   35.0090   25.7820   30.9750 C   0  0  0  0  0  0  0  0  0  0  0  0
   36.0410   26.7070   30.8160 C   0  0  0  0  0  0  0  0  0  0  0  0
   37.3310   26.2370   30.8370 C   0  0  0  0  0  0  0  0  0  0  0  0
   37.6100   24.8960   31.0090 C   0  0  0  0  0  0  0  0  0  0  0  0
   36.5492   20.6347   35.5518 H   0  0  0  0  0  0  0  0  0  0  0  0
   35.8145   20.4925   32.9350 H   0  0  0  0  0  0  0  0  0  0  0  0
   41.0330   22.4021   37.9544 H   0  0  0  0  0  0  0  0  0  0  0  0
   39.5443   23.5223   39.6940 H   0  0  0  0  0  0  0  0  0  0  0  0
   37.1633   24.0874   39.0469 H   0  0  0  0  0  0  0  0  0  0  0  0
   37.9144   22.3266   30.8337 H   0  0  0  0  0  0  0  0  0  0  0  0
   36.1837   21.8840   30.9224 H   0  0  0  0  0  0  0  0  0  0  0  0
   34.4696   23.7261   31.2708 H   0  0  0  0  0  0  0  0  0  0  0  0
   33.9624   26.1204   30.9638 H   0  0  0  0  0  0  0  0  0  0  0  0
   35.8284   27.7774   30.6784 H   0  0  0  0  0  0  0  0  0  0  0  0
   38.1625   26.9465   30.7137 H   0  0  0  0  0  0  0  0  0  0  0  0
   38.6573   24.5598   31.0202 H   0  0  0  0  0  0  0  0  0  0  0  0
  1 10  1  0
  2  1  1  0
  3  2  2  0
  4  3  1  0
  4  5  1  0
  5  1  2  0
  6  7  2  0
  8  7  1  0
  9  8  2  0
 10 11  2  0
 10  9  1  0
 11  6  1  0
 12  4  1  0
 13 12  1  0
 14 13  2  0
 15 14  1  0
 16 17  1  0
 16 15  2  0
 17 18  2  0
 18 13  1  0
  2 19  1  0
  3 20  1  0
  6 21  1  0
  7 22  1  0
  8 23  1  0
 12 24  1  0
 12 25  1  0
 14 26  1  0
 15 27  1  0
 16 28  1  0
 17 29  1  0
 18 30  1  0
M  ISO  8  19  14  20  14  21  14  22  14  23  14  24   8  25   8  26  14
M  ISO  4  27  14  28  14  29  14  30  14
M  END
>  <minimizedAffinity>  (1) 
-4.82433033

>  <minimizedRMSD>  (1) 
2.05016828

$$$$
