
     RDKit          3D

 21 22  0  0  0  0  0  0  0  0999 V2000
   37.1560   21.8440   34.8600 C   0  0  0  0  0  0  0  0  0  0  0  0
   36.1310   20.9440   35.0930 C   0  0  0  0  0  0  0  0  0  0  0  0
   35.5750   20.6330   33.8450 C   0  0  0  0  0  0  0  0  0  0  0  0
   36.2930   21.3610   32.9130 N   0  0  0  0  0  0  0  0  0  0  0  0
   37.2300   22.0770   33.5280 N   0  0  0  0  0  0  0  0  0  0  0  0
   39.8900   22.6090   37.1790 C   0  0  0  0  0  0  0  0  0  0  0  0
   39.2080   23.2430   38.2540 C   0  0  0  0  0  0  0  0  0  0  0  0
   37.8210   23.3850   38.1410 C   0  0  0  0  0  0  0  0  0  0  0  0
   37.2060   22.9190   37.0300 N   0  0  0  0  0  0  0  0  0  0  0  0
   37.8960   22.3200   36.0290 C   0  0  0  0  0  0  0  0  0  0  0  0
   39.2190   22.1670   36.0990 N   0  0  0  0  0  0  0  0  0  0  0  0
   36.0130   21.3040   31.5100 C   0  0  0  0  0  0  0  0  0  0  0  0
   36.1560   19.5580   30.9770 S   0  0  0  0  0  0  0  0  0  0  0  0
   35.8139   20.5490   36.0694 H   0  0  0  0  0  0  0  0  0  0  0  0
   34.7371   19.9485   33.6464 H   0  0  0  0  0  0  0  0  0  0  0  0
   40.9809   22.4780   37.2308 H   0  0  0  0  0  0  0  0  0  0  0  0
   39.7498   23.6073   39.1393 H   0  0  0  0  0  0  0  0  0  0  0  0
   37.2407   23.8671   38.9415 H   0  0  0  0  0  0  0  0  0  0  0  0
   34.9942   21.6712   31.3171 H   0  0  0  0  0  0  0  0  0  0  0  0
   36.7217   21.9338   30.9523 H   0  0  0  0  0  0  0  0  0  0  0  0
   36.2224   18.7479   32.0798 H   0  0  0  0  0  0  0  0  0  0  0  0
  1  2  1  0
  1 10  1  0
  3  2  2  0
  4  5  1  0
  4  3  1  0
  5  1  2  0
  6  7  2  0
  8  7  1  0
  9  8  2  0
 10 11  2  0
 10  9  1  0
 11  6  1  0
 12  4  1  0
 13 12  1  0
  2 14  1  0
  3 15  1  0
  6 16  1  0
  7 17  1  0
  8 18  1  0
 12 19  1  0
 12 20  1  0
 13 21  1  0
M  ISO  8  14  14  15  14  16  14  17  14  18  14  19   8  20   8  21  11
M  END
>  <minimizedAffinity>  (1) 
-3.87706494

>  <minimizedRMSD>  (1) 
0.308557451

$$$$
