
     RDKit          3D

 30 31  0  0  0  0  0  0  0  0999 V2000
   39.6500   25.1560   35.3950 C   0  0  0  0  0  0  0  0  0  0  0  0
   39.7160   23.7530   35.5540 C   0  0  0  0  0  0  0  0  0  0  0  0
   38.7990   23.0520   34.7990 C   0  0  0  0  0  0  0  0  0  0  0  0
   37.9280   23.6880   33.9880 N   0  0  0  0  0  0  0  0  0  0  0  0
   37.8940   25.0370   33.8600 C   0  0  0  0  0  0  0  0  0  0  0  0
   38.7710   25.7570   34.5790 N   0  0  0  0  0  0  0  0  0  0  0  0
   40.6560   23.1530   36.4180 N   0  0  0  0  0  0  0  0  0  0  0  0
   40.3350   22.3960   37.5630 C   0  0  0  0  0  0  0  0  0  0  0  0
   39.3330   22.8680   38.2820 N   0  0  0  0  0  0  0  0  0  0  0  0
   41.1410   21.2090   37.7980 N   0  0  0  0  0  0  0  0  0  0  0  0
   39.0180   22.3700   39.1280 H   0  0  0  0  0  0  0  0  0  0  0  0
   36.8580   25.5290   32.9140 C   0  0  0  0  0  0  0  0  0  0  0  0
   37.3440   26.6220   32.0230 C   0  0  0  0  0  0  0  0  0  0  0  0
   36.3030   26.6400   30.9230 C   0  0  0  0  0  0  0  0  0  0  0  0
   35.5570   25.3250   31.0160 C   0  0  0  0  0  0  0  0  0  0  0  0
   36.4600   24.4620   31.9100 C   0  0  0  0  0  0  0  0  0  0  0  0
   40.3507   25.7830   35.9659 H   0  0  0  0  0  0  0  0  0  0  0  0
   38.7773   21.9539   34.8591 H   0  0  0  0  0  0  0  0  0  0  0  0
   41.6538   23.2777   36.1950 H   0  0  0  0  0  0  0  0  0  0  0  0
   40.9552   20.6144   38.6183 H   0  0  0  0  0  0  0  0  0  0  0  0
   41.8978   20.9627   37.1442 H   0  0  0  0  0  0  0  0  0  0  0  0
   36.0440   25.8511   33.5801 H   0  0  0  0  0  0  0  0  0  0  0  0
   37.3754   27.5839   32.5556 H   0  0  0  0  0  0  0  0  0  0  0  0
   38.3677   26.4623   31.6536 H   0  0  0  0  0  0  0  0  0  0  0  0
   36.7895   26.7324   29.9408 H   0  0  0  0  0  0  0  0  0  0  0  0
   35.6193   27.4943   31.0360 H   0  0  0  0  0  0  0  0  0  0  0  0
   34.5678   25.4660   31.4760 H   0  0  0  0  0  0  0  0  0  0  0  0
   35.3673   24.8699   30.0327 H   0  0  0  0  0  0  0  0  0  0  0  0
   35.9096   23.6337   32.3802 H   0  0  0  0  0  0  0  0  0  0  0  0
   37.2892   23.9484   31.4014 H   0  0  0  0  0  0  0  0  0  0  0  0
  1  2  2  0
  2  7  1  0
  3  2  1  0
  4  3  2  0
  5  4  1  0
  5  6  2  0
  6  1  1  0
  7  8  1  0
  8 10  1  0
  8  9  2  0
  9 11  1  0
 12  5  1  0
 13 12  1  0
 14 15  1  0
 14 13  1  0
 15 16  1  0
 16 12  1  0
  1 17  1  0
  3 18  1  0
  7 19  1  0
 10 20  1  0
 10 21  1  0
 12 22  1  0
 13 23  1  0
 13 24  1  0
 14 25  1  0
 14 26  1  0
 15 27  1  0
 15 28  1  0
 16 29  1  0
 16 30  1  0
M  ISO  8  17  14  18  14  22  13  23  13  24  13  25  13  26  13  27  13
M  ISO  3  28  13  29  13  30  13
M  END
>  <minimizedAffinity>  (1) 
-4.52816057

>  <minimizedRMSD>  (1) 
0.682670712

$$$$
