
     RDKit          3D

 42 46  0  0  0  0  0  0  0  0999 V2000
   36.7930   24.4370   31.0500 N   0  0  0  0  0  0  0  0  0  0  0  0
   37.9820   25.0290   30.8860 C   0  0  0  0  0  0  0  0  0  0  0  0
   38.1240   26.4030   30.7820 C   0  0  0  0  0  0  0  0  0  0  0  0
   37.0120   27.2280   30.8450 C   0  0  0  0  0  0  0  0  0  0  0  0
   37.1220   28.6240   30.7420 N   0  0  0  0  0  0  0  0  0  0  0  0
   35.8380   26.6020   31.0100 N   0  0  0  0  0  0  0  0  0  0  0  0
   35.7440   25.2650   31.1060 C   0  0  0  0  0  0  0  0  0  0  0  0
   34.5630   24.8620   31.2580 O   0  0  0  0  0  0  0  0  0  0  0  0
   39.4250   26.9680   30.6080 N   0  0  0  0  0  0  0  0  0  0  0  0
   40.0880   27.4360   29.5440 C   0  0  0  0  0  0  0  0  0  0  0  0
   41.3100   27.8690   29.9040 N   0  0  0  0  0  0  0  0  0  0  0  0
   41.4370   27.6750   31.2300 C   0  0  0  0  0  0  0  0  0  0  0  0
   42.5110   27.9580   32.0760 C   0  0  0  0  0  0  0  0  0  0  0  0
   42.3060   27.6320   33.3830 N   0  0  0  0  0  0  0  0  0  0  0  0
   41.1740   27.0870   33.8220 C   0  0  0  0  0  0  0  0  0  0  0  0
   40.1480   26.8210   32.9930 N   0  0  0  0  0  0  0  0  0  0  0  0
   40.2580   27.1100   31.6790 C   0  0  0  0  0  0  0  0  0  0  0  0
   36.5880   23.0070   31.1660 C   0  0  0  0  0  0  0  0  0  0  0  0
   37.6610   22.5540   34.5610 C   0  0  0  0  0  0  0  0  0  0  0  0
   36.9050   21.3940   34.3850 C   0  0  0  0  0  0  0  0  0  0  0  0
   36.3980   21.4000   33.0860 C   0  0  0  0  0  0  0  0  0  0  0  0
   36.8650   22.5690   32.5200 N   0  0  0  0  0  0  0  0  0  0  0  0
   37.6010   23.2320   33.3980 N   0  0  0  0  0  0  0  0  0  0  0  0
   40.1190   22.4860   37.2620 C   0  0  0  0  0  0  0  0  0  0  0  0
   39.4040   23.0760   38.3400 C   0  0  0  0  0  0  0  0  0  0  0  0
   38.0910   23.4820   38.1020 C   0  0  0  0  0  0  0  0  0  0  0  0
   37.5750   23.2900   36.8630 N   0  0  0  0  0  0  0  0  0  0  0  0
   38.2710   22.7270   35.8540 C   0  0  0  0  0  0  0  0  0  0  0  0
   39.5280   22.3310   36.0540 N   0  0  0  0  0  0  0  0  0  0  0  0
   38.8824   24.3994   30.8316 H   0  0  0  0  0  0  0  0  0  0  0  0
   36.2780   29.2122   30.7923 H   0  0  0  0  0  0  0  0  0  0  0  0
   38.0467   29.0598   30.6161 H   0  0  0  0  0  0  0  0  0  0  0  0
   39.6899   27.4629   28.5189 H   0  0  0  0  0  0  0  0  0  0  0  0
   43.4479   28.4082   31.7161 H   0  0  0  0  0  0  0  0  0  0  0  0
   41.0744   26.8476   34.8910 H   0  0  0  0  0  0  0  0  0  0  0  0
   35.5445   22.7680   30.9133 H   0  0  0  0  0  0  0  0  0  0  0  0
   37.2700   22.4897   30.4752 H   0  0  0  0  0  0  0  0  0  0  0  0
   36.7382   20.6113   35.1397 H   0  0  0  0  0  0  0  0  0  0  0  0
   35.7622   20.6367   32.6136 H   0  0  0  0  0  0  0  0  0  0  0  0
   41.1572   22.1540   37.4102 H   0  0  0  0  0  0  0  0  0  0  0  0
   39.8702   23.2077   39.3276 H   0  0  0  0  0  0  0  0  0  0  0  0
   37.4902   23.9456   38.8983 H   0  0  0  0  0  0  0  0  0  0  0  0
  1  7  1  0
  1 18  1  0
  2  1  1  0
  3  4  1  0
  3  2  2  0
  4  6  2  0
  5  4  1  0
  6  7  1  0
  7  8  2  0
  9  3  1  0
  9 17  1  0
 10 11  2  0
 10  9  1  0
 11 12  1  0
 12 17  2  0
 12 13  1  0
 13 14  2  0
 14 15  1  0
 16 15  2  0
 17 16  1  0
 18 22  1  0
 19 28  1  0
 20 19  1  0
 21 20  2  0
 22 21  1  0
 22 23  1  0
 23 19  2  0
 24 25  2  0
 26 25  1  0
 27 26  2  0
 28 29  2  0
 28 27  1  0
 29 24  1  0
  2 30  1  0
  5 31  1  0
  5 32  1  0
 10 33  1  0
 13 34  1  0
 15 35  1  0
 18 36  1  0
 18 37  1  0
 20 38  1  0
 21 39  1  0
 24 40  1  0
 25 41  1  0
 26 42  1  0
M  ISO  8  30  14  33  14  34  14  35  14  36   8  37   8  38  14  39  14
M  ISO  3  40  14  41  14  42  14
M  END
>  <minimizedAffinity>  (1) 
-5.82170105

>  <minimizedRMSD>  (1) 
1.1397469

$$$$
