
     RDKit          3D

 42 45  0  0  0  0  0  0  0  0999 V2000
   37.0460   24.5750   30.9690 N   0  0  0  0  0  0  0  0  0  0  0  0
   38.1600   25.2970   30.7490 C   0  0  0  0  0  0  0  0  0  0  0  0
   38.1110   26.6870   30.6860 C   0  0  0  0  0  0  0  0  0  0  0  0
   36.9400   27.3800   30.8430 C   0  0  0  0  0  0  0  0  0  0  0  0
   36.9050   28.7720   30.7760 N   0  0  0  0  0  0  0  0  0  0  0  0
   35.8530   26.6280   31.0590 N   0  0  0  0  0  0  0  0  0  0  0  0
   35.9110   25.2830   31.1180 C   0  0  0  0  0  0  0  0  0  0  0  0
   34.7910   24.7430   31.3300 O   0  0  0  0  0  0  0  0  0  0  0  0
   39.3630   27.3570   30.4470 N   0  0  0  0  0  0  0  0  0  0  0  0
   40.1910   27.2790   31.5250 C   0  0  0  0  0  0  0  0  0  0  0  0
   41.4350   27.8720   31.4580 C   0  0  0  0  0  0  0  0  0  0  0  0
   41.7300   28.5140   30.2520 C   0  0  0  0  0  0  0  0  0  0  0  0
   42.9810   29.1490   30.0930 N   0  0  0  0  0  0  0  0  0  0  0  0
   40.9080   28.5810   29.2040 N   0  0  0  0  0  0  0  0  0  0  0  0
   39.6960   27.9860   29.3100 C   0  0  0  0  0  0  0  0  0  0  0  0
   38.8140   27.9560   28.4260 O   0  0  0  0  0  0  0  0  0  0  0  0
   36.9950   23.1240   31.0520 C   0  0  0  0  0  0  0  0  0  0  0  0
   37.7810   22.6820   34.5360 C   0  0  0  0  0  0  0  0  0  0  0  0
   36.9990   21.5420   34.3060 C   0  0  0  0  0  0  0  0  0  0  0  0
   36.5970   21.5500   32.9710 C   0  0  0  0  0  0  0  0  0  0  0  0
   37.1470   22.6940   32.4310 N   0  0  0  0  0  0  0  0  0  0  0  0
   37.8390   23.3490   33.3570 N   0  0  0  0  0  0  0  0  0  0  0  0
   40.0350   22.6140   37.3980 C   0  0  0  0  0  0  0  0  0  0  0  0
   39.2420   23.1810   38.4280 C   0  0  0  0  0  0  0  0  0  0  0  0
   37.9310   23.5750   38.0990 C   0  0  0  0  0  0  0  0  0  0  0  0
   37.5100   23.3900   36.8240 N   0  0  0  0  0  0  0  0  0  0  0  0
   38.2920   22.8490   35.8700 C   0  0  0  0  0  0  0  0  0  0  0  0
   39.5440   22.4640   36.1470 N   0  0  0  0  0  0  0  0  0  0  0  0
   39.1229   24.7818   30.6171 H   0  0  0  0  0  0  0  0  0  0  0  0
   36.0122   29.2711   30.8972 H   0  0  0  0  0  0  0  0  0  0  0  0
   37.7719   29.3013   30.6053 H   0  0  0  0  0  0  0  0  0  0  0  0
   39.8728   26.7509   32.4360 H   0  0  0  0  0  0  0  0  0  0  0  0
   42.1462   27.8416   32.2966 H   0  0  0  0  0  0  0  0  0  0  0  0
   43.2082   29.6249   29.2082 H   0  0  0  0  0  0  0  0  0  0  0  0
   43.6664   29.1363   30.8618 H   0  0  0  0  0  0  0  0  0  0  0  0
   36.0268   22.7720   30.6664 H   0  0  0  0  0  0  0  0  0  0  0  0
   37.8146   22.7015   30.4523 H   0  0  0  0  0  0  0  0  0  0  0  0
   36.7459   20.7730   35.0507 H   0  0  0  0  0  0  0  0  0  0  0  0
   35.9738   20.8030   32.4576 H   0  0  0  0  0  0  0  0  0  0  0  0
   41.0632   22.2919   37.6197 H   0  0  0  0  0  0  0  0  0  0  0  0
   39.6368   23.3083   39.4468 H   0  0  0  0  0  0  0  0  0  0  0  0
   37.2675   24.0202   38.8550 H   0  0  0  0  0  0  0  0  0  0  0  0
  1 17  1  0
  1  7  1  0
  2  1  1  0
  3  2  2  0
  3  4  1  0
  4  6  2  0
  5  4  1  0
  6  7  1  0
  7  8  2  0
  9  3  1  0
  9 10  1  0
 11 10  2  0
 12 11  1  0
 13 12  1  0
 14 15  1  0
 14 12  2  0
 15  9  1  0
 16 15  2  0
 17 21  1  0
 18 27  1  0
 19 18  1  0
 20 19  2  0
 21 20  1  0
 21 22  1  0
 22 18  2  0
 23 24  2  0
 25 24  1  0
 26 25  2  0
 27 28  2  0
 27 26  1  0
 28 23  1  0
  2 29  1  0
  5 30  1  0
  5 31  1  0
 10 32  1  0
 11 33  1  0
 13 34  1  0
 13 35  1  0
 17 36  1  0
 17 37  1  0
 19 38  1  0
 20 39  1  0
 23 40  1  0
 24 41  1  0
 25 42  1  0
M  ISO  8  29  14  32  14  33  14  36   8  37   8  38  14  39  14  40  14
M  ISO  2  41  14  42  14
M  END
>  <minimizedAffinity>  (1) 
-5.56883192

>  <minimizedRMSD>  (1) 
1.0886867

$$$$
