
     RDKit          3D

 39 42  0  0  0  0  0  0  0  0999 V2000
   37.3970   23.0350   31.1750 C   0  0  0  0  0  0  0  0  0  0  0  0
   37.1530   24.4570   31.0300 N   0  0  0  0  0  0  0  0  0  0  0  0
   38.0920   25.3590   30.7630 C   0  0  0  0  0  0  0  0  0  0  0  0
   37.8330   26.7070   30.6330 C   0  0  0  0  0  0  0  0  0  0  0  0
   36.5560   27.1750   30.7780 C   0  0  0  0  0  0  0  0  0  0  0  0
   36.2100   28.5240   30.6490 N   0  0  0  0  0  0  0  0  0  0  0  0
   35.6040   26.2460   31.0510 N   0  0  0  0  0  0  0  0  0  0  0  0
   35.9110   24.9410   31.1690 C   0  0  0  0  0  0  0  0  0  0  0  0
   34.9200   24.2100   31.4230 O   0  0  0  0  0  0  0  0  0  0  0  0
   39.0000   27.5230   30.3420 C   0  0  0  0  0  0  0  0  0  0  0  0
   40.2820   27.3600   30.8010 C   0  0  0  0  0  0  0  0  0  0  0  0
   41.3600   28.1550   30.5010 C   0  0  0  0  0  0  0  0  0  0  0  0
   41.1870   29.2050   29.6820 N   0  0  0  0  0  0  0  0  0  0  0  0
   39.9480   29.4020   29.2080 C   0  0  0  0  0  0  0  0  0  0  0  0
   38.9350   28.5930   29.5350 N   0  0  0  0  0  0  0  0  0  0  0  0
   37.8960   22.7280   34.7140 C   0  0  0  0  0  0  0  0  0  0  0  0
   37.0740   21.6180   34.4910 C   0  0  0  0  0  0  0  0  0  0  0  0
   36.7730   21.5810   33.1320 C   0  0  0  0  0  0  0  0  0  0  0  0
   37.4210   22.6670   32.5770 N   0  0  0  0  0  0  0  0  0  0  0  0
   38.0740   23.3270   33.5200 N   0  0  0  0  0  0  0  0  0  0  0  0
   39.9550   22.7200   37.7370 C   0  0  0  0  0  0  0  0  0  0  0  0
   39.0990   23.3800   38.6740 C   0  0  0  0  0  0  0  0  0  0  0  0
   37.8490   23.8060   38.2440 C   0  0  0  0  0  0  0  0  0  0  0  0
   37.4970   23.5730   36.9470 N   0  0  0  0  0  0  0  0  0  0  0  0
   38.3230   22.9460   36.0770 C   0  0  0  0  0  0  0  0  0  0  0  0
   39.5300   22.5280   36.4690 N   0  0  0  0  0  0  0  0  0  0  0  0
   38.3658   22.7850   30.7180 H   0  0  0  0  0  0  0  0  0  0  0  0
   36.5890   22.4813   30.6744 H   0  0  0  0  0  0  0  0  0  0  0  0
   39.1286   25.0124   30.6394 H   0  0  0  0  0  0  0  0  0  0  0  0
   35.2302   28.8181   30.7692 H   0  0  0  0  0  0  0  0  0  0  0  0
   36.9350   29.2233   30.4338 H   0  0  0  0  0  0  0  0  0  0  0  0
   40.4640   26.5098   31.4748 H   0  0  0  0  0  0  0  0  0  0  0  0
   42.3509   27.9352   30.9252 H   0  0  0  0  0  0  0  0  0  0  0  0
   39.7605   30.2503   28.5333 H   0  0  0  0  0  0  0  0  0  0  0  0
   36.7279   20.9033   35.2522 H   0  0  0  0  0  0  0  0  0  0  0  0
   36.1491   20.8410   32.6094 H   0  0  0  0  0  0  0  0  0  0  0  0
   40.9514   22.3716   38.0464 H   0  0  0  0  0  0  0  0  0  0  0  0
   39.4235   23.5464   39.7118 H   0  0  0  0  0  0  0  0  0  0  0  0
   37.1603   24.3183   38.9320 H   0  0  0  0  0  0  0  0  0  0  0  0
  1 19  1  0
  2  8  1  0
  2  1  1  0
  3  2  1  0
  4  3  2  0
  4  5  1  0
  5  7  2  0
  6  5  1  0
  7  8  1  0
  8  9  2  0
 10  4  1  0
 10 11  2  0
 12 11  1  0
 13 12  2  0
 14 15  2  0
 14 13  1  0
 15 10  1  0
 16 25  1  0
 17 16  1  0
 18 17  2  0
 19 18  1  0
 19 20  1  0
 20 16  2  0
 21 22  2  0
 23 22  1  0
 24 23  2  0
 25 26  2  0
 25 24  1  0
 26 21  1  0
  1 27  1  0
  1 28  1  0
  3 29  1  0
  6 30  1  0
  6 31  1  0
 11 32  1  0
 12 33  1  0
 14 34  1  0
 17 35  1  0
 18 36  1  0
 21 37  1  0
 22 38  1  0
 23 39  1  0
M  ISO  8  27   8  28   8  29  14  32  14  33  14  34  14  35  14  36  14
M  ISO  3  37  14  38  14  39  14
M  END
>  <minimizedAffinity>  (1) 
-5.58471394

>  <minimizedRMSD>  (1) 
0.271106929

$$$$
