
     RDKit          3D

 41 44  0  0  0  0  0  0  0  0999 V2000
   37.0900   24.5880   31.0320 N   0  0  0  0  0  0  0  0  0  0  0  0
   38.2040   25.3020   30.8600 C   0  0  0  0  0  0  0  0  0  0  0  0
   38.1900   26.6880   30.7810 C   0  0  0  0  0  0  0  0  0  0  0  0
   37.0130   27.3820   30.8770 C   0  0  0  0  0  0  0  0  0  0  0  0
   36.9610   28.7790   30.8030 N   0  0  0  0  0  0  0  0  0  0  0  0
   35.8960   26.6300   31.0520 N   0  0  0  0  0  0  0  0  0  0  0  0
   35.9540   25.2950   31.1230 C   0  0  0  0  0  0  0  0  0  0  0  0
   34.8270   24.7620   31.2860 O   0  0  0  0  0  0  0  0  0  0  0  0
   39.4640   27.3720   30.5920 C   0  0  0  0  0  0  0  0  0  0  0  0
   39.8010   28.1410   29.4760 C   0  0  0  0  0  0  0  0  0  0  0  0
   41.0310   28.7550   29.3780 C   0  0  0  0  0  0  0  0  0  0  0  0
   41.9780   28.6360   30.3760 C   0  0  0  0  0  0  0  0  0  0  0  0
   41.6360   27.8670   31.4860 C   0  0  0  0  0  0  0  0  0  0  0  0
   40.4120   27.2480   31.5980 C   0  0  0  0  0  0  0  0  0  0  0  0
   37.0230   23.1410   31.1240 C   0  0  0  0  0  0  0  0  0  0  0  0
   37.7870   22.7040   34.6030 C   0  0  0  0  0  0  0  0  0  0  0  0
   37.0180   21.5610   34.3610 C   0  0  0  0  0  0  0  0  0  0  0  0
   36.6230   21.5580   33.0320 C   0  0  0  0  0  0  0  0  0  0  0  0
   37.1690   22.7150   32.4910 N   0  0  0  0  0  0  0  0  0  0  0  0
   37.8480   23.3670   33.4430 N   0  0  0  0  0  0  0  0  0  0  0  0
   40.0210   22.6260   37.4860 C   0  0  0  0  0  0  0  0  0  0  0  0
   39.2080   23.2140   38.5070 C   0  0  0  0  0  0  0  0  0  0  0  0
   37.9150   23.6180   38.1640 C   0  0  0  0  0  0  0  0  0  0  0  0
   37.5020   23.4300   36.8830 N   0  0  0  0  0  0  0  0  0  0  0  0
   38.2890   22.8740   35.9440 C   0  0  0  0  0  0  0  0  0  0  0  0
   39.5140   22.4860   36.2490 N   0  0  0  0  0  0  0  0  0  0  0  0
   39.1659   24.7747   30.7780 H   0  0  0  0  0  0  0  0  0  0  0  0
   36.0563   29.2655   30.8795 H   0  0  0  0  0  0  0  0  0  0  0  0
   37.8274   29.3204   30.6721 H   0  0  0  0  0  0  0  0  0  0  0  0
   39.0719   28.2587   28.6608 H   0  0  0  0  0  0  0  0  0  0  0  0
   41.2636   29.3533   28.4847 H   0  0  0  0  0  0  0  0  0  0  0  0
   42.9593   29.1269   30.2979 H   0  0  0  0  0  0  0  0  0  0  0  0
   42.3677   27.7508   32.2991 H   0  0  0  0  0  0  0  0  0  0  0  0
   40.1831   26.6499   32.4924 H   0  0  0  0  0  0  0  0  0  0  0  0
   36.0507   22.7986   30.7401 H   0  0  0  0  0  0  0  0  0  0  0  0
   37.8400   22.7086   30.5277 H   0  0  0  0  0  0  0  0  0  0  0  0
   36.7674   20.7898   35.1043 H   0  0  0  0  0  0  0  0  0  0  0  0
   36.0102   20.8031   32.5176 H   0  0  0  0  0  0  0  0  0  0  0  0
   41.0453   22.2937   37.7104 H   0  0  0  0  0  0  0  0  0  0  0  0
   39.5895   23.3439   39.5305 H   0  0  0  0  0  0  0  0  0  0  0  0
   37.2495   24.0758   38.9107 H   0  0  0  0  0  0  0  0  0  0  0  0
  1  7  1  0
  1 15  1  0
  2  1  1  0
  3  2  2  0
  3  4  1  0
  4  6  2  0
  5  4  1  0
  6  7  1  0
  7  8  2  0
  9  3  1  0
  9 14  1  0
 10  9  2  0
 11 10  1  0
 11 12  2  0
 12 13  1  0
 13 14  2  0
 15 19  1  0
 16 25  1  0
 17 16  1  0
 18 17  2  0
 19 18  1  0
 19 20  1  0
 20 16  2  0
 21 22  2  0
 23 22  1  0
 24 23  2  0
 25 26  2  0
 25 24  1  0
 26 21  1  0
  2 27  1  0
  5 28  1  0
  5 29  1  0
 10 30  1  0
 11 31  1  0
 12 32  1  0
 13 33  1  0
 14 34  1  0
 15 35  1  0
 15 36  1  0
 17 37  1  0
 18 38  1  0
 21 39  1  0
 22 40  1  0
 23 41  1  0
M  ISO  8  27  14  30  14  31  14  32  14  33  14  34  14  35   8  36   8
M  ISO  5  37  14  38  14  39  14  40  14  41  14
M  END
>  <minimizedAffinity>  (1) 
-5.6194067

>  <minimizedRMSD>  (1) 
0.692762852

$$$$
