
     RDKit          3D

 37 40  0  0  0  0  0  0  0  0999 V2000
   37.3020   23.0280   31.1450 C   0  0  0  0  0  0  0  0  0  0  0  0
   37.1650   24.4570   31.0240 N   0  0  0  0  0  0  0  0  0  0  0  0
   38.1860   25.2900   30.7370 C   0  0  0  0  0  0  0  0  0  0  0  0
   38.0390   26.6640   30.6230 C   0  0  0  0  0  0  0  0  0  0  0  0
   36.7810   27.2230   30.8110 C   0  0  0  0  0  0  0  0  0  0  0  0
   36.5850   28.6170   30.7040 N   0  0  0  0  0  0  0  0  0  0  0  0
   35.7830   26.3790   31.0940 N   0  0  0  0  0  0  0  0  0  0  0  0
   35.9890   25.0530   31.1920 C   0  0  0  0  0  0  0  0  0  0  0  0
   34.9430   24.4050   31.4630 O   0  0  0  0  0  0  0  0  0  0  0  0
   39.2070   27.5110   30.3070 C   0  0  0  0  0  0  0  0  0  0  0  0
   40.4620   27.2670   30.8800 C   0  0  0  0  0  0  0  0  0  0  0  0
   41.5260   28.5860   30.1580 S   0  0  0  0  0  0  0  0  0  0  0  0
   40.0450   29.2570   29.1790 C   0  0  0  0  0  0  0  0  0  0  0  0
   39.2420   28.5450   29.4990 N   0  0  0  0  0  0  0  0  0  0  0  0
   37.8780   22.6920   34.6710 C   0  0  0  0  0  0  0  0  0  0  0  0
   37.0590   21.5790   34.4500 C   0  0  0  0  0  0  0  0  0  0  0  0
   36.7290   21.5480   33.0990 C   0  0  0  0  0  0  0  0  0  0  0  0
   37.3590   22.6470   32.5390 N   0  0  0  0  0  0  0  0  0  0  0  0
   38.0330   23.3110   33.4840 N   0  0  0  0  0  0  0  0  0  0  0  0
   39.9750   22.6740   37.6560 C   0  0  0  0  0  0  0  0  0  0  0  0
   39.1470   23.3060   38.6150 C   0  0  0  0  0  0  0  0  0  0  0  0
   37.8850   23.7200   38.2020 C   0  0  0  0  0  0  0  0  0  0  0  0
   37.5080   23.5060   36.9160 N   0  0  0  0  0  0  0  0  0  0  0  0
   38.3280   22.8960   36.0240 C   0  0  0  0  0  0  0  0  0  0  0  0
   39.5380   22.4920   36.3990 N   0  0  0  0  0  0  0  0  0  0  0  0
   38.2270   22.7080   30.6430 H   0  0  0  0  0  0  0  0  0  0  0  0
   36.4328   22.5436   30.6762 H   0  0  0  0  0  0  0  0  0  0  0  0
   39.1860   24.8575   30.5857 H   0  0  0  0  0  0  0  0  0  0  0  0
   35.6467   29.0175   30.8459 H   0  0  0  0  0  0  0  0  0  0  0  0
   37.3803   29.2335   30.4840 H   0  0  0  0  0  0  0  0  0  0  0  0
   40.7445   26.4767   31.5911 H   0  0  0  0  0  0  0  0  0  0  0  0
   39.9904   30.1106   28.4874 H   0  0  0  0  0  0  0  0  0  0  0  0
   36.7331   20.8552   35.2115 H   0  0  0  0  0  0  0  0  0  0  0  0
   36.1002   20.8068   32.5840 H   0  0  0  0  0  0  0  0  0  0  0  0
   40.9803   22.3306   37.9415 H   0  0  0  0  0  0  0  0  0  0  0  0
   39.4891   23.4638   39.6485 H   0  0  0  0  0  0  0  0  0  0  0  0
   37.2017   24.2142   38.9083 H   0  0  0  0  0  0  0  0  0  0  0  0
  1 18  1  0
  2  1  1  0
  2  8  1  0
  3  2  1  0
  4  3  2  0
  4  5  1  0
  5  7  2  0
  6  5  1  0
  7  8  1  0
  8  9  2  0
 10  4  1  0
 10 11  2  0
 12 11  1  0
 13 14  2  0
 13 12  1  0
 14 10  1  0
 15 24  1  0
 16 15  1  0
 17 16  2  0
 18 17  1  0
 18 19  1  0
 19 15  2  0
 20 21  2  0
 22 21  1  0
 23 22  2  0
 24 25  2  0
 24 23  1  0
 25 20  1  0
  1 26  1  0
  1 27  1  0
  3 28  1  0
  6 29  1  0
  6 30  1  0
 11 31  1  0
 13 32  1  0
 16 33  1  0
 17 34  1  0
 20 35  1  0
 21 36  1  0
 22 37  1  0
M  ISO  8  26   8  27   8  28  14  31  14  32  14  33  14  34  14  35  14
M  ISO  2  36  14  37  14
M  END
>  <minimizedAffinity>  (1) 
-5.32399273

>  <minimizedRMSD>  (1) 
0.412863106

$$$$
