
     RDKit          3D

 38 41  0  0  0  0  0  0  0  0999 V2000
   37.0350   22.6980   31.2540 C   0  0  0  0  0  0  0  0  0  0  0  0
   37.0240   24.1410   31.0620 N   0  0  0  0  0  0  0  0  0  0  0  0
   38.1090   24.8670   30.7400 C   0  0  0  0  0  0  0  0  0  0  0  0
   38.0490   26.2280   30.5690 C   0  0  0  0  0  0  0  0  0  0  0  0
   36.8770   26.9150   30.7180 C   0  0  0  0  0  0  0  0  0  0  0  0
   36.7480   28.3060   30.5570 N   0  0  0  0  0  0  0  0  0  0  0  0
   35.8010   26.1610   31.0420 N   0  0  0  0  0  0  0  0  0  0  0  0
   35.8810   24.8330   31.2050 C   0  0  0  0  0  0  0  0  0  0  0  0
   34.8010   24.2780   31.5020 O   0  0  0  0  0  0  0  0  0  0  0  0
   39.2600   27.0200   30.2130 C   0  0  0  0  0  0  0  0  0  0  0  0
   40.2300   27.4080   31.1220 C   0  0  0  0  0  0  0  0  0  0  0  0
   41.2830   28.1300   30.6590 C   0  0  0  0  0  0  0  0  0  0  0  0
   41.2990   28.4280   29.2660 C   0  0  0  0  0  0  0  0  0  0  0  0
   39.6920   27.5950   28.6890 S   0  0  0  0  0  0  0  0  0  0  0  0
   37.7360   22.5070   34.7690 C   0  0  0  0  0  0  0  0  0  0  0  0
   36.9040   21.4000   34.6150 C   0  0  0  0  0  0  0  0  0  0  0  0
   36.5260   21.3170   33.2840 C   0  0  0  0  0  0  0  0  0  0  0  0
   37.1450   22.3850   32.6580 N   0  0  0  0  0  0  0  0  0  0  0  0
   37.8510   23.0740   33.5420 N   0  0  0  0  0  0  0  0  0  0  0  0
   39.9910   22.6420   37.6340 C   0  0  0  0  0  0  0  0  0  0  0  0
   39.1890   23.2700   38.6200 C   0  0  0  0  0  0  0  0  0  0  0  0
   37.8840   23.6320   38.2670 C   0  0  0  0  0  0  0  0  0  0  0  0
   37.4570   23.3640   37.0050 N   0  0  0  0  0  0  0  0  0  0  0  0
   38.2410   22.7700   36.0980 C   0  0  0  0  0  0  0  0  0  0  0  0
   39.4810   22.4190   36.4140 N   0  0  0  0  0  0  0  0  0  0  0  0
   37.8923   22.2661   30.7168 H   0  0  0  0  0  0  0  0  0  0  0  0
   36.0972   22.2759   30.8637 H   0  0  0  0  0  0  0  0  0  0  0  0
   39.0739   24.3551   30.6096 H   0  0  0  0  0  0  0  0  0  0  0  0
   35.8306   28.7564   30.6854 H   0  0  0  0  0  0  0  0  0  0  0  0
   37.5709   28.8744   30.3107 H   0  0  0  0  0  0  0  0  0  0  0  0
   40.1501   27.1398   32.1858 H   0  0  0  0  0  0  0  0  0  0  0  0
   42.0868   28.4692   31.3290 H   0  0  0  0  0  0  0  0  0  0  0  0
   42.0424   28.9897   28.6813 H   0  0  0  0  0  0  0  0  0  0  0  0
   36.5988   20.7088   35.4145 H   0  0  0  0  0  0  0  0  0  0  0  0
   35.8723   20.5620   32.8228 H   0  0  0  0  0  0  0  0  0  0  0  0
   41.0227   22.3403   37.8677 H   0  0  0  0  0  0  0  0  0  0  0  0
   39.5796   23.4663   39.6294 H   0  0  0  0  0  0  0  0  0  0  0  0
   37.2196   24.1219   38.9940 H   0  0  0  0  0  0  0  0  0  0  0  0
  1 18  1  0
  2  8  1  0
  2  1  1  0
  3  2  1  0
  4  5  1  0
  4  3  2  0
  5  7  2  0
  6  5  1  0
  7  8  1  0
  8  9  2  0
 10  4  1  0
 10 11  2  0
 12 11  1  0
 13 12  2  0
 14 13  1  0
 14 10  1  0
 15 24  1  0
 16 15  1  0
 17 16  2  0
 18 17  1  0
 18 19  1  0
 19 15  2  0
 20 21  2  0
 22 21  1  0
 23 22  2  0
 24 25  2  0
 24 23  1  0
 25 20  1  0
  1 26  1  0
  1 27  1  0
  3 28  1  0
  6 29  1  0
  6 30  1  0
 11 31  1  0
 12 32  1  0
 13 33  1  0
 16 34  1  0
 17 35  1  0
 20 36  1  0
 21 37  1  0
 22 38  1  0
M  ISO  8  26   8  27   8  28  14  31  14  32  14  33  14  34  14  35  14
M  ISO  3  36  14  37  14  38  14
M  END
>  <minimizedAffinity>  (1) 
-5.25585032

>  <minimizedRMSD>  (1) 
0.853843272

$$$$
