
     RDKit          3D

 33 35  0  0  0  0  0  0  0  0999 V2000
   37.5330   23.2170   31.1430 C   0  0  0  0  0  0  0  0  0  0  0  0
   37.2200   24.6370   31.0240 N   0  0  0  0  0  0  0  0  0  0  0  0
   38.1340   25.6120   30.8270 C   0  0  0  0  0  0  0  0  0  0  0  0
   37.7610   26.9300   30.7250 C   0  0  0  0  0  0  0  0  0  0  0  0
   36.4530   27.3250   30.8180 C   0  0  0  0  0  0  0  0  0  0  0  0
   36.0560   28.6650   30.7160 N   0  0  0  0  0  0  0  0  0  0  0  0
   35.5660   26.3170   31.0160 N   0  0  0  0  0  0  0  0  0  0  0  0
   35.9510   25.0370   31.1120 C   0  0  0  0  0  0  0  0  0  0  0  0
   34.9870   24.2430   31.2950 O   0  0  0  0  0  0  0  0  0  0  0  0
   38.7640   27.9690   30.5120 C   0  0  0  0  0  0  0  0  0  0  0  0
   39.9720   27.7050   30.8250 O   0  0  0  0  0  0  0  0  0  0  0  0
   37.9720   22.8460   34.6850 C   0  0  0  0  0  0  0  0  0  0  0  0
   37.1930   21.7110   34.4010 C   0  0  0  0  0  0  0  0  0  0  0  0
   36.9240   21.6970   33.0410 C   0  0  0  0  0  0  0  0  0  0  0  0
   37.5460   22.8220   32.5330 N   0  0  0  0  0  0  0  0  0  0  0  0
   38.1620   23.4920   33.5130 N   0  0  0  0  0  0  0  0  0  0  0  0
   39.9060   22.7240   37.7730 C   0  0  0  0  0  0  0  0  0  0  0  0
   39.0630   23.4080   38.6840 C   0  0  0  0  0  0  0  0  0  0  0  0
   37.8330   23.8980   38.2020 C   0  0  0  0  0  0  0  0  0  0  0  0
   37.5260   23.6920   36.9010 N   0  0  0  0  0  0  0  0  0  0  0  0
   38.3540   23.0350   36.0590 C   0  0  0  0  0  0  0  0  0  0  0  0
   39.5260   22.5590   36.4910 N   0  0  0  0  0  0  0  0  0  0  0  0
   38.5222   23.0251   30.7018 H   0  0  0  0  0  0  0  0  0  0  0  0
   36.7649   22.6352   30.6124 H   0  0  0  0  0  0  0  0  0  0  0  0
   39.1981   25.3451   30.7467 H   0  0  0  0  0  0  0  0  0  0  0  0
   35.0595   28.9141   30.7924 H   0  0  0  0  0  0  0  0  0  0  0  0
   36.7607   29.4008   30.5646 H   0  0  0  0  0  0  0  0  0  0  0  0
   38.4869   28.9484   30.0949 H   0  0  0  0  0  0  0  0  0  0  0  0
   36.8548   20.9622   35.1324 H   0  0  0  0  0  0  0  0  0  0  0  0
   36.3397   20.9494   32.4845 H   0  0  0  0  0  0  0  0  0  0  0  0
   40.8735   22.3266   38.1136 H   0  0  0  0  0  0  0  0  0  0  0  0
   39.3594   23.5517   39.7335 H   0  0  0  0  0  0  0  0  0  0  0  0
   37.1401   24.4344   38.8669 H   0  0  0  0  0  0  0  0  0  0  0  0
  1 15  1  0
  2  8  1  0
  2  1  1  0
  3  2  1  0
  4  5  1  0
  4  3  2  0
  5  7  2  0
  6  5  1  0
  7  8  1  0
  8  9  2  0
 10  4  1  0
 10 11  2  0
 12 21  1  0
 13 12  1  0
 14 13  2  0
 15 14  1  0
 15 16  1  0
 16 12  2  0
 17 18  2  0
 19 18  1  0
 20 19  2  0
 21 22  2  0
 21 20  1  0
 22 17  1  0
  1 23  1  0
  1 24  1  0
  3 25  1  0
  6 26  1  0
  6 27  1  0
 10 28  1  0
 13 29  1  0
 14 30  1  0
 17 31  1  0
 18 32  1  0
 19 33  1  0
M  ISO  8  23   8  24   8  25  14  28   6  29  14  30  14  31  14  32  14
M  ISO  1  33  14
M  END
>  <minimizedAffinity>  (1) 
-5.10846233

>  <minimizedRMSD>  (1) 
0.0378224291

$$$$
