
     RDKit          3D

 32 34  0  0  0  0  0  0  0  0999 V2000
   37.9690   22.8420   34.6710 C   0  0  0  0  0  0  0  0  0  0  0  0
   37.1960   21.7170   34.3910 C   0  0  0  0  0  0  0  0  0  0  0  0
   36.9240   21.6970   33.0290 C   0  0  0  0  0  0  0  0  0  0  0  0
   37.5500   22.8230   32.5240 N   0  0  0  0  0  0  0  0  0  0  0  0
   38.1610   23.4860   33.5110 N   0  0  0  0  0  0  0  0  0  0  0  0
   39.8960   22.7230   37.7660 C   0  0  0  0  0  0  0  0  0  0  0  0
   39.0580   23.4040   38.6830 C   0  0  0  0  0  0  0  0  0  0  0  0
   37.8300   23.8920   38.1950 C   0  0  0  0  0  0  0  0  0  0  0  0
   37.5270   23.6830   36.8920 N   0  0  0  0  0  0  0  0  0  0  0  0
   38.3510   23.0300   36.0490 C   0  0  0  0  0  0  0  0  0  0  0  0
   39.5190   22.5580   36.4880 N   0  0  0  0  0  0  0  0  0  0  0  0
   37.5460   23.2290   31.1290 C   0  0  0  0  0  0  0  0  0  0  0  0
   37.2400   24.6400   31.0150 N   0  0  0  0  0  0  0  0  0  0  0  0
   38.1450   25.6170   30.8480 C   0  0  0  0  0  0  0  0  0  0  0  0
   37.8040   26.9430   30.7440 C   0  0  0  0  0  0  0  0  0  0  0  0
   36.4770   27.3320   30.8110 C   0  0  0  0  0  0  0  0  0  0  0  0
   36.0610   28.6730   30.7120 N   0  0  0  0  0  0  0  0  0  0  0  0
   35.5860   26.3390   30.9780 N   0  0  0  0  0  0  0  0  0  0  0  0
   35.9620   25.0480   31.0750 C   0  0  0  0  0  0  0  0  0  0  0  0
   35.0000   24.2470   31.2300 O   0  0  0  0  0  0  0  0  0  0  0  0
   38.7940   27.9030   30.5730 O   0  0  0  0  0  0  0  0  0  0  0  0
   36.8581   20.9705   35.1249 H   0  0  0  0  0  0  0  0  0  0  0  0
   36.3389   20.9495   32.4733 H   0  0  0  0  0  0  0  0  0  0  0  0
   40.8644   22.3258   38.1041 H   0  0  0  0  0  0  0  0  0  0  0  0
   39.3541   23.5459   39.7329 H   0  0  0  0  0  0  0  0  0  0  0  0
   37.1344   24.4296   38.8562 H   0  0  0  0  0  0  0  0  0  0  0  0
   38.5373   23.0366   30.6926 H   0  0  0  0  0  0  0  0  0  0  0  0
   36.7784   22.6527   30.5917 H   0  0  0  0  0  0  0  0  0  0  0  0
   39.2088   25.3428   30.7919 H   0  0  0  0  0  0  0  0  0  0  0  0
   35.0595   28.9070   30.7684 H   0  0  0  0  0  0  0  0  0  0  0  0
   36.7580   29.4203   30.5831 H   0  0  0  0  0  0  0  0  0  0  0  0
   39.7445   27.6306   30.5244 H   0  0  0  0  0  0  0  0  0  0  0  0
  1 10  1  0
  2  1  1  0
  3  2  2  0
  4  3  1  0
  4  5  1  0
  5  1  2  0
  6  7  2  0
  8  7  1  0
  9  8  2  0
 10 11  2  0
 10  9  1  0
 11  6  1  0
 12  4  1  0
 13 19  1  0
 13 12  1  0
 14 13  1  0
 15 16  1  0
 15 14  2  0
 16 18  2  0
 17 16  1  0
 18 19  1  0
 19 20  2  0
 21 15  1  0
  2 22  1  0
  3 23  1  0
  6 24  1  0
  7 25  1  0
  8 26  1  0
 12 27  1  0
 12 28  1  0
 14 29  1  0
 17 30  1  0
 17 31  1  0
 21 32  1  0
M  ISO  8  22  14  23  14  24  14  25  14  26  14  27   8  28   8  29  14
M  ISO  1  32   3
M  END
>  <minimizedAffinity>  (1) 
-5.18555593

>  <minimizedRMSD>  (1) 
0.0297608711

$$$$
