
     RDKit          3D

 17 17  0  0  0  0  0  0  0  0999 V2000
   39.5700   22.7740   37.5700 C   0  0  0  0  0  0  0  0  0  0  0  0
   38.7820   23.4320   38.5320 C   0  0  0  0  0  0  0  0  0  0  0  0
   37.9350   24.4460   38.0810 C   0  0  0  0  0  0  0  0  0  0  0  0
   37.9060   24.7520   36.7560 N   0  0  0  0  0  0  0  0  0  0  0  0
   38.6820   24.0930   35.8610 C   0  0  0  0  0  0  0  0  0  0  0  0
   39.5120   23.1030   36.2760 N   0  0  0  0  0  0  0  0  0  0  0  0
   40.4460   21.7340   37.9930 N   0  0  0  0  0  0  0  0  0  0  0  0
   41.7450   21.5080   37.4580 C   0  0  0  0  0  0  0  0  0  0  0  0
   42.2920   22.4950   36.8060 N   0  0  0  0  0  0  0  0  0  0  0  0
   42.3930   20.2510   37.6410 N   0  0  0  0  0  0  0  0  0  0  0  0
   43.2540   22.3110   36.4170 H   0  0  0  0  0  0  0  0  0  0  0  0
   38.8313   23.1586   39.5963 H   0  0  0  0  0  0  0  0  0  0  0  0
   37.2968   24.9926   38.7909 H   0  0  0  0  0  0  0  0  0  0  0  0
   38.6387   24.3616   34.7952 H   0  0  0  0  0  0  0  0  0  0  0  0
   40.1169   21.1023   38.7370 H   0  0  0  0  0  0  0  0  0  0  0  0
   43.3333   20.0947   37.2508 H   0  0  0  0  0  0  0  0  0  0  0  0
   41.9207   19.4993   38.1633 H   0  0  0  0  0  0  0  0  0  0  0  0
  1  7  1  0
  1  2  2  0
  3  2  1  0
  4  3  2  0
  5  6  2  0
  5  4  1  0
  6  1  1  0
  8 10  1  0
  8  7  1  0
  9  8  2  0
 11  9  1  0
  2 12  1  0
  3 13  1  0
  5 14  1  0
  7 15  1  0
 10 16  1  0
 10 17  1  0
M  ISO  3  12  14  13  14  14  14
M  END
>  <minimizedAffinity>  (1) 
-4.0838294

>  <minimizedRMSD>  (1) 
1.35517514

$$$$
