
     RDKit          3D

 33 35  0  0  0  0  0  0  0  0999 V2000
   37.5400   23.2100   31.1260 C   0  0  0  0  0  0  0  0  0  0  0  0
   37.2430   24.6270   31.0090 N   0  0  0  0  0  0  0  0  0  0  0  0
   38.1540   25.6070   30.8390 C   0  0  0  0  0  0  0  0  0  0  0  0
   37.7890   26.9330   30.7380 C   0  0  0  0  0  0  0  0  0  0  0  0
   36.4660   27.3170   30.8060 C   0  0  0  0  0  0  0  0  0  0  0  0
   36.0700   28.6620   30.7050 N   0  0  0  0  0  0  0  0  0  0  0  0
   35.5700   26.3160   30.9760 N   0  0  0  0  0  0  0  0  0  0  0  0
   35.9620   25.0340   31.0710 C   0  0  0  0  0  0  0  0  0  0  0  0
   35.0030   24.2370   31.2270 O   0  0  0  0  0  0  0  0  0  0  0  0
   38.7860   27.9320   30.5580 N   0  0  0  0  0  0  0  0  0  0  0  0
   37.9800   22.8440   34.6760 C   0  0  0  0  0  0  0  0  0  0  0  0
   37.2070   21.7240   34.3870 C   0  0  0  0  0  0  0  0  0  0  0  0
   36.9340   21.7000   33.0290 C   0  0  0  0  0  0  0  0  0  0  0  0
   37.5530   22.8160   32.5200 N   0  0  0  0  0  0  0  0  0  0  0  0
   38.1660   23.4810   33.5050 N   0  0  0  0  0  0  0  0  0  0  0  0
   39.8960   22.7250   37.7710 C   0  0  0  0  0  0  0  0  0  0  0  0
   39.0580   23.4020   38.6870 C   0  0  0  0  0  0  0  0  0  0  0  0
   37.8370   23.8850   38.1950 C   0  0  0  0  0  0  0  0  0  0  0  0
   37.5210   23.6850   36.8880 N   0  0  0  0  0  0  0  0  0  0  0  0
   38.3610   23.0300   36.0490 C   0  0  0  0  0  0  0  0  0  0  0  0
   39.5190   22.5640   36.4930 N   0  0  0  0  0  0  0  0  0  0  0  0
   38.5256   23.0073   30.6817 H   0  0  0  0  0  0  0  0  0  0  0  0
   36.7650   22.6356   30.5974 H   0  0  0  0  0  0  0  0  0  0  0  0
   39.2196   25.3407   30.7792 H   0  0  0  0  0  0  0  0  0  0  0  0
   35.0720   28.9106   30.7604 H   0  0  0  0  0  0  0  0  0  0  0  0
   36.7779   29.3989   30.5756 H   0  0  0  0  0  0  0  0  0  0  0  0
   39.7793   27.6646   30.5049 H   0  0  0  0  0  0  0  0  0  0  0  0
   38.5145   28.9226   30.4808 H   0  0  0  0  0  0  0  0  0  0  0  0
   36.8670   20.9771   35.1195 H   0  0  0  0  0  0  0  0  0  0  0  0
   36.3483   20.9497   32.4775 H   0  0  0  0  0  0  0  0  0  0  0  0
   40.8644   22.3272   38.1085 H   0  0  0  0  0  0  0  0  0  0  0  0
   39.3507   23.5433   39.7379 H   0  0  0  0  0  0  0  0  0  0  0  0
   37.1424   24.4199   38.8594 H   0  0  0  0  0  0  0  0  0  0  0  0
  1 14  1  0
  2  8  1  0
  2  1  1  0
  3  2  1  0
  4  5  1  0
  4  3  2  0
  5  7  2  0
  6  5  1  0
  7  8  1  0
  8  9  2  0
 10  4  1  0
 11 20  1  0
 12 11  1  0
 13 12  2  0
 14 13  1  0
 14 15  1  0
 15 11  2  0
 16 17  2  0
 18 17  1  0
 19 18  2  0
 20 21  2  0
 20 19  1  0
 21 16  1  0
  1 22  1  0
  1 23  1  0
  3 24  1  0
  6 25  1  0
  6 26  1  0
 10 27  1  0
 10 28  1  0
 12 29  1  0
 13 30  1  0
 16 31  1  0
 17 32  1  0
 18 33  1  0
M  ISO  8  22   8  23   8  24  14  29  14  30  14  31  14  32  14  33  14
M  END
>  <minimizedAffinity>  (1) 
-5.19501114

>  <minimizedRMSD>  (1) 
0.0290460773

$$$$
