
     RDKit          3D

 31 33  0  0  0  0  0  0  0  0999 V2000
   39.5150   22.7930   37.6790 C   0  0  0  0  0  0  0  0  0  0  0  0
   38.8710   23.4070   38.7800 C   0  0  0  0  0  0  0  0  0  0  0  0
   37.9780   24.4370   38.4990 C   0  0  0  0  0  0  0  0  0  0  0  0
   37.7580   24.8100   37.1990 N   0  0  0  0  0  0  0  0  0  0  0  0
   38.4010   24.1900   36.1910 C   0  0  0  0  0  0  0  0  0  0  0  0
   39.2710   23.1890   36.4320 N   0  0  0  0  0  0  0  0  0  0  0  0
   38.1540   24.6020   34.8140 C   0  0  0  0  0  0  0  0  0  0  0  0
   38.4020   23.8540   33.6820 C   0  0  0  0  0  0  0  0  0  0  0  0
   38.0340   24.5970   32.6000 N   0  0  0  0  0  0  0  0  0  0  0  0
   37.5630   25.7880   33.0200 C   0  0  0  0  0  0  0  0  0  0  0  0
   37.0770   26.8720   32.3570 C   0  0  0  0  0  0  0  0  0  0  0  0
   36.6430   28.0070   33.0220 C   0  0  0  0  0  0  0  0  0  0  0  0
   36.7010   28.0490   34.4110 C   0  0  0  0  0  0  0  0  0  0  0  0
   37.1980   26.9400   35.0680 C   0  0  0  0  0  0  0  0  0  0  0  0
   37.6310   25.8090   34.3980 C   0  0  0  0  0  0  0  0  0  0  0  0
   40.4350   21.7390   37.9200 N   0  0  0  0  0  0  0  0  0  0  0  0
   41.6840   21.5910   37.2510 C   0  0  0  0  0  0  0  0  0  0  0  0
   42.1550   22.6480   36.6310 N   0  0  0  0  0  0  0  0  0  0  0  0
   42.3640   20.3380   37.2740 N   0  0  0  0  0  0  0  0  0  0  0  0
   43.0580   22.5060   36.1200 H   0  0  0  0  0  0  0  0  0  0  0  0
   39.0678   23.0841   39.8129 H   0  0  0  0  0  0  0  0  0  0  0  0
   37.4510   24.9495   39.3173 H   0  0  0  0  0  0  0  0  0  0  0  0
   38.8223   22.8378   33.6568 H   0  0  0  0  0  0  0  0  0  0  0  0
   38.1046   24.2961   31.6175 H   0  0  0  0  0  0  0  0  0  0  0  0
   37.0271   26.8464   31.2584 H   0  0  0  0  0  0  0  0  0  0  0  0
   36.2559   28.8675   32.4565 H   0  0  0  0  0  0  0  0  0  0  0  0
   36.3626   28.9353   34.9676 H   0  0  0  0  0  0  0  0  0  0  0  0
   37.2517   26.9565   36.1666 H   0  0  0  0  0  0  0  0  0  0  0  0
   40.1823   21.0334   38.6265 H   0  0  0  0  0  0  0  0  0  0  0  0
   43.2669   20.2331   36.7897 H   0  0  0  0  0  0  0  0  0  0  0  0
   41.9523   19.5377   37.7750 H   0  0  0  0  0  0  0  0  0  0  0  0
  1 16  1  0
  1  2  2  0
  3  2  1  0
  4  3  2  0
  5  6  2  0
  5  4  1  0
  6  1  1  0
  7  5  1  0
  8  7  2  0
  9 10  1  0
  9  8  1  0
 10 15  2  0
 11 10  1  0
 11 12  2  0
 12 13  1  0
 13 14  2  0
 15  7  1  0
 15 14  1  0
 17 19  1  0
 17 16  1  0
 18 17  2  0
 20 18  1  0
  2 21  1  0
  3 22  1  0
  8 23  1  0
  9 24  1  0
 11 25  1  0
 12 26  1  0
 13 27  1  0
 14 28  1  0
 16 29  1  0
 19 30  1  0
 19 31  1  0
M  ISO  8  21  14  22  14  23  14  24   9  25  14  26  14  27  14  28  14
M  END
>  <minimizedAffinity>  (1) 
-6.12970304

>  <minimizedRMSD>  (1) 
0.627480149

$$$$
