
     RDKit          3D

 26 26  0  0  0  0  0  0  0  0999 V2000
   39.6150   25.1460   35.4010 C   0  0  0  0  0  0  0  0  0  0  0  0
   39.7250   23.7460   35.5430 C   0  0  0  0  0  0  0  0  0  0  0  0
   38.8730   23.0160   34.7410 C   0  0  0  0  0  0  0  0  0  0  0  0
   38.0190   23.6300   33.9040 N   0  0  0  0  0  0  0  0  0  0  0  0
   37.9330   24.9760   33.7860 C   0  0  0  0  0  0  0  0  0  0  0  0
   38.7500   25.7060   34.5550 N   0  0  0  0  0  0  0  0  0  0  0  0
   40.6540   23.1660   36.4410 N   0  0  0  0  0  0  0  0  0  0  0  0
   40.3110   22.3940   37.5680 C   0  0  0  0  0  0  0  0  0  0  0  0
   39.2790   22.8500   38.2560 N   0  0  0  0  0  0  0  0  0  0  0  0
   41.1240   21.2150   37.8210 N   0  0  0  0  0  0  0  0  0  0  0  0
   38.9550   22.3570   39.1010 H   0  0  0  0  0  0  0  0  0  0  0  0
   36.9950   25.6700   32.8650 C   0  0  0  0  0  0  0  0  0  0  0  0
   37.4900   27.0700   32.5280 C   0  0  0  0  0  0  0  0  0  0  0  0
   36.9230   24.9120   31.5340 C   0  0  0  0  0  0  0  0  0  0  0  0
   40.2634   25.7955   36.0074 H   0  0  0  0  0  0  0  0  0  0  0  0
   38.8925   21.9171   34.7869 H   0  0  0  0  0  0  0  0  0  0  0  0
   41.6554   23.3203   36.2561 H   0  0  0  0  0  0  0  0  0  0  0  0
   40.9195   20.6126   38.6310 H   0  0  0  0  0  0  0  0  0  0  0  0
   41.9043   20.9824   37.1901 H   0  0  0  0  0  0  0  0  0  0  0  0
   36.0186   25.7149   33.3695 H   0  0  0  0  0  0  0  0  0  0  0  0
   37.6857   27.6235   33.4582 H   0  0  0  0  0  0  0  0  0  0  0  0
   38.4177   26.9995   31.9412 H   0  0  0  0  0  0  0  0  0  0  0  0
   36.7242   27.5983   31.9412 H   0  0  0  0  0  0  0  0  0  0  0  0
   36.8207   23.8346   31.7307 H   0  0  0  0  0  0  0  0  0  0  0  0
   36.0542   25.2638   30.9582 H   0  0  0  0  0  0  0  0  0  0  0  0
   37.8425   25.0939   30.9582 H   0  0  0  0  0  0  0  0  0  0  0  0
  1  2  2  0
  2  7  1  0
  3  2  1  0
  4  3  2  0
  5  4  1  0
  5  6  2  0
  6  1  1  0
  7  8  1  0
  8 10  1  0
  8  9  2  0
  9 11  1  0
 12  5  1  0
 13 12  1  0
 14 12  1  0
  1 15  1  0
  3 16  1  0
  7 17  1  0
 10 18  1  0
 10 19  1  0
 12 20  1  0
 13 21  1  0
 13 22  1  0
 13 23  1  0
 14 24  1  0
 14 25  1  0
 14 26  1  0
M  ISO  8  15  14  16  14  20   8  21   8  22   8  23   8  24   8  25   8
M  ISO  1  26   8
M  END
>  <minimizedAffinity>  (1) 
-3.96771836

>  <minimizedRMSD>  (1) 
0.36244899

$$$$
