
     RDKit          3D

 28 29  0  0  0  0  0  0  0  0999 V2000
   39.5150   22.7070   37.6490 C   0  0  0  0  0  0  0  0  0  0  0  0
   38.8900   23.5200   38.5970 C   0  0  0  0  0  0  0  0  0  0  0  0
   37.9530   24.4710   38.1630 C   0  0  0  0  0  0  0  0  0  0  0  0
   37.6950   24.5540   36.8260 N   0  0  0  0  0  0  0  0  0  0  0  0
   38.3250   23.7440   35.9350 C   0  0  0  0  0  0  0  0  0  0  0  0
   39.2240   22.8360   36.3610 N   0  0  0  0  0  0  0  0  0  0  0  0
   37.9980   23.8980   34.5570 N   0  0  0  0  0  0  0  0  0  0  0  0
   37.7930   25.1540   34.0920 C   0  0  0  0  0  0  0  0  0  0  0  0
   37.4740   25.4770   32.8070 C   0  0  0  0  0  0  0  0  0  0  0  0
   37.3500   24.4290   31.9070 C   0  0  0  0  0  0  0  0  0  0  0  0
   37.0180   24.6740   30.5410 N   0  0  0  0  0  0  0  0  0  0  0  0
   37.5550   23.1860   32.3730 N   0  0  0  0  0  0  0  0  0  0  0  0
   37.8650   22.9210   33.6380 C   0  0  0  0  0  0  0  0  0  0  0  0
   38.0570   21.7410   34.0740 O   0  0  0  0  0  0  0  0  0  0  0  0
   40.4600   21.7520   38.0830 N   0  0  0  0  0  0  0  0  0  0  0  0
   41.6980   21.4910   37.4080 C   0  0  0  0  0  0  0  0  0  0  0  0
   42.1230   22.4080   36.5690 N   0  0  0  0  0  0  0  0  0  0  0  0
   42.4000   20.2720   37.6730 N   0  0  0  0  0  0  0  0  0  0  0  0
   43.0220   22.1690   36.0790 H   0  0  0  0  0  0  0  0  0  0  0  0
   39.1280   23.4169   39.6660 H   0  0  0  0  0  0  0  0  0  0  0  0
   37.4417   25.1301   38.8801 H   0  0  0  0  0  0  0  0  0  0  0  0
   37.8922   25.9809   34.8107 H   0  0  0  0  0  0  0  0  0  0  0  0
   37.3218   26.5216   32.4976 H   0  0  0  0  0  0  0  0  0  0  0  0
   36.8666   25.6385   30.2128 H   0  0  0  0  0  0  0  0  0  0  0  0
   36.9298   23.8863   29.8832 H   0  0  0  0  0  0  0  0  0  0  0  0
   40.2479   21.2115   38.9337 H   0  0  0  0  0  0  0  0  0  0  0  0
   43.2900   20.0755   37.1932 H   0  0  0  0  0  0  0  0  0  0  0  0
   42.0152   19.5914   38.3435 H   0  0  0  0  0  0  0  0  0  0  0  0
  1 15  1  0
  1  2  2  0
  3  2  1  0
  4  3  2  0
  5  6  2  0
  5  4  1  0
  6  1  1  0
  7  5  1  0
  8  7  1  0
  9  8  2  0
 10 12  2  0
 10  9  1  0
 11 10  1  0
 12 13  1  0
 13 14  2  0
 13  7  1  0
 16 18  1  0
 16 15  1  0
 17 16  2  0
 19 17  1  0
  2 20  1  0
  3 21  1  0
  8 22  1  0
  9 23  1  0
 11 24  1  0
 11 25  1  0
 15 26  1  0
 18 27  1  0
 18 28  1  0
M  ISO  4  20  14  21  14  22  14  23  14
M  END
>  <minimizedAffinity>  (1) 
-5.9189806

>  <minimizedRMSD>  (1) 
0.88543123

$$$$
