
     RDKit          3D

 32 33  0  0  0  0  0  0  0  0999 V2000
   39.5620   22.8740   37.5750 C   0  0  0  0  0  0  0  0  0  0  0  0
   38.7270   23.3420   38.6090 C   0  0  0  0  0  0  0  0  0  0  0  0
   37.9270   24.4430   38.3380 C   0  0  0  0  0  0  0  0  0  0  0  0
   37.9700   25.0240   37.1120 N   0  0  0  0  0  0  0  0  0  0  0  0
   38.7910   24.5380   36.1450 C   0  0  0  0  0  0  0  0  0  0  0  0
   39.5800   23.4730   36.3730 N   0  0  0  0  0  0  0  0  0  0  0  0
   38.8640   25.1190   34.8490 N   0  0  0  0  0  0  0  0  0  0  0  0
   39.9520   25.9320   34.4040 C   0  0  0  0  0  0  0  0  0  0  0  0
   39.6570   26.8160   33.2550 C   0  0  0  0  0  0  0  0  0  0  0  0
   38.2410   27.2260   33.0570 C   0  0  0  0  0  0  0  0  0  0  0  0
   37.2170   26.3400   33.6960 C   0  0  0  0  0  0  0  0  0  0  0  0
   37.8530   24.9610   33.8210 C   0  0  0  0  0  0  0  0  0  0  0  0
   40.3950   21.7500   37.8130 N   0  0  0  0  0  0  0  0  0  0  0  0
   41.7060   21.5910   37.2840 C   0  0  0  0  0  0  0  0  0  0  0  0
   42.2930   22.6640   36.8380 N   0  0  0  0  0  0  0  0  0  0  0  0
   42.3170   20.3030   37.2620 N   0  0  0  0  0  0  0  0  0  0  0  0
   43.2650   22.5300   36.4570 H   0  0  0  0  0  0  0  0  0  0  0  0
   38.7099   22.8529   39.5941 H   0  0  0  0  0  0  0  0  0  0  0  0
   37.2595   24.8440   39.1149 H   0  0  0  0  0  0  0  0  0  0  0  0
   40.2690   26.5648   35.2461 H   0  0  0  0  0  0  0  0  0  0  0  0
   40.7287   25.2345   34.0573 H   0  0  0  0  0  0  0  0  0  0  0  0
   40.2520   27.7325   33.3817 H   0  0  0  0  0  0  0  0  0  0  0  0
   39.9050   26.2171   32.3663 H   0  0  0  0  0  0  0  0  0  0  0  0
   38.1201   28.2375   33.4720 H   0  0  0  0  0  0  0  0  0  0  0  0
   38.0582   27.1657   31.9740 H   0  0  0  0  0  0  0  0  0  0  0  0
   36.9485   26.7259   34.6905 H   0  0  0  0  0  0  0  0  0  0  0  0
   36.2964   26.2997   33.0953 H   0  0  0  0  0  0  0  0  0  0  0  0
   37.1046   24.2137   34.1233 H   0  0  0  0  0  0  0  0  0  0  0  0
   38.2761   24.6078   32.8691 H   0  0  0  0  0  0  0  0  0  0  0  0
   40.0247   20.9970   38.4103 H   0  0  0  0  0  0  0  0  0  0  0  0
   43.2663   20.1898   36.8786 H   0  0  0  0  0  0  0  0  0  0  0  0
   41.8091   19.4857   37.6295 H   0  0  0  0  0  0  0  0  0  0  0  0
  1 13  1  0
  1  2  2  0
  3  2  1  0
  4  3  2  0
  5  6  2  0
  5  4  1  0
  6  1  1  0
  7  5  1  0
  8  7  1  0
  9  8  1  0
 10  9  1  0
 10 11  1  0
 11 12  1  0
 12  7  1  0
 14 13  1  0
 15 14  2  0
 16 14  1  0
 17 15  1  0
  2 18  1  0
  3 19  1  0
  8 20  1  0
  8 21  1  0
  9 22  1  0
  9 23  1  0
 10 24  1  0
 10 25  1  0
 11 26  1  0
 11 27  1  0
 12 28  1  0
 12 29  1  0
 13 30  1  0
 16 31  1  0
 16 32  1  0
M  ISO  8  18  14  19  14  20  13  21  13  22  13  23  13  24  13  25  13
M  ISO  4  26  13  27  13  28  13  29  13
M  END
>  <minimizedAffinity>  (1) 
-5.46342278

>  <minimizedRMSD>  (1) 
0.752249897

$$$$
