
     RDKit          3D

 33 35  0  0  0  0  0  0  0  0999 V2000
   39.5360   22.7300   37.7160 C   0  0  0  0  0  0  0  0  0  0  0  0
   38.8440   23.4490   38.6840 C   0  0  0  0  0  0  0  0  0  0  0  0
   37.9150   24.3770   38.2380 C   0  0  0  0  0  0  0  0  0  0  0  0
   37.7110   24.5530   36.9150 N   0  0  0  0  0  0  0  0  0  0  0  0
   38.4010   23.8380   35.9730 C   0  0  0  0  0  0  0  0  0  0  0  0
   39.2880   22.9550   36.4520 N   0  0  0  0  0  0  0  0  0  0  0  0
   38.0280   24.1860   34.6170 C   0  0  0  0  0  0  0  0  0  0  0  0
   38.0610   23.2630   33.5800 C   0  0  0  0  0  0  0  0  0  0  0  0
   37.7170   23.5500   32.2890 C   0  0  0  0  0  0  0  0  0  0  0  0
   37.3060   24.8120   31.9320 C   0  0  0  0  0  0  0  0  0  0  0  0
   37.2520   25.7730   32.9140 C   0  0  0  0  0  0  0  0  0  0  0  0
   36.8390   27.0240   32.5410 C   0  0  0  0  0  0  0  0  0  0  0  0
   36.7600   28.0300   33.4570 C   0  0  0  0  0  0  0  0  0  0  0  0
   37.1120   27.7150   34.7570 C   0  0  0  0  0  0  0  0  0  0  0  0
   37.5200   26.4510   35.0930 C   0  0  0  0  0  0  0  0  0  0  0  0
   37.6100   25.4220   34.1920 C   0  0  0  0  0  0  0  0  0  0  0  0
   40.4910   21.7480   38.0690 N   0  0  0  0  0  0  0  0  0  0  0  0
   41.7260   21.5100   37.4280 C   0  0  0  0  0  0  0  0  0  0  0  0
   42.1640   22.4570   36.6690 N   0  0  0  0  0  0  0  0  0  0  0  0
   42.4360   20.2860   37.6240 N   0  0  0  0  0  0  0  0  0  0  0  0
   43.0920   22.2920   36.1900 H   0  0  0  0  0  0  0  0  0  0  0  0
   39.0255   23.2888   39.7570 H   0  0  0  0  0  0  0  0  0  0  0  0
   37.3423   24.9718   38.9647 H   0  0  0  0  0  0  0  0  0  0  0  0
   38.3840   22.2374   33.8121 H   0  0  0  0  0  0  0  0  0  0  0  0
   37.7698   22.7602   31.5251 H   0  0  0  0  0  0  0  0  0  0  0  0
   37.0290   25.0459   30.8935 H   0  0  0  0  0  0  0  0  0  0  0  0
   36.5686   27.2188   31.4927 H   0  0  0  0  0  0  0  0  0  0  0  0
   36.4326   29.0420   33.1765 H   0  0  0  0  0  0  0  0  0  0  0  0
   37.0636   28.4922   35.5339 H   0  0  0  0  0  0  0  0  0  0  0  0
   37.7894   26.2515   36.1407 H   0  0  0  0  0  0  0  0  0  0  0  0
   40.2626   21.1469   38.8736 H   0  0  0  0  0  0  0  0  0  0  0  0
   43.3359   20.1306   37.1476 H   0  0  0  0  0  0  0  0  0  0  0  0
   42.0481   19.5588   38.2418 H   0  0  0  0  0  0  0  0  0  0  0  0
  1 17  1  0
  1  2  2  0
  3  2  1  0
  4  3  2  0
  5  6  2  0
  5  4  1  0
  6  1  1  0
  7  5  1  0
  8  7  2  0
  9  8  1  0
 10  9  2  0
 10 11  1  0
 11 16  2  0
 12 11  1  0
 12 13  2  0
 13 14  1  0
 14 15  2  0
 16  7  1  0
 16 15  1  0
 18 20  1  0
 18 17  1  0
 19 18  2  0
 21 19  1  0
  2 22  1  0
  3 23  1  0
  8 24  1  0
  9 25  1  0
 10 26  1  0
 12 27  1  0
 13 28  1  0
 14 29  1  0
 15 30  1  0
 17 31  1  0
 20 32  1  0
 20 33  1  0
M  ISO  8  22  14  23  14  24  14  25  14  26  14  27  14  28  14  29  14
M  ISO  1  30  14
M  END
>  <minimizedAffinity>  (1) 
-6.31732225

>  <minimizedRMSD>  (1) 
0.600636542

$$$$
