
     RDKit          3D

 28 30  0  0  0  0  0  0  0  0999 V2000
   39.4870   22.8300   37.6730 C   0  0  0  0  0  0  0  0  0  0  0  0
   38.8470   23.4510   38.7470 C   0  0  0  0  0  0  0  0  0  0  0  0
   37.9530   24.4890   38.4820 C   0  0  0  0  0  0  0  0  0  0  0  0
   37.7370   24.8570   37.2010 N   0  0  0  0  0  0  0  0  0  0  0  0
   38.3680   24.2390   36.1730 C   0  0  0  0  0  0  0  0  0  0  0  0
   39.2310   23.2370   36.4280 N   0  0  0  0  0  0  0  0  0  0  0  0
   38.1970   24.5630   34.7990 N   0  0  0  0  0  0  0  0  0  0  0  0
   38.6050   23.6580   33.8650 C   0  0  0  0  0  0  0  0  0  0  0  0
   38.3600   24.1440   32.6280 N   0  0  0  0  0  0  0  0  0  0  0  0
   37.8010   25.3520   32.7800 C   0  0  0  0  0  0  0  0  0  0  0  0
   37.3210   26.3590   31.9510 C   0  0  0  0  0  0  0  0  0  0  0  0
   36.8040   27.4860   32.4940 N   0  0  0  0  0  0  0  0  0  0  0  0
   36.7340   27.6820   33.8330 C   0  0  0  0  0  0  0  0  0  0  0  0
   37.1920   26.7220   34.6880 N   0  0  0  0  0  0  0  0  0  0  0  0
   37.7000   25.6120   34.1280 C   0  0  0  0  0  0  0  0  0  0  0  0
   40.3960   21.7750   37.9220 N   0  0  0  0  0  0  0  0  0  0  0  0
   41.6390   21.6120   37.2430 C   0  0  0  0  0  0  0  0  0  0  0  0
   42.1240   22.6550   36.6550 N   0  0  0  0  0  0  0  0  0  0  0  0
   42.3070   20.3490   37.2210 N   0  0  0  0  0  0  0  0  0  0  0  0
   43.0490   22.5340   36.1550 H   0  0  0  0  0  0  0  0  0  0  0  0
   39.0433   23.1289   39.7803 H   0  0  0  0  0  0  0  0  0  0  0  0
   37.4317   25.0001   39.3048 H   0  0  0  0  0  0  0  0  0  0  0  0
   39.0631   22.6823   34.0843 H   0  0  0  0  0  0  0  0  0  0  0  0
   37.3611   26.2406   30.8581 H   0  0  0  0  0  0  0  0  0  0  0  0
   36.3080   28.6149   34.2308 H   0  0  0  0  0  0  0  0  0  0  0  0
   40.1438   21.0804   38.6395 H   0  0  0  0  0  0  0  0  0  0  0  0
   43.2045   20.2496   36.7254 H   0  0  0  0  0  0  0  0  0  0  0  0
   41.8911   19.5380   37.7007 H   0  0  0  0  0  0  0  0  0  0  0  0
  1 16  1  0
  1  2  2  0
  3  2  1  0
  4  3  2  0
  5  6  2  0
  5  4  1  0
  6  1  1  0
  7  5  1  0
  8  7  1  0
  9 10  1  0
  9  8  2  0
 10 15  2  0
 11 12  2  0
 11 10  1  0
 12 13  1  0
 13 14  2  0
 15 14  1  0
 15  7  1  0
 17 16  1  0
 18 17  2  0
 19 17  1  0
 20 18  1  0
  2 21  1  0
  3 22  1  0
  8 23  1  0
 11 24  1  0
 13 25  1  0
 16 26  1  0
 19 27  1  0
 19 28  1  0
M  ISO  5  21  14  22  14  23  14  24  14  25  14
M  END
>  <minimizedAffinity>  (1) 
-5.93872166

>  <minimizedRMSD>  (1) 
0.687051177

$$$$
