
     RDKit          3D

 27 28  0  0  0  0  0  0  0  0999 V2000
   39.5070   22.7980   37.6330 C   0  0  0  0  0  0  0  0  0  0  0  0
   38.8390   23.4410   38.6820 C   0  0  0  0  0  0  0  0  0  0  0  0
   37.9480   24.4700   38.3540 C   0  0  0  0  0  0  0  0  0  0  0  0
   37.7810   24.7850   37.0480 N   0  0  0  0  0  0  0  0  0  0  0  0
   38.4330   24.1550   36.0530 C   0  0  0  0  0  0  0  0  0  0  0  0
   39.2880   23.1660   36.3780 N   0  0  0  0  0  0  0  0  0  0  0  0
   38.2270   24.5180   34.6920 N   0  0  0  0  0  0  0  0  0  0  0  0
   38.7090   23.7290   33.7230 C   0  0  0  0  0  0  0  0  0  0  0  0
   38.5640   23.9920   32.3950 C   0  0  0  0  0  0  0  0  0  0  0  0
   37.8790   25.1410   32.0480 C   0  0  0  0  0  0  0  0  0  0  0  0
   37.7180   25.4260   30.8530 O   0  0  0  0  0  0  0  0  0  0  0  0
   37.4160   25.8960   33.0590 N   0  0  0  0  0  0  0  0  0  0  0  0
   37.5630   25.6300   34.3810 C   0  0  0  0  0  0  0  0  0  0  0  0
   37.0890   26.4070   35.2340 O   0  0  0  0  0  0  0  0  0  0  0  0
   40.4220   21.7450   37.9330 N   0  0  0  0  0  0  0  0  0  0  0  0
   41.6800   21.5730   37.2730 C   0  0  0  0  0  0  0  0  0  0  0  0
   42.1670   22.6160   36.6560 N   0  0  0  0  0  0  0  0  0  0  0  0
   42.3410   20.3080   37.3100 N   0  0  0  0  0  0  0  0  0  0  0  0
   43.1010   22.4730   36.1880 H   0  0  0  0  0  0  0  0  0  0  0  0
   39.0084   23.1477   39.7285 H   0  0  0  0  0  0  0  0  0  0  0  0
   37.3970   25.0094   39.1385 H   0  0  0  0  0  0  0  0  0  0  0  0
   39.2519   22.8184   34.0162 H   0  0  0  0  0  0  0  0  0  0  0  0
   38.9753   23.3175   31.6296 H   0  0  0  0  0  0  0  0  0  0  0  0
   36.9037   26.7534   32.8074 H   0  0  0  0  0  0  0  0  0  0  0  0
   40.1622   21.0702   38.6665 H   0  0  0  0  0  0  0  0  0  0  0  0
   43.2464   20.1859   36.8344 H   0  0  0  0  0  0  0  0  0  0  0  0
   41.9124   19.5175   37.8123 H   0  0  0  0  0  0  0  0  0  0  0  0
  1 15  1  0
  1  2  2  0
  3  2  1  0
  4  3  2  0
  5  6  2  0
  5  4  1  0
  6  1  1  0
  7  5  1  0
  8  7  1  0
  9  8  2  0
 10  9  1  0
 10 12  1  0
 11 10  2  0
 12 13  1  0
 13  7  1  0
 13 14  2  0
 16 18  1  0
 16 15  1  0
 17 16  2  0
 19 17  1  0
  2 20  1  0
  3 21  1  0
  8 22  1  0
  9 23  1  0
 12 24  1  0
 15 25  1  0
 18 26  1  0
 18 27  1  0
M  ISO  5  20  14  21  14  22  14  23  14  24   9
M  END
>  <minimizedAffinity>  (1) 
-5.6901226

>  <minimizedRMSD>  (1) 
0.488196254

$$$$
