
     RDKit          3D

 26 27  0  0  0  0  0  0  0  0999 V2000
   39.5520   22.9000   37.5760 C   0  0  0  0  0  0  0  0  0  0  0  0
   38.7210   23.3360   38.6350 C   0  0  0  0  0  0  0  0  0  0  0  0
   37.9260   24.4590   38.4100 C   0  0  0  0  0  0  0  0  0  0  0  0
   37.9830   25.0780   37.1980 N   0  0  0  0  0  0  0  0  0  0  0  0
   38.7900   24.6250   36.2200 C   0  0  0  0  0  0  0  0  0  0  0  0
   39.5730   23.5460   36.3940 N   0  0  0  0  0  0  0  0  0  0  0  0
   40.3650   21.7620   37.7860 N   0  0  0  0  0  0  0  0  0  0  0  0
   41.6730   21.6090   37.2610 C   0  0  0  0  0  0  0  0  0  0  0  0
   42.2830   22.6810   36.8710 N   0  0  0  0  0  0  0  0  0  0  0  0
   42.2710   20.3100   37.1800 N   0  0  0  0  0  0  0  0  0  0  0  0
   43.2660   22.5580   36.5260 H   0  0  0  0  0  0  0  0  0  0  0  0
   38.7770   25.3590   34.9600 C   0  0  0  0  0  0  0  0  0  0  0  0
   39.6090   26.4280   34.7010 C   0  0  0  0  0  0  0  0  0  0  0  0
   39.5330   27.0710   33.4750 C   0  0  0  0  0  0  0  0  0  0  0  0
   38.6460   26.6770   32.4930 C   0  0  0  0  0  0  0  0  0  0  0  0
   37.8480   25.6140   32.8050 C   0  0  0  0  0  0  0  0  0  0  0  0
   37.9200   24.9870   33.9970 N   0  0  0  0  0  0  0  0  0  0  0  0
   38.7029   22.8084   39.6001 H   0  0  0  0  0  0  0  0  0  0  0  0
   37.2621   24.8398   39.2001 H   0  0  0  0  0  0  0  0  0  0  0  0
   39.9822   20.9950   38.3571 H   0  0  0  0  0  0  0  0  0  0  0  0
   43.2215   20.2036   36.7979 H   0  0  0  0  0  0  0  0  0  0  0  0
   41.7505   19.4823   37.5039 H   0  0  0  0  0  0  0  0  0  0  0  0
   40.3275   26.7679   35.4614 H   0  0  0  0  0  0  0  0  0  0  0  0
   40.2010   27.9226   33.2783 H   0  0  0  0  0  0  0  0  0  0  0  0
   38.5860   27.1874   31.5204 H   0  0  0  0  0  0  0  0  0  0  0  0
   37.1222   25.2571   32.0594 H   0  0  0  0  0  0  0  0  0  0  0  0
  1  7  1  0
  1  2  2  0
  3  2  1  0
  4  3  2  0
  5  6  2  0
  5  4  1  0
  6  1  1  0
  8  7  1  0
  9  8  2  0
 10  8  1  0
 11  9  1  0
 12  5  1  0
 13 12  2  0
 14 13  1  0
 15 16  1  0
 15 14  2  0
 16 17  2  0
 17 12  1  0
  2 18  1  0
  3 19  1  0
  7 20  1  0
 10 21  1  0
 10 22  1  0
 13 23  1  0
 14 24  1  0
 15 25  1  0
 16 26  1  0
M  ISO  6  18  14  19  14  23  14  24  14  25  14  26  14
M  END
>  <minimizedAffinity>  (1) 
-5.16877031

>  <minimizedRMSD>  (1) 
0.90499109

$$$$
