
     RDKit          3D

 27 28  0  0  0  0  0  0  0  0999 V2000
   39.5510   22.8990   37.5820 C   0  0  0  0  0  0  0  0  0  0  0  0
   38.7210   23.3250   38.6210 C   0  0  0  0  0  0  0  0  0  0  0  0
   37.9220   24.4630   38.4240 C   0  0  0  0  0  0  0  0  0  0  0  0
   37.9990   25.1000   37.2130 N   0  0  0  0  0  0  0  0  0  0  0  0
   38.8230   24.6480   36.2290 C   0  0  0  0  0  0  0  0  0  0  0  0
   39.5880   23.5540   36.4230 N   0  0  0  0  0  0  0  0  0  0  0  0
   40.3560   21.7500   37.7890 N   0  0  0  0  0  0  0  0  0  0  0  0
   41.6750   21.6000   37.2530 C   0  0  0  0  0  0  0  0  0  0  0  0
   42.2910   22.7040   36.8960 N   0  0  0  0  0  0  0  0  0  0  0  0
   42.2690   20.3200   37.1240 N   0  0  0  0  0  0  0  0  0  0  0  0
   43.2690   22.5740   36.5270 H   0  0  0  0  0  0  0  0  0  0  0  0
   38.8600   25.3710   34.9600 C   0  0  0  0  0  0  0  0  0  0  0  0
   37.9770   25.0220   33.9600 C   0  0  0  0  0  0  0  0  0  0  0  0
   37.9950   25.6930   32.7540 C   0  0  0  0  0  0  0  0  0  0  0  0
   38.9230   26.6950   32.6330 C   0  0  0  0  0  0  0  0  0  0  0  0
   39.8290   27.0770   33.6160 C   0  0  0  0  0  0  0  0  0  0  0  0
   39.7830   26.3860   34.8060 C   0  0  0  0  0  0  0  0  0  0  0  0
   38.6935   22.7795   39.5758 H   0  0  0  0  0  0  0  0  0  0  0  0
   37.2550   24.8317   39.2172 H   0  0  0  0  0  0  0  0  0  0  0  0
   39.9706   20.9813   38.3560 H   0  0  0  0  0  0  0  0  0  0  0  0
   43.2190   20.2298   36.7363 H   0  0  0  0  0  0  0  0  0  0  0  0
   41.7508   19.4798   37.4179 H   0  0  0  0  0  0  0  0  0  0  0  0
   37.2566   24.2070   34.1238 H   0  0  0  0  0  0  0  0  0  0  0  0
   37.3043   25.4384   31.9366 H   0  0  0  0  0  0  0  0  0  0  0  0
   38.9532   27.2420   31.6791 H   0  0  0  0  0  0  0  0  0  0  0  0
   40.5484   27.8926   33.4508 H   0  0  0  0  0  0  0  0  0  0  0  0
   40.4733   26.6396   35.6240 H   0  0  0  0  0  0  0  0  0  0  0  0
  1  7  1  0
  1  2  2  0
  3  2  1  0
  4  3  2  0
  5  6  2  0
  5  4  1  0
  6  1  1  0
  8  7  1  0
  9  8  2  0
 10  8  1  0
 11  9  1  0
 12  5  1  0
 13 12  2  0
 14 13  1  0
 15 14  2  0
 15 16  1  0
 16 17  2  0
 17 12  1  0
  2 18  1  0
  3 19  1  0
  7 20  1  0
 10 21  1  0
 10 22  1  0
 13 23  1  0
 14 24  1  0
 15 25  1  0
 16 26  1  0
 17 27  1  0
M  ISO  7  18  14  19  14  23  14  24  14  25  14  26  14  27  14
M  END
>  <minimizedAffinity>  (1) 
-5.1902957

>  <minimizedRMSD>  (1) 
0.966552615

$$$$
