
     RDKit          3D

 24 25  0  0  0  0  0  0  0  0999 V2000
   39.5140   22.7760   37.6650 C   0  0  0  0  0  0  0  0  0  0  0  0
   38.8740   23.4280   38.7270 C   0  0  0  0  0  0  0  0  0  0  0  0
   37.9720   24.4480   38.4140 C   0  0  0  0  0  0  0  0  0  0  0  0
   37.7510   24.7660   37.0990 N   0  0  0  0  0  0  0  0  0  0  0  0
   38.3930   24.1080   36.1140 C   0  0  0  0  0  0  0  0  0  0  0  0
   39.2670   23.1200   36.4020 N   0  0  0  0  0  0  0  0  0  0  0  0
   40.4420   21.7300   37.9390 N   0  0  0  0  0  0  0  0  0  0  0  0
   41.6840   21.5670   37.2780 C   0  0  0  0  0  0  0  0  0  0  0  0
   42.1500   22.5900   36.6290 N   0  0  0  0  0  0  0  0  0  0  0  0
   42.3810   20.3280   37.3310 N   0  0  0  0  0  0  0  0  0  0  0  0
   43.0930   22.4690   36.1690 H   0  0  0  0  0  0  0  0  0  0  0  0
   38.1390   24.4660   34.7230 C   0  0  0  0  0  0  0  0  0  0  0  0
   38.3770   23.6720   33.6210 C   0  0  0  0  0  0  0  0  0  0  0  0
   38.0070   24.3750   32.5440 N   0  0  0  0  0  0  0  0  0  0  0  0
   37.5530   25.5760   32.9970 C   0  0  0  0  0  0  0  0  0  0  0  0
   37.6190   25.6700   34.3470 N   0  0  0  0  0  0  0  0  0  0  0  0
   39.0747   23.1466   39.7713 H   0  0  0  0  0  0  0  0  0  0  0  0
   37.4453   24.9896   39.2135 H   0  0  0  0  0  0  0  0  0  0  0  0
   40.1926   21.0458   38.6674 H   0  0  0  0  0  0  0  0  0  0  0  0
   43.2834   20.2236   36.8456 H   0  0  0  0  0  0  0  0  0  0  0  0
   41.9832   19.5353   37.8548 H   0  0  0  0  0  0  0  0  0  0  0  0
   38.7924   22.6535   33.6262 H   0  0  0  0  0  0  0  0  0  0  0  0
   37.1766   26.3766   32.3432 H   0  0  0  0  0  0  0  0  0  0  0  0
   37.3427   26.4610   34.9460 H   0  0  0  0  0  0  0  0  0  0  0  0
  1  7  1  0
  1  2  2  0
  3  2  1  0
  4  3  2  0
  5  6  2  0
  5  4  1  0
  6  1  1  0
  8 10  1  0
  8  7  1  0
  9  8  2  0
 11  9  1  0
 12  5  1  0
 13 12  2  0
 14 15  2  0
 14 13  1  0
 15 16  1  0
 16 12  1  0
  2 17  1  0
  3 18  1  0
  7 19  1  0
 10 20  1  0
 10 21  1  0
 13 22  1  0
 15 23  1  0
 16 24  1  0
M  ISO  5  17  14  18  14  22  14  23  14  24   9
M  END
>  <minimizedAffinity>  (1) 
-4.78104639

>  <minimizedRMSD>  (1) 
0.511065006

$$$$
