
     RDKit          3D

 23 24  0  0  0  0  0  0  0  0999 V2000
   39.5190   22.8050   37.6100 C   0  0  0  0  0  0  0  0  0  0  0  0
   38.8200   23.4090   38.6690 C   0  0  0  0  0  0  0  0  0  0  0  0
   37.9550   24.4480   38.3170 C   0  0  0  0  0  0  0  0  0  0  0  0
   37.8180   24.8320   37.0130 N   0  0  0  0  0  0  0  0  0  0  0  0
   38.5180   24.2120   36.0380 C   0  0  0  0  0  0  0  0  0  0  0  0
   39.3710   23.1970   36.3400 N   0  0  0  0  0  0  0  0  0  0  0  0
   38.4390   24.5440   34.6580 N   0  0  0  0  0  0  0  0  0  0  0  0
   37.6590   25.6230   34.4100 C   0  0  0  0  0  0  0  0  0  0  0  0
   37.6480   25.8580   33.0650 N   0  0  0  0  0  0  0  0  0  0  0  0
   38.4350   24.9020   32.5150 C   0  0  0  0  0  0  0  0  0  0  0  0
   38.9120   24.1070   33.5080 N   0  0  0  0  0  0  0  0  0  0  0  0
   40.4200   21.7360   37.9080 N   0  0  0  0  0  0  0  0  0  0  0  0
   41.6940   21.5670   37.2940 C   0  0  0  0  0  0  0  0  0  0  0  0
   42.2080   22.5970   36.6990 N   0  0  0  0  0  0  0  0  0  0  0  0
   42.3620   20.3030   37.3440 N   0  0  0  0  0  0  0  0  0  0  0  0
   43.1410   22.4500   36.2330 H   0  0  0  0  0  0  0  0  0  0  0  0
   38.9463   23.0834   39.7121 H   0  0  0  0  0  0  0  0  0  0  0  0
   37.3775   24.9629   39.0988 H   0  0  0  0  0  0  0  0  0  0  0  0
   37.1225   26.2131   35.1676 H   0  0  0  0  0  0  0  0  0  0  0  0
   38.6517   24.7884   31.4426 H   0  0  0  0  0  0  0  0  0  0  0  0
   40.1291   21.0431   38.6124 H   0  0  0  0  0  0  0  0  0  0  0  0
   43.2831   20.1893   36.8974 H   0  0  0  0  0  0  0  0  0  0  0  0
   41.9218   19.5066   37.8266 H   0  0  0  0  0  0  0  0  0  0  0  0
  1 12  1  0
  1  2  2  0
  3  2  1  0
  4  3  2  0
  5  6  2  0
  5  4  1  0
  6  1  1  0
  7  5  1  0
  8  7  1  0
  9  8  2  0
 10  9  1  0
 10 11  2  0
 11  7  1  0
 13 15  1  0
 13 12  1  0
 14 13  2  0
 16 14  1  0
  2 17  1  0
  3 18  1  0
  8 19  1  0
 10 20  1  0
 12 21  1  0
 15 22  1  0
 15 23  1  0
M  ISO  4  17  14  18  14  19  14  20  14
M  END
>  <minimizedAffinity>  (1) 
-5.00454617

>  <minimizedRMSD>  (1) 
0.334031492

$$$$
