
     RDKit          3D

 25 26  0  0  0  0  0  0  0  0999 V2000
   39.5300   22.7810   37.6610 C   0  0  0  0  0  0  0  0  0  0  0  0
   38.8730   23.4060   38.7250 C   0  0  0  0  0  0  0  0  0  0  0  0
   37.9690   24.4390   38.4540 C   0  0  0  0  0  0  0  0  0  0  0  0
   37.7660   24.7950   37.1460 N   0  0  0  0  0  0  0  0  0  0  0  0
   38.4210   24.1640   36.1560 C   0  0  0  0  0  0  0  0  0  0  0  0
   39.2950   23.1680   36.3940 N   0  0  0  0  0  0  0  0  0  0  0  0
   40.4430   21.7370   37.9400 N   0  0  0  0  0  0  0  0  0  0  0  0
   41.6870   21.5720   37.2710 C   0  0  0  0  0  0  0  0  0  0  0  0
   42.1650   22.6020   36.6530 N   0  0  0  0  0  0  0  0  0  0  0  0
   42.3610   20.3080   37.2930 N   0  0  0  0  0  0  0  0  0  0  0  0
   43.1080   22.4900   36.2010 H   0  0  0  0  0  0  0  0  0  0  0  0
   38.1820   24.5690   34.7810 C   0  0  0  0  0  0  0  0  0  0  0  0
   37.6320   25.7960   34.4750 C   0  0  0  0  0  0  0  0  0  0  0  0
   37.3860   26.2240   33.1850 C   0  0  0  0  0  0  0  0  0  0  0  0
   37.7160   25.3630   32.1910 N   0  0  0  0  0  0  0  0  0  0  0  0
   38.2520   24.1610   32.4620 C   0  0  0  0  0  0  0  0  0  0  0  0
   38.4830   23.7680   33.7430 N   0  0  0  0  0  0  0  0  0  0  0  0
   39.0641   23.0900   39.7611 H   0  0  0  0  0  0  0  0  0  0  0  0
   37.4358   24.9514   39.2683 H   0  0  0  0  0  0  0  0  0  0  0  0
   40.1919   21.0561   38.6709 H   0  0  0  0  0  0  0  0  0  0  0  0
   43.2617   20.1961   36.8061 H   0  0  0  0  0  0  0  0  0  0  0  0
   41.9448   19.5111   37.7957 H   0  0  0  0  0  0  0  0  0  0  0  0
   37.3749   26.4714   35.3043 H   0  0  0  0  0  0  0  0  0  0  0  0
   36.9461   27.2102   32.9754 H   0  0  0  0  0  0  0  0  0  0  0  0
   38.5081   23.4838   31.6339 H   0  0  0  0  0  0  0  0  0  0  0  0
  1  7  1  0
  1  2  2  0
  3  2  1  0
  4  3  2  0
  5  6  2  0
  5  4  1  0
  6  1  1  0
  8 10  1  0
  8  7  1  0
  9  8  2  0
 11  9  1  0
 12  5  1  0
 13 12  2  0
 14 13  1  0
 15 16  1  0
 15 14  2  0
 16 17  2  0
 17 12  1  0
  2 18  1  0
  3 19  1  0
  7 20  1  0
 10 21  1  0
 10 22  1  0
 13 23  1  0
 14 24  1  0
 16 25  1  0
M  ISO  5  18  14  19  14  23  14  24  14  25  14
M  END
>  <minimizedAffinity>  (1) 
-4.97096539

>  <minimizedRMSD>  (1) 
0.516941726

$$$$
