
     RDKit          3D

 20 20  0  0  0  0  0  0  0  0999 V2000
   39.5380   22.7400   37.6860 C   0  0  0  0  0  0  0  0  0  0  0  0
   38.8220   23.4580   38.6460 C   0  0  0  0  0  0  0  0  0  0  0  0
   37.9290   24.4340   38.2230 C   0  0  0  0  0  0  0  0  0  0  0  0
   37.7770   24.6620   36.9000 N   0  0  0  0  0  0  0  0  0  0  0  0
   38.4840   23.9530   35.9800 C   0  0  0  0  0  0  0  0  0  0  0  0
   39.3530   23.0040   36.3870 N   0  0  0  0  0  0  0  0  0  0  0  0
   40.4600   21.7350   38.0800 N   0  0  0  0  0  0  0  0  0  0  0  0
   41.7110   21.5070   37.4620 C   0  0  0  0  0  0  0  0  0  0  0  0
   42.2000   22.4790   36.7350 N   0  0  0  0  0  0  0  0  0  0  0  0
   42.3930   20.2740   37.6320 N   0  0  0  0  0  0  0  0  0  0  0  0
   43.1410   22.3020   36.3040 H   0  0  0  0  0  0  0  0  0  0  0  0
   38.3160   24.2050   34.5370 C   0  0  0  0  0  0  0  0  0  0  0  0
   37.5110   25.3460   34.4300 F   0  0  0  0  0  0  0  0  0  0  0  0
   37.6240   23.1830   33.8880 F   0  0  0  0  0  0  0  0  0  0  0  0
   39.5550   24.4220   33.9430 F   0  0  0  0  0  0  0  0  0  0  0  0
   38.9627   23.2543   39.7178 H   0  0  0  0  0  0  0  0  0  0  0  0
   37.3517   25.0151   38.9572 H   0  0  0  0  0  0  0  0  0  0  0  0
   40.1993   21.1296   38.8715 H   0  0  0  0  0  0  0  0  0  0  0  0
   43.3038   20.1221   37.1756 H   0  0  0  0  0  0  0  0  0  0  0  0
   41.9772   19.5311   38.2117 H   0  0  0  0  0  0  0  0  0  0  0  0
  1  7  1  0
  1  2  2  0
  3  2  1  0
  4  3  2  0
  5  6  2  0
  5  4  1  0
  6  1  1  0
  8 10  1  0
  8  7  1  0
  9  8  2  0
 11  9  1  0
 12  5  1  0
 13 12  1  0
 14 12  1  0
 15 12  1  0
  2 16  1  0
  3 17  1  0
  7 18  1  0
 10 19  1  0
 10 20  1  0
M  ISO  2  16  14  17  14
M  END
>  <minimizedAffinity>  (1) 
-4.59834242

>  <minimizedRMSD>  (1) 
0.580471516

$$$$
