
     RDKit          3D

 18 18  0  0  0  0  0  0  0  0999 V2000
   39.4820   25.0980   35.3780 C   0  0  0  0  0  0  0  0  0  0  0  0
   39.6940   23.7070   35.5050 C   0  0  0  0  0  0  0  0  0  0  0  0
   38.9020   22.9390   34.6610 C   0  0  0  0  0  0  0  0  0  0  0  0
   38.0140   23.5260   33.8070 N   0  0  0  0  0  0  0  0  0  0  0  0
   37.8570   24.8500   33.7320 C   0  0  0  0  0  0  0  0  0  0  0  0
   38.6030   25.6170   34.5270 N   0  0  0  0  0  0  0  0  0  0  0  0
   40.6260   23.1470   36.4040 N   0  0  0  0  0  0  0  0  0  0  0  0
   40.2840   22.4020   37.5530 C   0  0  0  0  0  0  0  0  0  0  0  0
   39.2370   22.8310   38.2320 N   0  0  0  0  0  0  0  0  0  0  0  0
   41.1270   21.2580   37.8440 N   0  0  0  0  0  0  0  0  0  0  0  0
   38.9220   22.3330   39.0770 H   0  0  0  0  0  0  0  0  0  0  0  0
   36.8990   25.2130   32.7930 O   0  0  0  0  0  0  0  0  0  0  0  0
   40.0693   25.7803   36.0102 H   0  0  0  0  0  0  0  0  0  0  0  0
   38.9918   21.8429   34.6812 H   0  0  0  0  0  0  0  0  0  0  0  0
   41.6267   23.2921   36.2080 H   0  0  0  0  0  0  0  0  0  0  0  0
   40.9326   20.6714   38.6680 H   0  0  0  0  0  0  0  0  0  0  0  0
   41.9200   21.0323   37.2266 H   0  0  0  0  0  0  0  0  0  0  0  0
   36.6902   26.1690   32.6430 H   0  0  0  0  0  0  0  0  0  0  0  0
  1  2  2  0
  2  7  1  0
  3  2  1  0
  4  3  2  0
  5  4  1  0
  5  6  2  0
  6  1  1  0
  7  8  1  0
  8 10  1  0
  8  9  2  0
  9 11  1  0
 12  5  1  0
  1 13  1  0
  3 14  1  0
  7 15  1  0
 10 16  1  0
 10 17  1  0
 12 18  1  0
M  ISO  3  13  14  14  14  18   3
M  END
>  <minimizedAffinity>  (1) 
-3.65562129

>  <minimizedRMSD>  (1) 
0.276926398

$$$$
