
     RDKit          3D

 24 25  0  0  0  0  0  0  0  0999 V2000
   39.5800   22.8780   37.5910 C   0  0  0  0  0  0  0  0  0  0  0  0
   38.7020   23.3220   38.5930 C   0  0  0  0  0  0  0  0  0  0  0  0
   37.9130   24.4400   38.3460 C   0  0  0  0  0  0  0  0  0  0  0  0
   38.0170   25.0600   37.1520 N   0  0  0  0  0  0  0  0  0  0  0  0
   38.8750   24.6150   36.1880 C   0  0  0  0  0  0  0  0  0  0  0  0
   39.6350   23.5310   36.4380 N   0  0  0  0  0  0  0  0  0  0  0  0
   40.3970   21.7440   37.8100 N   0  0  0  0  0  0  0  0  0  0  0  0
   41.7040   21.5750   37.2860 C   0  0  0  0  0  0  0  0  0  0  0  0
   42.3130   22.6500   36.8850 N   0  0  0  0  0  0  0  0  0  0  0  0
   42.2900   20.2680   37.2180 N   0  0  0  0  0  0  0  0  0  0  0  0
   43.2830   22.5110   36.4980 H   0  0  0  0  0  0  0  0  0  0  0  0
   38.9590   25.3310   34.8800 C   0  0  0  0  0  0  0  0  0  0  0  0
   40.2290   25.4640   34.1650 C   0  0  0  0  0  0  0  0  0  0  0  0
   39.7210   26.6540   34.9650 C   0  0  0  0  0  0  0  0  0  0  0  0
   38.6395   22.7946   39.5563 H   0  0  0  0  0  0  0  0  0  0  0  0
   37.2159   24.8127   39.1109 H   0  0  0  0  0  0  0  0  0  0  0  0
   40.0146   20.9856   38.3927 H   0  0  0  0  0  0  0  0  0  0  0  0
   43.2394   20.1485   36.8369 H   0  0  0  0  0  0  0  0  0  0  0  0
   41.7615   19.4487   37.5502 H   0  0  0  0  0  0  0  0  0  0  0  0
   37.9738   24.9725   34.5470 H   0  0  0  0  0  0  0  0  0  0  0  0
   41.1123   24.9090   34.5141 H   0  0  0  0  0  0  0  0  0  0  0  0
   40.5417   25.3175   33.1206 H   0  0  0  0  0  0  0  0  0  0  0  0
   39.3415   27.5496   34.4514 H   0  0  0  0  0  0  0  0  0  0  0  0
   40.1121   27.2937   35.7699 H   0  0  0  0  0  0  0  0  0  0  0  0
  1  7  1  0
  1  2  2  0
  3  2  1  0
  4  3  2  0
  5  6  2  0
  5  4  1  0
  6  1  1  0
  8  7  1  0
  9  8  2  0
 10  8  1  0
 11  9  1  0
 12 14  1  0
 12  5  1  0
 13 12  1  0
 13 14  1  0
  2 15  1  0
  3 16  1  0
  7 17  1  0
 10 18  1  0
 10 19  1  0
 12 20  1  0
 13 21  1  0
 13 22  1  0
 14 23  1  0
 14 24  1  0
M  ISO  7  15  14  16  14  20  13  21  13  22  13  23  13  24  13
M  END
>  <minimizedAffinity>  (1) 
-4.54470444

>  <minimizedRMSD>  (1) 
0.719970882

$$$$
