
     RDKit          3D

 20 20  0  0  0  0  0  0  0  0999 V2000
   39.5710   22.7640   37.6370 C   0  0  0  0  0  0  0  0  0  0  0  0
   38.8140   23.4160   38.6130 C   0  0  0  0  0  0  0  0  0  0  0  0
   37.9600   24.4340   38.2190 C   0  0  0  0  0  0  0  0  0  0  0  0
   37.8940   24.7580   36.8960 N   0  0  0  0  0  0  0  0  0  0  0  0
   38.6330   24.1150   35.9750 C   0  0  0  0  0  0  0  0  0  0  0  0
   39.4680   23.1200   36.3580 N   0  0  0  0  0  0  0  0  0  0  0  0
   40.4490   21.7220   38.0160 N   0  0  0  0  0  0  0  0  0  0  0  0
   41.7480   21.5080   37.4520 C   0  0  0  0  0  0  0  0  0  0  0  0
   42.2630   22.4930   36.7930 N   0  0  0  0  0  0  0  0  0  0  0  0
   42.4070   20.2660   37.6260 N   0  0  0  0  0  0  0  0  0  0  0  0
   43.2400   22.3560   36.4110 H   0  0  0  0  0  0  0  0  0  0  0  0
   38.5030   24.5270   34.5640 C   0  0  0  0  0  0  0  0  0  0  0  0
   38.8939   23.1278   39.6716 H   0  0  0  0  0  0  0  0  0  0  0  0
   37.3475   24.9701   38.9589 H   0  0  0  0  0  0  0  0  0  0  0  0
   40.1320   21.0715   38.7490 H   0  0  0  0  0  0  0  0  0  0  0  0
   43.3411   20.1171   37.2184 H   0  0  0  0  0  0  0  0  0  0  0  0
   41.9520   19.5119   38.1601 H   0  0  0  0  0  0  0  0  0  0  0  0
   38.1723   25.5751   34.5170 H   0  0  0  0  0  0  0  0  0  0  0  0
   39.4764   24.4268   34.0616 H   0  0  0  0  0  0  0  0  0  0  0  0
   37.7634   23.8863   34.0616 H   0  0  0  0  0  0  0  0  0  0  0  0
  1  7  1  0
  1  2  2  0
  3  2  1  0
  4  3  2  0
  5  6  2  0
  5  4  1  0
  6  1  1  0
  8 10  1  0
  8  7  1  0
  9  8  2  0
 11  9  1  0
 12  5  1  0
  2 13  1  0
  3 14  1  0
  7 15  1  0
 10 16  1  0
 10 17  1  0
 12 18  1  0
 12 19  1  0
 12 20  1  0
M  ISO  5  13  14  14  14  18   8  19   8  20   8
M  END
>  <minimizedAffinity>  (1) 
-4.31894684

>  <minimizedRMSD>  (1) 
0.0953811482

$$$$
