
     RDKit          3D

 18 18  0  0  0  0  0  0  0  0999 V2000
   39.5660   22.7770   37.5920 C   0  0  0  0  0  0  0  0  0  0  0  0
   38.7880   23.4270   38.5520 C   0  0  0  0  0  0  0  0  0  0  0  0
   37.9450   24.4540   38.0920 C   0  0  0  0  0  0  0  0  0  0  0  0
   37.9090   24.7790   36.7680 N   0  0  0  0  0  0  0  0  0  0  0  0
   38.6940   24.1080   35.8730 C   0  0  0  0  0  0  0  0  0  0  0  0
   39.5020   23.1220   36.3130 N   0  0  0  0  0  0  0  0  0  0  0  0
   40.4340   21.7340   37.9940 N   0  0  0  0  0  0  0  0  0  0  0  0
   41.7440   21.5180   37.4560 C   0  0  0  0  0  0  0  0  0  0  0  0
   42.2890   22.5160   36.7980 N   0  0  0  0  0  0  0  0  0  0  0  0
   42.3910   20.2600   37.6500 N   0  0  0  0  0  0  0  0  0  0  0  0
   43.2490   22.3180   36.4130 H   0  0  0  0  0  0  0  0  0  0  0  0
   38.6870   24.4060   34.5200 O   0  0  0  0  0  0  0  0  0  0  0  0
   38.8324   23.1494   39.6155 H   0  0  0  0  0  0  0  0  0  0  0  0
   37.3097   24.9994   38.8054 H   0  0  0  0  0  0  0  0  0  0  0  0
   40.1014   21.0864   38.7226 H   0  0  0  0  0  0  0  0  0  0  0  0
   43.3329   20.1005   37.2649 H   0  0  0  0  0  0  0  0  0  0  0  0
   41.9158   19.5121   38.1751 H   0  0  0  0  0  0  0  0  0  0  0  0
   38.1017   25.1259   34.1747 H   0  0  0  0  0  0  0  0  0  0  0  0
  1  7  1  0
  1  2  2  0
  3  2  1  0
  4  3  2  0
  5  6  2  0
  5  4  1  0
  6  1  1  0
  8 10  1  0
  8  7  1  0
  9  8  2  0
 11  9  1  0
 12  5  1  0
  2 13  1  0
  3 14  1  0
  7 15  1  0
 10 16  1  0
 10 17  1  0
 12 18  1  0
M  ISO  3  13  14  14  14  18   3
M  END
>  <minimizedAffinity>  (1) 
-4.27103472

>  <minimizedRMSD>  (1) 
0.0198833738

$$$$
