
     RDKit          3D

 31 32  0  0  0  0  0  0  0  0999 V2000
   40.1910   22.4520   37.8670 C   0  0  0  0  0  0  0  0  0  0  0  0
   39.3470   23.3670   37.2400 C   0  0  0  0  0  0  0  0  0  0  0  0
   39.7930   23.9650   36.0660 C   0  0  0  0  0  0  0  0  0  0  0  0
   41.0310   23.6210   35.5980 N   0  0  0  0  0  0  0  0  0  0  0  0
   41.8160   22.7310   36.2360 C   0  0  0  0  0  0  0  0  0  0  0  0
   41.3810   22.1610   37.3630 N   0  0  0  0  0  0  0  0  0  0  0  0
   39.0540   24.9170   35.3090 N   0  0  0  0  0  0  0  0  0  0  0  0
   39.0110   25.2410   33.8950 C   0  0  0  0  0  0  0  0  0  0  0  0
   39.2090   26.7550   33.7590 C   0  0  0  0  0  0  0  0  0  0  0  0
   37.8740   27.3930   34.1250 C   0  0  0  0  0  0  0  0  0  0  0  0
   37.1870   26.5050   35.1130 C   0  0  0  0  0  0  0  0  0  0  0  0
   38.1280   25.7760   36.0410 C   0  0  0  0  0  0  0  0  0  0  0  0
   37.9900   23.7570   37.7370 C   0  0  0  0  0  0  0  0  0  0  0  0
   37.7250   22.8950   38.8190 F   0  0  0  0  0  0  0  0  0  0  0  0
   37.0150   23.5600   36.8210 F   0  0  0  0  0  0  0  0  0  0  0  0
   38.0000   25.0290   38.3100 F   0  0  0  0  0  0  0  0  0  0  0  0
   43.1550   22.4220   35.6410 C   0  0  0  0  0  0  0  0  0  0  0  0
   43.0180   21.8960   34.3720 F   0  0  0  0  0  0  0  0  0  0  0  0
   43.8680   23.5970   35.4960 F   0  0  0  0  0  0  0  0  0  0  0  0
   43.8410   21.4820   36.3850 F   0  0  0  0  0  0  0  0  0  0  0  0
   39.8633   21.9631   38.7963 H   0  0  0  0  0  0  0  0  0  0  0  0
   39.8138   24.7087   33.3638 H   0  0  0  0  0  0  0  0  0  0  0  0
   38.0481   24.9371   33.4586 H   0  0  0  0  0  0  0  0  0  0  0  0
   39.9971   27.0996   34.4447 H   0  0  0  0  0  0  0  0  0  0  0  0
   39.5180   27.0289   32.7394 H   0  0  0  0  0  0  0  0  0  0  0  0
   38.0447   28.3840   34.5708 H   0  0  0  0  0  0  0  0  0  0  0  0
   37.2517   27.5143   33.2261 H   0  0  0  0  0  0  0  0  0  0  0  0
   36.5106   27.1230   35.7217 H   0  0  0  0  0  0  0  0  0  0  0  0
   36.6530   25.7374   34.5337 H   0  0  0  0  0  0  0  0  0  0  0  0
   37.5376   25.1561   36.7317 H   0  0  0  0  0  0  0  0  0  0  0  0
   38.7176   26.5261   36.5885 H   0  0  0  0  0  0  0  0  0  0  0  0
  2 13  1  0
  2  1  2  0
  3  2  1  0
  4  3  2  0
  4  5  1  0
  5  6  2  0
  6  1  1  0
  7 12  1  0
  7  3  1  0
  8  7  1  0
  9  8  1  0
  9 10  1  0
 10 11  1  0
 11 12  1  0
 13 16  1  0
 13 14  1  0
 15 13  1  0
 17  5  1  0
 17 20  1  0
 18 17  1  0
 19 17  1  0
  1 21  1  0
  8 22  1  0
  8 23  1  0
  9 24  1  0
  9 25  1  0
 10 26  1  0
 10 27  1  0
 11 28  1  0
 11 29  1  0
 12 30  1  0
 12 31  1  0
M  ISO  8  21  14  22  13  23  13  24  13  25  13  26  13  27  13  28  13
M  ISO  3  29  13  30  13  31  13
M  END
>  <minimizedAffinity>  (1) 
-5.06844425

>  <minimizedRMSD>  (1) 
2.03474188

$$$$
