
     RDKit          3D

 29 30  0  0  0  0  0  0  0  0999 V2000
   40.2840   22.5590   37.8570 C   0  0  0  0  0  0  0  0  0  0  0  0
   39.2790   23.3220   37.2340 C   0  0  0  0  0  0  0  0  0  0  0  0
   39.5510   23.8380   35.9680 C   0  0  0  0  0  0  0  0  0  0  0  0
   40.7680   23.5740   35.4140 N   0  0  0  0  0  0  0  0  0  0  0  0
   41.7110   22.8310   36.0520 C   0  0  0  0  0  0  0  0  0  0  0  0
   41.4520   22.3340   37.2660 N   0  0  0  0  0  0  0  0  0  0  0  0
   38.6230   24.6260   35.2280 N   0  0  0  0  0  0  0  0  0  0  0  0
   38.0040   24.4170   33.9220 C   0  0  0  0  0  0  0  0  0  0  0  0
   38.0740   25.7100   33.1230 C   0  0  0  0  0  0  0  0  0  0  0  0
   37.3980   26.7400   33.7310 O   0  0  0  0  0  0  0  0  0  0  0  0
   37.1410   26.5840   35.0630 C   0  0  0  0  0  0  0  0  0  0  0  0
   38.1880   25.8710   35.8550 C   0  0  0  0  0  0  0  0  0  0  0  0
   37.9430   23.6160   37.8350 C   0  0  0  0  0  0  0  0  0  0  0  0
   37.8330   22.7600   38.9470 F   0  0  0  0  0  0  0  0  0  0  0  0
   36.9200   23.3170   37.0040 F   0  0  0  0  0  0  0  0  0  0  0  0
   37.9080   24.9000   38.3780 F   0  0  0  0  0  0  0  0  0  0  0  0
   43.0060   22.6120   35.3380 C   0  0  0  0  0  0  0  0  0  0  0  0
   43.0340   21.3850   34.7130 F   0  0  0  0  0  0  0  0  0  0  0  0
   43.1430   23.5470   34.3320 F   0  0  0  0  0  0  0  0  0  0  0  0
   44.0790   22.6310   36.2300 F   0  0  0  0  0  0  0  0  0  0  0  0
   40.0980   22.1392   38.8566 H   0  0  0  0  0  0  0  0  0  0  0  0
   38.5406   23.6221   33.3834 H   0  0  0  0  0  0  0  0  0  0  0  0
   36.9530   24.1204   34.0542 H   0  0  0  0  0  0  0  0  0  0  0  0
   37.6333   25.5358   32.1303 H   0  0  0  0  0  0  0  0  0  0  0  0
   39.1322   26.0013   33.0495 H   0  0  0  0  0  0  0  0  0  0  0  0
   37.0126   27.5852   35.5001 H   0  0  0  0  0  0  0  0  0  0  0  0
   36.2446   25.9489   35.1187 H   0  0  0  0  0  0  0  0  0  0  0  0
   37.7791   25.6393   36.8496 H   0  0  0  0  0  0  0  0  0  0  0  0
   39.0639   26.5335   35.9176 H   0  0  0  0  0  0  0  0  0  0  0  0
  2 13  1  0
  2  1  2  0
  3  2  1  0
  4  3  2  0
  4  5  1  0
  5  6  2  0
  6  1  1  0
  7 12  1  0
  7  3  1  0
  8  7  1  0
  9 10  1  0
  9  8  1  0
 10 11  1  0
 11 12  1  0
 13 16  1  0
 13 14  1  0
 15 13  1  0
 17  5  1  0
 17 20  1  0
 18 17  1  0
 19 17  1  0
  1 21  1  0
  8 22  1  0
  8 23  1  0
  9 24  1  0
  9 25  1  0
 11 26  1  0
 11 27  1  0
 12 28  1  0
 12 29  1  0
M  ISO  8  21  14  22  13  23  13  24  13  25  13  26  13  27  13  28  13
M  ISO  1  29  13
M  END
>  <minimizedAffinity>  (1) 
-4.98185015

>  <minimizedRMSD>  (1) 
1.74536812

$$$$
