
     RDKit          3D

 23 23  0  0  0  0  0  0  0  0999 V2000
   40.4010   22.4030   37.7290 C   0  0  0  0  0  0  0  0  0  0  0  0
   39.2890   23.2270   37.4670 C   0  0  0  0  0  0  0  0  0  0  0  0
   39.0090   23.4930   36.1370 C   0  0  0  0  0  0  0  0  0  0  0  0
   39.8050   22.9550   35.1770 N   0  0  0  0  0  0  0  0  0  0  0  0
   40.8610   22.1690   35.4780 C   0  0  0  0  0  0  0  0  0  0  0  0
   41.1490   21.9000   36.7610 N   0  0  0  0  0  0  0  0  0  0  0  0
   37.9230   24.3030   35.6940 N   0  0  0  0  0  0  0  0  0  0  0  0
   38.1150   25.6330   35.2040 C   0  0  0  0  0  0  0  0  0  0  0  0
   39.2710   26.2250   35.3950 N   0  0  0  0  0  0  0  0  0  0  0  0
   37.1390   26.3660   34.5200 N   0  0  0  0  0  0  0  0  0  0  0  0
   39.4900   27.1770   35.0750 H   0  0  0  0  0  0  0  0  0  0  0  0
   38.4120   23.8210   38.5120 C   0  0  0  0  0  0  0  0  0  0  0  0
   39.1760   23.8140   39.6950 F   0  0  0  0  0  0  0  0  0  0  0  0
   37.3040   23.0690   38.7440 F   0  0  0  0  0  0  0  0  0  0  0  0
   38.1690   25.1610   38.2710 F   0  0  0  0  0  0  0  0  0  0  0  0
   41.6600   21.6380   34.3280 C   0  0  0  0  0  0  0  0  0  0  0  0
   40.8530   21.1790   33.3160 F   0  0  0  0  0  0  0  0  0  0  0  0
   42.4310   22.6400   33.7960 F   0  0  0  0  0  0  0  0  0  0  0  0
   42.4420   20.5550   34.7240 F   0  0  0  0  0  0  0  0  0  0  0  0
   40.6558   22.1701   38.7734 H   0  0  0  0  0  0  0  0  0  0  0  0
   36.9683   23.9178   35.7279 H   0  0  0  0  0  0  0  0  0  0  0  0
   36.2134   25.9507   34.3422 H   0  0  0  0  0  0  0  0  0  0  0  0
   37.3461   27.3209   34.1943 H   0  0  0  0  0  0  0  0  0  0  0  0
  2  1  2  0
  2 12  1  0
  3  2  1  0
  4  5  1  0
  4  3  2  0
  5  6  2  0
  6  1  1  0
  7  3  1  0
  8  9  2  0
  8  7  1  0
 10  8  1  0
 11  9  1  0
 12 14  1  0
 12 13  1  0
 15 12  1  0
 16 19  1  0
 16  5  1  0
 17 16  1  0
 18 16  1  0
  1 20  1  0
  7 21  1  0
 10 22  1  0
 10 23  1  0
M  ISO  1  20  14
M  END
>  <minimizedAffinity>  (1) 
-4.75798988

>  <minimizedRMSD>  (1) 
0.450259268

$$$$
