
     RDKit          3D

 29 30  0  0  0  0  0  0  0  0999 V2000
   40.2080   22.5940   37.7580 C   0  0  0  0  0  0  0  0  0  0  0  0
   39.1030   23.3620   37.3960 C   0  0  0  0  0  0  0  0  0  0  0  0
   39.2330   24.1670   36.2750 C   0  0  0  0  0  0  0  0  0  0  0  0
   40.4070   24.1730   35.5880 N   0  0  0  0  0  0  0  0  0  0  0  0
   41.4570   23.4040   35.9840 C   0  0  0  0  0  0  0  0  0  0  0  0
   41.3370   22.6330   37.0570 N   0  0  0  0  0  0  0  0  0  0  0  0
   38.1580   25.0490   35.7470 C   0  0  0  0  0  0  0  0  0  0  0  0
   38.3450   26.4570   36.2480 C   0  0  0  0  0  0  0  0  0  0  0  0
   38.7260   27.3040   35.0530 C   0  0  0  0  0  0  0  0  0  0  0  0
   39.0050   26.3760   33.9110 C   0  0  0  0  0  0  0  0  0  0  0  0
   38.2190   25.1330   34.2430 C   0  0  0  0  0  0  0  0  0  0  0  0
   37.8050   23.3780   38.1230 C   0  0  0  0  0  0  0  0  0  0  0  0
   37.9390   22.4610   39.1810 F   0  0  0  0  0  0  0  0  0  0  0  0
   36.7650   22.9360   37.3480 F   0  0  0  0  0  0  0  0  0  0  0  0
   37.5590   24.5950   38.7360 F   0  0  0  0  0  0  0  0  0  0  0  0
   42.7040   23.4840   35.1600 C   0  0  0  0  0  0  0  0  0  0  0  0
   42.4310   23.8490   33.8600 F   0  0  0  0  0  0  0  0  0  0  0  0
   43.5330   24.4590   35.6820 F   0  0  0  0  0  0  0  0  0  0  0  0
   43.3380   22.2430   35.1100 F   0  0  0  0  0  0  0  0  0  0  0  0
   40.1448   21.9422   38.6418 H   0  0  0  0  0  0  0  0  0  0  0  0
   37.2016   24.6205   36.0811 H   0  0  0  0  0  0  0  0  0  0  0  0
   37.4090   26.8279   36.6911 H   0  0  0  0  0  0  0  0  0  0  0  0
   39.1244   26.4980   37.0232 H   0  0  0  0  0  0  0  0  0  0  0  0
   37.8982   27.9802   34.7933 H   0  0  0  0  0  0  0  0  0  0  0  0
   39.6120   27.9154   35.2794 H   0  0  0  0  0  0  0  0  0  0  0  0
   40.0798   26.1516   33.8445 H   0  0  0  0  0  0  0  0  0  0  0  0
   38.7211   26.8067   32.9395 H   0  0  0  0  0  0  0  0  0  0  0  0
   37.2037   25.2035   33.8256 H   0  0  0  0  0  0  0  0  0  0  0  0
   38.6942   24.2379   33.8153 H   0  0  0  0  0  0  0  0  0  0  0  0
  2  1  2  0
  2 12  1  0
  3  2  1  0
  4  5  1  0
  4  3  2  0
  5  6  2  0
  6  1  1  0
  7  8  1  0
  7  3  1  0
  9  8  1  0
 10 11  1  0
 10  9  1  0
 11  7  1  0
 12 15  1  0
 12 13  1  0
 14 12  1  0
 16 18  1  0
 16  5  1  0
 17 16  1  0
 19 16  1  0
  1 20  1  0
  7 21  1  0
  8 22  1  0
  8 23  1  0
  9 24  1  0
  9 25  1  0
 10 26  1  0
 10 27  1  0
 11 28  1  0
 11 29  1  0
M  ISO  8  20  14  21  13  22  13  23  13  24  13  25  13  26  13  27  13
M  ISO  2  28  13  29  13
M  END
>  <minimizedAffinity>  (1) 
-4.87516975

>  <minimizedRMSD>  (1) 
1.72654235

$$$$
