
     RDKit          3D

 23 24  0  0  0  0  0  0  0  0999 V2000
   40.2030   22.3080   37.6730 C   0  0  0  0  0  0  0  0  0  0  0  0
   39.3740   23.3520   37.2520 C   0  0  0  0  0  0  0  0  0  0  0  0
   39.8320   24.1450   36.2120 C   0  0  0  0  0  0  0  0  0  0  0  0
   41.0460   23.8780   35.6570 N   0  0  0  0  0  0  0  0  0  0  0  0
   41.8130   22.8470   36.1070 C   0  0  0  0  0  0  0  0  0  0  0  0
   41.3860   22.0820   37.1010 N   0  0  0  0  0  0  0  0  0  0  0  0
   39.1120   25.2450   35.6660 N   0  0  0  0  0  0  0  0  0  0  0  0
   39.4760   26.3130   34.9590 C   0  0  0  0  0  0  0  0  0  0  0  0
   38.3450   27.0750   34.6870 C   0  0  0  0  0  0  0  0  0  0  0  0
   37.2990   26.4190   35.2610 N   0  0  0  0  0  0  0  0  0  0  0  0
   37.7670   25.2950   35.8620 C   0  0  0  0  0  0  0  0  0  0  0  0
   38.0410   23.6670   37.8430 C   0  0  0  0  0  0  0  0  0  0  0  0
   37.8920   22.8040   38.9410 F   0  0  0  0  0  0  0  0  0  0  0  0
   37.0110   23.4010   36.9820 F   0  0  0  0  0  0  0  0  0  0  0  0
   38.0130   24.9450   38.3870 F   0  0  0  0  0  0  0  0  0  0  0  0
   43.1360   22.6360   35.4260 C   0  0  0  0  0  0  0  0  0  0  0  0
   43.2010   23.3490   34.2330 F   0  0  0  0  0  0  0  0  0  0  0  0
   44.1440   23.1470   36.2200 F   0  0  0  0  0  0  0  0  0  0  0  0
   43.3280   21.3050   35.1100 F   0  0  0  0  0  0  0  0  0  0  0  0
   39.8714   21.6575   38.4957 H   0  0  0  0  0  0  0  0  0  0  0  0
   40.5018   26.5529   34.6424 H   0  0  0  0  0  0  0  0  0  0  0  0
   38.3037   28.0179   34.1219 H   0  0  0  0  0  0  0  0  0  0  0  0
   37.1649   24.5556   36.4104 H   0  0  0  0  0  0  0  0  0  0  0  0
  2  1  2  0
  2 12  1  0
  3  2  1  0
  4  5  1  0
  4  3  2  0
  5  6  2  0
  6  1  1  0
  7 11  1  0
  7  3  1  0
  8  7  1  0
  9  8  2  0
  9 10  1  0
 10 11  2  0
 12 15  1  0
 12 13  1  0
 14 12  1  0
 16  5  1  0
 16 18  1  0
 17 16  1  0
 19 16  1  0
  1 20  1  0
  8 21  1  0
  9 22  1  0
 11 23  1  0
M  ISO  4  20  14  21  14  22  14  23  14
M  END
>  <minimizedAffinity>  (1) 
-4.65492153

>  <minimizedRMSD>  (1) 
2.08524179

$$$$
