
     RDKit          3D

 19 19  0  0  0  0  0  0  0  0999 V2000
   40.2820   22.4810   37.7900 C   0  0  0  0  0  0  0  0  0  0  0  0
   39.2580   23.3170   37.2830 C   0  0  0  0  0  0  0  0  0  0  0  0
   39.5240   24.0290   36.1320 C   0  0  0  0  0  0  0  0  0  0  0  0
   40.7600   23.8750   35.5650 N   0  0  0  0  0  0  0  0  0  0  0  0
   41.7030   23.0720   36.0790 C   0  0  0  0  0  0  0  0  0  0  0  0
   41.4550   22.3850   37.1820 N   0  0  0  0  0  0  0  0  0  0  0  0
   37.9170   23.4760   37.9260 C   0  0  0  0  0  0  0  0  0  0  0  0
   37.9380   22.6530   39.0720 F   0  0  0  0  0  0  0  0  0  0  0  0
   36.9080   23.0360   37.1390 F   0  0  0  0  0  0  0  0  0  0  0  0
   37.7530   24.7540   38.4450 F   0  0  0  0  0  0  0  0  0  0  0  0
   43.0070   23.0030   35.3480 C   0  0  0  0  0  0  0  0  0  0  0  0
   43.0040   21.9850   34.3980 F   0  0  0  0  0  0  0  0  0  0  0  0
   43.2320   24.1730   34.6690 F   0  0  0  0  0  0  0  0  0  0  0  0
   44.0470   22.6770   36.2190 F   0  0  0  0  0  0  0  0  0  0  0  0
   38.6090   24.9150   35.4320 C   0  0  0  0  0  0  0  0  0  0  0  0
   37.8470   24.7200   34.4750 O   0  0  0  0  0  0  0  0  0  0  0  0
   38.4470   26.2410   35.7790 O   0  0  0  0  0  0  0  0  0  0  0  0
   40.1001   21.9001   38.7062 H   0  0  0  0  0  0  0  0  0  0  0  0
   37.8126   26.8105   35.2756 H   0  0  0  0  0  0  0  0  0  0  0  0
  2  1  2  0
  2  7  1  0
  3  2  1  0
  4  5  1  0
  4  3  2  0
  5  6  2  0
  6  1  1  0
  7 10  1  0
  7  8  1  0
  9  7  1  0
 11  5  1  0
 11 14  1  0
 12 11  1  0
 13 11  1  0
 15 17  1  0
 15  3  1  0
 16 15  2  0
  1 18  1  0
 17 19  1  0
M  ISO  2  18  14  19   3
M  END
>  <minimizedAffinity>  (1) 
-4.09709263

>  <minimizedRMSD>  (1) 
1.81599915

$$$$
