
     RDKit          3D

 25 25  0  0  0  0  0  0  0  0999 V2000
   40.2120   22.7020   37.5760 C   0  0  0  0  0  0  0  0  0  0  0  0
   39.0850   23.4800   37.2940 C   0  0  0  0  0  0  0  0  0  0  0  0
   39.1520   24.3280   36.2050 C   0  0  0  0  0  0  0  0  0  0  0  0
   40.2970   24.3540   35.4820 N   0  0  0  0  0  0  0  0  0  0  0  0
   41.3690   23.5890   35.7810 C   0  0  0  0  0  0  0  0  0  0  0  0
   41.3130   22.7720   36.8260 N   0  0  0  0  0  0  0  0  0  0  0  0
   37.8300   23.4390   38.0800 C   0  0  0  0  0  0  0  0  0  0  0  0
   38.0550   22.5400   39.1430 F   0  0  0  0  0  0  0  0  0  0  0  0
   36.7830   22.9050   37.3650 F   0  0  0  0  0  0  0  0  0  0  0  0
   37.5370   24.6190   38.7000 F   0  0  0  0  0  0  0  0  0  0  0  0
   42.5800   23.7100   34.9060 C   0  0  0  0  0  0  0  0  0  0  0  0
   42.2290   23.9560   33.6020 F   0  0  0  0  0  0  0  0  0  0  0  0
   43.3160   24.8150   35.3120 F   0  0  0  0  0  0  0  0  0  0  0  0
   43.3400   22.5610   34.9370 F   0  0  0  0  0  0  0  0  0  0  0  0
   38.0750   25.2350   35.7510 C   0  0  0  0  0  0  0  0  0  0  0  0
   38.3750   26.6820   36.1180 C   0  0  0  0  0  0  0  0  0  0  0  0
   37.8860   25.2890   34.2770 C   0  0  0  0  0  0  0  0  0  0  0  0
   40.1903   22.0165   38.4360 H   0  0  0  0  0  0  0  0  0  0  0  0
   37.1851   24.8184   36.2454 H   0  0  0  0  0  0  0  0  0  0  0  0
   38.3965   26.7857   37.2129 H   0  0  0  0  0  0  0  0  0  0  0  0
   39.3521   26.9705   35.7031 H   0  0  0  0  0  0  0  0  0  0  0  0
   37.5932   27.3352   35.7031 H   0  0  0  0  0  0  0  0  0  0  0  0
   36.8510   25.5847   34.0506 H   0  0  0  0  0  0  0  0  0  0  0  0
   38.5804   26.0247   33.8450 H   0  0  0  0  0  0  0  0  0  0  0  0
   38.0869   24.2975   33.8450 H   0  0  0  0  0  0  0  0  0  0  0  0
  2  1  2  0
  2  7  1  0
  3  2  1  0
  4  5  1  0
  4  3  2  0
  5  6  2  0
  6  1  1  0
  7 10  1  0
  7  8  1  0
  9  7  1  0
 11 14  1  0
 11 13  1  0
 11  5  1  0
 12 11  1  0
 15 16  1  0
 15  3  1  0
 17 15  1  0
  1 18  1  0
 15 19  1  0
 16 20  1  0
 16 21  1  0
 16 22  1  0
 17 23  1  0
 17 24  1  0
 17 25  1  0
M  ISO  8  18  14  19   8  20   8  21   8  22   8  23   8  24   8  25   8
M  END
>  <minimizedAffinity>  (1) 
-4.31387329

>  <minimizedRMSD>  (1) 
1.8310827

$$$$
