
     RDKit          3D

 28 29  0  0  0  0  0  0  0  0999 V2000
   40.6690   22.3260   37.8370 C   0  0  0  0  0  0  0  0  0  0  0  0
   39.5270   22.9520   37.2900 C   0  0  0  0  0  0  0  0  0  0  0  0
   39.4010   22.8720   35.9360 C   0  0  0  0  0  0  0  0  0  0  0  0
   40.3260   22.2280   35.1770 N   0  0  0  0  0  0  0  0  0  0  0  0
   41.3980   21.6460   35.7490 C   0  0  0  0  0  0  0  0  0  0  0  0
   41.5370   21.7130   37.0630 N   0  0  0  0  0  0  0  0  0  0  0  0
   38.4870   23.6730   38.0650 C   0  0  0  0  0  0  0  0  0  0  0  0
   39.0020   23.8160   39.3580 F   0  0  0  0  0  0  0  0  0  0  0  0
   37.3360   22.9210   38.2010 F   0  0  0  0  0  0  0  0  0  0  0  0
   38.3000   24.9450   37.6060 F   0  0  0  0  0  0  0  0  0  0  0  0
   42.3900   20.9330   34.8720 C   0  0  0  0  0  0  0  0  0  0  0  0
   41.7800   20.5810   33.6510 F   0  0  0  0  0  0  0  0  0  0  0  0
   43.3930   21.8320   34.5200 F   0  0  0  0  0  0  0  0  0  0  0  0
   42.8520   19.7690   35.4340 F   0  0  0  0  0  0  0  0  0  0  0  0
   38.2990   23.3910   35.1450 C   0  0  0  0  0  0  0  0  0  0  0  0
   37.9330   24.5390   34.7770 O   0  0  0  0  0  0  0  0  0  0  0  0
   37.3910   22.3170   34.6520 C   0  0  0  0  0  0  0  0  0  0  0  0
   36.6050   21.6010   35.5880 C   0  0  0  0  0  0  0  0  0  0  0  0
   35.7400   20.6110   35.1760 C   0  0  0  0  0  0  0  0  0  0  0  0
   35.6130   20.2870   33.8240 C   0  0  0  0  0  0  0  0  0  0  0  0
   36.3830   20.9880   32.8930 C   0  0  0  0  0  0  0  0  0  0  0  0
   37.2300   21.9630   33.3500 C   0  0  0  0  0  0  0  0  0  0  0  0
   40.8341   22.3517   38.9242 H   0  0  0  0  0  0  0  0  0  0  0  0
   36.6864   21.8388   36.6589 H   0  0  0  0  0  0  0  0  0  0  0  0
   35.1413   20.0685   35.9225 H   0  0  0  0  0  0  0  0  0  0  0  0
   34.9210   19.4962   33.4987 H   0  0  0  0  0  0  0  0  0  0  0  0
   36.3110   20.7626   31.8187 H   0  0  0  0  0  0  0  0  0  0  0  0
   37.8286   22.5034   32.6019 H   0  0  0  0  0  0  0  0  0  0  0  0
  2  1  2  0
  2  7  1  0
  3  2  1  0
  4  5  1  0
  4  3  2  0
  5  6  2  0
  6  1  1  0
  7  9  1  0
  7  8  1  0
 10  7  1  0
 11 14  1  0
 11  5  1  0
 12 11  1  0
 13 11  1  0
 15  3  1  0
 16 15  2  0
 17 15  1  0
 17 18  2  0
 19 18  1  0
 20 19  2  0
 21 22  2  0
 21 20  1  0
 22 17  1  0
  1 23  1  0
 18 24  1  0
 19 25  1  0
 20 26  1  0
 21 27  1  0
 22 28  1  0
M  ISO  6  23  14  24  14  25  14  26  14  27  14  28  14
M  END
>  <minimizedAffinity>  (1) 
-5.10845375

>  <minimizedRMSD>  (1) 
1.49668932

$$$$
