
     RDKit          3D

 18 18  0  0  0  0  0  0  0  0999 V2000
   40.4160   22.3730   37.7270 C   0  0  0  0  0  0  0  0  0  0  0  0
   39.3110   23.2080   37.4660 C   0  0  0  0  0  0  0  0  0  0  0  0
   39.0400   23.4720   36.1400 C   0  0  0  0  0  0  0  0  0  0  0  0
   39.8240   22.9360   35.1760 N   0  0  0  0  0  0  0  0  0  0  0  0
   40.8700   22.1450   35.4640 C   0  0  0  0  0  0  0  0  0  0  0  0
   41.1390   21.8840   36.7320 N   0  0  0  0  0  0  0  0  0  0  0  0
   38.4310   23.8090   38.5080 C   0  0  0  0  0  0  0  0  0  0  0  0
   39.1930   23.8270   39.6880 F   0  0  0  0  0  0  0  0  0  0  0  0
   37.3320   23.0380   38.7590 F   0  0  0  0  0  0  0  0  0  0  0  0
   38.1600   25.1380   38.2430 F   0  0  0  0  0  0  0  0  0  0  0  0
   41.6880   21.5920   34.3390 C   0  0  0  0  0  0  0  0  0  0  0  0
   40.8620   21.0140   33.3770 F   0  0  0  0  0  0  0  0  0  0  0  0
   42.3160   22.6450   33.6810 F   0  0  0  0  0  0  0  0  0  0  0  0
   42.5640   20.6220   34.7580 F   0  0  0  0  0  0  0  0  0  0  0  0
   37.9670   24.2860   35.6570 C   0  0  0  0  0  0  0  0  0  0  0  0
   37.7810   25.3910   35.1300 O   0  0  0  0  0  0  0  0  0  0  0  0
   40.6797   22.1257   38.7659 H   0  0  0  0  0  0  0  0  0  0  0  0
   37.0068   23.7681   35.7979 H   0  0  0  0  0  0  0  0  0  0  0  0
  2  1  2  0
  2  7  1  0
  3  2  1  0
  4  5  1  0
  4  3  2  0
  5  6  2  0
  6  1  1  0
  7  9  1  0
  7  8  1  0
 10  7  1  0
 11 14  1  0
 11  5  1  0
 12 11  1  0
 13 11  1  0
 15  3  1  0
 16 15  2  0
  1 17  1  0
 15 18  1  0
M  ISO  2  17  14  18   6
M  END
>  <minimizedAffinity>  (1) 
-4.05736732

>  <minimizedRMSD>  (1) 
0.527476251

$$$$
