
     RDKit          3D

 29 31  0  0  0  0  0  0  0  0999 V2000
   40.3860   22.6270   37.7660 C   0  0  0  0  0  0  0  0  0  0  0  0
   39.2400   23.2500   37.2220 C   0  0  0  0  0  0  0  0  0  0  0  0
   39.3590   23.7510   35.9400 C   0  0  0  0  0  0  0  0  0  0  0  0
   40.5360   23.6240   35.2900 N   0  0  0  0  0  0  0  0  0  0  0  0
   41.6040   23.0300   35.8300 C   0  0  0  0  0  0  0  0  0  0  0  0
   41.5100   22.5410   37.0600 N   0  0  0  0  0  0  0  0  0  0  0  0
   37.9390   23.3950   37.9190 C   0  0  0  0  0  0  0  0  0  0  0  0
   38.0750   22.6890   39.1270 F   0  0  0  0  0  0  0  0  0  0  0  0
   36.9170   22.8020   37.2450 F   0  0  0  0  0  0  0  0  0  0  0  0
   37.7020   24.6950   38.2910 F   0  0  0  0  0  0  0  0  0  0  0  0
   42.8660   22.9310   35.0340 C   0  0  0  0  0  0  0  0  0  0  0  0
   42.6180   22.2760   33.8180 F   0  0  0  0  0  0  0  0  0  0  0  0
   43.2680   24.2030   34.6780 F   0  0  0  0  0  0  0  0  0  0  0  0
   43.8400   22.1940   35.6710 F   0  0  0  0  0  0  0  0  0  0  0  0
   38.3290   24.3970   35.1790 C   0  0  0  0  0  0  0  0  0  0  0  0
   37.7330   25.5110   35.2710 O   0  0  0  0  0  0  0  0  0  0  0  0
   37.2200   24.3550   30.5720 N   0  0  0  0  0  0  0  0  0  0  0  0
   37.6750   25.5530   30.9810 C   0  0  0  0  0  0  0  0  0  0  0  0
   37.9520   25.4520   32.2930 N   0  0  0  0  0  0  0  0  0  0  0  0
   37.6840   24.2130   32.7390 C   0  0  0  0  0  0  0  0  0  0  0  0
   37.8080   23.6370   34.0060 C   0  0  0  0  0  0  0  0  0  0  0  0
   37.4400   22.3680   34.0620 N   0  0  0  0  0  0  0  0  0  0  0  0
   36.9850   21.6770   33.0040 C   0  0  0  0  0  0  0  0  0  0  0  0
   36.8720   22.2490   31.7920 N   0  0  0  0  0  0  0  0  0  0  0  0
   37.2220   23.5320   31.6340 C   0  0  0  0  0  0  0  0  0  0  0  0
   40.3481   22.2093   38.7829 H   0  0  0  0  0  0  0  0  0  0  0  0
   36.9233   24.1121   29.6160 H   0  0  0  0  0  0  0  0  0  0  0  0
   37.7979   26.4504   30.3569 H   0  0  0  0  0  0  0  0  0  0  0  0
   36.6991   20.6224   33.1313 H   0  0  0  0  0  0  0  0  0  0  0  0
  2  1  2  0
  2  7  1  0
  3  2  1  0
  4  5  1  0
  4  3  2  0
  5  6  2  0
  6  1  1  0
  7 10  1  0
  7  8  1  0
  9  7  1  0
 11 14  1  0
 11  5  1  0
 12 11  1  0
 13 11  1  0
 15 16  2  0
 15  3  1  0
 17 18  1  0
 17 25  1  0
 18 19  2  0
 19 20  1  0
 20 21  2  0
 21 22  1  0
 21 15  1  0
 23 22  2  0
 24 23  1  0
 25 24  2  0
 25 20  1  0
  1 26  1  0
 17 27  1  0
 18 28  1  0
 23 29  1  0
M  ISO  4  26  14  27   9  28  14  29  14
M  END
>  <minimizedAffinity>  (1) 
-5.31494761

>  <minimizedRMSD>  (1) 
2.41849208

$$$$
