
     RDKit          3D

 26 27  0  0  0  0  0  0  0  0999 V2000
   40.6410   22.4070   37.8190 C   0  0  0  0  0  0  0  0  0  0  0  0
   39.5180   22.9760   37.1960 C   0  0  0  0  0  0  0  0  0  0  0  0
   39.4330   22.8310   35.8230 C   0  0  0  0  0  0  0  0  0  0  0  0
   40.4080   22.1650   35.1510 N   0  0  0  0  0  0  0  0  0  0  0  0
   41.4700   21.6340   35.8000 C   0  0  0  0  0  0  0  0  0  0  0  0
   41.5570   21.7700   37.1150 N   0  0  0  0  0  0  0  0  0  0  0  0
   38.4250   23.7040   37.8870 C   0  0  0  0  0  0  0  0  0  0  0  0
   38.8540   23.8530   39.2140 F   0  0  0  0  0  0  0  0  0  0  0  0
   37.2700   22.9730   37.9430 F   0  0  0  0  0  0  0  0  0  0  0  0
   38.2710   24.9770   37.4070 F   0  0  0  0  0  0  0  0  0  0  0  0
   42.5040   20.9060   35.0030 C   0  0  0  0  0  0  0  0  0  0  0  0
   41.9610   20.4740   33.7840 F   0  0  0  0  0  0  0  0  0  0  0  0
   43.4900   21.7990   34.6360 F   0  0  0  0  0  0  0  0  0  0  0  0
   42.9750   19.7920   35.6460 F   0  0  0  0  0  0  0  0  0  0  0  0
   38.3680   23.2790   34.9760 C   0  0  0  0  0  0  0  0  0  0  0  0
   38.0220   24.3880   34.4820 O   0  0  0  0  0  0  0  0  0  0  0  0
   37.3860   22.2620   34.5150 C   0  0  0  0  0  0  0  0  0  0  0  0
   37.1510   21.9360   33.2010 C   0  0  0  0  0  0  0  0  0  0  0  0
   36.2340   20.9630   32.8210 C   0  0  0  0  0  0  0  0  0  0  0  0
   35.5410   20.3010   33.7630 N   0  0  0  0  0  0  0  0  0  0  0  0
   35.7570   20.6030   35.0430 C   0  0  0  0  0  0  0  0  0  0  0  0
   36.6450   21.5480   35.3930 N   0  0  0  0  0  0  0  0  0  0  0  0
   40.7583   22.4938   38.9093 H   0  0  0  0  0  0  0  0  0  0  0  0
   37.7117   22.4669   32.4176 H   0  0  0  0  0  0  0  0  0  0  0  0
   36.0766   20.7364   31.7562 H   0  0  0  0  0  0  0  0  0  0  0  0
   35.1985   20.0693   35.8261 H   0  0  0  0  0  0  0  0  0  0  0  0
  2  1  2  0
  2  7  1  0
  3  2  1  0
  4  5  1  0
  4  3  2  0
  5  6  2  0
  6  1  1  0
  7  9  1  0
  7  8  1  0
 10  7  1  0
 11 14  1  0
 11  5  1  0
 12 11  1  0
 13 11  1  0
 15  3  1  0
 16 15  2  0
 17 15  1  0
 17 22  1  0
 18 17  2  0
 19 18  1  0
 19 20  2  0
 20 21  1  0
 21 22  2  0
  1 23  1  0
 18 24  1  0
 19 25  1  0
 21 26  1  0
M  ISO  4  23  14  24  14  25  14  26  14
M  END
>  <minimizedAffinity>  (1) 
-4.83533621

>  <minimizedRMSD>  (1) 
1.62434363

$$$$
