
     RDKit          3D

 32 34  0  0  0  0  0  0  0  0999 V2000
   40.2310   22.5970   37.9050 C   0  0  0  0  0  0  0  0  0  0  0  0
   39.1510   23.2530   37.2880 C   0  0  0  0  0  0  0  0  0  0  0  0
   39.4050   23.8290   36.0540 C   0  0  0  0  0  0  0  0  0  0  0  0
   40.6470   23.7360   35.5190 N   0  0  0  0  0  0  0  0  0  0  0  0
   41.6510   23.0990   36.1460 C   0  0  0  0  0  0  0  0  0  0  0  0
   41.4170   22.5420   37.3320 N   0  0  0  0  0  0  0  0  0  0  0  0
   37.7800   23.3640   37.8600 C   0  0  0  0  0  0  0  0  0  0  0  0
   37.7800   22.5830   39.0140 F   0  0  0  0  0  0  0  0  0  0  0  0
   36.8360   22.8270   37.0170 F   0  0  0  0  0  0  0  0  0  0  0  0
   37.5110   24.6390   38.2800 F   0  0  0  0  0  0  0  0  0  0  0  0
   42.9940   23.0400   35.4930 C   0  0  0  0  0  0  0  0  0  0  0  0
   42.8960   22.3860   34.2610 F   0  0  0  0  0  0  0  0  0  0  0  0
   43.3940   24.3250   35.1840 F   0  0  0  0  0  0  0  0  0  0  0  0
   43.9110   22.3440   36.2290 F   0  0  0  0  0  0  0  0  0  0  0  0
   38.4570   24.5350   35.2500 C   0  0  0  0  0  0  0  0  0  0  0  0
   37.7610   25.5540   35.3800 O   0  0  0  0  0  0  0  0  0  0  0  0
   38.2060   23.9430   33.9140 C   0  0  0  0  0  0  0  0  0  0  0  0
   37.5530   22.7200   33.7270 C   0  0  0  0  0  0  0  0  0  0  0  0
   37.4710   22.4430   32.4100 N   0  0  0  0  0  0  0  0  0  0  0  0
   38.0520   23.4530   31.7310 C   0  0  0  0  0  0  0  0  0  0  0  0
   38.2400   23.6730   30.3810 C   0  0  0  0  0  0  0  0  0  0  0  0
   38.8900   24.8350   29.9820 C   0  0  0  0  0  0  0  0  0  0  0  0
   39.3490   25.7700   30.9100 C   0  0  0  0  0  0  0  0  0  0  0  0
   39.1420   25.5150   32.2620 C   0  0  0  0  0  0  0  0  0  0  0  0
   38.5050   24.3760   32.6530 C   0  0  0  0  0  0  0  0  0  0  0  0
   40.0833   22.1203   38.8853 H   0  0  0  0  0  0  0  0  0  0  0  0
   37.1648   22.0804   34.5333 H   0  0  0  0  0  0  0  0  0  0  0  0
   37.0394   21.6052   31.9945 H   0  0  0  0  0  0  0  0  0  0  0  0
   37.8833   22.9448   29.6377 H   0  0  0  0  0  0  0  0  0  0  0  0
   39.0462   25.0217   28.9093 H   0  0  0  0  0  0  0  0  0  0  0  0
   39.8617   26.6859   30.5811 H   0  0  0  0  0  0  0  0  0  0  0  0
   39.4933   26.2343   33.0165 H   0  0  0  0  0  0  0  0  0  0  0  0
  2  7  1  0
  2  1  2  0
  3  2  1  0
  4  3  2  0
  4  5  1  0
  5  6  2  0
  6  1  1  0
  7 10  1  0
  7  8  1  0
  9  7  1  0
 11  5  1  0
 11 14  1  0
 12 11  1  0
 13 11  1  0
 15 16  2  0
 15  3  1  0
 17 15  1  0
 18 17  2  0
 19 18  1  0
 20 19  1  0
 20 25  2  0
 21 20  1  0
 22 21  2  0
 22 23  1  0
 23 24  2  0
 24 25  1  0
 25 17  1  0
  1 26  1  0
 18 27  1  0
 19 28  1  0
 21 29  1  0
 22 30  1  0
 23 31  1  0
 24 32  1  0
M  ISO  7  26  14  27  14  28   9  29  14  30  14  31  14  32  14
M  END
>  <minimizedAffinity>  (1) 
-5.01008844

>  <minimizedRMSD>  (1) 
3.4552319

$$$$
