
     RDKit          3D

 27 28  0  0  0  0  0  0  0  0999 V2000
   40.7080   22.3840   37.7960 C   0  0  0  0  0  0  0  0  0  0  0  0
   39.5530   22.9380   37.2130 C   0  0  0  0  0  0  0  0  0  0  0  0
   39.4240   22.8030   35.8420 C   0  0  0  0  0  0  0  0  0  0  0  0
   40.3920   22.1590   35.1470 N   0  0  0  0  0  0  0  0  0  0  0  0
   41.4780   21.6430   35.7410 C   0  0  0  0  0  0  0  0  0  0  0  0
   41.6110   21.7690   37.0500 N   0  0  0  0  0  0  0  0  0  0  0  0
   38.4790   23.6440   37.9550 C   0  0  0  0  0  0  0  0  0  0  0  0
   38.9390   23.7600   39.2720 F   0  0  0  0  0  0  0  0  0  0  0  0
   37.3220   22.9090   38.0250 F   0  0  0  0  0  0  0  0  0  0  0  0
   38.3020   24.9270   37.5090 F   0  0  0  0  0  0  0  0  0  0  0  0
   42.4970   20.9440   34.8950 C   0  0  0  0  0  0  0  0  0  0  0  0
   41.9230   20.5560   33.6740 F   0  0  0  0  0  0  0  0  0  0  0  0
   43.4900   21.8400   34.5560 F   0  0  0  0  0  0  0  0  0  0  0  0
   42.9590   19.7890   35.4850 F   0  0  0  0  0  0  0  0  0  0  0  0
   38.3350   23.2760   35.0330 C   0  0  0  0  0  0  0  0  0  0  0  0
   38.0020   24.4290   34.6280 O   0  0  0  0  0  0  0  0  0  0  0  0
   37.3690   22.2680   34.5310 C   0  0  0  0  0  0  0  0  0  0  0  0
   36.6050   21.4670   35.3550 C   0  0  0  0  0  0  0  0  0  0  0  0
   35.7030   20.5390   34.8730 C   0  0  0  0  0  0  0  0  0  0  0  0
   35.5430   20.3900   33.5150 C   0  0  0  0  0  0  0  0  0  0  0  0
   36.3050   21.1870   32.6950 C   0  0  0  0  0  0  0  0  0  0  0  0
   37.1640   22.0720   33.2140 N   0  0  0  0  0  0  0  0  0  0  0  0
   40.8614   22.4631   38.8824 H   0  0  0  0  0  0  0  0  0  0  0  0
   36.7195   21.5723   36.4439 H   0  0  0  0  0  0  0  0  0  0  0  0
   35.1164   19.9231   35.5705 H   0  0  0  0  0  0  0  0  0  0  0  0
   34.8317   19.6602   33.1009 H   0  0  0  0  0  0  0  0  0  0  0  0
   36.2080   21.0967   31.6030 H   0  0  0  0  0  0  0  0  0  0  0  0
  2  1  2  0
  2  7  1  0
  3  2  1  0
  4  5  1  0
  4  3  2  0
  5  6  2  0
  6  1  1  0
  7  9  1  0
  7  8  1  0
 10  7  1  0
 11 14  1  0
 11  5  1  0
 12 11  1  0
 13 11  1  0
 15  3  1  0
 16 15  2  0
 17 15  1  0
 17 18  2  0
 19 18  1  0
 20 19  2  0
 21 22  2  0
 21 20  1  0
 22 17  1  0
  1 23  1  0
 18 24  1  0
 19 25  1  0
 20 26  1  0
 21 27  1  0
M  ISO  5  23  14  24  14  25  14  26  14  27  14
M  END
>  <minimizedAffinity>  (1) 
-5.070539

>  <minimizedRMSD>  (1) 
1.56473696

$$$$
