
     RDKit          3D

 25 26  0  0  0  0  0  0  0  0999 V2000
   40.7220   22.4400   37.8080 C   0  0  0  0  0  0  0  0  0  0  0  0
   39.5120   22.9290   37.2680 C   0  0  0  0  0  0  0  0  0  0  0  0
   39.3060   22.7140   35.9210 C   0  0  0  0  0  0  0  0  0  0  0  0
   40.2380   22.0650   35.1860 N   0  0  0  0  0  0  0  0  0  0  0  0
   41.3850   21.6120   35.7450 C   0  0  0  0  0  0  0  0  0  0  0  0
   41.5950   21.8130   37.0450 N   0  0  0  0  0  0  0  0  0  0  0  0
   38.4630   23.6440   38.0380 C   0  0  0  0  0  0  0  0  0  0  0  0
   39.0030   23.8550   39.3160 F   0  0  0  0  0  0  0  0  0  0  0  0
   37.3430   22.8830   38.2200 F   0  0  0  0  0  0  0  0  0  0  0  0
   38.2180   24.8940   37.5340 F   0  0  0  0  0  0  0  0  0  0  0  0
   42.3780   20.9000   34.8880 C   0  0  0  0  0  0  0  0  0  0  0  0
   41.7850   20.5420   33.6690 F   0  0  0  0  0  0  0  0  0  0  0  0
   43.3740   21.7880   34.5300 F   0  0  0  0  0  0  0  0  0  0  0  0
   42.8430   19.7440   35.4460 F   0  0  0  0  0  0  0  0  0  0  0  0
   38.1450   23.0940   35.1630 C   0  0  0  0  0  0  0  0  0  0  0  0
   37.7870   24.1590   34.5820 O   0  0  0  0  0  0  0  0  0  0  0  0
   37.1180   22.0230   35.0040 C   0  0  0  0  0  0  0  0  0  0  0  0
   36.7050   21.4580   33.8090 C   0  0  0  0  0  0  0  0  0  0  0  0
   35.7440   20.4830   34.0120 C   0  0  0  0  0  0  0  0  0  0  0  0
   35.6030   20.4870   35.3490 N   0  0  0  0  0  0  0  0  0  0  0  0
   36.4010   21.3790   35.9060 N   0  0  0  0  0  0  0  0  0  0  0  0
   40.9382   22.5840   38.8769 H   0  0  0  0  0  0  0  0  0  0  0  0
   37.0926   21.7481   32.8213 H   0  0  0  0  0  0  0  0  0  0  0  0
   35.2259   19.8613   33.2670 H   0  0  0  0  0  0  0  0  0  0  0  0
   34.9581   19.8754   35.8695 H   0  0  0  0  0  0  0  0  0  0  0  0
  2  1  2  0
  2  7  1  0
  3  2  1  0
  4  5  1  0
  4  3  2  0
  5  6  2  0
  6  1  1  0
  7  9  1  0
  7  8  1  0
 10  7  1  0
 11 14  1  0
 11  5  1  0
 12 11  1  0
 13 11  1  0
 15  3  1  0
 16 15  2  0
 17 15  1  0
 17 21  2  0
 18 19  2  0
 18 17  1  0
 19 20  1  0
 20 21  1  0
  1 22  1  0
 18 23  1  0
 19 24  1  0
 20 25  1  0
M  ISO  4  22  14  23  14  24  14  25   9
M  END
>  <minimizedAffinity>  (1) 
-4.88188553

>  <minimizedRMSD>  (1) 
1.34526896

$$$$
