
     RDKit          3D

 19 19  0  0  0  0  0  0  0  0999 V2000
   40.7050   22.4480   37.8030 C   0  0  0  0  0  0  0  0  0  0  0  0
   39.5300   22.9320   37.1980 C   0  0  0  0  0  0  0  0  0  0  0  0
   39.4020   22.7390   35.8300 C   0  0  0  0  0  0  0  0  0  0  0  0
   40.3870   22.1140   35.1540 N   0  0  0  0  0  0  0  0  0  0  0  0
   41.5000   21.6640   35.7650 C   0  0  0  0  0  0  0  0  0  0  0  0
   41.6310   21.8430   37.0730 N   0  0  0  0  0  0  0  0  0  0  0  0
   38.4190   23.6300   37.9240 C   0  0  0  0  0  0  0  0  0  0  0  0
   38.8570   23.7550   39.2420 F   0  0  0  0  0  0  0  0  0  0  0  0
   37.2800   22.8910   37.9470 F   0  0  0  0  0  0  0  0  0  0  0  0
   38.2590   24.9150   37.4670 F   0  0  0  0  0  0  0  0  0  0  0  0
   42.5490   20.9800   34.9500 C   0  0  0  0  0  0  0  0  0  0  0  0
   41.9930   20.4830   33.7610 F   0  0  0  0  0  0  0  0  0  0  0  0
   43.4660   21.9200   34.5240 F   0  0  0  0  0  0  0  0  0  0  0  0
   43.1130   19.9080   35.6020 F   0  0  0  0  0  0  0  0  0  0  0  0
   38.2820   23.1430   35.0330 C   0  0  0  0  0  0  0  0  0  0  0  0
   37.9100   24.1790   34.4550 O   0  0  0  0  0  0  0  0  0  0  0  0
   37.3830   22.0600   34.8800 O   0  0  0  0  0  0  0  0  0  0  0  0
   40.8553   22.5723   38.8856 H   0  0  0  0  0  0  0  0  0  0  0  0
   36.5531   22.1762   34.3528 H   0  0  0  0  0  0  0  0  0  0  0  0
  2  1  2  0
  2  7  1  0
  3  2  1  0
  4  5  1  0
  4  3  2  0
  5  6  2  0
  6  1  1  0
  7  9  1  0
  7  8  1  0
 10  7  1  0
 11 14  1  0
 11  5  1  0
 12 11  1  0
 13 11  1  0
 15  3  1  0
 16 15  2  0
 17 15  1  0
  1 18  1  0
 17 19  1  0
M  ISO  2  18  14  19   3
M  END
>  <minimizedAffinity>  (1) 
-4.00065756

>  <minimizedRMSD>  (1) 
1.07963979

$$$$
