
     RDKit          3D

 20 20  0  0  0  0  0  0  0  0999 V2000
   40.4790   22.5810   37.8190 C   0  0  0  0  0  0  0  0  0  0  0  0
   39.3750   23.0440   37.0800 C   0  0  0  0  0  0  0  0  0  0  0  0
   39.3770   22.7710   35.7200 C   0  0  0  0  0  0  0  0  0  0  0  0
   40.4150   22.0910   35.1910 N   0  0  0  0  0  0  0  0  0  0  0  0
   41.4550   21.6630   35.9320 C   0  0  0  0  0  0  0  0  0  0  0  0
   41.4590   21.9210   37.2270 N   0  0  0  0  0  0  0  0  0  0  0  0
   38.3480   23.1450   34.8050 C   0  0  0  0  0  0  0  0  0  0  0  0
   37.9780   24.1570   34.2000 O   0  0  0  0  0  0  0  0  0  0  0  0
   37.5150   22.0000   34.5230 N   0  0  0  0  0  0  0  0  0  0  0  0
   38.2250   23.7920   37.6530 C   0  0  0  0  0  0  0  0  0  0  0  0
   38.4970   23.9380   39.0120 F   0  0  0  0  0  0  0  0  0  0  0  0
   37.0530   23.0790   37.5600 F   0  0  0  0  0  0  0  0  0  0  0  0
   38.1470   25.0670   37.1580 F   0  0  0  0  0  0  0  0  0  0  0  0
   42.5640   20.9130   35.2510 C   0  0  0  0  0  0  0  0  0  0  0  0
   42.1640   20.4710   34.0040 F   0  0  0  0  0  0  0  0  0  0  0  0
   43.5990   21.8220   34.9970 F   0  0  0  0  0  0  0  0  0  0  0  0
   42.9680   19.8260   35.9680 F   0  0  0  0  0  0  0  0  0  0  0  0
   40.5270   22.7704   38.9015 H   0  0  0  0  0  0  0  0  0  0  0  0
   36.7176   22.0898   33.8773 H   0  0  0  0  0  0  0  0  0  0  0  0
   37.7182   21.0933   34.9675 H   0  0  0  0  0  0  0  0  0  0  0  0
  2 10  1  0
  2  1  2  0
  3  2  1  0
  4  3  2  0
  4  5  1  0
  5  6  2  0
  6  1  1  0
  7  3  1  0
  8  7  2  0
  9  7  1  0
 10 11  1  0
 12 10  1  0
 13 10  1  0
 14  5  1  0
 14 17  1  0
 15 14  1  0
 16 14  1  0
  1 18  1  0
  9 19  1  0
  9 20  1  0
M  ISO  1  18  14
M  END
>  <minimizedAffinity>  (1) 
-4.00872374

>  <minimizedRMSD>  (1) 
1.28542328

$$$$
