
     RDKit          3D

 45 47  0  0  1  0  0  0  0  0999 V2000
   38.4710   25.0610   34.9380 C   0  0  2  0  0  0  0  0  0  0  0  0
   38.3670   25.7600   36.3490 C   0  0  0  0  0  0  0  0  0  0  0  0
   38.7050   27.1610   35.9110 C   0  0  0  0  0  0  0  0  0  0  0  0
   37.9590   27.3000   34.6150 C   0  0  0  0  0  0  0  0  0  0  0  0
   37.4740   25.8920   34.2700 C   0  0  1  0  0  0  0  0  0  0  0  0
   37.0900   25.7420   32.9270 N   0  0  0  0  0  0  0  0  0  0  0  0
   36.4120   27.0090   32.5690 C   0  0  0  0  0  0  0  0  0  0  0  0
   35.8730   26.9440   31.1650 C   0  0  0  0  0  0  0  0  0  0  0  0
   36.9720   26.7780   30.2310 N   0  0  0  0  0  0  0  0  0  0  0  0
   38.2230   26.7710   30.9630 C   0  0  0  0  0  0  0  0  0  0  0  0
   38.1600   25.6440   31.9650 C   0  0  0  0  0  0  0  0  0  0  0  0
   38.0160   23.6400   35.1920 C   0  0  0  0  0  0  0  0  0  0  0  0
   37.5250   23.5320   36.3570 O   0  0  0  0  0  0  0  0  0  0  0  0
   39.3100   21.0570   32.7850 C   0  0  0  0  0  0  0  0  0  0  0  0
   39.3450   21.9480   33.8880 C   0  0  0  0  0  0  0  0  0  0  0  0
   38.2010   22.6770   34.1210 C   0  0  0  0  0  0  0  0  0  0  0  0
   37.1260   22.5280   33.3270 N   0  0  0  0  0  0  0  0  0  0  0  0
   37.1400   21.6660   32.2860 C   0  0  0  0  0  0  0  0  0  0  0  0
   38.2360   20.9510   32.0440 N   0  0  0  0  0  0  0  0  0  0  0  0
   40.5120   22.1370   34.7830 C   0  0  0  0  0  0  0  0  0  0  0  0
   41.4790   21.1960   34.3590 F   0  0  0  0  0  0  0  0  0  0  0  0
   40.2250   21.8460   36.0750 F   0  0  0  0  0  0  0  0  0  0  0  0
   41.1130   23.3470   34.6200 F   0  0  0  0  0  0  0  0  0  0  0  0
   35.9150   21.5440   31.4340 C   0  0  0  0  0  0  0  0  0  0  0  0
   34.8080   21.2410   32.2240 F   0  0  0  0  0  0  0  0  0  0  0  0
   35.6330   22.7940   30.8970 F   0  0  0  0  0  0  0  0  0  0  0  0
   36.0150   20.5570   30.4940 F   0  0  0  0  0  0  0  0  0  0  0  0
   39.4225   24.9945   34.3901 H   0  0  0  0  0  0  0  0  0  0  0  0
   37.3558   25.6890   36.7762 H   0  0  0  0  0  0  0  0  0  0  0  0
   38.9963   25.3371   37.1460 H   0  0  0  0  0  0  0  0  0  0  0  0
   38.3578   27.9001   36.6481 H   0  0  0  0  0  0  0  0  0  0  0  0
   39.7865   27.3338   35.8089 H   0  0  0  0  0  0  0  0  0  0  0  0
   37.1046   27.9824   34.7345 H   0  0  0  0  0  0  0  0  0  0  0  0
   38.5948   27.7186   33.8210 H   0  0  0  0  0  0  0  0  0  0  0  0
   36.4918   25.5609   34.6384 H   0  0  0  0  0  0  0  0  0  0  0  0
   35.5805   27.1838   33.2676 H   0  0  0  0  0  0  0  0  0  0  0  0
   37.1407   27.8306   32.6311 H   0  0  0  0  0  0  0  0  0  0  0  0
   35.1843   26.0909   31.0759 H   0  0  0  0  0  0  0  0  0  0  0  0
   35.3350   27.8756   30.9357 H   0  0  0  0  0  0  0  0  0  0  0  0
   36.9717   27.5567   29.5569 H   0  0  0  0  0  0  0  0  0  0  0  0
   39.0620   26.6102   30.2700 H   0  0  0  0  0  0  0  0  0  0  0  0
   38.3770   27.7332   31.4734 H   0  0  0  0  0  0  0  0  0  0  0  0
   38.0356   24.7018   31.4112 H   0  0  0  0  0  0  0  0  0  0  0  0
   39.0960   25.6923   32.5408 H   0  0  0  0  0  0  0  0  0  0  0  0
   40.1953   20.4481   32.5495 H   0  0  0  0  0  0  0  0  0  0  0  0
  1 12  1  0
  1  2  1  0
  3  2  1  0
  4  3  1  0
  5  4  1  0
  5  1  1  0
  6  5  1  0
  7  6  1  0
  8  7  1  0
  9 10  1  0
  9  8  1  0
 10 11  1  0
 11  6  1  0
 12 13  2  0
 14 15  2  0
 15 16  1  0
 15 20  1  0
 16 12  1  0
 17 16  2  0
 18 17  1  0
 19 18  2  0
 19 14  1  0
 20 22  1  0
 21 20  1  0
 23 20  1  0
 24 25  1  0
 24 18  1  0
 26 24  1  0
 27 24  1  0
  1 28  1  6
  2 29  1  0
  2 30  1  0
  3 31  1  0
  3 32  1  0
  4 33  1  0
  4 34  1  0
  5 35  1  1
  7 36  1  0
  7 37  1  0
  8 38  1  0
  8 39  1  0
  9 40  1  0
 10 41  1  0
 10 42  1  0
 11 43  1  0
 11 44  1  0
 14 45  1  0
M  ISO  8  28  13  29  13  30  13  31  13  32  13  33  13  34  13  35  13
M  ISO  8  36  13  37  13  38  13  39  13  40   5  41  13  42  13  43  13
M  ISO  2  44  13  45  14
M  END
>  <minimizedAffinity>  (1) 
-5.60654879

>  <minimizedRMSD>  (1) 
5.98312473

$$$$
