
     RDKit          3D

 40 41  0  0  1  0  0  0  0  0999 V2000
   38.5760   23.9180   34.7280 C   0  0  0  0  0  0  0  0  0  0  0  0
   37.8310   23.4060   33.8320 O   0  0  0  0  0  0  0  0  0  0  0  0
   38.6660   25.4130   34.5810 C   0  0  2  0  0  0  0  0  0  0  0  0
   37.4610   25.8060   33.6440 C   0  0  0  0  0  0  0  0  0  0  0  0
   37.7240   27.3000   33.6220 C   0  0  0  0  0  0  0  0  0  0  0  0
   39.1170   27.1360   33.1020 C   0  0  0  0  0  0  0  0  0  0  0  0
   39.7660   26.0380   33.9880 C   0  0  1  0  0  0  0  0  0  0  0  0
   41.1930   25.9920   33.7860 C   0  0  0  0  0  0  0  0  0  0  0  0
   42.1160   25.5810   34.9070 C   0  0  0  0  0  0  0  0  0  0  0  0
   41.7470   27.3350   33.2710 C   0  0  0  0  0  0  0  0  0  0  0  0
   39.9380   22.8220   38.0470 C   0  0  0  0  0  0  0  0  0  0  0  0
   39.0600   23.4900   37.1580 C   0  0  0  0  0  0  0  0  0  0  0  0
   39.3170   23.3470   35.8070 C   0  0  0  0  0  0  0  0  0  0  0  0
   40.3640   22.5990   35.3920 N   0  0  0  0  0  0  0  0  0  0  0  0
   41.1730   21.9840   36.2730 C   0  0  0  0  0  0  0  0  0  0  0  0
   40.9420   22.1070   37.5780 N   0  0  0  0  0  0  0  0  0  0  0  0
   37.9220   24.3400   37.5580 C   0  0  0  0  0  0  0  0  0  0  0  0
   37.7860   24.1420   38.9590 F   0  0  0  0  0  0  0  0  0  0  0  0
   36.7670   23.9660   36.9870 F   0  0  0  0  0  0  0  0  0  0  0  0
   38.2060   25.6820   37.4430 F   0  0  0  0  0  0  0  0  0  0  0  0
   42.3360   21.1950   35.7600 C   0  0  0  0  0  0  0  0  0  0  0  0
   42.1520   20.8930   34.4250 F   0  0  0  0  0  0  0  0  0  0  0  0
   43.4580   22.0260   35.7530 F   0  0  0  0  0  0  0  0  0  0  0  0
   42.5260   20.0270   36.4370 F   0  0  0  0  0  0  0  0  0  0  0  0
   38.7081   25.7501   35.6272 H   0  0  0  0  0  0  0  0  0  0  0  0
   37.5381   25.3503   32.6458 H   0  0  0  0  0  0  0  0  0  0  0  0
   36.4598   25.4870   33.9693 H   0  0  0  0  0  0  0  0  0  0  0  0
   37.0638   27.8486   32.9341 H   0  0  0  0  0  0  0  0  0  0  0  0
   37.5718   27.8750   34.5473 H   0  0  0  0  0  0  0  0  0  0  0  0
   39.0990   26.8189   32.0489 H   0  0  0  0  0  0  0  0  0  0  0  0
   39.6811   28.0794   33.1438 H   0  0  0  0  0  0  0  0  0  0  0  0
   39.7153   25.3300   33.1477 H   0  0  0  0  0  0  0  0  0  0  0  0
   41.2175   25.1623   33.0642 H   0  0  0  0  0  0  0  0  0  0  0  0
   41.6365   25.7945   35.8737 H   0  0  0  0  0  0  0  0  0  0  0  0
   42.3268   24.5040   34.8322 H   0  0  0  0  0  0  0  0  0  0  0  0
   43.0575   26.1449   34.8322 H   0  0  0  0  0  0  0  0  0  0  0  0
   42.0109   27.9748   34.1260 H   0  0  0  0  0  0  0  0  0  0  0  0
   42.6430   27.1518   32.6597 H   0  0  0  0  0  0  0  0  0  0  0  0
   40.9824   27.8368   32.6597 H   0  0  0  0  0  0  0  0  0  0  0  0
   39.7816   22.9001   39.1330 H   0  0  0  0  0  0  0  0  0  0  0  0
  1 13  1  0
  2  1  2  0
  3  1  1  0
  4  3  1  0
  5  4  1  0
  6  5  1  0
  6  7  1  0
  7  3  1  0
  8  7  1  0
  8  9  1  0
 10  8  1  0
 12 17  1  0
 12 11  2  0
 13 12  1  0
 14 13  2  0
 14 15  1  0
 15 16  2  0
 16 11  1  0
 17 18  1  0
 19 17  1  0
 20 17  1  0
 21 15  1  0
 21 24  1  0
 22 21  1  0
 23 21  1  0
  3 25  1  1
  4 26  1  0
  4 27  1  0
  5 28  1  0
  5 29  1  0
  6 30  1  0
  6 31  1  0
  7 32  1  1
  8 33  1  0
  9 34  1  0
  9 35  1  0
  9 36  1  0
 10 37  1  0
 10 38  1  0
 10 39  1  0
 11 40  1  0
M  ISO  8  25  13  26  13  27  13  28  13  29  13  30  13  31  13  32  13
M  ISO  8  33   8  34   8  35   8  36   8  37   8  38   8  39   8  40  14
M  END
>  <minimizedAffinity>  (1) 
-5.10317755

>  <minimizedRMSD>  (1) 
1.33343279

$$$$
