
     RDKit          3D

 34 35  0  0  1  0  0  0  0  0999 V2000
   38.8830   24.0200   34.6860 C   0  0  0  0  0  0  0  0  0  0  0  0
   38.0900   23.6010   33.7980 O   0  0  0  0  0  0  0  0  0  0  0  0
   39.2470   25.4420   34.4120 C   0  0  2  0  0  0  0  0  0  0  0  0
   38.6220   25.8210   33.0420 C   0  0  0  0  0  0  0  0  0  0  0  0
   39.1800   27.2230   32.9120 C   0  0  0  0  0  0  0  0  0  0  0  0
   40.5280   27.1380   33.5490 C   0  0  0  0  0  0  0  0  0  0  0  0
   40.6580   25.7490   34.1470 C   0  0  2  0  0  0  0  0  0  0  0  0
   41.4140   25.0270   33.1000 C   0  0  0  0  0  0  0  0  0  0  0  0
   39.7900   22.8490   38.1470 C   0  0  0  0  0  0  0  0  0  0  0  0
   39.0610   23.5590   37.1560 C   0  0  0  0  0  0  0  0  0  0  0  0
   39.4640   23.4040   35.8460 C   0  0  0  0  0  0  0  0  0  0  0  0
   40.5080   22.6050   35.5700 N   0  0  0  0  0  0  0  0  0  0  0  0
   41.1810   21.9460   36.5260 C   0  0  0  0  0  0  0  0  0  0  0  0
   40.8060   22.0810   37.8010 N   0  0  0  0  0  0  0  0  0  0  0  0
   37.9100   24.4480   37.4390 C   0  0  0  0  0  0  0  0  0  0  0  0
   37.6720   24.3430   38.8260 F   0  0  0  0  0  0  0  0  0  0  0  0
   36.7810   24.0580   36.8230 F   0  0  0  0  0  0  0  0  0  0  0  0
   38.2290   25.7740   37.2440 F   0  0  0  0  0  0  0  0  0  0  0  0
   42.3430   21.0850   36.1400 C   0  0  0  0  0  0  0  0  0  0  0  0
   42.2460   20.7090   34.8140 F   0  0  0  0  0  0  0  0  0  0  0  0
   43.4980   21.8660   36.1790 F   0  0  0  0  0  0  0  0  0  0  0  0
   42.4400   19.9490   36.8890 F   0  0  0  0  0  0  0  0  0  0  0  0
   38.9200   25.9605   35.3254 H   0  0  0  0  0  0  0  0  0  0  0  0
   38.9690   25.1615   32.2329 H   0  0  0  0  0  0  0  0  0  0  0  0
   37.5268   25.7383   32.9806 H   0  0  0  0  0  0  0  0  0  0  0  0
   39.2653   27.5130   31.8543 H   0  0  0  0  0  0  0  0  0  0  0  0
   38.5363   27.9795   33.3846 H   0  0  0  0  0  0  0  0  0  0  0  0
   41.3119   27.2976   32.7940 H   0  0  0  0  0  0  0  0  0  0  0  0
   40.6408   27.9085   34.3259 H   0  0  0  0  0  0  0  0  0  0  0  0
   41.1998   25.5285   35.0786 H   0  0  0  0  0  0  0  0  0  0  0  0
   42.1321   24.3412   33.5733 H   0  0  0  0  0  0  0  0  0  0  0  0
   40.7157   24.4520   32.4741 H   0  0  0  0  0  0  0  0  0  0  0  0
   41.9563   25.7510   32.4741 H   0  0  0  0  0  0  0  0  0  0  0  0
   39.5069   22.9396   39.2061 H   0  0  0  0  0  0  0  0  0  0  0  0
  1 11  1  0
  2  1  2  0
  3  1  1  0
  4  3  1  0
  5  4  1  0
  5  6  1  0
  6  7  1  0
  7  3  1  0
  8  7  1  0
 10 15  1  0
 10  9  2  0
 11 10  1  0
 12 11  2  0
 12 13  1  0
 13 14  2  0
 14  9  1  0
 15 16  1  0
 17 15  1  0
 18 15  1  0
 19 21  1  0
 19 13  1  0
 19 22  1  0
 20 19  1  0
  3 23  1  1
  4 24  1  0
  4 25  1  0
  5 26  1  0
  5 27  1  0
  6 28  1  0
  6 29  1  0
  7 30  1  1
  8 31  1  0
  8 32  1  0
  8 33  1  0
  9 34  1  0
M  ISO  8  23  13  24  13  25  13  26  13  27  13  28  13  29  13  30  13
M  ISO  4  31   8  32   8  33   8  34  14
M  END
>  <minimizedAffinity>  (1) 
-4.77765465

>  <minimizedRMSD>  (1) 
0.485452026

$$$$
