
     RDKit          3D

 37 38  0  0  1  0  0  0  0  0999 V2000
   38.5990   24.0380   35.0610 C   0  0  0  0  0  0  0  0  0  0  0  0
   37.9370   23.5820   34.1060 O   0  0  0  0  0  0  0  0  0  0  0  0
   38.4500   25.4640   35.2190 C   0  0  2  0  0  0  0  0  0  0  0  0
   37.1010   25.9680   34.9860 C   0  0  0  0  0  0  0  0  0  0  0  0
   37.1910   27.4370   34.9710 C   0  0  0  0  0  0  0  0  0  0  0  0
   38.6370   27.7250   34.9880 C   0  0  0  0  0  0  0  0  0  0  0  0
   39.4090   26.4550   35.3390 C   0  0  2  0  0  0  0  0  0  0  0  0
   40.7070   26.6840   34.7190 C   0  0  0  0  0  0  0  0  0  0  0  0
   40.5920   27.2090   33.2690 C   0  0  0  0  0  0  0  0  0  0  0  0
   40.4130   22.4020   37.8690 C   0  0  0  0  0  0  0  0  0  0  0  0
   39.3460   23.0950   37.2870 C   0  0  0  0  0  0  0  0  0  0  0  0
   39.5370   23.4830   36.0320 C   0  0  0  0  0  0  0  0  0  0  0  0
   40.7010   23.2520   35.3280 N   0  0  0  0  0  0  0  0  0  0  0  0
   41.6910   22.5810   35.9630 C   0  0  0  0  0  0  0  0  0  0  0  0
   41.5180   22.1710   37.2060 N   0  0  0  0  0  0  0  0  0  0  0  0
   38.0780   23.4650   37.9050 C   0  0  0  0  0  0  0  0  0  0  0  0
   38.0570   22.7910   39.1460 F   0  0  0  0  0  0  0  0  0  0  0  0
   37.0330   23.0380   37.1990 F   0  0  0  0  0  0  0  0  0  0  0  0
   37.9970   24.7930   38.2240 F   0  0  0  0  0  0  0  0  0  0  0  0
   42.9600   22.3440   35.2200 C   0  0  0  0  0  0  0  0  0  0  0  0
   43.2510   23.4160   34.4450 F   0  0  0  0  0  0  0  0  0  0  0  0
   42.5760   21.6340   34.1610 F   0  0  0  0  0  0  0  0  0  0  0  0
   43.9820   21.9420   35.9420 F   0  0  0  0  0  0  0  0  0  0  0  0
   39.0524   25.1231   36.0739 H   0  0  0  0  0  0  0  0  0  0  0  0
   36.7219   25.6022   34.0203 H   0  0  0  0  0  0  0  0  0  0  0  0
   36.4107   25.6235   35.7701 H   0  0  0  0  0  0  0  0  0  0  0  0
   36.7252   27.8447   34.0617 H   0  0  0  0  0  0  0  0  0  0  0  0
   36.6661   27.8943   35.8227 H   0  0  0  0  0  0  0  0  0  0  0  0
   38.9508   28.0816   33.9958 H   0  0  0  0  0  0  0  0  0  0  0  0
   38.8461   28.4991   35.7410 H   0  0  0  0  0  0  0  0  0  0  0  0
   39.8073   26.1011   36.3013 H   0  0  0  0  0  0  0  0  0  0  0  0
   41.2576   27.4239   35.3185 H   0  0  0  0  0  0  0  0  0  0  0  0
   41.2322   25.7182   34.6818 H   0  0  0  0  0  0  0  0  0  0  0  0
   40.3567   28.2834   33.2856 H   0  0  0  0  0  0  0  0  0  0  0  0
   41.5461   27.0507   32.7450 H   0  0  0  0  0  0  0  0  0  0  0  0
   39.7914   26.6663   32.7450 H   0  0  0  0  0  0  0  0  0  0  0  0
   40.3216   22.0438   38.9050 H   0  0  0  0  0  0  0  0  0  0  0  0
  1  3  1  0
  1 12  1  0
  2  1  2  0
  3  7  1  0
  4  3  1  0
  5  4  1  0
  5  6  1  0
  6  7  1  0
  8  7  1  0
  9  8  1  0
 11 10  2  0
 11 16  1  0
 12 11  1  0
 13 14  1  0
 13 12  2  0
 14 15  2  0
 15 10  1  0
 16 19  1  0
 16 17  1  0
 18 16  1  0
 20 23  1  0
 20 14  1  0
 21 20  1  0
 22 20  1  0
  3 24  1  6
  4 25  1  0
  4 26  1  0
  5 27  1  0
  5 28  1  0
  6 29  1  0
  6 30  1  0
  7 31  1  1
  8 32  1  0
  8 33  1  0
  9 34  1  0
  9 35  1  0
  9 36  1  0
 10 37  1  0
M  ISO  8  24  13  25  13  26  13  27  13  28  13  29  13  30  13  31  13
M  ISO  6  32   8  33   8  34   8  35   8  36   8  37  14
M  END
>  <minimizedAffinity>  (1) 
-5.10319614

>  <minimizedRMSD>  (1) 
1.87153339

$$$$
