
     RDKit          3D

 21 21  0  0  1  0  0  0  0  0999 V2000
   38.2290   23.6880   36.8720 C   0  0  2  0  0  0  0  0  0  0  0  0
   41.5010   21.8500   37.2170 C   0  0  0  0  0  0  0  0  0  0  0  0
   40.3230   22.5390   37.5480 C   0  0  0  0  0  0  0  0  0  0  0  0
   39.4550   22.9570   36.5340 C   0  0  0  0  0  0  0  0  0  0  0  0
   39.7930   22.6750   35.2350 N   0  0  0  0  0  0  0  0  0  0  0  0
   40.9300   22.0130   34.9440 C   0  0  0  0  0  0  0  0  0  0  0  0
   41.7850   21.5990   35.9330 N   0  0  0  0  0  0  0  0  0  0  0  0
   38.2610   25.1420   36.4370 C   0  0  0  0  0  0  0  0  0  0  0  0
   37.8780   23.6280   38.3320 C   0  0  0  0  0  0  0  0  0  0  0  0
   37.0760   22.4900   38.7030 N   0  0  0  0  0  0  0  0  0  0  0  0
   37.4482   23.1624   36.3026 H   0  0  0  0  0  0  0  0  0  0  0  0
   42.1877   21.5178   38.0096 H   0  0  0  0  0  0  0  0  0  0  0  0
   40.0838   22.7492   38.6009 H   0  0  0  0  0  0  0  0  0  0  0  0
   41.1770   21.8007   33.8933 H   0  0  0  0  0  0  0  0  0  0  0  0
   38.2753   25.7903   37.3255 H   0  0  0  0  0  0  0  0  0  0  0  0
   39.1634   25.3249   35.8351 H   0  0  0  0  0  0  0  0  0  0  0  0
   37.3675   25.3644   35.8351 H   0  0  0  0  0  0  0  0  0  0  0  0
   38.8133   23.5934   38.9100 H   0  0  0  0  0  0  0  0  0  0  0  0
   37.2747   24.5221   38.5478 H   0  0  0  0  0  0  0  0  0  0  0  0
   37.0289   22.4232   39.7298 H   0  0  0  0  0  0  0  0  0  0  0  0
   36.1254   22.6011   38.3222 H   0  0  0  0  0  0  0  0  0  0  0  0
  1  9  1  0
  2  3  2  0
  4  1  1  0
  4  3  1  0
  5  4  2  0
  6  5  1  0
  6  7  2  0
  7  2  1  0
  8  1  1  0
  9 10  1  0
  1 11  1  6
  2 12  1  0
  3 13  1  0
  6 14  1  0
  8 15  1  0
  8 16  1  0
  8 17  1  0
  9 18  1  0
  9 19  1  0
 10 20  1  0
 10 21  1  0
M  ISO  8  11   8  12  14  13  14  14  14  15   8  16   8  17   8  18   8
M  ISO  3  19   8  20   5  21   5
M  END
>  <minimizedAffinity>  (1) 
-3.12635255

>  <minimizedRMSD>  (1) 
0.629477859

$$$$
