
     RDKit          3D

 33 34  0  0  1  0  0  0  0  0999 V2000
   38.7810   23.9290   34.7100 C   0  0  0  0  0  0  0  0  0  0  0  0
   38.0350   23.4600   33.8080 O   0  0  0  0  0  0  0  0  0  0  0  0
   38.9960   25.3910   34.4660 C   0  0  2  0  0  0  0  0  0  0  0  0
   38.2680   25.7430   33.1400 C   0  0  0  0  0  0  0  0  0  0  0  0
   38.6880   27.1790   33.0050 C   0  0  0  0  0  0  0  0  0  0  0  0
   40.1200   27.1540   33.4370 C   0  0  0  0  0  0  0  0  0  0  0  0
   40.3650   25.8180   34.1280 C   0  0  2  0  0  0  0  0  0  0  0  0
   41.1790   25.0740   33.1980 C   0  0  0  0  0  0  0  0  0  0  0  0
   42.2920   24.6400   33.5620 O   0  0  0  0  0  0  0  0  0  0  0  0
   39.8400   22.8230   38.1480 C   0  0  0  0  0  0  0  0  0  0  0  0
   39.0660   23.5080   37.1770 C   0  0  0  0  0  0  0  0  0  0  0  0
   39.4180   23.3380   35.8530 C   0  0  0  0  0  0  0  0  0  0  0  0
   40.4580   22.5460   35.5400 N   0  0  0  0  0  0  0  0  0  0  0  0
   41.1790   21.9040   36.4880 C   0  0  0  0  0  0  0  0  0  0  0  0
   40.8500   22.0600   37.7780 N   0  0  0  0  0  0  0  0  0  0  0  0
   37.9100   24.3920   37.4900 C   0  0  0  0  0  0  0  0  0  0  0  0
   37.6710   24.2280   38.8720 F   0  0  0  0  0  0  0  0  0  0  0  0
   36.7790   24.0110   36.8630 F   0  0  0  0  0  0  0  0  0  0  0  0
   38.2230   25.7130   37.3390 F   0  0  0  0  0  0  0  0  0  0  0  0
   42.3330   21.0470   36.0800 C   0  0  0  0  0  0  0  0  0  0  0  0
   42.2380   20.7270   34.7390 F   0  0  0  0  0  0  0  0  0  0  0  0
   43.4990   21.8090   36.1650 F   0  0  0  0  0  0  0  0  0  0  0  0
   42.4030   19.8770   36.7780 F   0  0  0  0  0  0  0  0  0  0  0  0
   38.6722   25.8608   35.4064 H   0  0  0  0  0  0  0  0  0  0  0  0
   38.6251   25.1296   32.2997 H   0  0  0  0  0  0  0  0  0  0  0  0
   37.1818   25.5693   33.1400 H   0  0  0  0  0  0  0  0  0  0  0  0
   38.5953   27.5216   31.9638 H   0  0  0  0  0  0  0  0  0  0  0  0
   38.0689   27.8688   33.5974 H   0  0  0  0  0  0  0  0  0  0  0  0
   40.7785   27.2505   32.5612 H   0  0  0  0  0  0  0  0  0  0  0  0
   40.3340   27.9892   34.1201 H   0  0  0  0  0  0  0  0  0  0  0  0
   40.9331   25.7411   35.0668 H   0  0  0  0  0  0  0  0  0  0  0  0
   40.8214   24.8900   32.1741 H   0  0  0  0  0  0  0  0  0  0  0  0
   39.5966   22.9287   39.2155 H   0  0  0  0  0  0  0  0  0  0  0  0
  1 12  1  0
  2  1  2  0
  3  1  1  0
  4  3  1  0
  5  4  1  0
  5  6  1  0
  6  7  1  0
  7  3  1  0
  8  9  2  0
  8  7  1  0
 11 16  1  0
 11 10  2  0
 12 11  1  0
 13 12  2  0
 13 14  1  0
 14 15  2  0
 15 10  1  0
 16 17  1  0
 18 16  1  0
 19 16  1  0
 20 22  1  0
 20 14  1  0
 20 23  1  0
 21 20  1  0
  3 24  1  1
  4 25  1  0
  4 26  1  0
  5 27  1  0
  5 28  1  0
  6 29  1  0
  6 30  1  0
  7 31  1  1
  8 32  1  0
 10 33  1  0
M  ISO  8  24  13  25  13  26  13  27  13  28  13  29  13  30  13  31  13
M  ISO  2  32   6  33  14
M  END
>  <minimizedAffinity>  (1) 
-4.62496567

>  <minimizedRMSD>  (1) 
0.763789833

$$$$
