
     RDKit          3D

 35 37  0  0  0  0  0  0  0  0999 V2000
   40.3170   25.9160   34.4910 C   0  0  0  0  0  0  0  0  0  0  0  0
   41.1650   26.8260   33.8190 C   0  0  0  0  0  0  0  0  0  0  0  0
   40.7170   27.2370   32.5540 C   0  0  0  0  0  0  0  0  0  0  0  0
   39.5480   26.7510   32.0850 N   0  0  0  0  0  0  0  0  0  0  0  0
   38.7650   25.8870   32.7500 C   0  0  0  0  0  0  0  0  0  0  0  0
   39.1900   25.4890   33.9660 N   0  0  0  0  0  0  0  0  0  0  0  0
   42.3830   27.2910   34.3800 N   0  0  0  0  0  0  0  0  0  0  0  0
   43.6690   26.9140   33.9500 C   0  0  0  0  0  0  0  0  0  0  0  0
   43.8120   25.6580   33.5940 N   0  0  0  0  0  0  0  0  0  0  0  0
   44.6650   27.9650   33.9560 N   0  0  0  0  0  0  0  0  0  0  0  0
   44.7150   25.3040   33.2640 H   0  0  0  0  0  0  0  0  0  0  0  0
   37.5200   25.4130   32.1750 C   0  0  0  0  0  0  0  0  0  0  0  0
   36.6010   26.3270   31.7110 C   0  0  0  0  0  0  0  0  0  0  0  0
   35.4510   25.7740   31.1850 C   0  0  0  0  0  0  0  0  0  0  0  0
   35.2440   24.4450   31.1290 N   0  0  0  0  0  0  0  0  0  0  0  0
   36.1510   23.5870   31.5850 C   0  0  0  0  0  0  0  0  0  0  0  0
   37.3130   24.0780   32.1190 N   0  0  0  0  0  0  0  0  0  0  0  0
   35.9790   22.1370   31.5500 C   0  0  0  0  0  0  0  0  0  0  0  0
   34.9820   21.5780   32.2900 C   0  0  0  0  0  0  0  0  0  0  0  0
   34.7690   20.2040   32.2980 C   0  0  0  0  0  0  0  0  0  0  0  0
   35.6030   19.4300   31.5280 C   0  0  0  0  0  0  0  0  0  0  0  0
   36.6380   19.9400   30.7500 C   0  0  0  0  0  0  0  0  0  0  0  0
   36.7910   21.3220   30.7930 C   0  0  0  0  0  0  0  0  0  0  0  0
   40.6102   25.5529   35.4871 H   0  0  0  0  0  0  0  0  0  0  0  0
   41.3090   27.9439   31.9542 H   0  0  0  0  0  0  0  0  0  0  0  0
   42.3209   27.9567   35.1635 H   0  0  0  0  0  0  0  0  0  0  0  0
   45.6288   27.7629   33.6540 H   0  0  0  0  0  0  0  0  0  0  0  0
   44.4097   28.9147   34.2622 H   0  0  0  0  0  0  0  0  0  0  0  0
   36.7700   27.4130   31.7559 H   0  0  0  0  0  0  0  0  0  0  0  0
   34.6722   26.4463   30.7959 H   0  0  0  0  0  0  0  0  0  0  0  0
   34.3313   22.2272   32.8943 H   0  0  0  0  0  0  0  0  0  0  0  0
   33.9639   19.7541   32.8976 H   0  0  0  0  0  0  0  0  0  0  0  0
   35.4430   18.3417   31.5264 H   0  0  0  0  0  0  0  0  0  0  0  0
   37.2901   19.2949   30.1429 H   0  0  0  0  0  0  0  0  0  0  0  0
   37.5934   21.7827   30.1980 H   0  0  0  0  0  0  0  0  0  0  0  0
  2  7  1  0
  2  1  2  0
  3  2  1  0
  4  3  2  0
  4  5  1  0
  5  6  2  0
  6  1  1  0
  8 10  1  0
  8  7  1  0
  9  8  2  0
 11  9  1  0
 12  5  1  0
 13 12  2  0
 14 13  1  0
 15 14  2  0
 15 16  1  0
 16 17  2  0
 17 12  1  0
 18 16  1  0
 18 19  2  0
 19 20  1  0
 21 20  2  0
 22 23  2  0
 22 21  1  0
 23 18  1  0
  1 24  1  0
  3 25  1  0
  7 26  1  0
 10 27  1  0
 10 28  1  0
 13 29  1  0
 14 30  1  0
 19 31  1  0
 20 32  1  0
 21 33  1  0
 22 34  1  0
 23 35  1  0
M  ISO  8  24  14  25  14  29  14  30  14  31  14  32  14  33  14  34  14
M  ISO  1  35  14
M  END
>  <minimizedAffinity>  (1) 
-5.44327974

>  <minimizedRMSD>  (1) 
4.01375532

$$$$
