
     RDKit          3D

 34 35  0  0  1  0  0  0  0  0999 V2000
   38.0110   26.9830   31.1620 C   0  0  2  0  0  0  0  0  0  0  0  0
   38.7640   24.3980   33.8450 C   0  0  0  0  0  0  0  0  0  0  0  0
   38.3090   25.0040   32.6580 C   0  0  0  0  0  0  0  0  0  0  0  0
   38.5160   26.3580   32.3980 C   0  0  0  0  0  0  0  0  0  0  0  0
   39.1870   27.0620   33.3610 N   0  0  0  0  0  0  0  0  0  0  0  0
   39.6230   26.4900   34.4920 C   0  0  0  0  0  0  0  0  0  0  0  0
   39.4200   25.1610   34.7500 N   0  0  0  0  0  0  0  0  0  0  0  0
   39.0300   27.9310   30.5390 C   0  0  0  0  0  0  0  0  0  0  0  0
   36.7220   27.7310   31.3760 C   0  0  0  0  0  0  0  0  0  0  0  0
   36.8040   28.8900   32.2000 N   0  0  0  0  0  0  0  0  0  0  0  0
   35.9320   28.8680   33.3490 C   0  0  0  0  0  0  0  0  0  0  0  0
   34.4850   29.0810   32.9760 C   0  0  0  0  0  0  0  0  0  0  0  0
   34.3630   30.4300   32.2750 C   0  0  0  0  0  0  0  0  0  0  0  0
   35.1750   30.3020   30.9900 C   0  0  0  0  0  0  0  0  0  0  0  0
   36.5970   30.0720   31.3890 C   0  0  0  0  0  0  0  0  0  0  0  0
   37.8246   26.1461   30.4728 H   0  0  0  0  0  0  0  0  0  0  0  0
   38.5900   23.3281   34.0324 H   0  0  0  0  0  0  0  0  0  0  0  0
   37.7756   24.3922   31.9156 H   0  0  0  0  0  0  0  0  0  0  0  0
   40.1575   27.1041   35.2317 H   0  0  0  0  0  0  0  0  0  0  0  0
   39.5853   28.4476   31.3358 H   0  0  0  0  0  0  0  0  0  0  0  0
   39.7317   27.3571   29.9159 H   0  0  0  0  0  0  0  0  0  0  0  0
   38.5082   28.6722   29.9159 H   0  0  0  0  0  0  0  0  0  0  0  0
   36.3466   28.0441   30.3906 H   0  0  0  0  0  0  0  0  0  0  0  0
   36.0585   27.0338   31.9086 H   0  0  0  0  0  0  0  0  0  0  0  0
   36.0286   27.8922   33.8474 H   0  0  0  0  0  0  0  0  0  0  0  0
   36.2321   29.6911   34.0142 H   0  0  0  0  0  0  0  0  0  0  0  0
   34.1537   28.2793   32.2996 H   0  0  0  0  0  0  0  0  0  0  0  0
   33.8555   29.0651   33.8780 H   0  0  0  0  0  0  0  0  0  0  0  0
   33.3100   30.6480   32.0433 H   0  0  0  0  0  0  0  0  0  0  0  0
   34.7308   31.2512   32.9077 H   0  0  0  0  0  0  0  0  0  0  0  0
   35.0938   31.2261   30.3989 H   0  0  0  0  0  0  0  0  0  0  0  0
   34.8025   29.4711   30.3729 H   0  0  0  0  0  0  0  0  0  0  0  0
   37.1998   29.9723   30.4743 H   0  0  0  0  0  0  0  0  0  0  0  0
   36.8949   30.9332   32.0050 H   0  0  0  0  0  0  0  0  0  0  0  0
  1  9  1  0
  1  4  1  0
  2  7  2  0
  3  2  1  0
  4  3  2  0
  4  5  1  0
  5  6  2  0
  6  7  1  0
  8  1  1  0
  9 10  1  0
 10 11  1  0
 12 11  1  0
 13 12  1  0
 14 15  1  0
 14 13  1  0
 15 10  1  0
  1 16  1  6
  2 17  1  0
  3 18  1  0
  6 19  1  0
  8 20  1  0
  8 21  1  0
  8 22  1  0
  9 23  1  0
  9 24  1  0
 11 25  1  0
 11 26  1  0
 12 27  1  0
 12 28  1  0
 13 29  1  0
 13 30  1  0
 14 31  1  0
 14 32  1  0
 15 33  1  0
 15 34  1  0
M  ISO  8  16   8  17  14  18  14  19  14  20   8  21   8  22   8  23   8
M  ISO  8  24   8  25  13  26  13  27  13  28  13  29  13  30  13  31  13
M  ISO  3  32  13  33  13  34  13
M  END
>  <minimizedAffinity>  (1) 
-2.75732684

>  <minimizedRMSD>  (1) 
7.71189642

$$$$
