
     RDKit          3D

 49 51  0  0  1  0  0  0  0  0999 V2000
   37.0580   26.2480   31.6290 N   0  0  0  0  0  0  0  0  0  0  0  0
   37.6760   26.4620   32.9090 C   0  0  0  0  0  0  0  0  0  0  0  0
   36.7960   27.2040   33.8700 C   0  0  0  0  0  0  0  0  0  0  0  0
   36.4050   28.5460   33.2360 C   0  0  0  0  0  0  0  0  0  0  0  0
   35.5780   28.1800   32.0030 C   0  0  0  0  0  0  0  0  0  0  0  0
   36.5040   27.4650   31.0740 C   0  0  1  0  0  0  0  0  0  0  0  0
   37.5220   28.3790   30.6150 N   0  0  0  0  0  0  0  0  0  0  0  0
   38.4720   27.7380   29.7170 C   0  0  0  0  0  0  0  0  0  0  0  0
   39.7090   28.6100   29.7210 C   0  0  0  0  0  0  0  0  0  0  0  0
   39.3160   29.9130   29.0370 C   0  0  0  0  0  0  0  0  0  0  0  0
   38.0430   30.4740   29.5680 C   0  0  0  0  0  0  0  0  0  0  0  0
   36.9540   29.4430   29.7970 C   0  0  0  0  0  0  0  0  0  0  0  0
   36.0710   25.2370   31.6480 C   0  0  0  0  0  0  0  0  0  0  0  0
   36.4610   23.9190   31.0030 C   0  0  2  0  0  0  0  0  0  0  0  0
   35.1560   20.7740   32.6780 C   0  0  0  0  0  0  0  0  0  0  0  0
   35.2830   21.8590   31.7740 C   0  0  0  0  0  0  0  0  0  0  0  0
   36.2990   22.7870   31.9240 C   0  0  0  0  0  0  0  0  0  0  0  0
   37.1440   22.5850   32.9720 N   0  0  0  0  0  0  0  0  0  0  0  0
   37.0360   21.5660   33.8310 C   0  0  0  0  0  0  0  0  0  0  0  0
   36.0400   20.6520   33.6910 N   0  0  0  0  0  0  0  0  0  0  0  0
   37.8450   24.0450   30.4170 C   0  0  0  0  0  0  0  0  0  0  0  0
   37.9246   25.4835   33.3458 H   0  0  0  0  0  0  0  0  0  0  0  0
   38.5720   27.0779   32.7419 H   0  0  0  0  0  0  0  0  0  0  0  0
   35.8912   26.6135   34.0763 H   0  0  0  0  0  0  0  0  0  0  0  0
   37.3313   27.3757   34.8155 H   0  0  0  0  0  0  0  0  0  0  0  0
   35.8064   29.1448   33.9383 H   0  0  0  0  0  0  0  0  0  0  0  0
   37.2864   29.1505   32.9757 H   0  0  0  0  0  0  0  0  0  0  0  0
   34.7415   27.5242   32.2864 H   0  0  0  0  0  0  0  0  0  0  0  0
   35.1490   29.0753   31.5292 H   0  0  0  0  0  0  0  0  0  0  0  0
   35.9151   27.1237   30.2099 H   0  0  0  0  0  0  0  0  0  0  0  0
   38.0537   27.6738   28.7017 H   0  0  0  0  0  0  0  0  0  0  0  0
   38.7026   26.7127   30.0419 H   0  0  0  0  0  0  0  0  0  0  0  0
   40.0342   28.8049   30.7536 H   0  0  0  0  0  0  0  0  0  0  0  0
   40.5446   28.1208   29.1991 H   0  0  0  0  0  0  0  0  0  0  0  0
   39.1961   29.7239   27.9600 H   0  0  0  0  0  0  0  0  0  0  0  0
   40.1120   30.6466   29.2325 H   0  0  0  0  0  0  0  0  0  0  0  0
   38.2576   30.9673   30.5275 H   0  0  0  0  0  0  0  0  0  0  0  0
   37.6629   31.1696   28.8053 H   0  0  0  0  0  0  0  0  0  0  0  0
   36.1035   29.9050   30.3197 H   0  0  0  0  0  0  0  0  0  0  0  0
   36.5920   29.0429   28.8384 H   0  0  0  0  0  0  0  0  0  0  0  0
   35.8147   25.0356   32.6986 H   0  0  0  0  0  0  0  0  0  0  0  0
   35.2342   25.6259   31.0493 H   0  0  0  0  0  0  0  0  0  0  0  0
   35.7736   23.6934   30.1744 H   0  0  0  0  0  0  0  0  0  0  0  0
   34.3461   20.0398   32.5552 H   0  0  0  0  0  0  0  0  0  0  0  0
   34.5672   21.9643   30.9455 H   0  0  0  0  0  0  0  0  0  0  0  0
   37.7573   21.4669   34.6556 H   0  0  0  0  0  0  0  0  0  0  0  0
   38.5828   24.1122   31.2301 H   0  0  0  0  0  0  0  0  0  0  0  0
   38.0623   23.1629   29.7967 H   0  0  0  0  0  0  0  0  0  0  0  0
   37.8994   24.9518   29.7967 H   0  0  0  0  0  0  0  0  0  0  0  0
  1 13  1  0
  1  2  1  0
  2  3  1  0
  4  3  1  0
  5  4  1  0
  6  1  1  0
  6  5  1  0
  7  6  1  0
  8  9  1  0
  8  7  1  0
 10 11  1  0
 10  9  1  0
 11 12  1  0
 12  7  1  0
 14 13  1  0
 14 17  1  0
 15 20  2  0
 16 17  2  0
 16 15  1  0
 17 18  1  0
 18 19  2  0
 20 19  1  0
 21 14  1  0
  2 22  1  0
  2 23  1  0
  3 24  1  0
  3 25  1  0
  4 26  1  0
  4 27  1  0
  5 28  1  0
  5 29  1  0
  6 30  1  6
  8 31  1  0
  8 32  1  0
  9 33  1  0
  9 34  1  0
 10 35  1  0
 10 36  1  0
 11 37  1  0
 11 38  1  0
 12 39  1  0
 12 40  1  0
 13 41  1  0
 13 42  1  0
 14 43  1  6
 15 44  1  0
 16 45  1  0
 19 46  1  0
 21 47  1  0
 21 48  1  0
 21 49  1  0
M  ISO  8  22  13  23  13  24  13  25  13  26  13  27  13  28  13  29  13
M  ISO  8  30  13  31  13  32  13  33  13  34  13  35  13  36  13  37  13
M  ISO  8  38  13  39  13  40  13  41   8  42   8  43   8  44  14  45  14
M  ISO  4  46  14  47   8  48   8  49   8
M  END
>  <minimizedAffinity>  (1) 
-4.5715642

>  <minimizedRMSD>  (1) 
4.13799906

$$$$
