
     RDKit          3D

 47 50  0  0  1  0  0  0  0  0999 V2000
   35.6180   29.2460   32.7860 N   0  0  0  0  0  0  0  0  0  0  0  0
   35.1590   29.3520   34.1550 C   0  0  0  0  0  0  0  0  0  0  0  0
   33.6660   29.5350   34.2590 C   0  0  0  0  0  0  0  0  0  0  0  0
   33.2610   30.7720   33.4820 C   0  0  0  0  0  0  0  0  0  0  0  0
   33.6540   30.5430   32.0370 C   0  0  0  0  0  0  0  0  0  0  0  0
   35.1340   30.3320   31.9740 C   0  0  1  0  0  0  0  0  0  0  0  0
   35.8620   31.5640   32.2070 N   0  0  0  0  0  0  0  0  0  0  0  0
   36.4100   32.3420   31.2550 C   0  0  0  0  0  0  0  0  0  0  0  0
   37.0160   33.4170   31.8270 N   0  0  0  0  0  0  0  0  0  0  0  0
   36.8640   33.3420   33.1620 C   0  0  0  0  0  0  0  0  0  0  0  0
   37.2500   34.1190   34.2350 C   0  0  0  0  0  0  0  0  0  0  0  0
   36.9430   33.7830   35.5210 N   0  0  0  0  0  0  0  0  0  0  0  0
   36.2310   32.6320   35.7030 C   0  0  0  0  0  0  0  0  0  0  0  0
   35.8510   31.8650   34.6460 N   0  0  0  0  0  0  0  0  0  0  0  0
   36.1440   32.1820   33.3750 C   0  0  0  0  0  0  0  0  0  0  0  0
   37.9910   35.3090   33.9850 N   0  0  0  0  0  0  0  0  0  0  0  0
   35.2990   28.0170   32.1660 C   0  0  0  0  0  0  0  0  0  0  0  0
   36.4380   27.3200   31.4380 C   0  0  2  0  0  0  0  0  0  0  0  0
   35.4960   23.6540   31.2620 C   0  0  0  0  0  0  0  0  0  0  0  0
   35.4910   25.0500   31.0500 C   0  0  0  0  0  0  0  0  0  0  0  0
   36.4270   25.8700   31.6550 C   0  0  0  0  0  0  0  0  0  0  0  0
   37.3560   25.2550   32.4670 N   0  0  0  0  0  0  0  0  0  0  0  0
   37.3590   23.9320   32.6650 C   0  0  0  0  0  0  0  0  0  0  0  0
   36.4450   23.1170   32.0770 N   0  0  0  0  0  0  0  0  0  0  0  0
   37.7310   27.9940   31.8240 C   0  0  0  0  0  0  0  0  0  0  0  0
   35.4385   28.4332   34.6914 H   0  0  0  0  0  0  0  0  0  0  0  0
   35.6328   30.2420   34.5948 H   0  0  0  0  0  0  0  0  0  0  0  0
   33.1572   28.6543   33.8402 H   0  0  0  0  0  0  0  0  0  0  0  0
   33.3802   29.6513   35.3148 H   0  0  0  0  0  0  0  0  0  0  0  0
   32.1743   30.9251   33.5571 H   0  0  0  0  0  0  0  0  0  0  0  0
   33.7592   31.6662   33.8848 H   0  0  0  0  0  0  0  0  0  0  0  0
   33.1358   29.6540   31.6482 H   0  0  0  0  0  0  0  0  0  0  0  0
   33.3717   31.4141   31.4276 H   0  0  0  0  0  0  0  0  0  0  0  0
   35.3372   30.0134   30.9409 H   0  0  0  0  0  0  0  0  0  0  0  0
   36.3732   32.1386   30.1746 H   0  0  0  0  0  0  0  0  0  0  0  0
   35.9601   32.3197   36.7223 H   0  0  0  0  0  0  0  0  0  0  0  0
   38.2896   35.9043   34.7707 H   0  0  0  0  0  0  0  0  0  0  0  0
   38.2283   35.5744   33.0185 H   0  0  0  0  0  0  0  0  0  0  0  0
   34.9296   27.3335   32.9447 H   0  0  0  0  0  0  0  0  0  0  0  0
   34.5576   28.2605   31.3907 H   0  0  0  0  0  0  0  0  0  0  0  0
   36.3137   27.4233   30.3499 H   0  0  0  0  0  0  0  0  0  0  0  0
   34.7462   23.0116   30.7771 H   0  0  0  0  0  0  0  0  0  0  0  0
   34.7293   25.4936   30.3920 H   0  0  0  0  0  0  0  0  0  0  0  0
   38.1231   23.4917   33.3225 H   0  0  0  0  0  0  0  0  0  0  0  0
   37.8100   28.0352   32.9204 H   0  0  0  0  0  0  0  0  0  0  0  0
   38.5781   27.4227   31.4166 H   0  0  0  0  0  0  0  0  0  0  0  0
   37.7478   29.0156   31.4166 H   0  0  0  0  0  0  0  0  0  0  0  0
  1  2  1  0
  2  3  1  0
  4  3  1  0
  5  4  1  0
  6  5  1  0
  6  7  1  0
  6  1  1  0
  7 15  1  0
  8  9  2  0
  8  7  1  0
  9 10  1  0
 10 15  2  0
 10 11  1  0
 11 12  2  0
 12 13  1  0
 14 13  2  0
 15 14  1  0
 16 11  1  0
 17  1  1  0
 18 21  1  0
 18 25  1  0
 18 17  1  0
 19 24  2  0
 20 19  1  0
 20 21  2  0
 21 22  1  0
 22 23  2  0
 24 23  1  0
  2 26  1  0
  2 27  1  0
  3 28  1  0
  3 29  1  0
  4 30  1  0
  4 31  1  0
  5 32  1  0
  5 33  1  0
  6 34  1  6
  8 35  1  0
 13 36  1  0
 16 37  1  0
 16 38  1  0
 17 39  1  0
 17 40  1  0
 18 41  1  6
 19 42  1  0
 20 43  1  0
 23 44  1  0
 25 45  1  0
 25 46  1  0
 25 47  1  0
M  ISO  8  26  13  27  13  28  13  29  13  30  13  31  13  32  13  33  13
M  ISO  8  34  13  35  14  36  14  39   8  40   8  41   8  42  14  43  14
M  ISO  4  44  14  45   8  46   8  47   8
M  END
>  <minimizedAffinity>  (1) 
-4.67989874

>  <minimizedRMSD>  (1) 
2.2380805

$$$$
