
     RDKit          3D

 44 46  0  0  1  0  0  0  0  0999 V2000
   35.5630   29.7070   33.0050 N   0  0  0  0  0  0  0  0  0  0  0  0
   35.3660   29.2140   34.3380 C   0  0  0  0  0  0  0  0  0  0  0  0
   33.9380   29.3430   34.7940 C   0  0  0  0  0  0  0  0  0  0  0  0
   33.5300   30.8110   34.7210 C   0  0  0  0  0  0  0  0  0  0  0  0
   33.6110   31.1850   33.2630 C   0  0  0  0  0  0  0  0  0  0  0  0
   35.0480   31.0570   32.8250 C   0  0  1  0  0  0  0  0  0  0  0  0
   35.8740   32.0860   33.4750 C   0  0  0  0  0  0  0  0  0  0  0  0
   36.6370   32.9890   32.7290 C   0  0  0  0  0  0  0  0  0  0  0  0
   37.4240   33.9840   33.2710 C   0  0  0  0  0  0  0  0  0  0  0  0
   37.4840   34.1260   34.6290 C   0  0  0  0  0  0  0  0  0  0  0  0
   36.7640   33.2760   35.4240 C   0  0  0  0  0  0  0  0  0  0  0  0
   36.0020   32.3100   34.8300 C   0  0  0  0  0  0  0  0  0  0  0  0
   35.0460   28.8700   31.9880 C   0  0  0  0  0  0  0  0  0  0  0  0
   36.0680   28.1460   31.1320 C   0  0  2  0  0  0  0  0  0  0  0  0
   35.3940   24.4170   31.2190 C   0  0  0  0  0  0  0  0  0  0  0  0
   35.2940   25.7900   30.9020 C   0  0  0  0  0  0  0  0  0  0  0  0
   36.1580   26.7180   31.4560 C   0  0  0  0  0  0  0  0  0  0  0  0
   37.0930   26.2270   32.3100 N   0  0  0  0  0  0  0  0  0  0  0  0
   37.2090   24.9310   32.6270 C   0  0  0  0  0  0  0  0  0  0  0  0
   36.3630   24.0140   32.0870 N   0  0  0  0  0  0  0  0  0  0  0  0
   37.3800   28.8840   31.2270 C   0  0  0  0  0  0  0  0  0  0  0  0
   35.6512   28.1520   34.3673 H   0  0  0  0  0  0  0  0  0  0  0  0
   35.9889   29.8184   35.0137 H   0  0  0  0  0  0  0  0  0  0  0  0
   33.2857   28.7450   34.1407 H   0  0  0  0  0  0  0  0  0  0  0  0
   33.8411   28.9788   35.8274 H   0  0  0  0  0  0  0  0  0  0  0  0
   32.5037   30.9428   35.0943 H   0  0  0  0  0  0  0  0  0  0  0  0
   34.1824   31.4449   35.3395 H   0  0  0  0  0  0  0  0  0  0  0  0
   32.9787   30.5087   32.6690 H   0  0  0  0  0  0  0  0  0  0  0  0
   33.2580   32.2161   33.1142 H   0  0  0  0  0  0  0  0  0  0  0  0
   35.0959   31.2377   31.7410 H   0  0  0  0  0  0  0  0  0  0  0  0
   36.6078   32.9000   31.6330 H   0  0  0  0  0  0  0  0  0  0  0  0
   37.9977   34.6566   32.6165 H   0  0  0  0  0  0  0  0  0  0  0  0
   38.1046   34.9153   35.0783 H   0  0  0  0  0  0  0  0  0  0  0  0
   36.7981   33.3687   36.5196 H   0  0  0  0  0  0  0  0  0  0  0  0
   35.4347   31.6454   35.4982 H   0  0  0  0  0  0  0  0  0  0  0  0
   34.4123   28.1102   32.4687 H   0  0  0  0  0  0  0  0  0  0  0  0
   34.5082   29.5397   31.3008 H   0  0  0  0  0  0  0  0  0  0  0  0
   35.7484   28.1545   30.0795 H   0  0  0  0  0  0  0  0  0  0  0  0
   34.7022   23.6871   30.7732 H   0  0  0  0  0  0  0  0  0  0  0  0
   34.5153   26.1274   30.2022 H   0  0  0  0  0  0  0  0  0  0  0  0
   37.9926   24.6069   33.3277 H   0  0  0  0  0  0  0  0  0  0  0  0
   37.6420   29.0314   32.2851 H   0  0  0  0  0  0  0  0  0  0  0  0
   38.1677   28.2966   30.7326 H   0  0  0  0  0  0  0  0  0  0  0  0
   37.2871   29.8622   30.7326 H   0  0  0  0  0  0  0  0  0  0  0  0
  1  2  1  0
  2  3  1  0
  4  3  1  0
  5  4  1  0
  6  1  1  0
  6  5  1  0
  6  7  1  0
  7 12  2  0
  8  9  2  0
  8  7  1  0
  9 10  1  0
 10 11  2  0
 12 11  1  0
 13  1  1  0
 14 21  1  0
 14 17  1  0
 14 13  1  0
 15 20  2  0
 16 15  1  0
 16 17  2  0
 17 18  1  0
 18 19  2  0
 20 19  1  0
  2 22  1  0
  2 23  1  0
  3 24  1  0
  3 25  1  0
  4 26  1  0
  4 27  1  0
  5 28  1  0
  5 29  1  0
  6 30  1  6
  8 31  1  0
  9 32  1  0
 10 33  1  0
 11 34  1  0
 12 35  1  0
 13 36  1  0
 13 37  1  0
 14 38  1  6
 15 39  1  0
 16 40  1  0
 19 41  1  0
 21 42  1  0
 21 43  1  0
 21 44  1  0
M  ISO  8  22  13  23  13  24  13  25  13  26  13  27  13  28  13  29  13
M  ISO  8  30  13  31  14  32  14  33  14  34  14  35  14  36   8  37   8
M  ISO  7  38   8  39  14  40  14  41  14  42   8  43   8  44   8
M  END
>  <minimizedAffinity>  (1) 
-4.61575794

>  <minimizedRMSD>  (1) 
2.56858373

$$$$
