
     RDKit          3D

 48 51  0  0  1  0  0  0  0  0999 V2000
   33.6080   29.9330   33.6900 N   0  0  0  0  0  0  0  0  0  0  0  0
   32.9730   29.3670   34.8370 C   0  0  0  0  0  0  0  0  0  0  0  0
   31.5640   28.9000   34.5610 C   0  0  0  0  0  0  0  0  0  0  0  0
   30.7630   30.0980   34.1020 C   0  0  0  0  0  0  0  0  0  0  0  0
   31.3910   30.5170   32.7780 C   0  0  0  0  0  0  0  0  0  0  0  0
   32.7930   30.9620   33.0430 C   0  0  1  0  0  0  0  0  0  0  0  0
   32.8080   32.2230   33.8250 C   0  0  0  0  0  0  0  0  0  0  0  0
   31.7320   33.0500   33.9810 N   0  0  0  0  0  0  0  0  0  0  0  0
   31.7290   34.1690   34.6800 C   0  0  0  0  0  0  0  0  0  0  0  0
   32.8200   34.6100   35.3250 N   0  0  0  0  0  0  0  0  0  0  0  0
   33.9370   33.8680   35.2370 C   0  0  0  0  0  0  0  0  0  0  0  0
   35.0650   34.3090   35.8910 C   0  0  0  0  0  0  0  0  0  0  0  0
   36.2390   33.5840   35.8280 C   0  0  0  0  0  0  0  0  0  0  0  0
   36.2470   32.3990   35.0880 C   0  0  0  0  0  0  0  0  0  0  0  0
   35.0900   32.0010   34.4530 C   0  0  0  0  0  0  0  0  0  0  0  0
   33.9120   32.7040   34.4990 C   0  0  0  0  0  0  0  0  0  0  0  0
   33.9840   28.9680   32.7100 C   0  0  0  0  0  0  0  0  0  0  0  0
   35.3790   29.1350   32.1270 C   0  0  2  0  0  0  0  0  0  0  0  0
   37.3060   27.6950   35.0600 C   0  0  0  0  0  0  0  0  0  0  0  0
   36.3220   28.3850   34.3080 C   0  0  0  0  0  0  0  0  0  0  0  0
   36.3860   28.4350   32.9270 C   0  0  0  0  0  0  0  0  0  0  0  0
   37.4490   27.7820   32.3430 N   0  0  0  0  0  0  0  0  0  0  0  0
   38.3760   27.1310   33.0540 C   0  0  0  0  0  0  0  0  0  0  0  0
   38.3190   27.0780   34.4110 N   0  0  0  0  0  0  0  0  0  0  0  0
   35.6660   30.6040   31.9340 C   0  0  0  0  0  0  0  0  0  0  0  0
   33.5672   28.5062   35.1776 H   0  0  0  0  0  0  0  0  0  0  0  0
   32.9146   30.1544   35.6028 H   0  0  0  0  0  0  0  0  0  0  0  0
   31.5717   28.1310   33.7745 H   0  0  0  0  0  0  0  0  0  0  0  0
   31.1187   28.4637   35.4673 H   0  0  0  0  0  0  0  0  0  0  0  0
   29.7074   29.8238   33.9583 H   0  0  0  0  0  0  0  0  0  0  0  0
   30.7821   30.9123   34.8413 H   0  0  0  0  0  0  0  0  0  0  0  0
   30.8149   31.3447   32.3386 H   0  0  0  0  0  0  0  0  0  0  0  0
   31.3885   29.6722   32.0735 H   0  0  0  0  0  0  0  0  0  0  0  0
   33.2529   31.1493   32.0615 H   0  0  0  0  0  0  0  0  0  0  0  0
   30.8025   34.7594   34.7358 H   0  0  0  0  0  0  0  0  0  0  0  0
   35.0313   35.2451   36.4677 H   0  0  0  0  0  0  0  0  0  0  0  0
   37.1446   33.9308   36.3472 H   0  0  0  0  0  0  0  0  0  0  0  0
   37.1621   31.7932   35.0133 H   0  0  0  0  0  0  0  0  0  0  0  0
   35.1121   31.0650   33.8755 H   0  0  0  0  0  0  0  0  0  0  0  0
   33.9283   27.9729   33.1756 H   0  0  0  0  0  0  0  0  0  0  0  0
   33.2875   29.1044   31.8696 H   0  0  0  0  0  0  0  0  0  0  0  0
   35.4274   28.6587   31.1366 H   0  0  0  0  0  0  0  0  0  0  0  0
   37.2461   27.6620   36.1579 H   0  0  0  0  0  0  0  0  0  0  0  0
   35.4951   28.8882   34.8305 H   0  0  0  0  0  0  0  0  0  0  0  0
   39.2018   26.6279   32.5296 H   0  0  0  0  0  0  0  0  0  0  0  0
   35.7612   31.0911   32.9157 H   0  0  0  0  0  0  0  0  0  0  0  0
   36.6045   30.7236   31.3728 H   0  0  0  0  0  0  0  0  0  0  0  0
   34.8415   31.0680   31.3728 H   0  0  0  0  0  0  0  0  0  0  0  0
  1  2  1  0
  3  2  1  0
  4  3  1  0
  5  6  1  0
  5  4  1  0
  6  1  1  0
  6  7  1  0
  7  8  2  0
  7 16  1  0
  8  9  1  0
  9 10  2  0
 11 10  1  0
 11 12  2  0
 13 12  1  0
 14 13  2  0
 15 16  2  0
 15 14  1  0
 16 11  1  0
 17  1  1  0
 18 17  1  0
 18 21  1  0
 20 19  2  0
 21 20  1  0
 22 21  2  0
 22 23  1  0
 23 24  2  0
 24 19  1  0
 25 18  1  0
  2 26  1  0
  2 27  1  0
  3 28  1  0
  3 29  1  0
  4 30  1  0
  4 31  1  0
  5 32  1  0
  5 33  1  0
  6 34  1  6
  9 35  1  0
 12 36  1  0
 13 37  1  0
 14 38  1  0
 15 39  1  0
 17 40  1  0
 17 41  1  0
 18 42  1  6
 19 43  1  0
 20 44  1  0
 23 45  1  0
 25 46  1  0
 25 47  1  0
 25 48  1  0
M  ISO  8  26  13  27  13  28  13  29  13  30  13  31  13  32  13  33  13
M  ISO  8  34  13  35  14  36  14  37  14  38  14  39  14  40   8  41   8
M  ISO  7  42   8  43  14  44  14  45  14  46   8  47   8  48   8
M  END
>  <minimizedAffinity>  (1) 
-4.48735714

>  <minimizedRMSD>  (1) 
3.9274857

$$$$
