
     RDKit          3D

 41 43  0  0  1  0  0  0  0  0999 V2000
   36.2630   28.0100   33.3850 N   0  0  0  0  0  0  0  0  0  0  0  0
   36.5700   27.4460   34.6820 C   0  0  0  0  0  0  0  0  0  0  0  0
   38.0550   27.4160   34.9630 C   0  0  0  0  0  0  0  0  0  0  0  0
   38.7200   26.5740   33.8750 C   0  0  0  0  0  0  0  0  0  0  0  0
   38.5020   27.3470   32.5790 C   0  0  0  0  0  0  0  0  0  0  0  0
   37.0250   27.3960   32.3230 C   0  0  1  0  0  0  0  0  0  0  0  0
   36.4590   26.1280   31.9000 N   0  0  0  0  0  0  0  0  0  0  0  0
   36.9780   24.9430   32.1810 N   0  0  0  0  0  0  0  0  0  0  0  0
   36.2470   23.9460   31.6640 C   0  0  0  0  0  0  0  0  0  0  0  0
   35.2130   24.5800   31.0250 C   0  0  0  0  0  0  0  0  0  0  0  0
   35.3270   25.9630   31.1610 C   0  0  0  0  0  0  0  0  0  0  0  0
   36.4290   29.4120   33.3150 C   0  0  0  0  0  0  0  0  0  0  0  0
   35.2300   30.2070   32.8230 C   0  0  2  0  0  0  0  0  0  0  0  0
   32.5280   29.4900   35.3850 C   0  0  0  0  0  0  0  0  0  0  0  0
   33.7410   29.9190   34.8020 C   0  0  0  0  0  0  0  0  0  0  0  0
   33.9780   29.7590   33.4490 C   0  0  0  0  0  0  0  0  0  0  0  0
   32.9790   29.1640   32.7070 N   0  0  0  0  0  0  0  0  0  0  0  0
   31.8290   28.7570   33.2620 C   0  0  0  0  0  0  0  0  0  0  0  0
   31.5810   28.9090   34.5930 N   0  0  0  0  0  0  0  0  0  0  0  0
   35.2130   30.1530   31.3140 C   0  0  0  0  0  0  0  0  0  0  0  0
   36.0766   28.0521   35.4561 H   0  0  0  0  0  0  0  0  0  0  0  0
   36.2072   26.4076   34.6894 H   0  0  0  0  0  0  0  0  0  0  0  0
   38.4600   28.4386   34.9445 H   0  0  0  0  0  0  0  0  0  0  0  0
   38.2493   26.9836   35.9556 H   0  0  0  0  0  0  0  0  0  0  0  0
   39.7948   26.4595   34.0793 H   0  0  0  0  0  0  0  0  0  0  0  0
   38.2961   25.5602   33.8243 H   0  0  0  0  0  0  0  0  0  0  0  0
   38.8993   28.3678   32.6798 H   0  0  0  0  0  0  0  0  0  0  0  0
   39.0227   26.8556   31.7439 H   0  0  0  0  0  0  0  0  0  0  0  0
   36.9306   28.0714   31.4599 H   0  0  0  0  0  0  0  0  0  0  0  0
   36.4341   22.8644   31.7360 H   0  0  0  0  0  0  0  0  0  0  0  0
   34.4055   24.0686   30.4806 H   0  0  0  0  0  0  0  0  0  0  0  0
   34.6579   26.7404   30.7636 H   0  0  0  0  0  0  0  0  0  0  0  0
   36.6783   29.7711   34.3244 H   0  0  0  0  0  0  0  0  0  0  0  0
   37.2185   29.5776   32.5672 H   0  0  0  0  0  0  0  0  0  0  0  0
   35.3209   31.2601   33.1276 H   0  0  0  0  0  0  0  0  0  0  0  0
   32.3494   29.6225   36.4623 H   0  0  0  0  0  0  0  0  0  0  0  0
   34.5094   30.3878   35.4343 H   0  0  0  0  0  0  0  0  0  0  0  0
   31.0645   28.2874   32.6255 H   0  0  0  0  0  0  0  0  0  0  0  0
   34.8977   29.1514   30.9865 H   0  0  0  0  0  0  0  0  0  0  0  0
   34.5078   30.9039   30.9281 H   0  0  0  0  0  0  0  0  0  0  0  0
   36.2212   30.3645   30.9281 H   0  0  0  0  0  0  0  0  0  0  0  0
  1  2  1  0
  2  3  1  0
  4  3  1  0
  5  4  1  0
  6  5  1  0
  6  1  1  0
  7  8  1  0
  7  6  1  0
  9  8  2  0
 10 11  2  0
 10  9  1  0
 11  7  1  0
 12  1  1  0
 13 12  1  0
 13 16  1  0
 15 14  2  0
 16 15  1  0
 17 18  1  0
 17 16  2  0
 18 19  2  0
 19 14  1  0
 20 13  1  0
  2 21  1  0
  2 22  1  0
  3 23  1  0
  3 24  1  0
  4 25  1  0
  4 26  1  0
  5 27  1  0
  5 28  1  0
  6 29  1  6
  9 30  1  0
 10 31  1  0
 11 32  1  0
 12 33  1  0
 12 34  1  0
 13 35  1  6
 14 36  1  0
 15 37  1  0
 18 38  1  0
 20 39  1  0
 20 40  1  0
 20 41  1  0
M  ISO  8  21  13  22  13  23  13  24  13  25  13  26  13  27  13  28  13
M  ISO  8  29  13  30  14  31  14  32  14  33   8  34   8  35   8  36  14
M  ISO  5  37  14  38  14  39   8  40   8  41   8
M  END
>  <minimizedAffinity>  (1) 
-4.32232189

>  <minimizedRMSD>  (1) 
6.1956048

$$$$
