
     RDKit          3D

 47 49  0  0  1  0  0  0  0  0999 V2000
   35.6140   29.5950   32.9270 N   0  0  0  0  0  0  0  0  0  0  0  0
   35.5710   29.3610   34.3390 C   0  0  0  0  0  0  0  0  0  0  0  0
   34.1640   29.4550   34.8960 C   0  0  0  0  0  0  0  0  0  0  0  0
   33.6480   30.8620   34.6020 C   0  0  0  0  0  0  0  0  0  0  0  0
   33.5800   30.9570   33.0870 C   0  0  0  0  0  0  0  0  0  0  0  0
   34.9450   30.8320   32.5380 C   0  0  1  0  0  0  0  0  0  0  0  0
   35.8170   31.9380   32.7210 N   0  0  0  0  0  0  0  0  0  0  0  0
   35.8200   32.5680   33.9380 C   0  0  0  0  0  0  0  0  0  0  0  0
   36.5990   33.6440   34.2760 C   0  0  0  0  0  0  0  0  0  0  0  0
   36.5840   34.3060   35.5960 C   0  0  0  0  0  0  0  0  0  0  0  0
   37.4620   34.1560   33.3330 C   0  0  0  0  0  0  0  0  0  0  0  0
   38.2130   35.1390   33.5560 O   0  0  0  0  0  0  0  0  0  0  0  0
   37.4830   33.5610   32.1330 N   0  0  0  0  0  0  0  0  0  0  0  0
   36.6820   32.5130   31.8970 C   0  0  0  0  0  0  0  0  0  0  0  0
   36.7820   32.0320   30.7440 O   0  0  0  0  0  0  0  0  0  0  0  0
   35.1010   28.5350   32.1510 C   0  0  0  0  0  0  0  0  0  0  0  0
   36.0710   27.8390   31.2200 C   0  0  2  0  0  0  0  0  0  0  0  0
   35.4110   24.1030   31.2570 C   0  0  0  0  0  0  0  0  0  0  0  0
   35.2840   25.4810   30.9790 C   0  0  0  0  0  0  0  0  0  0  0  0
   36.1770   26.3990   31.4980 C   0  0  0  0  0  0  0  0  0  0  0  0
   37.1660   25.8870   32.2820 N   0  0  0  0  0  0  0  0  0  0  0  0
   37.3000   24.5840   32.5550 C   0  0  0  0  0  0  0  0  0  0  0  0
   36.4220   23.6830   32.0430 N   0  0  0  0  0  0  0  0  0  0  0  0
   37.3900   28.5730   31.2750 C   0  0  0  0  0  0  0  0  0  0  0  0
   35.9655   28.3546   34.5428 H   0  0  0  0  0  0  0  0  0  0  0  0
   36.1784   30.1374   34.8271 H   0  0  0  0  0  0  0  0  0  0  0  0
   33.5174   28.7087   34.4113 H   0  0  0  0  0  0  0  0  0  0  0  0
   34.1615   29.2593   35.9785 H   0  0  0  0  0  0  0  0  0  0  0  0
   32.6502   31.0060   35.0420 H   0  0  0  0  0  0  0  0  0  0  0  0
   34.3008   31.6359   35.0321 H   0  0  0  0  0  0  0  0  0  0  0  0
   32.9484   30.1466   32.6942 H   0  0  0  0  0  0  0  0  0  0  0  0
   33.1475   31.9248   32.7934 H   0  0  0  0  0  0  0  0  0  0  0  0
   34.7367   30.8100   31.4581 H   0  0  0  0  0  0  0  0  0  0  0  0
   35.1396   32.1771   34.7089 H   0  0  0  0  0  0  0  0  0  0  0  0
   36.6013   33.5436   36.3888 H   0  0  0  0  0  0  0  0  0  0  0  0
   37.4677   34.9541   35.6912 H   0  0  0  0  0  0  0  0  0  0  0  0
   35.6719   34.9134   35.6912 H   0  0  0  0  0  0  0  0  0  0  0  0
   38.1122   33.9076   31.3948 H   0  0  0  0  0  0  0  0  0  0  0  0
   34.7028   27.7783   32.8430 H   0  0  0  0  0  0  0  0  0  0  0  0
   34.3511   28.9972   31.4922 H   0  0  0  0  0  0  0  0  0  0  0  0
   35.6964   27.8804   30.1866 H   0  0  0  0  0  0  0  0  0  0  0  0
   34.6943   23.3815   30.8377 H   0  0  0  0  0  0  0  0  0  0  0  0
   34.4605   25.8299   30.3386 H   0  0  0  0  0  0  0  0  0  0  0  0
   38.1248   24.2410   33.1969 H   0  0  0  0  0  0  0  0  0  0  0  0
   37.6772   28.7328   32.3248 H   0  0  0  0  0  0  0  0  0  0  0  0
   38.1634   27.9755   30.7701 H   0  0  0  0  0  0  0  0  0  0  0  0
   37.2900   29.5452   30.7701 H   0  0  0  0  0  0  0  0  0  0  0  0
  1  2  1  0
  2  3  1  0
  4  3  1  0
  5  4  1  0
  6  7  1  0
  6  1  1  0
  6  5  1  0
  7  8  1  0
  8  9  2  0
  9 10  1  0
 11 12  2  0
 11  9  1  0
 13 11  1  0
 14 13  1  0
 14  7  1  0
 15 14  2  0
 16  1  1  0
 17 24  1  0
 17 20  1  0
 17 16  1  0
 18 23  2  0
 19 18  1  0
 19 20  2  0
 20 21  1  0
 21 22  2  0
 23 22  1  0
  2 25  1  0
  2 26  1  0
  3 27  1  0
  3 28  1  0
  4 29  1  0
  4 30  1  0
  5 31  1  0
  5 32  1  0
  6 33  1  6
  8 34  1  0
 10 35  1  0
 10 36  1  0
 10 37  1  0
 13 38  1  0
 16 39  1  0
 16 40  1  0
 17 41  1  6
 18 42  1  0
 19 43  1  0
 22 44  1  0
 24 45  1  0
 24 46  1  0
 24 47  1  0
M  ISO  8  25  13  26  13  27  13  28  13  29  13  30  13  31  13  32  13
M  ISO  8  33  13  34  14  35   8  36   8  37   8  38   9  39   8  40   8
M  ISO  7  41   8  42  14  43  14  44  14  45   8  46   8  47   8
M  END
>  <minimizedAffinity>  (1) 
-4.51033545

>  <minimizedRMSD>  (1) 
2.38881898

$$$$
