
     RDKit          3D

 41 42  0  0  1  0  0  0  0  0999 V2000
   35.1840   30.4810   33.8540 N   0  0  0  0  0  0  0  0  0  0  0  0
   36.0230   31.3000   34.7040 C   0  0  0  0  0  0  0  0  0  0  0  0
   35.4980   31.4060   36.1110 C   0  0  0  0  0  0  0  0  0  0  0  0
   34.0910   31.9770   36.0740 C   0  0  0  0  0  0  0  0  0  0  0  0
   33.2350   30.9850   35.2860 C   0  0  0  0  0  0  0  0  0  0  0  0
   33.8020   30.8910   33.9050 C   0  0  1  0  0  0  0  0  0  0  0  0
   33.5840   32.0750   33.1250 N   0  0  0  0  0  0  0  0  0  0  0  0
   33.2810   31.9580   31.7400 C   0  0  0  0  0  0  0  0  0  0  0  0
   33.6190   30.9370   31.0550 N   0  0  0  0  0  0  0  0  0  0  0  0
   32.5780   32.9970   31.0710 N   0  0  0  0  0  0  0  0  0  0  0  0
   34.1300   30.1080   31.3990 H   0  0  0  0  0  0  0  0  0  0  0  0
   35.2790   29.0950   34.1200 C   0  0  0  0  0  0  0  0  0  0  0  0
   36.1590   28.2880   33.1790 C   0  0  2  0  0  0  0  0  0  0  0  0
   38.6260   27.2480   35.8620 C   0  0  0  0  0  0  0  0  0  0  0  0
   37.4640   27.7430   35.2290 C   0  0  0  0  0  0  0  0  0  0  0  0
   37.3650   27.7820   33.8480 C   0  0  0  0  0  0  0  0  0  0  0  0
   38.4470   27.3180   33.1330 N   0  0  0  0  0  0  0  0  0  0  0  0
   39.5460   26.8490   33.7400 C   0  0  0  0  0  0  0  0  0  0  0  0
   39.6560   26.8060   35.0940 N   0  0  0  0  0  0  0  0  0  0  0  0
   36.4410   29.1280   31.9590 C   0  0  0  0  0  0  0  0  0  0  0  0
   37.0295   30.8573   34.7365 H   0  0  0  0  0  0  0  0  0  0  0  0
   36.0378   32.3140   34.2779 H   0  0  0  0  0  0  0  0  0  0  0  0
   35.4786   30.4080   36.5732 H   0  0  0  0  0  0  0  0  0  0  0  0
   36.1506   32.0657   36.7017 H   0  0  0  0  0  0  0  0  0  0  0  0
   33.6996   32.0872   37.0961 H   0  0  0  0  0  0  0  0  0  0  0  0
   34.0796   32.9710   35.6030 H   0  0  0  0  0  0  0  0  0  0  0  0
   33.2637   29.9979   35.7707 H   0  0  0  0  0  0  0  0  0  0  0  0
   32.1887   31.3226   35.2505 H   0  0  0  0  0  0  0  0  0  0  0  0
   33.2262   30.0767   33.4410 H   0  0  0  0  0  0  0  0  0  0  0  0
   33.6465   33.0042   33.5650 H   0  0  0  0  0  0  0  0  0  0  0  0
   32.3604   32.9087   30.0681 H   0  0  0  0  0  0  0  0  0  0  0  0
   32.2863   33.8380   31.5892 H   0  0  0  0  0  0  0  0  0  0  0  0
   35.6787   28.9756   35.1378 H   0  0  0  0  0  0  0  0  0  0  0  0
   34.2619   28.6993   33.9825 H   0  0  0  0  0  0  0  0  0  0  0  0
   35.6336   27.3778   32.8542 H   0  0  0  0  0  0  0  0  0  0  0  0
   38.6958   27.2209   36.9594 H   0  0  0  0  0  0  0  0  0  0  0  0
   36.6249   28.1030   35.8424 H   0  0  0  0  0  0  0  0  0  0  0  0
   40.3833   26.4884   33.1245 H   0  0  0  0  0  0  0  0  0  0  0  0
   36.7766   30.1278   32.2718 H   0  0  0  0  0  0  0  0  0  0  0  0
   37.2275   28.6487   31.3576 H   0  0  0  0  0  0  0  0  0  0  0  0
   35.5246   29.2204   31.3576 H   0  0  0  0  0  0  0  0  0  0  0  0
  1  6  1  0
  1 12  1  0
  1  2  1  0
  2  3  1  0
  4  3  1  0
  5  4  1  0
  6  5  1  0
  7  6  1  0
  8  7  1  0
  9 11  1  0
  9  8  2  0
 10  8  1  0
 13 16  1  0
 13 12  1  0
 15 14  2  0
 16 15  1  0
 17 18  1  0
 17 16  2  0
 18 19  2  0
 19 14  1  0
 20 13  1  0
  2 21  1  0
  2 22  1  0
  3 23  1  0
  3 24  1  0
  4 25  1  0
  4 26  1  0
  5 27  1  0
  5 28  1  0
  6 29  1  6
  7 30  1  0
 10 31  1  0
 10 32  1  0
 12 33  1  0
 12 34  1  0
 13 35  1  6
 14 36  1  0
 15 37  1  0
 18 38  1  0
 20 39  1  0
 20 40  1  0
 20 41  1  0
M  ISO  8  21  13  22  13  23  13  24  13  25  13  26  13  27  13  28  13
M  ISO  8  29  13  33   8  34   8  35   8  36  14  37  14  38  14  39   8
M  ISO  2  40   8  41   8
M  END
>  <minimizedAffinity>  (1) 
-4.02638006

>  <minimizedRMSD>  (1) 
3.50927567

$$$$
