
     RDKit          3D

 37 38  0  0  1  0  0  0  0  0999 V2000
   35.1010   30.0410   33.1500 N   0  0  0  0  0  0  0  0  0  0  0  0
   35.5200   31.2580   33.8140 C   0  0  0  0  0  0  0  0  0  0  0  0
   34.7480   31.5190   35.0870 C   0  0  0  0  0  0  0  0  0  0  0  0
   33.2670   31.6160   34.7330 C   0  0  0  0  0  0  0  0  0  0  0  0
   32.8710   30.2360   34.1990 C   0  0  0  0  0  0  0  0  0  0  0  0
   33.6730   29.9840   32.9610 C   0  0  1  0  0  0  0  0  0  0  0  0
   35.5270   28.8610   33.8020 C   0  0  0  0  0  0  0  0  0  0  0  0
   36.4330   27.9380   33.0030 C   0  0  2  0  0  0  0  0  0  0  0  0
   38.8000   27.1510   35.8570 C   0  0  0  0  0  0  0  0  0  0  0  0
   37.6430   27.5320   35.1410 C   0  0  0  0  0  0  0  0  0  0  0  0
   37.6300   27.5500   33.7570 C   0  0  0  0  0  0  0  0  0  0  0  0
   38.7950   27.1780   33.1220 N   0  0  0  0  0  0  0  0  0  0  0  0
   39.8930   26.8160   33.7950 C   0  0  0  0  0  0  0  0  0  0  0  0
   39.9160   26.7950   35.1610 N   0  0  0  0  0  0  0  0  0  0  0  0
   36.7310   28.5980   31.6790 C   0  0  0  0  0  0  0  0  0  0  0  0
   33.2150   30.7700   31.8030 C   0  0  0  0  0  0  0  0  0  0  0  0
   32.0370   31.2100   31.6590 O   0  0  0  0  0  0  0  0  0  0  0  0
   34.1550   31.0400   30.8020 O   0  0  0  0  0  0  0  0  0  0  0  0
   36.5888   31.1752   34.0605 H   0  0  0  0  0  0  0  0  0  0  0  0
   35.3264   32.0961   33.1283 H   0  0  0  0  0  0  0  0  0  0  0  0
   34.9084   30.6934   35.7960 H   0  0  0  0  0  0  0  0  0  0  0  0
   35.0897   32.4543   35.5545 H   0  0  0  0  0  0  0  0  0  0  0  0
   32.6756   31.8645   35.6266 H   0  0  0  0  0  0  0  0  0  0  0  0
   33.0806   32.4051   33.9897 H   0  0  0  0  0  0  0  0  0  0  0  0
   33.0909   29.4649   34.9521 H   0  0  0  0  0  0  0  0  0  0  0  0
   31.7944   30.2019   33.9760 H   0  0  0  0  0  0  0  0  0  0  0  0
   33.4691   28.9310   32.7168 H   0  0  0  0  0  0  0  0  0  0  0  0
   36.0698   29.1582   34.7114 H   0  0  0  0  0  0  0  0  0  0  0  0
   34.6103   28.2822   33.9881 H   0  0  0  0  0  0  0  0  0  0  0  0
   35.9224   26.9841   32.8046 H   0  0  0  0  0  0  0  0  0  0  0  0
   38.7998   27.1419   36.9570 H   0  0  0  0  0  0  0  0  0  0  0  0
   36.7363   27.8195   35.6934 H   0  0  0  0  0  0  0  0  0  0  0  0
   40.7965   26.5292   33.2369 H   0  0  0  0  0  0  0  0  0  0  0  0
   37.1778   29.5876   31.8550 H   0  0  0  0  0  0  0  0  0  0  0  0
   37.4348   27.9741   31.1085 H   0  0  0  0  0  0  0  0  0  0  0  0
   35.7976   28.7133   31.1085 H   0  0  0  0  0  0  0  0  0  0  0  0
   33.8923   31.5650   30.0048 H   0  0  0  0  0  0  0  0  0  0  0  0
  1  7  1  0
  1  2  1  0
  2  3  1  0
  4  3  1  0
  5  4  1  0
  6  1  1  0
  6  5  1  0
  8 11  1  0
  8  7  1  0
 10  9  2  0
 11 10  1  0
 12 11  2  0
 12 13  1  0
 13 14  2  0
 14  9  1  0
 15  8  1  0
 16  6  1  0
 17 16  2  0
 18 16  1  0
  2 19  1  0
  2 20  1  0
  3 21  1  0
  3 22  1  0
  4 23  1  0
  4 24  1  0
  5 25  1  0
  5 26  1  0
  6 27  1  6
  7 28  1  0
  7 29  1  0
  8 30  1  6
  9 31  1  0
 10 32  1  0
 13 33  1  0
 15 34  1  0
 15 35  1  0
 15 36  1  0
 18 37  1  0
M  ISO  8  19  13  20  13  21  13  22  13  23  13  24  13  25  13  26  13
M  ISO  8  27  13  28   8  29   8  30   8  31  14  32  14  33  14  34   8
M  ISO  3  35   8  36   8  37   3
M  END
>  <minimizedAffinity>  (1) 
-4.01786995

>  <minimizedRMSD>  (1) 
3.14773536

$$$$
