
     RDKit          3D

 46 48  0  0  1  0  0  0  0  0999 V2000
   33.8630   30.1620   33.8440 N   0  0  0  0  0  0  0  0  0  0  0  0
   33.2900   29.2320   34.7930 C   0  0  0  0  0  0  0  0  0  0  0  0
   31.7840   29.1410   34.6650 C   0  0  0  0  0  0  0  0  0  0  0  0
   31.2040   30.5300   34.9130 C   0  0  0  0  0  0  0  0  0  0  0  0
   31.7400   31.4150   33.7790 C   0  0  0  0  0  0  0  0  0  0  0  0
   33.2330   31.4590   33.9380 C   0  0  1  0  0  0  0  0  0  0  0  0
   33.5130   31.8760   35.2780 N   0  0  0  0  0  0  0  0  0  0  0  0
   33.0930   33.1940   35.6170 C   0  0  0  0  0  0  0  0  0  0  0  0
   33.6710   33.2810   37.0280 C   0  0  0  0  0  0  0  0  0  0  0  0
   34.8580   32.3250   37.0450 C   0  0  0  0  0  0  0  0  0  0  0  0
   34.9310   31.9190   35.5790 C   0  0  0  0  0  0  0  0  0  0  0  0
   33.8710   29.7050   32.5130 C   0  0  0  0  0  0  0  0  0  0  0  0
   35.2420   29.4970   31.8840 C   0  0  2  0  0  0  0  0  0  0  0  0
   36.3480   25.8710   31.9400 C   0  0  0  0  0  0  0  0  0  0  0  0
   35.7500   27.0840   31.5280 C   0  0  0  0  0  0  0  0  0  0  0  0
   35.8520   28.2270   32.3000 C   0  0  0  0  0  0  0  0  0  0  0  0
   36.5590   28.1220   33.4790 N   0  0  0  0  0  0  0  0  0  0  0  0
   37.1250   26.9730   33.8660 C   0  0  0  0  0  0  0  0  0  0  0  0
   37.0310   25.8390   33.1140 N   0  0  0  0  0  0  0  0  0  0  0  0
   36.0850   30.7120   32.1690 C   0  0  0  0  0  0  0  0  0  0  0  0
   33.7215   28.2355   34.6174 H   0  0  0  0  0  0  0  0  0  0  0  0
   33.5220   29.5955   35.8049 H   0  0  0  0  0  0  0  0  0  0  0  0
   31.5154   28.7995   33.6545 H   0  0  0  0  0  0  0  0  0  0  0  0
   31.3815   28.4234   35.3951 H   0  0  0  0  0  0  0  0  0  0  0  0
   30.1048   30.4966   34.8861 H   0  0  0  0  0  0  0  0  0  0  0  0
   31.4920   30.9188   35.9009 H   0  0  0  0  0  0  0  0  0  0  0  0
   31.3199   32.4286   33.8577 H   0  0  0  0  0  0  0  0  0  0  0  0
   31.4576   31.0130   32.7948 H   0  0  0  0  0  0  0  0  0  0  0  0
   33.6094   32.1192   33.1427 H   0  0  0  0  0  0  0  0  0  0  0  0
   33.5286   33.9497   34.9468 H   0  0  0  0  0  0  0  0  0  0  0  0
   32.0112   33.3776   35.5396 H   0  0  0  0  0  0  0  0  0  0  0  0
   34.0017   34.3075   37.2448 H   0  0  0  0  0  0  0  0  0  0  0  0
   32.9240   33.0157   37.7907 H   0  0  0  0  0  0  0  0  0  0  0  0
   35.7790   32.8314   37.3695 H   0  0  0  0  0  0  0  0  0  0  0  0
   34.7486   31.4814   37.7424 H   0  0  0  0  0  0  0  0  0  0  0  0
   35.4094   30.9373   35.4473 H   0  0  0  0  0  0  0  0  0  0  0  0
   35.5286   32.5821   34.9363 H   0  0  0  0  0  0  0  0  0  0  0  0
   33.3390   28.7426   32.4850 H   0  0  0  0  0  0  0  0  0  0  0  0
   33.3938   30.5022   31.9242 H   0  0  0  0  0  0  0  0  0  0  0  0
   35.1500   29.3998   30.7922 H   0  0  0  0  0  0  0  0  0  0  0  0
   36.2616   24.9669   31.3195 H   0  0  0  0  0  0  0  0  0  0  0  0
   35.1951   27.1193   30.5789 H   0  0  0  0  0  0  0  0  0  0  0  0
   37.6804   26.9422   34.8150 H   0  0  0  0  0  0  0  0  0  0  0  0
   36.1784   30.8466   33.2567 H   0  0  0  0  0  0  0  0  0  0  0  0
   37.0841   30.5764   31.7292 H   0  0  0  0  0  0  0  0  0  0  0  0
   35.6083   31.6004   31.7292 H   0  0  0  0  0  0  0  0  0  0  0  0
  1  6  1  0
  1  2  1  0
  3  2  1  0
  3  4  1  0
  5  6  1  0
  5  4  1  0
  6  7  1  0
  7 11  1  0
  7  8  1  0
  8  9  1  0
  9 10  1  0
 11 10  1  0
 12  1  1  0
 13 20  1  0
 13 16  1  0
 13 12  1  0
 14 19  2  0
 15 14  1  0
 15 16  2  0
 16 17  1  0
 17 18  2  0
 19 18  1  0
  2 21  1  0
  2 22  1  0
  3 23  1  0
  3 24  1  0
  4 25  1  0
  4 26  1  0
  5 27  1  0
  5 28  1  0
  6 29  1  6
  8 30  1  0
  8 31  1  0
  9 32  1  0
  9 33  1  0
 10 34  1  0
 10 35  1  0
 11 36  1  0
 11 37  1  0
 12 38  1  0
 12 39  1  0
 13 40  1  6
 14 41  1  0
 15 42  1  0
 18 43  1  0
 20 44  1  0
 20 45  1  0
 20 46  1  0
M  ISO  8  21  13  22  13  23  13  24  13  25  13  26  13  27  13  28  13
M  ISO  8  29  13  30  13  31  13  32  13  33  13  34  13  35  13  36  13
M  ISO  8  37  13  38   8  39   8  40   8  41  14  42  14  43  14  44   8
M  ISO  2  45   8  46   8
M  END
>  <minimizedAffinity>  (1) 
-3.94189286

>  <minimizedRMSD>  (1) 
3.82235479

$$$$
