
     RDKit          3D

 47 49  0  0  1  0  0  0  0  0999 V2000
   35.7400   29.9300   33.0120 N   0  0  0  0  0  0  0  0  0  0  0  0
   35.5200   30.3760   34.3700 C   0  0  0  0  0  0  0  0  0  0  0  0
   34.0760   30.3790   34.7640 C   0  0  0  0  0  0  0  0  0  0  0  0
   33.2960   31.2570   33.7930 C   0  0  0  0  0  0  0  0  0  0  0  0
   33.4290   30.6060   32.4180 C   0  0  0  0  0  0  0  0  0  0  0  0
   34.8890   30.6120   32.0810 C   0  0  1  0  0  0  0  0  0  0  0  0
   35.2990   31.9340   31.7190 N   0  0  0  0  0  0  0  0  0  0  0  0
   34.4890   32.4460   30.6890 C   0  0  0  0  0  0  0  0  0  0  0  0
   35.2250   33.0620   29.5320 C   0  0  0  0  0  0  0  0  0  0  0  0
   36.4490   32.3960   29.2980 O   0  0  0  0  0  0  0  0  0  0  0  0
   37.2410   32.6840   30.4060 C   0  0  0  0  0  0  0  0  0  0  0  0
   36.6780   32.1710   31.6970 C   0  0  0  0  0  0  0  0  0  0  0  0
   35.5710   28.5270   32.8490 C   0  0  0  0  0  0  0  0  0  0  0  0
   36.7890   27.7620   32.3600 C   0  0  2  0  0  0  0  0  0  0  0  0
   38.2370   27.0990   35.7980 C   0  0  0  0  0  0  0  0  0  0  0  0
   37.3270   27.3870   34.7660 C   0  0  0  0  0  0  0  0  0  0  0  0
   37.7270   27.4680   33.4440 C   0  0  0  0  0  0  0  0  0  0  0  0
   39.0650   27.2480   33.2080 N   0  0  0  0  0  0  0  0  0  0  0  0
   39.9340   26.9720   34.1900 C   0  0  0  0  0  0  0  0  0  0  0  0
   39.5360   26.8950   35.4870 N   0  0  0  0  0  0  0  0  0  0  0  0
   37.3960   28.5260   31.2100 C   0  0  0  0  0  0  0  0  0  0  0  0
   36.0665   29.7065   35.0505 H   0  0  0  0  0  0  0  0  0  0  0  0
   35.8782   31.4140   34.4348 H   0  0  0  0  0  0  0  0  0  0  0  0
   33.6827   29.3523   34.7296 H   0  0  0  0  0  0  0  0  0  0  0  0
   33.9715   30.7729   35.7857 H   0  0  0  0  0  0  0  0  0  0  0  0
   32.2380   31.3052   34.0900 H   0  0  0  0  0  0  0  0  0  0  0  0
   33.6855   32.2857   33.7857 H   0  0  0  0  0  0  0  0  0  0  0  0
   33.0508   29.5735   32.4487 H   0  0  0  0  0  0  0  0  0  0  0  0
   32.8452   31.1521   31.6624 H   0  0  0  0  0  0  0  0  0  0  0  0
   35.0238   29.9768   31.1931 H   0  0  0  0  0  0  0  0  0  0  0  0
   33.8747   31.6210   30.2992 H   0  0  0  0  0  0  0  0  0  0  0  0
   33.9033   33.2596   31.1418 H   0  0  0  0  0  0  0  0  0  0  0  0
   34.5995   32.9926   28.6298 H   0  0  0  0  0  0  0  0  0  0  0  0
   35.4388   34.1138   29.7728 H   0  0  0  0  0  0  0  0  0  0  0  0
   38.2308   32.2291   30.2534 H   0  0  0  0  0  0  0  0  0  0  0  0
   37.2919   33.7796   30.4896 H   0  0  0  0  0  0  0  0  0  0  0  0
   37.1851   31.2234   31.9312 H   0  0  0  0  0  0  0  0  0  0  0  0
   36.8509   32.9710   32.4320 H   0  0  0  0  0  0  0  0  0  0  0  0
   35.2790   28.1077   33.8231 H   0  0  0  0  0  0  0  0  0  0  0  0
   34.8112   28.4092   32.0623 H   0  0  0  0  0  0  0  0  0  0  0  0
   36.4923   26.7689   31.9916 H   0  0  0  0  0  0  0  0  0  0  0  0
   37.8969   27.0406   36.8425 H   0  0  0  0  0  0  0  0  0  0  0  0
   36.2687   27.5524   35.0162 H   0  0  0  0  0  0  0  0  0  0  0  0
   40.9922   26.8042   33.9409 H   0  0  0  0  0  0  0  0  0  0  0  0
   38.0355   29.3309   31.6014 H   0  0  0  0  0  0  0  0  0  0  0  0
   38.0008   27.8435   30.5949 H   0  0  0  0  0  0  0  0  0  0  0  0
   36.5944   28.9609   30.5949 H   0  0  0  0  0  0  0  0  0  0  0  0
  1  2  1  0
  2  3  1  0
  4  3  1  0
  5  4  1  0
  6  5  1  0
  6  1  1  0
  7  6  1  0
  8  7  1  0
  9  8  1  0
 10  9  1  0
 10 11  1  0
 11 12  1  0
 12  7  1  0
 13  1  1  0
 14 13  1  0
 14 17  1  0
 16 15  2  0
 17 16  1  0
 18 17  2  0
 18 19  1  0
 19 20  2  0
 20 15  1  0
 21 14  1  0
  2 22  1  0
  2 23  1  0
  3 24  1  0
  3 25  1  0
  4 26  1  0
  4 27  1  0
  5 28  1  0
  5 29  1  0
  6 30  1  6
  8 31  1  0
  8 32  1  0
  9 33  1  0
  9 34  1  0
 11 35  1  0
 11 36  1  0
 12 37  1  0
 12 38  1  0
 13 39  1  0
 13 40  1  0
 14 41  1  6
 15 42  1  0
 16 43  1  0
 19 44  1  0
 21 45  1  0
 21 46  1  0
 21 47  1  0
M  ISO  8  22  13  23  13  24  13  25  13  26  13  27  13  28  13  29  13
M  ISO  8  30  13  31  13  32  13  33  13  34  13  35  13  36  13  37  13
M  ISO  8  38  13  39   8  40   8  41   8  42  14  43  14  44  14  45   8
M  ISO  2  46   8  47   8
M  END
>  <minimizedAffinity>  (1) 
-3.91855502

>  <minimizedRMSD>  (1) 
2.36972499

$$$$
