
     RDKit          3D

 40 41  0  0  1  0  0  0  0  0999 V2000
   35.5950   28.3610   32.6920 C   0  0  0  0  0  0  0  0  0  0  0  0
   35.7500   29.7600   32.8160 N   0  0  0  0  0  0  0  0  0  0  0  0
   35.5830   30.2470   34.1720 C   0  0  0  0  0  0  0  0  0  0  0  0
   34.1410   30.2350   34.6180 C   0  0  0  0  0  0  0  0  0  0  0  0
   33.3320   31.1020   33.6620 C   0  0  0  0  0  0  0  0  0  0  0  0
   33.4220   30.4150   32.2940 C   0  0  0  0  0  0  0  0  0  0  0  0
   34.8700   30.4270   31.8890 C   0  0  1  0  0  0  0  0  0  0  0  0
   35.3650   31.8260   31.6740 C   0  0  0  0  0  0  0  0  0  0  0  0
   36.7400   31.8900   31.0430 C   0  0  0  0  0  0  0  0  0  0  0  0
   36.8290   27.5780   32.2740 C   0  0  2  0  0  0  0  0  0  0  0  0
   38.1490   26.9630   35.7770 C   0  0  0  0  0  0  0  0  0  0  0  0
   37.2660   27.2010   34.6990 C   0  0  0  0  0  0  0  0  0  0  0  0
   37.7410   27.3360   33.4060 C   0  0  0  0  0  0  0  0  0  0  0  0
   39.1040   27.2270   33.2250 N   0  0  0  0  0  0  0  0  0  0  0  0
   39.9340   27.0020   34.2490 C   0  0  0  0  0  0  0  0  0  0  0  0
   39.4800   26.8680   35.5230 N   0  0  0  0  0  0  0  0  0  0  0  0
   37.4760   28.3010   31.1170 C   0  0  0  0  0  0  0  0  0  0  0  0
   35.2672   27.9730   33.6677 H   0  0  0  0  0  0  0  0  0  0  0  0
   34.8694   28.2188   31.8776 H   0  0  0  0  0  0  0  0  0  0  0  0
   36.1673   29.6081   34.8506 H   0  0  0  0  0  0  0  0  0  0  0  0
   35.9316   31.2900   34.1974 H   0  0  0  0  0  0  0  0  0  0  0  0
   33.7559   29.2048   34.6007 H   0  0  0  0  0  0  0  0  0  0  0  0
   34.0602   30.6272   35.6425 H   0  0  0  0  0  0  0  0  0  0  0  0
   32.2845   31.1612   33.9924 H   0  0  0  0  0  0  0  0  0  0  0  0
   33.7191   32.1309   33.6237 H   0  0  0  0  0  0  0  0  0  0  0  0
   33.0590   29.3792   32.3671 H   0  0  0  0  0  0  0  0  0  0  0  0
   32.8027   30.9387   31.5508 H   0  0  0  0  0  0  0  0  0  0  0  0
   34.8976   29.8603   30.9466 H   0  0  0  0  0  0  0  0  0  0  0  0
   34.6554   32.3492   31.0162 H   0  0  0  0  0  0  0  0  0  0  0  0
   35.4414   32.2980   32.6647 H   0  0  0  0  0  0  0  0  0  0  0  0
   37.5047   31.9256   31.8330 H   0  0  0  0  0  0  0  0  0  0  0  0
   36.8989   30.9983   30.4188 H   0  0  0  0  0  0  0  0  0  0  0  0
   36.8153   32.7926   30.4188 H   0  0  0  0  0  0  0  0  0  0  0  0
   36.5430   26.5705   31.9378 H   0  0  0  0  0  0  0  0  0  0  0  0
   37.7654   26.8567   36.8024 H   0  0  0  0  0  0  0  0  0  0  0  0
   36.1857   27.2801   34.8906 H   0  0  0  0  0  0  0  0  0  0  0  0
   41.0139   26.9232   34.0549 H   0  0  0  0  0  0  0  0  0  0  0  0
   38.1630   29.0687   31.5024 H   0  0  0  0  0  0  0  0  0  0  0  0
   38.0374   27.5815   30.5029 H   0  0  0  0  0  0  0  0  0  0  0  0
   36.6989   28.7794   30.5029 H   0  0  0  0  0  0  0  0  0  0  0  0
  1  2  1  0
  2  3  1  0
  3  4  1  0
  5  4  1  0
  6  5  1  0
  7  6  1  0
  7  2  1  0
  8  7  1  0
  9  8  1  0
 10  1  1  0
 10 13  1  0
 12 11  2  0
 13 12  1  0
 14 13  2  0
 14 15  1  0
 15 16  2  0
 16 11  1  0
 17 10  1  0
  1 18  1  0
  1 19  1  0
  3 20  1  0
  3 21  1  0
  4 22  1  0
  4 23  1  0
  5 24  1  0
  5 25  1  0
  6 26  1  0
  6 27  1  0
  7 28  1  6
  8 29  1  0
  8 30  1  0
  9 31  1  0
  9 32  1  0
  9 33  1  0
 10 34  1  6
 11 35  1  0
 12 36  1  0
 15 37  1  0
 17 38  1  0
 17 39  1  0
 17 40  1  0
M  ISO  8  18   8  19   8  20  13  21  13  22  13  23  13  24  13  25  13
M  ISO  8  26  13  27  13  28  13  29   8  30   8  31   8  32   8  33   8
M  ISO  7  34   8  35  14  36  14  37  14  38   8  39   8  40   8
M  END
>  <minimizedAffinity>  (1) 
-3.56995416

>  <minimizedRMSD>  (1) 
2.00872469

$$$$
