
     RDKit          3D

 23 25  0  0  0  0  0  0  0  0999 V2000
   37.4390   23.7290   37.1500 C   0  0  0  0  0  0  0  0  0  0  0  0
   38.2900   23.1730   36.1920 C   0  0  0  0  0  0  0  0  0  0  0  0
   39.5460   22.7530   36.6440 C   0  0  0  0  0  0  0  0  0  0  0  0
   39.8900   22.8910   37.9450 N   0  0  0  0  0  0  0  0  0  0  0  0
   39.0270   23.4390   38.8430 C   0  0  0  0  0  0  0  0  0  0  0  0
   37.8000   23.8550   38.4290 N   0  0  0  0  0  0  0  0  0  0  0  0
   37.9430   23.0240   34.8280 N   0  0  0  0  0  0  0  0  0  0  0  0
   37.4230   21.8580   34.3850 C   0  0  0  0  0  0  0  0  0  0  0  0
   37.2060   22.0440   33.0630 N   0  0  0  0  0  0  0  0  0  0  0  0
   37.5770   23.2750   32.7040 C   0  0  0  0  0  0  0  0  0  0  0  0
   37.5670   23.9590   31.4940 C   0  0  0  0  0  0  0  0  0  0  0  0
   38.0320   25.2400   31.4870 N   0  0  0  0  0  0  0  0  0  0  0  0
   38.4860   25.8240   32.6130 C   0  0  0  0  0  0  0  0  0  0  0  0
   38.5200   25.2000   33.8280 N   0  0  0  0  0  0  0  0  0  0  0  0
   38.0530   23.9200   33.8280 C   0  0  0  0  0  0  0  0  0  0  0  0
   40.4370   22.1760   35.6590 C   0  0  0  0  0  0  0  0  0  0  0  0
   41.3550   22.8160   35.0580 O   0  0  0  0  0  0  0  0  0  0  0  0
   36.4410   24.0735   36.8411 H   0  0  0  0  0  0  0  0  0  0  0  0
   39.3200   23.5450   39.8979 H   0  0  0  0  0  0  0  0  0  0  0  0
   37.2197   20.9514   34.9738 H   0  0  0  0  0  0  0  0  0  0  0  0
   37.1967   23.4829   30.5741 H   0  0  0  0  0  0  0  0  0  0  0  0
   38.8494   26.8604   32.5507 H   0  0  0  0  0  0  0  0  0  0  0  0
   40.3102   21.1110   35.4146 H   0  0  0  0  0  0  0  0  0  0  0  0
  1  6  2  0
  2  3  2  0
  2  1  1  0
  3  4  1  0
  4  5  2  0
  6  5  1  0
  7  2  1  0
  8  7  1  0
  9  8  2  0
 10  9  1  0
 10 15  2  0
 11 10  1  0
 12 11  2  0
 12 13  1  0
 13 14  2  0
 15 14  1  0
 15  7  1  0
 16  3  1  0
 17 16  2  0
  1 18  1  0
  5 19  1  0
  8 20  1  0
 11 21  1  0
 13 22  1  0
 16 23  1  0
M  ISO  6  18  14  19  14  20  14  21  14  22  14  23   6
M  END
>  <minimizedAffinity>  (1) 
-3.96747327

>  <minimizedRMSD>  (1) 
6.61918163

$$$$
