
     RDKit          3D

 26 27  0  0  0  0  0  0  0  0999 V2000
   39.8560   25.3330   35.5440 C   0  0  0  0  0  0  0  0  0  0  0  0
   39.8080   23.9350   35.6330 C   0  0  0  0  0  0  0  0  0  0  0  0
   38.8220   23.3400   34.8580 C   0  0  0  0  0  0  0  0  0  0  0  0
   38.0040   24.0960   34.1010 N   0  0  0  0  0  0  0  0  0  0  0  0
   38.0720   25.4340   34.0340 C   0  0  0  0  0  0  0  0  0  0  0  0
   39.0260   26.0250   34.7820 N   0  0  0  0  0  0  0  0  0  0  0  0
   40.7020   23.1990   36.4510 N   0  0  0  0  0  0  0  0  0  0  0  0
   40.3220   22.4310   37.5690 C   0  0  0  0  0  0  0  0  0  0  0  0
   39.3720   22.9520   38.3280 N   0  0  0  0  0  0  0  0  0  0  0  0
   41.0240   21.1670   37.7390 N   0  0  0  0  0  0  0  0  0  0  0  0
   39.0430   22.4610   39.1570 H   0  0  0  0  0  0  0  0  0  0  0  0
   37.1720   26.2050   33.1960 C   0  0  0  0  0  0  0  0  0  0  0  0
   36.9910   27.5370   33.4630 C   0  0  0  0  0  0  0  0  0  0  0  0
   36.1140   28.1590   32.5840 C   0  0  0  0  0  0  0  0  0  0  0  0
   35.4920   27.5350   31.5660 N   0  0  0  0  0  0  0  0  0  0  0  0
   35.7110   26.2310   31.3580 C   0  0  0  0  0  0  0  0  0  0  0  0
   36.5660   25.5380   32.1830 N   0  0  0  0  0  0  0  0  0  0  0  0
   35.1310   25.4750   30.3450 O   0  0  0  0  0  0  0  0  0  0  0  0
   40.6127   25.8749   36.1302 H   0  0  0  0  0  0  0  0  0  0  0  0
   38.7083   22.2459   34.8622 H   0  0  0  0  0  0  0  0  0  0  0  0
   41.7030   23.2280   36.2100 H   0  0  0  0  0  0  0  0  0  0  0  0
   40.7966   20.5546   38.5354 H   0  0  0  0  0  0  0  0  0  0  0  0
   41.7481   20.8851   37.0629 H   0  0  0  0  0  0  0  0  0  0  0  0
   37.4906   28.0612   34.2910 H   0  0  0  0  0  0  0  0  0  0  0  0
   35.9146   29.2310   32.7289 H   0  0  0  0  0  0  0  0  0  0  0  0
   35.3469   24.5126   30.2600 H   0  0  0  0  0  0  0  0  0  0  0  0
  1  2  2  0
  2  7  1  0
  3  2  1  0
  4  3  2  0
  5  4  1  0
  5  6  2  0
  6  1  1  0
  7  8  1  0
  8 10  1  0
  8  9  2  0
  9 11  1  0
 12 13  2  0
 12  5  1  0
 14 13  1  0
 15 14  2  0
 16 15  1  0
 16 17  2  0
 17 12  1  0
 18 16  1  0
  1 19  1  0
  3 20  1  0
  7 21  1  0
 10 22  1  0
 10 23  1  0
 13 24  1  0
 14 25  1  0
 18 26  1  0
M  ISO  5  19  14  20  14  24  14  25  14  26   3
M  END
>  <minimizedAffinity>  (1) 
-5.12665653

>  <minimizedRMSD>  (1) 
1.084481

$$$$
