
     RDKit          3D

 35 36  0  0  1  0  0  0  0  0999 V2000
   35.8690   28.1310   32.3010 C   0  0  0  0  0  0  0  0  0  0  0  0
   36.1480   29.4430   32.7490 N   0  0  0  0  0  0  0  0  0  0  0  0
   35.5610   29.7410   34.0410 C   0  0  0  0  0  0  0  0  0  0  0  0
   34.0710   29.9500   33.9730 C   0  0  0  0  0  0  0  0  0  0  0  0
   33.7820   31.0840   32.9970 C   0  0  0  0  0  0  0  0  0  0  0  0
   34.2680   30.5920   31.6310 C   0  0  0  0  0  0  0  0  0  0  0  0
   35.7530   30.3930   31.7420 C   0  0  1  0  0  0  0  0  0  0  0  0
   36.3430   31.6160   32.0510 O   0  0  0  0  0  0  0  0  0  0  0  0
   37.0710   27.2260   32.0810 C   0  0  2  0  0  0  0  0  0  0  0  0
   37.8850   26.2670   35.6570 C   0  0  0  0  0  0  0  0  0  0  0  0
   37.1710   26.5060   34.4640 C   0  0  0  0  0  0  0  0  0  0  0  0
   37.8030   26.9800   33.3270 C   0  0  0  0  0  0  0  0  0  0  0  0
   39.1610   27.2030   33.4260 N   0  0  0  0  0  0  0  0  0  0  0  0
   39.8390   26.9750   34.5580 C   0  0  0  0  0  0  0  0  0  0  0  0
   39.2270   26.5100   35.6790 N   0  0  0  0  0  0  0  0  0  0  0  0
   37.9140   27.8130   30.9780 C   0  0  0  0  0  0  0  0  0  0  0  0
   35.2208   27.6517   33.0494 H   0  0  0  0  0  0  0  0  0  0  0  0
   35.4060   28.2508   31.3104 H   0  0  0  0  0  0  0  0  0  0  0  0
   35.7672   28.9022   34.7222 H   0  0  0  0  0  0  0  0  0  0  0  0
   36.0101   30.6790   34.3995 H   0  0  0  0  0  0  0  0  0  0  0  0
   33.5832   29.0278   33.6242 H   0  0  0  0  0  0  0  0  0  0  0  0
   33.6818   30.2045   34.9699 H   0  0  0  0  0  0  0  0  0  0  0  0
   32.7033   31.2972   32.9659 H   0  0  0  0  0  0  0  0  0  0  0  0
   34.2873   32.0142   33.2958 H   0  0  0  0  0  0  0  0  0  0  0  0
   34.0435   31.3410   30.8573 H   0  0  0  0  0  0  0  0  0  0  0  0
   33.7652   29.6554   31.3481 H   0  0  0  0  0  0  0  0  0  0  0  0
   36.0850   29.9919   30.7730 H   0  0  0  0  0  0  0  0  0  0  0  0
   36.3928   31.7193   33.0343 H   0  0  0  0  0  0  0  0  0  0  0  0
   36.7429   26.2266   31.7593 H   0  0  0  0  0  0  0  0  0  0  0  0
   37.3690   25.8916   36.5530 H   0  0  0  0  0  0  0  0  0  0  0  0
   36.0887   26.3115   34.4365 H   0  0  0  0  0  0  0  0  0  0  0  0
   40.9214   27.1695   34.5813 H   0  0  0  0  0  0  0  0  0  0  0  0
   38.7419   28.3895   31.4165 H   0  0  0  0  0  0  0  0  0  0  0  0
   38.3209   27.0019   30.3563 H   0  0  0  0  0  0  0  0  0  0  0  0
   37.2944   28.4760   30.3563 H   0  0  0  0  0  0  0  0  0  0  0  0
  1  2  1  0
  2  3  1  0
  4  3  1  0
  5  4  1  0
  6  7  1  0
  6  5  1  0
  7  8  1  0
  7  2  1  0
  9  1  1  0
  9 12  1  0
 10 15  2  0
 11 10  1  0
 12 13  1  0
 12 11  2  0
 13 14  2  0
 14 15  1  0
 16  9  1  0
  1 17  1  0
  1 18  1  0
  3 19  1  0
  3 20  1  0
  4 21  1  0
  4 22  1  0
  5 23  1  0
  5 24  1  0
  6 25  1  0
  6 26  1  0
  7 27  1  6
  8 28  1  0
  9 29  1  6
 10 30  1  0
 11 31  1  0
 14 32  1  0
 16 33  1  0
 16 34  1  0
 16 35  1  0
M  ISO  8  17   8  18   8  19  13  20  13  21  13  22  13  23  13  24  13
M  ISO  8  25  13  26  13  27  13  28   3  29   8  30  14  31  14  32  14
M  ISO  3  33   8  34   8  35   8
M  END
>  <minimizedAffinity>  (1) 
-3.35482788

>  <minimizedRMSD>  (1) 
1.43079233

$$$$
