
     RDKit          3D

 19 19  0  0  0  0  0  0  0  0999 V2000
   38.1770   25.1090   36.2360 C   0  0  0  0  0  0  0  0  0  0  0  0
   39.3840   24.4340   35.9240 C   0  0  0  0  0  0  0  0  0  0  0  0
   40.3110   25.2330   35.2830 C   0  0  0  0  0  0  0  0  0  0  0  0
   40.0420   26.5370   35.0000 N   0  0  0  0  0  0  0  0  0  0  0  0
   38.8870   27.1240   35.3170 C   0  0  0  0  0  0  0  0  0  0  0  0
   37.9490   26.3910   35.9420 N   0  0  0  0  0  0  0  0  0  0  0  0
   39.4790   23.0810   36.3280 N   0  0  0  0  0  0  0  0  0  0  0  0
   39.8980   22.6110   37.6040 C   0  0  0  0  0  0  0  0  0  0  0  0
   39.3750   23.2790   38.6080 N   0  0  0  0  0  0  0  0  0  0  0  0
   40.8090   21.5010   37.7660 N   0  0  0  0  0  0  0  0  0  0  0  0
   39.5990   23.0390   39.5800 H   0  0  0  0  0  0  0  0  0  0  0  0
   41.5440   24.5660   34.9480 C   0  0  0  0  0  0  0  0  0  0  0  0
   42.4090   24.1490   35.7690 O   0  0  0  0  0  0  0  0  0  0  0  0
   37.3841   24.5449   36.7490 H   0  0  0  0  0  0  0  0  0  0  0  0
   38.7064   28.1813   35.0732 H   0  0  0  0  0  0  0  0  0  0  0  0
   39.2199   22.3679   35.6314 H   0  0  0  0  0  0  0  0  0  0  0  0
   41.0850   21.1948   38.7099 H   0  0  0  0  0  0  0  0  0  0  0  0
   41.1823   21.0160   36.9376 H   0  0  0  0  0  0  0  0  0  0  0  0
   41.7508   24.4053   33.8796 H   0  0  0  0  0  0  0  0  0  0  0  0
  2  1  2  0
  2  7  1  0
  3  2  1  0
  4  3  2  0
  4  5  1  0
  5  6  2  0
  6  1  1  0
  7  8  1  0
  8 10  1  0
  8  9  2  0
  9 11  1  0
 12  3  1  0
 12 13  2  0
  1 14  1  0
  5 15  1  0
  7 16  1  0
 10 17  1  0
 10 18  1  0
 12 19  1  0
M  ISO  3  14  14  15  14  19   6
M  END
>  <minimizedAffinity>  (1) 
-3.78554273

>  <minimizedRMSD>  (1) 
4.12642288

$$$$
