
     RDKit          3D

 26 28  0  0  0  0  0  0  0  0999 V2000
   40.0910   23.2350   33.2160 N   0  0  0  0  0  0  0  0  0  0  0  0
   40.8620   24.0970   32.5280 C   0  0  0  0  0  0  0  0  0  0  0  0
   41.8640   24.5060   33.3280 N   0  0  0  0  0  0  0  0  0  0  0  0
   41.7220   23.9010   34.5240 C   0  0  0  0  0  0  0  0  0  0  0  0
   42.4360   23.9390   35.7010 C   0  0  0  0  0  0  0  0  0  0  0  0
   43.4550   24.6490   35.8090 O   0  0  0  0  0  0  0  0  0  0  0  0
   42.0970   23.2270   36.7980 N   0  0  0  0  0  0  0  0  0  0  0  0
   40.9960   22.4490   36.7060 C   0  0  0  0  0  0  0  0  0  0  0  0
   40.5890   21.6740   37.8380 N   0  0  0  0  0  0  0  0  0  0  0  0
   40.2740   22.3840   35.5800 N   0  0  0  0  0  0  0  0  0  0  0  0
   40.5910   23.0850   34.4650 C   0  0  0  0  0  0  0  0  0  0  0  0
   38.9940   21.1440   32.5510 C   0  0  0  0  0  0  0  0  0  0  0  0
   38.9060   22.4940   32.8860 C   0  0  0  0  0  0  0  0  0  0  0  0
   37.6760   23.1300   32.9030 C   0  0  0  0  0  0  0  0  0  0  0  0
   36.5720   22.3870   32.5820 N   0  0  0  0  0  0  0  0  0  0  0  0
   36.6810   21.0820   32.2620 C   0  0  0  0  0  0  0  0  0  0  0  0
   37.8710   20.4570   32.2440 N   0  0  0  0  0  0  0  0  0  0  0  0
   37.6480   24.5180   33.2540 C   0  0  0  0  0  0  0  0  0  0  0  0
   36.8780   25.3630   32.7400 O   0  0  0  0  0  0  0  0  0  0  0  0
   40.7005   24.4139   31.4871 H   0  0  0  0  0  0  0  0  0  0  0  0
   42.6521   23.2750   37.6643 H   0  0  0  0  0  0  0  0  0  0  0  0
   39.7514   21.0774   37.7794 H   0  0  0  0  0  0  0  0  0  0  0  0
   41.1336   21.7128   38.7114 H   0  0  0  0  0  0  0  0  0  0  0  0
   39.9718   20.6404   32.5365 H   0  0  0  0  0  0  0  0  0  0  0  0
   35.7733   20.5143   32.0093 H   0  0  0  0  0  0  0  0  0  0  0  0
   38.3494   24.8661   34.0266 H   0  0  0  0  0  0  0  0  0  0  0  0
  1 11  1  0
  2  1  1  0
  2  3  2  0
  3  4  1  0
  4  5  1  0
  5  6  2  0
  5  7  1  0
  8  7  1  0
  8  9  1  0
 10  8  2  0
 11  4  2  0
 11 10  1  0
 12 13  2  0
 13 14  1  0
 13  1  1  0
 14 18  1  0
 15 14  2  0
 16 15  1  0
 17 16  2  0
 17 12  1  0
 19 18  2  0
  2 20  1  0
  7 21  1  0
  9 22  1  0
  9 23  1  0
 12 24  1  0
 16 25  1  0
 18 26  1  0
M  ISO  5  20  14  21   9  24  14  25  14  26   6
M  END
>  <minimizedAffinity>  (1) 
-3.81539321

>  <minimizedRMSD>  (1) 
5.87717199

$$$$
