
     RDKit          3D

 14 14  0  0  0  0  0  0  0  0999 V2000
   38.0640   25.0920   34.8090 C   0  0  0  0  0  0  0  0  0  0  0  0
   37.4860   25.8720   33.7830 C   0  0  0  0  0  0  0  0  0  0  0  0
   37.3740   27.2310   34.0240 C   0  0  0  0  0  0  0  0  0  0  0  0
   37.8020   27.7650   35.1910 N   0  0  0  0  0  0  0  0  0  0  0  0
   38.3540   26.9820   36.1570 C   0  0  0  0  0  0  0  0  0  0  0  0
   38.4790   25.6590   35.9570 N   0  0  0  0  0  0  0  0  0  0  0  0
   36.7830   27.9870   32.9580 C   0  0  0  0  0  0  0  0  0  0  0  0
   35.7400   27.6630   32.3030 O   0  0  0  0  0  0  0  0  0  0  0  0
   37.0900   25.1740   32.6260 N   0  0  0  0  0  0  0  0  0  0  0  0
   38.1764   24.0069   34.6679 H   0  0  0  0  0  0  0  0  0  0  0  0
   38.6975   27.4312   37.1005 H   0  0  0  0  0  0  0  0  0  0  0  0
   37.2747   28.9313   32.6814 H   0  0  0  0  0  0  0  0  0  0  0  0
   37.2274   24.1549   32.5670 H   0  0  0  0  0  0  0  0  0  0  0  0
   36.6629   25.6825   31.8387 H   0  0  0  0  0  0  0  0  0  0  0  0
  1  6  2  0
  2  3  2  0
  2  1  1  0
  3  4  1  0
  4  5  2  0
  6  5  1  0
  7  3  1  0
  8  7  2  0
  9  2  1  0
  1 10  1  0
  5 11  1  0
  7 12  1  0
  9 13  1  0
  9 14  1  0
M  ISO  3  10  14  11  14  12   6
M  END
>  <minimizedAffinity>  (1) 
-2.42286539

>  <minimizedRMSD>  (1) 
5.88152981

$$$$
