
     RDKit          3D

 28 30  0  0  1  0  0  0  0  0999 V2000
   39.5770   26.1670   31.9940 C   0  0  0  0  0  0  0  0  0  0  0  0
   39.1240   25.3980   33.0800 C   0  0  0  0  0  0  0  0  0  0  0  0
   39.3110   24.0130   32.9860 C   0  0  0  0  0  0  0  0  0  0  0  0
   39.9050   23.5080   31.8750 N   0  0  0  0  0  0  0  0  0  0  0  0
   40.3240   24.2860   30.8550 C   0  0  0  0  0  0  0  0  0  0  0  0
   40.1500   25.6140   30.9340 N   0  0  0  0  0  0  0  0  0  0  0  0
   38.5080   26.1640   34.1840 C   0  0  0  0  0  0  0  0  0  0  0  0
   37.3220   25.5990   34.6350 F   0  0  0  0  0  0  0  0  0  0  0  0
   39.3900   26.0360   35.2580 F   0  0  0  0  0  0  0  0  0  0  0  0
   38.4110   27.5080   33.9110 F   0  0  0  0  0  0  0  0  0  0  0  0
   38.8760   23.2150   34.0970 C   0  0  0  0  0  0  0  0  0  0  0  0
   37.6890   22.7180   34.1540 O   0  0  0  0  0  0  0  0  0  0  0  0
   39.0760   23.0200   38.7720 N   0  0  0  0  0  0  0  0  0  0  0  0
   37.9660   23.6670   38.3750 C   0  0  0  0  0  0  0  0  0  0  0  0
   38.0100   23.6780   37.0330 N   0  0  0  0  0  0  0  0  0  0  0  0
   39.1100   23.0580   36.5720 C   0  0  0  0  0  0  0  0  0  0  0  0
   39.6140   22.8040   35.3210 C   0  0  0  0  0  0  0  0  0  0  0  0
   40.7660   22.1450   35.2950 N   0  0  0  0  0  0  0  0  0  0  0  0
   41.4530   21.7220   36.3510 C   0  0  0  0  0  0  0  0  0  0  0  0
   40.9620   21.9700   37.5980 N   0  0  0  0  0  0  0  0  0  0  0  0
   39.7970   22.6360   37.7060 C   0  0  0  0  0  0  0  0  0  0  0  0
   39.4524   27.2595   32.0245 H   0  0  0  0  0  0  0  0  0  0  0  0
   40.8015   23.8377   29.9713 H   0  0  0  0  0  0  0  0  0  0  0  0
   38.5210   24.1215   34.6091 H   0  0  0  0  0  0  0  0  0  0  0  0
   37.4230   22.6066   35.1011 H   0  0  0  0  0  0  0  0  0  0  0  0
   39.3360   22.8441   39.7530 H   0  0  0  0  0  0  0  0  0  0  0  0
   37.1837   24.0981   39.0169 H   0  0  0  0  0  0  0  0  0  0  0  0
   42.4018   21.1809   36.2209 H   0  0  0  0  0  0  0  0  0  0  0  0
  1  2  2  0
  2  7  1  0
  3  2  1  0
  3 11  1  0
  4  3  2  0
  5  6  2  0
  5  4  1  0
  6  1  1  0
  7  8  1  0
  7  9  1  0
 10  7  1  0
 11 12  1  0
 11 17  1  0
 14 13  1  0
 15 14  2  0
 16 15  1  0
 16 21  2  0
 17 16  1  0
 18 17  2  0
 18 19  1  0
 19 20  2  0
 20 21  1  0
 21 13  1  0
  1 22  1  0
  5 23  1  0
 11 24  1  0
 12 25  1  0
 13 26  1  0
 14 27  1  0
 19 28  1  0
M  ISO  7  22  14  23  14  24   8  25   3  26   9  27  14  28  14
M  END
>  <minimizedAffinity>  (1) 
-4.755126

>  <minimizedRMSD>  (1) 
3.38154101

$$$$
