
     RDKit          3D

 29 31  0  0  0  0  0  0  0  0999 V2000
   37.7300   26.8440   33.4410 C   0  0  0  0  0  0  0  0  0  0  0  0
   38.0440   26.1590   34.6280 C   0  0  0  0  0  0  0  0  0  0  0  0
   37.9780   24.7650   34.5640 C   0  0  0  0  0  0  0  0  0  0  0  0
   37.6270   24.1650   33.4040 N   0  0  0  0  0  0  0  0  0  0  0  0
   37.3350   24.8630   32.2860 C   0  0  0  0  0  0  0  0  0  0  0  0
   37.3920   26.2050   32.3240 N   0  0  0  0  0  0  0  0  0  0  0  0
   38.3960   27.0280   35.7710 C   0  0  0  0  0  0  0  0  0  0  0  0
   38.1870   26.3950   36.9910 F   0  0  0  0  0  0  0  0  0  0  0  0
   39.7810   27.2070   35.6640 F   0  0  0  0  0  0  0  0  0  0  0  0
   37.8210   28.2650   35.7070 F   0  0  0  0  0  0  0  0  0  0  0  0
   38.3320   24.0630   35.7710 C   0  0  0  0  0  0  0  0  0  0  0  0
   37.5020   23.7600   36.6700 O   0  0  0  0  0  0  0  0  0  0  0  0
   39.6210   23.5600   36.2290 C   0  0  0  0  0  0  0  0  0  0  0  0
   39.6330   22.6400   37.2860 C   0  0  0  0  0  0  0  0  0  0  0  0
   40.9190   22.3080   37.5360 N   0  0  0  0  0  0  0  0  0  0  0  0
   41.7380   22.9630   36.6970 C   0  0  0  0  0  0  0  0  0  0  0  0
   43.0920   23.0560   36.4540 C   0  0  0  0  0  0  0  0  0  0  0  0
   43.6110   23.8720   35.4670 C   0  0  0  0  0  0  0  0  0  0  0  0
   42.7710   24.6410   34.6690 C   0  0  0  0  0  0  0  0  0  0  0  0
   41.4170   24.5560   34.9010 C   0  0  0  0  0  0  0  0  0  0  0  0
   40.9400   23.7440   35.8810 C   0  0  0  0  0  0  0  0  0  0  0  0
   37.7649   27.9434   33.4356 H   0  0  0  0  0  0  0  0  0  0  0  0
   37.0549   24.3416   31.3588 H   0  0  0  0  0  0  0  0  0  0  0  0
   38.7507   22.2556   37.8187 H   0  0  0  0  0  0  0  0  0  0  0  0
   41.2265   21.6481   38.2646 H   0  0  0  0  0  0  0  0  0  0  0  0
   43.7834   22.4596   37.0674 H   0  0  0  0  0  0  0  0  0  0  0  0
   44.6991   23.9137   35.3110 H   0  0  0  0  0  0  0  0  0  0  0  0
   43.1742   25.2937   33.8807 H   0  0  0  0  0  0  0  0  0  0  0  0
   40.7183   25.1474   34.2910 H   0  0  0  0  0  0  0  0  0  0  0  0
  1  2  2  0
  2  7  1  0
  3  2  1  0
  3 11  1  0
  4  3  2  0
  5  6  2  0
  5  4  1  0
  6  1  1  0
  7  8  1  0
  9  7  1  0
 10  7  1  0
 11 13  1  0
 11 12  2  0
 13 14  2  0
 14 15  1  0
 16 15  1  0
 17 16  2  0
 18 17  1  0
 19 20  1  0
 19 18  2  0
 20 21  2  0
 21 13  1  0
 21 16  1  0
  1 22  1  0
  5 23  1  0
 14 24  1  0
 15 25  1  0
 17 26  1  0
 18 27  1  0
 19 28  1  0
 20 29  1  0
M  ISO  8  22  14  23  14  24  14  25   9  26  14  27  14  28  14  29  14
M  END
>  <minimizedAffinity>  (1) 
-5.45938826

>  <minimizedRMSD>  (1) 
2.39090872

$$$$
