
     RDKit          3D

 24 25  0  0  1  0  0  0  0  0999 V2000
   39.3010   25.9800   32.4730 C   0  0  0  0  0  0  0  0  0  0  0  0
   39.2810   25.7770   33.8640 C   0  0  0  0  0  0  0  0  0  0  0  0
   38.4650   24.7470   34.3370 C   0  0  0  0  0  0  0  0  0  0  0  0
   37.7500   24.0130   33.4470 N   0  0  0  0  0  0  0  0  0  0  0  0
   37.8000   24.2420   32.1140 C   0  0  0  0  0  0  0  0  0  0  0  0
   38.5810   25.2290   31.6470 N   0  0  0  0  0  0  0  0  0  0  0  0
   40.1380   26.6950   34.6450 C   0  0  0  0  0  0  0  0  0  0  0  0
   39.4910   27.2440   35.7390 F   0  0  0  0  0  0  0  0  0  0  0  0
   41.1240   25.8720   35.1960 F   0  0  0  0  0  0  0  0  0  0  0  0
   40.7850   27.6180   33.8630 F   0  0  0  0  0  0  0  0  0  0  0  0
   38.4650   24.5010   35.7510 C   0  0  0  0  0  0  0  0  0  0  0  0
   37.6770   25.1280   36.5510 O   0  0  0  0  0  0  0  0  0  0  0  0
   39.9130   22.3470   38.2740 N   0  0  0  0  0  0  0  0  0  0  0  0
   39.0200   23.2320   37.8350 N   0  0  0  0  0  0  0  0  0  0  0  0
   39.2560   23.5820   36.5680 C   0  0  0  0  0  0  0  0  0  0  0  0
   40.3920   22.8130   36.2830 C   0  0  0  0  0  0  0  0  0  0  0  0
   40.8070   22.0490   37.3230 C   0  0  0  0  0  0  0  0  0  0  0  0
   39.9293   26.7817   32.0577 H   0  0  0  0  0  0  0  0  0  0  0  0
   37.2075   23.6264   31.4212 H   0  0  0  0  0  0  0  0  0  0  0  0
   39.2259   25.2836   35.8872 H   0  0  0  0  0  0  0  0  0  0  0  0
   37.9291   24.9274   37.4871 H   0  0  0  0  0  0  0  0  0  0  0  0
   39.9156   21.9441   39.2219 H   0  0  0  0  0  0  0  0  0  0  0  0
   40.8994   22.8278   35.3071 H   0  0  0  0  0  0  0  0  0  0  0  0
   41.6620   21.3588   37.3729 H   0  0  0  0  0  0  0  0  0  0  0  0
  1  2  2  0
  2  3  1  0
  2  7  1  0
  3 11  1  0
  4  3  2  0
  5  4  1  0
  6  5  2  0
  6  1  1  0
  7  9  1  0
  7  8  1  0
 10  7  1  0
 11 12  1  0
 11 15  1  0
 14 13  1  0
 15 14  2  0
 16 15  1  0
 16 17  2  0
 17 13  1  0
  1 18  1  0
  5 19  1  0
 11 20  1  0
 12 21  1  0
 13 22  1  0
 16 23  1  0
 17 24  1  0
M  ISO  7  18  14  19  14  20   8  21   3  22   9  23  14  24  14
M  END
>  <minimizedAffinity>  (1) 
-4.6946454

>  <minimizedRMSD>  (1) 
2.4940362

$$$$
