
     RDKit          3D

 25 26  0  0  0  0  0  0  0  0999 V2000
   37.4340   26.8750   33.5500 C   0  0  0  0  0  0  0  0  0  0  0  0
   37.9540   26.1780   34.6470 C   0  0  0  0  0  0  0  0  0  0  0  0
   38.0180   24.7820   34.5380 C   0  0  0  0  0  0  0  0  0  0  0  0
   37.5810   24.1970   33.3990 N   0  0  0  0  0  0  0  0  0  0  0  0
   37.0840   24.8980   32.3560 C   0  0  0  0  0  0  0  0  0  0  0  0
   37.0190   26.2360   32.4540 N   0  0  0  0  0  0  0  0  0  0  0  0
   38.3660   27.0290   35.7890 C   0  0  0  0  0  0  0  0  0  0  0  0
   38.2040   26.3960   37.0140 F   0  0  0  0  0  0  0  0  0  0  0  0
   39.7480   27.1880   35.6520 F   0  0  0  0  0  0  0  0  0  0  0  0
   37.8060   28.2790   35.7460 F   0  0  0  0  0  0  0  0  0  0  0  0
   38.5640   24.0680   35.6640 C   0  0  0  0  0  0  0  0  0  0  0  0
   37.8360   23.6460   36.6190 O   0  0  0  0  0  0  0  0  0  0  0  0
   39.9560   23.7000   35.9330 C   0  0  0  0  0  0  0  0  0  0  0  0
   40.3130   22.7870   36.8990 C   0  0  0  0  0  0  0  0  0  0  0  0
   41.6300   22.4290   37.1480 C   0  0  0  0  0  0  0  0  0  0  0  0
   42.6390   23.0170   36.3880 C   0  0  0  0  0  0  0  0  0  0  0  0
   42.3550   23.9490   35.3910 C   0  0  0  0  0  0  0  0  0  0  0  0
   41.0250   24.2240   35.2360 C   0  0  0  0  0  0  0  0  0  0  0  0
   37.3660   27.9721   33.5921 H   0  0  0  0  0  0  0  0  0  0  0  0
   36.7401   24.3839   31.4464 H   0  0  0  0  0  0  0  0  0  0  0  0
   39.5188   22.3204   37.5003 H   0  0  0  0  0  0  0  0  0  0  0  0
   41.8730   21.6950   37.9304 H   0  0  0  0  0  0  0  0  0  0  0  0
   43.6859   22.7388   36.5795 H   0  0  0  0  0  0  0  0  0  0  0  0
   43.1365   24.4238   34.7796 H   0  0  0  0  0  0  0  0  0  0  0  0
   40.7750   24.9573   34.4552 H   0  0  0  0  0  0  0  0  0  0  0  0
  1  2  2  0
  2  7  1  0
  3  2  1  0
  3 11  1  0
  4  3  2  0
  5  6  2  0
  5  4  1  0
  6  1  1  0
  7  8  1  0
  9  7  1  0
 10  7  1  0
 11 13  1  0
 11 12  2  0
 13 14  2  0
 14 15  1  0
 16 15  2  0
 17 16  1  0
 18 17  2  0
 18 13  1  0
  1 19  1  0
  5 20  1  0
 14 21  1  0
 15 22  1  0
 16 23  1  0
 17 24  1  0
 18 25  1  0
M  ISO  7  19  14  20  14  21  14  22  14  23  14  24  14  25  14
M  END
>  <minimizedAffinity>  (1) 
-4.98742819

>  <minimizedRMSD>  (1) 
2.5012908

$$$$
