
     RDKit          3D

 22 22  0  0  0  0  0  0  0  0999 V2000
   38.2010   26.1260   33.5250 C   0  0  0  0  0  0  0  0  0  0  0  0
   38.2310   25.7900   34.8860 C   0  0  0  0  0  0  0  0  0  0  0  0
   38.0560   24.4430   35.1990 C   0  0  0  0  0  0  0  0  0  0  0  0
   37.8710   23.5540   34.1920 N   0  0  0  0  0  0  0  0  0  0  0  0
   37.8490   23.9140   32.8930 C   0  0  0  0  0  0  0  0  0  0  0  0
   38.0170   25.2160   32.5830 N   0  0  0  0  0  0  0  0  0  0  0  0
   38.0940   24.0870   36.5920 C   0  0  0  0  0  0  0  0  0  0  0  0
   37.0870   24.1730   37.3660 O   0  0  0  0  0  0  0  0  0  0  0  0
   39.2080   23.5950   37.3250 N   0  0  0  0  0  0  0  0  0  0  0  0
   39.9110   22.4050   37.0440 C   0  0  0  0  0  0  0  0  0  0  0  0
   39.5350   21.6840   36.0480 N   0  0  0  0  0  0  0  0  0  0  0  0
   41.0320   21.9960   37.8540 N   0  0  0  0  0  0  0  0  0  0  0  0
   40.0000   20.7910   35.7740 H   0  0  0  0  0  0  0  0  0  0  0  0
   38.4460   26.9280   35.8090 C   0  0  0  0  0  0  0  0  0  0  0  0
   38.2580   26.5820   37.1400 F   0  0  0  0  0  0  0  0  0  0  0  0
   39.8060   27.2350   35.7110 F   0  0  0  0  0  0  0  0  0  0  0  0
   37.7590   28.0570   35.4400 F   0  0  0  0  0  0  0  0  0  0  0  0
   38.3345   27.1778   33.2320 H   0  0  0  0  0  0  0  0  0  0  0  0
   37.6975   23.1629   32.1037 H   0  0  0  0  0  0  0  0  0  0  0  0
   39.5286   24.1542   38.1284 H   0  0  0  0  0  0  0  0  0  0  0  0
   41.5346   21.1240   37.6351 H   0  0  0  0  0  0  0  0  0  0  0  0
   41.3300   22.5759   38.6514 H   0  0  0  0  0  0  0  0  0  0  0  0
  1  2  2  0
  2  3  1  0
  2 14  1  0
  3  7  1  0
  4  3  2  0
  5  4  1  0
  6  5  2  0
  6  1  1  0
  7  9  1  0
  7  8  2  0
 10  9  1  0
 10 12  1  0
 11 10  2  0
 13 11  1  0
 14 15  1  0
 16 14  1  0
 17 14  1  0
  1 18  1  0
  5 19  1  0
  9 20  1  0
 12 21  1  0
 12 22  1  0
M  ISO  2  18  14  19  14
M  END
>  <minimizedAffinity>  (1) 
-4.5140233

>  <minimizedRMSD>  (1) 
1.72662258

$$$$
