
     RDKit          3D

 24 25  0  0  1  0  0  0  0  0999 V2000
   37.7770   25.5790   33.3040 C   0  0  0  0  0  0  0  0  0  0  0  0
   38.1600   24.9890   34.5160 C   0  0  0  0  0  0  0  0  0  0  0  0
   38.0090   23.5990   34.6120 C   0  0  0  0  0  0  0  0  0  0  0  0
   37.5110   22.9250   33.5480 N   0  0  0  0  0  0  0  0  0  0  0  0
   37.1520   23.5270   32.3950 C   0  0  0  0  0  0  0  0  0  0  0  0
   37.2960   24.8690   32.2970 N   0  0  0  0  0  0  0  0  0  0  0  0
   38.6730   25.9250   35.5360 C   0  0  0  0  0  0  0  0  0  0  0  0
   38.2080   25.6430   36.8150 F   0  0  0  0  0  0  0  0  0  0  0  0
   40.0470   25.6730   35.6010 F   0  0  0  0  0  0  0  0  0  0  0  0
   38.5290   27.2450   35.1850 F   0  0  0  0  0  0  0  0  0  0  0  0
   38.4220   22.9780   35.8390 C   0  0  0  0  0  0  0  0  0  0  0  0
   37.6060   22.7840   36.8150 O   0  0  0  0  0  0  0  0  0  0  0  0
   39.7650   22.4680   36.2040 C   0  0  0  0  0  0  0  0  0  0  0  0
   40.2820   22.4570   37.4800 C   0  0  0  0  0  0  0  0  0  0  0  0
   41.5590   21.9030   37.4370 C   0  0  0  0  0  0  0  0  0  0  0  0
   41.7650   21.5960   36.1140 C   0  0  0  0  0  0  0  0  0  0  0  0
   40.7040   21.9450   35.4710 O   0  0  0  0  0  0  0  0  0  0  0  0
   37.8797   26.6678   33.1863 H   0  0  0  0  0  0  0  0  0  0  0  0
   36.7518   22.9408   31.5546 H   0  0  0  0  0  0  0  0  0  0  0  0
   38.1591   21.9919   35.4284 H   0  0  0  0  0  0  0  0  0  0  0  0
   38.0855   22.8980   37.6736 H   0  0  0  0  0  0  0  0  0  0  0  0
   39.7717   22.8244   38.3826 H   0  0  0  0  0  0  0  0  0  0  0  0
   42.2507   21.7458   38.2777 H   0  0  0  0  0  0  0  0  0  0  0  0
   42.6675   21.1376   35.6835 H   0  0  0  0  0  0  0  0  0  0  0  0
  1  2  2  0
  2  3  1  0
  2  7  1  0
  3 11  1  0
  4  3  2  0
  5  4  1  0
  6  5  2  0
  6  1  1  0
  7  9  1  0
  7  8  1  0
 10  7  1  0
 11 13  1  0
 11 12  1  0
 13 14  2  0
 15 14  1  0
 16 15  2  0
 17 16  1  0
 17 13  1  0
  1 18  1  0
  5 19  1  0
 11 20  1  0
 12 21  1  0
 14 22  1  0
 15 23  1  0
 16 24  1  0
M  ISO  7  18  14  19  14  20   8  21   3  22  14  23  14  24  14
M  END
>  <minimizedAffinity>  (1) 
-4.09819889

>  <minimizedRMSD>  (1) 
2.17660093

$$$$
