
     RDKit          3D

 23 24  0  0  0  0  0  0  0  0999 V2000
   37.7480   25.8330   33.3340 C   0  0  0  0  0  0  0  0  0  0  0  0
   38.1780   25.1150   34.4530 C   0  0  0  0  0  0  0  0  0  0  0  0
   38.0300   23.7320   34.4250 C   0  0  0  0  0  0  0  0  0  0  0  0
   37.4800   23.1600   33.3210 N   0  0  0  0  0  0  0  0  0  0  0  0
   37.0710   23.8710   32.2500 C   0  0  0  0  0  0  0  0  0  0  0  0
   37.2150   25.2140   32.2760 N   0  0  0  0  0  0  0  0  0  0  0  0
   38.7400   25.9420   35.5450 C   0  0  0  0  0  0  0  0  0  0  0  0
   38.2810   25.5660   36.8010 F   0  0  0  0  0  0  0  0  0  0  0  0
   40.1070   25.6640   35.5660 F   0  0  0  0  0  0  0  0  0  0  0  0
   38.6170   27.2930   35.3090 F   0  0  0  0  0  0  0  0  0  0  0  0
   38.4860   22.9840   35.5600 C   0  0  0  0  0  0  0  0  0  0  0  0
   37.7150   22.6790   36.5420 O   0  0  0  0  0  0  0  0  0  0  0  0
   39.8310   22.4350   35.8330 C   0  0  0  0  0  0  0  0  0  0  0  0
   40.2520   22.1970   37.1210 C   0  0  0  0  0  0  0  0  0  0  0  0
   41.4960   21.6480   37.4240 C   0  0  0  0  0  0  0  0  0  0  0  0
   42.3280   21.3340   36.4150 N   0  0  0  0  0  0  0  0  0  0  0  0
   41.9260   21.5620   35.1530 C   0  0  0  0  0  0  0  0  0  0  0  0
   40.7310   22.0870   34.9220 N   0  0  0  0  0  0  0  0  0  0  0  0
   37.8501   26.9282   33.3236 H   0  0  0  0  0  0  0  0  0  0  0  0
   36.6305   23.3690   31.3760 H   0  0  0  0  0  0  0  0  0  0  0  0
   39.5751   22.4520   37.9498 H   0  0  0  0  0  0  0  0  0  0  0  0
   41.7923   21.4745   38.4690 H   0  0  0  0  0  0  0  0  0  0  0  0
   42.5890   21.3128   34.3114 H   0  0  0  0  0  0  0  0  0  0  0  0
  1  2  2  0
  2  7  1  0
  3  2  1  0
  3 11  1  0
  4  3  2  0
  5  6  2  0
  5  4  1  0
  6  1  1  0
  7  9  1  0
  7  8  1  0
 10  7  1  0
 11 13  1  0
 11 12  2  0
 13 14  2  0
 14 15  1  0
 16 15  2  0
 17 16  1  0
 18 17  2  0
 18 13  1  0
  1 19  1  0
  5 20  1  0
 14 21  1  0
 15 22  1  0
 17 23  1  0
M  ISO  5  19  14  20  14  21  14  22  14  23  14
M  END
>  <minimizedAffinity>  (1) 
-4.10475588

>  <minimizedRMSD>  (1) 
2.59479761

$$$$
