
     RDKit          3D

 20 21  0  0  0  0  0  0  0  0999 V2000
   37.3620   26.8280   33.6000 C   0  0  0  0  0  0  0  0  0  0  0  0
   37.9640   26.1480   34.6690 C   0  0  0  0  0  0  0  0  0  0  0  0
   38.0930   24.7680   34.5350 C   0  0  0  0  0  0  0  0  0  0  0  0
   37.6450   24.1640   33.4150 N   0  0  0  0  0  0  0  0  0  0  0  0
   37.0690   24.8410   32.4020 C   0  0  0  0  0  0  0  0  0  0  0  0
   36.9360   26.1800   32.5130 N   0  0  0  0  0  0  0  0  0  0  0  0
   38.3650   27.0080   35.7990 C   0  0  0  0  0  0  0  0  0  0  0  0
   38.2100   26.3800   37.0270 F   0  0  0  0  0  0  0  0  0  0  0  0
   39.7360   27.1880   35.6590 F   0  0  0  0  0  0  0  0  0  0  0  0
   37.8000   28.2600   35.7540 F   0  0  0  0  0  0  0  0  0  0  0  0
   38.7480   24.0680   35.6060 C   0  0  0  0  0  0  0  0  0  0  0  0
   38.1130   23.5450   36.5900 O   0  0  0  0  0  0  0  0  0  0  0  0
   40.1970   23.8030   35.8040 C   0  0  0  0  0  0  0  0  0  0  0  0
   41.1790   24.4030   35.1410 N   0  0  0  0  0  0  0  0  0  0  0  0
   42.3510   23.9700   35.5660 O   0  0  0  0  0  0  0  0  0  0  0  0
   42.1870   23.0940   36.4990 C   0  0  0  0  0  0  0  0  0  0  0  0
   40.8610   22.9900   36.6440 N   0  0  0  0  0  0  0  0  0  0  0  0
   37.2381   27.9194   33.6585 H   0  0  0  0  0  0  0  0  0  0  0  0
   36.7148   24.3139   31.5039 H   0  0  0  0  0  0  0  0  0  0  0  0
   42.9667   22.5515   37.0538 H   0  0  0  0  0  0  0  0  0  0  0  0
  1  2  2  0
  2  7  1  0
  3  2  1  0
  3 11  1  0
  4  3  2  0
  5  6  2  0
  5  4  1  0
  6  1  1  0
  7  8  1  0
  9  7  1  0
 10  7  1  0
 11 13  1  0
 11 12  2  0
 13 17  1  0
 14 15  1  0
 14 13  2  0
 15 16  1  0
 16 17  2  0
  1 18  1  0
  5 19  1  0
 16 20  1  0
M  ISO  3  18  14  19  14  20  14
M  END
>  <minimizedAffinity>  (1) 
-4.34990215

>  <minimizedRMSD>  (1) 
2.45484352

$$$$
