
     RDKit          3D

 22 24  0  0  1  0  0  0  0  0999 V2000
   36.0030   26.3850   31.6690 C   0  0  0  0  0  0  0  0  0  0  0  0
   36.9050   26.2000   32.7170 C   0  0  0  0  0  0  0  0  0  0  0  0
   37.2900   24.8910   32.9730 C   0  0  0  0  0  0  0  0  0  0  0  0
   36.7940   23.8860   32.2260 N   0  0  0  0  0  0  0  0  0  0  0  0
   35.9200   24.0910   31.2150 C   0  0  0  0  0  0  0  0  0  0  0  0
   35.5470   25.3560   30.9660 N   0  0  0  0  0  0  0  0  0  0  0  0
   37.3280   27.4380   33.4170 C   0  0  0  0  0  0  0  0  0  0  0  0
   37.0810   27.3950   34.7890 F   0  0  0  0  0  0  0  0  0  0  0  0
   38.7200   27.4580   33.3070 F   0  0  0  0  0  0  0  0  0  0  0  0
   36.8370   28.5760   32.8180 F   0  0  0  0  0  0  0  0  0  0  0  0
   38.2250   24.6800   34.0380 C   0  0  0  0  0  0  0  0  0  0  0  0
   39.4560   24.4290   33.8900 O   0  0  0  0  0  0  0  0  0  0  0  0
   38.8260   24.5370   35.3580 C   0  0  0  0  0  0  0  0  0  0  0  0
   37.9000   24.7080   36.5560 C   0  0  0  0  0  0  0  0  0  0  0  0
   38.6090   23.4210   36.2840 C   0  0  0  0  0  0  0  0  0  0  0  0
   35.6638   27.4016   31.4210 H   0  0  0  0  0  0  0  0  0  0  0  0
   35.5295   23.2529   30.6192 H   0  0  0  0  0  0  0  0  0  0  0  0
   38.4536   25.7559   34.0505 H   0  0  0  0  0  0  0  0  0  0  0  0
   38.2014   25.3392   37.4050 H   0  0  0  0  0  0  0  0  0  0  0  0
   36.8549   25.0160   36.7074 H   0  0  0  0  0  0  0  0  0  0  0  0
   38.0354   22.5426   35.9532 H   0  0  0  0  0  0  0  0  0  0  0  0
   39.2752   22.7738   36.8734 H   0  0  0  0  0  0  0  0  0  0  0  0
  1  2  2  0
  2  3  1  0
  2  7  1  0
  4  3  2  0
  5  4  1  0
  6  5  2  0
  6  1  1  0
  7  8  1  0
  9  7  1  0
 10  7  1  0
 11  3  1  0
 11 13  1  0
 12 11  1  0
 12 13  1  0
 13 15  1  0
 13 14  1  0
 15 14  1  0
  1 16  1  0
  5 17  1  0
 11 18  1  0
 14 19  1  0
 14 20  1  0
 15 21  1  0
 15 22  1  0
M  ISO  7  16  14  17  14  18  13  19  13  20  13  21  13  22  13
M  END
>  <minimizedAffinity>  (1) 
-3.72580838

>  <minimizedRMSD>  (1) 
3.62288475

$$$$
