
     RDKit          3D

 23 24  0  0  0  0  0  0  0  0999 V2000
   35.6030   26.6050   31.3090 C   0  0  0  0  0  0  0  0  0  0  0  0
   36.6620   26.4950   32.1960 C   0  0  0  0  0  0  0  0  0  0  0  0
   37.0770   25.1890   32.5440 C   0  0  0  0  0  0  0  0  0  0  0  0
   36.4210   24.1350   31.9940 N   0  0  0  0  0  0  0  0  0  0  0  0
   35.3940   24.2900   31.1350 C   0  0  0  0  0  0  0  0  0  0  0  0
   34.9900   25.5210   30.7950 N   0  0  0  0  0  0  0  0  0  0  0  0
   37.2200   27.7870   32.6640 C   0  0  0  0  0  0  0  0  0  0  0  0
   37.3880   27.8230   34.0570 F   0  0  0  0  0  0  0  0  0  0  0  0
   38.5110   27.8360   32.1390 F   0  0  0  0  0  0  0  0  0  0  0  0
   36.5120   28.8670   32.1940 F   0  0  0  0  0  0  0  0  0  0  0  0
   38.1720   25.1120   33.4620 C   0  0  0  0  0  0  0  0  0  0  0  0
   39.3640   25.1290   33.1550 O   0  0  0  0  0  0  0  0  0  0  0  0
   38.1860   25.0060   34.8510 O   0  0  0  0  0  0  0  0  0  0  0  0
   38.4660   23.8560   35.5310 C   0  0  0  0  0  0  0  0  0  0  0  0
   39.6030   23.8190   36.3450 C   0  0  0  0  0  0  0  0  0  0  0  0
   39.6310   22.5360   36.9020 C   0  0  0  0  0  0  0  0  0  0  0  0
   38.5520   21.8950   36.4160 N   0  0  0  0  0  0  0  0  0  0  0  0
   37.8480   22.6770   35.5940 N   0  0  0  0  0  0  0  0  0  0  0  0
   35.2529   27.6059   31.0163 H   0  0  0  0  0  0  0  0  0  0  0  0
   34.8890   23.4080   30.7143 H   0  0  0  0  0  0  0  0  0  0  0  0
   40.3258   24.6311   36.5125 H   0  0  0  0  0  0  0  0  0  0  0  0
   40.3827   22.1328   37.5965 H   0  0  0  0  0  0  0  0  0  0  0  0
   38.3009   20.9236   36.6488 H   0  0  0  0  0  0  0  0  0  0  0  0
  1  2  2  0
  2  3  1  0
  2  7  1  0
  3 11  1  0
  4  3  2  0
  5  4  1  0
  6  5  2  0
  6  1  1  0
  7  8  1  0
  9  7  1  0
 10  7  1  0
 11 13  1  0
 12 11  2  0
 13 14  1  0
 14 18  2  0
 14 15  1  0
 15 16  2  0
 17 16  1  0
 18 17  1  0
  1 19  1  0
  5 20  1  0
 15 21  1  0
 16 22  1  0
 17 23  1  0
M  ISO  5  19  14  20  14  21  14  22  14  23   9
M  END
>  <minimizedAffinity>  (1) 
-4.40083456

>  <minimizedRMSD>  (1) 
4.71370506

$$$$
