
     RDKit          3D

 27 29  0  0  0  0  0  0  0  0999 V2000
   37.8230   25.7360   34.3730 C   0  0  0  0  0  0  0  0  0  0  0  0
   36.9320   26.3780   34.9290 O   0  0  0  0  0  0  0  0  0  0  0  0
   37.9220   25.3930   30.7190 C   0  0  0  0  0  0  0  0  0  0  0  0
   38.0180   25.9630   31.9880 C   0  0  0  0  0  0  0  0  0  0  0  0
   37.7150   25.1250   33.0820 C   0  0  0  0  0  0  0  0  0  0  0  0
   37.3580   23.8480   32.8240 N   0  0  0  0  0  0  0  0  0  0  0  0
   37.2740   23.3310   31.5890 C   0  0  0  0  0  0  0  0  0  0  0  0
   37.5630   24.1230   30.5290 N   0  0  0  0  0  0  0  0  0  0  0  0
   38.4320   27.3860   32.0040 C   0  0  0  0  0  0  0  0  0  0  0  0
   37.4780   28.2100   32.6050 F   0  0  0  0  0  0  0  0  0  0  0  0
   39.5430   27.4240   32.8580 F   0  0  0  0  0  0  0  0  0  0  0  0
   38.8100   27.8480   30.7670 F   0  0  0  0  0  0  0  0  0  0  0  0
   38.8880   25.7620   35.2740 O   0  0  0  0  0  0  0  0  0  0  0  0
   38.8230   22.6060   38.5970 N   0  0  0  0  0  0  0  0  0  0  0  0
   37.8210   23.4970   38.7740 C   0  0  0  0  0  0  0  0  0  0  0  0
   37.8520   24.4280   37.7800 N   0  0  0  0  0  0  0  0  0  0  0  0
   38.8920   24.1200   36.9640 C   0  0  0  0  0  0  0  0  0  0  0  0
   39.4540   24.6380   35.8130 C   0  0  0  0  0  0  0  0  0  0  0  0
   40.5270   24.0640   35.2370 N   0  0  0  0  0  0  0  0  0  0  0  0
   41.0740   22.9550   35.7830 C   0  0  0  0  0  0  0  0  0  0  0  0
   40.5740   22.3960   36.9030 N   0  0  0  0  0  0  0  0  0  0  0  0
   39.4980   22.9760   37.4800 C   0  0  0  0  0  0  0  0  0  0  0  0
   38.1512   26.0149   29.8411 H   0  0  0  0  0  0  0  0  0  0  0  0
   36.9758   22.2827   31.4399 H   0  0  0  0  0  0  0  0  0  0  0  0
   39.0343   21.7970   39.1985 H   0  0  0  0  0  0  0  0  0  0  0  0
   37.0911   23.4735   39.5966 H   0  0  0  0  0  0  0  0  0  0  0  0
   41.9500   22.4968   35.3007 H   0  0  0  0  0  0  0  0  0  0  0  0
  1  2  2  0
  1 13  1  0
  3  4  2  0
  4  9  1  0
  4  5  1  0
  5  1  1  0
  6  5  2  0
  7  6  1  0
  8  3  1  0
  8  7  2  0
  9 10  1  0
  9 11  1  0
 12  9  1  0
 13 18  1  0
 14 15  1  0
 16 15  2  0
 17 22  2  0
 17 16  1  0
 18 17  1  0
 19 20  1  0
 19 18  2  0
 20 21  2  0
 21 22  1  0
 22 14  1  0
  3 23  1  0
  7 24  1  0
 14 25  1  0
 15 26  1  0
 20 27  1  0
M  ISO  5  23  14  24  14  25   9  26  14  27  14
M  END
>  <minimizedAffinity>  (1) 
-4.97549629

>  <minimizedRMSD>  (1) 
4.35668659

$$$$
