
     RDKit          3D

 24 25  0  0  0  0  0  0  0  0999 V2000
   37.3420   28.1350   32.1680 C   0  0  0  0  0  0  0  0  0  0  0  0
   37.5760   27.1730   33.1530 C   0  0  0  0  0  0  0  0  0  0  0  0
   38.1740   25.9640   32.7410 C   0  0  0  0  0  0  0  0  0  0  0  0
   38.4760   25.8200   31.4240 N   0  0  0  0  0  0  0  0  0  0  0  0
   38.2410   26.7560   30.5030 C   0  0  0  0  0  0  0  0  0  0  0  0
   37.6680   27.9230   30.8860 N   0  0  0  0  0  0  0  0  0  0  0  0
   37.1580   27.5690   34.5110 C   0  0  0  0  0  0  0  0  0  0  0  0
   36.4670   26.5380   35.1730 F   0  0  0  0  0  0  0  0  0  0  0  0
   38.3330   27.7350   35.2340 F   0  0  0  0  0  0  0  0  0  0  0  0
   36.4610   28.7510   34.5450 F   0  0  0  0  0  0  0  0  0  0  0  0
   38.3980   25.0050   33.7780 C   0  0  0  0  0  0  0  0  0  0  0  0
   37.7280   23.9720   33.9340 O   0  0  0  0  0  0  0  0  0  0  0  0
   39.3470   24.9780   34.8030 O   0  0  0  0  0  0  0  0  0  0  0  0
   39.1070   24.4490   36.0440 C   0  0  0  0  0  0  0  0  0  0  0  0
   38.1360   24.8290   36.9730 C   0  0  0  0  0  0  0  0  0  0  0  0
   38.0540   24.1670   38.1770 C   0  0  0  0  0  0  0  0  0  0  0  0
   38.8810   23.1460   38.5170 N   0  0  0  0  0  0  0  0  0  0  0  0
   39.8050   22.8110   37.5870 C   0  0  0  0  0  0  0  0  0  0  0  0
   39.9370   23.4240   36.3820 N   0  0  0  0  0  0  0  0  0  0  0  0
   36.8782   29.0911   32.4520 H   0  0  0  0  0  0  0  0  0  0  0  0
   38.5079   26.5835   29.4499 H   0  0  0  0  0  0  0  0  0  0  0  0
   37.4419   25.6512   36.7443 H   0  0  0  0  0  0  0  0  0  0  0  0
   37.2830   24.4798   38.8965 H   0  0  0  0  0  0  0  0  0  0  0  0
   40.4952   21.9875   37.8224 H   0  0  0  0  0  0  0  0  0  0  0  0
  1  2  2  0
  2  7  1  0
  3  2  1  0
  3 11  1  0
  4  3  2  0
  5  6  2  0
  5  4  1  0
  6  1  1  0
  7 10  1  0
  7  8  1  0
  7  9  1  0
 11 12  2  0
 11 13  1  0
 13 14  1  0
 14 19  1  0
 14 15  2  0
 15 16  1  0
 16 17  2  0
 18 17  1  0
 19 18  2  0
  1 20  1  0
  5 21  1  0
 15 22  1  0
 16 23  1  0
 18 24  1  0
M  ISO  5  20  14  21  14  22  14  23  14  24  14
M  END
>  <minimizedAffinity>  (1) 
-4.55547953

>  <minimizedRMSD>  (1) 
4.51034641

$$$$
