
     RDKit          3D

 29 30  0  0  0  0  0  0  0  0999 V2000
   39.6380   27.3360   32.2220 C   0  0  0  0  0  0  0  0  0  0  0  0
   39.1740   26.4020   33.1450 C   0  0  0  0  0  0  0  0  0  0  0  0
   39.8810   25.1840   33.2370 C   0  0  0  0  0  0  0  0  0  0  0  0
   40.9510   25.0140   32.4270 N   0  0  0  0  0  0  0  0  0  0  0  0
   41.3710   25.9360   31.5490 C   0  0  0  0  0  0  0  0  0  0  0  0
   40.7000   27.1050   31.4540 N   0  0  0  0  0  0  0  0  0  0  0  0
   37.9820   26.8290   33.9110 C   0  0  0  0  0  0  0  0  0  0  0  0
   37.0540   25.7890   34.0900 F   0  0  0  0  0  0  0  0  0  0  0  0
   38.4450   27.1070   35.1900 F   0  0  0  0  0  0  0  0  0  0  0  0
   37.3840   27.9530   33.3950 F   0  0  0  0  0  0  0  0  0  0  0  0
   39.3750   24.2470   34.1960 C   0  0  0  0  0  0  0  0  0  0  0  0
   38.7430   23.2280   33.9030 O   0  0  0  0  0  0  0  0  0  0  0  0
   39.4550   24.2370   35.5790 O   0  0  0  0  0  0  0  0  0  0  0  0
   38.7990   23.4110   36.4560 C   0  0  0  0  0  0  0  0  0  0  0  0
   37.6420   24.2050   37.0320 C   0  0  0  0  0  0  0  0  0  0  0  0
   37.9680   24.5410   38.4530 C   0  0  0  0  0  0  0  0  0  0  0  0
   38.8290   23.4000   38.8870 C   0  0  0  0  0  0  0  0  0  0  0  0
   39.5620   22.9360   37.6400 C   0  0  0  0  0  0  0  0  0  0  0  0
   39.1095   28.2958   32.1246 H   0  0  0  0  0  0  0  0  0  0  0  0
   42.2492   25.7436   30.9151 H   0  0  0  0  0  0  0  0  0  0  0  0
   38.5462   22.5200   35.8625 H   0  0  0  0  0  0  0  0  0  0  0  0
   37.5004   25.1299   36.4536 H   0  0  0  0  0  0  0  0  0  0  0  0
   36.7148   23.6152   36.9839 H   0  0  0  0  0  0  0  0  0  0  0  0
   38.5143   25.4936   38.5173 H   0  0  0  0  0  0  0  0  0  0  0  0
   37.0741   24.6689   39.0811 H   0  0  0  0  0  0  0  0  0  0  0  0
   39.5466   23.7312   39.6521 H   0  0  0  0  0  0  0  0  0  0  0  0
   38.2327   22.5893   39.3310 H   0  0  0  0  0  0  0  0  0  0  0  0
   39.6224   21.8377   37.6293 H   0  0  0  0  0  0  0  0  0  0  0  0
   40.5843   23.3418   37.6241 H   0  0  0  0  0  0  0  0  0  0  0  0
  1  2  2  0
  2  3  1  0
  2  7  1  0
  3 11  1  0
  4  3  2  0
  5  4  1  0
  6  5  2  0
  6  1  1  0
  7  8  1  0
  7  9  1  0
 10  7  1  0
 11 13  1  0
 12 11  2  0
 13 14  1  0
 14 15  1  0
 14 18  1  0
 15 16  1  0
 16 17  1  0
 18 17  1  0
  1 19  1  0
  5 20  1  0
 14 21  1  0
 15 22  1  0
 15 23  1  0
 16 24  1  0
 16 25  1  0
 17 26  1  0
 17 27  1  0
 18 28  1  0
 18 29  1  0
M  ISO  8  19  14  20  14  21  13  22  13  23  13  24  13  25  13  26  13
M  ISO  3  27  13  28  13  29  13
M  END
>  <minimizedAffinity>  (1) 
-3.99350739

>  <minimizedRMSD>  (1) 
4.00640249

$$$$
