
     RDKit          3D

 30 32  0  0  0  0  0  0  0  0999 V2000
   40.5500   24.9600   34.3200 C   0  0  0  0  0  0  0  0  0  0  0  0
   41.1450   26.2320   34.2060 C   0  0  0  0  0  0  0  0  0  0  0  0
   40.4360   27.1400   33.4200 C   0  0  0  0  0  0  0  0  0  0  0  0
   39.2770   26.7780   32.8350 N   0  0  0  0  0  0  0  0  0  0  0  0
   38.7400   25.5440   32.9700 C   0  0  0  0  0  0  0  0  0  0  0  0
   39.4080   24.6510   33.7250 N   0  0  0  0  0  0  0  0  0  0  0  0
   42.3670   26.5770   34.8360 N   0  0  0  0  0  0  0  0  0  0  0  0
   43.6110   26.6950   34.1850 C   0  0  0  0  0  0  0  0  0  0  0  0
   43.8440   25.8020   33.2400 N   0  0  0  0  0  0  0  0  0  0  0  0
   44.4610   27.7710   34.6380 N   0  0  0  0  0  0  0  0  0  0  0  0
   44.7200   25.8410   32.7030 H   0  0  0  0  0  0  0  0  0  0  0  0
   37.4770   25.2050   32.3140 C   0  0  0  0  0  0  0  0  0  0  0  0
   36.6800   26.2200   31.8520 C   0  0  0  0  0  0  0  0  0  0  0  0
   35.5220   25.7780   31.2540 C   0  0  0  0  0  0  0  0  0  0  0  0
   35.1780   24.4870   31.1230 N   0  0  0  0  0  0  0  0  0  0  0  0
   35.9960   23.5240   31.5940 C   0  0  0  0  0  0  0  0  0  0  0  0
   37.1690   23.9070   32.2020 N   0  0  0  0  0  0  0  0  0  0  0  0
   35.7750   22.0880   31.5330 C   0  0  0  0  0  0  0  0  0  0  0  0
   36.1730   21.0560   30.7630 N   0  0  0  0  0  0  0  0  0  0  0  0
   35.6260   19.9630   31.2120 O   0  0  0  0  0  0  0  0  0  0  0  0
   34.8710   20.2150   32.2580 C   0  0  0  0  0  0  0  0  0  0  0  0
   34.9590   21.5590   32.4690 N   0  0  0  0  0  0  0  0  0  0  0  0
   41.0538   24.1935   34.9271 H   0  0  0  0  0  0  0  0  0  0  0  0
   40.8254   28.1587   33.2765 H   0  0  0  0  0  0  0  0  0  0  0  0
   42.3437   26.7556   35.8501 H   0  0  0  0  0  0  0  0  0  0  0  0
   45.3846   27.9148   34.2053 H   0  0  0  0  0  0  0  0  0  0  0  0
   44.1437   28.3947   35.3938 H   0  0  0  0  0  0  0  0  0  0  0  0
   36.9406   27.2842   31.9497 H   0  0  0  0  0  0  0  0  0  0  0  0
   34.8304   26.5350   30.8558 H   0  0  0  0  0  0  0  0  0  0  0  0
   34.2873   19.4895   32.8436 H   0  0  0  0  0  0  0  0  0  0  0  0
  2  1  2  0
  2  7  1  0
  3  2  1  0
  4  5  1  0
  4  3  2  0
  5  6  2  0
  6  1  1  0
  8 10  1  0
  8  7  1  0
  9  8  2  0
 11  9  1  0
 12  5  1  0
 13 12  2  0
 14 13  1  0
 15 14  2  0
 15 16  1  0
 16 17  2  0
 17 12  1  0
 18 16  1  0
 18 22  1  0
 19 20  1  0
 19 18  2  0
 20 21  1  0
 21 22  2  0
  1 23  1  0
  3 24  1  0
  7 25  1  0
 10 26  1  0
 10 27  1  0
 13 28  1  0
 14 29  1  0
 21 30  1  0
M  ISO  5  23  14  24  14  28  14  29  14  30  14
M  END
>  <minimizedAffinity>  (1) 
-4.99715042

>  <minimizedRMSD>  (1) 
3.76939511

$$$$
