
     RDKit          3D

 23 24  0  0  0  0  0  0  0  0999 V2000
   37.8360   27.7090   32.2790 C   0  0  0  0  0  0  0  0  0  0  0  0
   37.9160   26.8420   33.3680 C   0  0  0  0  0  0  0  0  0  0  0  0
   38.5140   25.5860   33.1290 C   0  0  0  0  0  0  0  0  0  0  0  0
   38.9590   25.3190   31.8730 N   0  0  0  0  0  0  0  0  0  0  0  0
   38.8640   26.1790   30.8560 C   0  0  0  0  0  0  0  0  0  0  0  0
   38.2920   27.3900   31.0700 N   0  0  0  0  0  0  0  0  0  0  0  0
   37.3600   27.3590   34.6370 C   0  0  0  0  0  0  0  0  0  0  0  0
   36.6070   26.4190   35.3260 F   0  0  0  0  0  0  0  0  0  0  0  0
   38.4720   27.5980   35.4480 F   0  0  0  0  0  0  0  0  0  0  0  0
   36.6680   28.5430   34.4670 F   0  0  0  0  0  0  0  0  0  0  0  0
   38.5830   24.7130   34.2610 C   0  0  0  0  0  0  0  0  0  0  0  0
   37.8510   23.7360   34.4530 O   0  0  0  0  0  0  0  0  0  0  0  0
   39.4340   24.7350   35.3690 O   0  0  0  0  0  0  0  0  0  0  0  0
   39.0720   24.2060   36.5980 C   0  0  0  0  0  0  0  0  0  0  0  0
   39.3710   23.0690   37.3590 C   0  0  0  0  0  0  0  0  0  0  0  0
   38.6150   23.2270   38.5040 C   0  0  0  0  0  0  0  0  0  0  0  0
   37.9100   24.4090   38.4030 C   0  0  0  0  0  0  0  0  0  0  0  0
   38.2120   24.9600   37.2510 O   0  0  0  0  0  0  0  0  0  0  0  0
   37.3769   28.6979   32.4252 H   0  0  0  0  0  0  0  0  0  0  0  0
   39.2440   25.9093   29.8595 H   0  0  0  0  0  0  0  0  0  0  0  0
   40.0502   22.2422   37.1040 H   0  0  0  0  0  0  0  0  0  0  0  0
   38.5806   22.5286   39.3531 H   0  0  0  0  0  0  0  0  0  0  0  0
   37.2180   24.8168   39.1545 H   0  0  0  0  0  0  0  0  0  0  0  0
  1  2  2  0
  2  7  1  0
  3  2  1  0
  3 11  1  0
  4  3  2  0
  5  6  2  0
  5  4  1  0
  6  1  1  0
  7  8  1  0
  7  9  1  0
 10  7  1  0
 11 12  2  0
 11 13  1  0
 13 14  1  0
 14 18  1  0
 14 15  2  0
 15 16  1  0
 17 16  2  0
 18 17  1  0
  1 19  1  0
  5 20  1  0
 15 21  1  0
 16 22  1  0
 17 23  1  0
M  ISO  5  19  14  20  14  21  14  22  14  23  14
M  END
>  <minimizedAffinity>  (1) 
-4.33056068

>  <minimizedRMSD>  (1) 
4.03625059

$$$$
