
     RDKit          3D

 32 34  0  0  0  0  0  0  0  0999 V2000
   40.3190   25.1480   34.5580 C   0  0  0  0  0  0  0  0  0  0  0  0
   41.0160   26.3130   34.1620 C   0  0  0  0  0  0  0  0  0  0  0  0
   40.4250   27.0160   33.1070 C   0  0  0  0  0  0  0  0  0  0  0  0
   39.2790   26.5740   32.5450 N   0  0  0  0  0  0  0  0  0  0  0  0
   38.6500   25.4600   32.9550 C   0  0  0  0  0  0  0  0  0  0  0  0
   39.2000   24.7640   33.9700 N   0  0  0  0  0  0  0  0  0  0  0  0
   42.2120   26.7280   34.7850 N   0  0  0  0  0  0  0  0  0  0  0  0
   43.4980   26.6430   34.2120 C   0  0  0  0  0  0  0  0  0  0  0  0
   43.7400   25.5530   33.4920 N   0  0  0  0  0  0  0  0  0  0  0  0
   44.3810   27.7590   34.4890 N   0  0  0  0  0  0  0  0  0  0  0  0
   44.6420   25.4360   33.0190 H   0  0  0  0  0  0  0  0  0  0  0  0
   37.4130   25.0340   32.3070 C   0  0  0  0  0  0  0  0  0  0  0  0
   36.5840   25.9980   31.7500 C   0  0  0  0  0  0  0  0  0  0  0  0
   35.4470   25.5000   31.1640 C   0  0  0  0  0  0  0  0  0  0  0  0
   35.1560   24.1940   31.1310 N   0  0  0  0  0  0  0  0  0  0  0  0
   35.9770   23.2980   31.6790 C   0  0  0  0  0  0  0  0  0  0  0  0
   37.1300   23.7150   32.2810 N   0  0  0  0  0  0  0  0  0  0  0  0
   35.6840   21.8730   31.6560 C   0  0  0  0  0  0  0  0  0  0  0  0
   36.3370   20.9520   30.8470 C   0  0  0  0  0  0  0  0  0  0  0  0
   35.8020   19.7260   31.0930 N   0  0  0  0  0  0  0  0  0  0  0  0
   34.8280   19.8510   32.0350 C   0  0  0  0  0  0  0  0  0  0  0  0
   34.7840   21.1560   32.3520 N   0  0  0  0  0  0  0  0  0  0  0  0
   40.7218   24.5416   35.3827 H   0  0  0  0  0  0  0  0  0  0  0  0
   40.8972   27.9360   32.7321 H   0  0  0  0  0  0  0  0  0  0  0  0
   42.1403   27.1243   35.7330 H   0  0  0  0  0  0  0  0  0  0  0  0
   45.3364   27.7676   34.1043 H   0  0  0  0  0  0  0  0  0  0  0  0
   44.0529   28.5433   35.0705 H   0  0  0  0  0  0  0  0  0  0  0  0
   36.8188   27.0723   31.7761 H   0  0  0  0  0  0  0  0  0  0  0  0
   34.7428   26.2065   30.7003 H   0  0  0  0  0  0  0  0  0  0  0  0
   37.1441   21.1747   30.1335 H   0  0  0  0  0  0  0  0  0  0  0  0
   34.2036   19.0472   32.4521 H   0  0  0  0  0  0  0  0  0  0  0  0
   34.1379   21.5592   33.0455 H   0  0  0  0  0  0  0  0  0  0  0  0
  2  1  2  0
  2  7  1  0
  3  2  1  0
  4  5  1  0
  4  3  2  0
  5  6  2  0
  6  1  1  0
  8 10  1  0
  8  7  1  0
  9  8  2  0
 11  9  1  0
 12  5  1  0
 13 12  2  0
 14 13  1  0
 15 14  2  0
 15 16  1  0
 16 17  2  0
 17 12  1  0
 18 16  1  0
 18 22  1  0
 19 20  1  0
 19 18  2  0
 20 21  2  0
 21 22  1  0
  1 23  1  0
  3 24  1  0
  7 25  1  0
 10 26  1  0
 10 27  1  0
 13 28  1  0
 14 29  1  0
 19 30  1  0
 21 31  1  0
 22 32  1  0
M  ISO  7  23  14  24  14  28  14  29  14  30  14  31  14  32   9
M  END
>  <minimizedAffinity>  (1) 
-4.95113039

>  <minimizedRMSD>  (1) 
3.77464271

$$$$
