
     RDKit          3D

 27 28  0  0  0  0  0  0  0  0999 V2000
   38.2350   22.7880   35.2570 C   0  0  0  0  0  0  0  0  0  0  0  0
   37.2280   22.1160   34.9850 O   0  0  0  0  0  0  0  0  0  0  0  0
   38.1780   26.1380   36.7460 C   0  0  0  0  0  0  0  0  0  0  0  0
   38.1660   24.7500   36.6350 C   0  0  0  0  0  0  0  0  0  0  0  0
   38.2520   24.2180   35.3220 C   0  0  0  0  0  0  0  0  0  0  0  0
   38.3390   25.0820   34.2990 N   0  0  0  0  0  0  0  0  0  0  0  0
   38.3490   26.4120   34.4430 C   0  0  0  0  0  0  0  0  0  0  0  0
   38.2680   26.9400   35.6770 N   0  0  0  0  0  0  0  0  0  0  0  0
   38.0600   24.0240   37.9300 C   0  0  0  0  0  0  0  0  0  0  0  0
   37.1450   22.9730   37.8610 F   0  0  0  0  0  0  0  0  0  0  0  0
   39.3130   23.4300   38.0870 F   0  0  0  0  0  0  0  0  0  0  0  0
   37.8350   24.8530   38.9920 F   0  0  0  0  0  0  0  0  0  0  0  0
   39.2630   21.8500   35.4660 O   0  0  0  0  0  0  0  0  0  0  0  0
   40.5670   22.0950   35.1520 C   0  0  0  0  0  0  0  0  0  0  0  0
   40.9440   21.7960   33.8490 C   0  0  0  0  0  0  0  0  0  0  0  0
   42.2200   21.9940   33.4010 C   0  0  0  0  0  0  0  0  0  0  0  0
   43.1490   22.5090   34.2940 C   0  0  0  0  0  0  0  0  0  0  0  0
   42.7880   22.8070   35.5890 C   0  0  0  0  0  0  0  0  0  0  0  0
   41.5140   22.5830   35.9480 N   0  0  0  0  0  0  0  0  0  0  0  0
   43.7630   23.3530   36.5480 C   0  0  0  0  0  0  0  0  0  0  0  0
   43.7680   24.5920   36.7710 O   0  0  0  0  0  0  0  0  0  0  0  0
   38.1113   26.5914   37.7460 H   0  0  0  0  0  0  0  0  0  0  0  0
   38.4227   27.0663   33.5618 H   0  0  0  0  0  0  0  0  0  0  0  0
   40.1930   21.3875   33.1568 H   0  0  0  0  0  0  0  0  0  0  0  0
   42.5016   21.7528   32.3654 H   0  0  0  0  0  0  0  0  0  0  0  0
   44.1842   22.6809   33.9641 H   0  0  0  0  0  0  0  0  0  0  0  0
   44.4749   22.6895   37.0608 H   0  0  0  0  0  0  0  0  0  0  0  0
  1  5  1  0
  1 13  1  0
  2  1  2  0
  4  3  2  0
  4  9  1  0
  5  4  1  0
  6  7  1  0
  6  5  2  0
  7  8  2  0
  8  3  1  0
  9 11  1  0
  9 12  1  0
 10  9  1  0
 14 13  1  0
 14 19  1  0
 15 14  2  0
 16 15  1  0
 16 17  2  0
 17 18  1  0
 18 19  2  0
 18 20  1  0
 20 21  2  0
  3 22  1  0
  7 23  1  0
 15 24  1  0
 16 25  1  0
 17 26  1  0
 20 27  1  0
M  ISO  6  22  14  23  14  24  14  25  14  26  14  27   6
M  END
>  <minimizedAffinity>  (1) 
-4.20021391

>  <minimizedRMSD>  (1) 
5.46771908

$$$$
