
     RDKit          3D

 28 29  0  0  0  0  0  0  0  0999 V2000
   37.1640   25.8080   32.4340 C   0  0  0  0  0  0  0  0  0  0  0  0
   36.3480   24.8800   32.3300 O   0  0  0  0  0  0  0  0  0  0  0  0
   37.8190   28.3670   29.8830 C   0  0  0  0  0  0  0  0  0  0  0  0
   37.2400   27.6990   30.9610 C   0  0  0  0  0  0  0  0  0  0  0  0
   37.8000   26.4490   31.3220 C   0  0  0  0  0  0  0  0  0  0  0  0
   38.8420   25.9940   30.6080 N   0  0  0  0  0  0  0  0  0  0  0  0
   39.3810   26.6630   29.5710 C   0  0  0  0  0  0  0  0  0  0  0  0
   38.8640   27.8490   29.2150 N   0  0  0  0  0  0  0  0  0  0  0  0
   36.0930   28.4190   31.5820 C   0  0  0  0  0  0  0  0  0  0  0  0
   35.0390   27.5490   31.8850 F   0  0  0  0  0  0  0  0  0  0  0  0
   36.5870   28.8630   32.8020 F   0  0  0  0  0  0  0  0  0  0  0  0
   35.6840   29.5030   30.8560 F   0  0  0  0  0  0  0  0  0  0  0  0
   37.2880   26.0410   33.8150 O   0  0  0  0  0  0  0  0  0  0  0  0
   38.0610   25.2690   34.6350 C   0  0  0  0  0  0  0  0  0  0  0  0
   39.2270   24.7630   34.0730 C   0  0  0  0  0  0  0  0  0  0  0  0
   40.0890   23.9800   34.7850 C   0  0  0  0  0  0  0  0  0  0  0  0
   39.7740   23.6910   36.1040 C   0  0  0  0  0  0  0  0  0  0  0  0
   38.6180   24.1860   36.6690 C   0  0  0  0  0  0  0  0  0  0  0  0
   37.8190   24.9520   35.9060 N   0  0  0  0  0  0  0  0  0  0  0  0
   38.2430   23.8930   38.0950 C   0  0  0  0  0  0  0  0  0  0  0  0
   39.3540   23.3610   38.7580 F   0  0  0  0  0  0  0  0  0  0  0  0
   37.9180   25.0480   38.7770 F   0  0  0  0  0  0  0  0  0  0  0  0
   37.2540   22.9610   38.1870 F   0  0  0  0  0  0  0  0  0  0  0  0
   37.4113   29.3402   29.5720 H   0  0  0  0  0  0  0  0  0  0  0  0
   40.2359   26.2418   29.0217 H   0  0  0  0  0  0  0  0  0  0  0  0
   39.4618   25.0002   33.0249 H   0  0  0  0  0  0  0  0  0  0  0  0
   41.0085   23.5889   34.3249 H   0  0  0  0  0  0  0  0  0  0  0  0
   40.4502   23.0633   36.7029 H   0  0  0  0  0  0  0  0  0  0  0  0
  1 13  1  0
  2  1  2  0
  3  4  2  0
  4  5  1  0
  4  9  1  0
  5  1  1  0
  6  5  2  0
  7  6  1  0
  8  7  2  0
  8  3  1  0
  9 10  1  0
  9 11  1  0
 12  9  1  0
 13 14  1  0
 14 19  1  0
 15 14  2  0
 15 16  1  0
 16 17  2  0
 17 18  1  0
 18 20  1  0
 19 18  2  0
 20 23  1  0
 20 21  1  0
 20 22  1  0
  3 24  1  0
  7 25  1  0
 15 26  1  0
 16 27  1  0
 17 28  1  0
M  ISO  5  24  14  25  14  26  14  27  14  28  14
M  END
>  <minimizedAffinity>  (1) 
-5.16403341

>  <minimizedRMSD>  (1) 
4.3445859

$$$$
