
     RDKit          3D

 42 45  0  0  0  0  0  0  0  0999 V2000
   38.5430   22.8240   31.3190 C   0  0  0  0  0  0  0  0  0  0  0  0
   38.0400   23.7150   30.3800 C   0  0  0  0  0  0  0  0  0  0  0  0
   38.2320   25.0560   30.5010 C   0  0  0  0  0  0  0  0  0  0  0  0
   38.9540   25.5040   31.6030 C   0  0  0  0  0  0  0  0  0  0  0  0
   39.4620   24.6350   32.5430 C   0  0  0  0  0  0  0  0  0  0  0  0
   39.2290   23.3190   32.3530 N   0  0  0  0  0  0  0  0  0  0  0  0
   40.2600   25.0650   33.7220 C   0  0  0  0  0  0  0  0  0  0  0  0
   39.5150   24.8240   34.9310 N   0  0  0  0  0  0  0  0  0  0  0  0
   38.4110   25.5540   35.2460 C   0  0  0  0  0  0  0  0  0  0  0  0
   37.9060   25.1350   36.4140 N   0  0  0  0  0  0  0  0  0  0  0  0
   38.6560   24.1300   36.8920 C   0  0  0  0  0  0  0  0  0  0  0  0
   38.6190   23.3330   38.0180 C   0  0  0  0  0  0  0  0  0  0  0  0
   37.6690   23.5870   38.7990 O   0  0  0  0  0  0  0  0  0  0  0  0
   39.5750   22.3970   38.1580 N   0  0  0  0  0  0  0  0  0  0  0  0
   40.5370   22.2530   37.2180 C   0  0  0  0  0  0  0  0  0  0  0  0
   41.4670   21.2030   37.5410 N   0  0  0  0  0  0  0  0  0  0  0  0
   40.5790   23.0260   36.1160 N   0  0  0  0  0  0  0  0  0  0  0  0
   39.6390   23.9660   35.9520 C   0  0  0  0  0  0  0  0  0  0  0  0
   38.2680   21.5140   31.0680 O   0  0  0  0  0  0  0  0  0  0  0  0
   37.8760   20.6170   32.0950 C   0  0  0  0  0  0  0  0  0  0  0  0
   38.1480   21.1720   33.1740 O   0  0  0  0  0  0  0  0  0  0  0  0
   35.2070   18.0920   31.9900 C   0  0  0  0  0  0  0  0  0  0  0  0
   35.8570   19.3270   32.0650 C   0  0  0  0  0  0  0  0  0  0  0  0
   37.2780   19.3140   32.0150 C   0  0  0  0  0  0  0  0  0  0  0  0
   37.8940   18.1280   31.9030 N   0  0  0  0  0  0  0  0  0  0  0  0
   37.2470   16.9560   31.8340 C   0  0  0  0  0  0  0  0  0  0  0  0
   35.8970   16.9420   31.8790 N   0  0  0  0  0  0  0  0  0  0  0  0
   34.9350   20.4980   32.1860 C   0  0  0  0  0  0  0  0  0  0  0  0
   35.1420   21.2070   33.3690 F   0  0  0  0  0  0  0  0  0  0  0  0
   35.3420   21.3250   31.1610 F   0  0  0  0  0  0  0  0  0  0  0  0
   33.6260   20.1770   31.9920 F   0  0  0  0  0  0  0  0  0  0  0  0
   37.4741   23.3278   29.5198 H   0  0  0  0  0  0  0  0  0  0  0  0
   37.8318   25.7596   29.7562 H   0  0  0  0  0  0  0  0  0  0  0  0
   39.1240   26.5837   31.7270 H   0  0  0  0  0  0  0  0  0  0  0  0
   41.2007   24.4957   33.7533 H   0  0  0  0  0  0  0  0  0  0  0  0
   40.4792   26.1398   33.6392 H   0  0  0  0  0  0  0  0  0  0  0  0
   37.9950   26.3671   34.6330 H   0  0  0  0  0  0  0  0  0  0  0  0
   39.5745   21.7856   38.9869 H   0  0  0  0  0  0  0  0  0  0  0  0
   42.2483   20.9929   36.9035 H   0  0  0  0  0  0  0  0  0  0  0  0
   41.3512   20.6617   38.4096 H   0  0  0  0  0  0  0  0  0  0  0  0
   34.1080   18.0593   32.0224 H   0  0  0  0  0  0  0  0  0  0  0  0
   37.8096   16.0153   31.7417 H   0  0  0  0  0  0  0  0  0  0  0  0
  1  6  2  0
  2  3  2  0
  2  1  1  0
  3  4  1  0
  4  5  2  0
  5  7  1  0
  6  5  1  0
  7  8  1  0
  8  9  1  0
  8 18  1  0
  9 10  2  0
 10 11  1  0
 11 12  1  0
 12 14  1  0
 12 13  2  0
 15 16  1  0
 15 14  1  0
 17 15  2  0
 18 17  1  0
 18 11  2  0
 19  1  1  0
 19 20  1  0
 20 21  2  0
 22 23  2  0
 23 28  1  0
 24 23  1  0
 24 20  1  0
 25 24  2  0
 26 27  2  0
 26 25  1  0
 27 22  1  0
 28 29  1  0
 30 28  1  0
 31 28  1  0
  2 32  1  0
  3 33  1  0
  4 34  1  0
  7 35  1  0
  7 36  1  0
  9 37  1  0
 14 38  1  0
 16 39  1  0
 16 40  1  0
 22 41  1  0
 26 42  1  0
M  ISO  8  32  14  33  14  34  14  35   8  36   8  37  14  38   9  41  14
M  ISO  1  42  14
M  END
>  <minimizedAffinity>  (1) 
-6.48399067

>  <minimizedRMSD>  (1) 
4.73599911

$$$$
