
     RDKit          3D

 35 37  0  0  0  0  0  0  0  0999 V2000
   37.1120   25.3870   31.5560 O   0  0  0  0  0  0  0  0  0  0  0  0
   37.1290   26.0860   32.7250 C   0  0  0  0  0  0  0  0  0  0  0  0
   36.5340   27.3450   32.6650 C   0  0  0  0  0  0  0  0  0  0  0  0
   36.4720   28.1520   33.7580 C   0  0  0  0  0  0  0  0  0  0  0  0
   37.0260   27.6730   34.9300 C   0  0  0  0  0  0  0  0  0  0  0  0
   37.6240   26.4310   35.0110 C   0  0  0  0  0  0  0  0  0  0  0  0
   37.6450   25.6910   33.8950 N   0  0  0  0  0  0  0  0  0  0  0  0
   38.2630   25.9090   36.2490 C   0  0  0  0  0  0  0  0  0  0  0  0
   37.7750   24.5220   36.5100 C   0  0  0  0  0  0  0  0  0  0  0  0
   37.8590   23.9940   37.8940 C   0  0  0  0  0  0  0  0  0  0  0  0
   38.8010   23.5000   36.8340 C   0  0  0  0  0  0  0  0  0  0  0  0
   36.1330   24.3910   31.2980 C   0  0  0  0  0  0  0  0  0  0  0  0
   35.1970   24.9480   30.6830 O   0  0  0  0  0  0  0  0  0  0  0  0
   37.3240   20.9180   31.4820 C   0  0  0  0  0  0  0  0  0  0  0  0
   37.2670   22.2850   31.1900 C   0  0  0  0  0  0  0  0  0  0  0  0
   36.1210   22.9930   31.6330 C   0  0  0  0  0  0  0  0  0  0  0  0
   35.1760   22.3120   32.2990 N   0  0  0  0  0  0  0  0  0  0  0  0
   35.2510   21.0000   32.5710 C   0  0  0  0  0  0  0  0  0  0  0  0
   36.3410   20.3050   32.1530 N   0  0  0  0  0  0  0  0  0  0  0  0
   38.4530   22.7960   30.4360 C   0  0  0  0  0  0  0  0  0  0  0  0
   38.0970   23.8010   29.5270 F   0  0  0  0  0  0  0  0  0  0  0  0
   39.2120   23.4030   31.4160 F   0  0  0  0  0  0  0  0  0  0  0  0
   39.1920   21.8090   29.8580 F   0  0  0  0  0  0  0  0  0  0  0  0
   36.1055   27.6932   31.7136 H   0  0  0  0  0  0  0  0  0  0  0  0
   36.0005   29.1447   33.7111 H   0  0  0  0  0  0  0  0  0  0  0  0
   36.9893   28.3037   35.8305 H   0  0  0  0  0  0  0  0  0  0  0  0
   39.3555   25.8960   36.1211 H   0  0  0  0  0  0  0  0  0  0  0  0
   38.0028   26.5569   37.0990 H   0  0  0  0  0  0  0  0  0  0  0  0
   36.9634   24.6094   35.7727 H   0  0  0  0  0  0  0  0  0  0  0  0
   38.2312   24.6350   38.7067 H   0  0  0  0  0  0  0  0  0  0  0  0
   37.1533   23.5207   38.5926 H   0  0  0  0  0  0  0  0  0  0  0  0
   38.7025   22.4767   36.4426 H   0  0  0  0  0  0  0  0  0  0  0  0
   39.8941   23.4321   36.7318 H   0  0  0  0  0  0  0  0  0  0  0  0
   38.1960   20.3338   31.1529 H   0  0  0  0  0  0  0  0  0  0  0  0
   34.4439   20.4960   33.1229 H   0  0  0  0  0  0  0  0  0  0  0  0
  1  2  1  0
  2  7  1  0
  3  2  2  0
  3  4  1  0
  4  5  2  0
  5  6  1  0
  6  8  1  0
  7  6  2  0
  8  9  1  0
  9 11  1  0
  9 10  1  0
 11 10  1  0
 12  1  1  0
 12 16  1  0
 13 12  2  0
 14 19  2  0
 15 14  1  0
 15 16  2  0
 16 17  1  0
 17 18  2  0
 19 18  1  0
 20 15  1  0
 20 22  1  0
 21 20  1  0
 23 20  1  0
  3 24  1  0
  4 25  1  0
  5 26  1  0
  8 27  1  0
  8 28  1  0
  9 29  1  0
 10 30  1  0
 10 31  1  0
 11 32  1  0
 11 33  1  0
 14 34  1  0
 18 35  1  0
M  ISO  8  24  14  25  14  26  14  27   8  28   8  29  13  30  13  31  13
M  ISO  4  32  13  33  13  34  14  35  14
M  END
>  <minimizedAffinity>  (1) 
-4.98241091

>  <minimizedRMSD>  (1) 
3.23417544

$$$$
