
     RDKit          3D

 35 36  0  0  0  0  0  0  0  0999 V2000
   39.1490   25.4440   34.0650 C   0  0  0  0  0  0  0  0  0  0  0  0
   39.3600   26.7840   34.3990 C   0  0  0  0  0  0  0  0  0  0  0  0
   38.9320   27.3000   35.5830 C   0  0  0  0  0  0  0  0  0  0  0  0
   38.2770   26.4420   36.4500 C   0  0  0  0  0  0  0  0  0  0  0  0
   38.0650   25.1250   36.1370 C   0  0  0  0  0  0  0  0  0  0  0  0
   38.5140   24.6800   34.9470 N   0  0  0  0  0  0  0  0  0  0  0  0
   37.4160   24.1490   37.0630 C   0  0  0  0  0  0  0  0  0  0  0  0
   38.4630   23.7020   37.9620 N   0  0  0  0  0  0  0  0  0  0  0  0
   39.3880   22.7150   37.4650 C   0  0  0  0  0  0  0  0  0  0  0  0
   39.0460   21.8550   36.5810 N   0  0  0  0  0  0  0  0  0  0  0  0
   40.7440   22.5950   37.8950 N   0  0  0  0  0  0  0  0  0  0  0  0
   38.0870   21.8310   36.1820 H   0  0  0  0  0  0  0  0  0  0  0  0
   39.6280   25.0770   32.8510 O   0  0  0  0  0  0  0  0  0  0  0  0
   38.8250   25.0950   31.6830 C   0  0  0  0  0  0  0  0  0  0  0  0
   37.6430   25.0110   32.0710 O   0  0  0  0  0  0  0  0  0  0  0  0
   39.8260   26.6800   28.5220 C   0  0  0  0  0  0  0  0  0  0  0  0
   39.4610   26.5090   29.8590 C   0  0  0  0  0  0  0  0  0  0  0  0
   39.1890   25.1860   30.2960 C   0  0  0  0  0  0  0  0  0  0  0  0
   39.2990   24.2020   29.4060 N   0  0  0  0  0  0  0  0  0  0  0  0
   39.6490   24.3780   28.1190 C   0  0  0  0  0  0  0  0  0  0  0  0
   39.9130   25.6280   27.6830 N   0  0  0  0  0  0  0  0  0  0  0  0
   39.4110   27.7830   30.6370 C   0  0  0  0  0  0  0  0  0  0  0  0
   38.2630   27.8390   31.4560 F   0  0  0  0  0  0  0  0  0  0  0  0
   40.4880   27.6990   31.4780 F   0  0  0  0  0  0  0  0  0  0  0  0
   39.5360   28.8970   29.8590 F   0  0  0  0  0  0  0  0  0  0  0  0
   39.8851   27.4380   33.6873 H   0  0  0  0  0  0  0  0  0  0  0  0
   39.0996   28.3561   35.8409 H   0  0  0  0  0  0  0  0  0  0  0  0
   37.9174   26.8277   37.4154 H   0  0  0  0  0  0  0  0  0  0  0  0
   36.6078   24.6362   37.6282 H   0  0  0  0  0  0  0  0  0  0  0  0
   36.9662   23.3080   36.5149 H   0  0  0  0  0  0  0  0  0  0  0  0
   38.5422   24.0756   38.9186 H   0  0  0  0  0  0  0  0  0  0  0  0
   41.3484   21.8634   37.4946 H   0  0  0  0  0  0  0  0  0  0  0  0
   41.1179   23.2400   38.6057 H   0  0  0  0  0  0  0  0  0  0  0  0
   40.0463   27.6903   28.1468 H   0  0  0  0  0  0  0  0  0  0  0  0
   39.7187   23.5195   27.4348 H   0  0  0  0  0  0  0  0  0  0  0  0
  1  2  2  0
  1  6  1  0
  2  3  1  0
  3  4  2  0
  5  4  1  0
  5  7  1  0
  6  5  2  0
  7  8  1  0
  9 11  1  0
  9  8  1  0
 10  9  2  0
 12 10  1  0
 13  1  1  0
 14 15  2  0
 14 13  1  0
 16 17  2  0
 17 18  1  0
 17 22  1  0
 18 14  1  0
 19 18  2  0
 20 19  1  0
 21 20  2  0
 21 16  1  0
 22 23  1  0
 22 24  1  0
 25 22  1  0
  2 26  1  0
  3 27  1  0
  4 28  1  0
  7 29  1  0
  7 30  1  0
  8 31  1  0
 11 32  1  0
 11 33  1  0
 16 34  1  0
 20 35  1  0
M  ISO  7  26  14  27  14  28  14  29   8  30   8  34  14  35  14
M  END
>  <minimizedAffinity>  (1) 
-4.83110428

>  <minimizedRMSD>  (1) 
3.79938984

$$$$
