
     RDKit          3D

 38 40  0  0  0  0  0  0  0  0999 V2000
   37.9160   21.9530   32.6660 C   0  0  0  0  0  0  0  0  0  0  0  0
   38.2190   22.4460   31.4080 C   0  0  0  0  0  0  0  0  0  0  0  0
   38.4290   23.7760   31.1920 C   0  0  0  0  0  0  0  0  0  0  0  0
   38.3300   24.6270   32.2890 C   0  0  0  0  0  0  0  0  0  0  0  0
   38.0310   24.1560   33.5480 C   0  0  0  0  0  0  0  0  0  0  0  0
   37.8370   22.8320   33.6770 N   0  0  0  0  0  0  0  0  0  0  0  0
   37.9360   25.0280   34.7490 C   0  0  0  0  0  0  0  0  0  0  0  0
   38.5130   24.3110   35.9130 C   0  0  0  0  0  0  0  0  0  0  0  0
   37.6620   24.3030   37.0150 C   0  0  0  0  0  0  0  0  0  0  0  0
   38.0180   23.6850   38.1980 C   0  0  0  0  0  0  0  0  0  0  0  0
   39.2600   23.0720   38.2400 C   0  0  0  0  0  0  0  0  0  0  0  0
   40.1250   23.0670   37.1480 C   0  0  0  0  0  0  0  0  0  0  0  0
   39.7410   23.6970   35.9720 C   0  0  0  0  0  0  0  0  0  0  0  0
   37.7310   20.6080   32.7160 O   0  0  0  0  0  0  0  0  0  0  0  0
   36.5410   19.9910   32.2600 C   0  0  0  0  0  0  0  0  0  0  0  0
   35.7090   20.9030   32.1090 O   0  0  0  0  0  0  0  0  0  0  0  0
   36.6030   16.7820   30.4710 C   0  0  0  0  0  0  0  0  0  0  0  0
   36.8410   18.1220   30.7910 C   0  0  0  0  0  0  0  0  0  0  0  0
   36.2520   18.6090   31.9920 C   0  0  0  0  0  0  0  0  0  0  0  0
   35.5230   17.7630   32.7160 N   0  0  0  0  0  0  0  0  0  0  0  0
   35.3080   16.4820   32.3900 C   0  0  0  0  0  0  0  0  0  0  0  0
   35.8570   15.9970   31.2560 N   0  0  0  0  0  0  0  0  0  0  0  0
   37.6890   18.8470   29.7960 C   0  0  0  0  0  0  0  0  0  0  0  0
   37.1440   20.1100   29.4860 F   0  0  0  0  0  0  0  0  0  0  0  0
   38.8560   19.0840   30.4780 F   0  0  0  0  0  0  0  0  0  0  0  0
   37.9320   18.1250   28.6690 F   0  0  0  0  0  0  0  0  0  0  0  0
   38.2921   21.7472   30.5616 H   0  0  0  0  0  0  0  0  0  0  0  0
   38.6674   24.1614   30.1897 H   0  0  0  0  0  0  0  0  0  0  0  0
   38.4951   25.7051   32.1464 H   0  0  0  0  0  0  0  0  0  0  0  0
   38.4960   25.9586   34.5744 H   0  0  0  0  0  0  0  0  0  0  0  0
   36.8823   25.2729   34.9482 H   0  0  0  0  0  0  0  0  0  0  0  0
   36.6836   24.8003   36.9419 H   0  0  0  0  0  0  0  0  0  0  0  0
   37.3452   23.6797   39.0683 H   0  0  0  0  0  0  0  0  0  0  0  0
   39.5739   22.5718   39.1681 H   0  0  0  0  0  0  0  0  0  0  0  0
   41.1031   22.5685   37.2169 H   0  0  0  0  0  0  0  0  0  0  0  0
   40.4106   23.7046   35.0993 H   0  0  0  0  0  0  0  0  0  0  0  0
   37.0395   16.3635   29.5521 H   0  0  0  0  0  0  0  0  0  0  0  0
   34.6945   15.8360   33.0352 H   0  0  0  0  0  0  0  0  0  0  0  0
  1 14  1  0
  1  6  1  0
  2  1  2  0
  3  2  1  0
  3  4  2  0
  4  5  1  0
  5  6  2  0
  5  7  1  0
  7  8  1  0
  8 13  1  0
  8  9  2  0
  9 10  1  0
 10 11  2  0
 12 11  1  0
 13 12  2  0
 15 14  1  0
 16 15  2  0
 17 18  2  0
 17 22  1  0
 18 19  1  0
 19 15  1  0
 19 20  2  0
 21 20  1  0
 22 21  2  0
 23 25  1  0
 23 18  1  0
 24 23  1  0
 26 23  1  0
  2 27  1  0
  3 28  1  0
  4 29  1  0
  7 30  1  0
  7 31  1  0
  9 32  1  0
 10 33  1  0
 11 34  1  0
 12 35  1  0
 13 36  1  0
 17 37  1  0
 21 38  1  0
M  ISO  8  27  14  28  14  29  14  30   8  31   8  32  14  33  14  34  14
M  ISO  4  35  14  36  14  37  14  38  14
M  END
>  <minimizedAffinity>  (1) 
-4.60474491

>  <minimizedRMSD>  (1) 
3.96762848

$$$$
