
     RDKit          3D

 38 40  0  0  0  0  0  0  0  0999 V2000
   38.6860   22.5990   34.3130 C   0  0  0  0  0  0  0  0  0  0  0  0
   38.9860   23.2440   35.5060 C   0  0  0  0  0  0  0  0  0  0  0  0
   38.2010   23.1020   36.6100 C   0  0  0  0  0  0  0  0  0  0  0  0
   37.0810   22.2820   36.5020 C   0  0  0  0  0  0  0  0  0  0  0  0
   36.7790   21.6370   35.3230 C   0  0  0  0  0  0  0  0  0  0  0  0
   37.5980   21.8260   34.2780 N   0  0  0  0  0  0  0  0  0  0  0  0
   35.6110   20.7160   35.1710 C   0  0  0  0  0  0  0  0  0  0  0  0
   35.5830   20.3800   33.7140 C   0  0  0  0  0  0  0  0  0  0  0  0
   35.3250   21.4400   32.8480 C   0  0  0  0  0  0  0  0  0  0  0  0
   35.2840   21.2060   31.5040 C   0  0  0  0  0  0  0  0  0  0  0  0
   35.4930   19.9530   31.0110 C   0  0  0  0  0  0  0  0  0  0  0  0
   35.7530   18.8740   31.8400 C   0  0  0  0  0  0  0  0  0  0  0  0
   35.7910   19.1200   33.1890 C   0  0  0  0  0  0  0  0  0  0  0  0
   39.5600   22.8410   33.3010 O   0  0  0  0  0  0  0  0  0  0  0  0
   39.1880   23.5680   32.1410 C   0  0  0  0  0  0  0  0  0  0  0  0
   38.5400   22.7830   31.4260 O   0  0  0  0  0  0  0  0  0  0  0  0
   38.5690   27.1650   31.7110 C   0  0  0  0  0  0  0  0  0  0  0  0
   38.3800   25.8240   32.0500 C   0  0  0  0  0  0  0  0  0  0  0  0
   39.4510   24.9280   31.7660 C   0  0  0  0  0  0  0  0  0  0  0  0
   40.5550   25.4290   31.1990 N   0  0  0  0  0  0  0  0  0  0  0  0
   40.7170   26.7230   30.8810 C   0  0  0  0  0  0  0  0  0  0  0  0
   39.7110   27.5930   31.1430 N   0  0  0  0  0  0  0  0  0  0  0  0
   37.0580   25.5280   32.6710 C   0  0  0  0  0  0  0  0  0  0  0  0
   36.5750   24.2750   32.3070 F   0  0  0  0  0  0  0  0  0  0  0  0
   37.3460   25.4500   34.0150 F   0  0  0  0  0  0  0  0  0  0  0  0
   36.1390   26.5130   32.4690 F   0  0  0  0  0  0  0  0  0  0  0  0
   39.8786   23.8846   35.5605 H   0  0  0  0  0  0  0  0  0  0  0  0
   38.4429   23.6161   37.5519 H   0  0  0  0  0  0  0  0  0  0  0  0
   36.4250   22.1467   37.3746 H   0  0  0  0  0  0  0  0  0  0  0  0
   35.7509   19.8082   35.7763 H   0  0  0  0  0  0  0  0  0  0  0  0
   34.6709   21.1746   35.5116 H   0  0  0  0  0  0  0  0  0  0  0  0
   35.1564   22.4530   33.2423 H   0  0  0  0  0  0  0  0  0  0  0  0
   35.0803   22.0367   30.8123 H   0  0  0  0  0  0  0  0  0  0  0  0
   35.4541   19.7937   29.9233 H   0  0  0  0  0  0  0  0  0  0  0  0
   35.9214   17.8653   31.4348 H   0  0  0  0  0  0  0  0  0  0  0  0
   35.9941   18.2851   33.8758 H   0  0  0  0  0  0  0  0  0  0  0  0
   37.7655   27.8885   31.9130 H   0  0  0  0  0  0  0  0  0  0  0  0
   41.6507   27.0717   30.4155 H   0  0  0  0  0  0  0  0  0  0  0  0
  1  2  2  0
  2  3  1  0
  4  3  2  0
  5  4  1  0
  6  1  1  0
  6  5  2  0
  7  5  1  0
  8  7  1  0
  9  8  2  0
 10  9  1  0
 11 10  2  0
 11 12  1  0
 12 13  2  0
 13  8  1  0
 14  1  1  0
 15 14  1  0
 16 15  2  0
 17 18  2  0
 18 23  1  0
 19 18  1  0
 19 15  1  0
 20 19  2  0
 21 22  2  0
 21 20  1  0
 22 17  1  0
 23 25  1  0
 24 23  1  0
 26 23  1  0
  2 27  1  0
  3 28  1  0
  4 29  1  0
  7 30  1  0
  7 31  1  0
  9 32  1  0
 10 33  1  0
 11 34  1  0
 12 35  1  0
 13 36  1  0
 17 37  1  0
 21 38  1  0
M  ISO  8  27  14  28  14  29  14  30   8  31   8  32  14  33  14  34  14
M  ISO  4  35  14  36  14  37  14  38  14
M  END
>  <minimizedAffinity>  (1) 
-4.68440247

>  <minimizedRMSD>  (1) 
6.16194773

$$$$
