
     RDKit          3D

 34 36  0  0  0  0  0  0  0  0999 V2000
   38.0630   22.4640   33.1920 C   0  0  0  0  0  0  0  0  0  0  0  0
   38.4110   23.1430   32.0320 C   0  0  0  0  0  0  0  0  0  0  0  0
   38.6020   24.4890   32.0290 C   0  0  0  0  0  0  0  0  0  0  0  0
   38.4380   25.1630   33.2360 C   0  0  0  0  0  0  0  0  0  0  0  0
   38.0970   24.5010   34.3950 C   0  0  0  0  0  0  0  0  0  0  0  0
   37.9240   23.1720   34.3170 N   0  0  0  0  0  0  0  0  0  0  0  0
   37.9420   25.1910   35.7050 C   0  0  0  0  0  0  0  0  0  0  0  0
   38.5360   24.2980   36.6870 N   0  0  0  0  0  0  0  0  0  0  0  0
   37.8960   24.1230   37.8660 C   0  0  0  0  0  0  0  0  0  0  0  0
   38.6250   23.2570   38.6160 N   0  0  0  0  0  0  0  0  0  0  0  0
   39.7200   22.9010   37.8840 C   0  0  0  0  0  0  0  0  0  0  0  0
   39.6180   23.5720   36.6990 N   0  0  0  0  0  0  0  0  0  0  0  0
   37.8990   21.1200   33.0460 O   0  0  0  0  0  0  0  0  0  0  0  0
   36.6910   20.5590   32.5590 C   0  0  0  0  0  0  0  0  0  0  0  0
   35.8760   21.5030   32.4560 O   0  0  0  0  0  0  0  0  0  0  0  0
   36.7090   17.4230   30.6430 C   0  0  0  0  0  0  0  0  0  0  0  0
   36.9840   18.7350   31.0380 C   0  0  0  0  0  0  0  0  0  0  0  0
   36.3560   19.2050   32.2230 C   0  0  0  0  0  0  0  0  0  0  0  0
   35.5480   18.3670   32.8770 N   0  0  0  0  0  0  0  0  0  0  0  0
   35.2900   17.1090   32.4890 C   0  0  0  0  0  0  0  0  0  0  0  0
   35.8770   16.6400   31.3650 N   0  0  0  0  0  0  0  0  0  0  0  0
   37.9170   19.4540   30.1290 C   0  0  0  0  0  0  0  0  0  0  0  0
   37.5200   20.7910   29.9220 F   0  0  0  0  0  0  0  0  0  0  0  0
   39.0960   19.4990   30.8310 F   0  0  0  0  0  0  0  0  0  0  0  0
   38.1340   18.8050   28.9460 F   0  0  0  0  0  0  0  0  0  0  0  0
   38.5348   22.5798   31.0953 H   0  0  0  0  0  0  0  0  0  0  0  0
   38.8756   25.0250   31.1082 H   0  0  0  0  0  0  0  0  0  0  0  0
   38.5845   26.2528   33.2650 H   0  0  0  0  0  0  0  0  0  0  0  0
   38.4685   26.1568   35.6955 H   0  0  0  0  0  0  0  0  0  0  0  0
   36.8869   25.4035   35.9321 H   0  0  0  0  0  0  0  0  0  0  0  0
   36.9504   24.5990   38.1648 H   0  0  0  0  0  0  0  0  0  0  0  0
   40.5227   22.2127   38.1871 H   0  0  0  0  0  0  0  0  0  0  0  0
   37.1763   17.0219   29.7316 H   0  0  0  0  0  0  0  0  0  0  0  0
   34.6128   16.4703   33.0750 H   0  0  0  0  0  0  0  0  0  0  0  0
  1  6  1  0
  2  1  2  0
  3  2  1  0
  3  4  2  0
  4  5  1  0
  5  7  1  0
  6  5  2  0
  7  8  1  0
  8 12  1  0
  8  9  1  0
  9 10  2  0
 11 10  1  0
 12 11  2  0
 13  1  1  0
 14 13  1  0
 15 14  2  0
 16 17  2  0
 16 21  1  0
 17 18  1  0
 18 14  1  0
 18 19  2  0
 20 19  1  0
 21 20  2  0
 22 24  1  0
 22 17  1  0
 23 22  1  0
 25 22  1  0
  2 26  1  0
  3 27  1  0
  4 28  1  0
  7 29  1  0
  7 30  1  0
  9 31  1  0
 11 32  1  0
 16 33  1  0
 20 34  1  0
M  ISO  8  26  14  27  14  28  14  29   8  30   8  31  14  32  14  33  14
M  ISO  1  34  14
M  END
>  <minimizedAffinity>  (1) 
-4.21947384

>  <minimizedRMSD>  (1) 
3.31981683

$$$$
