
     RDKit          3D

 35 37  0  0  0  0  0  0  0  0999 V2000
   38.1830   21.4930   32.7540 C   0  0  0  0  0  0  0  0  0  0  0  0
   38.0900   22.3530   31.6640 C   0  0  0  0  0  0  0  0  0  0  0  0
   37.9850   23.7000   31.8280 C   0  0  0  0  0  0  0  0  0  0  0  0
   37.9760   24.1840   33.1320 C   0  0  0  0  0  0  0  0  0  0  0  0
   38.0700   23.3450   34.2150 C   0  0  0  0  0  0  0  0  0  0  0  0
   38.1700   22.0300   33.9780 N   0  0  0  0  0  0  0  0  0  0  0  0
   38.1060   23.8350   35.6260 C   0  0  0  0  0  0  0  0  0  0  0  0
   39.4070   23.4370   36.1290 N   0  0  0  0  0  0  0  0  0  0  0  0
   40.6560   23.6380   35.6720 C   0  0  0  0  0  0  0  0  0  0  0  0
   41.5760   23.0530   36.5150 C   0  0  0  0  0  0  0  0  0  0  0  0
   40.8270   22.4920   37.4970 N   0  0  0  0  0  0  0  0  0  0  0  0
   39.5240   22.7350   37.2470 C   0  0  0  0  0  0  0  0  0  0  0  0
   38.2780   20.1730   32.4360 O   0  0  0  0  0  0  0  0  0  0  0  0
   37.1300   19.3470   32.3130 C   0  0  0  0  0  0  0  0  0  0  0  0
   36.1970   19.9500   32.8750 O   0  0  0  0  0  0  0  0  0  0  0  0
   36.6260   16.9080   29.6070 C   0  0  0  0  0  0  0  0  0  0  0  0
   36.7930   18.1230   30.2770 C   0  0  0  0  0  0  0  0  0  0  0  0
   36.9650   18.0650   31.6900 C   0  0  0  0  0  0  0  0  0  0  0  0
   36.9560   16.8600   32.2770 N   0  0  0  0  0  0  0  0  0  0  0  0
   36.7940   15.7050   31.6150 C   0  0  0  0  0  0  0  0  0  0  0  0
   36.6280   15.7350   30.2730 N   0  0  0  0  0  0  0  0  0  0  0  0
   36.7650   19.3230   29.3910 C   0  0  0  0  0  0  0  0  0  0  0  0
   36.0510   20.3800   29.9580 F   0  0  0  0  0  0  0  0  0  0  0  0
   38.0890   19.7230   29.3560 F   0  0  0  0  0  0  0  0  0  0  0  0
   36.3740   19.0410   28.1180 F   0  0  0  0  0  0  0  0  0  0  0  0
   38.1016   21.9347   30.6467 H   0  0  0  0  0  0  0  0  0  0  0  0
   37.9103   24.3779   30.9650 H   0  0  0  0  0  0  0  0  0  0  0  0
   37.8913   25.2678   33.3002 H   0  0  0  0  0  0  0  0  0  0  0  0
   37.9973   24.9291   35.6581 H   0  0  0  0  0  0  0  0  0  0  0  0
   37.2852   23.4190   36.2287 H   0  0  0  0  0  0  0  0  0  0  0  0
   40.9075   24.1911   34.7550 H   0  0  0  0  0  0  0  0  0  0  0  0
   42.6713   23.0432   36.4142 H   0  0  0  0  0  0  0  0  0  0  0  0
   38.6855   22.4011   37.8758 H   0  0  0  0  0  0  0  0  0  0  0  0
   36.4903   16.9082   28.5154 H   0  0  0  0  0  0  0  0  0  0  0  0
   36.7961   14.7470   32.1556 H   0  0  0  0  0  0  0  0  0  0  0  0
  1  6  2  0
  2  3  2  0
  2  1  1  0
  3  4  1  0
  4  5  2  0
  5  7  1  0
  6  5  1  0
  7  8  1  0
  8 12  1  0
  9  8  1  0
  9 10  2  0
 10 11  1  0
 12 11  2  0
 13  1  1  0
 14 13  1  0
 14 15  2  0
 16 21  2  0
 16 17  1  0
 17 18  2  0
 18 19  1  0
 18 14  1  0
 20 19  2  0
 21 20  1  0
 22 23  1  0
 22 17  1  0
 24 22  1  0
 25 22  1  0
  2 26  1  0
  3 27  1  0
  4 28  1  0
  7 29  1  0
  7 30  1  0
  9 31  1  0
 10 32  1  0
 12 33  1  0
 16 34  1  0
 20 35  1  0
M  ISO  8  26  14  27  14  28  14  29   8  30   8  31  14  32  14  33  14
M  ISO  2  34  14  35  14
M  END
>  <minimizedAffinity>  (1) 
-3.98237753

>  <minimizedRMSD>  (1) 
3.74482465

$$$$
