
     RDKit          3D

 41 43  0  0  0  0  0  0  0  0999 V2000
   38.0200   24.4190   32.6480 C   0  0  0  0  0  0  0  0  0  0  0  0
   39.3660   24.0930   32.7340 C   0  0  0  0  0  0  0  0  0  0  0  0
   40.3350   25.0050   32.4620 C   0  0  0  0  0  0  0  0  0  0  0  0
   39.9230   26.2810   32.0990 C   0  0  0  0  0  0  0  0  0  0  0  0
   38.5930   26.6270   32.0130 C   0  0  0  0  0  0  0  0  0  0  0  0
   37.6940   25.6710   32.2940 N   0  0  0  0  0  0  0  0  0  0  0  0
   38.1150   27.9890   31.6570 C   0  0  0  0  0  0  0  0  0  0  0  0
   36.8130   27.9750   30.9120 C   0  0  0  0  0  0  0  0  0  0  0  0
   37.0720   28.6630   29.5660 C   0  0  0  0  0  0  0  0  0  0  0  0
   37.0150   30.1430   29.8650 C   0  0  0  0  0  0  0  0  0  0  0  0
   36.3320   30.3080   31.2030 C   0  0  0  0  0  0  0  0  0  0  0  0
   35.7980   28.9260   31.5010 C   0  0  0  0  0  0  0  0  0  0  0  0
   37.1570   23.4030   32.9430 O   0  0  0  0  0  0  0  0  0  0  0  0
   36.6120   22.5710   31.9290 C   0  0  0  0  0  0  0  0  0  0  0  0
   36.6910   23.2070   30.8560 O   0  0  0  0  0  0  0  0  0  0  0  0
   36.5520   18.9040   32.1400 C   0  0  0  0  0  0  0  0  0  0  0  0
   37.0270   20.2160   32.0610 C   0  0  0  0  0  0  0  0  0  0  0  0
   36.0540   21.2500   32.0080 C   0  0  0  0  0  0  0  0  0  0  0  0
   34.7600   20.9000   32.0380 N   0  0  0  0  0  0  0  0  0  0  0  0
   34.3310   19.6330   32.1130 C   0  0  0  0  0  0  0  0  0  0  0  0
   35.2390   18.6310   32.1650 N   0  0  0  0  0  0  0  0  0  0  0  0
   38.5180   20.3300   32.0430 C   0  0  0  0  0  0  0  0  0  0  0  0
   38.9610   21.2170   31.0530 F   0  0  0  0  0  0  0  0  0  0  0  0
   38.8010   20.9210   33.2600 F   0  0  0  0  0  0  0  0  0  0  0  0
   39.1520   19.1250   31.9910 F   0  0  0  0  0  0  0  0  0  0  0  0
   39.6546   23.0734   33.0290 H   0  0  0  0  0  0  0  0  0  0  0  0
   41.4017   24.7441   32.5265 H   0  0  0  0  0  0  0  0  0  0  0  0
   40.6853   27.0410   31.8725 H   0  0  0  0  0  0  0  0  0  0  0  0
   37.9832   28.5678   32.5831 H   0  0  0  0  0  0  0  0  0  0  0  0
   38.8688   28.4407   30.9954 H   0  0  0  0  0  0  0  0  0  0  0  0
   36.4632   26.9321   30.9034 H   0  0  0  0  0  0  0  0  0  0  0  0
   36.2978   28.3863   28.8352 H   0  0  0  0  0  0  0  0  0  0  0  0
   38.0375   28.3668   29.1300 H   0  0  0  0  0  0  0  0  0  0  0  0
   38.0331   30.5571   29.9090 H   0  0  0  0  0  0  0  0  0  0  0  0
   36.4620   30.6771   29.0783 H   0  0  0  0  0  0  0  0  0  0  0  0
   37.0493   30.6267   31.9737 H   0  0  0  0  0  0  0  0  0  0  0  0
   35.5455   31.0769   31.1900 H   0  0  0  0  0  0  0  0  0  0  0  0
   34.8149   28.7821   31.0290 H   0  0  0  0  0  0  0  0  0  0  0  0
   35.6583   28.7625   32.5798 H   0  0  0  0  0  0  0  0  0  0  0  0
   37.2730   18.0744   32.1828 H   0  0  0  0  0  0  0  0  0  0  0  0
   33.2540   19.4100   32.1321 H   0  0  0  0  0  0  0  0  0  0  0  0
  1  2  2  0
  1 13  1  0
  3  2  1  0
  4  3  2  0
  5  4  1  0
  5  6  2  0
  6  1  1  0
  7  5  1  0
  8 12  1  0
  8  7  1  0
  9 10  1  0
  9  8  1  0
 10 11  1  0
 11 12  1  0
 14 18  1  0
 14 13  1  0
 15 14  2  0
 16 21  2  0
 17 16  1  0
 18 19  1  0
 18 17  2  0
 19 20  2  0
 20 21  1  0
 22 17  1  0
 22 24  1  0
 23 22  1  0
 25 22  1  0
  2 26  1  0
  3 27  1  0
  4 28  1  0
  7 29  1  0
  7 30  1  0
  8 31  1  0
  9 32  1  0
  9 33  1  0
 10 34  1  0
 10 35  1  0
 11 36  1  0
 11 37  1  0
 12 38  1  0
 12 39  1  0
 16 40  1  0
 20 41  1  0
M  ISO  8  26  14  27  14  28  14  29   8  30   8  31  13  32  13  33  13
M  ISO  8  34  13  35  13  36  13  37  13  38  13  39  13  40  14  41  14
M  END
>  <minimizedAffinity>  (1) 
-4.16696596

>  <minimizedRMSD>  (1) 
6.15753794

$$$$
