
     RDKit          3D

 32 34  0  0  0  0  0  0  0  0999 V2000
   39.9260   25.7550   35.0710 C   0  0  0  0  0  0  0  0  0  0  0  0
   41.1990   25.5420   34.4900 C   0  0  0  0  0  0  0  0  0  0  0  0
   41.1780   24.9030   33.2500 C   0  0  0  0  0  0  0  0  0  0  0  0
   40.0120   24.5330   32.6860 N   0  0  0  0  0  0  0  0  0  0  0  0
   38.8120   24.7530   33.2740 C   0  0  0  0  0  0  0  0  0  0  0  0
   38.8040   25.3740   34.4800 N   0  0  0  0  0  0  0  0  0  0  0  0
   42.3930   25.9550   35.1290 N   0  0  0  0  0  0  0  0  0  0  0  0
   43.3840   25.0840   35.6160 C   0  0  0  0  0  0  0  0  0  0  0  0
   42.9480   23.9760   36.1980 N   0  0  0  0  0  0  0  0  0  0  0  0
   44.7580   25.5110   35.4150 N   0  0  0  0  0  0  0  0  0  0  0  0
   43.6130   23.2890   36.5560 H   0  0  0  0  0  0  0  0  0  0  0  0
   37.5720   24.3380   32.6270 C   0  0  0  0  0  0  0  0  0  0  0  0
   36.8040   25.2730   31.9860 C   0  0  0  0  0  0  0  0  0  0  0  0
   35.6660   24.7600   31.4160 C   0  0  0  0  0  0  0  0  0  0  0  0
   35.3180   23.4640   31.4710 N   0  0  0  0  0  0  0  0  0  0  0  0
   36.0910   22.5860   32.1040 C   0  0  0  0  0  0  0  0  0  0  0  0
   37.2490   23.0430   32.6970 N   0  0  0  0  0  0  0  0  0  0  0  0
   35.8150   21.1520   32.2290 C   0  0  0  0  0  0  0  0  0  0  0  0
   35.6180   20.3100   33.3270 C   0  0  0  0  0  0  0  0  0  0  0  0
   35.3990   19.0570   32.7860 C   0  0  0  0  0  0  0  0  0  0  0  0
   35.4610   19.1400   31.4420 N   0  0  0  0  0  0  0  0  0  0  0  0
   35.7130   20.4070   31.0880 N   0  0  0  0  0  0  0  0  0  0  0  0
   39.8666   26.2552   36.0489 H   0  0  0  0  0  0  0  0  0  0  0  0
   42.1240   24.6991   32.7271 H   0  0  0  0  0  0  0  0  0  0  0  0
   42.5470   26.9667   35.2457 H   0  0  0  0  0  0  0  0  0  0  0  0
   45.5344   24.9212   35.7469 H   0  0  0  0  0  0  0  0  0  0  0  0
   44.9557   26.4036   34.9406 H   0  0  0  0  0  0  0  0  0  0  0  0
   37.0745   26.3379   31.9328 H   0  0  0  0  0  0  0  0  0  0  0  0
   34.9985   25.4521   30.8818 H   0  0  0  0  0  0  0  0  0  0  0  0
   35.6338   20.5851   34.3919 H   0  0  0  0  0  0  0  0  0  0  0  0
   35.2052   18.1391   33.3603 H   0  0  0  0  0  0  0  0  0  0  0  0
   35.3345   18.3529   30.7898 H   0  0  0  0  0  0  0  0  0  0  0  0
  2  1  2  0
  2  7  1  0
  3  2  1  0
  4  3  2  0
  4  5  1  0
  5  6  2  0
  6  1  1  0
  7  8  1  0
  8  9  2  0
  9 11  1  0
 10  8  1  0
 12 17  1  0
 12  5  1  0
 13 12  2  0
 14 15  2  0
 14 13  1  0
 15 16  1  0
 16 18  1  0
 16 17  2  0
 18 19  1  0
 20 19  2  0
 21 20  1  0
 22 21  1  0
 22 18  2  0
  1 23  1  0
  3 24  1  0
  7 25  1  0
 10 26  1  0
 10 27  1  0
 13 28  1  0
 14 29  1  0
 19 30  1  0
 20 31  1  0
 21 32  1  0
M  ISO  7  23  14  24  14  28  14  29  14  30  14  31  14  32   9
M  END
>  <minimizedAffinity>  (1) 
-4.71452761

>  <minimizedRMSD>  (1) 
3.32776618

$$$$
