
     RDKit          3D

 45 48  0  0  0  0  0  0  0  0999 V2000
   36.3250   26.2350   31.9520 C   0  0  0  0  0  0  0  0  0  0  0  0
   35.3130   26.7480   31.3990 O   0  0  0  0  0  0  0  0  0  0  0  0
   38.6030   23.9170   30.2350 C   0  0  0  0  0  0  0  0  0  0  0  0
   38.0060   25.0990   30.6840 C   0  0  0  0  0  0  0  0  0  0  0  0
   36.8690   24.9730   31.5430 C   0  0  0  0  0  0  0  0  0  0  0  0
   36.4600   23.7430   31.8520 N   0  0  0  0  0  0  0  0  0  0  0  0
   37.0400   22.6200   31.4170 C   0  0  0  0  0  0  0  0  0  0  0  0
   38.1190   22.7060   30.6030 N   0  0  0  0  0  0  0  0  0  0  0  0
   36.5400   21.3430   31.7960 N   0  0  0  0  0  0  0  0  0  0  0  0
   35.7780   21.2410   32.8960 C   0  0  0  0  0  0  0  0  0  0  0  0
   35.2700   20.0000   33.2970 C   0  0  0  0  0  0  0  0  0  0  0  0
   35.6120   18.9240   32.4860 C   0  0  0  0  0  0  0  0  0  0  0  0
   35.1800   17.7940   32.8060 O   0  0  0  0  0  0  0  0  0  0  0  0
   36.3730   19.0240   31.3900 N   0  0  0  0  0  0  0  0  0  0  0  0
   36.8380   20.2600   31.0500 C   0  0  0  0  0  0  0  0  0  0  0  0
   37.5460   20.3210   30.0200 O   0  0  0  0  0  0  0  0  0  0  0  0
   38.6660   26.3480   30.1820 C   0  0  0  0  0  0  0  0  0  0  0  0
   37.7150   27.3530   29.9630 F   0  0  0  0  0  0  0  0  0  0  0  0
   39.4570   26.7410   31.2260 F   0  0  0  0  0  0  0  0  0  0  0  0
   39.4500   26.1400   29.0900 F   0  0  0  0  0  0  0  0  0  0  0  0
   36.7450   27.1400   32.9790 O   0  0  0  0  0  0  0  0  0  0  0  0
   37.5140   26.7160   34.0230 C   0  0  0  0  0  0  0  0  0  0  0  0
   38.7270   27.3630   34.1300 C   0  0  0  0  0  0  0  0  0  0  0  0
   39.6050   27.0650   35.1200 C   0  0  0  0  0  0  0  0  0  0  0  0
   39.2300   26.0670   36.0280 C   0  0  0  0  0  0  0  0  0  0  0  0
   38.0140   25.4110   35.9220 C   0  0  0  0  0  0  0  0  0  0  0  0
   37.1950   25.7690   34.9110 N   0  0  0  0  0  0  0  0  0  0  0  0
   37.5910   24.3230   36.8470 C   0  0  0  0  0  0  0  0  0  0  0  0
   38.7250   23.3540   36.9700 C   0  0  0  0  0  0  0  0  0  0  0  0
   39.4220   22.5560   36.0720 C   0  0  0  0  0  0  0  0  0  0  0  0
   40.3730   21.8590   36.7720 C   0  0  0  0  0  0  0  0  0  0  0  0
   40.2590   22.2240   38.0580 N   0  0  0  0  0  0  0  0  0  0  0  0
   39.2910   23.0980   38.1640 N   0  0  0  0  0  0  0  0  0  0  0  0
   39.4795   23.9710   29.5725 H   0  0  0  0  0  0  0  0  0  0  0  0
   35.5508   22.1402   33.4874 H   0  0  0  0  0  0  0  0  0  0  0  0
   34.6427   19.8840   34.1931 H   0  0  0  0  0  0  0  0  0  0  0  0
   36.6000   18.1952   30.8222 H   0  0  0  0  0  0  0  0  0  0  0  0
   38.9887   28.1388   33.3954 H   0  0  0  0  0  0  0  0  0  0  0  0
   40.5705   27.5851   35.2060 H   0  0  0  0  0  0  0  0  0  0  0  0
   39.9165   25.7976   36.8442 H   0  0  0  0  0  0  0  0  0  0  0  0
   37.3513   24.7445   37.8344 H   0  0  0  0  0  0  0  0  0  0  0  0
   36.6958   23.8163   36.4572 H   0  0  0  0  0  0  0  0  0  0  0  0
   39.2425   22.4940   34.9885 H   0  0  0  0  0  0  0  0  0  0  0  0
   41.0927   21.1376   36.3578 H   0  0  0  0  0  0  0  0  0  0  0  0
   40.8383   21.8738   38.8343 H   0  0  0  0  0  0  0  0  0  0  0  0
  1 21  1  0
  2  1  2  0
  3  8  2  0
  3  4  1  0
  4  5  2  0
  5  6  1  0
  5  1  1  0
  7  9  1  0
  7  6  2  0
  8  7  1  0
  9 10  1  0
 10 11  2  0
 12 13  2  0
 12 11  1  0
 14 12  1  0
 15 14  1  0
 15  9  1  0
 16 15  2  0
 17  4  1  0
 17 19  1  0
 18 17  1  0
 20 17  1  0
 21 22  1  0
 22 23  2  0
 22 27  1  0
 23 24  1  0
 24 25  2  0
 26 25  1  0
 26 28  1  0
 27 26  2  0
 28 29  1  0
 29 33  2  0
 30 31  2  0
 30 29  1  0
 31 32  1  0
 32 33  1  0
  3 34  1  0
 10 35  1  0
 11 36  1  0
 14 37  1  0
 23 38  1  0
 24 39  1  0
 25 40  1  0
 28 41  1  0
 28 42  1  0
 30 43  1  0
 31 44  1  0
 32 45  1  0
M  ISO  8  34  14  35  14  36  14  37   9  38  14  39  14  40  14  41   8
M  ISO  4  42   8  43  14  44  14  45   9
M  END
>  <minimizedAffinity>  (1) 
-6.75142765

>  <minimizedRMSD>  (1) 
4.08135271

$$$$
