
     RDKit          3D

 42 45  0  0  0  0  0  0  0  0999 V2000
   37.6350   26.4140   32.6920 O   0  0  0  0  0  0  0  0  0  0  0  0
   37.8380   26.2460   34.0260 C   0  0  0  0  0  0  0  0  0  0  0  0
   38.3840   27.3430   34.6600 C   0  0  0  0  0  0  0  0  0  0  0  0
   38.6420   27.3420   35.9930 C   0  0  0  0  0  0  0  0  0  0  0  0
   38.3340   26.1740   36.7010 C   0  0  0  0  0  0  0  0  0  0  0  0
   37.7890   25.0670   36.0710 C   0  0  0  0  0  0  0  0  0  0  0  0
   37.5620   25.1500   34.7460 N   0  0  0  0  0  0  0  0  0  0  0  0
   37.4800   23.7970   36.7820 C   0  0  0  0  0  0  0  0  0  0  0  0
   38.7530   23.0240   36.9200 C   0  0  0  0  0  0  0  0  0  0  0  0
   39.5490   22.2940   36.0460 C   0  0  0  0  0  0  0  0  0  0  0  0
   40.6100   21.7990   36.7560 C   0  0  0  0  0  0  0  0  0  0  0  0
   40.4690   22.2130   38.0200 N   0  0  0  0  0  0  0  0  0  0  0  0
   39.3820   22.9270   38.1060 N   0  0  0  0  0  0  0  0  0  0  0  0
   36.9180   25.4420   31.9220 C   0  0  0  0  0  0  0  0  0  0  0  0
   35.7890   25.9320   31.6700 O   0  0  0  0  0  0  0  0  0  0  0  0
   38.8260   22.9380   30.0280 C   0  0  0  0  0  0  0  0  0  0  0  0
   38.3790   24.1670   30.5140 C   0  0  0  0  0  0  0  0  0  0  0  0
   37.3090   24.1390   31.4680 C   0  0  0  0  0  0  0  0  0  0  0  0
   36.8290   22.9510   31.8110 N   0  0  0  0  0  0  0  0  0  0  0  0
   37.2580   21.7850   31.3450 C   0  0  0  0  0  0  0  0  0  0  0  0
   38.2720   21.7770   30.4410 N   0  0  0  0  0  0  0  0  0  0  0  0
   36.6420   20.5920   31.8110 N   0  0  0  0  0  0  0  0  0  0  0  0
   35.7710   20.5040   32.7960 N   0  0  0  0  0  0  0  0  0  0  0  0
   35.3700   19.2430   33.0000 C   0  0  0  0  0  0  0  0  0  0  0  0
   36.0330   18.4700   32.0780 C   0  0  0  0  0  0  0  0  0  0  0  0
   36.8180   19.3400   31.3520 C   0  0  0  0  0  0  0  0  0  0  0  0
   39.0980   25.3560   29.9530 C   0  0  0  0  0  0  0  0  0  0  0  0
   38.2170   26.4460   29.8180 F   0  0  0  0  0  0  0  0  0  0  0  0
   40.0060   25.6730   30.9160 F   0  0  0  0  0  0  0  0  0  0  0  0
   39.7480   25.0860   28.7910 F   0  0  0  0  0  0  0  0  0  0  0  0
   38.6164   28.2419   34.0701 H   0  0  0  0  0  0  0  0  0  0  0  0
   39.0741   28.2204   36.4948 H   0  0  0  0  0  0  0  0  0  0  0  0
   38.5293   26.1344   37.7828 H   0  0  0  0  0  0  0  0  0  0  0  0
   37.0671   24.0173   37.7775 H   0  0  0  0  0  0  0  0  0  0  0  0
   36.7375   23.2136   36.2177 H   0  0  0  0  0  0  0  0  0  0  0  0
   39.3602   22.1408   34.9732 H   0  0  0  0  0  0  0  0  0  0  0  0
   41.4263   21.1767   36.3605 H   0  0  0  0  0  0  0  0  0  0  0  0
   41.1124   22.0026   38.7963 H   0  0  0  0  0  0  0  0  0  0  0  0
   39.6453   22.9138   29.2944 H   0  0  0  0  0  0  0  0  0  0  0  0
   34.6515   18.8947   33.7566 H   0  0  0  0  0  0  0  0  0  0  0  0
   35.9538   17.3808   31.9462 H   0  0  0  0  0  0  0  0  0  0  0  0
   37.4851   19.0545   30.5253 H   0  0  0  0  0  0  0  0  0  0  0  0
  1  2  1  0
  2  3  2  0
  2  7  1  0
  3  4  1  0
  4  5  2  0
  6  5  1  0
  6  8  1  0
  7  6  2  0
  8  9  1  0
  9 13  2  0
 10 11  2  0
 10  9  1  0
 11 12  1  0
 12 13  1  0
 14  1  1  0
 15 14  2  0
 16 21  2  0
 16 17  1  0
 17 18  2  0
 18 19  1  0
 18 14  1  0
 20 22  1  0
 20 19  2  0
 21 20  1  0
 22 23  1  0
 23 24  2  0
 25 24  1  0
 26 22  1  0
 26 25  2  0
 27 17  1  0
 27 29  1  0
 28 27  1  0
 30 27  1  0
  3 31  1  0
  4 32  1  0
  5 33  1  0
  8 34  1  0
  8 35  1  0
 10 36  1  0
 11 37  1  0
 12 38  1  0
 16 39  1  0
 24 40  1  0
 25 41  1  0
 26 42  1  0
M  ISO  8  31  14  32  14  33  14  34   8  35   8  36  14  37  14  38   9
M  ISO  4  39  14  40  14  41  14  42  14
M  END
>  <minimizedAffinity>  (1) 
-5.98907328

>  <minimizedRMSD>  (1) 
3.43188334

$$$$
