
     RDKit          3D

 42 45  0  0  0  0  0  0  0  0999 V2000
   37.5210   26.5320   33.6010 C   0  0  0  0  0  0  0  0  0  0  0  0
   38.7830   27.0740   33.4880 C   0  0  0  0  0  0  0  0  0  0  0  0
   39.7490   26.8370   34.4120 C   0  0  0  0  0  0  0  0  0  0  0  0
   39.4080   26.0090   35.4900 C   0  0  0  0  0  0  0  0  0  0  0  0
   38.1420   25.4570   35.6080 C   0  0  0  0  0  0  0  0  0  0  0  0
   37.2420   25.7450   34.6490 N   0  0  0  0  0  0  0  0  0  0  0  0
   37.7500   24.5500   36.7210 C   0  0  0  0  0  0  0  0  0  0  0  0
   38.8200   23.5120   36.8680 C   0  0  0  0  0  0  0  0  0  0  0  0
   39.5420   22.7280   35.9770 C   0  0  0  0  0  0  0  0  0  0  0  0
   40.3970   21.9410   36.7010 C   0  0  0  0  0  0  0  0  0  0  0  0
   40.2030   22.2360   37.9980 N   0  0  0  0  0  0  0  0  0  0  0  0
   39.2740   23.1610   38.0880 N   0  0  0  0  0  0  0  0  0  0  0  0
   36.6740   26.8770   32.5950 O   0  0  0  0  0  0  0  0  0  0  0  0
   36.2560   25.9240   31.6110 C   0  0  0  0  0  0  0  0  0  0  0  0
   35.6030   26.5590   30.7400 O   0  0  0  0  0  0  0  0  0  0  0  0
   37.9960   22.8110   30.7400 C   0  0  0  0  0  0  0  0  0  0  0  0
   37.6980   24.1710   30.8630 C   0  0  0  0  0  0  0  0  0  0  0  0
   36.4760   24.5120   31.5280 C   0  0  0  0  0  0  0  0  0  0  0  0
   35.7240   23.5120   31.9740 N   0  0  0  0  0  0  0  0  0  0  0  0
   36.0140   22.2200   31.8530 C   0  0  0  0  0  0  0  0  0  0  0  0
   37.1640   21.8640   31.2290 N   0  0  0  0  0  0  0  0  0  0  0  0
   38.7260   25.0820   30.2660 C   0  0  0  0  0  0  0  0  0  0  0  0
   38.2280   26.3920   30.1660 F   0  0  0  0  0  0  0  0  0  0  0  0
   39.7300   25.0880   31.1890 F   0  0  0  0  0  0  0  0  0  0  0  0
   39.2140   24.6370   29.0780 F   0  0  0  0  0  0  0  0  0  0  0  0
   35.1130   21.1610   32.3830 C   0  0  0  0  0  0  0  0  0  0  0  0
   35.5310   20.5930   33.7760 C   0  0  0  0  0  0  0  0  0  0  0  0
   35.5940   19.7700   32.5400 C   0  0  0  0  0  0  0  0  0  0  0  0
   39.0140   27.7163   32.6254 H   0  0  0  0  0  0  0  0  0  0  0  0
   40.7537   27.2750   34.3188 H   0  0  0  0  0  0  0  0  0  0  0  0
   40.1626   25.7921   36.2604 H   0  0  0  0  0  0  0  0  0  0  0  0
   37.6551   25.1237   37.6548 H   0  0  0  0  0  0  0  0  0  0  0  0
   36.7820   24.0744   36.5047 H   0  0  0  0  0  0  0  0  0  0  0  0
   39.4439   22.7378   34.8814 H   0  0  0  0  0  0  0  0  0  0  0  0
   41.1087   21.2058   36.2973 H   0  0  0  0  0  0  0  0  0  0  0  0
   40.7009   21.8073   38.7912 H   0  0  0  0  0  0  0  0  0  0  0  0
   38.9247   22.5054   30.2360 H   0  0  0  0  0  0  0  0  0  0  0  0
   34.2240   21.6001   31.9066 H   0  0  0  0  0  0  0  0  0  0  0  0
   36.4560   20.9377   34.2614 H   0  0  0  0  0  0  0  0  0  0  0  0
   35.0568   20.4979   34.7640 H   0  0  0  0  0  0  0  0  0  0  0  0
   34.8880   18.9366   32.4096 H   0  0  0  0  0  0  0  0  0  0  0  0
   36.3934   19.1871   32.0591 H   0  0  0  0  0  0  0  0  0  0  0  0
  1  6  1  0
  2  1  2  0
  2  3  1  0
  3  4  2  0
  4  5  1  0
  5  7  1  0
  6  5  2  0
  7  8  1  0
  8 12  2  0
  9 10  2  0
  9  8  1  0
 10 11  1  0
 11 12  1  0
 13  1  1  0
 14 13  1  0
 15 14  2  0
 16 17  2  0
 16 21  1  0
 17 18  1  0
 18 14  1  0
 18 19  2  0
 20 19  1  0
 20 26  1  0
 21 20  2  0
 22 17  1  0
 22 24  1  0
 23 22  1  0
 25 22  1  0
 26 28  1  0
 26 27  1  0
 28 27  1  0
  2 29  1  0
  3 30  1  0
  4 31  1  0
  7 32  1  0
  7 33  1  0
  9 34  1  0
 10 35  1  0
 11 36  1  0
 16 37  1  0
 26 38  1  0
 27 39  1  0
 27 40  1  0
 28 41  1  0
 28 42  1  0
M  ISO  8  29  14  30  14  31  14  32   8  33   8  34  14  35  14  36   9
M  ISO  6  37  14  38  13  39  13  40  13  41  13  42  13
M  END
>  <minimizedAffinity>  (1) 
-6.20930338

>  <minimizedRMSD>  (1) 
3.50974488

$$$$
