
     RDKit          3D

 44 47  0  0  0  0  0  0  0  0999 V2000
   36.7700   27.1060   32.9070 O   0  0  0  0  0  0  0  0  0  0  0  0
   37.5300   26.6700   33.9510 C   0  0  0  0  0  0  0  0  0  0  0  0
   38.7470   27.3080   34.0700 C   0  0  0  0  0  0  0  0  0  0  0  0
   39.6170   26.9980   35.0610 C   0  0  0  0  0  0  0  0  0  0  0  0
   39.2320   25.9960   35.9600 C   0  0  0  0  0  0  0  0  0  0  0  0
   38.0120   25.3490   35.8430 C   0  0  0  0  0  0  0  0  0  0  0  0
   37.2030   25.7180   34.8320 N   0  0  0  0  0  0  0  0  0  0  0  0
   37.5800   24.2580   36.7570 C   0  0  0  0  0  0  0  0  0  0  0  0
   38.7260   23.3140   36.9290 C   0  0  0  0  0  0  0  0  0  0  0  0
   39.4520   22.5060   36.0660 C   0  0  0  0  0  0  0  0  0  0  0  0
   40.4030   21.8460   36.7980 C   0  0  0  0  0  0  0  0  0  0  0  0
   40.2620   22.2400   38.0710 N   0  0  0  0  0  0  0  0  0  0  0  0
   39.2830   23.0940   38.1360 N   0  0  0  0  0  0  0  0  0  0  0  0
   36.3110   26.2040   31.8940 C   0  0  0  0  0  0  0  0  0  0  0  0
   35.2930   26.7100   31.3800 O   0  0  0  0  0  0  0  0  0  0  0  0
   38.6100   23.8790   30.2110 C   0  0  0  0  0  0  0  0  0  0  0  0
   38.0170   25.0660   30.6620 C   0  0  0  0  0  0  0  0  0  0  0  0
   36.8430   24.9410   31.4680 C   0  0  0  0  0  0  0  0  0  0  0  0
   36.4090   23.7130   31.7240 N   0  0  0  0  0  0  0  0  0  0  0  0
   36.9710   22.5920   31.2970 C   0  0  0  0  0  0  0  0  0  0  0  0
   38.0890   22.6740   30.5290 N   0  0  0  0  0  0  0  0  0  0  0  0
   36.3960   21.2970   31.6480 C   0  0  0  0  0  0  0  0  0  0  0  0
   35.0470   21.1490   31.9000 C   0  0  0  0  0  0  0  0  0  0  0  0
   34.5220   19.9050   32.2320 C   0  0  0  0  0  0  0  0  0  0  0  0
   35.4330   18.8690   32.2870 C   0  0  0  0  0  0  0  0  0  0  0  0
   36.7810   19.0040   32.0380 C   0  0  0  0  0  0  0  0  0  0  0  0
   37.2340   20.2470   31.7170 N   0  0  0  0  0  0  0  0  0  0  0  0
   38.7220   26.3110   30.2190 C   0  0  0  0  0  0  0  0  0  0  0  0
   37.8220   27.3580   30.0330 F   0  0  0  0  0  0  0  0  0  0  0  0
   39.5120   26.6270   31.2960 F   0  0  0  0  0  0  0  0  0  0  0  0
   39.5180   26.1230   29.1330 F   0  0  0  0  0  0  0  0  0  0  0  0
   39.0177   28.0875   33.3426 H   0  0  0  0  0  0  0  0  0  0  0  0
   40.5850   27.5118   35.1554 H   0  0  0  0  0  0  0  0  0  0  0  0
   39.9130   25.7161   36.7773 H   0  0  0  0  0  0  0  0  0  0  0  0
   37.2950   24.6797   37.7321 H   0  0  0  0  0  0  0  0  0  0  0  0
   36.7117   23.7300   36.3359 H   0  0  0  0  0  0  0  0  0  0  0  0
   39.2916   22.4118   34.9818 H   0  0  0  0  0  0  0  0  0  0  0  0
   41.1426   21.1282   36.4136 H   0  0  0  0  0  0  0  0  0  0  0  0
   40.8337   21.9199   38.8657 H   0  0  0  0  0  0  0  0  0  0  0  0
   39.5149   23.9294   29.5876 H   0  0  0  0  0  0  0  0  0  0  0  0
   34.3816   22.0227   31.8376 H   0  0  0  0  0  0  0  0  0  0  0  0
   33.4516   19.7561   32.4373 H   0  0  0  0  0  0  0  0  0  0  0  0
   35.0570   17.8685   32.5472 H   0  0  0  0  0  0  0  0  0  0  0  0
   37.4632   18.1431   32.0961 H   0  0  0  0  0  0  0  0  0  0  0  0
  1  2  1  0
  2  3  2  0
  2  7  1  0
  3  4  1  0
  4  5  2  0
  6  5  1  0
  6  8  1  0
  7  6  2  0
  8  9  1  0
  9 13  2  0
 10 11  2  0
 10  9  1  0
 11 12  1  0
 12 13  1  0
 14  1  1  0
 15 14  2  0
 16 21  2  0
 16 17  1  0
 17 18  2  0
 18 19  1  0
 18 14  1  0
 20 22  1  0
 20 19  2  0
 21 20  1  0
 22 27  1  0
 22 23  2  0
 23 24  1  0
 24 25  2  0
 26 25  1  0
 27 26  2  0
 28 17  1  0
 28 30  1  0
 29 28  1  0
 31 28  1  0
  3 32  1  0
  4 33  1  0
  5 34  1  0
  8 35  1  0
  8 36  1  0
 10 37  1  0
 11 38  1  0
 12 39  1  0
 16 40  1  0
 23 41  1  0
 24 42  1  0
 25 43  1  0
 26 44  1  0
M  ISO  8  32  14  33  14  34  14  35   8  36   8  37  14  38  14  39   9
M  ISO  5  40  14  41  14  42  14  43  14  44  14
M  END
>  <minimizedAffinity>  (1) 
-6.31143045

>  <minimizedRMSD>  (1) 
4.0134263

$$$$
