
     RDKit          3D

 48 51  0  0  0  0  0  0  0  0999 V2000
   36.7370   25.6160   31.8400 C   0  0  0  0  0  0  0  0  0  0  0  0
   35.5960   26.0360   31.5040 O   0  0  0  0  0  0  0  0  0  0  0  0
   38.9640   23.2710   30.0980 C   0  0  0  0  0  0  0  0  0  0  0  0
   38.4010   24.4620   30.5640 C   0  0  0  0  0  0  0  0  0  0  0  0
   37.2480   24.3470   31.4090 C   0  0  0  0  0  0  0  0  0  0  0  0
   36.7990   23.1260   31.6870 N   0  0  0  0  0  0  0  0  0  0  0  0
   37.3580   21.9950   31.2260 C   0  0  0  0  0  0  0  0  0  0  0  0
   38.4460   22.0720   30.4280 N   0  0  0  0  0  0  0  0  0  0  0  0
   36.7080   20.8000   31.6530 N   0  0  0  0  0  0  0  0  0  0  0  0
   37.4400   19.6850   31.4390 C   0  0  0  0  0  0  0  0  0  0  0  0
   36.9040   18.4610   31.8170 C   0  0  0  0  0  0  0  0  0  0  0  0
   37.6990   17.2070   31.5890 C   0  0  0  0  0  0  0  0  0  0  0  0
   35.6470   18.4320   32.3960 C   0  0  0  0  0  0  0  0  0  0  0  0
   35.1360   17.3340   32.7480 O   0  0  0  0  0  0  0  0  0  0  0  0
   34.9680   19.5800   32.5820 N   0  0  0  0  0  0  0  0  0  0  0  0
   35.4880   20.7850   32.2140 C   0  0  0  0  0  0  0  0  0  0  0  0
   34.8780   21.8760   32.3750 O   0  0  0  0  0  0  0  0  0  0  0  0
   39.1010   25.7030   30.0970 C   0  0  0  0  0  0  0  0  0  0  0  0
   38.1660   26.7250   29.8450 F   0  0  0  0  0  0  0  0  0  0  0  0
   39.8510   26.0770   31.1700 F   0  0  0  0  0  0  0  0  0  0  0  0
   39.9130   25.4890   29.0300 F   0  0  0  0  0  0  0  0  0  0  0  0
   37.3250   26.6240   32.6700 O   0  0  0  0  0  0  0  0  0  0  0  0
   37.6590   26.3700   33.9650 C   0  0  0  0  0  0  0  0  0  0  0  0
   38.3560   27.3900   34.5790 C   0  0  0  0  0  0  0  0  0  0  0  0
   38.7560   27.3000   35.8710 C   0  0  0  0  0  0  0  0  0  0  0  0
   38.4360   26.1210   36.5600 C   0  0  0  0  0  0  0  0  0  0  0  0
   37.7400   25.0920   35.9460 C   0  0  0  0  0  0  0  0  0  0  0  0
   37.3750   25.2620   34.6600 N   0  0  0  0  0  0  0  0  0  0  0  0
   37.4080   23.8140   36.6320 C   0  0  0  0  0  0  0  0  0  0  0  0
   38.6830   23.0640   36.8500 C   0  0  0  0  0  0  0  0  0  0  0  0
   39.5500   22.3600   36.0240 C   0  0  0  0  0  0  0  0  0  0  0  0
   40.5710   21.8750   36.7970 C   0  0  0  0  0  0  0  0  0  0  0  0
   40.3360   22.2700   38.0580 N   0  0  0  0  0  0  0  0  0  0  0  0
   39.2260   22.9670   38.0800 N   0  0  0  0  0  0  0  0  0  0  0  0
   39.8498   23.3134   29.4472 H   0  0  0  0  0  0  0  0  0  0  0  0
   38.4363   19.7452   30.9766 H   0  0  0  0  0  0  0  0  0  0  0  0
   37.9773   16.7680   32.5584 H   0  0  0  0  0  0  0  0  0  0  0  0
   37.0924   16.4865   31.0208 H   0  0  0  0  0  0  0  0  0  0  0  0
   38.6095   17.4483   31.0208 H   0  0  0  0  0  0  0  0  0  0  0  0
   34.0330   19.5467   33.0128 H   0  0  0  0  0  0  0  0  0  0  0  0
   38.5930   28.2986   34.0061 H   0  0  0  0  0  0  0  0  0  0  0  0
   39.3082   28.1170   36.3584 H   0  0  0  0  0  0  0  0  0  0  0  0
   38.7441   26.0108   37.6102 H   0  0  0  0  0  0  0  0  0  0  0  0
   36.9274   24.0230   37.5991 H   0  0  0  0  0  0  0  0  0  0  0  0
   36.7141   23.2196   36.0195 H   0  0  0  0  0  0  0  0  0  0  0  0
   39.4363   22.2172   34.9393 H   0  0  0  0  0  0  0  0  0  0  0  0
   41.4242   21.2740   36.4494 H   0  0  0  0  0  0  0  0  0  0  0  0
   40.9295   22.0602   38.8733 H   0  0  0  0  0  0  0  0  0  0  0  0
  1 22  1  0
  2  1  2  0
  3  8  2  0
  3  4  1  0
  4  5  2  0
  5  6  1  0
  5  1  1  0
  7  9  1  0
  7  6  2  0
  8  7  1  0
  9 16  1  0
 10  9  1  0
 10 11  2  0
 11 13  1  0
 12 11  1  0
 13 15  1  0
 13 14  2  0
 16 17  2  0
 16 15  1  0
 18  4  1  0
 18 20  1  0
 19 18  1  0
 21 18  1  0
 22 23  1  0
 23 24  2  0
 23 28  1  0
 24 25  1  0
 25 26  2  0
 27 26  1  0
 27 29  1  0
 28 27  2  0
 29 30  1  0
 30 34  2  0
 31 32  2  0
 31 30  1  0
 32 33  1  0
 33 34  1  0
  3 35  1  0
 10 36  1  0
 12 37  1  0
 12 38  1  0
 12 39  1  0
 15 40  1  0
 24 41  1  0
 25 42  1  0
 26 43  1  0
 29 44  1  0
 29 45  1  0
 31 46  1  0
 32 47  1  0
 33 48  1  0
M  ISO  8  35  14  36  14  37   8  38   8  39   8  40   9  41  14  42  14
M  ISO  6  43  14  44   8  45   8  46  14  47  14  48   9
M  END
>  <minimizedAffinity>  (1) 
-6.72995615

>  <minimizedRMSD>  (1) 
3.67602992

$$$$
