
     RDKit          3D

 51 54  0  0  0  0  0  0  0  0999 V2000
   37.3840   26.6870   34.1090 C   0  0  0  0  0  0  0  0  0  0  0  0
   38.2260   27.5700   34.7500 C   0  0  0  0  0  0  0  0  0  0  0  0
   38.8040   27.2670   35.9410 C   0  0  0  0  0  0  0  0  0  0  0  0
   38.5100   26.0120   36.4920 C   0  0  0  0  0  0  0  0  0  0  0  0
   37.6660   25.1210   35.8490 C   0  0  0  0  0  0  0  0  0  0  0  0
   37.1330   25.5010   34.6730 N   0  0  0  0  0  0  0  0  0  0  0  0
   37.3540   23.7710   36.3900 C   0  0  0  0  0  0  0  0  0  0  0  0
   38.6480   23.1080   36.7460 C   0  0  0  0  0  0  0  0  0  0  0  0
   39.6630   22.5060   36.0130 C   0  0  0  0  0  0  0  0  0  0  0  0
   40.6150   22.0680   36.8970 C   0  0  0  0  0  0  0  0  0  0  0  0
   40.1960   22.3920   38.1250 N   0  0  0  0  0  0  0  0  0  0  0  0
   39.0450   23.0000   38.0250 N   0  0  0  0  0  0  0  0  0  0  0  0
   36.8860   27.1520   32.9310 O   0  0  0  0  0  0  0  0  0  0  0  0
   36.4170   26.2600   31.9140 C   0  0  0  0  0  0  0  0  0  0  0  0
   35.3230   26.7250   31.4930 O   0  0  0  0  0  0  0  0  0  0  0  0
   38.8490   24.1440   30.1640 C   0  0  0  0  0  0  0  0  0  0  0  0
   38.2220   25.2660   30.7030 C   0  0  0  0  0  0  0  0  0  0  0  0
   36.9890   25.0560   31.3940 C   0  0  0  0  0  0  0  0  0  0  0  0
   36.5260   23.8050   31.4750 N   0  0  0  0  0  0  0  0  0  0  0  0
   37.1480   22.7390   30.9460 C   0  0  0  0  0  0  0  0  0  0  0  0
   38.3130   22.9090   30.2880 N   0  0  0  0  0  0  0  0  0  0  0  0
   36.4420   21.4530   31.1620 C   0  0  0  0  0  0  0  0  0  0  0  0
   37.4330   20.4930   31.7670 C   0  0  0  0  0  0  0  0  0  0  0  0
   36.8340   19.1610   32.1110 C   0  0  0  0  0  0  0  0  0  0  0  0
   35.5020   19.2510   32.7910 C   0  0  0  0  0  0  0  0  0  0  0  0
   34.5880   20.3050   32.2240 C   0  0  0  0  0  0  0  0  0  0  0  0
   35.3170   21.6200   32.1630 C   0  0  0  0  0  0  0  0  0  0  0  0
   38.9570   26.5540   30.4690 C   0  0  0  0  0  0  0  0  0  0  0  0
   38.0490   27.5890   30.1820 F   0  0  0  0  0  0  0  0  0  0  0  0
   39.5340   26.8250   31.6770 F   0  0  0  0  0  0  0  0  0  0  0  0
   39.9300   26.4560   29.5250 F   0  0  0  0  0  0  0  0  0  0  0  0
   38.4351   28.5448   34.2852 H   0  0  0  0  0  0  0  0  0  0  0  0
   39.4735   27.9753   36.4509 H   0  0  0  0  0  0  0  0  0  0  0  0
   38.9589   25.7285   37.4554 H   0  0  0  0  0  0  0  0  0  0  0  0
   36.7228   23.8641   37.2860 H   0  0  0  0  0  0  0  0  0  0  0  0
   36.8107   23.1746   35.6422 H   0  0  0  0  0  0  0  0  0  0  0  0
   39.6968   22.3997   34.9187 H   0  0  0  0  0  0  0  0  0  0  0  0
   41.5499   21.5468   36.6433 H   0  0  0  0  0  0  0  0  0  0  0  0
   40.6975   22.1948   39.0028 H   0  0  0  0  0  0  0  0  0  0  0  0
   39.8007   24.2659   29.6260 H   0  0  0  0  0  0  0  0  0  0  0  0
   36.0332   21.0976   30.2046 H   0  0  0  0  0  0  0  0  0  0  0  0
   38.2491   20.3335   31.0469 H   0  0  0  0  0  0  0  0  0  0  0  0
   37.7906   20.9418   32.7054 H   0  0  0  0  0  0  0  0  0  0  0  0
   36.7099   18.5867   31.1811 H   0  0  0  0  0  0  0  0  0  0  0  0
   37.5215   18.6754   32.8192 H   0  0  0  0  0  0  0  0  0  0  0  0
   35.0018   18.2756   32.6997 H   0  0  0  0  0  0  0  0  0  0  0  0
   35.6995   19.5334   33.8356 H   0  0  0  0  0  0  0  0  0  0  0  0
   34.2743   20.0122   31.2112 H   0  0  0  0  0  0  0  0  0  0  0  0
   33.7014   20.4064   32.8671 H   0  0  0  0  0  0  0  0  0  0  0  0
   35.7255   21.8724   33.1527 H   0  0  0  0  0  0  0  0  0  0  0  0
   34.6393   22.4325   31.8620 H   0  0  0  0  0  0  0  0  0  0  0  0
  1  6  1  0
  1  2  2  0
  2  3  1  0
  3  4  2  0
  5  7  1  0
  5  4  1  0
  6  5  2  0
  7  8  1  0
  8 12  2  0
  9  8  1  0
  9 10  2  0
 10 11  1  0
 12 11  1  0
 13  1  1  0
 14 13  1  0
 15 14  2  0
 16 21  2  0
 16 17  1  0
 17 18  2  0
 18 19  1  0
 18 14  1  0
 20 22  1  0
 20 19  2  0
 21 20  1  0
 22 23  1  0
 22 27  1  0
 23 24  1  0
 24 25  1  0
 26 25  1  0
 27 26  1  0
 28 17  1  0
 28 30  1  0
 29 28  1  0
 31 28  1  0
  2 32  1  0
  3 33  1  0
  4 34  1  0
  7 35  1  0
  7 36  1  0
  9 37  1  0
 10 38  1  0
 11 39  1  0
 16 40  1  0
 22 41  1  0
 23 42  1  0
 23 43  1  0
 24 44  1  0
 24 45  1  0
 25 46  1  0
 25 47  1  0
 26 48  1  0
 26 49  1  0
 27 50  1  0
 27 51  1  0
M  ISO  8  32  14  33  14  34  14  35   8  36   8  37  14  38  14  39   9
M  ISO  8  40  14  41  13  42  13  43  13  44  13  45  13  46  13  47  13
M  ISO  4  48  13  49  13  50  13  51  13
M  END
>  <minimizedAffinity>  (1) 
-6.31043816

>  <minimizedRMSD>  (1) 
4.18974113

$$$$
