
     RDKit          3D

 40 43  0  0  0  0  0  0  0  0999 V2000
   38.0720   26.2730   33.7890 C   0  0  0  0  0  0  0  0  0  0  0  0
   38.5490   27.3460   34.5130 C   0  0  0  0  0  0  0  0  0  0  0  0
   38.7020   27.2840   35.8590 C   0  0  0  0  0  0  0  0  0  0  0  0
   38.3590   26.0800   36.4870 C   0  0  0  0  0  0  0  0  0  0  0  0
   37.8830   24.9970   35.7670 C   0  0  0  0  0  0  0  0  0  0  0  0
   37.7570   25.1400   34.4320 N   0  0  0  0  0  0  0  0  0  0  0  0
   37.5390   23.6910   36.3910 C   0  0  0  0  0  0  0  0  0  0  0  0
   38.8160   22.9770   36.7020 C   0  0  0  0  0  0  0  0  0  0  0  0
   39.7620   22.3030   35.9400 C   0  0  0  0  0  0  0  0  0  0  0  0
   40.7370   21.8430   36.7850 C   0  0  0  0  0  0  0  0  0  0  0  0
   40.3970   22.2250   38.0260 N   0  0  0  0  0  0  0  0  0  0  0  0
   39.2620   22.8950   37.9730 N   0  0  0  0  0  0  0  0  0  0  0  0
   37.9690   26.5010   32.4510 O   0  0  0  0  0  0  0  0  0  0  0  0
   37.2360   25.6160   31.5980 C   0  0  0  0  0  0  0  0  0  0  0  0
   36.1910   26.2270   31.2470 O   0  0  0  0  0  0  0  0  0  0  0  0
   39.0650   22.9440   29.8740 C   0  0  0  0  0  0  0  0  0  0  0  0
   38.7060   24.2030   30.3460 C   0  0  0  0  0  0  0  0  0  0  0  0
   37.5260   24.2870   31.1560 C   0  0  0  0  0  0  0  0  0  0  0  0
   36.8550   23.1620   31.4010 N   0  0  0  0  0  0  0  0  0  0  0  0
   37.2300   21.9540   30.9260 C   0  0  0  0  0  0  0  0  0  0  0  0
   38.3360   21.8480   30.1630 N   0  0  0  0  0  0  0  0  0  0  0  0
   36.3630   20.8440   31.3050 C   0  0  0  0  0  0  0  0  0  0  0  0
   36.4170   19.4920   31.2270 N   0  0  0  0  0  0  0  0  0  0  0  0
   35.3300   18.9910   31.7360 O   0  0  0  0  0  0  0  0  0  0  0  0
   34.5420   19.9750   32.1580 C   0  0  0  0  0  0  0  0  0  0  0  0
   35.1850   21.1390   31.8900 N   0  0  0  0  0  0  0  0  0  0  0  0
   39.6250   25.3080   29.9160 C   0  0  0  0  0  0  0  0  0  0  0  0
   38.8780   26.4510   29.5530 F   0  0  0  0  0  0  0  0  0  0  0  0
   40.3240   25.6070   31.0410 F   0  0  0  0  0  0  0  0  0  0  0  0
   40.4840   24.9380   28.9320 F   0  0  0  0  0  0  0  0  0  0  0  0
   38.8117   28.2748   33.9855 H   0  0  0  0  0  0  0  0  0  0  0  0
   39.0795   28.1429   36.4333 H   0  0  0  0  0  0  0  0  0  0  0  0
   38.4703   25.9926   37.5779 H   0  0  0  0  0  0  0  0  0  0  0  0
   36.9696   23.8582   37.3172 H   0  0  0  0  0  0  0  0  0  0  0  0
   36.9225   23.0906   35.7059 H   0  0  0  0  0  0  0  0  0  0  0  0
   39.7331   22.1632   34.8493 H   0  0  0  0  0  0  0  0  0  0  0  0
   41.6307   21.2685   36.5001 H   0  0  0  0  0  0  0  0  0  0  0  0
   40.9354   22.0270   38.8815 H   0  0  0  0  0  0  0  0  0  0  0  0
   39.9652   22.8410   29.2502 H   0  0  0  0  0  0  0  0  0  0  0  0
   33.5563   19.8661   32.6339 H   0  0  0  0  0  0  0  0  0  0  0  0
  1  6  1  0
  1  2  2  0
  2  3  1  0
  3  4  2  0
  5  7  1  0
  5  4  1  0
  6  5  2  0
  7  8  1  0
  8 12  2  0
  9  8  1  0
  9 10  2  0
 10 11  1  0
 12 11  1  0
 13  1  1  0
 14 13  1  0
 15 14  2  0
 16 21  2  0
 16 17  1  0
 17 18  2  0
 18 19  1  0
 18 14  1  0
 20 22  1  0
 20 19  2  0
 21 20  1  0
 22 26  1  0
 23 22  2  0
 23 24  1  0
 24 25  1  0
 26 25  2  0
 27 17  1  0
 27 29  1  0
 28 27  1  0
 30 27  1  0
  2 31  1  0
  3 32  1  0
  4 33  1  0
  7 34  1  0
  7 35  1  0
  9 36  1  0
 10 37  1  0
 11 38  1  0
 16 39  1  0
 25 40  1  0
M  ISO  8  31  14  32  14  33  14  34   8  35   8  36  14  37  14  38   9
M  ISO  2  39  14  40  14
M  END
>  <minimizedAffinity>  (1) 
-5.70824051

>  <minimizedRMSD>  (1) 
3.36832619

$$$$
