
     RDKit          3D

 49 52  0  0  0  0  0  0  0  0999 V2000
   38.8340   22.4730   32.4470 O   0  0  0  0  0  0  0  0  0  0  0  0
   38.6410   23.6600   33.0860 C   0  0  0  0  0  0  0  0  0  0  0  0
   38.8430   24.7690   32.2910 C   0  0  0  0  0  0  0  0  0  0  0  0
   38.6840   26.0270   32.7720 C   0  0  0  0  0  0  0  0  0  0  0  0
   38.3080   26.1550   34.1170 C   0  0  0  0  0  0  0  0  0  0  0  0
   38.1080   25.0440   34.9210 C   0  0  0  0  0  0  0  0  0  0  0  0
   38.2840   23.8290   34.3650 N   0  0  0  0  0  0  0  0  0  0  0  0
   37.7390   25.1340   36.3600 C   0  0  0  0  0  0  0  0  0  0  0  0
   38.5540   24.1260   37.1110 C   0  0  0  0  0  0  0  0  0  0  0  0
   39.7680   23.4930   36.8790 C   0  0  0  0  0  0  0  0  0  0  0  0
   40.0170   22.6520   37.9310 C   0  0  0  0  0  0  0  0  0  0  0  0
   38.9810   22.7690   38.7790 N   0  0  0  0  0  0  0  0  0  0  0  0
   38.1300   23.6370   38.2870 N   0  0  0  0  0  0  0  0  0  0  0  0
   37.7610   21.8140   31.7620 C   0  0  0  0  0  0  0  0  0  0  0  0
   36.7330   22.5200   31.9220 O   0  0  0  0  0  0  0  0  0  0  0  0
   38.5440   19.5210   29.0020 C   0  0  0  0  0  0  0  0  0  0  0  0
   38.4970   20.6780   29.7930 C   0  0  0  0  0  0  0  0  0  0  0  0
   37.7490   20.5940   31.0130 C   0  0  0  0  0  0  0  0  0  0  0  0
   37.1630   19.4360   31.2940 N   0  0  0  0  0  0  0  0  0  0  0  0
   37.2120   18.3460   30.5420 C   0  0  0  0  0  0  0  0  0  0  0  0
   37.9130   18.3860   29.3750 N   0  0  0  0  0  0  0  0  0  0  0  0
   36.5570   17.1370   30.9120 N   0  0  0  0  0  0  0  0  0  0  0  0
   36.5890   15.9460   30.1250 C   0  0  0  0  0  0  0  0  0  0  0  0
   37.0270   14.8290   31.0820 C   0  0  0  0  0  0  0  0  0  0  0  0
   36.0780   14.6530   32.1330 N   0  0  0  0  0  0  0  0  0  0  0  0
   35.2140   15.7590   32.3920 C   0  0  0  0  0  0  0  0  0  0  0  0
   35.8130   17.1010   32.1540 C   0  0  0  0  0  0  0  0  0  0  0  0
   39.2470   21.8400   29.2300 C   0  0  0  0  0  0  0  0  0  0  0  0
   38.5490   23.0360   29.4460 F   0  0  0  0  0  0  0  0  0  0  0  0
   40.3830   21.8800   29.9870 F   0  0  0  0  0  0  0  0  0  0  0  0
   39.5910   21.6780   27.9260 F   0  0  0  0  0  0  0  0  0  0  0  0
   39.1403   24.6296   31.2412 H   0  0  0  0  0  0  0  0  0  0  0  0
   38.8431   26.9092   32.1345 H   0  0  0  0  0  0  0  0  0  0  0  0
   38.1687   27.1594   34.5433 H   0  0  0  0  0  0  0  0  0  0  0  0
   37.9542   26.1443   36.7380 H   0  0  0  0  0  0  0  0  0  0  0  0
   36.6657   24.9328   36.4925 H   0  0  0  0  0  0  0  0  0  0  0  0
   40.4166   23.6412   36.0030 H   0  0  0  0  0  0  0  0  0  0  0  0
   40.8971   22.0044   38.0576 H   0  0  0  0  0  0  0  0  0  0  0  0
   38.8732   22.2609   39.6684 H   0  0  0  0  0  0  0  0  0  0  0  0
   39.1069   19.5379   28.0571 H   0  0  0  0  0  0  0  0  0  0  0  0
   35.5915   15.7304   29.7145 H   0  0  0  0  0  0  0  0  0  0  0  0
   37.2753   16.0416   29.2707 H   0  0  0  0  0  0  0  0  0  0  0  0
   37.1183   13.8885   30.5189 H   0  0  0  0  0  0  0  0  0  0  0  0
   37.9936   15.1082   31.5266 H   0  0  0  0  0  0  0  0  0  0  0  0
   35.4887   13.8432   31.8923 H   0  0  0  0  0  0  0  0  0  0  0  0
   34.3313   15.6605   31.7430 H   0  0  0  0  0  0  0  0  0  0  0  0
   34.9774   15.7165   33.4654 H   0  0  0  0  0  0  0  0  0  0  0  0
   36.4925   17.3417   32.9849 H   0  0  0  0  0  0  0  0  0  0  0  0
   34.9977   17.8366   32.0896 H   0  0  0  0  0  0  0  0  0  0  0  0
  1  2  1  0
  2  7  2  0
  3  4  2  0
  3  2  1  0
  4  5  1  0
  5  6  2  0
  6  8  1  0
  7  6  1  0
  8  9  1  0
  9 13  2  0
 10  9  1  0
 10 11  2  0
 11 12  1  0
 13 12  1  0
 14 15  2  0
 14  1  1  0
 16 21  2  0
 16 17  1  0
 17 18  2  0
 18 19  1  0
 18 14  1  0
 20 22  1  0
 20 19  2  0
 21 20  1  0
 22 27  1  0
 23 22  1  0
 23 24  1  0
 24 25  1  0
 25 26  1  0
 27 26  1  0
 28 29  1  0
 28 17  1  0
 28 30  1  0
 31 28  1  0
  3 32  1  0
  4 33  1  0
  5 34  1  0
  8 35  1  0
  8 36  1  0
 10 37  1  0
 11 38  1  0
 12 39  1  0
 16 40  1  0
 23 41  1  0
 23 42  1  0
 24 43  1  0
 24 44  1  0
 25 45  1  0
 26 46  1  0
 26 47  1  0
 27 48  1  0
 27 49  1  0
M  ISO  8  32  14  33  14  34  14  35   8  36   8  37  14  38  14  39   9
M  ISO  8  40  14  41  13  42  13  43  13  44  13  45   5  46  13  47  13
M  ISO  2  48  13  49  13
M  END
>  <minimizedAffinity>  (1) 
-4.88835955

>  <minimizedRMSD>  (1) 
1.05879438

$$$$
