
     RDKit          3D

 43 46  0  0  0  0  0  0  0  0999 V2000
   39.2020   25.6200   31.5320 O   0  0  0  0  0  0  0  0  0  0  0  0
   39.1990   25.8400   32.8740 C   0  0  0  0  0  0  0  0  0  0  0  0
   39.9950   26.8920   33.2750 C   0  0  0  0  0  0  0  0  0  0  0  0
   40.0980   27.2500   34.5800 C   0  0  0  0  0  0  0  0  0  0  0  0
   39.3620   26.5000   35.5080 C   0  0  0  0  0  0  0  0  0  0  0  0
   38.5640   25.4390   35.1090 C   0  0  0  0  0  0  0  0  0  0  0  0
   38.5160   25.1520   33.7940 N   0  0  0  0  0  0  0  0  0  0  0  0
   37.7940   24.6020   36.0680 C   0  0  0  0  0  0  0  0  0  0  0  0
   38.7610   23.7130   36.7850 C   0  0  0  0  0  0  0  0  0  0  0  0
   39.9280   23.0530   36.4220 C   0  0  0  0  0  0  0  0  0  0  0  0
   40.3910   22.3680   37.5110 C   0  0  0  0  0  0  0  0  0  0  0  0
   39.5260   22.6050   38.5170 N   0  0  0  0  0  0  0  0  0  0  0  0
   38.5710   23.3970   38.0790 N   0  0  0  0  0  0  0  0  0  0  0  0
   38.2070   24.7990   30.9070 C   0  0  0  0  0  0  0  0  0  0  0  0
   37.2240   25.5460   30.6520 O   0  0  0  0  0  0  0  0  0  0  0  0
   39.2610   21.7170   29.2120 C   0  0  0  0  0  0  0  0  0  0  0  0
   39.1800   23.0670   29.5830 C   0  0  0  0  0  0  0  0  0  0  0  0
   38.2170   23.4030   30.5850 C   0  0  0  0  0  0  0  0  0  0  0  0
   37.4790   22.4190   31.0850 N   0  0  0  0  0  0  0  0  0  0  0  0
   37.5630   21.1410   30.7280 C   0  0  0  0  0  0  0  0  0  0  0  0
   38.4650   20.7850   29.7790 N   0  0  0  0  0  0  0  0  0  0  0  0
   36.7010   20.1360   31.3420 C   0  0  0  0  0  0  0  0  0  0  0  0
   35.4050   20.4400   31.7030 C   0  0  0  0  0  0  0  0  0  0  0  0
   34.6870   19.3890   32.2830 C   0  0  0  0  0  0  0  0  0  0  0  0
   35.2040   18.1640   32.4820 N   0  0  0  0  0  0  0  0  0  0  0  0
   36.4740   17.9170   32.1130 C   0  0  0  0  0  0  0  0  0  0  0  0
   37.2200   18.9050   31.5430 N   0  0  0  0  0  0  0  0  0  0  0  0
   40.1310   23.9610   28.8530 C   0  0  0  0  0  0  0  0  0  0  0  0
   39.4920   25.1590   28.4810 F   0  0  0  0  0  0  0  0  0  0  0  0
   41.0720   24.2650   29.7890 F   0  0  0  0  0  0  0  0  0  0  0  0
   40.7270   23.3630   27.7890 F   0  0  0  0  0  0  0  0  0  0  0  0
   40.5607   27.4552   32.5182 H   0  0  0  0  0  0  0  0  0  0  0  0
   40.7314   28.0920   34.8959 H   0  0  0  0  0  0  0  0  0  0  0  0
   39.4189   26.7590   36.5756 H   0  0  0  0  0  0  0  0  0  0  0  0
   37.2725   25.2465   36.7910 H   0  0  0  0  0  0  0  0  0  0  0  0
   37.0446   23.9996   35.5337 H   0  0  0  0  0  0  0  0  0  0  0  0
   40.3992   23.0773   35.4283 H   0  0  0  0  0  0  0  0  0  0  0  0
   41.2954   21.7436   37.5572 H   0  0  0  0  0  0  0  0  0  0  0  0
   39.6004   22.2278   39.4725 H   0  0  0  0  0  0  0  0  0  0  0  0
   39.9870   21.4113   28.4442 H   0  0  0  0  0  0  0  0  0  0  0  0
   34.9676   21.4370   31.5461 H   0  0  0  0  0  0  0  0  0  0  0  0
   33.6475   19.5740   32.5917 H   0  0  0  0  0  0  0  0  0  0  0  0
   36.9095   16.9193   32.2711 H   0  0  0  0  0  0  0  0  0  0  0  0
  1  2  1  0
  2  3  2  0
  2  7  1  0
  3  4  1  0
  4  5  2  0
  6  5  1  0
  6  8  1  0
  7  6  2  0
  8  9  1  0
  9 13  2  0
 10  9  1  0
 10 11  2  0
 11 12  1  0
 13 12  1  0
 14  1  1  0
 15 14  2  0
 16 17  2  0
 16 21  1  0
 17 18  1  0
 18 14  1  0
 18 19  2  0
 20 19  1  0
 20 22  1  0
 21 20  2  0
 22 27  1  0
 22 23  2  0
 23 24  1  0
 24 25  2  0
 26 25  1  0
 27 26  2  0
 28 17  1  0
 28 30  1  0
 29 28  1  0
 31 28  1  0
  3 32  1  0
  4 33  1  0
  5 34  1  0
  8 35  1  0
  8 36  1  0
 10 37  1  0
 11 38  1  0
 12 39  1  0
 16 40  1  0
 23 41  1  0
 24 42  1  0
 26 43  1  0
M  ISO  8  32  14  33  14  34  14  35   8  36   8  37  14  38  14  39   9
M  ISO  4  40  14  41  14  42  14  43  14
M  END
>  <minimizedAffinity>  (1) 
-5.55834341

>  <minimizedRMSD>  (1) 
2.87967277

$$$$
