
     RDKit          3D

 34 35  0  0  0  0  0  0  0  0999 V2000
   41.3770   24.3100   35.4010 C   0  0  0  0  0  0  0  0  0  0  0  0
   41.3280   22.8970   35.5250 C   0  0  0  0  0  0  0  0  0  0  0  0
   40.4330   22.2660   34.6600 C   0  0  0  0  0  0  0  0  0  0  0  0
   39.6930   22.9850   33.7910 N   0  0  0  0  0  0  0  0  0  0  0  0
   39.7710   24.3300   33.7060 C   0  0  0  0  0  0  0  0  0  0  0  0
   40.6310   24.9650   34.5330 N   0  0  0  0  0  0  0  0  0  0  0  0
   42.1330   22.2030   36.4590 N   0  0  0  0  0  0  0  0  0  0  0  0
   41.6470   21.3570   37.4720 C   0  0  0  0  0  0  0  0  0  0  0  0
   40.5440   21.7720   38.0880 N   0  0  0  0  0  0  0  0  0  0  0  0
   42.4260   20.1440   37.7030 N   0  0  0  0  0  0  0  0  0  0  0  0
   40.1190   21.1820   38.8090 H   0  0  0  0  0  0  0  0  0  0  0  0
   38.9540   25.0550   32.7520 C   0  0  0  0  0  0  0  0  0  0  0  0
   39.3210   26.3250   32.3770 C   0  0  0  0  0  0  0  0  0  0  0  0
   38.4830   26.9300   31.4640 C   0  0  0  0  0  0  0  0  0  0  0  0
   37.3830   26.3290   30.9710 N   0  0  0  0  0  0  0  0  0  0  0  0
   37.0580   25.0990   31.3550 C   0  0  0  0  0  0  0  0  0  0  0  0
   37.8650   24.4540   32.2660 N   0  0  0  0  0  0  0  0  0  0  0  0
   35.8410   24.4130   30.8190 C   0  0  0  0  0  0  0  0  0  0  0  0
   35.5510   23.1350   31.5370 C   0  0  0  0  0  0  0  0  0  0  0  0
   34.6320   25.3470   30.9000 C   0  0  0  0  0  0  0  0  0  0  0  0
   42.0598   24.8775   36.0504 H   0  0  0  0  0  0  0  0  0  0  0  0
   40.3299   21.1712   34.6871 H   0  0  0  0  0  0  0  0  0  0  0  0
   43.1533   22.3269   36.3919 H   0  0  0  0  0  0  0  0  0  0  0  0
   42.1332   19.4743   38.4288 H   0  0  0  0  0  0  0  0  0  0  0  0
   43.2683   19.9579   37.1402 H   0  0  0  0  0  0  0  0  0  0  0  0
   40.2174   26.8225   32.7758 H   0  0  0  0  0  0  0  0  0  0  0  0
   38.7234   27.9480   31.1235 H   0  0  0  0  0  0  0  0  0  0  0  0
   36.0427   24.1610   29.7674 H   0  0  0  0  0  0  0  0  0  0  0  0
   35.5901   23.3074   32.6227 H   0  0  0  0  0  0  0  0  0  0  0  0
   34.5488   22.7772   31.2584 H   0  0  0  0  0  0  0  0  0  0  0  0
   36.3006   22.3797   31.2584 H   0  0  0  0  0  0  0  0  0  0  0  0
   34.3857   25.5373   31.9550 H   0  0  0  0  0  0  0  0  0  0  0  0
   34.8696   26.2984   30.4016 H   0  0  0  0  0  0  0  0  0  0  0  0
   33.7714   24.8769   30.4016 H   0  0  0  0  0  0  0  0  0  0  0  0
  1  2  2  0
  2  7  1  0
  3  2  1  0
  4  3  2  0
  5  4  1  0
  5  6  2  0
  6  1  1  0
  7  8  1  0
  8 10  1  0
  8  9  2  0
  9 11  1  0
 12  5  1  0
 13 12  2  0
 14 13  1  0
 15 16  1  0
 15 14  2  0
 16 17  2  0
 17 12  1  0
 18 20  1  0
 18 16  1  0
 18 19  1  0
  1 21  1  0
  3 22  1  0
  7 23  1  0
 10 24  1  0
 10 25  1  0
 13 26  1  0
 14 27  1  0
 18 28  1  0
 19 29  1  0
 19 30  1  0
 19 31  1  0
 20 32  1  0
 20 33  1  0
 20 34  1  0
M  ISO  8  21  14  22  14  26  14  27  14  28   8  29   8  30   8  31   8
M  ISO  3  32   8  33   8  34   8
M  END
>  <minimizedAffinity>  (1) 
-4.68349123

>  <minimizedRMSD>  (1) 
1.85527825

$$$$
