
     RDKit          3D

 42 45  0  0  0  0  0  0  0  0999 V2000
   38.7680   23.6240   32.9090 C   0  0  0  0  0  0  0  0  0  0  0  0
   39.0150   24.7470   32.1490 C   0  0  0  0  0  0  0  0  0  0  0  0
   38.8480   26.0010   32.6440 C   0  0  0  0  0  0  0  0  0  0  0  0
   38.4140   26.1070   33.9730 C   0  0  0  0  0  0  0  0  0  0  0  0
   38.1680   24.9830   34.7460 C   0  0  0  0  0  0  0  0  0  0  0  0
   38.3560   23.7750   34.1750 N   0  0  0  0  0  0  0  0  0  0  0  0
   37.7350   25.0460   36.1680 C   0  0  0  0  0  0  0  0  0  0  0  0
   38.5640   24.0790   36.9500 C   0  0  0  0  0  0  0  0  0  0  0  0
   39.7920   23.4690   36.7410 C   0  0  0  0  0  0  0  0  0  0  0  0
   40.0580   22.6600   37.8140 C   0  0  0  0  0  0  0  0  0  0  0  0
   39.0230   22.7730   38.6530 N   0  0  0  0  0  0  0  0  0  0  0  0
   38.1590   23.6000   38.1410 N   0  0  0  0  0  0  0  0  0  0  0  0
   38.9800   22.4530   32.2550 O   0  0  0  0  0  0  0  0  0  0  0  0
   37.9430   21.8240   31.4930 C   0  0  0  0  0  0  0  0  0  0  0  0
   36.9190   22.5490   31.6000 O   0  0  0  0  0  0  0  0  0  0  0  0
   38.7830   19.5870   28.7100 C   0  0  0  0  0  0  0  0  0  0  0  0
   38.7160   20.7270   29.5180 C   0  0  0  0  0  0  0  0  0  0  0  0
   37.9530   20.6160   30.7260 C   0  0  0  0  0  0  0  0  0  0  0  0
   37.3720   19.4500   30.9820 N   0  0  0  0  0  0  0  0  0  0  0  0
   37.4410   18.3730   30.2100 C   0  0  0  0  0  0  0  0  0  0  0  0
   38.1580   18.4400   29.0540 N   0  0  0  0  0  0  0  0  0  0  0  0
   36.7400   17.2260   30.6820 N   0  0  0  0  0  0  0  0  0  0  0  0
   36.2760   17.1940   31.9460 C   0  0  0  0  0  0  0  0  0  0  0  0
   35.6490   15.9540   32.0840 C   0  0  0  0  0  0  0  0  0  0  0  0
   35.7640   15.3060   30.9100 N   0  0  0  0  0  0  0  0  0  0  0  0
   36.4410   16.0850   30.0230 C   0  0  0  0  0  0  0  0  0  0  0  0
   39.4640   21.9050   28.9860 C   0  0  0  0  0  0  0  0  0  0  0  0
   38.7530   23.0900   29.2050 F   0  0  0  0  0  0  0  0  0  0  0  0
   40.5880   21.9420   29.7650 F   0  0  0  0  0  0  0  0  0  0  0  0
   39.8370   21.7630   27.6850 F   0  0  0  0  0  0  0  0  0  0  0  0
   39.3575   24.6242   31.1109 H   0  0  0  0  0  0  0  0  0  0  0  0
   39.0443   26.8925   32.0302 H   0  0  0  0  0  0  0  0  0  0  0  0
   38.2654   27.1045   34.4121 H   0  0  0  0  0  0  0  0  0  0  0  0
   37.8827   26.0639   36.5578 H   0  0  0  0  0  0  0  0  0  0  0  0
   36.6688   24.7892   36.2531 H   0  0  0  0  0  0  0  0  0  0  0  0
   40.4409   23.6105   35.8641 H   0  0  0  0  0  0  0  0  0  0  0  0
   40.9526   22.0363   37.9580 H   0  0  0  0  0  0  0  0  0  0  0  0
   38.9258   22.2859   39.5553 H   0  0  0  0  0  0  0  0  0  0  0  0
   39.3579   19.6255   27.7730 H   0  0  0  0  0  0  0  0  0  0  0  0
   36.3711   17.9800   32.7096 H   0  0  0  0  0  0  0  0  0  0  0  0
   35.1511   15.5752   32.9887 H   0  0  0  0  0  0  0  0  0  0  0  0
   36.6934   15.8364   28.9816 H   0  0  0  0  0  0  0  0  0  0  0  0
  1  6  2  0
  2  3  2  0
  2  1  1  0
  3  4  1  0
  4  5  2  0
  5  7  1  0
  6  5  1  0
  7  8  1  0
  8 12  2  0
  9  8  1  0
  9 10  2  0
 10 11  1  0
 12 11  1  0
 13  1  1  0
 14 15  2  0
 14 13  1  0
 16 21  2  0
 16 17  1  0
 17 18  2  0
 18 19  1  0
 18 14  1  0
 20 22  1  0
 20 19  2  0
 21 20  1  0
 22 23  1  0
 23 24  2  0
 25 24  1  0
 26 22  1  0
 26 25  2  0
 27 28  1  0
 27 17  1  0
 27 29  1  0
 30 27  1  0
  2 31  1  0
  3 32  1  0
  4 33  1  0
  7 34  1  0
  7 35  1  0
  9 36  1  0
 10 37  1  0
 11 38  1  0
 16 39  1  0
 23 40  1  0
 24 41  1  0
 26 42  1  0
M  ISO  8  31  14  32  14  33  14  34   8  35   8  36  14  37  14  38   9
M  ISO  4  39  14  40  14  41  14  42  14
M  END
>  <minimizedAffinity>  (1) 
-4.7737565

>  <minimizedRMSD>  (1) 
0.914754093

$$$$
