
     RDKit          3D

 38 40  0  0  0  0  0  0  0  0999 V2000
   38.5870   23.2560   32.9290 C   0  0  0  0  0  0  0  0  0  0  0  0
   38.9080   24.3270   32.1210 C   0  0  0  0  0  0  0  0  0  0  0  0
   38.8510   25.6030   32.5760 C   0  0  0  0  0  0  0  0  0  0  0  0
   38.4550   25.7900   33.9080 C   0  0  0  0  0  0  0  0  0  0  0  0
   38.1360   24.7190   34.7240 C   0  0  0  0  0  0  0  0  0  0  0  0
   38.2160   23.4810   34.1940 N   0  0  0  0  0  0  0  0  0  0  0  0
   37.7390   24.8720   36.1500 C   0  0  0  0  0  0  0  0  0  0  0  0
   38.6010   23.9690   36.9710 C   0  0  0  0  0  0  0  0  0  0  0  0
   39.8470   23.3870   36.7840 C   0  0  0  0  0  0  0  0  0  0  0  0
   40.1420   22.6390   37.8910 C   0  0  0  0  0  0  0  0  0  0  0  0
   39.1040   22.7590   38.7330 N   0  0  0  0  0  0  0  0  0  0  0  0
   38.2160   23.5350   38.1840 N   0  0  0  0  0  0  0  0  0  0  0  0
   38.6880   22.0420   32.3150 O   0  0  0  0  0  0  0  0  0  0  0  0
   37.7920   21.6630   31.2670 C   0  0  0  0  0  0  0  0  0  0  0  0
   36.7930   22.4330   31.3390 O   0  0  0  0  0  0  0  0  0  0  0  0
   38.9410   20.0320   28.1850 C   0  0  0  0  0  0  0  0  0  0  0  0
   38.7830   20.9780   29.1990 C   0  0  0  0  0  0  0  0  0  0  0  0
   37.8950   20.6360   30.2740 C   0  0  0  0  0  0  0  0  0  0  0  0
   37.2880   19.4510   30.2270 N   0  0  0  0  0  0  0  0  0  0  0  0
   37.4580   18.5590   29.2380 C   0  0  0  0  0  0  0  0  0  0  0  0
   38.2880   18.8540   28.2150 N   0  0  0  0  0  0  0  0  0  0  0  0
   39.5810   22.2330   29.0080 C   0  0  0  0  0  0  0  0  0  0  0  0
   38.7540   23.3620   29.1710 F   0  0  0  0  0  0  0  0  0  0  0  0
   40.4720   22.2140   30.0370 F   0  0  0  0  0  0  0  0  0  0  0  0
   40.2520   22.2650   27.8280 F   0  0  0  0  0  0  0  0  0  0  0  0
   36.7700   17.2860   29.2450 C   0  0  0  0  0  0  0  0  0  0  0  0
   36.8090   16.5190   30.2330 O   0  0  0  0  0  0  0  0  0  0  0  0
   36.0310   16.8630   28.1510 O   0  0  0  0  0  0  0  0  0  0  0  0
   39.2178   24.1413   31.0820 H   0  0  0  0  0  0  0  0  0  0  0  0
   39.1045   26.4549   31.9280 H   0  0  0  0  0  0  0  0  0  0  0  0
   38.3966   26.8109   34.3133 H   0  0  0  0  0  0  0  0  0  0  0  0
   37.8833   25.9153   36.4674 H   0  0  0  0  0  0  0  0  0  0  0  0
   36.6788   24.6096   36.2808 H   0  0  0  0  0  0  0  0  0  0  0  0
   40.4875   23.5066   35.8978 H   0  0  0  0  0  0  0  0  0  0  0  0
   41.0563   22.0510   38.0589 H   0  0  0  0  0  0  0  0  0  0  0  0
   39.0240   22.3122   39.6576 H   0  0  0  0  0  0  0  0  0  0  0  0
   39.6134   20.2531   27.3430 H   0  0  0  0  0  0  0  0  0  0  0  0
   35.5674   15.9886   28.1750 H   0  0  0  0  0  0  0  0  0  0  0  0
  1  6  2  0
  2  3  2  0
  2  1  1  0
  3  4  1  0
  4  5  2  0
  5  7  1  0
  6  5  1  0
  7  8  1  0
  8 12  2  0
  9  8  1  0
  9 10  2  0
 10 11  1  0
 12 11  1  0
 13  1  1  0
 14 15  2  0
 14 13  1  0
 16 21  2  0
 16 17  1  0
 17 18  2  0
 18 14  1  0
 19 18  1  0
 20 26  1  0
 20 19  2  0
 21 20  1  0
 22 23  1  0
 22 17  1  0
 22 24  1  0
 25 22  1  0
 26 27  2  0
 28 26  1  0
  2 29  1  0
  3 30  1  0
  4 31  1  0
  7 32  1  0
  7 33  1  0
  9 34  1  0
 10 35  1  0
 11 36  1  0
 16 37  1  0
 28 38  1  0
M  ISO  8  29  14  30  14  31  14  32   8  33   8  34  14  35  14  36   9
M  ISO  2  37  14  38   3
M  END
>  <minimizedAffinity>  (1) 
-4.38449287

>  <minimizedRMSD>  (1) 
0.562233806

$$$$
