
     RDKit          3D

 48 51  0  0  0  0  0  0  0  0999 V2000
   38.7270   23.6850   32.9320 C   0  0  0  0  0  0  0  0  0  0  0  0
   38.9840   24.8090   32.1770 C   0  0  0  0  0  0  0  0  0  0  0  0
   38.8420   26.0580   32.6870 C   0  0  0  0  0  0  0  0  0  0  0  0
   38.4270   26.1600   34.0170 C   0  0  0  0  0  0  0  0  0  0  0  0
   38.1700   25.0340   34.7850 C   0  0  0  0  0  0  0  0  0  0  0  0
   38.3320   23.8290   34.2030 N   0  0  0  0  0  0  0  0  0  0  0  0
   37.7570   25.0950   36.2150 C   0  0  0  0  0  0  0  0  0  0  0  0
   38.5780   24.1030   36.9740 C   0  0  0  0  0  0  0  0  0  0  0  0
   39.7980   23.4770   36.7490 C   0  0  0  0  0  0  0  0  0  0  0  0
   40.0470   22.6490   37.8130 C   0  0  0  0  0  0  0  0  0  0  0  0
   39.0170   22.7640   38.6570 N   0  0  0  0  0  0  0  0  0  0  0  0
   38.1550   23.6180   38.1630 N   0  0  0  0  0  0  0  0  0  0  0  0
   38.9100   22.5120   32.2660 O   0  0  0  0  0  0  0  0  0  0  0  0
   37.8430   21.8920   31.5410 C   0  0  0  0  0  0  0  0  0  0  0  0
   36.8400   22.6500   31.6420 O   0  0  0  0  0  0  0  0  0  0  0  0
   38.6060   19.5340   28.8300 C   0  0  0  0  0  0  0  0  0  0  0  0
   38.5860   20.6980   29.6130 C   0  0  0  0  0  0  0  0  0  0  0  0
   37.8030   20.6620   30.8090 C   0  0  0  0  0  0  0  0  0  0  0  0
   37.1530   19.5370   31.0980 N   0  0  0  0  0  0  0  0  0  0  0  0
   37.1880   18.4320   30.3300 C   0  0  0  0  0  0  0  0  0  0  0  0
   37.9130   18.4310   29.2000 N   0  0  0  0  0  0  0  0  0  0  0  0
   36.4200   17.2250   30.7480 C   0  0  0  0  0  0  0  0  0  0  0  0
   36.6280   16.8740   32.1860 C   0  0  0  0  0  0  0  0  0  0  0  0
   37.9060   16.0670   32.2010 C   0  0  0  0  0  0  0  0  0  0  0  0
   37.7470   15.2210   30.9530 C   0  0  0  0  0  0  0  0  0  0  0  0
   36.8590   15.9750   30.0140 C   0  0  0  0  0  0  0  0  0  0  0  0
   39.4050   21.8220   29.0540 C   0  0  0  0  0  0  0  0  0  0  0  0
   38.7400   23.0510   29.2430 F   0  0  0  0  0  0  0  0  0  0  0  0
   40.5210   21.8260   29.8340 F   0  0  0  0  0  0  0  0  0  0  0  0
   39.7650   21.6350   27.7580 F   0  0  0  0  0  0  0  0  0  0  0  0
   39.3127   24.6903   31.1340 H   0  0  0  0  0  0  0  0  0  0  0  0
   39.0449   26.9522   32.0793 H   0  0  0  0  0  0  0  0  0  0  0  0
   38.3011   27.1565   34.4656 H   0  0  0  0  0  0  0  0  0  0  0  0
   37.9319   26.1060   36.6115 H   0  0  0  0  0  0  0  0  0  0  0  0
   36.6866   24.8620   36.3145 H   0  0  0  0  0  0  0  0  0  0  0  0
   40.4481   23.6202   35.8733 H   0  0  0  0  0  0  0  0  0  0  0  0
   40.9311   22.0084   37.9473 H   0  0  0  0  0  0  0  0  0  0  0  0
   38.9171   22.2624   39.5511 H   0  0  0  0  0  0  0  0  0  0  0  0
   39.1941   19.5171   27.9006 H   0  0  0  0  0  0  0  0  0  0  0  0
   35.3777   17.5013   30.5306 H   0  0  0  0  0  0  0  0  0  0  0  0
   36.7357   17.7831   32.7959 H   0  0  0  0  0  0  0  0  0  0  0  0
   35.7779   16.3166   32.6063 H   0  0  0  0  0  0  0  0  0  0  0  0
   38.7915   16.7163   32.1356 H   0  0  0  0  0  0  0  0  0  0  0  0
   38.0559   15.4833   33.1212 H   0  0  0  0  0  0  0  0  0  0  0  0
   38.7285   15.0497   30.4869 H   0  0  0  0  0  0  0  0  0  0  0  0
   37.3108   14.2418   31.1995 H   0  0  0  0  0  0  0  0  0  0  0  0
   35.9840   15.3647   29.7458 H   0  0  0  0  0  0  0  0  0  0  0  0
   37.3868   16.2255   29.0820 H   0  0  0  0  0  0  0  0  0  0  0  0
  1  6  2  0
  2  3  2  0
  2  1  1  0
  3  4  1  0
  4  5  2  0
  5  7  1  0
  6  5  1  0
  7  8  1  0
  8 12  2  0
  9  8  1  0
  9 10  2  0
 10 11  1  0
 12 11  1  0
 13  1  1  0
 14 15  2  0
 14 13  1  0
 16 21  2  0
 16 17  1  0
 17 18  2  0
 18 19  1  0
 18 14  1  0
 20 22  1  0
 20 19  2  0
 21 20  1  0
 22 23  1  0
 23 24  1  0
 25 24  1  0
 26 22  1  0
 26 25  1  0
 27 28  1  0
 27 17  1  0
 27 29  1  0
 30 27  1  0
  2 31  1  0
  3 32  1  0
  4 33  1  0
  7 34  1  0
  7 35  1  0
  9 36  1  0
 10 37  1  0
 11 38  1  0
 16 39  1  0
 22 40  1  0
 23 41  1  0
 23 42  1  0
 24 43  1  0
 24 44  1  0
 25 45  1  0
 25 46  1  0
 26 47  1  0
 26 48  1  0
M  ISO  8  31  14  32  14  33  14  34   8  35   8  36  14  37  14  38   9
M  ISO  8  39  14  40  13  41  13  42  13  43  13  44  13  45  13  46  13
M  ISO  2  47  13  48  13
M  END
>  <minimizedAffinity>  (1) 
-4.63471699

>  <minimizedRMSD>  (1) 
0.887234688

$$$$
