
     RDKit          3D

 44 46  0  0  0  0  0  0  0  0999 V2000
   38.5400   23.2660   32.9450 C   0  0  0  0  0  0  0  0  0  0  0  0
   38.8690   24.3380   32.1420 C   0  0  0  0  0  0  0  0  0  0  0  0
   38.8220   25.6120   32.6040 C   0  0  0  0  0  0  0  0  0  0  0  0
   38.4290   25.7970   33.9350 C   0  0  0  0  0  0  0  0  0  0  0  0
   38.1020   24.7220   34.7450 C   0  0  0  0  0  0  0  0  0  0  0  0
   38.1700   23.4890   34.2110 N   0  0  0  0  0  0  0  0  0  0  0  0
   37.7090   24.8780   36.1740 C   0  0  0  0  0  0  0  0  0  0  0  0
   38.5710   23.9720   36.9930 C   0  0  0  0  0  0  0  0  0  0  0  0
   39.8220   23.4000   36.8060 C   0  0  0  0  0  0  0  0  0  0  0  0
   40.1100   22.6450   37.9140 C   0  0  0  0  0  0  0  0  0  0  0  0
   39.0700   22.7530   38.7470 N   0  0  0  0  0  0  0  0  0  0  0  0
   38.1780   23.5280   38.2020 N   0  0  0  0  0  0  0  0  0  0  0  0
   38.6320   22.0560   32.3280 O   0  0  0  0  0  0  0  0  0  0  0  0
   37.7580   21.7000   31.2500 C   0  0  0  0  0  0  0  0  0  0  0  0
   36.7610   22.4720   31.3180 O   0  0  0  0  0  0  0  0  0  0  0  0
   38.9740   20.1310   28.1590 C   0  0  0  0  0  0  0  0  0  0  0  0
   38.7870   21.0560   29.1910 C   0  0  0  0  0  0  0  0  0  0  0  0
   37.8840   20.6940   30.2390 C   0  0  0  0  0  0  0  0  0  0  0  0
   37.2900   19.5060   30.1540 N   0  0  0  0  0  0  0  0  0  0  0  0
   37.4750   18.6310   29.1650 C   0  0  0  0  0  0  0  0  0  0  0  0
   38.3230   18.9460   28.1610 N   0  0  0  0  0  0  0  0  0  0  0  0
   39.5820   22.3200   29.0340 C   0  0  0  0  0  0  0  0  0  0  0  0
   38.7570   23.4420   29.2010 F   0  0  0  0  0  0  0  0  0  0  0  0
   40.4580   22.2880   30.0810 F   0  0  0  0  0  0  0  0  0  0  0  0
   40.2790   22.3740   27.8690 F   0  0  0  0  0  0  0  0  0  0  0  0
   36.7810   17.3170   29.1290 C   0  0  0  0  0  0  0  0  0  0  0  0
   37.6570   16.2040   29.6950 C   0  0  0  0  0  0  0  0  0  0  0  0
   36.4180   16.9660   27.7000 C   0  0  0  0  0  0  0  0  0  0  0  0
   39.1769   24.1551   31.1019 H   0  0  0  0  0  0  0  0  0  0  0  0
   39.0819   26.4648   31.9597 H   0  0  0  0  0  0  0  0  0  0  0  0
   38.3789   26.8163   34.3456 H   0  0  0  0  0  0  0  0  0  0  0  0
   37.8579   25.9210   36.4901 H   0  0  0  0  0  0  0  0  0  0  0  0
   36.6482   24.6199   36.3084 H   0  0  0  0  0  0  0  0  0  0  0  0
   40.4679   23.5294   35.9251 H   0  0  0  0  0  0  0  0  0  0  0  0
   41.0256   22.0599   38.0853 H   0  0  0  0  0  0  0  0  0  0  0  0
   38.9883   22.2982   39.6675 H   0  0  0  0  0  0  0  0  0  0  0  0
   39.6606   20.3709   27.3338 H   0  0  0  0  0  0  0  0  0  0  0  0
   35.8755   17.4043   29.7475 H   0  0  0  0  0  0  0  0  0  0  0  0
   37.6296   16.2389   30.7941 H   0  0  0  0  0  0  0  0  0  0  0  0
   37.2808   15.2298   29.3495 H   0  0  0  0  0  0  0  0  0  0  0  0
   38.6924   16.3407   29.3495 H   0  0  0  0  0  0  0  0  0  0  0  0
   35.6272   16.2014   27.6998 H   0  0  0  0  0  0  0  0  0  0  0  0
   36.0573   17.8666   27.1815 H   0  0  0  0  0  0  0  0  0  0  0  0
   37.3060   16.5753   27.1815 H   0  0  0  0  0  0  0  0  0  0  0  0
  1  6  2  0
  2  3  2  0
  2  1  1  0
  3  4  1  0
  4  5  2  0
  5  7  1  0
  6  5  1  0
  7  8  1  0
  8 12  2  0
  9  8  1  0
  9 10  2  0
 10 11  1  0
 12 11  1  0
 13  1  1  0
 14 15  2  0
 14 13  1  0
 16 21  2  0
 16 17  1  0
 17 18  2  0
 18 14  1  0
 19 18  1  0
 20 19  2  0
 21 20  1  0
 22 17  1  0
 22 23  1  0
 22 24  1  0
 25 22  1  0
 26 20  1  0
 26 27  1  0
 28 26  1  0
  2 29  1  0
  3 30  1  0
  4 31  1  0
  7 32  1  0
  7 33  1  0
  9 34  1  0
 10 35  1  0
 11 36  1  0
 16 37  1  0
 26 38  1  0
 27 39  1  0
 27 40  1  0
 27 41  1  0
 28 42  1  0
 28 43  1  0
 28 44  1  0
M  ISO  8  29  14  30  14  31  14  32   8  33   8  34  14  35  14  36   9
M  ISO  8  37  14  38   8  39   8  40   8  41   8  42   8  43   8  44   8
M  END
>  <minimizedAffinity>  (1) 
-4.23648405

>  <minimizedRMSD>  (1) 
0.626363814

$$$$
