
     RDKit          3D

 38 40  0  0  0  0  0  0  0  0999 V2000
   38.7960   23.5510   32.9130 C   0  0  0  0  0  0  0  0  0  0  0  0
   39.0660   24.6650   32.1470 C   0  0  0  0  0  0  0  0  0  0  0  0
   38.9100   25.9210   32.6360 C   0  0  0  0  0  0  0  0  0  0  0  0
   38.4640   26.0390   33.9580 C   0  0  0  0  0  0  0  0  0  0  0  0
   38.1950   24.9240   34.7350 C   0  0  0  0  0  0  0  0  0  0  0  0
   38.3720   23.7110   34.1730 N   0  0  0  0  0  0  0  0  0  0  0  0
   37.7490   25.0000   36.1530 C   0  0  0  0  0  0  0  0  0  0  0  0
   38.5820   24.0510   36.9530 C   0  0  0  0  0  0  0  0  0  0  0  0
   39.8140   23.4380   36.7540 C   0  0  0  0  0  0  0  0  0  0  0  0
   40.0720   22.6540   37.8490 C   0  0  0  0  0  0  0  0  0  0  0  0
   39.0370   22.7860   38.6850 N   0  0  0  0  0  0  0  0  0  0  0  0
   38.1680   23.6080   38.1480 N   0  0  0  0  0  0  0  0  0  0  0  0
   38.9970   22.3680   32.2680 O   0  0  0  0  0  0  0  0  0  0  0  0
   37.9990   21.8110   31.4090 C   0  0  0  0  0  0  0  0  0  0  0  0
   36.9480   22.4890   31.5730 O   0  0  0  0  0  0  0  0  0  0  0  0
   38.9340   19.9670   28.3710 C   0  0  0  0  0  0  0  0  0  0  0  0
   38.8190   20.9890   29.3120 C   0  0  0  0  0  0  0  0  0  0  0  0
   38.0640   20.7050   30.4960 C   0  0  0  0  0  0  0  0  0  0  0  0
   37.5300   19.4910   30.6140 N   0  0  0  0  0  0  0  0  0  0  0  0
   37.6490   18.5200   29.7020 C   0  0  0  0  0  0  0  0  0  0  0  0
   38.3570   18.7600   28.5710 N   0  0  0  0  0  0  0  0  0  0  0  0
   39.5150   22.2610   28.9360 C   0  0  0  0  0  0  0  0  0  0  0  0
   38.7080   23.3680   29.1990 F   0  0  0  0  0  0  0  0  0  0  0  0
   40.5880   22.3110   29.7950 F   0  0  0  0  0  0  0  0  0  0  0  0
   39.9850   22.2550   27.6600 F   0  0  0  0  0  0  0  0  0  0  0  0
   37.0050   17.2030   29.9490 C   0  0  0  0  0  0  0  0  0  0  0  0
   36.3360   16.8450   28.7970 F   0  0  0  0  0  0  0  0  0  0  0  0
   37.9360   16.2370   30.3100 F   0  0  0  0  0  0  0  0  0  0  0  0
   36.0960   17.2870   31.0090 F   0  0  0  0  0  0  0  0  0  0  0  0
   39.4169   24.5322   31.1130 H   0  0  0  0  0  0  0  0  0  0  0  0
   39.1244   26.8074   32.0210 H   0  0  0  0  0  0  0  0  0  0  0  0
   38.3239   27.0409   34.3899 H   0  0  0  0  0  0  0  0  0  0  0  0
   37.8829   26.0241   36.5316 H   0  0  0  0  0  0  0  0  0  0  0  0
   36.6848   24.7335   36.2327 H   0  0  0  0  0  0  0  0  0  0  0  0
   40.4649   23.5601   35.8757 H   0  0  0  0  0  0  0  0  0  0  0  0
   40.9648   22.0319   38.0098 H   0  0  0  0  0  0  0  0  0  0  0  0
   38.9387   22.3199   39.5982 H   0  0  0  0  0  0  0  0  0  0  0  0
   39.5050   20.1455   27.4479 H   0  0  0  0  0  0  0  0  0  0  0  0
  1  6  2  0
  2  3  2  0
  2  1  1  0
  3  4  1  0
  4  5  2  0
  5  7  1  0
  6  5  1  0
  7  8  1  0
  8 12  2  0
  9  8  1  0
  9 10  2  0
 10 11  1  0
 12 11  1  0
 13  1  1  0
 14 15  2  0
 14 13  1  0
 16 21  2  0
 16 17  1  0
 17 18  2  0
 18 19  1  0
 18 14  1  0
 20 26  1  0
 20 19  2  0
 21 20  1  0
 22 23  1  0
 22 17  1  0
 22 24  1  0
 25 22  1  0
 26 28  1  0
 26 29  1  0
 27 26  1  0
  2 30  1  0
  3 31  1  0
  4 32  1  0
  7 33  1  0
  7 34  1  0
  9 35  1  0
 10 36  1  0
 11 37  1  0
 16 38  1  0
M  ISO  8  30  14  31  14  32  14  33   8  34   8  35  14  36  14  37   9
M  ISO  1  38  14
M  END
>  <minimizedAffinity>  (1) 
-4.32138777

>  <minimizedRMSD>  (1) 
0.799374402

$$$$
