
     RDKit          3D

 31 33  0  0  0  0  0  0  0  0999 V2000
   39.6310   25.7270   34.9920 C   0  0  0  0  0  0  0  0  0  0  0  0
   40.7950   26.1250   34.3190 C   0  0  0  0  0  0  0  0  0  0  0  0
   40.7080   26.0700   32.9310 C   0  0  0  0  0  0  0  0  0  0  0  0
   39.5820   25.6630   32.3160 N   0  0  0  0  0  0  0  0  0  0  0  0
   38.4790   25.2860   33.0110 C   0  0  0  0  0  0  0  0  0  0  0  0
   38.5400   25.3310   34.3630 N   0  0  0  0  0  0  0  0  0  0  0  0
   41.9730   26.5530   34.9790 N   0  0  0  0  0  0  0  0  0  0  0  0
   43.1710   25.8010   35.0810 C   0  0  0  0  0  0  0  0  0  0  0  0
   43.0080   24.4970   35.2690 N   0  0  0  0  0  0  0  0  0  0  0  0
   44.4050   26.5600   34.9670 N   0  0  0  0  0  0  0  0  0  0  0  0
   43.8250   23.8910   35.3420 H   0  0  0  0  0  0  0  0  0  0  0  0
   37.2660   24.8470   32.3100 C   0  0  0  0  0  0  0  0  0  0  0  0
   36.4660   25.7880   31.7160 C   0  0  0  0  0  0  0  0  0  0  0  0
   35.3650   25.2590   31.0930 C   0  0  0  0  0  0  0  0  0  0  0  0
   35.0830   23.9430   31.0600 N   0  0  0  0  0  0  0  0  0  0  0  0
   35.8930   23.0770   31.6520 C   0  0  0  0  0  0  0  0  0  0  0  0
   37.0150   23.5290   32.2960 N   0  0  0  0  0  0  0  0  0  0  0  0
   35.7270   21.6070   31.7070 C   0  0  0  0  0  0  0  0  0  0  0  0
   34.9460   20.8970   32.7000 C   0  0  0  0  0  0  0  0  0  0  0  0
   35.2060   19.1750   32.1370 S   0  0  0  0  0  0  0  0  0  0  0  0
   36.3140   19.7190   30.6750 C   0  0  0  0  0  0  0  0  0  0  0  0
   36.3830   20.9630   30.7280 N   0  0  0  0  0  0  0  0  0  0  0  0
   39.6268   25.7456   36.0918 H   0  0  0  0  0  0  0  0  0  0  0  0
   41.5769   26.3651   32.3244 H   0  0  0  0  0  0  0  0  0  0  0  0
   41.9583   27.4839   35.4196 H   0  0  0  0  0  0  0  0  0  0  0  0
   45.3134   26.0788   35.0316 H   0  0  0  0  0  0  0  0  0  0  0  0
   44.3712   27.5791   34.8216 H   0  0  0  0  0  0  0  0  0  0  0  0
   36.6863   26.8655   31.7370 H   0  0  0  0  0  0  0  0  0  0  0  0
   34.6719   25.9501   30.5910 H   0  0  0  0  0  0  0  0  0  0  0  0
   34.3633   21.2828   33.5495 H   0  0  0  0  0  0  0  0  0  0  0  0
   36.7952   19.0637   29.9340 H   0  0  0  0  0  0  0  0  0  0  0  0
  2  7  1  0
  2  1  2  0
  3  2  1  0
  4  3  2  0
  4  5  1  0
  5  6  2  0
  6  1  1  0
  7  8  1  0
  8  9  2  0
  9 11  1  0
 10  8  1  0
 12  5  1  0
 13 12  2  0
 14 13  1  0
 15 14  2  0
 15 16  1  0
 16 18  1  0
 16 17  2  0
 17 12  1  0
 18 19  2  0
 20 19  1  0
 21 22  2  0
 21 20  1  0
 22 18  1  0
  1 23  1  0
  3 24  1  0
  7 25  1  0
 10 26  1  0
 10 27  1  0
 13 28  1  0
 14 29  1  0
 19 30  1  0
 21 31  1  0
M  ISO  6  23  14  24  14  28  14  29  14  30  14  31  14
M  END
>  <minimizedAffinity>  (1) 
-4.60956001

>  <minimizedRMSD>  (1) 
3.33472633

$$$$
