
     RDKit          3D

 39 41  0  0  0  0  0  0  0  0999 V2000
   38.8090   23.5610   32.9130 C   0  0  0  0  0  0  0  0  0  0  0  0
   39.0950   24.6790   32.1720 C   0  0  0  0  0  0  0  0  0  0  0  0
   38.9570   25.9280   32.6900 C   0  0  0  0  0  0  0  0  0  0  0  0
   38.5100   26.0340   34.0190 C   0  0  0  0  0  0  0  0  0  0  0  0
   38.2240   24.9050   34.7610 C   0  0  0  0  0  0  0  0  0  0  0  0
   38.3850   23.7000   34.1780 N   0  0  0  0  0  0  0  0  0  0  0  0
   37.7570   24.9690   36.1840 C   0  0  0  0  0  0  0  0  0  0  0  0
   38.6140   24.0180   36.9740 C   0  0  0  0  0  0  0  0  0  0  0  0
   39.8490   23.3990   36.7550 C   0  0  0  0  0  0  0  0  0  0  0  0
   40.1260   22.6270   37.8450 C   0  0  0  0  0  0  0  0  0  0  0  0
   39.1120   22.7600   38.7030 N   0  0  0  0  0  0  0  0  0  0  0  0
   38.2310   23.5760   38.1850 N   0  0  0  0  0  0  0  0  0  0  0  0
   38.9970   22.3960   32.2440 O   0  0  0  0  0  0  0  0  0  0  0  0
   37.9650   21.8610   31.3940 C   0  0  0  0  0  0  0  0  0  0  0  0
   36.9260   22.5730   31.5510 O   0  0  0  0  0  0  0  0  0  0  0  0
   38.8710   19.9580   28.3790 C   0  0  0  0  0  0  0  0  0  0  0  0
   38.7780   20.9900   29.3150 C   0  0  0  0  0  0  0  0  0  0  0  0
   37.9950   20.7330   30.4960 C   0  0  0  0  0  0  0  0  0  0  0  0
   37.4240   19.5490   30.6040 N   0  0  0  0  0  0  0  0  0  0  0  0
   37.5190   18.5670   29.7030 C   0  0  0  0  0  0  0  0  0  0  0  0
   38.2450   18.7710   28.5830 N   0  0  0  0  0  0  0  0  0  0  0  0
   36.8420   17.3040   29.9410 C   0  0  0  0  0  0  0  0  0  0  0  0
   36.5890   16.5780   28.9440 O   0  0  0  0  0  0  0  0  0  0  0  0
   36.4870   16.9260   31.2710 N   0  0  0  0  0  0  0  0  0  0  0  0
   39.5250   22.2330   28.9400 C   0  0  0  0  0  0  0  0  0  0  0  0
   38.7480   23.3660   29.1960 F   0  0  0  0  0  0  0  0  0  0  0  0
   40.5940   22.2330   29.8010 F   0  0  0  0  0  0  0  0  0  0  0  0
   39.9830   22.2180   27.6640 F   0  0  0  0  0  0  0  0  0  0  0  0
   39.4439   24.5623   31.1353 H   0  0  0  0  0  0  0  0  0  0  0  0
   39.1864   26.8223   32.0920 H   0  0  0  0  0  0  0  0  0  0  0  0
   38.3866   27.0283   34.4731 H   0  0  0  0  0  0  0  0  0  0  0  0
   37.8710   25.9916   36.5729 H   0  0  0  0  0  0  0  0  0  0  0  0
   36.6946   24.6942   36.2601 H   0  0  0  0  0  0  0  0  0  0  0  0
   40.4832   23.5141   35.8636 H   0  0  0  0  0  0  0  0  0  0  0  0
   41.0228   22.0069   37.9906 H   0  0  0  0  0  0  0  0  0  0  0  0
   39.0361   22.2972   39.6200 H   0  0  0  0  0  0  0  0  0  0  0  0
   39.4604   20.1092   27.4626 H   0  0  0  0  0  0  0  0  0  0  0  0
   36.0069   16.0307   31.4412 H   0  0  0  0  0  0  0  0  0  0  0  0
   36.7109   17.5485   32.0605 H   0  0  0  0  0  0  0  0  0  0  0  0
  1  6  2  0
  2  3  2  0
  2  1  1  0
  3  4  1  0
  4  5  2  0
  5  7  1  0
  6  5  1  0
  7  8  1  0
  8 12  2  0
  9  8  1  0
  9 10  2  0
 10 11  1  0
 12 11  1  0
 13  1  1  0
 14 15  2  0
 14 13  1  0
 16 21  2  0
 16 17  1  0
 17 18  2  0
 18 19  1  0
 18 14  1  0
 20 22  1  0
 20 19  2  0
 21 20  1  0
 22 24  1  0
 23 22  2  0
 25 26  1  0
 25 17  1  0
 25 27  1  0
 28 25  1  0
  2 29  1  0
  3 30  1  0
  4 31  1  0
  7 32  1  0
  7 33  1  0
  9 34  1  0
 10 35  1  0
 11 36  1  0
 16 37  1  0
 24 38  1  0
 24 39  1  0
M  ISO  8  29  14  30  14  31  14  32   8  33   8  34  14  35  14  36   9
M  ISO  1  37  14
M  END
>  <minimizedAffinity>  (1) 
-4.26804447

>  <minimizedRMSD>  (1) 
0.0708712935

$$$$
