
     RDKit          3D

 37 39  0  0  0  0  0  0  0  0999 V2000
   38.7900   23.5600   32.8820 C   0  0  0  0  0  0  0  0  0  0  0  0
   39.0830   24.6780   32.1270 C   0  0  0  0  0  0  0  0  0  0  0  0
   38.9440   25.9290   32.6300 C   0  0  0  0  0  0  0  0  0  0  0  0
   38.4940   26.0420   33.9480 C   0  0  0  0  0  0  0  0  0  0  0  0
   38.2010   24.9230   34.7120 C   0  0  0  0  0  0  0  0  0  0  0  0
   38.3640   23.7140   34.1390 N   0  0  0  0  0  0  0  0  0  0  0  0
   37.7510   25.0030   36.1300 C   0  0  0  0  0  0  0  0  0  0  0  0
   38.5810   24.0530   36.9310 C   0  0  0  0  0  0  0  0  0  0  0  0
   39.8080   23.4330   36.7340 C   0  0  0  0  0  0  0  0  0  0  0  0
   40.0680   22.6520   37.8300 C   0  0  0  0  0  0  0  0  0  0  0  0
   39.0360   22.7900   38.6680 N   0  0  0  0  0  0  0  0  0  0  0  0
   38.1750   23.6070   38.1360 N   0  0  0  0  0  0  0  0  0  0  0  0
   38.9760   22.3810   32.2250 O   0  0  0  0  0  0  0  0  0  0  0  0
   37.9700   21.8430   31.3600 C   0  0  0  0  0  0  0  0  0  0  0  0
   36.9340   22.5440   31.5170 O   0  0  0  0  0  0  0  0  0  0  0  0
   38.9110   19.9630   28.3500 C   0  0  0  0  0  0  0  0  0  0  0  0
   38.8040   20.9900   29.2870 C   0  0  0  0  0  0  0  0  0  0  0  0
   38.0170   20.7330   30.4540 C   0  0  0  0  0  0  0  0  0  0  0  0
   37.4480   19.5360   30.5580 N   0  0  0  0  0  0  0  0  0  0  0  0
   37.5560   18.5580   29.6560 C   0  0  0  0  0  0  0  0  0  0  0  0
   38.2950   18.7710   28.5410 N   0  0  0  0  0  0  0  0  0  0  0  0
   39.5460   22.2390   28.9140 C   0  0  0  0  0  0  0  0  0  0  0  0
   38.7550   23.3760   29.1650 F   0  0  0  0  0  0  0  0  0  0  0  0
   40.5960   22.2660   29.7820 F   0  0  0  0  0  0  0  0  0  0  0  0
   40.0150   22.2270   27.6390 F   0  0  0  0  0  0  0  0  0  0  0  0
   36.8840   17.2930   29.8880 C   0  0  0  0  0  0  0  0  0  0  0  0
   36.5800   16.5940   28.8870 O   0  0  0  0  0  0  0  0  0  0  0  0
   39.4374   24.5507   31.0935 H   0  0  0  0  0  0  0  0  0  0  0  0
   39.1758   26.8184   32.0257 H   0  0  0  0  0  0  0  0  0  0  0  0
   38.3694   27.0418   34.3895 H   0  0  0  0  0  0  0  0  0  0  0  0
   37.8865   26.0272   36.5076 H   0  0  0  0  0  0  0  0  0  0  0  0
   36.6857   24.7404   36.2087 H   0  0  0  0  0  0  0  0  0  0  0  0
   40.4570   23.5484   35.8534 H   0  0  0  0  0  0  0  0  0  0  0  0
   40.9597   22.0281   37.9900 H   0  0  0  0  0  0  0  0  0  0  0  0
   38.9387   22.3266   39.5827 H   0  0  0  0  0  0  0  0  0  0  0  0
   39.5063   20.1232   27.4390 H   0  0  0  0  0  0  0  0  0  0  0  0
   36.6476   16.9555   30.9079 H   0  0  0  0  0  0  0  0  0  0  0  0
  1  6  2  0
  2  3  2  0
  2  1  1  0
  3  4  1  0
  4  5  2  0
  5  7  1  0
  6  5  1  0
  7  8  1  0
  8 12  2  0
  9  8  1  0
  9 10  2  0
 10 11  1  0
 12 11  1  0
 13  1  1  0
 14 15  2  0
 14 13  1  0
 16 21  2  0
 16 17  1  0
 17 18  2  0
 18 19  1  0
 18 14  1  0
 20 26  1  0
 20 19  2  0
 21 20  1  0
 22 23  1  0
 22 17  1  0
 22 24  1  0
 25 22  1  0
 27 26  2  0
  2 28  1  0
  3 29  1  0
  4 30  1  0
  7 31  1  0
  7 32  1  0
  9 33  1  0
 10 34  1  0
 11 35  1  0
 16 36  1  0
 26 37  1  0
M  ISO  8  28  14  29  14  30  14  31   8  32   8  33  14  34  14  35   9
M  ISO  2  36  14  37   6
M  END
>  <minimizedAffinity>  (1) 
-4.15628624

>  <minimizedRMSD>  (1) 
0.613871157

$$$$
