
     RDKit          3D

 32 34  0  0  0  0  0  0  0  0999 V2000
   40.0110   25.7900   35.0880 C   0  0  0  0  0  0  0  0  0  0  0  0
   41.2760   25.6010   34.4820 C   0  0  0  0  0  0  0  0  0  0  0  0
   41.2400   24.9830   33.2230 C   0  0  0  0  0  0  0  0  0  0  0  0
   40.0640   24.6160   32.6760 N   0  0  0  0  0  0  0  0  0  0  0  0
   38.8710   24.8210   33.3020 C   0  0  0  0  0  0  0  0  0  0  0  0
   38.8820   25.4130   34.5090 N   0  0  0  0  0  0  0  0  0  0  0  0
   37.6420   24.4080   32.6560 C   0  0  0  0  0  0  0  0  0  0  0  0
   36.8630   25.3610   32.0470 C   0  0  0  0  0  0  0  0  0  0  0  0
   35.7060   24.8740   31.4460 C   0  0  0  0  0  0  0  0  0  0  0  0
   35.3720   23.5750   31.4580 N   0  0  0  0  0  0  0  0  0  0  0  0
   36.1590   22.6750   32.0640 C   0  0  0  0  0  0  0  0  0  0  0  0
   37.3050   23.1070   32.6670 N   0  0  0  0  0  0  0  0  0  0  0  0
   35.9300   21.2580   32.1560 N   0  0  0  0  0  0  0  0  0  0  0  0
   36.8200   20.2940   32.4810 C   0  0  0  0  0  0  0  0  0  0  0  0
   36.1110   19.1310   32.4270 C   0  0  0  0  0  0  0  0  0  0  0  0
   34.8360   19.3800   32.0810 N   0  0  0  0  0  0  0  0  0  0  0  0
   34.7220   20.7060   31.9140 C   0  0  0  0  0  0  0  0  0  0  0  0
   42.4750   26.0120   35.1170 N   0  0  0  0  0  0  0  0  0  0  0  0
   43.4600   25.1400   35.6030 C   0  0  0  0  0  0  0  0  0  0  0  0
   43.0240   24.0360   36.1860 N   0  0  0  0  0  0  0  0  0  0  0  0
   44.8370   25.5620   35.4040 N   0  0  0  0  0  0  0  0  0  0  0  0
   43.6850   23.3460   36.5490 H   0  0  0  0  0  0  0  0  0  0  0  0
   39.9643   26.2682   36.0775 H   0  0  0  0  0  0  0  0  0  0  0  0
   42.1776   24.7967   32.6787 H   0  0  0  0  0  0  0  0  0  0  0  0
   37.1328   26.4273   32.0351 H   0  0  0  0  0  0  0  0  0  0  0  0
   35.0367   25.5849   30.9394 H   0  0  0  0  0  0  0  0  0  0  0  0
   37.8831   20.4203   32.7336 H   0  0  0  0  0  0  0  0  0  0  0  0
   36.5227   18.1327   32.6364 H   0  0  0  0  0  0  0  0  0  0  0  0
   33.8073   21.2472   31.6304 H   0  0  0  0  0  0  0  0  0  0  0  0
   42.6341   27.0234   35.2295 H   0  0  0  0  0  0  0  0  0  0  0  0
   45.6106   24.9689   35.7366 H   0  0  0  0  0  0  0  0  0  0  0  0
   45.0389   26.4541   34.9304 H   0  0  0  0  0  0  0  0  0  0  0  0
  2  1  2  0
  2 18  1  0
  3  2  1  0
  4  3  2  0
  4  5  1  0
  5  6  2  0
  6  1  1  0
  7 12  1  0
  7  5  1  0
  8  7  2  0
  9 10  2  0
  9  8  1  0
 10 11  1  0
 11 13  1  0
 11 12  2  0
 13 14  1  0
 15 14  2  0
 16 15  1  0
 17 16  2  0
 17 13  1  0
 18 19  1  0
 19 20  2  0
 20 22  1  0
 21 19  1  0
  1 23  1  0
  3 24  1  0
  8 25  1  0
  9 26  1  0
 14 27  1  0
 15 28  1  0
 17 29  1  0
 18 30  1  0
 21 31  1  0
 21 32  1  0
M  ISO  7  23  14  24  14  25  14  26  14  27  14  28  14  29  14
M  END
>  <minimizedAffinity>  (1) 
-4.58877039

>  <minimizedRMSD>  (1) 
3.29571152

$$$$
