
     RDKit          3D

 51 54  0  0  0  0  0  0  0  0999 V2000
   38.7280   23.4150   31.0020 C   0  0  0  0  0  0  0  0  0  0  0  0
   37.8030   24.2690   30.9760 O   0  0  0  0  0  0  0  0  0  0  0  0
   39.8280   21.1120   28.3560 C   0  0  0  0  0  0  0  0  0  0  0  0
   39.7690   22.2200   29.2050 C   0  0  0  0  0  0  0  0  0  0  0  0
   38.7050   22.2390   30.1750 C   0  0  0  0  0  0  0  0  0  0  0  0
   37.8730   21.2090   30.1860 N   0  0  0  0  0  0  0  0  0  0  0  0
   37.9420   20.1540   29.3660 C   0  0  0  0  0  0  0  0  0  0  0  0
   38.9230   20.1060   28.4490 N   0  0  0  0  0  0  0  0  0  0  0  0
   36.9650   19.0910   29.4840 C   0  0  0  0  0  0  0  0  0  0  0  0
   36.3640   18.7290   28.4380 O   0  0  0  0  0  0  0  0  0  0  0  0
   36.7080   18.4930   30.7440 N   0  0  0  0  0  0  0  0  0  0  0  0
   36.6020   17.0660   30.9090 C   0  0  0  0  0  0  0  0  0  0  0  0
   36.0000   16.7640   32.2650 C   0  0  0  0  0  0  0  0  0  0  0  0
   34.8570   17.6340   32.4610 N   0  0  0  0  0  0  0  0  0  0  0  0
   35.2090   19.0230   32.5310 C   0  0  0  0  0  0  0  0  0  0  0  0
   36.5410   19.3300   31.9210 C   0  0  0  0  0  0  0  0  0  0  0  0
   40.8380   23.2390   28.9710 C   0  0  0  0  0  0  0  0  0  0  0  0
   40.2800   24.5410   29.0490 F   0  0  0  0  0  0  0  0  0  0  0  0
   41.6880   23.0710   30.0090 F   0  0  0  0  0  0  0  0  0  0  0  0
   41.4940   23.0750   27.7940 F   0  0  0  0  0  0  0  0  0  0  0  0
   39.7090   23.8560   31.9600 O   0  0  0  0  0  0  0  0  0  0  0  0
   39.3650   24.7060   32.9590 C   0  0  0  0  0  0  0  0  0  0  0  0
   39.7780   26.0010   32.7510 C   0  0  0  0  0  0  0  0  0  0  0  0
   39.5130   26.9810   33.6530 C   0  0  0  0  0  0  0  0  0  0  0  0
   38.8020   26.6250   34.8110 C   0  0  0  0  0  0  0  0  0  0  0  0
   38.3900   25.3220   35.0160 C   0  0  0  0  0  0  0  0  0  0  0  0
   38.6900   24.4050   34.0750 N   0  0  0  0  0  0  0  0  0  0  0  0
   37.6420   24.8960   36.2430 C   0  0  0  0  0  0  0  0  0  0  0  0
   38.5440   23.9710   37.0100 C   0  0  0  0  0  0  0  0  0  0  0  0
   39.7630   23.3400   36.7380 C   0  0  0  0  0  0  0  0  0  0  0  0
   40.1030   22.6060   37.8390 C   0  0  0  0  0  0  0  0  0  0  0  0
   39.1440   22.7710   38.7500 N   0  0  0  0  0  0  0  0  0  0  0  0
   38.2330   23.5720   38.2590 N   0  0  0  0  0  0  0  0  0  0  0  0
   40.6231   21.0544   27.5981 H   0  0  0  0  0  0  0  0  0  0  0  0
   35.9574   16.6515   30.1199 H   0  0  0  0  0  0  0  0  0  0  0  0
   37.6011   16.6111   30.8391 H   0  0  0  0  0  0  0  0  0  0  0  0
   35.6779   15.7129   32.3030 H   0  0  0  0  0  0  0  0  0  0  0  0
   36.7451   16.9340   33.0562 H   0  0  0  0  0  0  0  0  0  0  0  0
   34.2055   17.5007   31.6744 H   0  0  0  0  0  0  0  0  0  0  0  0
   34.4404   19.6047   32.0010 H   0  0  0  0  0  0  0  0  0  0  0  0
   35.2706   19.2892   33.5965 H   0  0  0  0  0  0  0  0  0  0  0  0
   37.3402   19.1161   32.6459 H   0  0  0  0  0  0  0  0  0  0  0  0
   36.5938   20.3925   31.6410 H   0  0  0  0  0  0  0  0  0  0  0  0
   40.3346   26.2483   31.8350 H   0  0  0  0  0  0  0  0  0  0  0  0
   39.8433   28.0164   33.4829 H   0  0  0  0  0  0  0  0  0  0  0  0
   38.5704   27.3928   35.5638 H   0  0  0  0  0  0  0  0  0  0  0  0
   37.3919   25.7741   36.8565 H   0  0  0  0  0  0  0  0  0  0  0  0
   36.7017   24.3926   35.9738 H   0  0  0  0  0  0  0  0  0  0  0  0
   40.3425   23.4204   35.8065 H   0  0  0  0  0  0  0  0  0  0  0  0
   41.0066   21.9892   37.9533 H   0  0  0  0  0  0  0  0  0  0  0  0
   39.1234   22.3397   39.6851 H   0  0  0  0  0  0  0  0  0  0  0  0
  1 21  1  0
  2  1  2  0
  3  8  2  0
  3  4  1  0
  4  5  2  0
  5  6  1  0
  5  1  1  0
  7  9  1  0
  7  6  2  0
  8  7  1  0
  9 11  1  0
 10  9  2  0
 11 12  1  0
 11 16  1  0
 12 13  1  0
 13 14  1  0
 14 15  1  0
 16 15  1  0
 17 18  1  0
 17  4  1  0
 17 19  1  0
 20 17  1  0
 21 22  1  0
 22 27  1  0
 23 22  2  0
 23 24  1  0
 24 25  2  0
 25 26  1  0
 26 28  1  0
 27 26  2  0
 28 29  1  0
 29 33  2  0
 30 29  1  0
 30 31  2  0
 31 32  1  0
 33 32  1  0
  3 34  1  0
 12 35  1  0
 12 36  1  0
 13 37  1  0
 13 38  1  0
 14 39  1  0
 15 40  1  0
 15 41  1  0
 16 42  1  0
 16 43  1  0
 23 44  1  0
 24 45  1  0
 25 46  1  0
 28 47  1  0
 28 48  1  0
 30 49  1  0
 31 50  1  0
 32 51  1  0
M  ISO  8  34  14  35  13  36  13  37  13  38  13  39   5  40  13  41  13
M  ISO  8  42  13  43  13  44  14  45  14  46  14  47   8  48   8  49  14
M  ISO  2  50  14  51   9
M  END
>  <minimizedAffinity>  (1) 
-5.47433519

>  <minimizedRMSD>  (1) 
1.47196662

$$$$
