
     RDKit          3D

 44 47  0  0  0  0  0  0  0  0999 V2000
   37.5250   26.6980   34.0020 C   0  0  0  0  0  0  0  0  0  0  0  0
   38.7480   27.3180   34.1190 C   0  0  0  0  0  0  0  0  0  0  0  0
   39.6240   26.9810   35.1040 C   0  0  0  0  0  0  0  0  0  0  0  0
   39.2340   25.9710   36.0010 C   0  0  0  0  0  0  0  0  0  0  0  0
   38.0020   25.3490   35.8750 C   0  0  0  0  0  0  0  0  0  0  0  0
   37.1920   25.7400   34.8760 N   0  0  0  0  0  0  0  0  0  0  0  0
   37.5550   24.2590   36.8000 C   0  0  0  0  0  0  0  0  0  0  0  0
   38.7070   23.3100   36.9440 C   0  0  0  0  0  0  0  0  0  0  0  0
   39.4250   22.4940   36.0620 C   0  0  0  0  0  0  0  0  0  0  0  0
   40.3830   21.8440   36.7870 C   0  0  0  0  0  0  0  0  0  0  0  0
   40.2690   22.2320   38.0540 N   0  0  0  0  0  0  0  0  0  0  0  0
   39.2870   23.0910   38.1400 N   0  0  0  0  0  0  0  0  0  0  0  0
   36.7800   27.1560   32.9690 O   0  0  0  0  0  0  0  0  0  0  0  0
   36.3130   26.2620   31.9390 C   0  0  0  0  0  0  0  0  0  0  0  0
   35.2880   26.7910   31.4070 O   0  0  0  0  0  0  0  0  0  0  0  0
   38.5660   23.9410   30.2010 C   0  0  0  0  0  0  0  0  0  0  0  0
   37.9860   25.1200   30.6790 C   0  0  0  0  0  0  0  0  0  0  0  0
   36.8260   24.9920   31.5060 C   0  0  0  0  0  0  0  0  0  0  0  0
   36.3950   23.7700   31.7530 N   0  0  0  0  0  0  0  0  0  0  0  0
   36.9370   22.6410   31.3050 C   0  0  0  0  0  0  0  0  0  0  0  0
   38.0340   22.7280   30.5220 N   0  0  0  0  0  0  0  0  0  0  0  0
   38.6940   26.3710   30.2350 C   0  0  0  0  0  0  0  0  0  0  0  0
   37.7740   27.4050   30.0400 F   0  0  0  0  0  0  0  0  0  0  0  0
   39.4840   26.6880   31.3110 F   0  0  0  0  0  0  0  0  0  0  0  0
   39.4850   26.1850   29.1520 F   0  0  0  0  0  0  0  0  0  0  0  0
   36.3820   21.3600   31.6440 C   0  0  0  0  0  0  0  0  0  0  0  0
   36.7370   20.3540   30.9860 O   0  0  0  0  0  0  0  0  0  0  0  0
   35.3970   21.1100   32.7340 C   0  0  0  0  0  0  0  0  0  0  0  0
   35.4000   19.7280   33.2790 C   0  0  0  0  0  0  0  0  0  0  0  0
   35.8870   20.8380   34.1300 C   0  0  0  0  0  0  0  0  0  0  0  0
   39.0235   28.1036   33.4001 H   0  0  0  0  0  0  0  0  0  0  0  0
   40.6002   27.4797   35.1951 H   0  0  0  0  0  0  0  0  0  0  0  0
   39.9143   25.6712   36.8118 H   0  0  0  0  0  0  0  0  0  0  0  0
   37.2875   24.6807   37.7801 H   0  0  0  0  0  0  0  0  0  0  0  0
   36.6681   23.7441   36.4021 H   0  0  0  0  0  0  0  0  0  0  0  0
   39.2495   22.3942   34.9807 H   0  0  0  0  0  0  0  0  0  0  0  0
   41.1182   21.1270   36.3929 H   0  0  0  0  0  0  0  0  0  0  0  0
   40.8561   21.9097   38.8366 H   0  0  0  0  0  0  0  0  0  0  0  0
   39.4589   23.9929   29.5607 H   0  0  0  0  0  0  0  0  0  0  0  0
   34.6612   21.8120   32.3147 H   0  0  0  0  0  0  0  0  0  0  0  0
   34.4478   19.2319   33.5183 H   0  0  0  0  0  0  0  0  0  0  0  0
   35.8211   18.7677   32.9466 H   0  0  0  0  0  0  0  0  0  0  0  0
   36.9584   20.9234   34.3642 H   0  0  0  0  0  0  0  0  0  0  0  0
   35.6389   21.2193   35.1315 H   0  0  0  0  0  0  0  0  0  0  0  0
  1  2  2  0
  1  6  1  0
  2  3  1  0
  3  4  2  0
  5  4  1  0
  5  7  1  0
  6  5  2  0
  7  8  1  0
  8 12  2  0
  9 10  2  0
  9  8  1  0
 10 11  1  0
 11 12  1  0
 13  1  1  0
 14 13  1  0
 15 14  2  0
 16 21  2  0
 16 17  1  0
 17 18  2  0
 18 19  1  0
 18 14  1  0
 20 26  1  0
 20 19  2  0
 21 20  1  0
 22 17  1  0
 22 24  1  0
 23 22  1  0
 25 22  1  0
 26 28  1  0
 27 26  2  0
 28 29  1  0
 28 30  1  0
 29 30  1  0
  2 31  1  0
  3 32  1  0
  4 33  1  0
  7 34  1  0
  7 35  1  0
  9 36  1  0
 10 37  1  0
 11 38  1  0
 16 39  1  0
 28 40  1  0
 29 41  1  0
 29 42  1  0
 30 43  1  0
 30 44  1  0
M  ISO  8  31  14  32  14  33  14  34   8  35   8  36  14  37  14  38   9
M  ISO  6  39  14  40  13  41  13  42  13  43  13  44  13
M  END
>  <minimizedAffinity>  (1) 
-5.95951319

>  <minimizedRMSD>  (1) 
3.75525379

$$$$
