
     RDKit          3D

 52 55  0  0  0  0  0  0  0  0999 V2000
   37.4660   22.1760   31.1670 C   0  0  0  0  0  0  0  0  0  0  0  0
   36.6290   23.1200   31.0170 O   0  0  0  0  0  0  0  0  0  0  0  0
   35.9330   18.8660   31.5540 C   0  0  0  0  0  0  0  0  0  0  0  0
   36.3050   20.1790   31.7990 C   0  0  0  0  0  0  0  0  0  0  0  0
   37.1350   20.8210   30.8200 C   0  0  0  0  0  0  0  0  0  0  0  0
   37.4820   20.1150   29.7630 N   0  0  0  0  0  0  0  0  0  0  0  0
   37.1280   18.8550   29.5280 C   0  0  0  0  0  0  0  0  0  0  0  0
   36.3450   18.2230   30.4310 N   0  0  0  0  0  0  0  0  0  0  0  0
   37.6020   18.1920   28.3400 C   0  0  0  0  0  0  0  0  0  0  0  0
   38.5040   17.3260   28.4730 O   0  0  0  0  0  0  0  0  0  0  0  0
   37.0470   18.5210   27.0450 N   0  0  0  0  0  0  0  0  0  0  0  0
   35.9750   18.0880   26.2030 C   0  0  0  0  0  0  0  0  0  0  0  0
   35.1900   19.3430   25.8070 C   0  0  0  0  0  0  0  0  0  0  0  0
   35.9500   19.9040   24.5970 C   0  0  0  0  0  0  0  0  0  0  0  0
   37.4180   19.6560   24.8740 C   0  0  0  0  0  0  0  0  0  0  0  0
   37.7350   19.6030   26.3280 C   0  0  0  0  0  0  0  0  0  0  0  0
   35.7740   20.7420   33.0950 C   0  0  0  0  0  0  0  0  0  0  0  0
   36.8280   21.3780   33.8000 F   0  0  0  0  0  0  0  0  0  0  0  0
   34.8830   21.6810   32.7110 F   0  0  0  0  0  0  0  0  0  0  0  0
   35.1770   19.8110   33.8790 F   0  0  0  0  0  0  0  0  0  0  0  0
   38.6660   22.7420   31.7050 O   0  0  0  0  0  0  0  0  0  0  0  0
   38.6220   23.8080   32.5460 C   0  0  0  0  0  0  0  0  0  0  0  0
   39.0190   24.9860   31.9630 C   0  0  0  0  0  0  0  0  0  0  0  0
   39.0350   26.1520   32.6580 C   0  0  0  0  0  0  0  0  0  0  0  0
   38.6290   26.1080   34.0030 C   0  0  0  0  0  0  0  0  0  0  0  0
   38.2300   24.9190   34.5870 C   0  0  0  0  0  0  0  0  0  0  0  0
   38.2420   23.8110   33.8330 N   0  0  0  0  0  0  0  0  0  0  0  0
   37.8060   24.8290   36.0200 C   0  0  0  0  0  0  0  0  0  0  0  0
   38.7660   23.9060   36.7110 C   0  0  0  0  0  0  0  0  0  0  0  0
   40.0220   23.3970   36.3960 C   0  0  0  0  0  0  0  0  0  0  0  0
   40.4250   22.5840   37.4200 C   0  0  0  0  0  0  0  0  0  0  0  0
   39.4380   22.5980   38.3360 N   0  0  0  0  0  0  0  0  0  0  0  0
   38.4840   23.3690   37.9090 N   0  0  0  0  0  0  0  0  0  0  0  0
   35.2958   18.3382   32.2788 H   0  0  0  0  0  0  0  0  0  0  0  0
   36.3743   17.5921   25.3060 H   0  0  0  0  0  0  0  0  0  0  0  0
   35.3294   17.3663   26.7249 H   0  0  0  0  0  0  0  0  0  0  0  0
   34.1567   19.0849   25.5319 H   0  0  0  0  0  0  0  0  0  0  0  0
   35.1182   20.0693   26.6300 H   0  0  0  0  0  0  0  0  0  0  0  0
   35.7578   20.9819   24.4913 H   0  0  0  0  0  0  0  0  0  0  0  0
   35.6297   19.4221   23.6615 H   0  0  0  0  0  0  0  0  0  0  0  0
   37.7036   18.6967   24.4178 H   0  0  0  0  0  0  0  0  0  0  0  0
   37.9806   20.4983   24.4451 H   0  0  0  0  0  0  0  0  0  0  0  0
   38.8197   19.4597   26.4416 H   0  0  0  0  0  0  0  0  0  0  0  0
   37.3877   20.5500   26.7667 H   0  0  0  0  0  0  0  0  0  0  0  0
   39.3313   24.9849   30.9083 H   0  0  0  0  0  0  0  0  0  0  0  0
   39.3531   27.0939   32.1873 H   0  0  0  0  0  0  0  0  0  0  0  0
   38.6285   27.0321   34.5997 H   0  0  0  0  0  0  0  0  0  0  0  0
   37.8395   25.8249   36.4859 H   0  0  0  0  0  0  0  0  0  0  0  0
   36.7761   24.4507   36.0989 H   0  0  0  0  0  0  0  0  0  0  0  0
   40.5931   23.6114   35.4806 H   0  0  0  0  0  0  0  0  0  0  0  0
   41.3715   22.0270   37.4828 H   0  0  0  0  0  0  0  0  0  0  0  0
   39.4394   22.0825   39.2277 H   0  0  0  0  0  0  0  0  0  0  0  0
  1 21  1  0
  2  1  2  0
  3  4  2  0
  4 17  1  0
  5  1  1  0
  5  4  1  0
  6  5  2  0
  7  6  1  0
  7  8  2  0
  8  3  1  0
  9 10  2  0
  9  7  1  0
 11  9  1  0
 12 11  1  0
 13 12  1  0
 14 15  1  0
 14 13  1  0
 15 16  1  0
 16 11  1  0
 17 18  1  0
 17 20  1  0
 19 17  1  0
 21 22  1  0
 22 27  1  0
 23 22  2  0
 23 24  1  0
 24 25  2  0
 25 26  1  0
 26 28  1  0
 27 26  2  0
 28 29  1  0
 29 33  2  0
 30 29  1  0
 30 31  2  0
 31 32  1  0
 33 32  1  0
  3 34  1  0
 12 35  1  0
 12 36  1  0
 13 37  1  0
 13 38  1  0
 14 39  1  0
 14 40  1  0
 15 41  1  0
 15 42  1  0
 16 43  1  0
 16 44  1  0
 23 45  1  0
 24 46  1  0
 25 47  1  0
 28 48  1  0
 28 49  1  0
 30 50  1  0
 31 51  1  0
 32 52  1  0
M  ISO  8  34  14  35  13  36  13  37  13  38  13  39  13  40  13  41  13
M  ISO  8  42  13  43  13  44  13  45  14  46  14  47  14  48   8  49   8
M  ISO  3  50  14  51  14  52   9
M  END
>  <minimizedAffinity>  (1) 
-6.12874985

>  <minimizedRMSD>  (1) 
4.08307028

$$$$
