
     RDKit          3D

 47 51  0  0  0  0  0  0  0  0999 V2000
   40.1450   22.6100   37.4680 C   0  0  0  0  0  0  0  0  0  0  0  0
   39.4430   23.4440   36.5650 C   0  0  0  0  0  0  0  0  0  0  0  0
   40.2110   24.1000   35.6340 C   0  0  0  0  0  0  0  0  0  0  0  0
   41.5370   23.8930   35.6640 N   0  0  0  0  0  0  0  0  0  0  0  0
   42.2090   23.1090   36.5100 C   0  0  0  0  0  0  0  0  0  0  0  0
   41.4690   22.4640   37.4240 N   0  0  0  0  0  0  0  0  0  0  0  0
   43.6410   23.1080   36.2710 C   0  0  0  0  0  0  0  0  0  0  0  0
   44.2260   22.1870   35.4160 C   0  0  0  0  0  0  0  0  0  0  0  0
   45.5670   22.1420   35.1560 C   0  0  0  0  0  0  0  0  0  0  0  0
   46.4420   23.0340   35.7440 C   0  0  0  0  0  0  0  0  0  0  0  0
   45.8980   23.9590   36.5960 C   0  0  0  0  0  0  0  0  0  0  0  0
   46.7630   24.8560   37.1900 C   0  0  0  0  0  0  0  0  0  0  0  0
   46.3120   25.8210   38.0590 C   0  0  0  0  0  0  0  0  0  0  0  0
   44.9280   25.8390   38.3060 C   0  0  0  0  0  0  0  0  0  0  0  0
   44.1160   24.9250   37.6880 C   0  0  0  0  0  0  0  0  0  0  0  0
   44.5490   23.9700   36.8290 C   0  0  0  0  0  0  0  0  0  0  0  0
   39.6350   24.9750   34.6600 N   0  0  0  0  0  0  0  0  0  0  0  0
   38.8920   24.5010   33.6420 C   0  0  0  0  0  0  0  0  0  0  0  0
   38.5130   25.5940   32.9270 C   0  0  0  0  0  0  0  0  0  0  0  0
   39.0060   26.6890   33.4890 N   0  0  0  0  0  0  0  0  0  0  0  0
   39.7180   26.3290   34.5850 C   0  0  0  0  0  0  0  0  0  0  0  0
   37.7100   25.5870   31.7510 N   0  0  0  0  0  0  0  0  0  0  0  0
   37.5990   26.7300   30.8620 C   0  0  0  0  0  0  0  0  0  0  0  0
   36.1180   27.1240   30.9490 C   0  0  0  0  0  0  0  0  0  0  0  0
   35.3710   26.0430   30.3800 N   0  0  0  0  0  0  0  0  0  0  0  0
   35.5090   24.7810   31.0310 C   0  0  0  0  0  0  0  0  0  0  0  0
   36.9390   24.4250   31.3550 C   0  0  0  0  0  0  0  0  0  0  0  0
   39.5768   22.0622   38.2342 H   0  0  0  0  0  0  0  0  0  0  0  0
   38.3499   23.5596   36.6063 H   0  0  0  0  0  0  0  0  0  0  0  0
   43.5753   21.4521   34.9196 H   0  0  0  0  0  0  0  0  0  0  0  0
   45.9570   21.3803   34.4648 H   0  0  0  0  0  0  0  0  0  0  0  0
   47.5222   23.0034   35.5386 H   0  0  0  0  0  0  0  0  0  0  0  0
   47.8377   24.7972   36.9628 H   0  0  0  0  0  0  0  0  0  0  0  0
   46.9960   26.5392   38.5347 H   0  0  0  0  0  0  0  0  0  0  0  0
   44.4991   26.5838   38.9925 H   0  0  0  0  0  0  0  0  0  0  0  0
   43.0383   24.9691   37.9037 H   0  0  0  0  0  0  0  0  0  0  0  0
   38.6436   23.4501   33.4326 H   0  0  0  0  0  0  0  0  0  0  0  0
   40.2544   26.9978   35.2742 H   0  0  0  0  0  0  0  0  0  0  0  0
   37.8703   26.4528   29.8326 H   0  0  0  0  0  0  0  0  0  0  0  0
   38.2736   27.5523   31.1426 H   0  0  0  0  0  0  0  0  0  0  0  0
   35.8268   27.2748   31.9990 H   0  0  0  0  0  0  0  0  0  0  0  0
   35.9262   28.0641   30.4110 H   0  0  0  0  0  0  0  0  0  0  0  0
   34.3744   26.3021   30.4015 H   0  0  0  0  0  0  0  0  0  0  0  0
   34.9357   24.8086   31.9694 H   0  0  0  0  0  0  0  0  0  0  0  0
   35.1341   24.0153   30.3359 H   0  0  0  0  0  0  0  0  0  0  0  0
   36.9459   23.6962   32.1789 H   0  0  0  0  0  0  0  0  0  0  0  0
   37.3988   24.0041   30.4487 H   0  0  0  0  0  0  0  0  0  0  0  0
  2  1  2  0
  3  4  2  0
  3  2  1  0
  4  5  1  0
  5  6  2  0
  6  1  1  0
  7  5  1  0
  7 16  1  0
  8  7  2  0
  9  8  1  0
  9 10  2  0
 10 11  1  0
 11 16  2  0
 11 12  1  0
 12 13  2  0
 13 14  1  0
 15 14  2  0
 16 15  1  0
 17  3  1  0
 18 17  1  0
 19 20  1  0
 19 18  2  0
 20 21  2  0
 21 17  1  0
 22 19  1  0
 23 24  1  0
 23 22  1  0
 25 24  1  0
 25 26  1  0
 26 27  1  0
 27 22  1  0
  1 28  1  0
  2 29  1  0
  8 30  1  0
  9 31  1  0
 10 32  1  0
 12 33  1  0
 13 34  1  0
 14 35  1  0
 15 36  1  0
 18 37  1  0
 21 38  1  0
 23 39  1  0
 23 40  1  0
 24 41  1  0
 24 42  1  0
 25 43  1  0
 26 44  1  0
 26 45  1  0
 27 46  1  0
 27 47  1  0
M  ISO  8  28  14  29  14  30  14  31  14  32  14  33  14  34  14  35  14
M  ISO  8  36  14  37  14  38  14  39  13  40  13  41  13  42  13  43   5
M  ISO  4  44  13  45  13  46  13  47  13
M  END
>  <minimizedAffinity>  (1) 
-6.38747597

>  <minimizedRMSD>  (1) 
0.489525646

$$$$
