
     RDKit          3D

 42 46  0  0  0  0  0  0  0  0999 V2000
   40.7330   22.0370   37.3550 C   0  0  0  0  0  0  0  0  0  0  0  0
   39.8530   22.8510   36.6020 C   0  0  0  0  0  0  0  0  0  0  0  0
   40.4520   23.7570   35.7650 C   0  0  0  0  0  0  0  0  0  0  0  0
   41.7870   23.7900   35.7380 N   0  0  0  0  0  0  0  0  0  0  0  0
   42.6290   23.0280   36.4440 C   0  0  0  0  0  0  0  0  0  0  0  0
   42.0500   22.1340   37.2670 N   0  0  0  0  0  0  0  0  0  0  0  0
   44.0330   23.3180   36.1780 C   0  0  0  0  0  0  0  0  0  0  0  0
   44.7170   22.6750   35.1670 C   0  0  0  0  0  0  0  0  0  0  0  0
   46.0430   22.9160   34.8800 C   0  0  0  0  0  0  0  0  0  0  0  0
   46.7660   23.8280   35.6010 C   0  0  0  0  0  0  0  0  0  0  0  0
   46.1180   24.4840   36.6130 C   0  0  0  0  0  0  0  0  0  0  0  0
   46.8470   25.4040   37.3410 C   0  0  0  0  0  0  0  0  0  0  0  0
   46.2790   26.1040   38.3700 C   0  0  0  0  0  0  0  0  0  0  0  0
   44.9400   25.8500   38.6470 C   0  0  0  0  0  0  0  0  0  0  0  0
   44.2490   24.9220   37.8950 C   0  0  0  0  0  0  0  0  0  0  0  0
   44.8030   24.2230   36.8740 C   0  0  0  0  0  0  0  0  0  0  0  0
   39.6870   24.6450   34.9440 N   0  0  0  0  0  0  0  0  0  0  0  0
   38.6930   24.2030   34.1770 C   0  0  0  0  0  0  0  0  0  0  0  0
   38.1920   25.3070   33.5420 C   0  0  0  0  0  0  0  0  0  0  0  0
   38.8700   26.3880   33.9210 N   0  0  0  0  0  0  0  0  0  0  0  0
   39.8210   25.9980   34.8060 C   0  0  0  0  0  0  0  0  0  0  0  0
   37.0750   25.3290   32.5830 C   0  0  0  0  0  0  0  0  0  0  0  0
   36.5790   24.1450   32.0740 C   0  0  0  0  0  0  0  0  0  0  0  0
   35.5240   24.0730   31.1610 C   0  0  0  0  0  0  0  0  0  0  0  0
   34.9970   25.3160   30.7940 C   0  0  0  0  0  0  0  0  0  0  0  0
   35.4900   26.5000   31.3010 C   0  0  0  0  0  0  0  0  0  0  0  0
   36.5100   26.4960   32.1800 N   0  0  0  0  0  0  0  0  0  0  0  0
   40.3042   21.2926   38.0421 H   0  0  0  0  0  0  0  0  0  0  0  0
   38.7596   22.7624   36.6831 H   0  0  0  0  0  0  0  0  0  0  0  0
   44.1771   21.9333   34.5600 H   0  0  0  0  0  0  0  0  0  0  0  0
   46.5280   22.3673   34.0592 H   0  0  0  0  0  0  0  0  0  0  0  0
   47.8245   24.0257   35.3763 H   0  0  0  0  0  0  0  0  0  0  0  0
   47.9036   25.5770   37.0887 H   0  0  0  0  0  0  0  0  0  0  0  0
   46.8565   26.8363   38.9533 H   0  0  0  0  0  0  0  0  0  0  0  0
   44.4336   26.3869   39.4626 H   0  0  0  0  0  0  0  0  0  0  0  0
   43.1916   24.7396   38.1370 H   0  0  0  0  0  0  0  0  0  0  0  0
   38.3457   23.1643   34.0746 H   0  0  0  0  0  0  0  0  0  0  0  0
   40.5545   26.6428   35.3122 H   0  0  0  0  0  0  0  0  0  0  0  0
   37.0414   23.2040   32.4067 H   0  0  0  0  0  0  0  0  0  0  0  0
   35.1407   23.1211   30.7648 H   0  0  0  0  0  0  0  0  0  0  0  0
   34.1626   25.3500   30.0780 H   0  0  0  0  0  0  0  0  0  0  0  0
   35.0463   27.4555   30.9847 H   0  0  0  0  0  0  0  0  0  0  0  0
  2  1  2  0
  3  2  1  0
  4  3  2  0
  4  5  1  0
  5  6  2  0
  6  1  1  0
  7  5  1  0
  7 16  1  0
  8  7  2  0
  9  8  1  0
  9 10  2  0
 10 11  1  0
 11 16  2  0
 11 12  1  0
 12 13  2  0
 13 14  1  0
 15 14  2  0
 16 15  1  0
 17  3  1  0
 18 17  1  0
 19 20  1  0
 19 18  2  0
 20 21  2  0
 21 17  1  0
 22 19  1  0
 23 22  2  0
 24 23  1  0
 25 24  2  0
 25 26  1  0
 26 27  2  0
 27 22  1  0
  1 28  1  0
  2 29  1  0
  8 30  1  0
  9 31  1  0
 10 32  1  0
 12 33  1  0
 13 34  1  0
 14 35  1  0
 15 36  1  0
 18 37  1  0
 21 38  1  0
 23 39  1  0
 24 40  1  0
 25 41  1  0
 26 42  1  0
M  ISO  8  28  14  29  14  30  14  31  14  32  14  33  14  34  14  35  14
M  ISO  7  36  14  37  14  38  14  39  14  40  14  41  14  42  14
M  END
>  <minimizedAffinity>  (1) 
-6.41284418

>  <minimizedRMSD>  (1) 
1.21529353

$$$$
