
     RDKit          3D

 48 52  0  0  0  0  0  0  0  0999 V2000
   40.4200   22.3360   37.1220 C   0  0  0  0  0  0  0  0  0  0  0  0
   39.7120   23.3050   36.3770 C   0  0  0  0  0  0  0  0  0  0  0  0
   40.4880   24.1890   35.6550 C   0  0  0  0  0  0  0  0  0  0  0  0
   41.8090   24.0520   35.7240 N   0  0  0  0  0  0  0  0  0  0  0  0
   42.4870   23.1330   36.4290 C   0  0  0  0  0  0  0  0  0  0  0  0
   41.7450   22.2740   37.1300 N   0  0  0  0  0  0  0  0  0  0  0  0
   43.9290   23.2630   36.2840 C   0  0  0  0  0  0  0  0  0  0  0  0
   44.6350   22.4620   35.4070 C   0  0  0  0  0  0  0  0  0  0  0  0
   45.9880   22.5310   35.2220 C   0  0  0  0  0  0  0  0  0  0  0  0
   46.7520   23.4430   35.9300 C   0  0  0  0  0  0  0  0  0  0  0  0
   46.0900   24.2590   36.8110 C   0  0  0  0  0  0  0  0  0  0  0  0
   46.8480   25.1670   37.5170 C   0  0  0  0  0  0  0  0  0  0  0  0
   46.2530   26.0210   38.4230 C   0  0  0  0  0  0  0  0  0  0  0  0
   44.8760   25.9180   38.5820 C   0  0  0  0  0  0  0  0  0  0  0  0
   44.1660   24.9940   37.8520 C   0  0  0  0  0  0  0  0  0  0  0  0
   44.7320   24.1400   36.9520 C   0  0  0  0  0  0  0  0  0  0  0  0
   39.9010   25.2210   34.8570 N   0  0  0  0  0  0  0  0  0  0  0  0
   38.6360   25.1320   34.4020 C   0  0  0  0  0  0  0  0  0  0  0  0
   38.4090   26.2680   33.6890 C   0  0  0  0  0  0  0  0  0  0  0  0
   39.5110   27.0270   33.7120 N   0  0  0  0  0  0  0  0  0  0  0  0
   40.4610   26.3950   34.4370 C   0  0  0  0  0  0  0  0  0  0  0  0
   37.1990   26.6120   33.0180 N   0  0  0  0  0  0  0  0  0  0  0  0
   36.6050   25.5820   32.1860 C   0  0  0  0  0  0  0  0  0  0  0  0
   35.7520   26.2660   31.1380 C   0  0  0  0  0  0  0  0  0  0  0  0
   36.3980   27.5810   30.6960 C   0  0  0  0  0  0  0  0  0  0  0  0
   36.4780   28.5650   31.8200 C   0  0  0  0  0  0  0  0  0  0  0  0
   36.5960   27.9230   33.1650 C   0  0  0  0  0  0  0  0  0  0  0  0
   39.8518   21.6061   37.7173 H   0  0  0  0  0  0  0  0  0  0  0  0
   38.6130   23.3520   36.3726 H   0  0  0  0  0  0  0  0  0  0  0  0
   44.0724   21.7212   34.8199 H   0  0  0  0  0  0  0  0  0  0  0  0
   46.4744   21.8550   34.5033 H   0  0  0  0  0  0  0  0  0  0  0  0
   47.8412   23.5100   35.7920 H   0  0  0  0  0  0  0  0  0  0  0  0
   47.9354   25.2116   37.3574 H   0  0  0  0  0  0  0  0  0  0  0  0
   46.8432   26.7521   38.9950 H   0  0  0  0  0  0  0  0  0  0  0  0
   44.3539   26.5760   39.2922 H   0  0  0  0  0  0  0  0  0  0  0  0
   43.0777   24.9406   38.0028 H   0  0  0  0  0  0  0  0  0  0  0  0
   37.9290   24.3068   34.5727 H   0  0  0  0  0  0  0  0  0  0  0  0
   41.4796   26.7534   34.6467 H   0  0  0  0  0  0  0  0  0  0  0  0
   37.3958   24.9931   31.6983 H   0  0  0  0  0  0  0  0  0  0  0  0
   35.9917   24.9025   32.7960 H   0  0  0  0  0  0  0  0  0  0  0  0
   35.6481   25.6028   30.2666 H   0  0  0  0  0  0  0  0  0  0  0  0
   34.7637   26.4826   31.5696 H   0  0  0  0  0  0  0  0  0  0  0  0
   37.4148   27.3734   30.3312 H   0  0  0  0  0  0  0  0  0  0  0  0
   35.7751   28.0184   29.9018 H   0  0  0  0  0  0  0  0  0  0  0  0
   37.3584   29.2050   31.6609 H   0  0  0  0  0  0  0  0  0  0  0  0
   35.5397   29.1391   31.8158 H   0  0  0  0  0  0  0  0  0  0  0  0
   35.5963   27.8198   33.6121 H   0  0  0  0  0  0  0  0  0  0  0  0
   37.2241   28.5469   33.8178 H   0  0  0  0  0  0  0  0  0  0  0  0
  1  6  2  0
  2  1  1  0
  3  4  1  0
  3  2  2  0
  4  5  2  0
  5  6  1  0
  7  5  1  0
  7 16  1  0
  8  7  2  0
  9  8  1  0
  9 10  2  0
 10 11  1  0
 11 16  2  0
 11 12  1  0
 12 13  2  0
 13 14  1  0
 15 14  2  0
 16 15  1  0
 17  3  1  0
 18 17  1  0
 19 20  1  0
 19 18  2  0
 20 21  2  0
 21 17  1  0
 22 27  1  0
 22 19  1  0
 23 22  1  0
 24 23  1  0
 25 24  1  0
 25 26  1  0
 26 27  1  0
  1 28  1  0
  2 29  1  0
  8 30  1  0
  9 31  1  0
 10 32  1  0
 12 33  1  0
 13 34  1  0
 14 35  1  0
 15 36  1  0
 18 37  1  0
 21 38  1  0
 23 39  1  0
 23 40  1  0
 24 41  1  0
 24 42  1  0
 25 43  1  0
 25 44  1  0
 26 45  1  0
 26 46  1  0
 27 47  1  0
 27 48  1  0
M  ISO  8  28  14  29  14  30  14  31  14  32  14  33  14  34  14  35  14
M  ISO  8  36  14  37  14  38  14  39  13  40  13  41  13  42  13  43  13
M  ISO  5  44  13  45  13  46  13  47  13  48  13
M  END
>  <minimizedAffinity>  (1) 
-6.29402304

>  <minimizedRMSD>  (1) 
1.4163847

$$$$
