
     RDKit          3D

 44 49  0  0  0  0  0  0  0  0999 V2000
   40.6490   22.2170   37.1560 C   0  0  0  0  0  0  0  0  0  0  0  0
   39.9320   23.1950   36.4410 C   0  0  0  0  0  0  0  0  0  0  0  0
   40.6930   24.0880   35.7230 C   0  0  0  0  0  0  0  0  0  0  0  0
   42.0170   23.9440   35.7700 N   0  0  0  0  0  0  0  0  0  0  0  0
   42.7060   23.0220   36.4430 C   0  0  0  0  0  0  0  0  0  0  0  0
   41.9730   22.1600   37.1380 N   0  0  0  0  0  0  0  0  0  0  0  0
   44.1460   23.1520   36.2780 C   0  0  0  0  0  0  0  0  0  0  0  0
   44.8490   22.3440   35.4160 C   0  0  0  0  0  0  0  0  0  0  0  0
   46.2060   22.4190   35.2180 C   0  0  0  0  0  0  0  0  0  0  0  0
   46.9620   23.3510   35.9040 C   0  0  0  0  0  0  0  0  0  0  0  0
   46.3060   24.1770   36.7730 C   0  0  0  0  0  0  0  0  0  0  0  0
   47.0620   25.0970   37.4500 C   0  0  0  0  0  0  0  0  0  0  0  0
   46.4780   25.9730   38.3480 C   0  0  0  0  0  0  0  0  0  0  0  0
   45.1040   25.8710   38.5260 C   0  0  0  0  0  0  0  0  0  0  0  0
   44.3930   24.9280   37.8200 C   0  0  0  0  0  0  0  0  0  0  0  0
   44.9580   24.0540   36.9270 C   0  0  0  0  0  0  0  0  0  0  0  0
   40.0880   25.1430   34.9430 N   0  0  0  0  0  0  0  0  0  0  0  0
   38.9230   24.9510   34.3100 C   0  0  0  0  0  0  0  0  0  0  0  0
   38.6510   26.1390   33.6800 C   0  0  0  0  0  0  0  0  0  0  0  0
   39.6320   27.0080   33.9370 N   0  0  0  0  0  0  0  0  0  0  0  0
   40.5460   26.4010   34.7290 C   0  0  0  0  0  0  0  0  0  0  0  0
   37.5640   26.5540   32.8580 N   0  0  0  0  0  0  0  0  0  0  0  0
   37.1070   27.7960   32.5270 C   0  0  0  0  0  0  0  0  0  0  0  0
   36.0400   27.6710   31.7120 N   0  0  0  0  0  0  0  0  0  0  0  0
   35.8100   26.3620   31.5180 C   0  0  0  0  0  0  0  0  0  0  0  0
   34.8330   25.7710   30.7650 C   0  0  0  0  0  0  0  0  0  0  0  0
   34.7980   24.4060   30.7190 N   0  0  0  0  0  0  0  0  0  0  0  0
   35.7370   23.7410   31.4250 C   0  0  0  0  0  0  0  0  0  0  0  0
   36.6940   24.3130   32.1630 N   0  0  0  0  0  0  0  0  0  0  0  0
   36.7540   25.6640   32.2270 C   0  0  0  0  0  0  0  0  0  0  0  0
   40.0924   21.4762   37.7488 H   0  0  0  0  0  0  0  0  0  0  0  0
   38.8331   23.2421   36.4556 H   0  0  0  0  0  0  0  0  0  0  0  0
   44.2878   21.5878   34.8476 H   0  0  0  0  0  0  0  0  0  0  0  0
   46.6940   21.7335   34.5095 H   0  0  0  0  0  0  0  0  0  0  0  0
   48.0495   23.4250   35.7562 H   0  0  0  0  0  0  0  0  0  0  0  0
   48.1475   25.1400   37.2776 H   0  0  0  0  0  0  0  0  0  0  0  0
   47.0749   26.7167   38.8963 H   0  0  0  0  0  0  0  0  0  0  0  0
   44.5867   26.5412   39.2283 H   0  0  0  0  0  0  0  0  0  0  0  0
   43.3064   24.8718   37.9816 H   0  0  0  0  0  0  0  0  0  0  0  0
   38.3138   24.0352   34.2979 H   0  0  0  0  0  0  0  0  0  0  0  0
   41.4751   26.8405   35.1209 H   0  0  0  0  0  0  0  0  0  0  0  0
   37.5397   28.7473   32.8701 H   0  0  0  0  0  0  0  0  0  0  0  0
   34.0982   26.3760   30.2135 H   0  0  0  0  0  0  0  0  0  0  0  0
   35.7129   22.6418   31.3904 H   0  0  0  0  0  0  0  0  0  0  0  0
  2  1  2  0
  3  4  2  0
  3  2  1  0
  4  5  1  0
  5  6  2  0
  6  1  1  0
  7  5  1  0
  7 16  1  0
  8  7  2  0
  9  8  1  0
  9 10  2  0
 10 11  1  0
 11 16  2  0
 11 12  1  0
 12 13  2  0
 13 14  1  0
 15 14  2  0
 16 15  1  0
 17  3  1  0
 18 17  1  0
 19 20  1  0
 19 18  2  0
 20 21  2  0
 21 17  1  0
 22 19  1  0
 23 22  1  0
 24 23  2  0
 25 24  1  0
 25 30  2  0
 26 25  1  0
 27 26  2  0
 27 28  1  0
 28 29  2  0
 29 30  1  0
 30 22  1  0
  1 31  1  0
  2 32  1  0
  8 33  1  0
  9 34  1  0
 10 35  1  0
 12 36  1  0
 13 37  1  0
 14 38  1  0
 15 39  1  0
 18 40  1  0
 21 41  1  0
 23 42  1  0
 26 43  1  0
 28 44  1  0
M  ISO  8  31  14  32  14  33  14  34  14  35  14  36  14  37  14  38  14
M  ISO  6  39  14  40  14  41  14  42  14  43  14  44  14
M  END
>  <minimizedAffinity>  (1) 
-6.73595953

>  <minimizedRMSD>  (1) 
1.05369449

$$$$
