
     RDKit          3D

 45 49  0  0  0  0  0  0  0  0999 V2000
   40.1580   22.5870   37.5700 C   0  0  0  0  0  0  0  0  0  0  0  0
   39.4290   23.3650   36.6560 C   0  0  0  0  0  0  0  0  0  0  0  0
   40.1710   23.9960   35.6780 C   0  0  0  0  0  0  0  0  0  0  0  0
   41.5010   23.8200   35.6810 N   0  0  0  0  0  0  0  0  0  0  0  0
   42.1990   23.0760   36.5550 C   0  0  0  0  0  0  0  0  0  0  0  0
   41.4820   22.4600   37.5070 N   0  0  0  0  0  0  0  0  0  0  0  0
   43.6330   23.0880   36.2880 C   0  0  0  0  0  0  0  0  0  0  0  0
   44.2040   22.1800   35.4310 C   0  0  0  0  0  0  0  0  0  0  0  0
   45.5460   22.1430   35.1410 C   0  0  0  0  0  0  0  0  0  0  0  0
   46.4140   23.0470   35.7170 C   0  0  0  0  0  0  0  0  0  0  0  0
   45.8840   23.9740   36.5810 C   0  0  0  0  0  0  0  0  0  0  0  0
   46.7490   24.8760   37.1540 C   0  0  0  0  0  0  0  0  0  0  0  0
   46.2960   25.8290   38.0230 C   0  0  0  0  0  0  0  0  0  0  0  0
   44.9330   25.8400   38.2980 C   0  0  0  0  0  0  0  0  0  0  0  0
   44.1080   24.9160   37.6980 C   0  0  0  0  0  0  0  0  0  0  0  0
   44.5430   23.9590   36.8270 C   0  0  0  0  0  0  0  0  0  0  0  0
   39.5510   24.8240   34.6760 N   0  0  0  0  0  0  0  0  0  0  0  0
   38.6450   24.3400   33.8320 C   0  0  0  0  0  0  0  0  0  0  0  0
   38.2780   25.3810   33.0360 C   0  0  0  0  0  0  0  0  0  0  0  0
   38.9530   26.4640   33.3990 N   0  0  0  0  0  0  0  0  0  0  0  0
   39.7700   26.1500   34.4350 C   0  0  0  0  0  0  0  0  0  0  0  0
   37.3180   25.2980   31.9850 N   0  0  0  0  0  0  0  0  0  0  0  0
   36.5100   24.1600   31.6090 C   0  0  0  0  0  0  0  0  0  0  0  0
   35.2230   24.8000   31.0780 C   0  0  0  0  0  0  0  0  0  0  0  0
   35.4270   26.2980   31.1870 C   0  0  0  0  0  0  0  0  0  0  0  0
   36.9480   26.3720   31.0520 C   0  0  0  0  0  0  0  0  0  0  0  0
   39.6141   22.0621   38.3691 H   0  0  0  0  0  0  0  0  0  0  0  0
   38.3352   23.4653   36.7157 H   0  0  0  0  0  0  0  0  0  0  0  0
   43.5489   21.4395   34.9488 H   0  0  0  0  0  0  0  0  0  0  0  0
   45.9321   21.3855   34.4430 H   0  0  0  0  0  0  0  0  0  0  0  0
   47.4907   23.0264   35.4928 H   0  0  0  0  0  0  0  0  0  0  0  0
   47.8206   24.8302   36.9098 H   0  0  0  0  0  0  0  0  0  0  0  0
   46.9803   26.5559   38.4849 H   0  0  0  0  0  0  0  0  0  0  0  0
   44.5158   26.5842   38.9923 H   0  0  0  0  0  0  0  0  0  0  0  0
   43.0343   24.9507   37.9344 H   0  0  0  0  0  0  0  0  0  0  0  0
   38.2684   23.3075   33.7863 H   0  0  0  0  0  0  0  0  0  0  0  0
   40.4611   26.8201   34.9672 H   0  0  0  0  0  0  0  0  0  0  0  0
   37.0060   23.5659   30.8273 H   0  0  0  0  0  0  0  0  0  0  0  0
   36.3322   23.4646   32.4426 H   0  0  0  0  0  0  0  0  0  0  0  0
   34.3611   24.4862   31.6852 H   0  0  0  0  0  0  0  0  0  0  0  0
   35.0189   24.4951   30.0410 H   0  0  0  0  0  0  0  0  0  0  0  0
   34.9187   26.8389   30.3752 H   0  0  0  0  0  0  0  0  0  0  0  0
   35.0213   26.7545   32.1019 H   0  0  0  0  0  0  0  0  0  0  0  0
   37.2812   26.1588   30.0256 H   0  0  0  0  0  0  0  0  0  0  0  0
   37.3930   27.3553   31.2644 H   0  0  0  0  0  0  0  0  0  0  0  0
  2  1  2  0
  3  4  2  0
  3  2  1  0
  4  5  1  0
  5  6  2  0
  6  1  1  0
  7  5  1  0
  7 16  1  0
  8  7  2  0
  9  8  1  0
  9 10  2  0
 10 11  1  0
 11 16  2  0
 11 12  1  0
 12 13  2  0
 13 14  1  0
 15 14  2  0
 16 15  1  0
 17  3  1  0
 18 17  1  0
 19 20  1  0
 19 18  2  0
 20 21  2  0
 21 17  1  0
 22 19  1  0
 23 22  1  0
 24 25  1  0
 24 23  1  0
 26 25  1  0
 26 22  1  0
  1 27  1  0
  2 28  1  0
  8 29  1  0
  9 30  1  0
 10 31  1  0
 12 32  1  0
 13 33  1  0
 14 34  1  0
 15 35  1  0
 18 36  1  0
 21 37  1  0
 23 38  1  0
 23 39  1  0
 24 40  1  0
 24 41  1  0
 25 42  1  0
 25 43  1  0
 26 44  1  0
 26 45  1  0
M  ISO  8  27  14  28  14  29  14  30  14  31  14  32  14  33  14  34  14
M  ISO  8  35  14  36  14  37  14  38  13  39  13  40  13  41  13  42  13
M  ISO  3  43  13  44  13  45  13
M  END
>  <minimizedAffinity>  (1) 
-6.00176573

>  <minimizedRMSD>  (1) 
0.788358092

$$$$
