
     RDKit          3D

 36 39  0  0  0  0  0  0  0  0999 V2000
   40.2550   22.7110   36.9630 C   0  0  0  0  0  0  0  0  0  0  0  0
   39.6600   23.6310   36.0850 C   0  0  0  0  0  0  0  0  0  0  0  0
   40.5250   24.3970   35.3200 C   0  0  0  0  0  0  0  0  0  0  0  0
   41.8400   24.1880   35.4890 N   0  0  0  0  0  0  0  0  0  0  0  0
   42.4070   23.3080   36.3280 C   0  0  0  0  0  0  0  0  0  0  0  0
   41.5700   22.5720   37.0630 N   0  0  0  0  0  0  0  0  0  0  0  0
   43.8590   23.3380   36.2620 C   0  0  0  0  0  0  0  0  0  0  0  0
   44.5560   22.4880   35.4290 C   0  0  0  0  0  0  0  0  0  0  0  0
   45.9290   22.4700   35.3230 C   0  0  0  0  0  0  0  0  0  0  0  0
   46.6970   23.3240   36.0640 C   0  0  0  0  0  0  0  0  0  0  0  0
   46.0490   24.1910   36.9090 C   0  0  0  0  0  0  0  0  0  0  0  0
   46.8220   25.0530   37.6570 C   0  0  0  0  0  0  0  0  0  0  0  0
   46.2480   25.9460   38.5210 C   0  0  0  0  0  0  0  0  0  0  0  0
   44.8590   25.9460   38.6100 C   0  0  0  0  0  0  0  0  0  0  0  0
   44.1270   25.0580   37.8360 C   0  0  0  0  0  0  0  0  0  0  0  0
   44.6850   24.1710   36.9790 C   0  0  0  0  0  0  0  0  0  0  0  0
   40.0440   25.3710   34.3890 N   0  0  0  0  0  0  0  0  0  0  0  0
   39.1430   25.0600   33.4660 C   0  0  0  0  0  0  0  0  0  0  0  0
   38.9220   26.2170   32.7650 C   0  0  0  0  0  0  0  0  0  0  0  0
   39.6810   27.1880   33.2680 N   0  0  0  0  0  0  0  0  0  0  0  0
   40.3990   26.6830   34.2930 C   0  0  0  0  0  0  0  0  0  0  0  0
   38.0080   26.4810   31.6050 C   0  0  0  0  0  0  0  0  0  0  0  0
   39.6065   22.0824   37.5910 H   0  0  0  0  0  0  0  0  0  0  0  0
   38.5679   23.7378   36.0086 H   0  0  0  0  0  0  0  0  0  0  0  0
   43.9806   21.7820   34.8122 H   0  0  0  0  0  0  0  0  0  0  0  0
   46.4126   21.7610   34.6349 H   0  0  0  0  0  0  0  0  0  0  0  0
   47.7942   23.3170   35.9863 H   0  0  0  0  0  0  0  0  0  0  0  0
   47.9171   25.0227   37.5580 H   0  0  0  0  0  0  0  0  0  0  0  0
   46.8598   26.6359   39.1208 H   0  0  0  0  0  0  0  0  0  0  0  0
   44.3464   26.6441   39.2882 H   0  0  0  0  0  0  0  0  0  0  0  0
   43.0306   25.0754   37.9235 H   0  0  0  0  0  0  0  0  0  0  0  0
   38.6724   24.0799   33.2986 H   0  0  0  0  0  0  0  0  0  0  0  0
   41.1231   27.2208   34.9226 H   0  0  0  0  0  0  0  0  0  0  0  0
   37.0142   26.7680   31.9792 H   0  0  0  0  0  0  0  0  0  0  0  0
   38.4190   27.2971   30.9927 H   0  0  0  0  0  0  0  0  0  0  0  0
   37.9206   25.5714   30.9927 H   0  0  0  0  0  0  0  0  0  0  0  0
  1  6  2  0
  2  1  1  0
  3  4  1  0
  3  2  2  0
  4  5  2  0
  5  6  1  0
  7  5  1  0
  7 16  1  0
  8  7  2  0
  9  8  1  0
  9 10  2  0
 10 11  1  0
 11 16  2  0
 11 12  1  0
 12 13  2  0
 13 14  1  0
 15 14  2  0
 16 15  1  0
 17  3  1  0
 18 17  1  0
 19 20  1  0
 19 18  2  0
 20 21  2  0
 21 17  1  0
 22 19  1  0
  1 23  1  0
  2 24  1  0
  8 25  1  0
  9 26  1  0
 10 27  1  0
 12 28  1  0
 13 29  1  0
 14 30  1  0
 15 31  1  0
 18 32  1  0
 21 33  1  0
 22 34  1  0
 22 35  1  0
 22 36  1  0
M  ISO  8  23  14  24  14  25  14  26  14  27  14  28  14  29  14  30  14
M  ISO  6  31  14  32  14  33  14  34   8  35   8  36   8
M  END
>  <minimizedAffinity>  (1) 
-5.26447201

>  <minimizedRMSD>  (1) 
0.241481707

$$$$
