
     RDKit          3D

 45 48  0  0  0  0  0  0  0  0999 V2000
   40.3820   22.4710   36.9690 C   0  0  0  0  0  0  0  0  0  0  0  0
   39.7440   23.4650   36.1950 C   0  0  0  0  0  0  0  0  0  0  0  0
   40.5860   24.3230   35.5130 C   0  0  0  0  0  0  0  0  0  0  0  0
   41.9100   24.1330   35.6470 N   0  0  0  0  0  0  0  0  0  0  0  0
   42.5120   23.1920   36.3790 C   0  0  0  0  0  0  0  0  0  0  0  0
   41.7040   22.3620   37.0390 N   0  0  0  0  0  0  0  0  0  0  0  0
   43.9620   23.2670   36.3050 C   0  0  0  0  0  0  0  0  0  0  0  0
   44.6740   22.4220   35.4820 C   0  0  0  0  0  0  0  0  0  0  0  0
   46.0440   22.4430   35.3670 C   0  0  0  0  0  0  0  0  0  0  0  0
   46.7940   23.3410   36.0970 C   0  0  0  0  0  0  0  0  0  0  0  0
   46.1180   24.1920   36.9230 C   0  0  0  0  0  0  0  0  0  0  0  0
   46.8730   25.0930   37.6540 C   0  0  0  0  0  0  0  0  0  0  0  0
   46.2680   25.9910   38.5150 C   0  0  0  0  0  0  0  0  0  0  0  0
   44.8820   25.9350   38.6000 C   0  0  0  0  0  0  0  0  0  0  0  0
   44.1770   25.0190   37.8490 C   0  0  0  0  0  0  0  0  0  0  0  0
   44.7580   24.1320   37.0010 C   0  0  0  0  0  0  0  0  0  0  0  0
   40.0710   25.3830   34.6870 N   0  0  0  0  0  0  0  0  0  0  0  0
   38.8330   25.3530   34.2110 C   0  0  0  0  0  0  0  0  0  0  0  0
   38.7040   26.5060   33.4820 C   0  0  0  0  0  0  0  0  0  0  0  0
   39.8350   27.2010   33.5250 N   0  0  0  0  0  0  0  0  0  0  0  0
   40.7250   26.5130   34.2830 C   0  0  0  0  0  0  0  0  0  0  0  0
   37.4910   26.9540   32.7360 C   0  0  0  0  0  0  0  0  0  0  0  0
   37.8670   27.8260   31.5300 C   0  0  0  0  0  0  0  0  0  0  0  0
   36.6530   25.8120   32.2350 C   0  0  0  0  0  0  0  0  0  0  0  0
   36.7090   27.8250   33.7260 C   0  0  0  0  0  0  0  0  0  0  0  0
   39.7613   21.7607   37.5349 H   0  0  0  0  0  0  0  0  0  0  0  0
   38.6488   23.5508   36.1386 H   0  0  0  0  0  0  0  0  0  0  0  0
   44.1145   21.6887   34.8827 H   0  0  0  0  0  0  0  0  0  0  0  0
   46.5456   21.7382   34.6876 H   0  0  0  0  0  0  0  0  0  0  0  0
   47.8907   23.3703   36.0171 H   0  0  0  0  0  0  0  0  0  0  0  0
   47.9680   25.0950   37.5489 H   0  0  0  0  0  0  0  0  0  0  0  0
   46.8543   26.7128   39.1026 H   0  0  0  0  0  0  0  0  0  0  0  0
   44.3457   26.6241   39.2689 H   0  0  0  0  0  0  0  0  0  0  0  0
   43.0810   25.0059   37.9420 H   0  0  0  0  0  0  0  0  0  0  0  0
   38.0745   24.5719   34.3676 H   0  0  0  0  0  0  0  0  0  0  0  0
   41.7584   26.8041   34.5227 H   0  0  0  0  0  0  0  0  0  0  0  0
   38.2794   28.7825   31.8835 H   0  0  0  0  0  0  0  0  0  0  0  0
   38.6202   27.3046   30.9211 H   0  0  0  0  0  0  0  0  0  0  0  0
   36.9708   28.0158   30.9211 H   0  0  0  0  0  0  0  0  0  0  0  0
   36.2439   25.2545   33.0905 H   0  0  0  0  0  0  0  0  0  0  0  0
   35.8267   26.2041   31.6239 H   0  0  0  0  0  0  0  0  0  0  0  0
   37.2749   25.1414   31.6239 H   0  0  0  0  0  0  0  0  0  0  0  0
   36.9694   27.5350   34.7546 H   0  0  0  0  0  0  0  0  0  0  0  0
   36.9666   28.8825   33.5669 H   0  0  0  0  0  0  0  0  0  0  0  0
   35.6299   27.6825   33.5669 H   0  0  0  0  0  0  0  0  0  0  0  0
  1  6  2  0
  2  1  1  0
  3  4  1  0
  3  2  2  0
  4  5  2  0
  5  6  1  0
  7  5  1  0
  7 16  1  0
  8  7  2  0
  9  8  1  0
  9 10  2  0
 10 11  1  0
 11 16  2  0
 11 12  1  0
 12 13  2  0
 13 14  1  0
 15 14  2  0
 16 15  1  0
 17  3  1  0
 18 17  1  0
 19 20  1  0
 19 18  2  0
 20 21  2  0
 21 17  1  0
 22 19  1  0
 22 25  1  0
 23 22  1  0
 24 22  1  0
  1 26  1  0
  2 27  1  0
  8 28  1  0
  9 29  1  0
 10 30  1  0
 12 31  1  0
 13 32  1  0
 14 33  1  0
 15 34  1  0
 18 35  1  0
 21 36  1  0
 23 37  1  0
 23 38  1  0
 23 39  1  0
 24 40  1  0
 24 41  1  0
 24 42  1  0
 25 43  1  0
 25 44  1  0
 25 45  1  0
M  ISO  8  26  14  27  14  28  14  29  14  30  14  31  14  32  14  33  14
M  ISO  8  34  14  35  14  36  14  37   8  38   8  39   8  40   8  41   8
M  ISO  4  42   8  43   8  44   8  45   8
M  END
>  <minimizedAffinity>  (1) 
-5.90920591

>  <minimizedRMSD>  (1) 
0.814444065

$$$$
