
     RDKit          3D

 38 42  0  0  0  0  0  0  0  0999 V2000
   40.1850   22.5990   37.5690 C   0  0  0  0  0  0  0  0  0  0  0  0
   39.4320   23.3420   36.6350 C   0  0  0  0  0  0  0  0  0  0  0  0
   40.1570   23.9610   35.6330 C   0  0  0  0  0  0  0  0  0  0  0  0
   41.4850   23.7970   35.6460 N   0  0  0  0  0  0  0  0  0  0  0  0
   42.1970   23.0920   36.5310 C   0  0  0  0  0  0  0  0  0  0  0  0
   41.5060   22.4970   37.4950 N   0  0  0  0  0  0  0  0  0  0  0  0
   43.6210   23.1270   36.2460 C   0  0  0  0  0  0  0  0  0  0  0  0
   44.1980   22.2540   35.3530 C   0  0  0  0  0  0  0  0  0  0  0  0
   45.5440   22.2380   35.0420 C   0  0  0  0  0  0  0  0  0  0  0  0
   46.4050   23.1270   35.6290 C   0  0  0  0  0  0  0  0  0  0  0  0
   45.8780   24.0190   36.5270 C   0  0  0  0  0  0  0  0  0  0  0  0
   46.7410   24.9060   37.1120 C   0  0  0  0  0  0  0  0  0  0  0  0
   46.2970   25.8450   38.0320 C   0  0  0  0  0  0  0  0  0  0  0  0
   44.9310   25.8340   38.3260 C   0  0  0  0  0  0  0  0  0  0  0  0
   44.1060   24.9110   37.7010 C   0  0  0  0  0  0  0  0  0  0  0  0
   44.5420   23.9900   36.7960 C   0  0  0  0  0  0  0  0  0  0  0  0
   39.5110   24.7530   34.6120 N   0  0  0  0  0  0  0  0  0  0  0  0
   38.3240   24.4100   34.1290 C   0  0  0  0  0  0  0  0  0  0  0  0
   38.0260   25.3730   33.1950 C   0  0  0  0  0  0  0  0  0  0  0  0
   39.0210   26.2590   33.1360 N   0  0  0  0  0  0  0  0  0  0  0  0
   39.9680   25.8820   34.0260 C   0  0  0  0  0  0  0  0  0  0  0  0
   36.8660   25.5470   32.3280 C   0  0  0  0  0  0  0  0  0  0  0  0
   36.1510   26.5610   31.8080 N   0  0  0  0  0  0  0  0  0  0  0  0
   35.1880   26.0830   31.0790 O   0  0  0  0  0  0  0  0  0  0  0  0
   35.2490   24.7540   31.1000 C   0  0  0  0  0  0  0  0  0  0  0  0
   36.2990   24.4000   31.8820 N   0  0  0  0  0  0  0  0  0  0  0  0
   39.6583   22.0863   38.3873 H   0  0  0  0  0  0  0  0  0  0  0  0
   38.3370   23.4237   36.6998 H   0  0  0  0  0  0  0  0  0  0  0  0
   43.5458   21.5217   34.8546 H   0  0  0  0  0  0  0  0  0  0  0  0
   45.9275   21.5051   34.3168 H   0  0  0  0  0  0  0  0  0  0  0  0
   47.4785   23.1253   35.3890 H   0  0  0  0  0  0  0  0  0  0  0  0
   47.8082   24.8737   36.8474 H   0  0  0  0  0  0  0  0  0  0  0  0
   46.9848   26.5611   38.5054 H   0  0  0  0  0  0  0  0  0  0  0  0
   44.5134   26.5517   39.0474 H   0  0  0  0  0  0  0  0  0  0  0  0
   43.0348   24.9230   37.9508 H   0  0  0  0  0  0  0  0  0  0  0  0
   37.7109   23.5424   34.4144 H   0  0  0  0  0  0  0  0  0  0  0  0
   40.9203   26.3927   34.2317 H   0  0  0  0  0  0  0  0  0  0  0  0
   34.5693   24.0655   30.5766 H   0  0  0  0  0  0  0  0  0  0  0  0
  2  1  2  0
  3  4  2  0
  3  2  1  0
  4  5  1  0
  5  6  2  0
  6  1  1  0
  7  5  1  0
  7 16  1  0
  8  7  2  0
  9  8  1  0
  9 10  2  0
 10 11  1  0
 11 16  2  0
 11 12  1  0
 12 13  2  0
 13 14  1  0
 15 14  2  0
 16 15  1  0
 17  3  1  0
 18 17  1  0
 19 18  2  0
 20 19  1  0
 20 21  2  0
 21 17  1  0
 22 19  1  0
 23 22  2  0
 24 25  1  0
 24 23  1  0
 25 26  2  0
 26 22  1  0
  1 27  1  0
  2 28  1  0
  8 29  1  0
  9 30  1  0
 10 31  1  0
 12 32  1  0
 13 33  1  0
 14 34  1  0
 15 35  1  0
 18 36  1  0
 21 37  1  0
 25 38  1  0
M  ISO  8  27  14  28  14  29  14  30  14  31  14  32  14  33  14  34  14
M  ISO  4  35  14  36  14  37  14  38  14
M  END
>  <minimizedAffinity>  (1) 
-5.99124289

>  <minimizedRMSD>  (1) 
1.1374445

$$$$
