
     RDKit          3D

 34 37  0  0  0  0  0  0  0  0999 V2000
   40.2580   22.7040   36.9710 C   0  0  0  0  0  0  0  0  0  0  0  0
   39.6560   23.6250   36.1010 C   0  0  0  0  0  0  0  0  0  0  0  0
   40.5140   24.3930   35.3390 C   0  0  0  0  0  0  0  0  0  0  0  0
   41.8260   24.1880   35.5000 N   0  0  0  0  0  0  0  0  0  0  0  0
   42.4080   23.3170   36.3240 C   0  0  0  0  0  0  0  0  0  0  0  0
   41.5750   22.5660   37.0690 N   0  0  0  0  0  0  0  0  0  0  0  0
   43.8610   23.3470   36.2550 C   0  0  0  0  0  0  0  0  0  0  0  0
   44.5540   22.4910   35.4120 C   0  0  0  0  0  0  0  0  0  0  0  0
   45.9190   22.4750   35.3060 C   0  0  0  0  0  0  0  0  0  0  0  0
   46.6900   23.3300   36.0520 C   0  0  0  0  0  0  0  0  0  0  0  0
   46.0480   24.1910   36.8970 C   0  0  0  0  0  0  0  0  0  0  0  0
   46.8280   25.0480   37.6460 C   0  0  0  0  0  0  0  0  0  0  0  0
   46.2490   25.9430   38.5190 C   0  0  0  0  0  0  0  0  0  0  0  0
   44.8600   25.9420   38.6100 C   0  0  0  0  0  0  0  0  0  0  0  0
   44.1270   25.0620   37.8380 C   0  0  0  0  0  0  0  0  0  0  0  0
   44.6840   24.1790   36.9770 C   0  0  0  0  0  0  0  0  0  0  0  0
   40.0340   25.3730   34.4100 N   0  0  0  0  0  0  0  0  0  0  0  0
   39.0260   25.1000   33.5640 C   0  0  0  0  0  0  0  0  0  0  0  0
   38.8350   26.2460   32.8360 C   0  0  0  0  0  0  0  0  0  0  0  0
   39.7110   27.1700   33.2480 N   0  0  0  0  0  0  0  0  0  0  0  0
   40.4700   26.6470   34.2310 C   0  0  0  0  0  0  0  0  0  0  0  0
   37.8490   26.3230   31.8460 O   0  0  0  0  0  0  0  0  0  0  0  0
   39.6129   22.0704   37.5975 H   0  0  0  0  0  0  0  0  0  0  0  0
   38.5633   23.7294   36.0299 H   0  0  0  0  0  0  0  0  0  0  0  0
   43.9759   21.7871   34.7954 H   0  0  0  0  0  0  0  0  0  0  0  0
   46.4027   21.7688   34.6151 H   0  0  0  0  0  0  0  0  0  0  0  0
   47.7871   23.3228   35.9727 H   0  0  0  0  0  0  0  0  0  0  0  0
   47.9229   25.0164   37.5451 H   0  0  0  0  0  0  0  0  0  0  0  0
   46.8606   26.6315   39.1206 H   0  0  0  0  0  0  0  0  0  0  0  0
   44.3494   26.6375   39.2923 H   0  0  0  0  0  0  0  0  0  0  0  0
   43.0308   25.0799   37.9279 H   0  0  0  0  0  0  0  0  0  0  0  0
   38.4704   24.1548   33.4744 H   0  0  0  0  0  0  0  0  0  0  0  0
   41.2802   27.1507   34.7786 H   0  0  0  0  0  0  0  0  0  0  0  0
   37.2736   25.5395   31.6585 H   0  0  0  0  0  0  0  0  0  0  0  0
  1  6  2  0
  2  1  1  0
  3  4  1  0
  3  2  2  0
  4  5  2  0
  5  6  1  0
  7  5  1  0
  7 16  1  0
  8  7  2  0
  9  8  1  0
  9 10  2  0
 10 11  1  0
 11 16  2  0
 11 12  1  0
 12 13  2  0
 13 14  1  0
 15 14  2  0
 16 15  1  0
 17  3  1  0
 18 17  1  0
 19 20  1  0
 19 18  2  0
 20 21  2  0
 21 17  1  0
 22 19  1  0
  1 23  1  0
  2 24  1  0
  8 25  1  0
  9 26  1  0
 10 27  1  0
 12 28  1  0
 13 29  1  0
 14 30  1  0
 15 31  1  0
 18 32  1  0
 21 33  1  0
 22 34  1  0
M  ISO  8  23  14  24  14  25  14  26  14  27  14  28  14  29  14  30  14
M  ISO  4  31  14  32  14  33  14  34   3
M  END
>  <minimizedAffinity>  (1) 
-5.22946453

>  <minimizedRMSD>  (1) 
0.27428177

$$$$
