
     RDKit          3D

 35 38  0  0  0  0  0  0  0  0999 V2000
   40.1940   22.6540   37.1350 C   0  0  0  0  0  0  0  0  0  0  0  0
   39.5840   23.5800   36.2660 C   0  0  0  0  0  0  0  0  0  0  0  0
   40.4350   24.3020   35.4660 C   0  0  0  0  0  0  0  0  0  0  0  0
   41.7500   24.0670   35.5810 N   0  0  0  0  0  0  0  0  0  0  0  0
   42.3420   23.1920   36.4020 C   0  0  0  0  0  0  0  0  0  0  0  0
   41.5150   22.4840   37.1850 N   0  0  0  0  0  0  0  0  0  0  0  0
   43.7920   23.1850   36.2770 C   0  0  0  0  0  0  0  0  0  0  0  0
   44.4340   22.2760   35.4700 C   0  0  0  0  0  0  0  0  0  0  0  0
   45.7980   22.2250   35.3170 C   0  0  0  0  0  0  0  0  0  0  0  0
   46.6140   23.1080   35.9830 C   0  0  0  0  0  0  0  0  0  0  0  0
   46.0160   24.0290   36.7960 C   0  0  0  0  0  0  0  0  0  0  0  0
   46.8280   24.9140   37.4640 C   0  0  0  0  0  0  0  0  0  0  0  0
   46.3150   25.8690   38.3000 C   0  0  0  0  0  0  0  0  0  0  0  0
   44.9230   25.8980   38.4370 C   0  0  0  0  0  0  0  0  0  0  0  0
   44.1480   24.9950   37.7510 C   0  0  0  0  0  0  0  0  0  0  0  0
   44.6490   24.0450   36.9210 C   0  0  0  0  0  0  0  0  0  0  0  0
   39.9510   25.2800   34.5330 N   0  0  0  0  0  0  0  0  0  0  0  0
   39.2190   24.9360   33.4810 C   0  0  0  0  0  0  0  0  0  0  0  0
   38.9270   26.0910   32.8080 C   0  0  0  0  0  0  0  0  0  0  0  0
   39.4840   27.1050   33.4600 N   0  0  0  0  0  0  0  0  0  0  0  0
   40.1340   26.6220   34.5490 C   0  0  0  0  0  0  0  0  0  0  0  0
   38.1660   26.2140   31.6210 N   0  0  0  0  0  0  0  0  0  0  0  0
   39.5566   22.0490   37.7966 H   0  0  0  0  0  0  0  0  0  0  0  0
   38.4930   23.7163   36.2305 H   0  0  0  0  0  0  0  0  0  0  0  0
   43.8215   21.5493   34.9162 H   0  0  0  0  0  0  0  0  0  0  0  0
   46.2426   21.4685   34.6536 H   0  0  0  0  0  0  0  0  0  0  0  0
   47.7072   23.0745   35.8659 H   0  0  0  0  0  0  0  0  0  0  0  0
   47.9173   24.8535   37.3234 H   0  0  0  0  0  0  0  0  0  0  0  0
   46.9638   26.5771   38.8364 H   0  0  0  0  0  0  0  0  0  0  0  0
   44.4497   26.6431   39.0934 H   0  0  0  0  0  0  0  0  0  0  0  0
   43.0570   25.0446   37.8820 H   0  0  0  0  0  0  0  0  0  0  0  0
   38.9070   23.9183   33.2034 H   0  0  0  0  0  0  0  0  0  0  0  0
   40.6963   27.2033   35.2946 H   0  0  0  0  0  0  0  0  0  0  0  0
   37.7669   25.3753   31.1759 H   0  0  0  0  0  0  0  0  0  0  0  0
   38.0113   27.1423   31.2023 H   0  0  0  0  0  0  0  0  0  0  0  0
  1  6  2  0
  2  1  1  0
  3  4  1  0
  3  2  2  0
  4  5  2  0
  5  6  1  0
  7  5  1  0
  7 16  1  0
  8  7  2  0
  9  8  1  0
  9 10  2  0
 10 11  1  0
 11 16  2  0
 11 12  1  0
 12 13  2  0
 13 14  1  0
 15 14  2  0
 16 15  1  0
 17 21  1  0
 17  3  1  0
 18 17  1  0
 19 20  1  0
 19 18  2  0
 20 21  2  0
 22 19  1  0
  1 23  1  0
  2 24  1  0
  8 25  1  0
  9 26  1  0
 10 27  1  0
 12 28  1  0
 13 29  1  0
 14 30  1  0
 15 31  1  0
 18 32  1  0
 21 33  1  0
 22 34  1  0
 22 35  1  0
M  ISO  8  23  14  24  14  25  14  26  14  27  14  28  14  29  14  30  14
M  ISO  3  31  14  32  14  33  14
M  END
>  <minimizedAffinity>  (1) 
-5.24398136

>  <minimizedRMSD>  (1) 
0.0472999737

$$$$
