
     RDKit          3D

 39 42  0  0  0  0  0  0  0  0999 V2000
   39.3230   23.0090   37.9880 C   0  0  0  0  0  0  0  0  0  0  0  0
   38.5330   23.6740   37.0340 C   0  0  0  0  0  0  0  0  0  0  0  0
   39.1390   23.9240   35.8030 C   0  0  0  0  0  0  0  0  0  0  0  0
   40.3920   23.5080   35.6660 N   0  0  0  0  0  0  0  0  0  0  0  0
   41.1520   22.8750   36.5700 C   0  0  0  0  0  0  0  0  0  0  0  0
   40.5650   22.6390   37.7460 N   0  0  0  0  0  0  0  0  0  0  0  0
   42.4850   22.5670   36.0790 C   0  0  0  0  0  0  0  0  0  0  0  0
   42.7250   21.4820   35.2760 C   0  0  0  0  0  0  0  0  0  0  0  0
   43.9600   21.1350   34.7780 C   0  0  0  0  0  0  0  0  0  0  0  0
   45.0600   21.9050   35.0850 C   0  0  0  0  0  0  0  0  0  0  0  0
   44.8690   22.9950   35.8830 C   0  0  0  0  0  0  0  0  0  0  0  0
   45.9760   23.7600   36.1860 C   0  0  0  0  0  0  0  0  0  0  0  0
   45.8800   24.8750   36.9800 C   0  0  0  0  0  0  0  0  0  0  0  0
   44.6100   25.1860   37.4600 C   0  0  0  0  0  0  0  0  0  0  0  0
   43.5370   24.3870   37.1270 C   0  0  0  0  0  0  0  0  0  0  0  0
   43.6130   23.2890   36.3480 C   0  0  0  0  0  0  0  0  0  0  0  0
   38.4470   24.5940   34.7400 N   0  0  0  0  0  0  0  0  0  0  0  0
   37.9500   23.9140   33.7070 C   0  0  0  0  0  0  0  0  0  0  0  0
   37.3710   24.8310   32.8970 C   0  0  0  0  0  0  0  0  0  0  0  0
   37.5220   26.0490   33.4450 N   0  0  0  0  0  0  0  0  0  0  0  0
   38.1960   25.8990   34.6000 C   0  0  0  0  0  0  0  0  0  0  0  0
   36.6610   24.6460   31.6020 C   0  0  0  0  0  0  0  0  0  0  0  0
   37.2600   23.7090   30.7930 F   0  0  0  0  0  0  0  0  0  0  0  0
   36.6060   25.8380   30.8840 F   0  0  0  0  0  0  0  0  0  0  0  0
   35.3150   24.3230   31.8440 F   0  0  0  0  0  0  0  0  0  0  0  0
   38.6240   26.9190   35.5910 C   0  0  0  0  0  0  0  0  0  0  0  0
   38.2740   26.5260   36.8870 F   0  0  0  0  0  0  0  0  0  0  0  0
   40.0170   27.0130   35.6380 F   0  0  0  0  0  0  0  0  0  0  0  0
   38.0240   28.1490   35.3910 F   0  0  0  0  0  0  0  0  0  0  0  0
   38.8882   22.7890   38.9742 H   0  0  0  0  0  0  0  0  0  0  0  0
   37.4977   23.9792   37.2460 H   0  0  0  0  0  0  0  0  0  0  0  0
   41.8695   20.8434   35.0109 H   0  0  0  0  0  0  0  0  0  0  0  0
   44.0682   20.2470   34.1379 H   0  0  0  0  0  0  0  0  0  0  0  0
   46.0583   21.6498   34.7000 H   0  0  0  0  0  0  0  0  0  0  0  0
   46.9573   23.4699   35.7823 H   0  0  0  0  0  0  0  0  0  0  0  0
   46.7587   25.4901   37.2243 H   0  0  0  0  0  0  0  0  0  0  0  0
   44.4636   26.0665   38.1029 H   0  0  0  0  0  0  0  0  0  0  0  0
   42.5497   24.6647   37.5246 H   0  0  0  0  0  0  0  0  0  0  0  0
   38.0002   22.8271   33.5454 H   0  0  0  0  0  0  0  0  0  0  0  0
  2  1  2  0
  3  2  1  0
  4  3  2  0
  4  5  1  0
  5  6  2  0
  6  1  1  0
  7 16  1  0
  7  5  1  0
  8  7  2  0
  9 10  2  0
  9  8  1  0
 10 11  1  0
 11 12  1  0
 11 16  2  0
 12 13  2  0
 13 14  1  0
 15 14  2  0
 16 15  1  0
 17  3  1  0
 18 17  1  0
 19 20  1  0
 19 18  2  0
 20 21  2  0
 21 17  1  0
 21 26  1  0
 22 25  1  0
 22 19  1  0
 23 22  1  0
 24 22  1  0
 26 28  1  0
 26 27  1  0
 29 26  1  0
  1 30  1  0
  2 31  1  0
  8 32  1  0
  9 33  1  0
 10 34  1  0
 12 35  1  0
 13 36  1  0
 14 37  1  0
 15 38  1  0
 18 39  1  0
M  ISO  8  30  14  31  14  32  14  33  14  34  14  35  14  36  14  37  14
M  ISO  2  38  14  39  14
M  END
>  <minimizedAffinity>  (1) 
-6.77431107

>  <minimizedRMSD>  (1) 
2.50814223

$$$$
