
     RDKit          3D

 49 53  0  0  0  0  0  0  0  0999 V2000
   38.9970   23.1880   38.0680 C   0  0  0  0  0  0  0  0  0  0  0  0
   38.2190   23.3580   36.9190 C   0  0  0  0  0  0  0  0  0  0  0  0
   38.8310   23.0480   35.7020 C   0  0  0  0  0  0  0  0  0  0  0  0
   40.0980   22.6180   35.7590 N   0  0  0  0  0  0  0  0  0  0  0  0
   40.8470   22.4530   36.8650 C   0  0  0  0  0  0  0  0  0  0  0  0
   40.2530   22.7530   38.0240 N   0  0  0  0  0  0  0  0  0  0  0  0
   42.1790   21.9730   36.5600 C   0  0  0  0  0  0  0  0  0  0  0  0
   42.4300   20.6360   36.3650 C   0  0  0  0  0  0  0  0  0  0  0  0
   43.6770   20.1140   36.0720 C   0  0  0  0  0  0  0  0  0  0  0  0
   44.7600   20.9480   35.9620 C   0  0  0  0  0  0  0  0  0  0  0  0
   44.5660   22.2980   36.1480 C   0  0  0  0  0  0  0  0  0  0  0  0
   45.6590   23.1220   36.0330 C   0  0  0  0  0  0  0  0  0  0  0  0
   45.5350   24.4770   36.2060 C   0  0  0  0  0  0  0  0  0  0  0  0
   44.2550   24.9610   36.5000 C   0  0  0  0  0  0  0  0  0  0  0  0
   43.1930   24.0960   36.6040 C   0  0  0  0  0  0  0  0  0  0  0  0
   43.2980   22.7610   36.4380 C   0  0  0  0  0  0  0  0  0  0  0  0
   38.1360   23.1830   34.4590 N   0  0  0  0  0  0  0  0  0  0  0  0
   37.4500   22.1900   33.9260 C   0  0  0  0  0  0  0  0  0  0  0  0
   36.9290   22.6660   32.7580 C   0  0  0  0  0  0  0  0  0  0  0  0
   37.3060   23.9300   32.6080 N   0  0  0  0  0  0  0  0  0  0  0  0
   38.0660   24.2630   33.6730 C   0  0  0  0  0  0  0  0  0  0  0  0
   38.6560   25.5390   33.8820 N   0  0  0  0  0  0  0  0  0  0  0  0
   39.6390   26.1270   34.7660 C   0  0  0  0  0  0  0  0  0  0  0  0
   40.5560   27.0580   34.0120 C   0  0  0  0  0  0  0  0  0  0  0  0
   40.5820   26.6690   32.6810 O   0  0  0  0  0  0  0  0  0  0  0  0
   39.3680   27.0850   32.1280 C   0  0  0  0  0  0  0  0  0  0  0  0
   38.2020   26.6210   32.9920 C   0  0  0  0  0  0  0  0  0  0  0  0
   36.0730   21.9630   31.7660 C   0  0  0  0  0  0  0  0  0  0  0  0
   35.0630   21.2250   32.3420 F   0  0  0  0  0  0  0  0  0  0  0  0
   36.8350   21.0900   30.9950 F   0  0  0  0  0  0  0  0  0  0  0  0
   35.5780   22.8830   30.8250 F   0  0  0  0  0  0  0  0  0  0  0  0
   38.5530   23.4232   39.0466 H   0  0  0  0  0  0  0  0  0  0  0  0
   37.1804   23.7167   36.9704 H   0  0  0  0  0  0  0  0  0  0  0  0
   41.5853   19.9362   36.4472 H   0  0  0  0  0  0  0  0  0  0  0  0
   43.7999   19.0305   35.9273 H   0  0  0  0  0  0  0  0  0  0  0  0
   45.7584   20.5483   35.7310 H   0  0  0  0  0  0  0  0  0  0  0  0
   46.6437   22.6908   35.7998 H   0  0  0  0  0  0  0  0  0  0  0  0
   46.3999   25.1509   36.1179 H   0  0  0  0  0  0  0  0  0  0  0  0
   44.0987   26.0397   36.6485 H   0  0  0  0  0  0  0  0  0  0  0  0
   42.2024   24.5146   36.8353 H   0  0  0  0  0  0  0  0  0  0  0  0
   37.3232   21.1791   34.3408 H   0  0  0  0  0  0  0  0  0  0  0  0
   39.1210   26.6928   35.5544 H   0  0  0  0  0  0  0  0  0  0  0  0
   40.2433   25.3194   35.2049 H   0  0  0  0  0  0  0  0  0  0  0  0
   40.1825   28.0897   34.0896 H   0  0  0  0  0  0  0  0  0  0  0  0
   41.5696   27.0139   34.4370 H   0  0  0  0  0  0  0  0  0  0  0  0
   39.3567   28.1831   32.0639 H   0  0  0  0  0  0  0  0  0  0  0  0
   39.2646   26.6458   31.1248 H   0  0  0  0  0  0  0  0  0  0  0  0
   37.8341   27.4636   33.5960 H   0  0  0  0  0  0  0  0  0  0  0  0
   37.3901   26.2521   32.3480 H   0  0  0  0  0  0  0  0  0  0  0  0
  2  1  2  0
  3  4  2  0
  3  2  1  0
  4  5  1  0
  5  6  2  0
  6  1  1  0
  7  5  1  0
  8  7  2  0
  9  8  1  0
 10  9  2  0
 10 11  1  0
 11 16  2  0
 12 11  1  0
 12 13  2  0
 13 14  1  0
 14 15  2  0
 16  7  1  0
 16 15  1  0
 17  3  1  0
 18 17  1  0
 19 18  2  0
 20 19  1  0
 20 21  2  0
 21 22  1  0
 21 17  1  0
 22 23  1  0
 24 23  1  0
 25 24  1  0
 26 25  1  0
 26 27  1  0
 27 22  1  0
 28 29  1  0
 28 19  1  0
 30 28  1  0
 31 28  1  0
  1 32  1  0
  2 33  1  0
  8 34  1  0
  9 35  1  0
 10 36  1  0
 12 37  1  0
 13 38  1  0
 14 39  1  0
 15 40  1  0
 18 41  1  0
 23 42  1  0
 23 43  1  0
 24 44  1  0
 24 45  1  0
 26 46  1  0
 26 47  1  0
 27 48  1  0
 27 49  1  0
M  ISO  8  32  14  33  14  34  14  35  14  36  14  37  14  38  14  39  14
M  ISO  8  40  14  41  14  42  13  43  13  44  13  45  13  46  13  47  13
M  ISO  2  48  13  49  13
M  END
>  <minimizedAffinity>  (1) 
-7.00660133

>  <minimizedRMSD>  (1) 
3.52691078

$$$$
