
     RDKit          3D

 45 48  0  0  0  0  0  0  0  0999 V2000
   38.9140   23.3490   38.0620 C   0  0  0  0  0  0  0  0  0  0  0  0
   38.2770   23.8850   36.9320 C   0  0  0  0  0  0  0  0  0  0  0  0
   38.9710   23.8230   35.7170 C   0  0  0  0  0  0  0  0  0  0  0  0
   40.1650   23.2550   35.7860 N   0  0  0  0  0  0  0  0  0  0  0  0
   40.7970   22.7370   36.8450 C   0  0  0  0  0  0  0  0  0  0  0  0
   40.1240   22.8030   37.9960 N   0  0  0  0  0  0  0  0  0  0  0  0
   42.1070   22.1970   36.5260 C   0  0  0  0  0  0  0  0  0  0  0  0
   42.2970   20.8640   36.2740 C   0  0  0  0  0  0  0  0  0  0  0  0
   43.5190   20.2960   35.9660 C   0  0  0  0  0  0  0  0  0  0  0  0
   44.6450   21.0850   35.8990 C   0  0  0  0  0  0  0  0  0  0  0  0
   44.5050   22.4150   36.1420 C   0  0  0  0  0  0  0  0  0  0  0  0
   45.6420   23.1930   36.0720 C   0  0  0  0  0  0  0  0  0  0  0  0
   45.5910   24.5410   36.3040 C   0  0  0  0  0  0  0  0  0  0  0  0
   44.3400   25.0920   36.6140 C   0  0  0  0  0  0  0  0  0  0  0  0
   43.2330   24.2730   36.6730 C   0  0  0  0  0  0  0  0  0  0  0  0
   43.2680   22.9240   36.4430 C   0  0  0  0  0  0  0  0  0  0  0  0
   38.4130   24.3360   34.5090 N   0  0  0  0  0  0  0  0  0  0  0  0
   37.7190   23.5810   33.6820 C   0  0  0  0  0  0  0  0  0  0  0  0
   37.3510   24.3900   32.6490 C   0  0  0  0  0  0  0  0  0  0  0  0
   37.8310   25.6290   32.8710 N   0  0  0  0  0  0  0  0  0  0  0  0
   38.4980   25.5870   34.0430 C   0  0  0  0  0  0  0  0  0  0  0  0
   36.5510   24.0490   31.4360 C   0  0  0  0  0  0  0  0  0  0  0  0
   36.2280   22.7260   31.3560 F   0  0  0  0  0  0  0  0  0  0  0  0
   37.2630   24.3760   30.2820 F   0  0  0  0  0  0  0  0  0  0  0  0
   35.4100   24.8680   31.3780 F   0  0  0  0  0  0  0  0  0  0  0  0
   39.1590   26.7840   34.6050 C   0  0  0  0  0  0  0  0  0  0  0  0
   40.6330   26.4140   34.8240 C   0  0  0  0  0  0  0  0  0  0  0  0
   38.6320   27.1210   35.9860 C   0  0  0  0  0  0  0  0  0  0  0  0
   38.3960   23.3818   39.0318 H   0  0  0  0  0  0  0  0  0  0  0  0
   37.2753   24.3347   36.9978 H   0  0  0  0  0  0  0  0  0  0  0  0
   41.4196   20.2022   36.3197 H   0  0  0  0  0  0  0  0  0  0  0  0
   43.5915   19.2152   35.7747 H   0  0  0  0  0  0  0  0  0  0  0  0
   45.6270   20.6528   35.6565 H   0  0  0  0  0  0  0  0  0  0  0  0
   46.6053   22.7224   35.8257 H   0  0  0  0  0  0  0  0  0  0  0  0
   46.4945   25.1661   36.2494 H   0  0  0  0  0  0  0  0  0  0  0  0
   44.2424   26.1702   36.8088 H   0  0  0  0  0  0  0  0  0  0  0  0
   42.2636   24.7306   36.9196 H   0  0  0  0  0  0  0  0  0  0  0  0
   37.4840   22.5130   33.8013 H   0  0  0  0  0  0  0  0  0  0  0  0
   38.9907   27.6275   33.9193 H   0  0  0  0  0  0  0  0  0  0  0  0
   40.8415   26.3617   35.9028 H   0  0  0  0  0  0  0  0  0  0  0  0
   40.8381   25.4365   34.3631 H   0  0  0  0  0  0  0  0  0  0  0  0
   41.2754   27.1788   34.3631 H   0  0  0  0  0  0  0  0  0  0  0  0
   39.3004   26.6936   36.7479 H   0  0  0  0  0  0  0  0  0  0  0  0
   38.5905   28.2136   36.1060 H   0  0  0  0  0  0  0  0  0  0  0  0
   37.6227   26.7003   36.1060 H   0  0  0  0  0  0  0  0  0  0  0  0
  2  1  2  0
  3  4  2  0
  3  2  1  0
  4  5  1  0
  5  6  2  0
  6  1  1  0
  7  5  1  0
  8  7  2  0
  9  8  1  0
 10  9  2  0
 10 11  1  0
 11 16  2  0
 12 11  1  0
 12 13  2  0
 13 14  1  0
 14 15  2  0
 16  7  1  0
 16 15  1  0
 17  3  1  0
 18 17  1  0
 19 20  1  0
 19 18  2  0
 20 21  2  0
 21 17  1  0
 21 26  1  0
 22 19  1  0
 23 22  1  0
 24 22  1  0
 25 22  1  0
 26 27  1  0
 26 28  1  0
  1 29  1  0
  2 30  1  0
  8 31  1  0
  9 32  1  0
 10 33  1  0
 12 34  1  0
 13 35  1  0
 14 36  1  0
 15 37  1  0
 18 38  1  0
 26 39  1  0
 27 40  1  0
 27 41  1  0
 27 42  1  0
 28 43  1  0
 28 44  1  0
 28 45  1  0
M  ISO  8  29  14  30  14  31  14  32  14  33  14  34  14  35  14  36  14
M  ISO  8  37  14  38  14  39   8  40   8  41   8  42   8  43   8  44   8
M  ISO  1  45   8
M  END
>  <minimizedAffinity>  (1) 
-6.71226597

>  <minimizedRMSD>  (1) 
2.69081354

$$$$
