
     RDKit          3D

 50 54  0  0  0  0  0  0  0  0999 V2000
   39.1750   23.1540   38.1360 C   0  0  0  0  0  0  0  0  0  0  0  0
   38.4330   23.7890   37.1360 C   0  0  0  0  0  0  0  0  0  0  0  0
   39.0290   23.8690   35.8730 C   0  0  0  0  0  0  0  0  0  0  0  0
   40.2370   23.3290   35.7630 N   0  0  0  0  0  0  0  0  0  0  0  0
   40.9560   22.7220   36.7090 C   0  0  0  0  0  0  0  0  0  0  0  0
   40.3770   22.6500   37.9190 N   0  0  0  0  0  0  0  0  0  0  0  0
   42.2480   22.2470   36.2310 C   0  0  0  0  0  0  0  0  0  0  0  0
   42.3750   21.0440   35.5970 C   0  0  0  0  0  0  0  0  0  0  0  0
   43.5660   20.5360   35.1190 C   0  0  0  0  0  0  0  0  0  0  0  0
   44.7260   21.2640   35.2730 C   0  0  0  0  0  0  0  0  0  0  0  0
   44.6430   22.4640   35.8970 C   0  0  0  0  0  0  0  0  0  0  0  0
   45.8130   23.1880   36.0490 C   0  0  0  0  0  0  0  0  0  0  0  0
   45.8230   24.4030   36.6640 C   0  0  0  0  0  0  0  0  0  0  0  0
   44.5980   24.8830   37.1340 C   0  0  0  0  0  0  0  0  0  0  0  0
   43.4520   24.1380   36.9680 C   0  0  0  0  0  0  0  0  0  0  0  0
   43.4350   22.9350   36.3600 C   0  0  0  0  0  0  0  0  0  0  0  0
   38.3660   24.4920   34.7750 N   0  0  0  0  0  0  0  0  0  0  0  0
   38.1500   25.8100   34.7350 C   0  0  0  0  0  0  0  0  0  0  0  0
   37.5060   26.0460   33.5630 C   0  0  0  0  0  0  0  0  0  0  0  0
   37.3370   24.8880   32.9070 N   0  0  0  0  0  0  0  0  0  0  0  0
   37.8790   23.9150   33.6710 C   0  0  0  0  0  0  0  0  0  0  0  0
   37.9060   22.5370   33.3180 N   0  0  0  0  0  0  0  0  0  0  0  0
   36.9820   21.4590   33.6240 C   0  0  0  0  0  0  0  0  0  0  0  0
   36.3540   21.0120   32.3440 C   0  0  0  0  0  0  0  0  0  0  0  0
   37.2090   20.8780   31.2270 N   0  0  0  0  0  0  0  0  0  0  0  0
   38.3620   21.6960   31.1570 C   0  0  0  0  0  0  0  0  0  0  0  0
   38.9990   21.9880   32.5000 C   0  0  0  0  0  0  0  0  0  0  0  0
   37.0310   27.3450   33.0160 C   0  0  0  0  0  0  0  0  0  0  0  0
   36.5180   28.1900   33.9710 F   0  0  0  0  0  0  0  0  0  0  0  0
   36.0000   27.1370   32.0830 F   0  0  0  0  0  0  0  0  0  0  0  0
   38.0510   27.9450   32.2660 F   0  0  0  0  0  0  0  0  0  0  0  0
   38.7411   23.0706   39.1434 H   0  0  0  0  0  0  0  0  0  0  0  0
   37.4332   24.2039   37.3319 H   0  0  0  0  0  0  0  0  0  0  0  0
   41.4668   20.4391   35.4579 H   0  0  0  0  0  0  0  0  0  0  0  0
   43.5892   19.5567   34.6185 H   0  0  0  0  0  0  0  0  0  0  0  0
   45.6886   20.8831   34.9012 H   0  0  0  0  0  0  0  0  0  0  0  0
   46.7561   22.7725   35.6643 H   0  0  0  0  0  0  0  0  0  0  0  0
   46.7520   24.9795   36.7850 H   0  0  0  0  0  0  0  0  0  0  0  0
   44.5489   25.8593   37.6383 H   0  0  0  0  0  0  0  0  0  0  0  0
   42.5040   24.5444   37.3502 H   0  0  0  0  0  0  0  0  0  0  0  0
   38.4353   26.5518   35.4955 H   0  0  0  0  0  0  0  0  0  0  0  0
   37.5253   20.6214   34.0857 H   0  0  0  0  0  0  0  0  0  0  0  0
   36.2106   21.8050   34.3277 H   0  0  0  0  0  0  0  0  0  0  0  0
   35.8886   20.0321   32.5262 H   0  0  0  0  0  0  0  0  0  0  0  0
   35.6508   21.8135   32.0734 H   0  0  0  0  0  0  0  0  0  0  0  0
   37.5288   19.8992   31.2046 H   0  0  0  0  0  0  0  0  0  0  0  0
   39.1064   21.1895   30.5250 H   0  0  0  0  0  0  0  0  0  0  0  0
   38.0389   22.6628   30.7437 H   0  0  0  0  0  0  0  0  0  0  0  0
   39.3956   21.0661   32.9503 H   0  0  0  0  0  0  0  0  0  0  0  0
   39.8474   22.6832   32.4168 H   0  0  0  0  0  0  0  0  0  0  0  0
  2  1  2  0
  3  2  1  0
  4  3  2  0
  4  5  1  0
  5  6  2  0
  6  1  1  0
  7 16  1  0
  7  5  1  0
  8  7  2  0
  9 10  2  0
  9  8  1  0
 10 11  1  0
 11 12  1  0
 11 16  2  0
 12 13  2  0
 13 14  1  0
 15 14  2  0
 16 15  1  0
 17  3  1  0
 18 17  1  0
 19 18  2  0
 20 19  1  0
 20 21  2  0
 21 17  1  0
 22 23  1  0
 22 21  1  0
 24 23  1  0
 25 24  1  0
 26 25  1  0
 26 27  1  0
 27 22  1  0
 28 19  1  0
 28 29  1  0
 30 28  1  0
 31 28  1  0
  1 32  1  0
  2 33  1  0
  8 34  1  0
  9 35  1  0
 10 36  1  0
 12 37  1  0
 13 38  1  0
 14 39  1  0
 15 40  1  0
 18 41  1  0
 23 42  1  0
 23 43  1  0
 24 44  1  0
 24 45  1  0
 25 46  1  0
 26 47  1  0
 26 48  1  0
 27 49  1  0
 27 50  1  0
M  ISO  8  32  14  33  14  34  14  35  14  36  14  37  14  38  14  39  14
M  ISO  8  40  14  41  14  42  13  43  13  44  13  45  13  46   5  47  13
M  ISO  3  48  13  49  13  50  13
M  END
>  <minimizedAffinity>  (1) 
-6.76000834

>  <minimizedRMSD>  (1) 
4.25142479

$$$$
