
     RDKit          3D

 39 42  0  0  0  0  0  0  0  0999 V2000
   40.3750   22.5410   36.8970 C   0  0  0  0  0  0  0  0  0  0  0  0
   39.7540   23.5380   36.1260 C   0  0  0  0  0  0  0  0  0  0  0  0
   40.5950   24.4110   35.4280 C   0  0  0  0  0  0  0  0  0  0  0  0
   41.8880   24.1880   35.5840 N   0  0  0  0  0  0  0  0  0  0  0  0
   42.5140   23.2560   36.3040 C   0  0  0  0  0  0  0  0  0  0  0  0
   41.6960   22.4250   36.9670 N   0  0  0  0  0  0  0  0  0  0  0  0
   43.9510   23.3240   36.2290 C   0  0  0  0  0  0  0  0  0  0  0  0
   44.6660   22.5210   35.3940 C   0  0  0  0  0  0  0  0  0  0  0  0
   46.0500   22.5410   35.2800 C   0  0  0  0  0  0  0  0  0  0  0  0
   46.7830   23.4160   36.0460 C   0  0  0  0  0  0  0  0  0  0  0  0
   46.1170   24.2370   36.8930 C   0  0  0  0  0  0  0  0  0  0  0  0
   46.8660   25.1110   37.6540 C   0  0  0  0  0  0  0  0  0  0  0  0
   46.2690   25.9750   38.5340 C   0  0  0  0  0  0  0  0  0  0  0  0
   44.8750   25.9310   38.6270 C   0  0  0  0  0  0  0  0  0  0  0  0
   44.1710   25.0400   37.8440 C   0  0  0  0  0  0  0  0  0  0  0  0
   44.7460   24.1750   36.9650 C   0  0  0  0  0  0  0  0  0  0  0  0
   40.0770   25.4600   34.6130 N   0  0  0  0  0  0  0  0  0  0  0  0
   38.7730   25.6730   34.4900 C   0  0  0  0  0  0  0  0  0  0  0  0
   38.6470   26.7330   33.6490 C   0  0  0  0  0  0  0  0  0  0  0  0
   39.8520   27.1440   33.2790 N   0  0  0  0  0  0  0  0  0  0  0  0
   40.7600   26.3440   33.8830 C   0  0  0  0  0  0  0  0  0  0  0  0
   37.4060   27.4050   33.1610 C   0  0  0  0  0  0  0  0  0  0  0  0
   36.4630   26.5190   32.7050 F   0  0  0  0  0  0  0  0  0  0  0  0
   37.6880   28.2720   32.1110 F   0  0  0  0  0  0  0  0  0  0  0  0
   36.8780   28.2230   34.1750 F   0  0  0  0  0  0  0  0  0  0  0  0
   42.1850   26.5180   33.7040 C   0  0  0  0  0  0  0  0  0  0  0  0
   42.9830   25.9500   32.9330 O   0  0  0  0  0  0  0  0  0  0  0  0
   42.9340   27.4250   34.4310 O   0  0  0  0  0  0  0  0  0  0  0  0
   39.7474   21.8346   37.4601 H   0  0  0  0  0  0  0  0  0  0  0  0
   38.6589   23.6277   36.0738 H   0  0  0  0  0  0  0  0  0  0  0  0
   44.1100   21.8082   34.7673 H   0  0  0  0  0  0  0  0  0  0  0  0
   46.5570   21.8602   34.5804 H   0  0  0  0  0  0  0  0  0  0  0  0
   47.8801   23.4486   35.9732 H   0  0  0  0  0  0  0  0  0  0  0  0
   47.9613   25.1141   37.5524 H   0  0  0  0  0  0  0  0  0  0  0  0
   46.8620   26.6741   39.1419 H   0  0  0  0  0  0  0  0  0  0  0  0
   44.3439   26.6013   39.3188 H   0  0  0  0  0  0  0  0  0  0  0  0
   43.0749   25.0280   37.9360 H   0  0  0  0  0  0  0  0  0  0  0  0
   37.9608   25.1076   34.9702 H   0  0  0  0  0  0  0  0  0  0  0  0
   43.9075   27.5051   34.2697 H   0  0  0  0  0  0  0  0  0  0  0  0
  1  6  2  0
  2  1  1  0
  3  4  1  0
  3  2  2  0
  4  5  2  0
  5  6  1  0
  7  5  1  0
  7 16  1  0
  8  7  2  0
  9  8  1  0
  9 10  2  0
 10 11  1  0
 11 16  2  0
 11 12  1  0
 12 13  2  0
 13 14  1  0
 15 14  2  0
 16 15  1  0
 17  3  1  0
 18 17  1  0
 19 18  2  0
 20 19  1  0
 20 21  2  0
 21 17  1  0
 22 19  1  0
 22 25  1  0
 23 22  1  0
 24 22  1  0
 26 21  1  0
 26 28  1  0
 27 26  2  0
  1 29  1  0
  2 30  1  0
  8 31  1  0
  9 32  1  0
 10 33  1  0
 12 34  1  0
 13 35  1  0
 14 36  1  0
 15 37  1  0
 18 38  1  0
 28 39  1  0
M  ISO  8  29  14  30  14  31  14  32  14  33  14  34  14  35  14  36  14
M  ISO  3  37  14  38  14  39   3
M  END
>  <minimizedAffinity>  (1) 
-6.17223883

>  <minimizedRMSD>  (1) 
0.419762343

$$$$
