
     RDKit          3D

 37 40  0  0  1  0  0  0  0  0999 V2000
   42.5250   22.2200   35.8690 C   0  0  2  0  0  0  0  0  0  0  0  0
   43.3580   23.3900   35.3730 C   0  0  2  0  0  0  0  0  0  0  0  0
   43.3870   23.1380   33.8860 C   0  0  0  0  0  0  0  0  0  0  0  0
   43.4210   21.6510   33.7840 C   0  0  0  0  0  0  0  0  0  0  0  0
   42.3490   21.2510   34.7680 C   0  0  0  0  0  0  0  0  0  0  0  0
   44.7370   23.3660   35.9280 C   0  0  0  0  0  0  0  0  0  0  0  0
   45.6570   22.5050   35.4570 N   0  0  0  0  0  0  0  0  0  0  0  0
   46.9210   22.4300   35.9130 C   0  0  0  0  0  0  0  0  0  0  0  0
   47.3450   23.2380   36.8930 N   0  0  0  0  0  0  0  0  0  0  0  0
   46.4590   24.1180   37.3970 C   0  0  0  0  0  0  0  0  0  0  0  0
   46.8980   24.9570   38.4160 C   0  0  0  0  0  0  0  0  0  0  0  0
   45.9950   25.8760   38.9500 C   0  0  0  0  0  0  0  0  0  0  0  0
   44.6810   25.9680   38.4900 C   0  0  0  0  0  0  0  0  0  0  0  0
   44.2970   25.1090   37.4750 C   0  0  0  0  0  0  0  0  0  0  0  0
   45.1640   24.2050   36.9400 C   0  0  0  0  0  0  0  0  0  0  0  0
   41.2250   22.7620   36.3490 C   0  0  0  0  0  0  0  0  0  0  0  0
   40.6950   22.4450   37.6220 C   0  0  0  0  0  0  0  0  0  0  0  0
   39.4720   22.9900   37.9970 C   0  0  0  0  0  0  0  0  0  0  0  0
   38.8360   23.8140   37.1060 N   0  0  0  0  0  0  0  0  0  0  0  0
   39.3650   24.0970   35.9010 C   0  0  0  0  0  0  0  0  0  0  0  0
   40.5440   23.5830   35.5180 N   0  0  0  0  0  0  0  0  0  0  0  0
   43.0171   21.6906   36.6982 H   0  0  0  0  0  0  0  0  0  0  0  0
   42.9490   24.3681   35.6665 H   0  0  0  0  0  0  0  0  0  0  0  0
   42.4873   23.5446   33.4010 H   0  0  0  0  0  0  0  0  0  0  0  0
   44.2402   23.6207   33.3869 H   0  0  0  0  0  0  0  0  0  0  0  0
   43.1767   21.3134   32.7660 H   0  0  0  0  0  0  0  0  0  0  0  0
   44.4071   21.2118   33.9956 H   0  0  0  0  0  0  0  0  0  0  0  0
   41.3485   21.3404   34.3197 H   0  0  0  0  0  0  0  0  0  0  0  0
   42.4326   20.2044   35.0962 H   0  0  0  0  0  0  0  0  0  0  0  0
   47.6140   21.6963   35.4755 H   0  0  0  0  0  0  0  0  0  0  0  0
   47.9304   24.8972   38.7908 H   0  0  0  0  0  0  0  0  0  0  0  0
   46.3279   26.5466   39.7559 H   0  0  0  0  0  0  0  0  0  0  0  0
   43.9764   26.6962   38.9181 H   0  0  0  0  0  0  0  0  0  0  0  0
   43.2672   25.1575   37.0913 H   0  0  0  0  0  0  0  0  0  0  0  0
   41.2420   21.7778   38.3044 H   0  0  0  0  0  0  0  0  0  0  0  0
   39.0288   22.7665   38.9786 H   0  0  0  0  0  0  0  0  0  0  0  0
   38.8197   24.7632   35.2162 H   0  0  0  0  0  0  0  0  0  0  0  0
  1 16  1  0
  2  1  1  0
  2  6  1  0
  3  2  1  0
  4  3  1  0
  4  5  1  0
  5  1  1  0
  6 15  2  0
  7  8  2  0
  7  6  1  0
  8  9  1  0
  9 10  2  0
 10 11  1  0
 11 12  2  0
 13 12  1  0
 14 13  2  0
 15 10  1  0
 15 14  1  0
 16 17  2  0
 17 18  1  0
 19 18  2  0
 20 19  1  0
 21 20  2  0
 21 16  1  0
  1 22  1  1
  2 23  1  6
  3 24  1  0
  3 25  1  0
  4 26  1  0
  4 27  1  0
  5 28  1  0
  5 29  1  0
  8 30  1  0
 11 31  1  0
 12 32  1  0
 13 33  1  0
 14 34  1  0
 17 35  1  0
 18 36  1  0
 20 37  1  0
M  ISO  8  22  13  23  13  24  13  25  13  26  13  27  13  28  13  29  13
M  ISO  8  30  14  31  14  32  14  33  14  34  14  35  14  36  14  37  14
M  END
>  <minimizedAffinity>  (1) 
-5.25780582

>  <minimizedRMSD>  (1) 
2.53744483

$$$$
