
     RDKit          3D

 37 40  0  0  0  0  0  0  0  0999 V2000
   40.3330   22.4680   37.0360 C   0  0  0  0  0  0  0  0  0  0  0  0
   39.7000   23.4680   36.2890 C   0  0  0  0  0  0  0  0  0  0  0  0
   40.5370   24.3070   35.5750 C   0  0  0  0  0  0  0  0  0  0  0  0
   41.8520   24.0950   35.6550 N   0  0  0  0  0  0  0  0  0  0  0  0
   42.4560   23.1310   36.3760 C   0  0  0  0  0  0  0  0  0  0  0  0
   41.6440   22.3230   37.0660 N   0  0  0  0  0  0  0  0  0  0  0  0
   43.8980   23.1660   36.2550 C   0  0  0  0  0  0  0  0  0  0  0  0
   44.5700   22.2800   35.4400 C   0  0  0  0  0  0  0  0  0  0  0  0
   45.9450   22.2610   35.2810 C   0  0  0  0  0  0  0  0  0  0  0  0
   46.7220   23.1710   35.9630 C   0  0  0  0  0  0  0  0  0  0  0  0
   46.0960   24.0600   36.7740 C   0  0  0  0  0  0  0  0  0  0  0  0
   46.8880   24.9640   37.4520 C   0  0  0  0  0  0  0  0  0  0  0  0
   46.3400   25.8980   38.2920 C   0  0  0  0  0  0  0  0  0  0  0  0
   44.9500   25.8890   38.4300 C   0  0  0  0  0  0  0  0  0  0  0  0
   44.2050   24.9690   37.7370 C   0  0  0  0  0  0  0  0  0  0  0  0
   44.7280   24.0410   36.9020 C   0  0  0  0  0  0  0  0  0  0  0  0
   40.0170   25.3760   34.7660 N   0  0  0  0  0  0  0  0  0  0  0  0
   38.7180   25.5560   34.5990 C   0  0  0  0  0  0  0  0  0  0  0  0
   38.5800   26.6380   33.7910 C   0  0  0  0  0  0  0  0  0  0  0  0
   39.8020   27.1050   33.4760 N   0  0  0  0  0  0  0  0  0  0  0  0
   40.7110   26.3170   34.0850 C   0  0  0  0  0  0  0  0  0  0  0  0
   37.3420   27.2860   33.2770 C   0  0  0  0  0  0  0  0  0  0  0  0
   36.4480   26.3860   32.7390 F   0  0  0  0  0  0  0  0  0  0  0  0
   37.6380   28.2120   32.2810 F   0  0  0  0  0  0  0  0  0  0  0  0
   36.7540   28.0560   34.2940 F   0  0  0  0  0  0  0  0  0  0  0  0
   42.4920   26.4030   34.0690 S   0  0  0  0  0  0  0  0  0  0  0  0
   39.7121   21.7745   37.6221 H   0  0  0  0  0  0  0  0  0  0  0  0
   38.6059   23.5799   36.2707 H   0  0  0  0  0  0  0  0  0  0  0  0
   43.9762   21.5418   34.8810 H   0  0  0  0  0  0  0  0  0  0  0  0
   46.4144   21.5232   34.6137 H   0  0  0  0  0  0  0  0  0  0  0  0
   47.8165   23.1767   35.8534 H   0  0  0  0  0  0  0  0  0  0  0  0
   47.9791   24.9344   37.3158 H   0  0  0  0  0  0  0  0  0  0  0  0
   46.9666   26.6222   38.8332 H   0  0  0  0  0  0  0  0  0  0  0  0
   44.4554   26.6159   39.0910 H   0  0  0  0  0  0  0  0  0  0  0  0
   43.1130   24.9866   37.8683 H   0  0  0  0  0  0  0  0  0  0  0  0
   37.9084   24.9486   35.0299 H   0  0  0  0  0  0  0  0  0  0  0  0
   42.9597   26.4256   35.3565 H   0  0  0  0  0  0  0  0  0  0  0  0
  1  6  2  0
  2  1  1  0
  3  4  1  0
  3  2  2  0
  4  5  2  0
  5  6  1  0
  7  5  1  0
  7 16  1  0
  8  7  2  0
  9  8  1  0
  9 10  2  0
 10 11  1  0
 11 16  2  0
 11 12  1  0
 12 13  2  0
 13 14  1  0
 15 14  2  0
 16 15  1  0
 17  3  1  0
 18 17  1  0
 19 18  2  0
 20 19  1  0
 20 21  2  0
 21 17  1  0
 22 19  1  0
 22 25  1  0
 23 22  1  0
 24 22  1  0
 26 21  1  0
  1 27  1  0
  2 28  1  0
  8 29  1  0
  9 30  1  0
 10 31  1  0
 12 32  1  0
 13 33  1  0
 14 34  1  0
 15 35  1  0
 18 36  1  0
 26 37  1  0
M  ISO  8  27  14  28  14  29  14  30  14  31  14  32  14  33  14  34  14
M  ISO  3  35  14  36  14  37  11
M  END
>  <minimizedAffinity>  (1) 
-5.89893675

>  <minimizedRMSD>  (1) 
0.178154603

$$$$
