
     RDKit          3D

 30 32  0  0  1  0  0  0  0  0999 V2000
   41.3960   22.6030   37.1840 C   0  0  2  0  0  0  0  0  0  0  0  0
   41.9230   23.0860   35.8440 C   0  0  2  0  0  0  0  0  0  0  0  0
   42.4220   21.8320   35.2140 C   0  0  0  0  0  0  0  0  0  0  0  0
   42.9450   21.0400   36.3680 C   0  0  0  0  0  0  0  0  0  0  0  0
   41.8330   21.2040   37.3760 C   0  0  0  0  0  0  0  0  0  0  0  0
   39.9100   22.7300   37.1700 C   0  0  0  0  0  0  0  0  0  0  0  0
   39.1950   23.2670   38.2690 C   0  0  0  0  0  0  0  0  0  0  0  0
   37.7990   23.3420   38.1510 C   0  0  0  0  0  0  0  0  0  0  0  0
   37.2170   22.9060   37.0130 N   0  0  0  0  0  0  0  0  0  0  0  0
   37.9330   22.3970   35.9770 C   0  0  0  0  0  0  0  0  0  0  0  0
   39.2660   22.3100   36.0570 N   0  0  0  0  0  0  0  0  0  0  0  0
   42.9260   24.1560   35.9880 C   0  0  0  0  0  0  0  0  0  0  0  0
   43.9590   24.1650   36.9020 C   0  0  0  0  0  0  0  0  0  0  0  0
   44.6960   25.3230   36.7470 C   0  0  0  0  0  0  0  0  0  0  0  0
   44.0820   25.9870   35.7350 N   0  0  0  0  0  0  0  0  0  0  0  0
   43.0350   25.2950   35.2880 N   0  0  0  0  0  0  0  0  0  0  0  0
   41.7850   23.2004   38.0217 H   0  0  0  0  0  0  0  0  0  0  0  0
   41.1666   23.5768   35.2139 H   0  0  0  0  0  0  0  0  0  0  0  0
   41.6059   21.2956   34.7078 H   0  0  0  0  0  0  0  0  0  0  0  0
   43.1845   22.0164   34.4429 H   0  0  0  0  0  0  0  0  0  0  0  0
   43.0893   19.9836   36.0975 H   0  0  0  0  0  0  0  0  0  0  0  0
   43.9296   21.3716   36.7293 H   0  0  0  0  0  0  0  0  0  0  0  0
   42.2035   21.0449   38.3994 H   0  0  0  0  0  0  0  0  0  0  0  0
   41.0184   20.4780   37.2368 H   0  0  0  0  0  0  0  0  0  0  0  0
   39.7127   23.6107   39.1767 H   0  0  0  0  0  0  0  0  0  0  0  0
   37.1892   23.7488   38.9711 H   0  0  0  0  0  0  0  0  0  0  0  0
   37.4151   22.0550   35.0688 H   0  0  0  0  0  0  0  0  0  0  0  0
   44.1638   23.3742   37.6387 H   0  0  0  0  0  0  0  0  0  0  0  0
   45.5829   25.6370   37.3168 H   0  0  0  0  0  0  0  0  0  0  0  0
   44.3836   26.8993   35.3641 H   0  0  0  0  0  0  0  0  0  0  0  0
  1  5  1  0
  2 12  1  0
  2  1  1  0
  3  2  1  0
  3  4  1  0
  4  5  1  0
  6  1  1  0
  6  7  2  0
  8  7  1  0
  9  8  2  0
 10 11  2  0
 10  9  1  0
 11  6  1  0
 12 13  1  0
 14 13  2  0
 15 14  1  0
 16 15  1  0
 16 12  2  0
  1 17  1  1
  2 18  1  6
  3 19  1  0
  3 20  1  0
  4 21  1  0
  4 22  1  0
  5 23  1  0
  5 24  1  0
  7 25  1  0
  8 26  1  0
 10 27  1  0
 13 28  1  0
 14 29  1  0
 15 30  1  0
M  ISO  8  17  13  18  13  19  13  20  13  21  13  22  13  23  13  24  13
M  ISO  6  25  14  26  14  27  14  28  14  29  14  30   9
M  END
>  <minimizedAffinity>  (1) 
-4.85622025

>  <minimizedRMSD>  (1) 
0.908577204

$$$$
