
     RDKit          3D

 31 33  0  0  1  0  0  0  0  0999 V2000
   41.4170   22.6180   37.1210 C   0  0  2  0  0  0  0  0  0  0  0  0
   41.9200   23.0460   35.7580 C   0  0  2  0  0  0  0  0  0  0  0  0
   42.3700   21.7600   35.1370 C   0  0  0  0  0  0  0  0  0  0  0  0
   42.9170   20.9950   36.2970 C   0  0  0  0  0  0  0  0  0  0  0  0
   41.8540   21.2200   37.3600 C   0  0  0  0  0  0  0  0  0  0  0  0
   39.9400   22.7500   37.1400 C   0  0  0  0  0  0  0  0  0  0  0  0
   39.2490   23.2660   38.2790 C   0  0  0  0  0  0  0  0  0  0  0  0
   37.8610   23.3540   38.2070 C   0  0  0  0  0  0  0  0  0  0  0  0
   37.2390   22.9500   37.0720 N   0  0  0  0  0  0  0  0  0  0  0  0
   37.9260   22.4650   36.0100 C   0  0  0  0  0  0  0  0  0  0  0  0
   39.2600   22.3680   36.0480 N   0  0  0  0  0  0  0  0  0  0  0  0
   43.0110   24.0520   35.8460 C   0  0  0  0  0  0  0  0  0  0  0  0
   43.8120   24.2450   36.9700 C   0  0  0  0  0  0  0  0  0  0  0  0
   44.8110   25.2040   36.9800 C   0  0  0  0  0  0  0  0  0  0  0  0
   45.0080   25.9650   35.8690 N   0  0  0  0  0  0  0  0  0  0  0  0
   44.2190   25.7640   34.7810 C   0  0  0  0  0  0  0  0  0  0  0  0
   43.2330   24.8270   34.7550 N   0  0  0  0  0  0  0  0  0  0  0  0
   41.8256   23.2489   37.9241 H   0  0  0  0  0  0  0  0  0  0  0  0
   41.1496   23.5558   35.1609 H   0  0  0  0  0  0  0  0  0  0  0  0
   41.5250   21.2274   34.6762 H   0  0  0  0  0  0  0  0  0  0  0  0
   43.1036   21.9037   34.3300 H   0  0  0  0  0  0  0  0  0  0  0  0
   43.0210   19.9266   36.0568 H   0  0  0  0  0  0  0  0  0  0  0  0
   43.9231   21.3172   36.6035 H   0  0  0  0  0  0  0  0  0  0  0  0
   42.2768   21.1071   38.3692 H   0  0  0  0  0  0  0  0  0  0  0  0
   41.0278   20.4963   37.3002 H   0  0  0  0  0  0  0  0  0  0  0  0
   39.7938   23.5825   39.1807 H   0  0  0  0  0  0  0  0  0  0  0  0
   37.2799   23.7442   39.0555 H   0  0  0  0  0  0  0  0  0  0  0  0
   37.3821   22.1479   35.1080 H   0  0  0  0  0  0  0  0  0  0  0  0
   43.6480   23.6254   37.8640 H   0  0  0  0  0  0  0  0  0  0  0  0
   45.4364   25.3486   37.8733 H   0  0  0  0  0  0  0  0  0  0  0  0
   44.3840   26.3829   33.8867 H   0  0  0  0  0  0  0  0  0  0  0  0
  1  6  1  0
  1  5  1  0
  2 12  1  0
  2  1  1  0
  3  2  1  0
  3  4  1  0
  4  5  1  0
  6  7  2  0
  8  7  1  0
  9  8  2  0
 10 11  2  0
 10  9  1  0
 11  6  1  0
 12 13  2  0
 13 14  1  0
 15 14  2  0
 16 15  1  0
 17 16  2  0
 17 12  1  0
  1 18  1  1
  2 19  1  6
  3 20  1  0
  3 21  1  0
  4 22  1  0
  4 23  1  0
  5 24  1  0
  5 25  1  0
  7 26  1  0
  8 27  1  0
 10 28  1  0
 13 29  1  0
 14 30  1  0
 16 31  1  0
M  ISO  8  18  13  19  13  20  13  21  13  22  13  23  13  24  13  25  13
M  ISO  6  26  14  27  14  28  14  29  14  30  14  31  14
M  END
>  <minimizedAffinity>  (1) 
-4.68161583

>  <minimizedRMSD>  (1) 
1.01173055

$$$$
