
     RDKit          3D

 30 32  0  0  1  0  0  0  0  0999 V2000
   41.4310   22.5480   37.2200 C   0  0  2  0  0  0  0  0  0  0  0  0
   41.9250   22.9250   35.8450 C   0  0  2  0  0  0  0  0  0  0  0  0
   42.3850   21.6370   35.2800 C   0  0  0  0  0  0  0  0  0  0  0  0
   42.8730   20.8580   36.4550 C   0  0  0  0  0  0  0  0  0  0  0  0
   41.7940   21.1380   37.4760 C   0  0  0  0  0  0  0  0  0  0  0  0
   39.9410   22.7440   37.2280 C   0  0  0  0  0  0  0  0  0  0  0  0
   39.2650   23.2830   38.3430 C   0  0  0  0  0  0  0  0  0  0  0  0
   37.8680   23.4220   38.2440 C   0  0  0  0  0  0  0  0  0  0  0  0
   37.2520   23.0370   37.0980 N   0  0  0  0  0  0  0  0  0  0  0  0
   37.9340   22.5260   36.0540 C   0  0  0  0  0  0  0  0  0  0  0  0
   39.2640   22.3790   36.1140 N   0  0  0  0  0  0  0  0  0  0  0  0
   42.9530   23.9910   35.9310 C   0  0  0  0  0  0  0  0  0  0  0  0
   43.3190   25.0360   35.1060 C   0  0  0  0  0  0  0  0  0  0  0  0
   44.3400   25.7260   35.6760 N   0  0  0  0  0  0  0  0  0  0  0  0
   44.6610   25.1700   36.8510 C   0  0  0  0  0  0  0  0  0  0  0  0
   43.8140   24.1340   36.9780 N   0  0  0  0  0  0  0  0  0  0  0  0
   41.8822   23.1663   38.0100 H   0  0  0  0  0  0  0  0  0  0  0  0
   41.1671   23.3750   35.1869 H   0  0  0  0  0  0  0  0  0  0  0  0
   41.5545   21.1123   34.7851 H   0  0  0  0  0  0  0  0  0  0  0  0
   43.1669   21.7733   34.5184 H   0  0  0  0  0  0  0  0  0  0  0  0
   42.9390   19.7843   36.2252 H   0  0  0  0  0  0  0  0  0  0  0  0
   43.8847   21.1351   36.7862 H   0  0  0  0  0  0  0  0  0  0  0  0
   42.1785   21.0109   38.4987 H   0  0  0  0  0  0  0  0  0  0  0  0
   40.9370   20.4537   37.3909 H   0  0  0  0  0  0  0  0  0  0  0  0
   39.8074   23.5822   39.2520 H   0  0  0  0  0  0  0  0  0  0  0  0
   37.2859   23.8354   39.0808 H   0  0  0  0  0  0  0  0  0  0  0  0
   37.3933   22.2268   35.1440 H   0  0  0  0  0  0  0  0  0  0  0  0
   42.8552   25.2728   34.1371 H   0  0  0  0  0  0  0  0  0  0  0  0
   45.4432   25.4897   37.5552 H   0  0  0  0  0  0  0  0  0  0  0  0
   43.8155   23.5046   37.7934 H   0  0  0  0  0  0  0  0  0  0  0  0
  1  6  1  0
  1  5  1  0
  2 12  1  0
  2  1  1  0
  3  2  1  0
  3  4  1  0
  4  5  1  0
  6  7  2  0
  8  7  1  0
  9  8  2  0
 10 11  2  0
 10  9  1  0
 11  6  1  0
 12 16  1  0
 13 14  1  0
 13 12  2  0
 14 15  2  0
 15 16  1  0
  1 17  1  1
  2 18  1  6
  3 19  1  0
  3 20  1  0
  4 21  1  0
  4 22  1  0
  5 23  1  0
  5 24  1  0
  7 25  1  0
  8 26  1  0
 10 27  1  0
 13 28  1  0
 15 29  1  0
 16 30  1  0
M  ISO  8  17  13  18  13  19  13  20  13  21  13  22  13  23  13  24  13
M  ISO  6  25  14  26  14  27  14  28  14  29  14  30   9
M  END
>  <minimizedAffinity>  (1) 
-4.48591757

>  <minimizedRMSD>  (1) 
0.90488553

$$$$
