
     RDKit          3D

 34 36  0  0  1  0  0  0  0  0999 V2000
   41.1620   22.7830   36.9830 C   0  0  2  0  0  0  0  0  0  0  0  0
   41.6770   23.3580   35.6830 C   0  0  1  0  0  0  0  0  0  0  0  0
   42.2530   22.1640   34.9790 C   0  0  0  0  0  0  0  0  0  0  0  0
   42.8690   21.4170   36.1410 C   0  0  0  0  0  0  0  0  0  0  0  0
   41.7100   21.4180   37.1300 C   0  0  0  0  0  0  0  0  0  0  0  0
   40.7390   24.1310   34.9570 N   0  0  0  0  0  0  0  0  0  0  0  0
   40.2200   25.2990   35.3800 C   0  0  0  0  0  0  0  0  0  0  0  0
   39.3170   25.9740   34.6040 C   0  0  0  0  0  0  0  0  0  0  0  0
   38.9780   25.4020   33.3950 C   0  0  0  0  0  0  0  0  0  0  0  0
   38.0440   26.0930   32.5840 N   0  0  0  0  0  0  0  0  0  0  0  0
   39.4960   24.2180   32.9540 N   0  0  0  0  0  0  0  0  0  0  0  0
   40.3940   23.5780   33.7610 C   0  0  0  0  0  0  0  0  0  0  0  0
   40.8530   22.4900   33.3260 O   0  0  0  0  0  0  0  0  0  0  0  0
   39.6720   22.7710   36.9290 C   0  0  0  0  0  0  0  0  0  0  0  0
   38.8870   23.5410   37.8380 C   0  0  0  0  0  0  0  0  0  0  0  0
   37.5020   23.4790   37.7280 C   0  0  0  0  0  0  0  0  0  0  0  0
   36.9710   22.6910   36.7620 N   0  0  0  0  0  0  0  0  0  0  0  0
   37.7380   21.9730   35.9160 C   0  0  0  0  0  0  0  0  0  0  0  0
   39.0680   22.0160   36.0030 N   0  0  0  0  0  0  0  0  0  0  0  0
   41.4754   23.3829   37.8501 H   0  0  0  0  0  0  0  0  0  0  0  0
   42.4411   24.1349   35.8334 H   0  0  0  0  0  0  0  0  0  0  0  0
   41.4705   21.5693   34.4850 H   0  0  0  0  0  0  0  0  0  0  0  0
   42.9581   22.4090   34.1710 H   0  0  0  0  0  0  0  0  0  0  0  0
   43.1576   20.3942   35.8571 H   0  0  0  0  0  0  0  0  0  0  0  0
   43.7972   21.8631   36.5277 H   0  0  0  0  0  0  0  0  0  0  0  0
   42.0636   21.2405   38.1564 H   0  0  0  0  0  0  0  0  0  0  0  0
   40.9705   20.6266   36.9382 H   0  0  0  0  0  0  0  0  0  0  0  0
   40.5229   25.7125   36.3533 H   0  0  0  0  0  0  0  0  0  0  0  0
   38.8809   26.9299   34.9297 H   0  0  0  0  0  0  0  0  0  0  0  0
   37.7632   25.7012   31.6738 H   0  0  0  0  0  0  0  0  0  0  0  0
   37.6458   26.9871   32.9047 H   0  0  0  0  0  0  0  0  0  0  0  0
   39.3647   24.1673   38.6058 H   0  0  0  0  0  0  0  0  0  0  0  0
   36.8551   24.0541   38.4068 H   0  0  0  0  0  0  0  0  0  0  0  0
   37.2621   21.3463   35.1474 H   0  0  0  0  0  0  0  0  0  0  0  0
  1  5  1  0
  2  1  1  0
  3  2  1  0
  3  4  1  0
  4  5  1  0
  6  7  1  0
  6  2  1  0
  8  7  2  0
  9  8  1  0
 10  9  1  0
 11  9  2  0
 11 12  1  0
 12  6  1  0
 13 12  2  0
 14  1  1  0
 14 15  2  0
 16 15  1  0
 17 16  2  0
 18 19  2  0
 18 17  1  0
 19 14  1  0
  1 20  1  1
  2 21  1  1
  3 22  1  0
  3 23  1  0
  4 24  1  0
  4 25  1  0
  5 26  1  0
  5 27  1  0
  7 28  1  0
  8 29  1  0
 10 30  1  0
 10 31  1  0
 15 32  1  0
 16 33  1  0
 18 34  1  0
M  ISO  8  20  13  21  13  22  13  23  13  24  13  25  13  26  13  27  13
M  ISO  5  28  14  29  14  32  14  33  14  34  14
M  END
>  <minimizedAffinity>  (1) 
-4.12538385

>  <minimizedRMSD>  (1) 
1.26398265

$$$$
