
     RDKit          3D

 35 37  0  0  1  0  0  0  0  0999 V2000
   41.4640   22.4640   37.0390 C   0  0  2  0  0  0  0  0  0  0  0  0
   41.9100   22.5190   35.5930 C   0  0  2  0  0  0  0  0  0  0  0  0
   42.3010   21.1110   35.3070 C   0  0  0  0  0  0  0  0  0  0  0  0
   42.8650   20.6320   36.6210 C   0  0  0  0  0  0  0  0  0  0  0  0
   41.8420   21.1530   37.6090 C   0  0  0  0  0  0  0  0  0  0  0  0
   39.9860   22.6720   37.0730 C   0  0  0  0  0  0  0  0  0  0  0  0
   39.3450   23.2160   38.2140 C   0  0  0  0  0  0  0  0  0  0  0  0
   37.9440   23.3760   38.1510 C   0  0  0  0  0  0  0  0  0  0  0  0
   37.2920   23.0010   37.0100 N   0  0  0  0  0  0  0  0  0  0  0  0
   37.9550   22.4890   35.9560 C   0  0  0  0  0  0  0  0  0  0  0  0
   39.2820   22.3200   35.9710 N   0  0  0  0  0  0  0  0  0  0  0  0
   42.9700   23.4460   35.3400 N   0  0  0  0  0  0  0  0  0  0  0  0
   43.2520   24.1320   36.5970 C   0  0  0  0  0  0  0  0  0  0  0  0
   44.7450   24.2250   36.6970 C   0  0  0  0  0  0  0  0  0  0  0  0
   45.1990   22.9730   36.0040 C   0  0  0  0  0  0  0  0  0  0  0  0
   44.1700   22.8180   34.9020 C   0  0  0  0  0  0  0  0  0  0  0  0
   41.9483   23.2469   37.6410 H   0  0  0  0  0  0  0  0  0  0  0  0
   41.1131   22.8944   34.9342 H   0  0  0  0  0  0  0  0  0  0  0  0
   41.4270   20.5118   35.0118 H   0  0  0  0  0  0  0  0  0  0  0  0
   43.0156   21.0239   34.4753 H   0  0  0  0  0  0  0  0  0  0  0  0
   42.9287   19.5343   36.6526 H   0  0  0  0  0  0  0  0  0  0  0  0
   43.8899   20.9796   36.8177 H   0  0  0  0  0  0  0  0  0  0  0  0
   42.2832   21.2698   38.6098 H   0  0  0  0  0  0  0  0  0  0  0  0
   40.9854   20.4760   37.7425 H   0  0  0  0  0  0  0  0  0  0  0  0
   39.9150   23.5014   39.1105 H   0  0  0  0  0  0  0  0  0  0  0  0
   37.3882   23.7941   39.0032 H   0  0  0  0  0  0  0  0  0  0  0  0
   37.3897   22.2016   35.0572 H   0  0  0  0  0  0  0  0  0  0  0  0
   42.8069   25.1379   36.5907 H   0  0  0  0  0  0  0  0  0  0  0  0
   42.8259   23.5897   37.4539 H   0  0  0  0  0  0  0  0  0  0  0  0
   45.1221   25.1219   36.1837 H   0  0  0  0  0  0  0  0  0  0  0  0
   45.1095   24.3089   37.7314 H   0  0  0  0  0  0  0  0  0  0  0  0
   46.2108   23.0925   35.5894 H   0  0  0  0  0  0  0  0  0  0  0  0
   45.2628   22.1006   36.6709 H   0  0  0  0  0  0  0  0  0  0  0  0
   43.9856   21.7509   34.7088 H   0  0  0  0  0  0  0  0  0  0  0  0
   44.5295   23.2804   33.9709 H   0  0  0  0  0  0  0  0  0  0  0  0
  1  6  1  0
  1  5  1  0
  2  1  1  0
  3  2  1  0
  3  4  1  0
  4  5  1  0
  6  7  2  0
  8  7  1  0
  9  8  2  0
 10 11  2  0
 10  9  1  0
 11  6  1  0
 12  2  1  0
 12 13  1  0
 13 14  1  0
 15 14  1  0
 16 12  1  0
 16 15  1  0
  1 17  1  1
  2 18  1  6
  3 19  1  0
  3 20  1  0
  4 21  1  0
  4 22  1  0
  5 23  1  0
  5 24  1  0
  7 25  1  0
  8 26  1  0
 10 27  1  0
 13 28  1  0
 13 29  1  0
 14 30  1  0
 14 31  1  0
 15 32  1  0
 15 33  1  0
 16 34  1  0
 16 35  1  0
M  ISO  8  17  13  18  13  19  13  20  13  21  13  22  13  23  13  24  13
M  ISO  8  25  14  26  14  27  14  28  13  29  13  30  13  31  13  32  13
M  ISO  3  33  13  34  13  35  13
M  END
>  <minimizedAffinity>  (1) 
-4.24545527

>  <minimizedRMSD>  (1) 
1.02433503

$$$$
