
     RDKit          3D

 30 31  0  0  1  0  0  0  0  0999 V2000
   41.4080   22.6210   37.2400 C   0  0  2  0  0  0  0  0  0  0  0  0
   42.0940   23.3720   36.1160 C   0  0  1  0  0  0  0  0  0  0  0  0
   42.7040   22.2790   35.2910 C   0  0  0  0  0  0  0  0  0  0  0  0
   43.1280   21.2870   36.3360 C   0  0  0  0  0  0  0  0  0  0  0  0
   41.8950   21.2310   37.2290 C   0  0  0  0  0  0  0  0  0  0  0  0
   39.9410   22.7080   37.0570 C   0  0  0  0  0  0  0  0  0  0  0  0
   39.1050   23.3890   37.9690 C   0  0  0  0  0  0  0  0  0  0  0  0
   37.7330   23.4160   37.7190 C   0  0  0  0  0  0  0  0  0  0  0  0
   37.2730   22.7770   36.5970 N   0  0  0  0  0  0  0  0  0  0  0  0
   38.0990   22.1360   35.7480 C   0  0  0  0  0  0  0  0  0  0  0  0
   39.4150   22.1010   35.9720 N   0  0  0  0  0  0  0  0  0  0  0  0
   41.2420   24.2380   35.3720 N   0  0  0  0  0  0  0  0  0  0  0  0
   41.6510   25.5840   35.1640 C   0  0  0  0  0  0  0  0  0  0  0  0
   42.9170   25.8270   35.1200 N   0  0  0  0  0  0  0  0  0  0  0  0
   40.6820   26.6400   35.0070 N   0  0  0  0  0  0  0  0  0  0  0  0
   43.2200   26.8140   34.9680 H   0  0  0  0  0  0  0  0  0  0  0  0
   41.6413   23.0593   38.2216 H   0  0  0  0  0  0  0  0  0  0  0  0
   42.8386   24.0853   36.4990 H   0  0  0  0  0  0  0  0  0  0  0  0
   41.9666   21.8412   34.6022 H   0  0  0  0  0  0  0  0  0  0  0  0
   43.5286   22.6207   34.6481 H   0  0  0  0  0  0  0  0  0  0  0  0
   43.3456   20.3047   35.8912 H   0  0  0  0  0  0  0  0  0  0  0  0
   44.0507   21.5649   36.8665 H   0  0  0  0  0  0  0  0  0  0  0  0
   41.1371   20.5532   36.8092 H   0  0  0  0  0  0  0  0  0  0  0  0
   42.1156   20.8488   38.2366 H   0  0  0  0  0  0  0  0  0  0  0  0
   39.5258   23.8863   38.8554 H   0  0  0  0  0  0  0  0  0  0  0  0
   37.0421   23.9337   38.4006 H   0  0  0  0  0  0  0  0  0  0  0  0
   37.6850   21.6357   34.8601 H   0  0  0  0  0  0  0  0  0  0  0  0
   40.3477   23.8961   34.9923 H   0  0  0  0  0  0  0  0  0  0  0  0
   40.9964   27.6093   34.8571 H   0  0  0  0  0  0  0  0  0  0  0  0
   39.6754   26.4251   35.0447 H   0  0  0  0  0  0  0  0  0  0  0  0
  2  1  1  0
  3  2  1  0
  3  4  1  0
  4  5  1  0
  5  1  1  0
  6  1  1  0
  6  7  2  0
  8  7  1  0
  9  8  2  0
 10 11  2  0
 10  9  1  0
 11  6  1  0
 12  2  1  0
 13 12  1  0
 14 13  2  0
 15 13  1  0
 16 14  1  0
  1 17  1  1
  2 18  1  1
  3 19  1  0
  3 20  1  0
  4 21  1  0
  4 22  1  0
  5 23  1  0
  5 24  1  0
  7 25  1  0
  8 26  1  0
 10 27  1  0
 12 28  1  0
 15 29  1  0
 15 30  1  0
M  ISO  8  17  13  18  13  19  13  20  13  21  13  22  13  23  13  24  13
M  ISO  3  25  14  26  14  27  14
M  END
>  <minimizedAffinity>  (1) 
-4.28377438

>  <minimizedRMSD>  (1) 
0.568441153

$$$$
