
     RDKit          3D

 29 30  0  0  1  0  0  0  0  0999 V2000
   41.5090   22.4150   37.4020 C   0  0  2  0  0  0  0  0  0  0  0  0
   42.1960   23.0710   36.2260 C   0  0  2  0  0  0  0  0  0  0  0  0
   42.6890   21.9020   35.4290 C   0  0  0  0  0  0  0  0  0  0  0  0
   43.0640   20.9130   36.4970 C   0  0  0  0  0  0  0  0  0  0  0  0
   41.8620   20.9810   37.4260 C   0  0  0  0  0  0  0  0  0  0  0  0
   40.0430   22.6310   37.2610 C   0  0  0  0  0  0  0  0  0  0  0  0
   39.2650   23.2640   38.2540 C   0  0  0  0  0  0  0  0  0  0  0  0
   37.9000   23.4180   38.0310 C   0  0  0  0  0  0  0  0  0  0  0  0
   37.3800   22.9450   36.8530 N   0  0  0  0  0  0  0  0  0  0  0  0
   38.1440   22.3440   35.9210 C   0  0  0  0  0  0  0  0  0  0  0  0
   39.4520   22.1920   36.1230 N   0  0  0  0  0  0  0  0  0  0  0  0
   43.4090   23.8660   36.6290 C   0  0  0  0  0  0  0  0  0  0  0  0
   43.6560   25.0760   35.8000 C   0  0  0  0  0  0  0  0  0  0  0  0
   41.8342   22.8522   38.3576 H   0  0  0  0  0  0  0  0  0  0  0  0
   41.5120   23.7606   35.7096 H   0  0  0  0  0  0  0  0  0  0  0  0
   41.8972   21.5027   34.7781 H   0  0  0  0  0  0  0  0  0  0  0  0
   43.5197   22.1522   34.7527 H   0  0  0  0  0  0  0  0  0  0  0  0
   43.1904   19.9030   36.0800 H   0  0  0  0  0  0  0  0  0  0  0  0
   44.0207   21.1359   36.9921 H   0  0  0  0  0  0  0  0  0  0  0  0
   42.1282   20.6557   38.4425 H   0  0  0  0  0  0  0  0  0  0  0  0
   41.0355   20.3243   37.1167 H   0  0  0  0  0  0  0  0  0  0  0  0
   39.7273   23.6276   39.1836 H   0  0  0  0  0  0  0  0  0  0  0  0
   37.2563   23.9052   38.7782 H   0  0  0  0  0  0  0  0  0  0  0  0
   37.6867   21.9775   34.9901 H   0  0  0  0  0  0  0  0  0  0  0  0
   43.2790   24.1856   37.6735 H   0  0  0  0  0  0  0  0  0  0  0  0
   44.2775   23.2061   36.4864 H   0  0  0  0  0  0  0  0  0  0  0  0
   43.8325   25.9406   36.4567 H   0  0  0  0  0  0  0  0  0  0  0  0
   44.5391   24.9115   35.1651 H   0  0  0  0  0  0  0  0  0  0  0  0
   42.7791   25.2707   35.1651 H   0  0  0  0  0  0  0  0  0  0  0  0
  1  5  1  0
  2 12  1  0
  2  1  1  0
  3  2  1  0
  3  4  1  0
  4  5  1  0
  6  1  1  0
  6  7  2  0
  8  7  1  0
  9  8  2  0
 10 11  2  0
 10  9  1  0
 11  6  1  0
 13 12  1  0
  1 14  1  1
  2 15  1  6
  3 16  1  0
  3 17  1  0
  4 18  1  0
  4 19  1  0
  5 20  1  0
  5 21  1  0
  7 22  1  0
  8 23  1  0
 10 24  1  0
 12 25  1  0
 12 26  1  0
 13 27  1  0
 13 28  1  0
 13 29  1  0
M  ISO  8  14  13  15  13  16  13  17  13  18  13  19  13  20  13  21  13
M  ISO  8  22  14  23  14  24  14  25   8  26   8  27   8  28   8  29   8
M  END
>  <minimizedAffinity>  (1) 
-4.05087042

>  <minimizedRMSD>  (1) 
0.225460544

$$$$
