
     RDKit          3D

 31 33  0  0  1  0  0  0  0  0999 V2000
   41.1910   22.7070   37.1420 C   0  0  2  0  0  0  0  0  0  0  0  0
   41.7570   23.4610   35.9830 C   0  0  1  0  0  0  0  0  0  0  0  0
   42.3440   22.3840   35.1150 C   0  0  0  0  0  0  0  0  0  0  0  0
   42.9110   21.4390   36.1520 C   0  0  0  0  0  0  0  0  0  0  0  0
   41.7460   21.3260   37.1240 C   0  0  0  0  0  0  0  0  0  0  0  0
   39.7090   22.7210   37.0830 C   0  0  0  0  0  0  0  0  0  0  0  0
   38.9280   23.3950   38.0470 C   0  0  0  0  0  0  0  0  0  0  0  0
   37.5360   23.3560   37.8980 C   0  0  0  0  0  0  0  0  0  0  0  0
   37.0240   22.6690   36.8340 N   0  0  0  0  0  0  0  0  0  0  0  0
   37.7980   22.0370   35.9350 C   0  0  0  0  0  0  0  0  0  0  0  0
   39.1400   22.0700   36.0700 N   0  0  0  0  0  0  0  0  0  0  0  0
   40.8110   24.2840   35.2150 C   0  0  0  0  0  0  0  0  0  0  0  0
   40.6960   23.8840   33.8780 C   0  0  0  0  0  0  0  0  0  0  0  0
   39.8540   24.4830   32.9320 C   0  0  0  0  0  0  0  0  0  0  0  0
   39.0900   25.5220   33.3180 N   0  0  0  0  0  0  0  0  0  0  0  0
   39.1910   25.9170   34.5980 C   0  0  0  0  0  0  0  0  0  0  0  0
   40.0010   25.3160   35.4490 N   0  0  0  0  0  0  0  0  0  0  0  0
   41.4752   23.1821   38.0925 H   0  0  0  0  0  0  0  0  0  0  0  0
   42.4728   24.2110   36.3505 H   0  0  0  0  0  0  0  0  0  0  0  0
   41.5714   21.8941   34.5042 H   0  0  0  0  0  0  0  0  0  0  0  0
   43.0836   22.7476   34.3864 H   0  0  0  0  0  0  0  0  0  0  0  0
   43.1637   20.4632   35.7117 H   0  0  0  0  0  0  0  0  0  0  0  0
   43.8482   21.7857   36.6117 H   0  0  0  0  0  0  0  0  0  0  0  0
   40.9986   20.6040   36.7633 H   0  0  0  0  0  0  0  0  0  0  0  0
   42.0448   20.9655   38.1194 H   0  0  0  0  0  0  0  0  0  0  0  0
   39.3962   23.9317   38.8853 H   0  0  0  0  0  0  0  0  0  0  0  0
   36.8749   23.8633   38.6161 H   0  0  0  0  0  0  0  0  0  0  0  0
   37.3399   21.4959   35.0940 H   0  0  0  0  0  0  0  0  0  0  0  0
   41.3129   23.0361   33.5456 H   0  0  0  0  0  0  0  0  0  0  0  0
   39.8180   24.1126   31.8969 H   0  0  0  0  0  0  0  0  0  0  0  0
   38.5821   26.7643   34.9462 H   0  0  0  0  0  0  0  0  0  0  0  0
  2  1  1  0
  3  2  1  0
  3  4  1  0
  4  5  1  0
  5  1  1  0
  6  1  1  0
  6  7  2  0
  8  7  1  0
  9  8  2  0
 10 11  2  0
 10  9  1  0
 11  6  1  0
 12 17  1  0
 12  2  1  0
 13 12  2  0
 14 15  2  0
 14 13  1  0
 15 16  1  0
 16 17  2  0
  1 18  1  1
  2 19  1  1
  3 20  1  0
  3 21  1  0
  4 22  1  0
  4 23  1  0
  5 24  1  0
  5 25  1  0
  7 26  1  0
  8 27  1  0
 10 28  1  0
 13 29  1  0
 14 30  1  0
 16 31  1  0
M  ISO  8  18  13  19  13  20  13  21  13  22  13  23  13  24  13  25  13
M  ISO  6  26  14  27  14  28  14  29  14  30  14  31  14
M  END
>  <minimizedAffinity>  (1) 
-4.14638233

>  <minimizedRMSD>  (1) 
0.878289819

$$$$
