
     RDKit          3D

 26 27  0  0  1  0  0  0  0  0999 V2000
   41.3680   22.5810   37.2080 C   0  0  2  0  0  0  0  0  0  0  0  0
   41.8750   22.9800   35.8310 C   0  0  2  0  0  0  0  0  0  0  0  0
   42.3310   21.6820   35.2640 C   0  0  0  0  0  0  0  0  0  0  0  0
   42.8810   20.9630   36.4690 C   0  0  0  0  0  0  0  0  0  0  0  0
   41.7660   21.1840   37.4830 C   0  0  0  0  0  0  0  0  0  0  0  0
   39.8900   22.7450   37.2200 C   0  0  0  0  0  0  0  0  0  0  0  0
   39.2060   23.2840   38.3400 C   0  0  0  0  0  0  0  0  0  0  0  0
   37.8040   23.3830   38.2420 C   0  0  0  0  0  0  0  0  0  0  0  0
   37.1880   22.9650   37.0950 N   0  0  0  0  0  0  0  0  0  0  0  0
   37.8830   22.4600   36.0560 C   0  0  0  0  0  0  0  0  0  0  0  0
   39.2140   22.3540   36.1250 N   0  0  0  0  0  0  0  0  0  0  0  0
   42.9100   24.0570   35.8570 C   0  0  0  0  0  0  0  0  0  0  0  0
   43.4650   24.0550   37.1430 F   0  0  0  0  0  0  0  0  0  0  0  0
   42.4780   25.2850   35.4610 F   0  0  0  0  0  0  0  0  0  0  0  0
   43.9530   23.6410   35.0240 F   0  0  0  0  0  0  0  0  0  0  0  0
   41.8013   23.2147   37.9958 H   0  0  0  0  0  0  0  0  0  0  0  0
   41.1064   23.4576   35.2055 H   0  0  0  0  0  0  0  0  0  0  0  0
   41.4911   21.1267   34.8210 H   0  0  0  0  0  0  0  0  0  0  0  0
   43.0658   21.7962   34.4534 H   0  0  0  0  0  0  0  0  0  0  0  0
   43.0332   19.8929   36.2647 H   0  0  0  0  0  0  0  0  0  0  0  0
   43.8668   21.3237   36.7977 H   0  0  0  0  0  0  0  0  0  0  0  0
   42.1348   21.0695   38.5130 H   0  0  0  0  0  0  0  0  0  0  0  0
   40.9395   20.4634   37.3953 H   0  0  0  0  0  0  0  0  0  0  0  0
   39.7448   23.6092   39.2422 H   0  0  0  0  0  0  0  0  0  0  0  0
   37.2136   23.7905   39.0759 H   0  0  0  0  0  0  0  0  0  0  0  0
   37.3533   22.1342   35.1487 H   0  0  0  0  0  0  0  0  0  0  0  0
  1  6  1  0
  1  5  1  0
  2 12  1  0
  2  1  1  0
  3  2  1  0
  3  4  1  0
  4  5  1  0
  6  7  2  0
  8  7  1  0
  9  8  2  0
 10 11  2  0
 10  9  1  0
 11  6  1  0
 12 13  1  0
 14 12  1  0
 15 12  1  0
  1 16  1  1
  2 17  1  6
  3 18  1  0
  3 19  1  0
  4 20  1  0
  4 21  1  0
  5 22  1  0
  5 23  1  0
  7 24  1  0
  8 25  1  0
 10 26  1  0
M  ISO  8  16  13  17  13  18  13  19  13  20  13  21  13  22  13  23  13
M  ISO  3  24  14  25  14  26  14
M  END
>  <minimizedAffinity>  (1) 
-4.34149742

>  <minimizedRMSD>  (1) 
0.695772469

$$$$
