
     RDKit          3D

 34 37  0  0  1  0  0  0  0  0999 V2000
   41.0740   22.8580   36.6900 C   0  0  2  0  0  0  0  0  0  0  0  0
   41.5430   23.0390   35.2800 C   0  0  1  0  0  0  0  0  0  0  0  0
   42.0800   21.6880   34.9210 C   0  0  0  0  0  0  0  0  0  0  0  0
   42.7100   21.2300   36.1980 C   0  0  0  0  0  0  0  0  0  0  0  0
   41.6210   21.5670   37.2020 C   0  0  0  0  0  0  0  0  0  0  0  0
   40.5380   23.5260   34.3700 N   0  0  0  0  0  0  0  0  0  0  0  0
   39.8860   22.8170   33.4310 C   0  0  0  0  0  0  0  0  0  0  0  0
   39.0470   23.6660   32.8210 N   0  0  0  0  0  0  0  0  0  0  0  0
   39.1720   24.9050   33.3750 C   0  0  0  0  0  0  0  0  0  0  0  0
   38.5200   26.0890   33.0770 C   0  0  0  0  0  0  0  0  0  0  0  0
   38.8800   27.1530   33.8250 N   0  0  0  0  0  0  0  0  0  0  0  0
   39.7910   27.1140   34.7860 C   0  0  0  0  0  0  0  0  0  0  0  0
   40.4160   25.9410   35.0580 N   0  0  0  0  0  0  0  0  0  0  0  0
   40.1400   24.8130   34.3800 C   0  0  0  0  0  0  0  0  0  0  0  0
   39.5880   22.8590   36.7120 C   0  0  0  0  0  0  0  0  0  0  0  0
   38.8580   23.8520   37.4320 C   0  0  0  0  0  0  0  0  0  0  0  0
   37.4640   23.7880   37.4070 C   0  0  0  0  0  0  0  0  0  0  0  0
   36.8800   22.7850   36.6990 N   0  0  0  0  0  0  0  0  0  0  0  0
   37.6040   21.8630   36.0300 C   0  0  0  0  0  0  0  0  0  0  0  0
   38.9400   21.9060   36.0410 N   0  0  0  0  0  0  0  0  0  0  0  0
   41.4268   23.6772   37.3338 H   0  0  0  0  0  0  0  0  0  0  0  0
   42.2995   23.8334   35.1982 H   0  0  0  0  0  0  0  0  0  0  0  0
   41.2709   21.0094   34.6130 H   0  0  0  0  0  0  0  0  0  0  0  0
   42.7810   21.7098   34.0736 H   0  0  0  0  0  0  0  0  0  0  0  0
   42.9207   20.1505   36.1790 H   0  0  0  0  0  0  0  0  0  0  0  0
   43.6828   21.6959   36.4139 H   0  0  0  0  0  0  0  0  0  0  0  0
   42.0394   21.6886   38.2120 H   0  0  0  0  0  0  0  0  0  0  0  0
   40.8578   20.7799   37.2915 H   0  0  0  0  0  0  0  0  0  0  0  0
   40.0161   21.7479   33.2071 H   0  0  0  0  0  0  0  0  0  0  0  0
   37.7602   26.1580   32.2845 H   0  0  0  0  0  0  0  0  0  0  0  0
   40.0377   28.0216   35.3564 H   0  0  0  0  0  0  0  0  0  0  0  0
   39.3786   24.6442   37.9900 H   0  0  0  0  0  0  0  0  0  0  0  0
   36.8546   24.5288   37.9454 H   0  0  0  0  0  0  0  0  0  0  0  0
   37.0894   21.0682   35.4701 H   0  0  0  0  0  0  0  0  0  0  0  0
  1 15  1  0
  1  5  1  0
  2  1  1  0
  3  2  1  0
  3  4  1  0
  4  5  1  0
  6 14  1  0
  6  2  1  0
  7  6  1  0
  8  9  1  0
  8  7  2  0
  9 14  2  0
 10  9  1  0
 10 11  2  0
 11 12  1  0
 12 13  2  0
 14 13  1  0
 15 16  2  0
 17 16  1  0
 18 17  2  0
 19 20  2  0
 19 18  1  0
 20 15  1  0
  1 21  1  1
  2 22  1  1
  3 23  1  0
  3 24  1  0
  4 25  1  0
  4 26  1  0
  5 27  1  0
  5 28  1  0
  7 29  1  0
 10 30  1  0
 12 31  1  0
 16 32  1  0
 17 33  1  0
 19 34  1  0
M  ISO  8  21  13  22  13  23  13  24  13  25  13  26  13  27  13  28  13
M  ISO  6  29  14  30  14  31  14  32  14  33  14  34  14
M  END
>  <minimizedAffinity>  (1) 
-4.08174372

>  <minimizedRMSD>  (1) 
1.83341265

$$$$
