
     RDKit          3D

 46 49  0  0  0  0  0  0  0  0999 V2000
   37.8230   25.0710   32.4860 C   0  0  0  0  0  0  0  0  0  0  0  0
   36.9850   26.0670   32.0540 C   0  0  0  0  0  0  0  0  0  0  0  0
   35.8070   25.6460   31.4870 C   0  0  0  0  0  0  0  0  0  0  0  0
   35.4970   24.3310   31.3650 N   0  0  0  0  0  0  0  0  0  0  0  0
   36.3340   23.4010   31.7960 C   0  0  0  0  0  0  0  0  0  0  0  0
   37.5250   23.7740   32.3710 N   0  0  0  0  0  0  0  0  0  0  0  0
   36.0080   21.9860   31.6700 C   0  0  0  0  0  0  0  0  0  0  0  0
   34.9880   21.4440   32.4460 C   0  0  0  0  0  0  0  0  0  0  0  0
   34.7850   20.1030   32.2280 C   0  0  0  0  0  0  0  0  0  0  0  0
   35.4940   19.3500   31.3460 N   0  0  0  0  0  0  0  0  0  0  0  0
   36.4660   19.9690   30.6380 C   0  0  0  0  0  0  0  0  0  0  0  0
   36.7190   21.2600   30.7950 N   0  0  0  0  0  0  0  0  0  0  0  0
   37.2240   19.2020   29.7070 N   0  0  0  0  0  0  0  0  0  0  0  0
   38.5700   18.7660   29.9210 C   0  0  0  0  0  0  0  0  0  0  0  0
   38.7720   17.5680   28.9840 C   0  0  0  0  0  0  0  0  0  0  0  0
   38.7030   17.9370   27.6450 O   0  0  0  0  0  0  0  0  0  0  0  0
   37.7550   18.9290   27.4210 C   0  0  0  0  0  0  0  0  0  0  0  0
   36.6380   18.8060   28.4390 C   0  0  0  0  0  0  0  0  0  0  0  0
   41.0280   24.9020   34.2720 C   0  0  0  0  0  0  0  0  0  0  0  0
   41.5100   26.2130   34.2530 C   0  0  0  0  0  0  0  0  0  0  0  0
   40.6870   27.1220   33.6090 C   0  0  0  0  0  0  0  0  0  0  0  0
   39.5210   26.7300   33.0560 N   0  0  0  0  0  0  0  0  0  0  0  0
   39.0990   25.4450   33.1020 C   0  0  0  0  0  0  0  0  0  0  0  0
   39.8810   24.5350   33.7250 N   0  0  0  0  0  0  0  0  0  0  0  0
   42.7410   26.6020   34.8410 N   0  0  0  0  0  0  0  0  0  0  0  0
   43.9070   26.9480   34.1450 C   0  0  0  0  0  0  0  0  0  0  0  0
   44.1540   26.2360   33.0520 N   0  0  0  0  0  0  0  0  0  0  0  0
   44.6800   28.0330   34.7180 N   0  0  0  0  0  0  0  0  0  0  0  0
   44.9740   26.4430   32.4730 H   0  0  0  0  0  0  0  0  0  0  0  0
   37.2394   27.1324   32.1549 H   0  0  0  0  0  0  0  0  0  0  0  0
   35.0930   26.3983   31.1206 H   0  0  0  0  0  0  0  0  0  0  0  0
   34.4003   22.0332   33.1654 H   0  0  0  0  0  0  0  0  0  0  0  0
   33.9940   19.6041   32.8072 H   0  0  0  0  0  0  0  0  0  0  0  0
   39.2779   19.5706   29.6729 H   0  0  0  0  0  0  0  0  0  0  0  0
   38.7464   18.4938   30.9721 H   0  0  0  0  0  0  0  0  0  0  0  0
   39.7601   17.1262   29.1802 H   0  0  0  0  0  0  0  0  0  0  0  0
   37.9669   16.8443   29.1791 H   0  0  0  0  0  0  0  0  0  0  0  0
   38.2296   19.9168   27.5161 H   0  0  0  0  0  0  0  0  0  0  0  0
   37.3401   18.8151   26.4086 H   0  0  0  0  0  0  0  0  0  0  0  0
   35.8033   19.4725   28.1763 H   0  0  0  0  0  0  0  0  0  0  0  0
   36.2320   17.7844   28.4782 H   0  0  0  0  0  0  0  0  0  0  0  0
   41.6361   24.1321   34.7695 H   0  0  0  0  0  0  0  0  0  0  0  0
   40.9885   28.1781   33.5477 H   0  0  0  0  0  0  0  0  0  0  0  0
   42.7813   26.6328   35.8698 H   0  0  0  0  0  0  0  0  0  0  0  0
   45.5497   28.3428   34.2614 H   0  0  0  0  0  0  0  0  0  0  0  0
   44.3593   28.4938   35.5816 H   0  0  0  0  0  0  0  0  0  0  0  0
  1 23  1  0
  2  1  2  0
  3  2  1  0
  4  3  2  0
  4  5  1  0
  5  6  2  0
  6  1  1  0
  7  5  1  0
  7  8  2  0
  9  8  1  0
 10  9  2  0
 11 12  2  0
 11 10  1  0
 12  7  1  0
 13 14  1  0
 13 11  1  0
 15 14  1  0
 16 15  1  0
 17 16  1  0
 17 18  1  0
 18 13  1  0
 20 19  2  0
 20 25  1  0
 21 20  1  0
 22 23  1  0
 22 21  2  0
 23 24  2  0
 24 19  1  0
 26 28  1  0
 26 25  1  0
 27 26  2  0
 29 27  1  0
  2 30  1  0
  3 31  1  0
  8 32  1  0
  9 33  1  0
 14 34  1  0
 14 35  1  0
 15 36  1  0
 15 37  1  0
 17 38  1  0
 17 39  1  0
 18 40  1  0
 18 41  1  0
 19 42  1  0
 21 43  1  0
 25 44  1  0
 28 45  1  0
 28 46  1  0
M  ISO  8  30  14  31  14  32  14  33  14  34  13  35  13  36  13  37  13
M  ISO  6  38  13  39  13  40  13  41  13  42  14  43  14
M  END
>  <minimizedAffinity>  (1) 
-5.8765769

>  <minimizedRMSD>  (1) 
0.964597881

$$$$
