
     RDKit          3D

 30 32  0  0  1  0  0  0  0  0999 V2000
   41.3620   22.5930   37.2420 C   0  0  2  0  0  0  0  0  0  0  0  0
   42.0240   23.3690   36.1140 C   0  0  1  0  0  0  0  0  0  0  0  0
   42.6530   22.2810   35.3010 C   0  0  0  0  0  0  0  0  0  0  0  0
   43.0980   21.2910   36.3570 C   0  0  0  0  0  0  0  0  0  0  0  0
   41.8580   21.2030   37.2230 C   0  0  0  0  0  0  0  0  0  0  0  0
   39.8820   22.6650   37.0580 C   0  0  0  0  0  0  0  0  0  0  0  0
   39.0670   23.3850   37.9880 C   0  0  0  0  0  0  0  0  0  0  0  0
   37.6810   23.3890   37.7210 C   0  0  0  0  0  0  0  0  0  0  0  0
   37.2180   22.7280   36.6290 N   0  0  0  0  0  0  0  0  0  0  0  0
   38.0450   22.0570   35.7780 C   0  0  0  0  0  0  0  0  0  0  0  0
   39.3640   22.0340   36.0030 N   0  0  0  0  0  0  0  0  0  0  0  0
   41.0200   24.2060   35.4080 C   0  0  0  0  0  0  0  0  0  0  0  0
   41.3190   25.5870   34.9240 C   0  0  0  0  0  0  0  0  0  0  0  0
   41.0560   24.4520   33.9510 C   0  0  0  0  0  0  0  0  0  0  0  0
   41.6081   23.0220   38.2245 H   0  0  0  0  0  0  0  0  0  0  0  0
   42.7810   24.1072   36.4172 H   0  0  0  0  0  0  0  0  0  0  0  0
   41.9236   21.8271   34.6140 H   0  0  0  0  0  0  0  0  0  0  0  0
   43.4743   22.6342   34.6602 H   0  0  0  0  0  0  0  0  0  0  0  0
   43.3499   20.3161   35.9143 H   0  0  0  0  0  0  0  0  0  0  0  0
   44.0065   21.5900   36.9003 H   0  0  0  0  0  0  0  0  0  0  0  0
   41.1143   20.5246   36.7795 H   0  0  0  0  0  0  0  0  0  0  0  0
   42.0603   20.8029   38.2275 H   0  0  0  0  0  0  0  0  0  0  0  0
   39.4948   23.9040   38.8584 H   0  0  0  0  0  0  0  0  0  0  0  0
   36.9859   23.9200   38.3880 H   0  0  0  0  0  0  0  0  0  0  0  0
   37.6275   21.5337   34.9051 H   0  0  0  0  0  0  0  0  0  0  0  0
   40.2788   23.7716   36.0950 H   0  0  0  0  0  0  0  0  0  0  0  0
   40.5782   26.3902   35.0506 H   0  0  0  0  0  0  0  0  0  0  0  0
   42.1284   26.3154   35.0801 H   0  0  0  0  0  0  0  0  0  0  0  0
   40.1245   24.4328   33.3662 H   0  0  0  0  0  0  0  0  0  0  0  0
   41.5983   24.0139   33.1001 H   0  0  0  0  0  0  0  0  0  0  0  0
  2  1  1  0
  3  2  1  0
  3  4  1  0
  4  5  1  0
  5  1  1  0
  6  1  1  0
  6  7  2  0
  8  7  1  0
  9  8  2  0
 10 11  2  0
 10  9  1  0
 11  6  1  0
 12  2  1  0
 13 12  1  0
 14 13  1  0
 14 12  1  0
  1 15  1  1
  2 16  1  1
  3 17  1  0
  3 18  1  0
  4 19  1  0
  4 20  1  0
  5 21  1  0
  5 22  1  0
  7 23  1  0
  8 24  1  0
 10 25  1  0
 12 26  1  0
 13 27  1  0
 13 28  1  0
 14 29  1  0
 14 30  1  0
M  ISO  8  15  13  16  13  17  13  18  13  19  13  20  13  21  13  22  13
M  ISO  8  23  14  24  14  25  14  26  13  27  13  28  13  29  13  30  13
M  END
>  <minimizedAffinity>  (1) 
-3.92778111

>  <minimizedRMSD>  (1) 
0.657526016

$$$$
