
     RDKit          3D

 30 32  0  0  1  0  0  0  0  0999 V2000
   41.1710   22.7560   37.0800 C   0  0  2  0  0  0  0  0  0  0  0  0
   41.7370   23.4230   35.8410 C   0  0  1  0  0  0  0  0  0  0  0  0
   42.3590   22.2720   35.1110 C   0  0  0  0  0  0  0  0  0  0  0  0
   42.8940   21.4090   36.2080 C   0  0  0  0  0  0  0  0  0  0  0  0
   41.7190   21.3870   37.1710 C   0  0  0  0  0  0  0  0  0  0  0  0
   39.6810   22.7600   36.9810 C   0  0  0  0  0  0  0  0  0  0  0  0
   38.8770   23.5370   37.8480 C   0  0  0  0  0  0  0  0  0  0  0  0
   37.4970   23.4790   37.6840 C   0  0  0  0  0  0  0  0  0  0  0  0
   36.9950   22.6860   36.7100 N   0  0  0  0  0  0  0  0  0  0  0  0
   37.7910   21.9530   35.8950 C   0  0  0  0  0  0  0  0  0  0  0  0
   39.1240   21.9950   36.0360 N   0  0  0  0  0  0  0  0  0  0  0  0
   40.7470   24.1230   35.0670 N   0  0  0  0  0  0  0  0  0  0  0  0
   40.3300   23.6650   33.8720 C   0  0  0  0  0  0  0  0  0  0  0  0
   39.3850   24.5830   33.4210 C   0  0  0  0  0  0  0  0  0  0  0  0
   39.2710   25.5500   34.3530 N   0  0  0  0  0  0  0  0  0  0  0  0
   40.1070   25.2760   35.3720 C   0  0  0  0  0  0  0  0  0  0  0  0
   41.4538   23.2957   37.9958 H   0  0  0  0  0  0  0  0  0  0  0  0
   42.4545   24.2240   36.0724 H   0  0  0  0  0  0  0  0  0  0  0  0
   41.6076   21.7314   34.5168 H   0  0  0  0  0  0  0  0  0  0  0  0
   43.1347   22.5869   34.3975 H   0  0  0  0  0  0  0  0  0  0  0  0
   43.1354   20.3993   35.8444 H   0  0  0  0  0  0  0  0  0  0  0  0
   43.8322   21.7743   36.6511 H   0  0  0  0  0  0  0  0  0  0  0  0
   42.0542   21.1652   38.1949 H   0  0  0  0  0  0  0  0  0  0  0  0
   40.9781   20.6123   36.9243 H   0  0  0  0  0  0  0  0  0  0  0  0
   39.3293   24.1675   38.6277 H   0  0  0  0  0  0  0  0  0  0  0  0
   36.8287   24.0650   38.3320 H   0  0  0  0  0  0  0  0  0  0  0  0
   37.3423   21.3209   35.1146 H   0  0  0  0  0  0  0  0  0  0  0  0
   40.6666   22.7529   33.3574 H   0  0  0  0  0  0  0  0  0  0  0  0
   38.8302   24.5286   32.4727 H   0  0  0  0  0  0  0  0  0  0  0  0
   40.2444   25.8772   36.2829 H   0  0  0  0  0  0  0  0  0  0  0  0
  1  5  1  0
  2  1  1  0
  3  2  1  0
  3  4  1  0
  4  5  1  0
  6  1  1  0
  6  7  2  0
  8  7  1  0
  9  8  2  0
 10 11  2  0
 10  9  1  0
 11  6  1  0
 12 16  1  0
 12  2  1  0
 13 12  1  0
 14 13  2  0
 14 15  1  0
 15 16  2  0
  1 17  1  1
  2 18  1  1
  3 19  1  0
  3 20  1  0
  4 21  1  0
  4 22  1  0
  5 23  1  0
  5 24  1  0
  7 25  1  0
  8 26  1  0
 10 27  1  0
 13 28  1  0
 14 29  1  0
 16 30  1  0
M  ISO  8  17  13  18  13  19  13  20  13  21  13  22  13  23  13  24  13
M  ISO  6  25  14  26  14  27  14  28  14  29  14  30  14
M  END
>  <minimizedAffinity>  (1) 
-3.73472214

>  <minimizedRMSD>  (1) 
0.719098032

$$$$
