
     RDKit          3D

 38 40  0  0  1  0  0  0  0  0999 V2000
   41.4900   22.4360   36.9320 C   0  0  2  0  0  0  0  0  0  0  0  0
   41.8810   22.3640   35.4980 C   0  0  2  0  0  0  0  0  0  0  0  0
   42.2180   20.9200   35.3120 C   0  0  0  0  0  0  0  0  0  0  0  0
   42.8650   20.5620   36.6320 C   0  0  0  0  0  0  0  0  0  0  0  0
   41.8950   21.1900   37.6170 C   0  0  0  0  0  0  0  0  0  0  0  0
   40.0270   22.6740   37.0340 C   0  0  0  0  0  0  0  0  0  0  0  0
   39.4300   23.1930   38.2150 C   0  0  0  0  0  0  0  0  0  0  0  0
   38.0410   23.3850   38.2030 C   0  0  0  0  0  0  0  0  0  0  0  0
   37.3460   23.0640   37.0670 N   0  0  0  0  0  0  0  0  0  0  0  0
   37.9520   22.5710   35.9620 C   0  0  0  0  0  0  0  0  0  0  0  0
   39.2800   22.3770   35.9450 N   0  0  0  0  0  0  0  0  0  0  0  0
   42.9450   23.1430   35.0430 N   0  0  0  0  0  0  0  0  0  0  0  0
   42.4710   24.5020   34.7810 C   0  0  0  0  0  0  0  0  0  0  0  0
   43.5310   25.5310   35.0150 C   0  0  0  0  0  0  0  0  0  0  0  0
   44.2210   25.4680   36.3280 C   0  0  0  0  0  0  0  0  0  0  0  0
   44.0990   24.0630   36.8730 C   0  0  0  0  0  0  0  0  0  0  0  0
   44.1960   23.1300   35.6670 C   0  0  0  0  0  0  0  0  0  0  0  0
   42.0034   23.2737   37.4267 H   0  0  0  0  0  0  0  0  0  0  0  0
   41.0484   22.7765   34.9092 H   0  0  0  0  0  0  0  0  0  0  0  0
   41.3128   20.3199   35.1373 H   0  0  0  0  0  0  0  0  0  0  0  0
   42.8628   20.7288   34.4415 H   0  0  0  0  0  0  0  0  0  0  0  0
   42.9278   19.4722   36.7675 H   0  0  0  0  0  0  0  0  0  0  0  0
   43.9027   20.9121   36.7353 H   0  0  0  0  0  0  0  0  0  0  0  0
   42.3894   21.4078   38.5752 H   0  0  0  0  0  0  0  0  0  0  0  0
   41.0465   20.5365   37.8681 H   0  0  0  0  0  0  0  0  0  0  0  0
   40.0333   23.4343   39.1026 H   0  0  0  0  0  0  0  0  0  0  0  0
   37.5210   23.7845   39.0862 H   0  0  0  0  0  0  0  0  0  0  0  0
   37.3526   22.3278   35.0723 H   0  0  0  0  0  0  0  0  0  0  0  0
   41.6204   24.7137   35.4456 H   0  0  0  0  0  0  0  0  0  0  0  0
   42.1786   24.5567   33.7220 H   0  0  0  0  0  0  0  0  0  0  0  0
   44.2919   25.4150   34.2291 H   0  0  0  0  0  0  0  0  0  0  0  0
   43.0116   26.5005   34.9993 H   0  0  0  0  0  0  0  0  0  0  0  0
   45.2830   25.7247   36.2007 H   0  0  0  0  0  0  0  0  0  0  0  0
   43.7619   26.1823   37.0272 H   0  0  0  0  0  0  0  0  0  0  0  0
   44.9144   23.8565   37.5818 H   0  0  0  0  0  0  0  0  0  0  0  0
   43.1514   23.9230   37.4139 H   0  0  0  0  0  0  0  0  0  0  0  0
   44.4440   22.1102   35.9964 H   0  0  0  0  0  0  0  0  0  0  0  0
   44.9849   23.4606   34.9754 H   0  0  0  0  0  0  0  0  0  0  0  0
  1  6  1  0
  1  5  1  0
  2  1  1  0
  3  2  1  0
  3  4  1  0
  4  5  1  0
  6  7  2  0
  8  7  1  0
  9  8  2  0
 10  9  1  0
 11 10  2  0
 11  6  1  0
 12  2  1  0
 12 17  1  0
 13 14  1  0
 13 12  1  0
 14 15  1  0
 15 16  1  0
 17 16  1  0
  1 18  1  1
  2 19  1  6
  3 20  1  0
  3 21  1  0
  4 22  1  0
  4 23  1  0
  5 24  1  0
  5 25  1  0
  7 26  1  0
  8 27  1  0
 10 28  1  0
 13 29  1  0
 13 30  1  0
 14 31  1  0
 14 32  1  0
 15 33  1  0
 15 34  1  0
 16 35  1  0
 16 36  1  0
 17 37  1  0
 17 38  1  0
M  ISO  8  18  13  19  13  20  13  21  13  22  13  23  13  24  13  25  13
M  ISO  8  26  14  27  14  28  14  29  13  30  13  31  13  32  13  33  13
M  ISO  5  34  13  35  13  36  13  37  13  38  13
M  END
>  <minimizedAffinity>  (1) 
-4.48629284

>  <minimizedRMSD>  (1) 
1.69617474

$$$$
