
     RDKit          3D

 43 46  0  0  1  0  0  0  0  0999 V2000
   41.4560   22.3670   37.1710 C   0  0  2  0  0  0  0  0  0  0  0  0
   42.0260   22.5260   35.8250 C   0  0  2  0  0  0  0  0  0  0  0  0
   42.4260   21.1200   35.4770 C   0  0  0  0  0  0  0  0  0  0  0  0
   42.7720   20.4900   36.7440 C   0  0  0  0  0  0  0  0  0  0  0  0
   41.7870   21.0480   37.7350 C   0  0  0  0  0  0  0  0  0  0  0  0
   43.1400   23.3510   35.6630 N   0  0  0  0  0  0  0  0  0  0  0  0
   43.7170   23.1490   34.3700 C   0  0  0  0  0  0  0  0  0  0  0  0
   44.2620   24.3710   33.6960 C   0  0  0  0  0  0  0  0  0  0  0  0
   43.4460   25.6020   33.8020 C   0  0  0  0  0  0  0  0  0  0  0  0
   42.5310   25.4980   34.9950 C   0  0  0  0  0  0  0  0  0  0  0  0
   43.1370   24.6610   36.0370 C   0  0  2  0  0  0  0  0  0  0  0  0
   44.5880   25.1000   36.1760 C   0  0  0  0  0  0  0  0  0  0  0  0
   45.4930   24.2230   36.6720 N   0  0  0  0  0  0  0  0  0  0  0  0
   46.6760   24.7860   36.7280 O   0  0  0  0  0  0  0  0  0  0  0  0
   46.5300   26.0090   36.2750 C   0  0  0  0  0  0  0  0  0  0  0  0
   45.2540   26.2480   35.9200 N   0  0  0  0  0  0  0  0  0  0  0  0
   39.9810   22.5920   37.1330 C   0  0  0  0  0  0  0  0  0  0  0  0
   39.3040   23.2170   38.2290 C   0  0  0  0  0  0  0  0  0  0  0  0
   37.9240   23.4230   38.0690 C   0  0  0  0  0  0  0  0  0  0  0  0
   37.3460   23.0200   36.9060 N   0  0  0  0  0  0  0  0  0  0  0  0
   38.0410   22.4280   35.8940 C   0  0  0  0  0  0  0  0  0  0  0  0
   39.3620   22.2110   36.0040 N   0  0  0  0  0  0  0  0  0  0  0  0
   41.9022   23.1234   37.8334 H   0  0  0  0  0  0  0  0  0  0  0  0
   41.2761   23.0277   35.1958 H   0  0  0  0  0  0  0  0  0  0  0  0
   41.5893   20.5891   34.9993 H   0  0  0  0  0  0  0  0  0  0  0  0
   43.2659   21.0981   34.7671 H   0  0  0  0  0  0  0  0  0  0  0  0
   42.6723   19.3969   36.6727 H   0  0  0  0  0  0  0  0  0  0  0  0
   43.8131   20.6917   37.0363 H   0  0  0  0  0  0  0  0  0  0  0  0
   42.2427   21.1477   38.7312 H   0  0  0  0  0  0  0  0  0  0  0  0
   40.9057   20.4052   37.8771 H   0  0  0  0  0  0  0  0  0  0  0  0
   44.5411   22.4284   34.4780 H   0  0  0  0  0  0  0  0  0  0  0  0
   42.8941   22.7990   33.7294 H   0  0  0  0  0  0  0  0  0  0  0  0
   44.3799   24.1389   32.6272 H   0  0  0  0  0  0  0  0  0  0  0  0
   45.2021   24.5983   34.2200 H   0  0  0  0  0  0  0  0  0  0  0  0
   44.1086   26.4717   33.9230 H   0  0  0  0  0  0  0  0  0  0  0  0
   42.8449   25.7228   32.8887 H   0  0  0  0  0  0  0  0  0  0  0  0
   42.3485   26.5044   35.3999 H   0  0  0  0  0  0  0  0  0  0  0  0
   41.5832   25.0391   34.6771 H   0  0  0  0  0  0  0  0  0  0  0  0
   42.5688   24.7687   36.9727 H   0  0  0  0  0  0  0  0  0  0  0  0
   47.3449   26.7436   36.1957 H   0  0  0  0  0  0  0  0  0  0  0  0
   39.8345   23.5186   39.1442 H   0  0  0  0  0  0  0  0  0  0  0  0
   37.3274   23.8971   38.8623 H   0  0  0  0  0  0  0  0  0  0  0  0
   37.5144   22.1246   34.9772 H   0  0  0  0  0  0  0  0  0  0  0  0
  1  5  1  0
  2  1  1  0
  3  2  1  0
  3  4  1  0
  4  5  1  0
  6  7  1  0
  6  2  1  0
  6 11  1  0
  8  9  1  0
  8  7  1  0
  9 10  1  0
 10 11  1  0
 11 12  1  0
 12 13  2  0
 13 14  1  0
 15 14  1  0
 16 12  1  0
 16 15  2  0
 17  1  1  0
 17 18  2  0
 19 18  1  0
 20 19  2  0
 21 22  2  0
 21 20  1  0
 22 17  1  0
  1 23  1  1
  2 24  1  6
  3 25  1  0
  3 26  1  0
  4 27  1  0
  4 28  1  0
  5 29  1  0
  5 30  1  0
  7 31  1  0
  7 32  1  0
  8 33  1  0
  8 34  1  0
  9 35  1  0
  9 36  1  0
 10 37  1  0
 10 38  1  0
 11 39  1  1
 15 40  1  0
 18 41  1  0
 19 42  1  0
 21 43  1  0
M  ISO  8  23  13  24  13  25  13  26  13  27  13  28  13  29  13  30  13
M  ISO  8  31  13  32  13  33  13  34  13  35  13  36  13  37  13  38  13
M  ISO  5  39  13  40  14  41  14  42  14  43  14
M  END
>  <minimizedAffinity>  (1) 
-4.84164047

>  <minimizedRMSD>  (1) 
1.79716587

$$$$
