
     RDKit          3D

 49 53  0  0  1  0  0  0  0  0999 V2000
   40.1610   24.2640   35.7270 N   0  0  0  0  0  0  0  0  0  0  0  0
   41.5860   23.8650   35.6700 C   0  0  0  0  0  0  0  0  0  0  0  0
   42.3780   24.6000   34.6320 C   0  0  0  0  0  0  0  0  0  0  0  0
   41.7680   24.5950   33.2590 C   0  0  0  0  0  0  0  0  0  0  0  0
   40.2550   24.6360   33.4390 C   0  0  0  0  0  0  0  0  0  0  0  0
   39.8770   25.1570   34.7520 C   0  0  1  0  0  0  0  0  0  0  0  0
   38.0040   23.2600   36.3560 C   0  0  2  0  0  0  0  0  0  0  0  0
   39.4330   23.1320   36.0410 C   0  0  2  0  0  0  0  0  0  0  0  0
   40.0000   22.5950   37.3310 C   0  0  0  0  0  0  0  0  0  0  0  0
   39.1770   23.1720   38.3640 C   0  0  0  0  0  0  0  0  0  0  0  0
   37.7700   23.1430   37.8100 C   0  0  0  0  0  0  0  0  0  0  0  0
   37.2250   22.2320   35.6020 C   0  0  0  0  0  0  0  0  0  0  0  0
   36.2300   21.4490   36.2470 C   0  0  0  0  0  0  0  0  0  0  0  0
   35.5200   20.5380   35.4620 C   0  0  0  0  0  0  0  0  0  0  0  0
   35.8360   20.4700   34.1410 N   0  0  0  0  0  0  0  0  0  0  0  0
   36.8000   21.2400   33.5610 C   0  0  0  0  0  0  0  0  0  0  0  0
   37.4910   22.1200   34.2990 N   0  0  0  0  0  0  0  0  0  0  0  0
   38.9490   26.2420   34.8260 N   0  0  0  0  0  0  0  0  0  0  0  0
   38.8040   27.1480   35.8060 C   0  0  0  0  0  0  0  0  0  0  0  0
   37.8290   28.0420   35.5610 N   0  0  0  0  0  0  0  0  0  0  0  0
   37.3480   27.6660   34.3630 C   0  0  0  0  0  0  0  0  0  0  0  0
   36.3080   28.2910   33.6780 C   0  0  0  0  0  0  0  0  0  0  0  0
   35.9240   27.7980   32.4780 N   0  0  0  0  0  0  0  0  0  0  0  0
   36.5920   26.7170   32.0310 C   0  0  0  0  0  0  0  0  0  0  0  0
   37.5920   26.1190   32.6960 N   0  0  0  0  0  0  0  0  0  0  0  0
   38.0260   26.5570   33.8950 C   0  0  0  0  0  0  0  0  0  0  0  0
   42.0398   24.0575   36.6534 H   0  0  0  0  0  0  0  0  0  0  0  0
   41.6101   22.7997   35.3969 H   0  0  0  0  0  0  0  0  0  0  0  0
   42.4824   25.6457   34.9571 H   0  0  0  0  0  0  0  0  0  0  0  0
   43.3414   24.0760   34.5466 H   0  0  0  0  0  0  0  0  0  0  0  0
   42.0590   23.6811   32.7204 H   0  0  0  0  0  0  0  0  0  0  0  0
   42.1156   25.4590   32.6737 H   0  0  0  0  0  0  0  0  0  0  0  0
   39.8216   25.2823   32.6615 H   0  0  0  0  0  0  0  0  0  0  0  0
   39.8735   23.6075   33.3571 H   0  0  0  0  0  0  0  0  0  0  0  0
   40.4636   25.9941   35.1585 H   0  0  0  0  0  0  0  0  0  0  0  0
   37.6616   24.2584   36.0463 H   0  0  0  0  0  0  0  0  0  0  0  0
   39.5094   22.5322   35.1221 H   0  0  0  0  0  0  0  0  0  0  0  0
   39.9377   21.4970   37.3542 H   0  0  0  0  0  0  0  0  0  0  0  0
   41.0625   22.8509   37.4556 H   0  0  0  0  0  0  0  0  0  0  0  0
   39.2410   22.5762   39.2865 H   0  0  0  0  0  0  0  0  0  0  0  0
   39.4965   24.1921   38.6234 H   0  0  0  0  0  0  0  0  0  0  0  0
   37.1754   23.9880   38.1874 H   0  0  0  0  0  0  0  0  0  0  0  0
   37.2020   22.2451   38.0947 H   0  0  0  0  0  0  0  0  0  0  0  0
   36.0269   21.5563   37.3228 H   0  0  0  0  0  0  0  0  0  0  0  0
   34.7356   19.9001   35.8954 H   0  0  0  0  0  0  0  0  0  0  0  0
   37.0110   21.1390   32.4862 H   0  0  0  0  0  0  0  0  0  0  0  0
   39.4201   27.1583   36.7172 H   0  0  0  0  0  0  0  0  0  0  0  0
   35.8069   29.1716   34.1062 H   0  0  0  0  0  0  0  0  0  0  0  0
   36.2985   26.2973   31.0575 H   0  0  0  0  0  0  0  0  0  0  0  0
  1  2  1  0
  1  8  1  0
  3  2  1  0
  4  5  1  0
  4  3  1  0
  5  6  1  0
  6 18  1  0
  6  1  1  0
  7 11  1  0
  8  7  1  0
  8  9  1  0
  9 10  1  0
 11 10  1  0
 12 13  2  0
 12  7  1  0
 14 13  1  0
 15 14  2  0
 16 15  1  0
 16 17  2  0
 17 12  1  0
 18 19  1  0
 20 19  2  0
 21 20  1  0
 22 21  2  0
 23 22  1  0
 24 23  2  0
 24 25  1  0
 25 26  2  0
 26 21  1  0
 26 18  1  0
  2 27  1  0
  2 28  1  0
  3 29  1  0
  3 30  1  0
  4 31  1  0
  4 32  1  0
  5 33  1  0
  5 34  1  0
  6 35  1  1
  7 36  1  6
  8 37  1  6
  9 38  1  0
  9 39  1  0
 10 40  1  0
 10 41  1  0
 11 42  1  0
 11 43  1  0
 13 44  1  0
 14 45  1  0
 16 46  1  0
 19 47  1  0
 22 48  1  0
 24 49  1  0
M  ISO  8  27  13  28  13  29  13  30  13  31  13  32  13  33  13  34  13
M  ISO  8  35  13  36  13  37  13  38  13  39  13  40  13  41  13  42  13
M  ISO  7  43  13  44  14  45  14  46  14  47  14  48  14  49  14
M  END
>  <minimizedAffinity>  (1) 
-5.7423954

>  <minimizedRMSD>  (1) 
7.50999117

$$$$
