
     RDKit          3D

 47 50  0  0  1  0  0  0  0  0999 V2000
   41.6010   22.5600   37.1530 C   0  0  2  0  0  0  0  0  0  0  0  0
   42.3460   22.6500   35.8880 C   0  0  2  0  0  0  0  0  0  0  0  0
   42.5190   21.2070   35.5050 C   0  0  0  0  0  0  0  0  0  0  0  0
   42.5650   20.4760   36.7610 C   0  0  0  0  0  0  0  0  0  0  0  0
   41.6170   21.1810   37.6810 C   0  0  0  0  0  0  0  0  0  0  0  0
   43.6090   23.2410   35.8920 N   0  0  0  0  0  0  0  0  0  0  0  0
   44.1810   23.1530   34.5740 C   0  0  0  0  0  0  0  0  0  0  0  0
   45.0310   24.3280   34.1810 C   0  0  0  0  0  0  0  0  0  0  0  0
   44.4230   25.6490   34.4440 C   0  0  0  0  0  0  0  0  0  0  0  0
   43.4690   25.5530   35.6100 C   0  0  0  0  0  0  0  0  0  0  0  0
   43.8420   24.4440   36.4940 C   0  0  2  0  0  0  0  0  0  0  0  0
   45.3200   24.5670   36.8470 C   0  0  0  0  0  0  0  0  0  0  0  0
   45.8690   25.7830   37.2700 C   0  0  0  0  0  0  0  0  0  0  0  0
   47.2020   25.8840   37.5690 C   0  0  0  0  0  0  0  0  0  0  0  0
   47.9820   24.7540   37.4410 C   0  0  0  0  0  0  0  0  0  0  0  0
   47.4520   23.5500   37.0260 C   0  0  0  0  0  0  0  0  0  0  0  0
   46.1390   23.4760   36.7380 N   0  0  0  0  0  0  0  0  0  0  0  0
   40.2080   23.0610   36.9640 C   0  0  0  0  0  0  0  0  0  0  0  0
   39.2480   22.9950   38.0200 C   0  0  0  0  0  0  0  0  0  0  0  0
   37.9860   23.5310   37.7590 C   0  0  0  0  0  0  0  0  0  0  0  0
   37.7680   24.0700   36.5310 N   0  0  0  0  0  0  0  0  0  0  0  0
   38.7170   24.1110   35.5520 C   0  0  0  0  0  0  0  0  0  0  0  0
   39.9400   23.6030   35.7720 N   0  0  0  0  0  0  0  0  0  0  0  0
   42.0953   23.1979   37.9005 H   0  0  0  0  0  0  0  0  0  0  0  0
   41.7778   23.3101   35.2162 H   0  0  0  0  0  0  0  0  0  0  0  0
   41.6706   20.8671   34.8929 H   0  0  0  0  0  0  0  0  0  0  0  0
   43.4285   21.0492   34.9068 H   0  0  0  0  0  0  0  0  0  0  0  0
   42.2470   19.4340   36.6091 H   0  0  0  0  0  0  0  0  0  0  0  0
   43.5838   20.4479   37.1749 H   0  0  0  0  0  0  0  0  0  0  0  0
   41.9835   21.1594   38.7179 H   0  0  0  0  0  0  0  0  0  0  0  0
   40.6196   20.7182   37.7116 H   0  0  0  0  0  0  0  0  0  0  0  0
   44.8052   22.2483   34.5306 H   0  0  0  0  0  0  0  0  0  0  0  0
   43.3370   23.1293   33.8690 H   0  0  0  0  0  0  0  0  0  0  0  0
   45.2380   24.2552   33.1031 H   0  0  0  0  0  0  0  0  0  0  0  0
   45.9375   24.2755   34.8019 H   0  0  0  0  0  0  0  0  0  0  0  0
   45.2153   26.3747   34.6799 H   0  0  0  0  0  0  0  0  0  0  0  0
   43.8712   25.9778   33.5510 H   0  0  0  0  0  0  0  0  0  0  0  0
   43.4981   26.4940   36.1790 H   0  0  0  0  0  0  0  0  0  0  0  0
   42.4550   25.3722   35.2238 H   0  0  0  0  0  0  0  0  0  0  0  0
   43.2301   24.4937   37.4068 H   0  0  0  0  0  0  0  0  0  0  0  0
   45.2224   26.6680   37.3634 H   0  0  0  0  0  0  0  0  0  0  0  0
   47.6372   26.8380   37.9013 H   0  0  0  0  0  0  0  0  0  0  0  0
   49.0549   24.8143   37.6760 H   0  0  0  0  0  0  0  0  0  0  0  0
   48.0939   22.6617   36.9316 H   0  0  0  0  0  0  0  0  0  0  0  0
   39.4919   22.5431   38.9928 H   0  0  0  0  0  0  0  0  0  0  0  0
   37.1940   23.5175   38.5223 H   0  0  0  0  0  0  0  0  0  0  0  0
   38.4790   24.5625   34.5776 H   0  0  0  0  0  0  0  0  0  0  0  0
  1  5  1  0
  2  6  1  0
  2  1  1  0
  3  2  1  0
  3  4  1  0
  4  5  1  0
  6  7  1  0
  6 11  1  0
  8  9  1  0
  8  7  1  0
  9 10  1  0
 10 11  1  0
 11 12  1  0
 12 13  2  0
 13 14  1  0
 15 14  2  0
 16 15  1  0
 17 12  1  0
 17 16  2  0
 18  1  1  0
 18 19  2  0
 20 19  1  0
 21 20  2  0
 22 23  2  0
 22 21  1  0
 23 18  1  0
  1 24  1  1
  2 25  1  6
  3 26  1  0
  3 27  1  0
  4 28  1  0
  4 29  1  0
  5 30  1  0
  5 31  1  0
  7 32  1  0
  7 33  1  0
  8 34  1  0
  8 35  1  0
  9 36  1  0
  9 37  1  0
 10 38  1  0
 10 39  1  0
 11 40  1  1
 13 41  1  0
 14 42  1  0
 15 43  1  0
 16 44  1  0
 19 45  1  0
 20 46  1  0
 22 47  1  0
M  ISO  8  24  13  25  13  26  13  27  13  28  13  29  13  30  13  31  13
M  ISO  8  32  13  33  13  34  13  35  13  36  13  37  13  38  13  39  13
M  ISO  8  40  13  41  14  42  14  43  14  44  14  45  14  46  14  47  14
M  END
>  <minimizedAffinity>  (1) 
-4.96698713

>  <minimizedRMSD>  (1) 
2.37848902

$$$$
