
     RDKit          3D

 45 47  0  0  0  0  0  0  0  0999 V2000
   37.8100   24.9870   32.4600 C   0  0  0  0  0  0  0  0  0  0  0  0
   36.9560   25.9690   32.0090 C   0  0  0  0  0  0  0  0  0  0  0  0
   35.7950   25.5290   31.4370 C   0  0  0  0  0  0  0  0  0  0  0  0
   35.5010   24.2040   31.3200 N   0  0  0  0  0  0  0  0  0  0  0  0
   36.3400   23.2880   31.7620 C   0  0  0  0  0  0  0  0  0  0  0  0
   37.5210   23.6850   32.3440 N   0  0  0  0  0  0  0  0  0  0  0  0
   40.9940   24.8630   34.2760 C   0  0  0  0  0  0  0  0  0  0  0  0
   41.4640   26.1760   34.2570 C   0  0  0  0  0  0  0  0  0  0  0  0
   40.6330   27.0770   33.5960 C   0  0  0  0  0  0  0  0  0  0  0  0
   39.4730   26.6660   33.0330 N   0  0  0  0  0  0  0  0  0  0  0  0
   39.0680   25.3810   33.0820 C   0  0  0  0  0  0  0  0  0  0  0  0
   39.8540   24.4990   33.7140 N   0  0  0  0  0  0  0  0  0  0  0  0
   42.6760   26.5830   34.8500 N   0  0  0  0  0  0  0  0  0  0  0  0
   43.8560   26.9340   34.1590 C   0  0  0  0  0  0  0  0  0  0  0  0
   44.1190   26.2120   33.0720 N   0  0  0  0  0  0  0  0  0  0  0  0
   44.6330   28.0220   34.7040 N   0  0  0  0  0  0  0  0  0  0  0  0
   44.9550   26.3830   32.5180 H   0  0  0  0  0  0  0  0  0  0  0  0
   36.0310   21.8770   31.6390 C   0  0  0  0  0  0  0  0  0  0  0  0
   34.9650   21.3380   32.3880 C   0  0  0  0  0  0  0  0  0  0  0  0
   34.7730   19.9970   32.1840 C   0  0  0  0  0  0  0  0  0  0  0  0
   35.5110   19.2350   31.3570 N   0  0  0  0  0  0  0  0  0  0  0  0
   36.5240   19.8370   30.6690 C   0  0  0  0  0  0  0  0  0  0  0  0
   36.7790   21.1400   30.8110 N   0  0  0  0  0  0  0  0  0  0  0  0
   37.2790   18.9180   29.7860 C   0  0  0  0  0  0  0  0  0  0  0  0
   38.7260   19.3310   29.6090 C   0  0  0  0  0  0  0  0  0  0  0  0
   36.6040   18.8250   28.4430 C   0  0  0  0  0  0  0  0  0  0  0  0
   37.2010   17.5150   30.3940 C   0  0  0  0  0  0  0  0  0  0  0  0
   37.1931   27.0390   32.1031 H   0  0  0  0  0  0  0  0  0  0  0  0
   35.0745   26.2692   31.0588 H   0  0  0  0  0  0  0  0  0  0  0  0
   41.5990   24.0958   34.7813 H   0  0  0  0  0  0  0  0  0  0  0  0
   40.9231   28.1360   33.5307 H   0  0  0  0  0  0  0  0  0  0  0  0
   42.7033   26.6284   35.8786 H   0  0  0  0  0  0  0  0  0  0  0  0
   45.5026   28.3178   34.2380 H   0  0  0  0  0  0  0  0  0  0  0  0
   44.3177   28.5024   35.5588 H   0  0  0  0  0  0  0  0  0  0  0  0
   34.3460   21.9376   33.0716 H   0  0  0  0  0  0  0  0  0  0  0  0
   33.9567   19.5083   32.7362 H   0  0  0  0  0  0  0  0  0  0  0  0
   39.1927   19.4642   30.5962 H   0  0  0  0  0  0  0  0  0  0  0  0
   39.2644   18.5507   29.0512 H   0  0  0  0  0  0  0  0  0  0  0  0
   38.7714   20.2780   29.0512 H   0  0  0  0  0  0  0  0  0  0  0  0
   35.5234   18.6761   28.5852 H   0  0  0  0  0  0  0  0  0  0  0  0
   36.7752   19.7552   27.8814 H   0  0  0  0  0  0  0  0  0  0  0  0
   37.0203   17.9757   27.8814 H   0  0  0  0  0  0  0  0  0  0  0  0
   37.2052   17.5902   31.4914 H   0  0  0  0  0  0  0  0  0  0  0  0
   36.2741   17.0233   30.0637 H   0  0  0  0  0  0  0  0  0  0  0  0
   38.0676   16.9235   30.0637 H   0  0  0  0  0  0  0  0  0  0  0  0
  1 11  1  0
  2  1  2  0
  3  2  1  0
  4  3  2  0
  4  5  1  0
  5  6  2  0
  6  1  1  0
  8  7  2  0
  8 13  1  0
  9  8  1  0
 10 11  1  0
 10  9  2  0
 11 12  2  0
 12  7  1  0
 14 16  1  0
 14 13  1  0
 15 14  2  0
 17 15  1  0
 18  5  1  0
 18 19  2  0
 20 19  1  0
 21 20  2  0
 22 23  2  0
 22 21  1  0
 23 18  1  0
 24 27  1  0
 24 22  1  0
 25 24  1  0
 26 24  1  0
  2 28  1  0
  3 29  1  0
  7 30  1  0
  9 31  1  0
 13 32  1  0
 16 33  1  0
 16 34  1  0
 19 35  1  0
 20 36  1  0
 25 37  1  0
 25 38  1  0
 25 39  1  0
 26 40  1  0
 26 41  1  0
 26 42  1  0
 27 43  1  0
 27 44  1  0
 27 45  1  0
M  ISO  8  28  14  29  14  30  14  31  14  35  14  36  14  37   8  38   8
M  ISO  7  39   8  40   8  41   8  42   8  43   8  44   8  45   8
M  END
>  <minimizedAffinity>  (1) 
-5.63643456

>  <minimizedRMSD>  (1) 
0.868986845

$$$$
