
     RDKit          3D

 39 41  0  0  1  0  0  0  0  0999 V2000
   41.4500   22.4430   36.8780 C   0  0  2  0  0  0  0  0  0  0  0  0
   41.8270   22.3710   35.4570 C   0  0  2  0  0  0  0  0  0  0  0  0
   42.2220   20.9310   35.3000 C   0  0  0  0  0  0  0  0  0  0  0  0
   42.7720   20.5480   36.6050 C   0  0  0  0  0  0  0  0  0  0  0  0
   41.8970   21.2420   37.6070 C   0  0  0  0  0  0  0  0  0  0  0  0
   42.8590   23.1560   34.9870 N   0  0  0  0  0  0  0  0  0  0  0  0
   42.4290   24.5280   34.8520 C   0  0  0  0  0  0  0  0  0  0  0  0
   43.4550   25.5670   35.1690 C   0  0  0  0  0  0  0  0  0  0  0  0
   44.2370   25.3370   36.4200 C   0  0  0  0  0  0  0  0  0  0  0  0
   44.2560   23.8660   36.7400 C   0  0  0  0  0  0  0  0  0  0  0  0
   44.1370   23.0830   35.5040 C   0  0  2  0  0  0  0  0  0  0  0  0
   44.9390   23.8160   34.5640 O   0  0  0  0  0  0  0  0  0  0  0  0
   39.9760   22.6420   37.0040 C   0  0  0  0  0  0  0  0  0  0  0  0
   39.4080   23.1820   38.1980 C   0  0  0  0  0  0  0  0  0  0  0  0
   38.0210   23.3720   38.2020 C   0  0  0  0  0  0  0  0  0  0  0  0
   37.3280   23.0300   37.0840 N   0  0  0  0  0  0  0  0  0  0  0  0
   37.9180   22.5160   35.9680 C   0  0  0  0  0  0  0  0  0  0  0  0
   39.2480   22.3200   35.9240 N   0  0  0  0  0  0  0  0  0  0  0  0
   41.9561   23.3062   37.3349 H   0  0  0  0  0  0  0  0  0  0  0  0
   40.9778   22.7544   34.8723 H   0  0  0  0  0  0  0  0  0  0  0  0
   41.3457   20.3137   35.0527 H   0  0  0  0  0  0  0  0  0  0  0  0
   42.9470   20.7861   34.4855 H   0  0  0  0  0  0  0  0  0  0  0  0
   42.7263   19.4573   36.7400 H   0  0  0  0  0  0  0  0  0  0  0  0
   43.8297   20.8315   36.7098 H   0  0  0  0  0  0  0  0  0  0  0  0
   42.4663   21.5149   38.5078 H   0  0  0  0  0  0  0  0  0  0  0  0
   41.0658   20.6166   37.9648 H   0  0  0  0  0  0  0  0  0  0  0  0
   42.1063   24.6793   33.8114 H   0  0  0  0  0  0  0  0  0  0  0  0
   41.6284   24.6637   35.5940 H   0  0  0  0  0  0  0  0  0  0  0  0
   44.1641   25.6105   34.3292 H   0  0  0  0  0  0  0  0  0  0  0  0
   42.8986   26.5024   35.3282 H   0  0  0  0  0  0  0  0  0  0  0  0
   45.2677   25.6943   36.2784 H   0  0  0  0  0  0  0  0  0  0  0  0
   43.7681   25.8856   37.2502 H   0  0  0  0  0  0  0  0  0  0  0  0
   45.2022   23.6142   37.2413 H   0  0  0  0  0  0  0  0  0  0  0  0
   43.4095   23.6288   37.4012 H   0  0  0  0  0  0  0  0  0  0  0  0
   44.4113   22.0329   35.6829 H   0  0  0  0  0  0  0  0  0  0  0  0
   45.5740   24.3964   35.0540 H   0  0  0  0  0  0  0  0  0  0  0  0
   40.0287   23.4357   39.0700 H   0  0  0  0  0  0  0  0  0  0  0  0
   37.5079   23.7853   39.0828 H   0  0  0  0  0  0  0  0  0  0  0  0
   37.3004   22.2589   35.0948 H   0  0  0  0  0  0  0  0  0  0  0  0
  1 13  1  0
  1  5  1  0
  2  1  1  0
  3  2  1  0
  3  4  1  0
  4  5  1  0
  6  7  1  0
  6  2  1  0
  6 11  1  0
  7  8  1  0
  8  9  1  0
  9 10  1  0
 11 10  1  0
 12 11  1  0
 13 14  2  0
 14 15  1  0
 16 15  2  0
 17 16  1  0
 18 17  2  0
 18 13  1  0
  1 19  1  1
  2 20  1  6
  3 21  1  0
  3 22  1  0
  4 23  1  0
  4 24  1  0
  5 25  1  0
  5 26  1  0
  7 27  1  0
  7 28  1  0
  8 29  1  0
  8 30  1  0
  9 31  1  0
  9 32  1  0
 10 33  1  0
 10 34  1  0
 11 35  1  1
 12 36  1  0
 14 37  1  0
 15 38  1  0
 17 39  1  0
M  ISO  8  19  13  20  13  21  13  22  13  23  13  24  13  25  13  26  13
M  ISO  8  27  13  28  13  29  13  30  13  31  13  32  13  33  13  34  13
M  ISO  5  35  13  36   3  37  14  38  14  39  14
M  END
>  <minimizedAffinity>  (1) 
-4.59955883

>  <minimizedRMSD>  (1) 
0.0815381184

$$$$
