
     RDKit          3D

 40 43  0  0  0  0  0  0  0  0999 V2000
   37.7830   25.0300   32.4590 C   0  0  0  0  0  0  0  0  0  0  0  0
   36.9440   26.0180   32.0050 C   0  0  0  0  0  0  0  0  0  0  0  0
   35.7800   25.5780   31.4380 C   0  0  0  0  0  0  0  0  0  0  0  0
   35.4750   24.2620   31.3300 N   0  0  0  0  0  0  0  0  0  0  0  0
   36.3190   23.3350   31.7840 C   0  0  0  0  0  0  0  0  0  0  0  0
   37.4830   23.7380   32.3520 N   0  0  0  0  0  0  0  0  0  0  0  0
   40.9730   24.8940   34.2820 C   0  0  0  0  0  0  0  0  0  0  0  0
   41.4510   26.2160   34.2390 C   0  0  0  0  0  0  0  0  0  0  0  0
   40.6340   27.1140   33.5700 C   0  0  0  0  0  0  0  0  0  0  0  0
   39.4730   26.7010   33.0150 N   0  0  0  0  0  0  0  0  0  0  0  0
   39.0470   25.4160   33.0770 C   0  0  0  0  0  0  0  0  0  0  0  0
   39.8290   24.5230   33.7270 N   0  0  0  0  0  0  0  0  0  0  0  0
   42.6790   26.5950   34.8390 N   0  0  0  0  0  0  0  0  0  0  0  0
   43.8610   26.9220   34.1410 C   0  0  0  0  0  0  0  0  0  0  0  0
   44.1170   26.2020   33.0700 N   0  0  0  0  0  0  0  0  0  0  0  0
   44.6310   28.0220   34.7150 N   0  0  0  0  0  0  0  0  0  0  0  0
   44.9390   26.4060   32.4950 H   0  0  0  0  0  0  0  0  0  0  0  0
   35.9930   21.9210   31.6690 C   0  0  0  0  0  0  0  0  0  0  0  0
   34.9800   21.3870   32.4550 C   0  0  0  0  0  0  0  0  0  0  0  0
   34.7800   20.0440   32.2450 C   0  0  0  0  0  0  0  0  0  0  0  0
   35.4830   19.2940   31.3710 N   0  0  0  0  0  0  0  0  0  0  0  0
   36.4540   19.8920   30.6440 C   0  0  0  0  0  0  0  0  0  0  0  0
   36.6940   21.1870   30.8030 N   0  0  0  0  0  0  0  0  0  0  0  0
   37.2600   19.1070   29.6660 C   0  0  0  0  0  0  0  0  0  0  0  0
   36.9080   17.7110   29.3280 C   0  0  0  0  0  0  0  0  0  0  0  0
   36.6380   18.8000   28.3240 C   0  0  0  0  0  0  0  0  0  0  0  0
   37.1906   27.0865   32.0913 H   0  0  0  0  0  0  0  0  0  0  0  0
   35.0642   26.3203   31.0551 H   0  0  0  0  0  0  0  0  0  0  0  0
   41.5764   24.1339   34.7999 H   0  0  0  0  0  0  0  0  0  0  0  0
   40.9326   28.1697   33.4903 H   0  0  0  0  0  0  0  0  0  0  0  0
   42.7106   26.6348   35.8677 H   0  0  0  0  0  0  0  0  0  0  0  0
   45.5078   28.3253   34.2677 H   0  0  0  0  0  0  0  0  0  0  0  0
   44.2973   28.4946   35.5672 H   0  0  0  0  0  0  0  0  0  0  0  0
   34.3960   21.9802   33.1740 H   0  0  0  0  0  0  0  0  0  0  0  0
   33.9925   19.5459   32.8297 H   0  0  0  0  0  0  0  0  0  0  0  0
   38.1826   19.5880   30.0232 H   0  0  0  0  0  0  0  0  0  0  0  0
   37.7041   16.9760   29.1381 H   0  0  0  0  0  0  0  0  0  0  0  0
   36.2969   16.9307   29.8052 H   0  0  0  0  0  0  0  0  0  0  0  0
   37.2403   18.8684   27.4061 H   0  0  0  0  0  0  0  0  0  0  0  0
   35.7580   19.1539   27.7670 H   0  0  0  0  0  0  0  0  0  0  0  0
  1 11  1  0
  2  1  2  0
  3  2  1  0
  4  3  2  0
  4  5  1  0
  5  6  2  0
  6  1  1  0
  8  7  2  0
  8 13  1  0
  9  8  1  0
 10 11  1  0
 10  9  2  0
 11 12  2  0
 12  7  1  0
 14 16  1  0
 14 13  1  0
 15 14  2  0
 17 15  1  0
 18  5  1  0
 18 19  2  0
 20 19  1  0
 21 20  2  0
 22 23  2  0
 22 21  1  0
 23 18  1  0
 24 22  1  0
 25 24  1  0
 26 25  1  0
 26 24  1  0
  2 27  1  0
  3 28  1  0
  7 29  1  0
  9 30  1  0
 13 31  1  0
 16 32  1  0
 16 33  1  0
 19 34  1  0
 20 35  1  0
 24 36  1  0
 25 37  1  0
 25 38  1  0
 26 39  1  0
 26 40  1  0
M  ISO  8  27  14  28  14  29  14  30  14  34  14  35  14  36  13  37  13
M  ISO  3  38  13  39  13  40  13
M  END
>  <minimizedAffinity>  (1) 
-5.63424778

>  <minimizedRMSD>  (1) 
0.758342087

$$$$
