
     RDKit          3D

 50 52  0  0  1  0  0  0  0  0999 V2000
   41.6670   22.2380   36.9500 C   0  0  2  0  0  0  0  0  0  0  0  0
   42.1320   22.2110   35.5500 C   0  0  2  0  0  0  0  0  0  0  0  0
   42.4190   20.7720   35.3150 C   0  0  0  0  0  0  0  0  0  0  0  0
   42.7900   20.2380   36.5970 C   0  0  0  0  0  0  0  0  0  0  0  0
   42.0410   21.0090   37.6350 C   0  0  0  0  0  0  0  0  0  0  0  0
   43.2730   22.9310   35.2030 N   0  0  0  0  0  0  0  0  0  0  0  0
   42.8250   24.1940   34.6030 C   0  0  0  0  0  0  0  0  0  0  0  0
   43.7200   25.3630   34.8830 C   0  0  0  0  0  0  0  0  0  0  0  0
   44.1090   25.5110   36.2850 C   0  0  0  0  0  0  0  0  0  0  0  0
   44.0580   24.2030   37.0010 C   0  0  0  0  0  0  0  0  0  0  0  0
   44.3380   23.0940   36.0510 C   0  0  2  0  0  0  0  0  0  0  0  0
   45.7470   22.8050   35.7030 C   0  0  0  0  0  0  0  0  0  0  0  0
   46.1930   23.1760   34.3170 C   0  0  0  0  0  0  0  0  0  0  0  0
   46.1190   21.3770   35.9370 C   0  0  0  0  0  0  0  0  0  0  0  0
   46.7730   23.5780   36.5790 C   0  0  0  0  0  0  0  0  0  0  0  0
   40.2030   22.5140   37.0240 C   0  0  0  0  0  0  0  0  0  0  0  0
   39.6290   23.0920   38.1860 C   0  0  0  0  0  0  0  0  0  0  0  0
   38.2500   23.3650   38.1220 C   0  0  0  0  0  0  0  0  0  0  0  0
   37.5830   23.0610   36.9780 N   0  0  0  0  0  0  0  0  0  0  0  0
   38.1930   22.5070   35.8970 C   0  0  0  0  0  0  0  0  0  0  0  0
   39.5040   22.2360   35.9280 N   0  0  0  0  0  0  0  0  0  0  0  0
   42.1673   23.0658   37.4739 H   0  0  0  0  0  0  0  0  0  0  0  0
   41.3523   22.6956   34.9441 H   0  0  0  0  0  0  0  0  0  0  0  0
   41.5249   20.2600   34.9298 H   0  0  0  0  0  0  0  0  0  0  0  0
   43.2157   20.6321   34.5695 H   0  0  0  0  0  0  0  0  0  0  0  0
   42.5213   19.1728   36.6528 H   0  0  0  0  0  0  0  0  0  0  0  0
   43.8750   20.3255   36.7553 H   0  0  0  0  0  0  0  0  0  0  0  0
   42.6820   21.2233   38.5029 H   0  0  0  0  0  0  0  0  0  0  0  0
   41.1732   20.4602   38.0297 H   0  0  0  0  0  0  0  0  0  0  0  0
   42.7691   24.0566   33.5131 H   0  0  0  0  0  0  0  0  0  0  0  0
   41.8503   24.4288   35.0556 H   0  0  0  0  0  0  0  0  0  0  0  0
   44.6350   25.2456   34.2838 H   0  0  0  0  0  0  0  0  0  0  0  0
   43.1457   26.2643   34.6225 H   0  0  0  0  0  0  0  0  0  0  0  0
   45.1344   25.9063   36.3329 H   0  0  0  0  0  0  0  0  0  0  0  0
   43.4036   26.2013   36.7708 H   0  0  0  0  0  0  0  0  0  0  0  0
   44.8120   24.1961   37.8019 H   0  0  0  0  0  0  0  0  0  0  0  0
   43.0555   24.0655   37.4324 H   0  0  0  0  0  0  0  0  0  0  0  0
   44.3675   22.1095   36.5407 H   0  0  0  0  0  0  0  0  0  0  0  0
   47.0373   23.8783   34.3792 H   0  0  0  0  0  0  0  0  0  0  0  0
   46.5085   22.2702   33.7786 H   0  0  0  0  0  0  0  0  0  0  0  0
   45.3597   23.6511   33.7786 H   0  0  0  0  0  0  0  0  0  0  0  0
   46.1693   21.1837   37.0187 H   0  0  0  0  0  0  0  0  0  0  0  0
   45.3616   20.7215   35.4823 H   0  0  0  0  0  0  0  0  0  0  0  0
   47.0999   21.1744   35.4823 H   0  0  0  0  0  0  0  0  0  0  0  0
   46.5483   23.4087   37.6424 H   0  0  0  0  0  0  0  0  0  0  0  0
   47.7887   23.2187   36.3572 H   0  0  0  0  0  0  0  0  0  0  0  0
   46.7078   24.6534   36.3572 H   0  0  0  0  0  0  0  0  0  0  0  0
   40.2262   23.3133   39.0829 H   0  0  0  0  0  0  0  0  0  0  0  0
   37.7245   23.8139   38.9778 H   0  0  0  0  0  0  0  0  0  0  0  0
   37.6077   22.2805   34.9936 H   0  0  0  0  0  0  0  0  0  0  0  0
  1 16  1  0
  1  5  1  0
  2  1  1  0
  3  2  1  0
  3  4  1  0
  4  5  1  0
  6  7  1  0
  6  2  1  0
  6 11  1  0
  7  8  1  0
  8  9  1  0
  9 10  1  0
 11 10  1  0
 12 14  1  0
 12 11  1  0
 12 15  1  0
 13 12  1  0
 16 17  2  0
 18 17  1  0
 19 18  2  0
 20 21  2  0
 20 19  1  0
 21 16  1  0
  1 22  1  1
  2 23  1  6
  3 24  1  0
  3 25  1  0
  4 26  1  0
  4 27  1  0
  5 28  1  0
  5 29  1  0
  7 30  1  0
  7 31  1  0
  8 32  1  0
  8 33  1  0
  9 34  1  0
  9 35  1  0
 10 36  1  0
 10 37  1  0
 11 38  1  1
 13 39  1  0
 13 40  1  0
 13 41  1  0
 14 42  1  0
 14 43  1  0
 14 44  1  0
 15 45  1  0
 15 46  1  0
 15 47  1  0
 17 48  1  0
 18 49  1  0
 20 50  1  0
M  ISO  8  22  13  23  13  24  13  25  13  26  13  27  13  28  13  29  13
M  ISO  8  30  13  31  13  32  13  33  13  34  13  35  13  36  13  37  13
M  ISO  8  38  13  39   8  40   8  41   8  42   8  43   8  44   8  45   8
M  ISO  5  46   8  47   8  48  14  49  14  50  14
M  END
>  <minimizedAffinity>  (1) 
-4.68144131

>  <minimizedRMSD>  (1) 
0.658704758

$$$$
