
     RDKit          3D

 44 47  0  0  1  0  0  0  0  0999 V2000
   41.4770   22.4170   36.8700 C   0  0  2  0  0  0  0  0  0  0  0  0
   41.8850   22.3460   35.4600 C   0  0  2  0  0  0  0  0  0  0  0  0
   42.2780   20.9060   35.2950 C   0  0  0  0  0  0  0  0  0  0  0  0
   42.7860   20.5050   36.5980 C   0  0  0  0  0  0  0  0  0  0  0  0
   41.9280   21.2280   37.6050 C   0  0  0  0  0  0  0  0  0  0  0  0
   42.9500   23.1400   35.0260 N   0  0  0  0  0  0  0  0  0  0  0  0
   42.4990   24.4850   34.8130 C   0  0  0  0  0  0  0  0  0  0  0  0
   43.4750   25.5640   35.1780 C   0  0  0  0  0  0  0  0  0  0  0  0
   44.1850   25.3770   36.4640 C   0  0  0  0  0  0  0  0  0  0  0  0
   44.2200   23.9140   36.8240 C   0  0  0  0  0  0  0  0  0  0  0  0
   44.1820   23.0910   35.6120 C   0  0  2  0  0  0  0  0  0  0  0  0
   45.2230   23.6580   34.6460 C   0  0  0  0  0  0  0  0  0  0  0  0
   46.5520   24.0230   35.2390 C   0  0  0  0  0  0  0  0  0  0  0  0
   47.4140   24.6460   33.7910 S   0  0  0  0  0  0  0  0  0  0  0  0
   45.9630   24.3520   32.6450 C   0  0  0  0  0  0  0  0  0  0  0  0
   45.1050   23.8890   33.3440 N   0  0  0  0  0  0  0  0  0  0  0  0
   40.0030   22.6110   36.9740 C   0  0  0  0  0  0  0  0  0  0  0  0
   39.4130   23.1700   38.1470 C   0  0  0  0  0  0  0  0  0  0  0  0
   38.0250   23.3570   38.1290 C   0  0  0  0  0  0  0  0  0  0  0  0
   37.3530   22.9950   37.0060 N   0  0  0  0  0  0  0  0  0  0  0  0
   37.9610   22.4670   35.9170 C   0  0  0  0  0  0  0  0  0  0  0  0
   39.2890   22.2740   35.9000 N   0  0  0  0  0  0  0  0  0  0  0  0
   41.9610   23.2880   37.3360 H   0  0  0  0  0  0  0  0  0  0  0  0
   41.0493   22.7295   34.8562 H   0  0  0  0  0  0  0  0  0  0  0  0
   41.4061   20.2965   35.0152 H   0  0  0  0  0  0  0  0  0  0  0  0
   43.0250   20.7692   34.4993 H   0  0  0  0  0  0  0  0  0  0  0  0
   42.6958   19.4164   36.7273 H   0  0  0  0  0  0  0  0  0  0  0  0
   43.8509   20.7546   36.7152 H   0  0  0  0  0  0  0  0  0  0  0  0
   42.5143   21.5112   38.4916 H   0  0  0  0  0  0  0  0  0  0  0  0
   41.0974   20.6142   37.9836 H   0  0  0  0  0  0  0  0  0  0  0  0
   42.2570   24.5952   33.7456 H   0  0  0  0  0  0  0  0  0  0  0  0
   41.6369   24.6216   35.4824 H   0  0  0  0  0  0  0  0  0  0  0  0
   44.2299   25.6214   34.3800 H   0  0  0  0  0  0  0  0  0  0  0  0
   42.8794   26.4815   35.2941 H   0  0  0  0  0  0  0  0  0  0  0  0
   45.2141   25.7541   36.3704 H   0  0  0  0  0  0  0  0  0  0  0  0
   43.6557   25.9310   37.2532 H   0  0  0  0  0  0  0  0  0  0  0  0
   45.1446   23.6991   37.3798 H   0  0  0  0  0  0  0  0  0  0  0  0
   43.3435   23.6772   37.4450 H   0  0  0  0  0  0  0  0  0  0  0  0
   44.3941   22.0418   35.8655 H   0  0  0  0  0  0  0  0  0  0  0  0
   46.9031   23.9335   36.2776 H   0  0  0  0  0  0  0  0  0  0  0  0
   45.9090   24.5587   31.5660 H   0  0  0  0  0  0  0  0  0  0  0  0
   40.0195   23.4412   39.0237 H   0  0  0  0  0  0  0  0  0  0  0  0
   37.4973   23.7827   38.9952 H   0  0  0  0  0  0  0  0  0  0  0  0
   37.3600   22.1935   35.0372 H   0  0  0  0  0  0  0  0  0  0  0  0
  1 17  1  0
  1  5  1  0
  2  1  1  0
  3  2  1  0
  3  4  1  0
  4  5  1  0
  6  7  1  0
  6  2  1  0
  6 11  1  0
  7  8  1  0
  8  9  1  0
  9 10  1  0
 11 10  1  0
 12 13  2  0
 12 11  1  0
 14 13  1  0
 15 16  2  0
 15 14  1  0
 16 12  1  0
 17 18  2  0
 19 18  1  0
 20 19  2  0
 21 20  1  0
 22 21  2  0
 22 17  1  0
  1 23  1  1
  2 24  1  6
  3 25  1  0
  3 26  1  0
  4 27  1  0
  4 28  1  0
  5 29  1  0
  5 30  1  0
  7 31  1  0
  7 32  1  0
  8 33  1  0
  8 34  1  0
  9 35  1  0
  9 36  1  0
 10 37  1  0
 10 38  1  0
 11 39  1  1
 13 40  1  0
 15 41  1  0
 18 42  1  0
 19 43  1  0
 21 44  1  0
M  ISO  8  23  13  24  13  25  13  26  13  27  13  28  13  29  13  30  13
M  ISO  8  31  13  32  13  33  13  34  13  35  13  36  13  37  13  38  13
M  ISO  6  39  13  40  14  41  14  42  14  43  14  44  14
M  END
>  <minimizedAffinity>  (1) 
-4.57622194

>  <minimizedRMSD>  (1) 
0.0709829107

$$$$
