
     RDKit          3D

 45 48  0  0  1  0  0  0  0  0999 V2000
   41.4120   22.4520   36.8690 C   0  0  2  0  0  0  0  0  0  0  0  0
   41.8050   22.3910   35.4530 C   0  0  2  0  0  0  0  0  0  0  0  0
   42.2290   20.9620   35.2890 C   0  0  0  0  0  0  0  0  0  0  0  0
   42.7580   20.5660   36.5850 C   0  0  0  0  0  0  0  0  0  0  0  0
   41.8750   21.2570   37.5990 C   0  0  0  0  0  0  0  0  0  0  0  0
   42.8370   23.2090   35.0080 N   0  0  0  0  0  0  0  0  0  0  0  0
   42.4210   24.5840   34.9830 C   0  0  0  0  0  0  0  0  0  0  0  0
   43.4550   25.5940   35.3820 C   0  0  0  0  0  0  0  0  0  0  0  0
   44.2760   25.2550   36.5740 C   0  0  0  0  0  0  0  0  0  0  0  0
   44.2990   23.7690   36.7300 C   0  0  0  0  0  0  0  0  0  0  0  0
   44.1230   23.0740   35.4510 C   0  0  2  0  0  0  0  0  0  0  0  0
   45.0080   23.6790   34.4510 N   0  0  0  0  0  0  0  0  0  0  0  0
   46.2020   24.2910   34.5550 C   0  0  0  0  0  0  0  0  0  0  0  0
   46.6730   24.6930   33.3230 C   0  0  0  0  0  0  0  0  0  0  0  0
   45.7350   24.3160   32.4320 N   0  0  0  0  0  0  0  0  0  0  0  0
   44.7380   23.7090   33.1060 C   0  0  0  0  0  0  0  0  0  0  0  0
   39.9320   22.6190   36.9820 C   0  0  0  0  0  0  0  0  0  0  0  0
   39.3560   23.1830   38.1670 C   0  0  0  0  0  0  0  0  0  0  0  0
   37.9560   23.3420   38.1520 C   0  0  0  0  0  0  0  0  0  0  0  0
   37.2750   22.9560   37.0380 N   0  0  0  0  0  0  0  0  0  0  0  0
   37.8840   22.4240   35.9390 C   0  0  0  0  0  0  0  0  0  0  0  0
   39.2180   22.2540   35.9090 N   0  0  0  0  0  0  0  0  0  0  0  0
   41.8954   23.3250   37.3317 H   0  0  0  0  0  0  0  0  0  0  0  0
   40.9554   22.7530   34.8553 H   0  0  0  0  0  0  0  0  0  0  0  0
   41.3682   20.3338   35.0162 H   0  0  0  0  0  0  0  0  0  0  0  0
   42.9751   20.8454   34.4891 H   0  0  0  0  0  0  0  0  0  0  0  0
   42.7043   19.4741   36.7067 H   0  0  0  0  0  0  0  0  0  0  0  0
   43.8155   20.8455   36.7012 H   0  0  0  0  0  0  0  0  0  0  0  0
   42.4464   21.5375   38.4961 H   0  0  0  0  0  0  0  0  0  0  0  0
   41.0527   20.6238   37.9636 H   0  0  0  0  0  0  0  0  0  0  0  0
   42.0997   24.8192   33.9576 H   0  0  0  0  0  0  0  0  0  0  0  0
   41.6233   24.6648   35.7361 H   0  0  0  0  0  0  0  0  0  0  0  0
   44.1385   25.7292   34.5308 H   0  0  0  0  0  0  0  0  0  0  0  0
   42.8929   26.4982   35.6584 H   0  0  0  0  0  0  0  0  0  0  0  0
   45.3012   25.6291   36.4364 H   0  0  0  0  0  0  0  0  0  0  0  0
   43.8444   25.7206   37.4723 H   0  0  0  0  0  0  0  0  0  0  0  0
   45.2658   23.4734   37.1634 H   0  0  0  0  0  0  0  0  0  0  0  0
   43.4624   23.4858   37.3856 H   0  0  0  0  0  0  0  0  0  0  0  0
   44.3577   22.0091   35.5957 H   0  0  0  0  0  0  0  0  0  0  0  0
   46.7353   24.4505   35.5038 H   0  0  0  0  0  0  0  0  0  0  0  0
   47.6186   25.2136   33.1113 H   0  0  0  0  0  0  0  0  0  0  0  0
   43.8314   23.2942   32.6412 H   0  0  0  0  0  0  0  0  0  0  0  0
   39.9682   23.4734   39.0335 H   0  0  0  0  0  0  0  0  0  0  0  0
   37.4270   23.7669   39.0178 H   0  0  0  0  0  0  0  0  0  0  0  0
   37.2780   22.1312   35.0689 H   0  0  0  0  0  0  0  0  0  0  0  0
  1 17  1  0
  1  5  1  0
  2  1  1  0
  3  2  1  0
  3  4  1  0
  4  5  1  0
  6  7  1  0
  6 11  1  0
  6  2  1  0
  7  8  1  0
  8  9  1  0
  9 10  1  0
 11 10  1  0
 12 13  1  0
 12 11  1  0
 14 13  2  0
 15 16  2  0
 15 14  1  0
 16 12  1  0
 17 18  2  0
 19 18  1  0
 20 19  2  0
 21 20  1  0
 22 21  2  0
 22 17  1  0
  1 23  1  1
  2 24  1  6
  3 25  1  0
  3 26  1  0
  4 27  1  0
  4 28  1  0
  5 29  1  0
  5 30  1  0
  7 31  1  0
  7 32  1  0
  8 33  1  0
  8 34  1  0
  9 35  1  0
  9 36  1  0
 10 37  1  0
 10 38  1  0
 11 39  1  1
 13 40  1  0
 14 41  1  0
 16 42  1  0
 18 43  1  0
 19 44  1  0
 21 45  1  0
M  ISO  8  23  13  24  13  25  13  26  13  27  13  28  13  29  13  30  13
M  ISO  8  31  13  32  13  33  13  34  13  35  13  36  13  37  13  38  13
M  ISO  7  39  13  40  14  41  14  42  14  43  14  44  14  45  14
M  END
>  <minimizedAffinity>  (1) 
-4.58756638

>  <minimizedRMSD>  (1) 
0.545561254

$$$$
