
     RDKit          3D

 46 49  0  0  1  0  0  0  0  0999 V2000
   41.4460   22.4600   36.8600 C   0  0  2  0  0  0  0  0  0  0  0  0
   41.8120   22.4020   35.4380 C   0  0  2  0  0  0  0  0  0  0  0  0
   42.2040   20.9610   35.2610 C   0  0  0  0  0  0  0  0  0  0  0  0
   42.7180   20.5350   36.5510 C   0  0  0  0  0  0  0  0  0  0  0  0
   41.9110   21.2630   37.5840 C   0  0  0  0  0  0  0  0  0  0  0  0
   42.8770   23.1860   34.9870 N   0  0  0  0  0  0  0  0  0  0  0  0
   42.4310   24.5560   34.8670 C   0  0  0  0  0  0  0  0  0  0  0  0
   43.4910   25.5760   35.1870 C   0  0  0  0  0  0  0  0  0  0  0  0
   44.2050   25.3410   36.4590 C   0  0  0  0  0  0  0  0  0  0  0  0
   44.2480   23.8620   36.7570 C   0  0  0  0  0  0  0  0  0  0  0  0
   44.1330   23.0750   35.5220 C   0  0  2  0  0  0  0  0  0  0  0  0
   45.1760   23.5620   34.5200 C   0  0  0  0  0  0  0  0  0  0  0  0
   44.9730   23.5550   33.1540 C   0  0  0  0  0  0  0  0  0  0  0  0
   45.9760   23.9980   32.3180 C   0  0  0  0  0  0  0  0  0  0  0  0
   47.1570   24.4400   32.7890 N   0  0  0  0  0  0  0  0  0  0  0  0
   47.3380   24.4390   34.1240 C   0  0  0  0  0  0  0  0  0  0  0  0
   46.3840   24.0160   34.9740 N   0  0  0  0  0  0  0  0  0  0  0  0
   39.9770   22.6600   37.0120 C   0  0  0  0  0  0  0  0  0  0  0  0
   39.4220   23.1780   38.2040 C   0  0  0  0  0  0  0  0  0  0  0  0
   38.0320   23.3720   38.2350 C   0  0  0  0  0  0  0  0  0  0  0  0
   37.3290   23.0480   37.1180 N   0  0  0  0  0  0  0  0  0  0  0  0
   37.9120   22.5520   35.9960 C   0  0  0  0  0  0  0  0  0  0  0  0
   39.2390   22.3600   35.9470 N   0  0  0  0  0  0  0  0  0  0  0  0
   41.9539   23.3249   37.3117 H   0  0  0  0  0  0  0  0  0  0  0  0
   40.9628   22.7945   34.8594 H   0  0  0  0  0  0  0  0  0  0  0  0
   41.3293   20.3571   34.9777 H   0  0  0  0  0  0  0  0  0  0  0  0
   42.9518   20.8375   34.4638 H   0  0  0  0  0  0  0  0  0  0  0  0
   42.5975   19.4480   36.6694 H   0  0  0  0  0  0  0  0  0  0  0  0
   43.7904   20.7591   36.6490 H   0  0  0  0  0  0  0  0  0  0  0  0
   42.5329   21.5404   38.4479 H   0  0  0  0  0  0  0  0  0  0  0  0
   41.0888   20.6593   37.9958 H   0  0  0  0  0  0  0  0  0  0  0  0
   42.0938   24.7205   33.8330 H   0  0  0  0  0  0  0  0  0  0  0  0
   41.6249   24.6936   35.6028 H   0  0  0  0  0  0  0  0  0  0  0  0
   44.2301   25.5703   34.3723 H   0  0  0  0  0  0  0  0  0  0  0  0
   42.9739   26.5411   35.2928 H   0  0  0  0  0  0  0  0  0  0  0  0
   45.2319   25.7269   36.3778 H   0  0  0  0  0  0  0  0  0  0  0  0
   43.6767   25.8596   37.2726 H   0  0  0  0  0  0  0  0  0  0  0  0
   45.2015   23.6215   37.2499 H   0  0  0  0  0  0  0  0  0  0  0  0
   43.4020   23.6110   37.4138 H   0  0  0  0  0  0  0  0  0  0  0  0
   44.3089   22.0146   35.7559 H   0  0  0  0  0  0  0  0  0  0  0  0
   44.0195   23.1991   32.7366 H   0  0  0  0  0  0  0  0  0  0  0  0
   45.8056   23.9900   31.2313 H   0  0  0  0  0  0  0  0  0  0  0  0
   48.2954   24.7950   34.5321 H   0  0  0  0  0  0  0  0  0  0  0  0
   40.0533   23.4193   39.0719 H   0  0  0  0  0  0  0  0  0  0  0  0
   37.5310   23.7710   39.1293 H   0  0  0  0  0  0  0  0  0  0  0  0
   37.2919   22.3060   35.1214 H   0  0  0  0  0  0  0  0  0  0  0  0
  1 18  1  0
  1  5  1  0
  2  1  1  0
  3  2  1  0
  3  4  1  0
  4  5  1  0
  6  7  1  0
  6  2  1  0
  6 11  1  0
  7  8  1  0
  8  9  1  0
  9 10  1  0
 11 10  1  0
 12 17  1  0
 12 11  1  0
 13 12  2  0
 14 15  2  0
 14 13  1  0
 15 16  1  0
 16 17  2  0
 18 19  2  0
 19 20  1  0
 21 20  2  0
 22 21  1  0
 23 22  2  0
 23 18  1  0
  1 24  1  1
  2 25  1  6
  3 26  1  0
  3 27  1  0
  4 28  1  0
  4 29  1  0
  5 30  1  0
  5 31  1  0
  7 32  1  0
  7 33  1  0
  8 34  1  0
  8 35  1  0
  9 36  1  0
  9 37  1  0
 10 38  1  0
 10 39  1  0
 11 40  1  1
 13 41  1  0
 14 42  1  0
 16 43  1  0
 19 44  1  0
 20 45  1  0
 22 46  1  0
M  ISO  8  24  13  25  13  26  13  27  13  28  13  29  13  30  13  31  13
M  ISO  8  32  13  33  13  34  13  35  13  36  13  37  13  38  13  39  13
M  ISO  7  40  13  41  14  42  14  43  14  44  14  45  14  46  14
M  END
>  <minimizedAffinity>  (1) 
-4.57584953

>  <minimizedRMSD>  (1) 
0.247924939

$$$$
