
     RDKit          3D

 45 48  0  0  1  0  0  0  0  0999 V2000
   41.4640   22.4310   36.8630 C   0  0  2  0  0  0  0  0  0  0  0  0
   41.8670   22.3530   35.4510 C   0  0  2  0  0  0  0  0  0  0  0  0
   42.2690   20.9090   35.3070 C   0  0  0  0  0  0  0  0  0  0  0  0
   42.7930   20.5320   36.6120 C   0  0  0  0  0  0  0  0  0  0  0  0
   41.9140   21.2430   37.6130 C   0  0  0  0  0  0  0  0  0  0  0  0
   42.9050   23.1560   35.0020 N   0  0  0  0  0  0  0  0  0  0  0  0
   42.4620   24.5110   34.8480 C   0  0  0  0  0  0  0  0  0  0  0  0
   43.4600   25.5650   35.2180 C   0  0  0  0  0  0  0  0  0  0  0  0
   44.2190   25.3320   36.4740 C   0  0  0  0  0  0  0  0  0  0  0  0
   44.2740   23.8490   36.7520 C   0  0  0  0  0  0  0  0  0  0  0  0
   44.1580   23.0620   35.5230 C   0  0  2  0  0  0  0  0  0  0  0  0
   45.1810   23.7070   34.5160 C   0  0  0  0  0  0  0  0  0  0  0  0
   46.3750   24.0960   34.8950 C   0  0  0  0  0  0  0  0  0  0  0  0
   47.1910   24.6670   33.9480 C   0  0  0  0  0  0  0  0  0  0  0  0
   46.7720   24.8240   32.6590 C   0  0  0  0  0  0  0  0  0  0  0  0
   45.0240   24.0880   32.7630 S   0  0  0  0  0  0  0  0  0  0  0  0
   39.9860   22.6120   36.9670 C   0  0  0  0  0  0  0  0  0  0  0  0
   39.4020   23.1690   38.1450 C   0  0  0  0  0  0  0  0  0  0  0  0
   38.0110   23.3440   38.1290 C   0  0  0  0  0  0  0  0  0  0  0  0
   37.3340   22.9780   37.0100 N   0  0  0  0  0  0  0  0  0  0  0  0
   37.9420   22.4500   35.9090 C   0  0  0  0  0  0  0  0  0  0  0  0
   39.2740   22.2680   35.8910 N   0  0  0  0  0  0  0  0  0  0  0  0
   41.9521   23.3061   37.3168 H   0  0  0  0  0  0  0  0  0  0  0  0
   41.0300   22.7222   34.8402 H   0  0  0  0  0  0  0  0  0  0  0  0
   41.3983   20.2894   35.0462 H   0  0  0  0  0  0  0  0  0  0  0  0
   43.0096   20.7640   34.5067 H   0  0  0  0  0  0  0  0  0  0  0  0
   42.7330   19.4425   36.7515 H   0  0  0  0  0  0  0  0  0  0  0  0
   43.8516   20.8089   36.7252 H   0  0  0  0  0  0  0  0  0  0  0  0
   42.4850   21.5316   38.5078 H   0  0  0  0  0  0  0  0  0  0  0  0
   41.0858   20.6222   37.9853 H   0  0  0  0  0  0  0  0  0  0  0  0
   42.1884   24.6596   33.7930 H   0  0  0  0  0  0  0  0  0  0  0  0
   41.6218   24.6339   35.5473 H   0  0  0  0  0  0  0  0  0  0  0  0
   44.1864   25.6440   34.3957 H   0  0  0  0  0  0  0  0  0  0  0  0
   42.8743   26.4799   35.3912 H   0  0  0  0  0  0  0  0  0  0  0  0
   45.2409   25.7241   36.3646 H   0  0  0  0  0  0  0  0  0  0  0  0
   43.7202   25.8465   37.3085 H   0  0  0  0  0  0  0  0  0  0  0  0
   45.2325   23.6128   37.2372 H   0  0  0  0  0  0  0  0  0  0  0  0
   43.4270   23.5913   37.4049 H   0  0  0  0  0  0  0  0  0  0  0  0
   44.3589   21.9977   35.7150 H   0  0  0  0  0  0  0  0  0  0  0  0
   46.7114   23.9696   35.9346 H   0  0  0  0  0  0  0  0  0  0  0  0
   48.1986   25.0030   34.2339 H   0  0  0  0  0  0  0  0  0  0  0  0
   47.3007   25.2573   31.7972 H   0  0  0  0  0  0  0  0  0  0  0  0
   40.0108   23.4460   39.0183 H   0  0  0  0  0  0  0  0  0  0  0  0
   37.4834   23.7654   38.9974 H   0  0  0  0  0  0  0  0  0  0  0  0
   37.3396   22.1718   35.0316 H   0  0  0  0  0  0  0  0  0  0  0  0
  1 17  1  0
  1  5  1  0
  2  1  1  0
  3  2  1  0
  3  4  1  0
  4  5  1  0
  6  7  1  0
  6  2  1  0
  6 11  1  0
  7  8  1  0
  8  9  1  0
  9 10  1  0
 11 10  1  0
 12 13  2  0
 12 11  1  0
 14 13  1  0
 15 16  1  0
 15 14  2  0
 16 12  1  0
 17 18  2  0
 19 18  1  0
 20 19  2  0
 21 20  1  0
 22 21  2  0
 22 17  1  0
  1 23  1  1
  2 24  1  6
  3 25  1  0
  3 26  1  0
  4 27  1  0
  4 28  1  0
  5 29  1  0
  5 30  1  0
  7 31  1  0
  7 32  1  0
  8 33  1  0
  8 34  1  0
  9 35  1  0
  9 36  1  0
 10 37  1  0
 10 38  1  0
 11 39  1  1
 13 40  1  0
 14 41  1  0
 15 42  1  0
 18 43  1  0
 19 44  1  0
 21 45  1  0
M  ISO  8  23  13  24  13  25  13  26  13  27  13  28  13  29  13  30  13
M  ISO  8  31  13  32  13  33  13  34  13  35  13  36  13  37  13  38  13
M  ISO  7  39  13  40  14  41  14  42  14  43  14  44  14  45  14
M  END
>  <minimizedAffinity>  (1) 
-4.56953764

>  <minimizedRMSD>  (1) 
0.390006214

$$$$
