
     RDKit          3D

 51 54  0  0  1  0  0  0  0  0999 V2000
   41.4120   22.5690   36.9060 C   0  0  2  0  0  0  0  0  0  0  0  0
   41.7910   22.7280   35.4950 C   0  0  2  0  0  0  0  0  0  0  0  0
   42.2170   21.3360   35.1090 C   0  0  0  0  0  0  0  0  0  0  0  0
   42.7560   20.7530   36.3400 C   0  0  0  0  0  0  0  0  0  0  0  0
   41.8810   21.2770   37.4370 C   0  0  0  0  0  0  0  0  0  0  0  0
   42.8160   23.5940   35.1670 N   0  0  0  0  0  0  0  0  0  0  0  0
   42.8950   24.6760   36.1190 C   0  0  0  0  0  0  0  0  0  0  0  0
   44.2770   25.1530   36.4320 C   0  0  0  0  0  0  0  0  0  0  0  0
   45.2790   24.0740   36.7130 C   0  0  0  0  0  0  0  0  0  0  0  0
   44.8780   22.8330   35.9710 C   0  0  0  0  0  0  0  0  0  0  0  0
   44.0610   23.1650   34.7900 C   0  0  2  0  0  0  0  0  0  0  0  0
   44.6960   24.3190   34.1010 N   0  0  0  0  0  0  0  0  0  0  0  0
   45.9740   23.9870   33.5360 C   0  0  0  0  0  0  0  0  0  0  0  0
   46.1150   24.6440   32.1590 C   0  0  0  0  0  0  0  0  0  0  0  0
   45.5500   25.8930   32.1270 O   0  0  0  0  0  0  0  0  0  0  0  0
   44.2010   25.9120   32.3790 C   0  0  0  0  0  0  0  0  0  0  0  0
   43.7940   24.5910   32.9970 C   0  0  0  0  0  0  0  0  0  0  0  0
   39.9330   22.7210   37.0480 C   0  0  0  0  0  0  0  0  0  0  0  0
   39.3590   23.2430   38.2410 C   0  0  0  0  0  0  0  0  0  0  0  0
   37.9710   23.3930   38.2680 C   0  0  0  0  0  0  0  0  0  0  0  0
   37.2760   23.0290   37.1580 N   0  0  0  0  0  0  0  0  0  0  0  0
   37.8680   22.5310   36.0340 C   0  0  0  0  0  0  0  0  0  0  0  0
   39.2020   22.3770   35.9800 N   0  0  0  0  0  0  0  0  0  0  0  0
   41.9001   23.3551   37.5009 H   0  0  0  0  0  0  0  0  0  0  0  0
   40.9345   23.1809   34.9742 H   0  0  0  0  0  0  0  0  0  0  0  0
   41.3561   20.7534   34.7492 H   0  0  0  0  0  0  0  0  0  0  0  0
   42.9557   21.3396   34.2940 H   0  0  0  0  0  0  0  0  0  0  0  0
   42.7087   19.6547   36.2999 H   0  0  0  0  0  0  0  0  0  0  0  0
   43.8123   21.0190   36.4934 H   0  0  0  0  0  0  0  0  0  0  0  0
   42.4538   21.4168   38.3656 H   0  0  0  0  0  0  0  0  0  0  0  0
   41.0591   20.5936   37.6967 H   0  0  0  0  0  0  0  0  0  0  0  0
   42.3256   25.5261   35.7151 H   0  0  0  0  0  0  0  0  0  0  0  0
   42.4890   24.2812   37.0620 H   0  0  0  0  0  0  0  0  0  0  0  0
   44.6380   25.7364   35.5722 H   0  0  0  0  0  0  0  0  0  0  0  0
   44.1937   25.7395   37.3589 H   0  0  0  0  0  0  0  0  0  0  0  0
   46.2751   24.3988   36.3780 H   0  0  0  0  0  0  0  0  0  0  0  0
   45.3119   23.8681   37.7931 H   0  0  0  0  0  0  0  0  0  0  0  0
   45.7835   22.3009   35.6440 H   0  0  0  0  0  0  0  0  0  0  0  0
   44.2809   22.1998   36.6437 H   0  0  0  0  0  0  0  0  0  0  0  0
   43.9859   22.2699   34.1551 H   0  0  0  0  0  0  0  0  0  0  0  0
   46.7728   24.3514   34.1987 H   0  0  0  0  0  0  0  0  0  0  0  0
   46.0529   22.8951   33.4290 H   0  0  0  0  0  0  0  0  0  0  0  0
   47.1839   24.7311   31.9145 H   0  0  0  0  0  0  0  0  0  0  0  0
   45.5900   24.0140   31.4259 H   0  0  0  0  0  0  0  0  0  0  0  0
   43.9677   26.7316   33.0746 H   0  0  0  0  0  0  0  0  0  0  0  0
   43.6505   26.0669   31.4393 H   0  0  0  0  0  0  0  0  0  0  0  0
   42.7597   24.6538   33.3661 H   0  0  0  0  0  0  0  0  0  0  0  0
   43.8483   23.7853   32.2501 H   0  0  0  0  0  0  0  0  0  0  0  0
   39.9822   23.5167   39.1051 H   0  0  0  0  0  0  0  0  0  0  0  0
   37.4583   23.7915   39.1559 H   0  0  0  0  0  0  0  0  0  0  0  0
   37.2499   22.2540   35.1672 H   0  0  0  0  0  0  0  0  0  0  0  0
  1 18  1  0
  1  5  1  0
  2  1  1  0
  3  2  1  0
  3  4  1  0
  4  5  1  0
  6  2  1  0
  6  7  1  0
  7  8  1  0
  8  9  1  0
 10  9  1  0
 11  6  1  0
 11 10  1  0
 12 11  1  0
 13 12  1  0
 14 13  1  0
 15 14  1  0
 15 16  1  0
 16 17  1  0
 17 12  1  0
 18 19  2  0
 19 20  1  0
 21 20  2  0
 22 21  1  0
 23 22  2  0
 23 18  1  0
  1 24  1  1
  2 25  1  6
  3 26  1  0
  3 27  1  0
  4 28  1  0
  4 29  1  0
  5 30  1  0
  5 31  1  0
  7 32  1  0
  7 33  1  0
  8 34  1  0
  8 35  1  0
  9 36  1  0
  9 37  1  0
 10 38  1  0
 10 39  1  0
 11 40  1  6
 13 41  1  0
 13 42  1  0
 14 43  1  0
 14 44  1  0
 16 45  1  0
 16 46  1  0
 17 47  1  0
 17 48  1  0
 19 49  1  0
 20 50  1  0
 22 51  1  0
M  ISO  8  24  13  25  13  26  13  27  13  28  13  29  13  30  13  31  13
M  ISO  8  32  13  33  13  34  13  35  13  36  13  37  13  38  13  39  13
M  ISO  8  40  13  41  13  42  13  43  13  44  13  45  13  46  13  47  13
M  ISO  4  48  13  49  14  50  14  51  14
M  END
>  <minimizedAffinity>  (1) 
-4.52022409

>  <minimizedRMSD>  (1) 
1.37585258

$$$$
