
     RDKit          3D

 52 55  0  0  1  0  0  0  0  0999 V2000
   41.4920   22.4140   36.8840 C   0  0  2  0  0  0  0  0  0  0  0  0
   41.8970   22.3570   35.4720 C   0  0  2  0  0  0  0  0  0  0  0  0
   42.2890   20.9160   35.3040 C   0  0  0  0  0  0  0  0  0  0  0  0
   42.8020   20.5060   36.6110 C   0  0  0  0  0  0  0  0  0  0  0  0
   41.9250   21.2090   37.6110 C   0  0  0  0  0  0  0  0  0  0  0  0
   42.9530   23.1470   35.0460 N   0  0  0  0  0  0  0  0  0  0  0  0
   42.5030   24.4950   34.8120 C   0  0  0  0  0  0  0  0  0  0  0  0
   43.4890   25.5590   35.1580 C   0  0  0  0  0  0  0  0  0  0  0  0
   44.1950   25.4060   36.4710 C   0  0  0  0  0  0  0  0  0  0  0  0
   44.2110   23.9500   36.8460 C   0  0  0  0  0  0  0  0  0  0  0  0
   44.1900   23.1180   35.6360 C   0  0  2  0  0  0  0  0  0  0  0  0
   45.1290   23.7730   34.6760 N   0  0  0  0  0  0  0  0  0  0  0  0
   45.0740   22.8830   33.5210 C   0  0  0  0  0  0  0  0  0  0  0  0
   45.9880   21.7110   33.6090 C   0  0  0  0  0  0  0  0  0  0  0  0
   47.3900   22.0780   33.5670 N   0  0  0  0  0  0  0  0  0  0  0  0
   47.4620   23.4280   34.0710 C   0  0  0  0  0  0  0  0  0  0  0  0
   46.4800   23.6810   35.1890 C   0  0  0  0  0  0  0  0  0  0  0  0
   40.0170   22.6160   36.9850 C   0  0  0  0  0  0  0  0  0  0  0  0
   39.4260   23.1720   38.1470 C   0  0  0  0  0  0  0  0  0  0  0  0
   38.0430   23.3670   38.1390 C   0  0  0  0  0  0  0  0  0  0  0  0
   37.3690   23.0100   37.0150 N   0  0  0  0  0  0  0  0  0  0  0  0
   37.9770   22.4780   35.9200 C   0  0  0  0  0  0  0  0  0  0  0  0
   39.3040   22.2820   35.9090 N   0  0  0  0  0  0  0  0  0  0  0  0
   41.9901   23.2723   37.3586 H   0  0  0  0  0  0  0  0  0  0  0  0
   41.0641   22.7472   34.8687 H   0  0  0  0  0  0  0  0  0  0  0  0
   41.4159   20.3084   35.0239 H   0  0  0  0  0  0  0  0  0  0  0  0
   43.0358   20.7821   34.5075 H   0  0  0  0  0  0  0  0  0  0  0  0
   42.7275   19.4151   36.7308 H   0  0  0  0  0  0  0  0  0  0  0  0
   43.8635   20.7648   36.7381 H   0  0  0  0  0  0  0  0  0  0  0  0
   42.4918   21.4754   38.5153 H   0  0  0  0  0  0  0  0  0  0  0  0
   41.0861   20.5901   37.9619 H   0  0  0  0  0  0  0  0  0  0  0  0
   42.2574   24.5920   33.7442 H   0  0  0  0  0  0  0  0  0  0  0  0
   41.6393   24.6496   35.4754 H   0  0  0  0  0  0  0  0  0  0  0  0
   44.2528   25.5787   34.3667 H   0  0  0  0  0  0  0  0  0  0  0  0
   42.9030   26.4858   35.2454 H   0  0  0  0  0  0  0  0  0  0  0  0
   45.2270   25.7759   36.3811 H   0  0  0  0  0  0  0  0  0  0  0  0
   43.6724   25.9858   37.2461 H   0  0  0  0  0  0  0  0  0  0  0  0
   45.1227   23.7324   37.4216 H   0  0  0  0  0  0  0  0  0  0  0  0
   43.3224   23.7246   37.4539 H   0  0  0  0  0  0  0  0  0  0  0  0
   44.4526   22.0799   35.8879 H   0  0  0  0  0  0  0  0  0  0  0  0
   45.3421   23.4630   32.6256 H   0  0  0  0  0  0  0  0  0  0  0  0
   44.0503   22.4828   33.4791 H   0  0  0  0  0  0  0  0  0  0  0  0
   45.7922   21.1847   34.5549 H   0  0  0  0  0  0  0  0  0  0  0  0
   45.7896   21.0742   32.7343 H   0  0  0  0  0  0  0  0  0  0  0  0
   47.9440   21.4442   34.1606 H   0  0  0  0  0  0  0  0  0  0  0  0
   48.4795   23.6102   34.4473 H   0  0  0  0  0  0  0  0  0  0  0  0
   47.2088   24.1074   33.2438 H   0  0  0  0  0  0  0  0  0  0  0  0
   46.7402   24.6246   35.6908 H   0  0  0  0  0  0  0  0  0  0  0  0
   46.5310   22.8427   35.8994 H   0  0  0  0  0  0  0  0  0  0  0  0
   40.0344   23.4402   39.0233 H   0  0  0  0  0  0  0  0  0  0  0  0
   37.5204   23.7927   39.0083 H   0  0  0  0  0  0  0  0  0  0  0  0
   37.3769   22.2071   35.0388 H   0  0  0  0  0  0  0  0  0  0  0  0
  1 18  1  0
  1  5  1  0
  2  1  1  0
  3  2  1  0
  3  4  1  0
  4  5  1  0
  6  7  1  0
  6  2  1  0
  6 11  1  0
  7  8  1  0
  8  9  1  0
  9 10  1  0
 11 10  1  0
 12 17  1  0
 12 11  1  0
 13 14  1  0
 13 12  1  0
 15 14  1  0
 15 16  1  0
 16 17  1  0
 18 19  2  0
 20 19  1  0
 21 20  2  0
 22 21  1  0
 23 22  2  0
 23 18  1  0
  1 24  1  1
  2 25  1  6
  3 26  1  0
  3 27  1  0
  4 28  1  0
  4 29  1  0
  5 30  1  0
  5 31  1  0
  7 32  1  0
  7 33  1  0
  8 34  1  0
  8 35  1  0
  9 36  1  0
  9 37  1  0
 10 38  1  0
 10 39  1  0
 11 40  1  1
 13 41  1  0
 13 42  1  0
 14 43  1  0
 14 44  1  0
 15 45  1  0
 16 46  1  0
 16 47  1  0
 17 48  1  0
 17 49  1  0
 19 50  1  0
 20 51  1  0
 22 52  1  0
M  ISO  8  24  13  25  13  26  13  27  13  28  13  29  13  30  13  31  13
M  ISO  8  32  13  33  13  34  13  35  13  36  13  37  13  38  13  39  13
M  ISO  8  40  13  41  13  42  13  43  13  44  13  45   5  46  13  47  13
M  ISO  5  48  13  49  13  50  14  51  14  52  14
M  END
>  <minimizedAffinity>  (1) 
-4.55457497

>  <minimizedRMSD>  (1) 
1.21578729

$$$$
