
     RDKit          3D

 51 54  0  0  1  0  0  0  0  0999 V2000
   42.8040   23.2630   35.0230 N   0  0  0  0  0  0  0  0  0  0  0  0
   42.3800   24.6350   35.0470 C   0  0  0  0  0  0  0  0  0  0  0  0
   43.4470   25.6110   35.4110 C   0  0  0  0  0  0  0  0  0  0  0  0
   44.2700   25.2520   36.6040 C   0  0  0  0  0  0  0  0  0  0  0  0
   44.2900   23.7640   36.7350 C   0  0  0  0  0  0  0  0  0  0  0  0
   44.1170   23.0940   35.4300 C   0  0  2  0  0  0  0  0  0  0  0  0
   41.3870   22.4550   36.8500 C   0  0  2  0  0  0  0  0  0  0  0  0
   41.7840   22.4270   35.4350 C   0  0  2  0  0  0  0  0  0  0  0  0
   42.2090   21.0030   35.2430 C   0  0  0  0  0  0  0  0  0  0  0  0
   42.7300   20.5820   36.5350 C   0  0  0  0  0  0  0  0  0  0  0  0
   41.8690   21.2680   37.5670 C   0  0  0  0  0  0  0  0  0  0  0  0
   39.9060   22.6100   36.9760 C   0  0  0  0  0  0  0  0  0  0  0  0
   39.3300   23.1760   38.1510 C   0  0  0  0  0  0  0  0  0  0  0  0
   37.9350   23.3320   38.1540 C   0  0  0  0  0  0  0  0  0  0  0  0
   37.2520   22.9370   37.0480 N   0  0  0  0  0  0  0  0  0  0  0  0
   37.8570   22.3990   35.9500 C   0  0  0  0  0  0  0  0  0  0  0  0
   39.1890   22.2390   35.9220 N   0  0  0  0  0  0  0  0  0  0  0  0
   47.0130   24.6250   32.6150 C   0  0  0  0  0  0  0  0  0  0  0  0
   45.7200   24.3900   32.1990 C   0  0  0  0  0  0  0  0  0  0  0  0
   44.7630   23.9080   33.0640 C   0  0  0  0  0  0  0  0  0  0  0  0
   45.0220   23.6330   34.3710 C   0  0  0  0  0  0  0  0  0  0  0  0
   46.3470   23.8780   34.7770 C   0  0  0  0  0  0  0  0  0  0  0  0
   47.3050   24.3570   33.9260 C   0  0  0  0  0  0  0  0  0  0  0  0
   48.2470   25.2360   31.5380 S   0  0  0  0  0  0  0  0  0  0  0  0
   47.6520   25.6070   30.2290 O   0  0  0  0  0  0  0  0  0  0  0  0
   48.7440   26.5280   32.1730 O   0  0  0  0  0  0  0  0  0  0  0  0
   42.0047   24.8951   34.0463 H   0  0  0  0  0  0  0  0  0  0  0  0
   41.6113   24.7088   35.8304 H   0  0  0  0  0  0  0  0  0  0  0  0
   44.1242   25.7089   34.5497 H   0  0  0  0  0  0  0  0  0  0  0  0
   42.9252   26.5428   35.6747 H   0  0  0  0  0  0  0  0  0  0  0  0
   45.2959   25.6269   36.4736 H   0  0  0  0  0  0  0  0  0  0  0  0
   43.8392   25.7045   37.5093 H   0  0  0  0  0  0  0  0  0  0  0  0
   45.2543   23.4579   37.1669 H   0  0  0  0  0  0  0  0  0  0  0  0
   43.4529   23.4676   37.3841 H   0  0  0  0  0  0  0  0  0  0  0  0
   44.3720   22.0326   35.5653 H   0  0  0  0  0  0  0  0  0  0  0  0
   41.8610   23.3289   37.3208 H   0  0  0  0  0  0  0  0  0  0  0  0
   40.9397   22.7934   34.8326 H   0  0  0  0  0  0  0  0  0  0  0  0
   41.3503   20.3802   34.9520 H   0  0  0  0  0  0  0  0  0  0  0  0
   42.9592   20.9022   34.4449 H   0  0  0  0  0  0  0  0  0  0  0  0
   42.6573   19.4894   36.6401 H   0  0  0  0  0  0  0  0  0  0  0  0
   43.7911   20.8480   36.6506 H   0  0  0  0  0  0  0  0  0  0  0  0
   42.4594   21.5513   38.4508 H   0  0  0  0  0  0  0  0  0  0  0  0
   41.0581   20.6315   37.9509 H   0  0  0  0  0  0  0  0  0  0  0  0
   39.9471   23.4751   39.0111 H   0  0  0  0  0  0  0  0  0  0  0  0
   37.4125   23.7596   39.0224 H   0  0  0  0  0  0  0  0  0  0  0  0
   37.2505   22.0951   35.0841 H   0  0  0  0  0  0  0  0  0  0  0  0
   45.4465   24.5920   31.1528 H   0  0  0  0  0  0  0  0  0  0  0  0
   43.7456   23.7381   32.6818 H   0  0  0  0  0  0  0  0  0  0  0  0
   46.6239   23.6759   35.8222 H   0  0  0  0  0  0  0  0  0  0  0  0
   48.3249   24.5295   34.3002 H   0  0  0  0  0  0  0  0  0  0  0  0
   49.2260   24.2967   31.3479 H   0  0  0  0  0  0  0  0  0  0  0  0
  1  2  1  0
  1  6  1  0
  1  8  1  0
  2  3  1  0
  3  4  1  0
  4  5  1  0
  6  5  1  0
  7 12  1  0
  7 11  1  0
  8  7  1  0
  9  8  1  0
  9 10  1  0
 10 11  1  0
 12 13  2  0
 13 14  1  0
 15 14  2  0
 16 15  1  0
 17 16  2  0
 17 12  1  0
 18 23  2  0
 19 18  1  0
 19 20  2  0
 20 21  1  0
 21 22  2  0
 21  6  1  0
 23 22  1  0
 24 26  2  0
 24 18  1  0
 25 24  2  0
  2 27  1  0
  2 28  1  0
  3 29  1  0
  3 30  1  0
  4 31  1  0
  4 32  1  0
  5 33  1  0
  5 34  1  0
  6 35  1  1
  7 36  1  1
  8 37  1  6
  9 38  1  0
  9 39  1  0
 10 40  1  0
 10 41  1  0
 11 42  1  0
 11 43  1  0
 13 44  1  0
 14 45  1  0
 16 46  1  0
 19 47  1  0
 20 48  1  0
 22 49  1  0
 23 50  1  0
 24 51  1  0
M  ISO  8  27  13  28  13  29  13  30  13  31  13  32  13  33  13  34  13
M  ISO  8  35  13  36  13  37  13  38  13  39  13  40  13  41  13  42  13
M  ISO  8  43  13  44  14  45  14  46  14  47  14  48  14  49  14  50  14
M  ISO  1  51  11
M  END
>  <minimizedAffinity>  (1) 
-4.4255352

>  <minimizedRMSD>  (1) 
0.964231074

$$$$
