
     RDKit          3D

 24 25  0  0  0  0  0  0  0  0999 V2000
   39.4780   24.5320   35.7480 N   0  0  0  0  0  0  0  0  0  0  0  0
   40.7420   24.2930   35.1000 C   0  0  0  0  0  0  0  0  0  0  0  0
   41.6700   23.4410   35.9010 C   0  0  0  0  0  0  0  0  0  0  0  0
   40.9560   22.3200   36.4540 N   0  0  0  0  0  0  0  0  0  0  0  0
   39.7940   22.5720   37.2420 C   0  0  0  0  0  0  0  0  0  0  0  0
   39.0380   23.7480   36.8360 C   0  0  0  0  0  0  0  0  0  0  0  0
   37.7630   25.4310   34.1970 C   0  0  0  0  0  0  0  0  0  0  0  0
   38.6360   25.5720   35.3060 C   0  0  0  0  0  0  0  0  0  0  0  0
   38.6350   26.8130   35.9540 C   0  0  0  0  0  0  0  0  0  0  0  0
   37.8110   27.8090   35.4990 N   0  0  0  0  0  0  0  0  0  0  0  0
   36.9990   27.6130   34.4320 C   0  0  0  0  0  0  0  0  0  0  0  0
   36.9720   26.4310   33.7810 N   0  0  0  0  0  0  0  0  0  0  0  0
   37.9080   23.9410   37.6410 C   0  0  0  0  0  0  0  0  0  0  0  0
   37.8920   24.5420   38.7390 O   0  0  0  0  0  0  0  0  0  0  0  0
   40.5516   23.7924   34.1392 H   0  0  0  0  0  0  0  0  0  0  0  0
   41.2298   25.2705   34.9716 H   0  0  0  0  0  0  0  0  0  0  0  0
   42.4786   23.0735   35.2521 H   0  0  0  0  0  0  0  0  0  0  0  0
   42.0926   24.0399   36.7212 H   0  0  0  0  0  0  0  0  0  0  0  0
   41.2774   21.3563   36.2843 H   0  0  0  0  0  0  0  0  0  0  0  0
   39.4945   21.9320   38.0850 H   0  0  0  0  0  0  0  0  0  0  0  0
   37.7338   24.4708   33.6610 H   0  0  0  0  0  0  0  0  0  0  0  0
   39.2898   26.9870   36.8206 H   0  0  0  0  0  0  0  0  0  0  0  0
   36.3498   28.4325   34.0901 H   0  0  0  0  0  0  0  0  0  0  0  0
   36.9546   23.5299   37.2778 H   0  0  0  0  0  0  0  0  0  0  0  0
  1  6  1  0
  2  1  1  0
  2  3  1  0
  3  4  1  0
  4  5  1  0
  6  5  2  0
  6 13  1  0
  7  8  2  0
  8  1  1  0
  8  9  1  0
 10  9  2  0
 11 10  1  0
 12  7  1  0
 12 11  2  0
 13 14  2  0
  2 15  1  0
  2 16  1  0
  3 17  1  0
  3 18  1  0
  4 19  1  0
  5 20  1  0
  7 21  1  0
  9 22  1  0
 11 23  1  0
 13 24  1  0
M  ISO  8  15  13  16  13  17  13  18  13  20  13  21  14  22  14  23  14
M  ISO  1  24   6
M  END
>  <minimizedAffinity>  (1) 
-3.78251886

>  <minimizedRMSD>  (1) 
1.42421281

$$$$
