
     RDKit          3D

 25 26  0  0  0  0  0  0  0  0999 V2000
   39.6350   24.4990   35.8490 N   0  0  0  0  0  0  0  0  0  0  0  0
   40.8930   24.2660   35.1460 C   0  0  0  0  0  0  0  0  0  0  0  0
   41.8540   23.4360   35.9020 C   0  0  0  0  0  0  0  0  0  0  0  0
   41.2100   22.3760   36.5890 N   0  0  0  0  0  0  0  0  0  0  0  0
   40.0600   22.6310   37.3970 C   0  0  0  0  0  0  0  0  0  0  0  0
   39.2190   23.7610   36.9900 C   0  0  0  0  0  0  0  0  0  0  0  0
   37.8440   25.3130   34.3060 C   0  0  0  0  0  0  0  0  0  0  0  0
   38.7680   25.5020   35.3730 C   0  0  0  0  0  0  0  0  0  0  0  0
   38.7720   26.7700   35.9480 C   0  0  0  0  0  0  0  0  0  0  0  0
   37.9370   27.7510   35.5010 N   0  0  0  0  0  0  0  0  0  0  0  0
   37.0800   27.5070   34.4810 C   0  0  0  0  0  0  0  0  0  0  0  0
   37.0310   26.2960   33.8840 N   0  0  0  0  0  0  0  0  0  0  0  0
   38.0820   23.8830   37.8970 C   0  0  0  0  0  0  0  0  0  0  0  0
   36.8800   23.6530   37.2540 F   0  0  0  0  0  0  0  0  0  0  0  0
   38.1100   22.8520   38.8710 F   0  0  0  0  0  0  0  0  0  0  0  0
   38.0220   25.0270   38.6460 F   0  0  0  0  0  0  0  0  0  0  0  0
   40.6703   23.7596   34.1952 H   0  0  0  0  0  0  0  0  0  0  0  0
   41.3647   25.2488   34.9992 H   0  0  0  0  0  0  0  0  0  0  0  0
   42.5868   23.0116   35.2000 H   0  0  0  0  0  0  0  0  0  0  0  0
   42.3456   24.0774   36.6483 H   0  0  0  0  0  0  0  0  0  0  0  0
   41.5737   21.4160   36.5049 H   0  0  0  0  0  0  0  0  0  0  0  0
   39.8189   22.0142   38.2753 H   0  0  0  0  0  0  0  0  0  0  0  0
   37.7943   24.3315   33.8118 H   0  0  0  0  0  0  0  0  0  0  0  0
   39.4613   26.9843   36.7780 H   0  0  0  0  0  0  0  0  0  0  0  0
   36.4123   28.3087   34.1326 H   0  0  0  0  0  0  0  0  0  0  0  0
  1  6  1  0
  2  1  1  0
  2  3  1  0
  3  4  1  0
  4  5  1  0
  6  5  2  0
  6 13  1  0
  7  8  2  0
  8  1  1  0
  8  9  1  0
 10  9  2  0
 11 10  1  0
 12  7  1  0
 12 11  2  0
 13 16  1  0
 13 15  1  0
 14 13  1  0
  2 17  1  0
  2 18  1  0
  3 19  1  0
  3 20  1  0
  4 21  1  0
  5 22  1  0
  7 23  1  0
  9 24  1  0
 11 25  1  0
M  ISO  8  17  13  18  13  19  13  20  13  22  13  23  14  24  14  25  14
M  END
>  <minimizedAffinity>  (1) 
-4.52648211

>  <minimizedRMSD>  (1) 
1.62852335

$$$$
