
     RDKit          3D

 25 26  0  0  0  0  0  0  0  0999 V2000
   39.0520   24.3520   36.4400 N   0  0  0  0  0  0  0  0  0  0  0  0
   40.0740   23.5520   35.7900 C   0  0  0  0  0  0  0  0  0  0  0  0
   40.9270   22.8040   36.7600 C   0  0  0  0  0  0  0  0  0  0  0  0
   40.1140   22.1890   37.7520 N   0  0  0  0  0  0  0  0  0  0  0  0
   39.1860   22.9820   38.4960 C   0  0  0  0  0  0  0  0  0  0  0  0
   38.6230   24.1280   37.7720 C   0  0  0  0  0  0  0  0  0  0  0  0
   37.7100   25.1970   34.5310 C   0  0  0  0  0  0  0  0  0  0  0  0
   38.4330   25.4070   35.7350 C   0  0  0  0  0  0  0  0  0  0  0  0
   38.5020   26.7230   36.1980 C   0  0  0  0  0  0  0  0  0  0  0  0
   37.8860   27.7230   35.4880 N   0  0  0  0  0  0  0  0  0  0  0  0
   37.2080   27.4660   34.3440 C   0  0  0  0  0  0  0  0  0  0  0  0
   37.1210   26.2030   33.8660 N   0  0  0  0  0  0  0  0  0  0  0  0
   37.6540   24.8900   38.5610 C   0  0  0  0  0  0  0  0  0  0  0  0
   39.5825   22.8282   35.1232 H   0  0  0  0  0  0  0  0  0  0  0  0
   40.7290   24.2393   35.2344 H   0  0  0  0  0  0  0  0  0  0  0  0
   41.4949   22.0296   36.2235 H   0  0  0  0  0  0  0  0  0  0  0  0
   41.6199   23.5062   37.2466 H   0  0  0  0  0  0  0  0  0  0  0  0
   40.1935   21.1782   37.9332 H   0  0  0  0  0  0  0  0  0  0  0  0
   38.9135   22.7501   39.5362 H   0  0  0  0  0  0  0  0  0  0  0  0
   37.6300   24.1758   34.1300 H   0  0  0  0  0  0  0  0  0  0  0  0
   39.0462   26.9562   37.1251 H   0  0  0  0  0  0  0  0  0  0  0  0
   36.7244   28.2902   33.7993 H   0  0  0  0  0  0  0  0  0  0  0  0
   37.8507   24.7353   39.6322 H   0  0  0  0  0  0  0  0  0  0  0  0
   37.7467   25.9597   38.3219 H   0  0  0  0  0  0  0  0  0  0  0  0
   36.6363   24.5477   38.3219 H   0  0  0  0  0  0  0  0  0  0  0  0
  1  6  1  0
  2  1  1  0
  2  3  1  0
  3  4  1  0
  4  5  1  0
  6  5  2  0
  6 13  1  0
  7  8  2  0
  8  9  1  0
  8  1  1  0
 10  9  2  0
 11 10  1  0
 12 11  2  0
 12  7  1  0
  2 14  1  0
  2 15  1  0
  3 16  1  0
  3 17  1  0
  4 18  1  0
  5 19  1  0
  7 20  1  0
  9 21  1  0
 11 22  1  0
 13 23  1  0
 13 24  1  0
 13 25  1  0
M  ISO  8  14  13  15  13  16  13  17  13  19  13  20  14  21  14  22  14
M  ISO  3  23   8  24   8  25   8
M  END
>  <minimizedAffinity>  (1) 
-3.76700354

>  <minimizedRMSD>  (1) 
0.738929391

$$$$
