
     RDKit          3D

 29 31  0  0  0  0  0  0  0  0999 V2000
   39.6210   24.6110   35.5820 N   0  0  0  0  0  0  0  0  0  0  0  0
   40.9370   24.5570   34.9600 C   0  0  0  0  0  0  0  0  0  0  0  0
   41.9080   23.7000   35.6930 C   0  0  0  0  0  0  0  0  0  0  0  0
   41.2850   22.5120   36.1660 N   0  0  0  0  0  0  0  0  0  0  0  0
   40.0620   22.5770   36.8990 C   0  0  0  0  0  0  0  0  0  0  0  0
   39.1870   23.6890   36.5680 C   0  0  0  0  0  0  0  0  0  0  0  0
   37.7960   25.4830   34.1160 C   0  0  0  0  0  0  0  0  0  0  0  0
   38.7250   25.6230   35.1830 C   0  0  0  0  0  0  0  0  0  0  0  0
   38.7080   26.8500   35.8540 C   0  0  0  0  0  0  0  0  0  0  0  0
   37.8510   27.8430   35.4970 N   0  0  0  0  0  0  0  0  0  0  0  0
   36.9850   27.6530   34.4680 C   0  0  0  0  0  0  0  0  0  0  0  0
   36.9620   26.4850   33.7880 N   0  0  0  0  0  0  0  0  0  0  0  0
   37.9360   23.6860   37.3010 C   0  0  0  0  0  0  0  0  0  0  0  0
   38.0020   24.4950   38.5960 C   0  0  0  0  0  0  0  0  0  0  0  0
   37.7020   23.0490   38.6030 C   0  0  0  0  0  0  0  0  0  0  0  0
   40.8236   24.1602   33.9403 H   0  0  0  0  0  0  0  0  0  0  0  0
   41.3399   25.5805   34.9684 H   0  0  0  0  0  0  0  0  0  0  0  0
   42.7313   23.4291   35.0156 H   0  0  0  0  0  0  0  0  0  0  0  0
   42.2892   24.2634   36.5575 H   0  0  0  0  0  0  0  0  0  0  0  0
   41.7199   21.5974   35.9780 H   0  0  0  0  0  0  0  0  0  0  0  0
   39.7987   21.8331   37.6653 H   0  0  0  0  0  0  0  0  0  0  0  0
   37.7591   24.5404   33.5502 H   0  0  0  0  0  0  0  0  0  0  0  0
   39.4040   27.0153   36.6897 H   0  0  0  0  0  0  0  0  0  0  0  0
   36.2935   28.4600   34.1844 H   0  0  0  0  0  0  0  0  0  0  0  0
   37.3660   23.6115   36.3631 H   0  0  0  0  0  0  0  0  0  0  0  0
   38.9685   24.8623   38.9714 H   0  0  0  0  0  0  0  0  0  0  0  0
   37.5139   25.4016   38.9830 H   0  0  0  0  0  0  0  0  0  0  0  0
   36.6904   22.7057   38.8654 H   0  0  0  0  0  0  0  0  0  0  0  0
   38.1410   22.1815   39.1175 H   0  0  0  0  0  0  0  0  0  0  0  0
  1  6  1  0
  2  1  1  0
  2  3  1  0
  3  4  1  0
  4  5  1  0
  6  5  2  0
  6 13  1  0
  7  8  2  0
  8  1  1  0
  8  9  1  0
 10  9  2  0
 11 10  1  0
 12  7  1  0
 12 11  2  0
 13 14  1  0
 13 15  1  0
 14 15  1  0
  2 16  1  0
  2 17  1  0
  3 18  1  0
  3 19  1  0
  4 20  1  0
  5 21  1  0
  7 22  1  0
  9 23  1  0
 11 24  1  0
 13 25  1  0
 14 26  1  0
 14 27  1  0
 15 28  1  0
 15 29  1  0
M  ISO  8  16  13  17  13  18  13  19  13  21  13  22  14  23  14  24  14
M  ISO  5  25  13  26  13  27  13  28  13  29  13
M  END
>  <minimizedAffinity>  (1) 
-4.14658737

>  <minimizedRMSD>  (1) 
1.73223019

$$$$
