
     RDKit          3D

 35 37  0  0  0  0  0  0  0  0999 V2000
   37.5450   24.6710   32.4760 C   0  0  0  0  0  0  0  0  0  0  0  0
   36.6390   25.5310   31.9030 C   0  0  0  0  0  0  0  0  0  0  0  0
   35.5240   24.9440   31.3660 C   0  0  0  0  0  0  0  0  0  0  0  0
   35.3250   23.6120   31.3960 N   0  0  0  0  0  0  0  0  0  0  0  0
   36.2160   22.8010   31.9550 C   0  0  0  0  0  0  0  0  0  0  0  0
   37.3400   23.3360   32.5030 N   0  0  0  0  0  0  0  0  0  0  0  0
   36.0010   21.3540   31.9880 C   0  0  0  0  0  0  0  0  0  0  0  0
   35.5600   20.7690   33.1690 C   0  0  0  0  0  0  0  0  0  0  0  0
   35.4040   19.4020   33.0480 C   0  0  0  0  0  0  0  0  0  0  0  0
   35.6460   18.6850   31.9180 N   0  0  0  0  0  0  0  0  0  0  0  0
   36.0730   19.3570   30.8210 C   0  0  0  0  0  0  0  0  0  0  0  0
   36.2470   20.6690   30.8610 N   0  0  0  0  0  0  0  0  0  0  0  0
   36.3480   18.6790   29.6010 N   0  0  0  0  0  0  0  0  0  0  0  0
   40.4450   25.1550   34.6650 C   0  0  0  0  0  0  0  0  0  0  0  0
   41.0860   26.2900   34.1520 C   0  0  0  0  0  0  0  0  0  0  0  0
   40.4680   26.8390   33.0530 C   0  0  0  0  0  0  0  0  0  0  0  0
   39.3430   26.3050   32.5400 N   0  0  0  0  0  0  0  0  0  0  0  0
   38.7560   25.2040   33.0700 C   0  0  0  0  0  0  0  0  0  0  0  0
   39.3450   24.6550   34.1430 N   0  0  0  0  0  0  0  0  0  0  0  0
   42.2650   26.8310   34.7080 N   0  0  0  0  0  0  0  0  0  0  0  0
   43.5560   26.7270   34.1540 C   0  0  0  0  0  0  0  0  0  0  0  0
   43.8440   25.5790   33.5520 N   0  0  0  0  0  0  0  0  0  0  0  0
   44.4030   27.9020   34.3180 N   0  0  0  0  0  0  0  0  0  0  0  0
   44.7550   25.4340   33.1240 H   0  0  0  0  0  0  0  0  0  0  0  0
   36.7987   26.6190   31.8773 H   0  0  0  0  0  0  0  0  0  0  0  0
   34.7638   25.5832   30.8933 H   0  0  0  0  0  0  0  0  0  0  0  0
   35.3584   21.3300   34.0935 H   0  0  0  0  0  0  0  0  0  0  0  0
   35.0571   18.8505   33.9343 H   0  0  0  0  0  0  0  0  0  0  0  0
   36.2220   17.6586   29.5392 H   0  0  0  0  0  0  0  0  0  0  0  0
   36.6731   19.2085   28.7795 H   0  0  0  0  0  0  0  0  0  0  0  0
   40.8810   24.6587   35.5446 H   0  0  0  0  0  0  0  0  0  0  0  0
   40.9019   27.7337   32.5827 H   0  0  0  0  0  0  0  0  0  0  0  0
   42.1736   27.3462   35.5952 H   0  0  0  0  0  0  0  0  0  0  0  0
   45.3611   27.9030   33.9400 H   0  0  0  0  0  0  0  0  0  0  0  0
   44.0433   28.7312   34.8119 H   0  0  0  0  0  0  0  0  0  0  0  0
  1  6  1  0
  1 18  1  0
  2  1  2  0
  3  4  2  0
  3  2  1  0
  4  5  1  0
  5  7  1  0
  5  6  2  0
  7  8  2  0
  9  8  1  0
 10  9  2  0
 11 12  2  0
 11 10  1  0
 12  7  1  0
 13 11  1  0
 15 14  2  0
 15 20  1  0
 16 15  1  0
 17 16  2  0
 17 18  1  0
 18 19  2  0
 19 14  1  0
 21 23  1  0
 21 20  1  0
 22 21  2  0
 24 22  1  0
  2 25  1  0
  3 26  1  0
  8 27  1  0
  9 28  1  0
 13 29  1  0
 13 30  1  0
 14 31  1  0
 16 32  1  0
 20 33  1  0
 23 34  1  0
 23 35  1  0
M  ISO  6  25  14  26  14  27  14  28  14  31  14  32  14
M  END
>  <minimizedAffinity>  (1) 
-5.48218727

>  <minimizedRMSD>  (1) 
0.038278237

$$$$
