
     RDKit          3D

 36 39  0  0  1  0  0  0  0  0999 V2000
   40.1800   23.9340   35.7380 N   0  0  0  0  0  0  0  0  0  0  0  0
   40.5180   22.8400   36.6410 C   0  0  0  0  0  0  0  0  0  0  0  0
   39.6810   22.8170   37.8840 C   0  0  0  0  0  0  0  0  0  0  0  0
   38.3310   23.0920   37.5760 N   0  0  0  0  0  0  0  0  0  0  0  0
   37.9880   24.2410   36.8050 C   0  0  0  0  0  0  0  0  0  0  0  0
   38.9770   24.6710   35.8240 C   0  0  0  0  0  0  0  0  0  0  0  0
   41.0700   23.7830   33.4200 C   0  0  0  0  0  0  0  0  0  0  0  0
   41.0930   24.2870   34.7400 C   0  0  0  0  0  0  0  0  0  0  0  0
   42.1270   25.2050   35.0150 C   0  0  0  0  0  0  0  0  0  0  0  0
   43.0340   25.5760   34.0760 N   0  0  0  0  0  0  0  0  0  0  0  0
   42.9530   25.0530   32.8300 C   0  0  0  0  0  0  0  0  0  0  0  0
   41.9890   24.1750   32.5120 N   0  0  0  0  0  0  0  0  0  0  0  0
   38.5450   25.8040   35.0170 C   0  0  2  0  0  0  0  0  0  0  0  0
   38.9610   27.1450   35.6650 C   0  0  0  0  0  0  0  0  0  0  0  0
   37.5430   26.7890   35.3830 C   0  0  1  0  0  0  0  0  0  0  0  0
   36.8310   27.5490   34.2940 C   0  0  0  0  0  0  0  0  0  0  0  0
   36.8570   27.2160   32.9410 C   0  0  0  0  0  0  0  0  0  0  0  0
   36.0730   28.1850   32.3430 C   0  0  0  0  0  0  0  0  0  0  0  0
   35.6040   29.0460   33.2540 N   0  0  0  0  0  0  0  0  0  0  0  0
   36.0660   28.6530   34.4160 N   0  0  0  0  0  0  0  0  0  0  0  0
   40.3753   21.8893   36.1064 H   0  0  0  0  0  0  0  0  0  0  0  0
   41.5622   22.9869   36.9541 H   0  0  0  0  0  0  0  0  0  0  0  0
   39.7509   21.8226   38.3492 H   0  0  0  0  0  0  0  0  0  0  0  0
   40.0518   23.5866   38.5769 H   0  0  0  0  0  0  0  0  0  0  0  0
   37.5901   22.4593   37.9100 H   0  0  0  0  0  0  0  0  0  0  0  0
   37.0341   24.7714   36.9421 H   0  0  0  0  0  0  0  0  0  0  0  0
   40.2927   23.0614   33.1283 H   0  0  0  0  0  0  0  0  0  0  0  0
   42.2012   25.6351   36.0247 H   0  0  0  0  0  0  0  0  0  0  0  0
   43.6875   25.3518   32.0676 H   0  0  0  0  0  0  0  0  0  0  0  0
   38.6394   25.2221   34.0883 H   0  0  0  0  0  0  0  0  0  0  0  0
   39.3341   27.1726   36.6994 H   0  0  0  0  0  0  0  0  0  0  0  0
   39.6376   27.9741   35.4104 H   0  0  0  0  0  0  0  0  0  0  0  0
   36.6307   26.7383   35.9955 H   0  0  0  0  0  0  0  0  0  0  0  0
   37.3803   26.3764   32.4601 H   0  0  0  0  0  0  0  0  0  0  0  0
   35.8631   28.2408   31.2647 H   0  0  0  0  0  0  0  0  0  0  0  0
   34.9977   29.8595   33.0765 H   0  0  0  0  0  0  0  0  0  0  0  0
  1  6  1  0
  1  2  1  0
  2  3  1  0
  4  3  1  0
  5  4  1  0
  6  5  2  0
  7  8  2  0
  8  9  1  0
  8  1  1  0
 10  9  2  0
 11 10  1  0
 12 11  2  0
 12  7  1  0
 13 15  1  0
 13 14  1  0
 13  6  1  0
 15 14  1  0
 16 20  2  0
 16 15  1  0
 17 16  1  0
 18 17  2  0
 18 19  1  0
 19 20  1  0
  2 21  1  0
  2 22  1  0
  3 23  1  0
  3 24  1  0
  4 25  1  0
  5 26  1  0
  7 27  1  0
  9 28  1  0
 11 29  1  0
 13 30  1  6
 14 31  1  0
 14 32  1  0
 15 33  1  1
 17 34  1  0
 18 35  1  0
 19 36  1  0
M  ISO  8  21  13  22  13  23  13  24  13  26  13  27  14  28  14  29  14
M  ISO  7  30  13  31  13  32  13  33  13  34  14  35  14  36   9
M  END
>  <minimizedAffinity>  (1) 
-4.79663515

>  <minimizedRMSD>  (1) 
5.40371418

$$$$
