
     RDKit          3D

 30 32  0  0  1  0  0  0  0  0999 V2000
   39.8460   24.8440   35.4350 N   0  0  0  0  0  0  0  0  0  0  0  0
   41.1640   25.0180   34.8300 C   0  0  0  0  0  0  0  0  0  0  0  0
   42.2490   24.2560   35.5240 C   0  0  0  0  0  0  0  0  0  0  0  0
   41.7980   22.9810   35.9130 N   0  0  0  0  0  0  0  0  0  0  0  0
   40.5710   22.8280   36.6330 C   0  0  0  0  0  0  0  0  0  0  0  0
   39.5450   23.8170   36.3560 C   0  0  0  0  0  0  0  0  0  0  0  0
   37.8700   25.5350   34.0890 C   0  0  0  0  0  0  0  0  0  0  0  0
   38.8350   25.7480   35.0970 C   0  0  0  0  0  0  0  0  0  0  0  0
   38.7310   26.9730   35.7860 C   0  0  0  0  0  0  0  0  0  0  0  0
   37.7650   27.8810   35.4930 N   0  0  0  0  0  0  0  0  0  0  0  0
   36.8740   27.6150   34.5180 C   0  0  0  0  0  0  0  0  0  0  0  0
   36.9230   26.4530   33.8200 N   0  0  0  0  0  0  0  0  0  0  0  0
   38.2880   23.5700   37.0520 C   0  0  2  0  0  0  0  0  0  0  0  0
   38.1640   24.4690   38.3020 C   0  0  0  0  0  0  0  0  0  0  0  0
   38.1320   22.9810   38.3680 C   0  0  1  0  0  0  0  0  0  0  0  0
   36.9100   22.3470   38.6840 O   0  0  0  0  0  0  0  0  0  0  0  0
   41.1143   24.6779   33.7851 H   0  0  0  0  0  0  0  0  0  0  0  0
   41.4173   26.0853   34.9119 H   0  0  0  0  0  0  0  0  0  0  0  0
   43.1033   24.1426   34.8404 H   0  0  0  0  0  0  0  0  0  0  0  0
   42.5483   24.8125   36.4244 H   0  0  0  0  0  0  0  0  0  0  0  0
   42.3572   22.1489   35.6769 H   0  0  0  0  0  0  0  0  0  0  0  0
   40.4147   22.0108   37.3525 H   0  0  0  0  0  0  0  0  0  0  0  0
   37.8924   24.5992   33.5112 H   0  0  0  0  0  0  0  0  0  0  0  0
   39.4532   27.2000   36.5841 H   0  0  0  0  0  0  0  0  0  0  0  0
   36.0929   28.3533   34.2839 H   0  0  0  0  0  0  0  0  0  0  0  0
   37.7773   23.3085   36.1135 H   0  0  0  0  0  0  0  0  0  0  0  0
   39.0353   25.0256   38.6777 H   0  0  0  0  0  0  0  0  0  0  0  0
   37.5117   25.2930   38.6266 H   0  0  0  0  0  0  0  0  0  0  0  0
   38.7066   22.2347   38.9363 H   0  0  0  0  0  0  0  0  0  0  0  0
   36.8099   22.2950   39.6676 H   0  0  0  0  0  0  0  0  0  0  0  0
  1  6  1  0
  2  1  1  0
  2  3  1  0
  3  4  1  0
  4  5  1  0
  6  5  2  0
  6 13  1  0
  7  8  2  0
  8  1  1  0
  8  9  1  0
 10  9  2  0
 11 10  1  0
 12  7  1  0
 12 11  2  0
 13 14  1  0
 13 15  1  0
 14 15  1  0
 15 16  1  0
  2 17  1  0
  2 18  1  0
  3 19  1  0
  3 20  1  0
  4 21  1  0
  5 22  1  0
  7 23  1  0
  9 24  1  0
 11 25  1  0
 13 26  1  6
 14 27  1  0
 14 28  1  0
 15 29  1  1
 16 30  1  0
M  ISO  8  17  13  18  13  19  13  20  13  22  13  23  14  24  14  25  14
M  ISO  5  26  13  27  13  28  13  29  13  30   3
M  END
>  <minimizedAffinity>  (1) 
-4.3406806

>  <minimizedRMSD>  (1) 
0.440425098

$$$$
