
     RDKit          3D

 35 38  0  0  1  0  0  0  0  0999 V2000
   40.8260   25.3490   34.6920 N   0  0  0  0  0  0  0  0  0  0  0  0
   42.1910   25.1450   35.1700 C   0  0  0  0  0  0  0  0  0  0  0  0
   43.2110   25.9520   34.4300 C   0  0  0  0  0  0  0  0  0  0  0  0
   42.7260   27.2500   34.1700 N   0  0  0  0  0  0  0  0  0  0  0  0
   41.4440   27.4370   33.5630 C   0  0  0  0  0  0  0  0  0  0  0  0
   40.4530   26.4300   33.8620 C   0  0  0  0  0  0  0  0  0  0  0  0
   38.8890   24.6300   36.0770 C   0  0  0  0  0  0  0  0  0  0  0  0
   39.8420   24.4250   35.0610 C   0  0  0  0  0  0  0  0  0  0  0  0
   39.7530   23.1840   34.3960 C   0  0  0  0  0  0  0  0  0  0  0  0
   38.8240   22.2510   34.7050 N   0  0  0  0  0  0  0  0  0  0  0  0
   37.9290   22.5130   35.7030 C   0  0  0  0  0  0  0  0  0  0  0  0
   37.9720   23.6820   36.3690 N   0  0  0  0  0  0  0  0  0  0  0  0
   39.1380   26.7040   33.2830 C   0  0  2  0  0  0  0  0  0  0  0  0
   38.9410   25.9340   31.9590 C   0  0  0  0  0  0  0  0  0  0  0  0
   38.8700   27.4200   32.0500 C   0  0  1  0  0  0  0  0  0  0  0  0
   37.5190   27.9820   31.9190 N   0  0  0  0  0  0  0  0  0  0  0  0
   36.3870   27.4900   32.4920 C   0  0  0  0  0  0  0  0  0  0  0  0
   35.3360   28.2620   32.1520 N   0  0  0  0  0  0  0  0  0  0  0  0
   35.8160   29.2430   31.3600 C   0  0  0  0  0  0  0  0  0  0  0  0
   37.1540   29.0620   31.2240 N   0  0  0  0  0  0  0  0  0  0  0  0
   42.2324   25.4229   36.2335 H   0  0  0  0  0  0  0  0  0  0  0  0
   42.4359   24.0854   35.0050 H   0  0  0  0  0  0  0  0  0  0  0  0
   44.1253   26.0230   35.0374 H   0  0  0  0  0  0  0  0  0  0  0  0
   43.4270   25.4565   33.4720 H   0  0  0  0  0  0  0  0  0  0  0  0
   43.2985   28.0693   34.4187 H   0  0  0  0  0  0  0  0  0  0  0  0
   41.2267   28.2945   32.9092 H   0  0  0  0  0  0  0  0  0  0  0  0
   38.8912   25.5747   36.6405 H   0  0  0  0  0  0  0  0  0  0  0  0
   40.4704   22.9657   33.5912 H   0  0  0  0  0  0  0  0  0  0  0  0
   37.1676   21.7633   35.9644 H   0  0  0  0  0  0  0  0  0  0  0  0
   38.6928   26.8500   34.2782 H   0  0  0  0  0  0  0  0  0  0  0  0
   38.0301   25.3413   31.7885 H   0  0  0  0  0  0  0  0  0  0  0  0
   39.5146   25.2003   31.3736 H   0  0  0  0  0  0  0  0  0  0  0  0
   39.3809   28.2437   31.5299 H   0  0  0  0  0  0  0  0  0  0  0  0
   36.3374   26.5985   33.1345 H   0  0  0  0  0  0  0  0  0  0  0  0
   35.2248   30.0504   30.9032 H   0  0  0  0  0  0  0  0  0  0  0  0
  1  8  1  0
  1  2  1  0
  3  2  1  0
  4  3  1  0
  5  6  2  0
  5  4  1  0
  6  1  1  0
  7 12  2  0
  8  7  1  0
  9 10  1  0
  9  8  2  0
 10 11  2  0
 11 12  1  0
 13  6  1  0
 14 15  1  0
 14 13  1  0
 15 13  1  0
 16 15  1  0
 16 17  1  0
 18 17  2  0
 19 18  1  0
 20 19  2  0
 20 16  1  0
  2 21  1  0
  2 22  1  0
  3 23  1  0
  3 24  1  0
  4 25  1  0
  5 26  1  0
  7 27  1  0
  9 28  1  0
 11 29  1  0
 13 30  1  1
 14 31  1  0
 14 32  1  0
 15 33  1  6
 17 34  1  0
 19 35  1  0
M  ISO  8  21  13  22  13  23  13  24  13  26  13  27  14  28  14  29  14
M  ISO  6  30  13  31  13  32  13  33  13  34  14  35  14
M  END
>  <minimizedAffinity>  (1) 
-4.36505032

>  <minimizedRMSD>  (1) 
6.28957176

$$$$
