
     RDKit          3D

 32 34  0  0  1  0  0  0  0  0999 V2000
   38.5350   24.4460   34.3730 N   0  0  0  0  0  0  0  0  0  0  0  0
   39.1610   25.6910   33.9540 C   0  0  0  0  0  0  0  0  0  0  0  0
   39.3300   25.8050   32.4700 C   0  0  0  0  0  0  0  0  0  0  0  0
   38.1830   25.3250   31.8040 N   0  0  0  0  0  0  0  0  0  0  0  0
   37.6560   24.0310   32.1130 C   0  0  0  0  0  0  0  0  0  0  0  0
   37.8400   23.5890   33.4850 C   0  0  0  0  0  0  0  0  0  0  0  0
   37.7020   24.4360   36.7150 C   0  0  0  0  0  0  0  0  0  0  0  0
   38.6270   24.0600   35.7160 C   0  0  0  0  0  0  0  0  0  0  0  0
   39.6940   23.2410   36.1420 C   0  0  0  0  0  0  0  0  0  0  0  0
   39.8150   22.8440   37.4360 N   0  0  0  0  0  0  0  0  0  0  0  0
   38.8980   23.2360   38.3420 C   0  0  0  0  0  0  0  0  0  0  0  0
   37.8470   24.0270   37.9910 N   0  0  0  0  0  0  0  0  0  0  0  0
   37.2120   22.3010   33.7720 C   0  0  2  0  0  0  0  0  0  0  0  0
   38.0440   21.1360   33.1860 C   0  0  0  0  0  0  0  0  0  0  0  0
   36.6260   21.3910   32.8050 C   0  0  1  0  0  0  0  0  0  0  0  0
   35.5720   20.4140   33.3330 C   0  0  0  0  0  0  0  0  0  0  0  0
   35.9620   19.1160   33.0970 F   0  0  0  0  0  0  0  0  0  0  0  0
   35.3120   20.6050   34.6740 F   0  0  0  0  0  0  0  0  0  0  0  0
   34.4290   20.6390   32.5700 F   0  0  0  0  0  0  0  0  0  0  0  0
   38.5361   26.5281   34.2986 H   0  0  0  0  0  0  0  0  0  0  0  0
   40.1677   25.7120   34.3968 H   0  0  0  0  0  0  0  0  0  0  0  0
   39.4881   26.8605   32.2037 H   0  0  0  0  0  0  0  0  0  0  0  0
   40.1977   25.2025   32.1634 H   0  0  0  0  0  0  0  0  0  0  0  0
   37.7223   25.9090   31.0915 H   0  0  0  0  0  0  0  0  0  0  0  0
   37.1451   23.4115   31.3612 H   0  0  0  0  0  0  0  0  0  0  0  0
   36.8474   25.0745   36.4466 H   0  0  0  0  0  0  0  0  0  0  0  0
   40.4465   22.9158   35.4085 H   0  0  0  0  0  0  0  0  0  0  0  0
   39.0007   22.9100   39.3875 H   0  0  0  0  0  0  0  0  0  0  0  0
   36.7848   22.6789   34.7126 H   0  0  0  0  0  0  0  0  0  0  0  0
   38.8577   21.3349   32.4731 H   0  0  0  0  0  0  0  0  0  0  0  0
   38.6187   20.2888   33.5885 H   0  0  0  0  0  0  0  0  0  0  0  0
   36.1177   21.5299   31.8394 H   0  0  0  0  0  0  0  0  0  0  0  0
  1  8  1  0
  2  1  1  0
  3  2  1  0
  4  5  1  0
  4  3  1  0
  5  6  2  0
  6 13  1  0
  6  1  1  0
  7 12  2  0
  8  9  2  0
  8  7  1  0
  9 10  1  0
 10 11  2  0
 12 11  1  0
 14 13  1  0
 15 14  1  0
 15 16  1  0
 15 13  1  0
 16 18  1  0
 17 16  1  0
 19 16  1  0
  2 20  1  0
  2 21  1  0
  3 22  1  0
  3 23  1  0
  4 24  1  0
  5 25  1  0
  7 26  1  0
  9 27  1  0
 11 28  1  0
 13 29  1  1
 14 30  1  0
 14 31  1  0
 15 32  1  6
M  ISO  8  20  13  21  13  22  13  23  13  25  13  26  14  27  14  28  14
M  ISO  4  29  13  30  13  31  13  32  13
M  END
>  <minimizedAffinity>  (1) 
-4.69539642

>  <minimizedRMSD>  (1) 
5.02113008

$$$$
