
     RDKit          3D

 31 33  0  0  1  0  0  0  0  0999 V2000
   39.8590   24.6530   35.5500 N   0  0  0  0  0  0  0  0  0  0  0  0
   41.1790   24.7900   34.9590 C   0  0  0  0  0  0  0  0  0  0  0  0
   42.2350   24.0070   35.6770 C   0  0  0  0  0  0  0  0  0  0  0  0
   41.7480   22.7390   36.0500 N   0  0  0  0  0  0  0  0  0  0  0  0
   40.5240   22.6210   36.7650 C   0  0  0  0  0  0  0  0  0  0  0  0
   39.5210   23.6400   36.4840 C   0  0  0  0  0  0  0  0  0  0  0  0
   37.8900   25.3570   34.1980 C   0  0  0  0  0  0  0  0  0  0  0  0
   38.8630   25.5700   35.1940 C   0  0  0  0  0  0  0  0  0  0  0  0
   38.7810   26.8140   35.8520 C   0  0  0  0  0  0  0  0  0  0  0  0
   37.8290   27.7290   35.5380 N   0  0  0  0  0  0  0  0  0  0  0  0
   36.9300   27.4540   34.5720 C   0  0  0  0  0  0  0  0  0  0  0  0
   36.9600   26.2860   33.9120 N   0  0  0  0  0  0  0  0  0  0  0  0
   38.2650   23.4360   37.1900 C   0  0  2  0  0  0  0  0  0  0  0  0
   38.1710   24.3460   38.4350 C   0  0  0  0  0  0  0  0  0  0  0  0
   38.0910   22.8590   38.5080 C   0  0  1  0  0  0  0  0  0  0  0  0
   36.7880   22.3290   38.8810 N   0  0  0  0  0  0  0  0  0  0  0  0
   41.1329   24.4400   33.9172 H   0  0  0  0  0  0  0  0  0  0  0  0
   41.4578   25.8518   35.0282 H   0  0  0  0  0  0  0  0  0  0  0  0
   43.1034   23.8795   35.0139 H   0  0  0  0  0  0  0  0  0  0  0  0
   42.5254   24.5553   36.5853 H   0  0  0  0  0  0  0  0  0  0  0  0
   42.2810   21.8928   35.8037 H   0  0  0  0  0  0  0  0  0  0  0  0
   40.3455   21.8098   37.4862 H   0  0  0  0  0  0  0  0  0  0  0  0
   37.8906   24.4085   33.6408 H   0  0  0  0  0  0  0  0  0  0  0  0
   39.5091   27.0498   36.6422 H   0  0  0  0  0  0  0  0  0  0  0  0
   36.1600   28.1984   34.3209 H   0  0  0  0  0  0  0  0  0  0  0  0
   37.7457   23.1840   36.2536 H   0  0  0  0  0  0  0  0  0  0  0  0
   39.0601   24.8761   38.8073 H   0  0  0  0  0  0  0  0  0  0  0  0
   37.5460   25.1925   38.7557 H   0  0  0  0  0  0  0  0  0  0  0  0
   38.6418   22.0719   39.0438 H   0  0  0  0  0  0  0  0  0  0  0  0
   36.7112   22.2977   39.9077 H   0  0  0  0  0  0  0  0  0  0  0  0
   36.0484   22.9361   38.4997 H   0  0  0  0  0  0  0  0  0  0  0  0
  1  6  1  0
  2  1  1  0
  2  3  1  0
  3  4  1  0
  4  5  1  0
  6  5  2  0
  6 13  1  0
  7  8  2  0
  8  1  1  0
  8  9  1  0
 10  9  2  0
 11 10  1  0
 12  7  1  0
 12 11  2  0
 13 14  1  0
 13 15  1  0
 14 15  1  0
 15 16  1  0
  2 17  1  0
  2 18  1  0
  3 19  1  0
  3 20  1  0
  4 21  1  0
  5 22  1  0
  7 23  1  0
  9 24  1  0
 11 25  1  0
 13 26  1  6
 14 27  1  0
 14 28  1  0
 15 29  1  1
 16 30  1  0
 16 31  1  0
M  ISO  8  17  13  18  13  19  13  20  13  22  13  23  14  24  14  25  14
M  ISO  6  26  13  27  13  28  13  29  13  30   5  31   5
M  END
>  <minimizedAffinity>  (1) 
-4.14441299

>  <minimizedRMSD>  (1) 
0.359669983

$$$$
