
     RDKit          3D

 35 38  0  0  1  0  0  0  0  0999 V2000
   39.1320   24.4340   35.3060 N   0  0  0  0  0  0  0  0  0  0  0  0
   38.6420   25.7610   34.9840 C   0  0  0  0  0  0  0  0  0  0  0  0
   39.6760   26.8300   35.1060 C   0  0  0  0  0  0  0  0  0  0  0  0
   40.9260   26.3850   34.6290 N   0  0  0  0  0  0  0  0  0  0  0  0
   41.4740   25.1500   35.0830 C   0  0  0  0  0  0  0  0  0  0  0  0
   40.5090   24.1100   35.4310 C   0  0  0  0  0  0  0  0  0  0  0  0
   37.8360   22.4470   34.5450 C   0  0  0  0  0  0  0  0  0  0  0  0
   38.2080   23.4060   35.5210 C   0  0  0  0  0  0  0  0  0  0  0  0
   37.5810   23.2740   36.7770 C   0  0  0  0  0  0  0  0  0  0  0  0
   36.6800   22.2900   37.0290 N   0  0  0  0  0  0  0  0  0  0  0  0
   36.3660   21.4060   36.0610 C   0  0  0  0  0  0  0  0  0  0  0  0
   36.9340   21.4890   34.8500 N   0  0  0  0  0  0  0  0  0  0  0  0
   41.1260   22.8570   35.8100 C   0  0  2  0  0  0  0  0  0  0  0  0
   41.0870   22.6420   37.3340 C   0  0  0  0  0  0  0  0  0  0  0  0
   42.3570   22.6850   36.5580 C   0  0  1  0  0  0  0  0  0  0  0  0
   43.1240   21.4000   36.4490 C   0  0  0  0  0  0  0  0  0  0  0  0
   44.3060   21.3840   35.6680 C   0  0  0  0  0  0  0  0  0  0  0  0
   44.8230   19.6390   35.8720 S   0  0  0  0  0  0  0  0  0  0  0  0
   43.3230   19.2390   36.9950 C   0  0  0  0  0  0  0  0  0  0  0  0
   42.6740   20.3180   37.0890 N   0  0  0  0  0  0  0  0  0  0  0  0
   37.8135   26.0001   35.6669 H   0  0  0  0  0  0  0  0  0  0  0  0
   38.3259   25.7393   33.9306 H   0  0  0  0  0  0  0  0  0  0  0  0
   39.3588   27.7050   34.5198 H   0  0  0  0  0  0  0  0  0  0  0  0
   39.7817   27.0937   36.1687 H   0  0  0  0  0  0  0  0  0  0  0  0
   41.4465   26.9561   33.9480 H   0  0  0  0  0  0  0  0  0  0  0  0
   42.5590   24.9896   35.1664 H   0  0  0  0  0  0  0  0  0  0  0  0
   38.2818   22.4832   33.5400 H   0  0  0  0  0  0  0  0  0  0  0  0
   37.8289   23.9887   37.5756 H   0  0  0  0  0  0  0  0  0  0  0  0
   35.6366   20.6088   36.2670 H   0  0  0  0  0  0  0  0  0  0  0  0
   40.8228   22.3928   34.8599 H   0  0  0  0  0  0  0  0  0  0  0  0
   40.8165   23.4690   38.0070 H   0  0  0  0  0  0  0  0  0  0  0  0
   40.6018   21.9359   38.0239 H   0  0  0  0  0  0  0  0  0  0  0  0
   43.2807   23.2800   36.6101 H   0  0  0  0  0  0  0  0  0  0  0  0
   44.7815   22.1952   35.0971 H   0  0  0  0  0  0  0  0  0  0  0  0
   43.0786   18.2726   37.4600 H   0  0  0  0  0  0  0  0  0  0  0  0
  1  6  1  0
  1  8  1  0
  2  3  1  0
  2  1  1  0
  4  5  1  0
  4  3  1  0
  5  6  2  0
  6 13  1  0
  7 12  2  0
  7  8  1  0
  8  9  2  0
  9 10  1  0
 11 10  2  0
 12 11  1  0
 13 15  1  0
 13 14  1  0
 15 14  1  0
 16 15  1  0
 16 20  1  0
 17 18  1  0
 17 16  2  0
 18 19  1  0
 19 20  2  0
  2 21  1  0
  2 22  1  0
  3 23  1  0
  3 24  1  0
  4 25  1  0
  5 26  1  0
  7 27  1  0
  9 28  1  0
 11 29  1  0
 13 30  1  6
 14 31  1  0
 14 32  1  0
 15 33  1  1
 17 34  1  0
 19 35  1  0
M  ISO  8  21  13  22  13  23  13  24  13  26  13  27  14  28  14  29  14
M  ISO  6  30  13  31  13  32  13  33  13  34  14  35  14
M  END
>  <minimizedAffinity>  (1) 
-4.08618164

>  <minimizedRMSD>  (1) 
5.81735802

$$$$
