
     RDKit          3D

 42 45  0  0  1  0  0  0  0  0999 V2000
   44.2410   22.6790   34.5710 N   0  0  0  0  0  0  0  0  0  0  0  0
   45.1430   21.9860   33.6640 C   0  0  0  0  0  0  0  0  0  0  0  0
   44.6770   20.6040   33.3170 C   0  0  0  0  0  0  0  0  0  0  0  0
   43.2880   20.6040   33.0630 N   0  0  0  0  0  0  0  0  0  0  0  0
   42.3900   21.1620   34.0140 C   0  0  0  0  0  0  0  0  0  0  0  0
   42.9080   22.2730   34.8040 C   0  0  0  0  0  0  0  0  0  0  0  0
   44.5600   25.1350   34.8260 C   0  0  0  0  0  0  0  0  0  0  0  0
   44.7100   23.8030   35.2620 C   0  0  0  0  0  0  0  0  0  0  0  0
   45.3880   23.6520   36.4900 C   0  0  0  0  0  0  0  0  0  0  0  0
   45.8540   24.7170   37.1870 N   0  0  0  0  0  0  0  0  0  0  0  0
   45.6720   25.9640   36.7060 C   0  0  0  0  0  0  0  0  0  0  0  0
   45.0360   26.1680   35.5440 N   0  0  0  0  0  0  0  0  0  0  0  0
   41.9230   22.8440   35.7090 C   0  0  2  0  0  0  0  0  0  0  0  0
   41.9010   22.1080   37.0670 C   0  0  0  0  0  0  0  0  0  0  0  0
   40.7050   22.2120   36.1820 C   0  0  1  0  0  0  0  0  0  0  0  0
   39.5530   23.0000   36.5920 N   0  0  0  0  0  0  0  0  0  0  0  0
   39.4220   22.9970   38.0360 C   0  0  0  0  0  0  0  0  0  0  0  0
   38.2820   23.8950   38.4540 C   0  0  0  0  0  0  0  0  0  0  0  0
   37.3350   24.0420   37.4470 O   0  0  0  0  0  0  0  0  0  0  0  0
   37.1270   22.7720   36.8990 C   0  0  0  0  0  0  0  0  0  0  0  0
   38.3310   22.4570   36.0440 C   0  0  0  0  0  0  0  0  0  0  0  0
   45.2254   22.5714   32.7364 H   0  0  0  0  0  0  0  0  0  0  0  0
   46.1121   21.8879   34.1750 H   0  0  0  0  0  0  0  0  0  0  0  0
   45.2099   20.2561   32.4198 H   0  0  0  0  0  0  0  0  0  0  0  0
   44.8857   19.9332   34.1634 H   0  0  0  0  0  0  0  0  0  0  0  0
   42.9249   20.1995   32.1881 H   0  0  0  0  0  0  0  0  0  0  0  0
   41.3672   20.7791   34.1457 H   0  0  0  0  0  0  0  0  0  0  0  0
   44.0416   25.3343   33.8765 H   0  0  0  0  0  0  0  0  0  0  0  0
   45.5430   22.6405   36.8936 H   0  0  0  0  0  0  0  0  0  0  0  0
   46.0509   26.8255   37.2754 H   0  0  0  0  0  0  0  0  0  0  0  0
   42.0576   23.8408   35.2637 H   0  0  0  0  0  0  0  0  0  0  0  0
   42.4226   21.1473   37.1894 H   0  0  0  0  0  0  0  0  0  0  0  0
   42.1414   22.3589   38.1107 H   0  0  0  0  0  0  0  0  0  0  0  0
   40.0176   21.4774   35.7373 H   0  0  0  0  0  0  0  0  0  0  0  0
   39.2234   21.9717   38.3815 H   0  0  0  0  0  0  0  0  0  0  0  0
   40.3559   23.3676   38.4837 H   0  0  0  0  0  0  0  0  0  0  0  0
   37.7941   23.4601   39.3388 H   0  0  0  0  0  0  0  0  0  0  0  0
   38.6978   24.8890   38.6753 H   0  0  0  0  0  0  0  0  0  0  0  0
   37.0280   22.0260   37.7013 H   0  0  0  0  0  0  0  0  0  0  0  0
   36.2042   22.7491   36.3008 H   0  0  0  0  0  0  0  0  0  0  0  0
   38.1736   22.8823   35.0418 H   0  0  0  0  0  0  0  0  0  0  0  0
   38.4379   21.3629   36.0052 H   0  0  0  0  0  0  0  0  0  0  0  0
  1  6  1  0
  1  8  1  0
  2  1  1  0
  3  2  1  0
  4  3  1  0
  4  5  1  0
  5  6  2  0
  6 13  1  0
  7  8  2  0
  7 12  1  0
  8  9  1  0
  9 10  2  0
 11 10  1  0
 12 11  2  0
 13 15  1  0
 13 14  1  0
 15 16  1  0
 15 14  1  0
 16 17  1  0
 17 18  1  0
 19 18  1  0
 20 19  1  0
 21 16  1  0
 21 20  1  0
  2 22  1  0
  2 23  1  0
  3 24  1  0
  3 25  1  0
  4 26  1  0
  5 27  1  0
  7 28  1  0
  9 29  1  0
 11 30  1  0
 13 31  1  1
 14 32  1  0
 14 33  1  0
 15 34  1  6
 17 35  1  0
 17 36  1  0
 18 37  1  0
 18 38  1  0
 20 39  1  0
 20 40  1  0
 21 41  1  0
 21 42  1  0
M  ISO  8  22  13  23  13  24  13  25  13  27  13  28  14  29  14  30  14
M  ISO  8  31  13  32  13  33  13  34  13  35  13  36  13  37  13  38  13
M  ISO  4  39  13  40  13  41  13  42  13
M  END
>  <minimizedAffinity>  (1) 
-3.8421526

>  <minimizedRMSD>  (1) 
5.64485407

$$$$
