
     RDKit          3D

 36 39  0  0  1  0  0  0  0  0999 V2000
   38.4790   24.2360   30.9440 N   0  0  0  0  0  0  0  0  0  0  0  0
   38.8070   23.7710   29.6020 C   0  0  0  0  0  0  0  0  0  0  0  0
   39.9580   22.8230   29.5670 C   0  0  0  0  0  0  0  0  0  0  0  0
   39.9020   21.9160   30.6450 N   0  0  0  0  0  0  0  0  0  0  0  0
   39.7260   22.3880   31.9740 C   0  0  0  0  0  0  0  0  0  0  0  0
   38.9600   23.6230   32.1270 C   0  0  0  0  0  0  0  0  0  0  0  0
   36.2570   25.3120   31.2630 C   0  0  0  0  0  0  0  0  0  0  0  0
   37.6520   25.3560   31.0810 C   0  0  0  0  0  0  0  0  0  0  0  0
   38.2070   26.6520   31.0440 C   0  0  0  0  0  0  0  0  0  0  0  0
   37.4480   27.7670   31.1730 N   0  0  0  0  0  0  0  0  0  0  0  0
   36.1130   27.6520   31.3450 C   0  0  0  0  0  0  0  0  0  0  0  0
   35.5340   26.4430   31.3880 N   0  0  0  0  0  0  0  0  0  0  0  0
   38.7630   24.0290   33.5050 C   0  0  2  0  0  0  0  0  0  0  0  0
   39.8550   25.0260   33.9560 C   0  0  0  0  0  0  0  0  0  0  0  0
   39.6200   23.7200   34.6350 C   0  0  1  0  0  0  0  0  0  0  0  0
   39.0840   23.8050   36.0120 C   0  0  0  0  0  0  0  0  0  0  0  0
   38.0920   24.4990   36.6330 C   0  0  0  0  0  0  0  0  0  0  0  0
   37.8860   24.3100   37.9690 C   0  0  0  0  0  0  0  0  0  0  0  0
   38.6710   23.4310   38.6640 C   0  0  0  0  0  0  0  0  0  0  0  0
   39.8400   22.7830   37.3180 S   0  0  0  0  0  0  0  0  0  0  0  0
   37.9251   23.2639   29.1837 H   0  0  0  0  0  0  0  0  0  0  0  0
   39.0969   24.6547   29.0146 H   0  0  0  0  0  0  0  0  0  0  0  0
   39.9312   22.2602   28.6223 H   0  0  0  0  0  0  0  0  0  0  0  0
   40.8899   23.4021   29.6459 H   0  0  0  0  0  0  0  0  0  0  0  0
   39.9892   20.9050   30.4683 H   0  0  0  0  0  0  0  0  0  0  0  0
   40.1434   21.8531   32.8398 H   0  0  0  0  0  0  0  0  0  0  0  0
   35.7478   24.3378   31.3040 H   0  0  0  0  0  0  0  0  0  0  0  0
   39.2928   26.7613   30.9057 H   0  0  0  0  0  0  0  0  0  0  0  0
   35.4963   28.5567   31.4506 H   0  0  0  0  0  0  0  0  0  0  0  0
   37.6729   23.9133   33.4138 H   0  0  0  0  0  0  0  0  0  0  0  0
   40.7551   25.1823   33.3434 H   0  0  0  0  0  0  0  0  0  0  0  0
   39.8901   26.0833   34.2574 H   0  0  0  0  0  0  0  0  0  0  0  0
   40.2324   22.8367   34.8690 H   0  0  0  0  0  0  0  0  0  0  0  0
   37.4647   25.2027   36.0662 H   0  0  0  0  0  0  0  0  0  0  0  0
   37.0892   24.8642   38.4867 H   0  0  0  0  0  0  0  0  0  0  0  0
   38.6337   23.1673   39.7313 H   0  0  0  0  0  0  0  0  0  0  0  0
  1  8  1  0
  1  6  1  0
  2  1  1  0
  3  2  1  0
  3  4  1  0
  4  5  1  0
  5  6  2  0
  6 13  1  0
  7 12  2  0
  8  7  1  0
  9  8  2  0
  9 10  1  0
 10 11  2  0
 11 12  1  0
 13 14  1  0
 13 15  1  0
 14 15  1  0
 15 16  1  0
 16 17  2  0
 16 20  1  0
 17 18  1  0
 18 19  2  0
 20 19  1  0
  2 21  1  0
  2 22  1  0
  3 23  1  0
  3 24  1  0
  4 25  1  0
  5 26  1  0
  7 27  1  0
  9 28  1  0
 11 29  1  0
 13 30  1  1
 14 31  1  0
 14 32  1  0
 15 33  1  6
 17 34  1  0
 18 35  1  0
 19 36  1  0
M  ISO  8  21  13  22  13  23  13  24  13  26  13  27  14  28  14  29  14
M  ISO  7  30  13  31  13  32  13  33  13  34  14  35  14  36  14
M  END
>  <minimizedAffinity>  (1) 
-4.1500268

>  <minimizedRMSD>  (1) 
4.67724037

$$$$
