
     RDKit          3D

 43 47  0  0  1  0  0  0  0  0999 V2000
   38.5780   24.2430   36.5390 N   0  0  0  0  0  0  0  0  0  0  0  0
   37.4280   23.9470   37.3960 C   0  0  0  0  0  0  0  0  0  0  0  0
   37.6030   22.7430   38.2610 C   0  0  0  0  0  0  0  0  0  0  0  0
   38.9160   22.6600   38.7510 N   0  0  0  0  0  0  0  0  0  0  0  0
   40.0340   22.7970   37.8790 C   0  0  0  0  0  0  0  0  0  0  0  0
   39.8350   23.6460   36.7210 C   0  0  0  0  0  0  0  0  0  0  0  0
   38.6100   26.5250   35.5770 C   0  0  0  0  0  0  0  0  0  0  0  0
   38.4210   25.1430   35.4950 C   0  0  0  0  0  0  0  0  0  0  0  0
   38.0360   24.6620   34.2180 C   0  0  0  0  0  0  0  0  0  0  0  0
   37.8670   25.4880   33.1610 N   0  0  0  0  0  0  0  0  0  0  0  0
   38.0640   26.8080   33.3080 C   0  0  0  0  0  0  0  0  0  0  0  0
   38.4270   27.3050   34.4870 N   0  0  0  0  0  0  0  0  0  0  0  0
   41.0490   23.7870   35.9100 C   0  0  2  0  0  0  0  0  0  0  0  0
   41.4950   22.4120   35.3330 C   0  0  0  0  0  0  0  0  0  0  0  0
   42.3630   23.2880   36.1940 C   0  0  1  0  0  0  0  0  0  0  0  0
   43.6050   23.9000   35.6280 C   0  0  2  0  0  0  0  0  0  0  0  0
   44.7570   24.0170   36.6650 C   0  0  0  0  0  0  0  0  0  0  0  0
   44.0290   25.2080   36.1150 C   0  0  1  0  0  0  0  0  0  0  0  0
   44.6920   26.1090   35.1330 C   0  0  0  0  0  0  0  0  0  0  0  0
   45.5870   25.6740   34.1920 C   0  0  0  0  0  0  0  0  0  0  0  0
   45.9850   26.7560   33.4760 N   0  0  0  0  0  0  0  0  0  0  0  0
   45.3490   27.8550   33.9640 C   0  0  0  0  0  0  0  0  0  0  0  0
   44.5620   27.4370   34.9780 N   0  0  0  0  0  0  0  0  0  0  0  0
   37.2498   24.8160   38.0464 H   0  0  0  0  0  0  0  0  0  0  0  0
   36.5814   23.7348   36.7266 H   0  0  0  0  0  0  0  0  0  0  0  0
   36.9060   22.8058   39.1097 H   0  0  0  0  0  0  0  0  0  0  0  0
   37.3975   21.8463   37.6579 H   0  0  0  0  0  0  0  0  0  0  0  0
   39.0732   22.4976   39.7559 H   0  0  0  0  0  0  0  0  0  0  0  0
   40.9904   22.2893   38.0726 H   0  0  0  0  0  0  0  0  0  0  0  0
   38.9090   26.9809   36.5324 H   0  0  0  0  0  0  0  0  0  0  0  0
   37.8696   23.5831   34.0830 H   0  0  0  0  0  0  0  0  0  0  0  0
   37.9245   27.4814   32.4494 H   0  0  0  0  0  0  0  0  0  0  0  0
   40.7606   24.8075   35.6177 H   0  0  0  0  0  0  0  0  0  0  0  0
   41.0760   21.4750   35.7285 H   0  0  0  0  0  0  0  0  0  0  0  0
   41.5638   21.9439   34.3399 H   0  0  0  0  0  0  0  0  0  0  0  0
   42.9082   23.1444   37.1385 H   0  0  0  0  0  0  0  0  0  0  0  0
   43.4576   23.4882   34.6187 H   0  0  0  0  0  0  0  0  0  0  0  0
   44.6035   23.7016   37.7076 H   0  0  0  0  0  0  0  0  0  0  0  0
   45.8039   23.6860   36.7309 H   0  0  0  0  0  0  0  0  0  0  0  0
   43.5288   26.0563   36.6051 H   0  0  0  0  0  0  0  0  0  0  0  0
   45.9221   24.6368   34.0436 H   0  0  0  0  0  0  0  0  0  0  0  0
   45.4557   28.8880   33.6013 H   0  0  0  0  0  0  0  0  0  0  0  0
   43.9543   28.0440   35.5464 H   0  0  0  0  0  0  0  0  0  0  0  0
  1  6  1  0
  1  2  1  0
  2  3  1  0
  3  4  1  0
  5  4  1  0
  6  5  2  0
  8  7  2  0
  8  1  1  0
  9  8  1  0
 10 11  1  0
 10  9  2  0
 11 12  2  0
 12  7  1  0
 13 15  1  0
 13  6  1  0
 14 13  1  0
 14 15  1  0
 16 18  1  0
 16 15  1  0
 16 17  1  0
 18 17  1  0
 19 18  1  0
 20 19  2  0
 21 22  2  0
 21 20  1  0
 22 23  1  0
 23 19  1  0
  2 24  1  0
  2 25  1  0
  3 26  1  0
  3 27  1  0
  4 28  1  0
  5 29  1  0
  7 30  1  0
  9 31  1  0
 11 32  1  0
 13 33  1  6
 14 34  1  0
 14 35  1  0
 15 36  1  1
 16 37  1  6
 17 38  1  0
 17 39  1  0
 18 40  1  1
 20 41  1  0
 22 42  1  0
 23 43  1  0
M  ISO  8  24  13  25  13  26  13  27  13  29  13  30  14  31  14  32  14
M  ISO  8  33  13  34  13  35  13  36  13  37  13  38  13  39  13  40  13
M  ISO  3  41  14  42  14  43   9
M  END
>  <minimizedAffinity>  (1) 
-5.13873148

>  <minimizedRMSD>  (1) 
8.13760853

$$$$
