
     RDKit          3D

 45 49  0  0  1  0  0  0  0  0999 V2000
   42.7180   24.8570   34.6660 N   0  0  0  0  0  0  0  0  0  0  0  0
   44.0910   24.8400   35.1760 C   0  0  0  0  0  0  0  0  0  0  0  0
   44.2150   24.2710   36.5590 C   0  0  0  0  0  0  0  0  0  0  0  0
   43.3820   23.1460   36.7010 N   0  0  0  0  0  0  0  0  0  0  0  0
   42.0080   23.1980   36.3230 C   0  0  0  0  0  0  0  0  0  0  0  0
   41.6820   24.1050   35.2400 C   0  0  0  0  0  0  0  0  0  0  0  0
   42.3490   25.2250   32.2450 C   0  0  0  0  0  0  0  0  0  0  0  0
   42.4240   25.6590   33.5720 C   0  0  0  0  0  0  0  0  0  0  0  0
   42.1680   27.0420   33.7630 C   0  0  0  0  0  0  0  0  0  0  0  0
   41.8760   27.8690   32.7340 N   0  0  0  0  0  0  0  0  0  0  0  0
   41.8210   27.3790   31.4840 C   0  0  0  0  0  0  0  0  0  0  0  0
   42.0530   26.0900   31.2500 N   0  0  0  0  0  0  0  0  0  0  0  0
   40.2640   24.0580   34.8740 C   0  0  2  0  0  0  0  0  0  0  0  0
   39.4830   25.2400   35.5210 C   0  0  0  0  0  0  0  0  0  0  0  0
   39.1380   23.7910   35.7200 C   0  0  1  0  0  0  0  0  0  0  0  0
   37.8450   23.2420   35.2070 C   0  0  2  0  0  0  0  0  0  0  0  0
   37.3630   21.9820   35.9740 C   0  0  0  0  0  0  0  0  0  0  0  0
   37.8440   21.9370   34.5560 C   0  0  1  0  0  0  0  0  0  0  0  0
   36.8640   21.5790   33.4760 C   0  0  0  0  0  0  0  0  0  0  0  0
   35.8240   20.6700   33.6800 C   0  0  0  0  0  0  0  0  0  0  0  0
   35.0160   20.4560   32.5830 C   0  0  0  0  0  0  0  0  0  0  0  0
   35.2580   21.1140   31.3940 C   0  0  0  0  0  0  0  0  0  0  0  0
   36.3010   22.0110   31.2220 C   0  0  0  0  0  0  0  0  0  0  0  0
   37.0790   22.2080   32.3070 N   0  0  0  0  0  0  0  0  0  0  0  0
   44.7067   24.2341   34.4950 H   0  0  0  0  0  0  0  0  0  0  0  0
   44.4270   25.8861   35.2280 H   0  0  0  0  0  0  0  0  0  0  0  0
   45.2591   23.9741   36.7369 H   0  0  0  0  0  0  0  0  0  0  0  0
   43.9109   25.0356   37.2890 H   0  0  0  0  0  0  0  0  0  0  0  0
   43.7703   22.2721   37.0836 H   0  0  0  0  0  0  0  0  0  0  0  0
   41.2419   22.5870   36.8228 H   0  0  0  0  0  0  0  0  0  0  0  0
   42.5332   24.1667   32.0082 H   0  0  0  0  0  0  0  0  0  0  0  0
   42.2085   27.4546   34.7819 H   0  0  0  0  0  0  0  0  0  0  0  0
   41.5818   28.0502   30.6460 H   0  0  0  0  0  0  0  0  0  0  0  0
   40.5096   23.5927   33.9080 H   0  0  0  0  0  0  0  0  0  0  0  0
   39.9292   25.8278   36.3367 H   0  0  0  0  0  0  0  0  0  0  0  0
   38.9666   26.1462   35.1715 H   0  0  0  0  0  0  0  0  0  0  0  0
   39.0137   23.1436   36.6006 H   0  0  0  0  0  0  0  0  0  0  0  0
   37.4396   24.2236   34.9206 H   0  0  0  0  0  0  0  0  0  0  0  0
   37.9727   21.5546   36.7837 H   0  0  0  0  0  0  0  0  0  0  0  0
   36.4536   21.6804   36.5144 H   0  0  0  0  0  0  0  0  0  0  0  0
   38.6263   21.3851   34.0143 H   0  0  0  0  0  0  0  0  0  0  0  0
   35.6615   20.1630   34.6426 H   0  0  0  0  0  0  0  0  0  0  0  0
   34.1715   19.7550   32.6562 H   0  0  0  0  0  0  0  0  0  0  0  0
   34.5910   20.9171   30.5417 H   0  0  0  0  0  0  0  0  0  0  0  0
   36.4819   22.5265   30.2672 H   0  0  0  0  0  0  0  0  0  0  0  0
  1  2  1  0
  1  6  1  0
  2  3  1  0
  3  4  1  0
  5  4  1  0
  6  5  2  0
  7  8  2  0
  8  9  1  0
  8  1  1  0
 10  9  2  0
 11 10  1  0
 12 11  2  0
 12  7  1  0
 13  6  1  0
 13 14  1  0
 13 15  1  0
 14 15  1  0
 16 15  1  0
 16 17  1  0
 18 16  1  0
 18 17  1  0
 19 20  2  0
 19 18  1  0
 21 20  1  0
 22 21  2  0
 23 22  1  0
 23 24  2  0
 24 19  1  0
  2 25  1  0
  2 26  1  0
  3 27  1  0
  3 28  1  0
  4 29  1  0
  5 30  1  0
  7 31  1  0
  9 32  1  0
 11 33  1  0
 13 34  1  6
 14 35  1  0
 14 36  1  0
 15 37  1  1
 16 38  1  6
 17 39  1  0
 17 40  1  0
 18 41  1  1
 20 42  1  0
 21 43  1  0
 22 44  1  0
 23 45  1  0
M  ISO  8  25  13  26  13  27  13  28  13  30  13  31  14  32  14  33  14
M  ISO  8  34  13  35  13  36  13  37  13  38  13  39  13  40  13  41  13
M  ISO  4  42  14  43  14  44  14  45  14
M  END
>  <minimizedAffinity>  (1) 
-4.61274195

>  <minimizedRMSD>  (1) 
4.10896921

$$$$
