
     RDKit          3D

 41 45  0  0  1  0  0  0  0  0999 V2000
   39.6490   24.4730   34.5250 N   0  0  0  0  0  0  0  0  0  0  0  0
   41.0900   24.7380   34.5360 C   0  0  0  0  0  0  0  0  0  0  0  0
   41.9280   23.5390   34.8160 C   0  0  0  0  0  0  0  0  0  0  0  0
   41.4030   22.3910   34.2060 N   0  0  0  0  0  0  0  0  0  0  0  0
   40.0280   22.0600   34.3270 C   0  0  0  0  0  0  0  0  0  0  0  0
   39.1150   23.1740   34.4860 C   0  0  0  0  0  0  0  0  0  0  0  0
   37.8620   25.8870   33.5610 C   0  0  0  0  0  0  0  0  0  0  0  0
   38.7730   25.5470   34.5650 C   0  0  0  0  0  0  0  0  0  0  0  0
   38.7610   26.3980   35.6960 C   0  0  0  0  0  0  0  0  0  0  0  0
   37.9270   27.4580   35.7870 N   0  0  0  0  0  0  0  0  0  0  0  0
   37.0760   27.7260   34.7830 C   0  0  0  0  0  0  0  0  0  0  0  0
   37.0480   26.9570   33.6980 N   0  0  0  0  0  0  0  0  0  0  0  0
   37.7150   22.7520   34.5380 C   0  0  2  0  0  0  0  0  0  0  0  0
   37.4180   21.9800   35.8600 C   0  0  0  0  0  0  0  0  0  0  0  0
   37.1930   21.4170   34.4820 C   0  0  1  0  0  0  0  0  0  0  0  0
   35.8150   21.1090   34.0060 C   0  0  2  0  0  0  0  0  0  0  0  0
   35.7340   19.9440   33.0080 C   0  0  0  0  0  0  0  0  0  0  0  0
   35.4440   21.3710   32.6310 C   0  0  2  0  0  0  0  0  0  0  0  0
   36.4190   22.0310   31.7290 C   0  0  0  0  0  0  0  0  0  0  0  0
   37.4730   21.5480   31.0600 N   0  0  0  0  0  0  0  0  0  0  0  0
   38.0840   22.4370   30.3740 O   0  0  0  0  0  0  0  0  0  0  0  0
   37.4560   23.5870   30.5540 C   0  0  0  0  0  0  0  0  0  0  0  0
   36.4340   23.3500   31.3830 N   0  0  0  0  0  0  0  0  0  0  0  0
   41.3753   25.1362   33.5511 H   0  0  0  0  0  0  0  0  0  0  0  0
   41.2745   25.4510   35.3530 H   0  0  0  0  0  0  0  0  0  0  0  0
   42.9436   23.7152   34.4318 H   0  0  0  0  0  0  0  0  0  0  0  0
   41.9435   23.3753   35.9036 H   0  0  0  0  0  0  0  0  0  0  0  0
   42.0255   21.7775   33.6609 H   0  0  0  0  0  0  0  0  0  0  0  0
   39.6759   21.0182   34.3015 H   0  0  0  0  0  0  0  0  0  0  0  0
   37.8069   25.2760   32.6479 H   0  0  0  0  0  0  0  0  0  0  0  0
   39.4517   26.1904   36.5266 H   0  0  0  0  0  0  0  0  0  0  0  0
   36.3970   28.5881   34.8586 H   0  0  0  0  0  0  0  0  0  0  0  0
   37.4060   23.6251   33.9445 H   0  0  0  0  0  0  0  0  0  0  0  0
   38.2398   21.6095   36.4904 H   0  0  0  0  0  0  0  0  0  0  0  0
   36.8174   22.1444   36.7668 H   0  0  0  0  0  0  0  0  0  0  0  0
   37.5324   20.5112   33.9582 H   0  0  0  0  0  0  0  0  0  0  0  0
   35.3535   21.3868   34.9651 H   0  0  0  0  0  0  0  0  0  0  0  0
   36.6494   19.4477   32.6534 H   0  0  0  0  0  0  0  0  0  0  0  0
   35.2038   18.9820   32.9492 H   0  0  0  0  0  0  0  0  0  0  0  0
   34.5926   21.8978   32.1754 H   0  0  0  0  0  0  0  0  0  0  0  0
   37.7238   24.5554   30.1063 H   0  0  0  0  0  0  0  0  0  0  0  0
  1  2  1  0
  1  8  1  0
  2  3  1  0
  4  5  1  0
  4  3  1  0
  5  6  2  0
  6  1  1  0
  6 13  1  0
  7 12  2  0
  7  8  1  0
  8  9  2  0
  9 10  1  0
 11 10  2  0
 12 11  1  0
 13 14  1  0
 15 13  1  0
 15 14  1  0
 16 15  1  0
 17 16  1  0
 18 17  1  0
 18 16  1  0
 19 18  1  0
 20 19  2  0
 21 22  1  0
 21 20  1  0
 22 23  2  0
 23 19  1  0
  2 24  1  0
  2 25  1  0
  3 26  1  0
  3 27  1  0
  4 28  1  0
  5 29  1  0
  7 30  1  0
  9 31  1  0
 11 32  1  0
 13 33  1  1
 14 34  1  0
 14 35  1  0
 15 36  1  6
 16 37  1  1
 17 38  1  0
 17 39  1  0
 18 40  1  1
 22 41  1  0
M  ISO  8  24  13  25  13  26  13  27  13  29  13  30  14  31  14  32  14
M  ISO  8  33  13  34  13  35  13  36  13  37  13  38  13  39  13  40  13
M  ISO  1  41  14
M  END
>  <minimizedAffinity>  (1) 
-4.45864964

>  <minimizedRMSD>  (1) 
0.821979523

$$$$
