
     RDKit          3D

 42 46  0  0  1  0  0  0  0  0999 V2000
   38.7650   24.2920   36.4540 N   0  0  0  0  0  0  0  0  0  0  0  0
   37.6700   24.2450   37.4290 C   0  0  0  0  0  0  0  0  0  0  0  0
   37.7090   23.0440   38.3230 C   0  0  0  0  0  0  0  0  0  0  0  0
   39.0300   22.7650   38.7130 N   0  0  0  0  0  0  0  0  0  0  0  0
   40.0710   22.6720   37.7440 C   0  0  0  0  0  0  0  0  0  0  0  0
   39.9150   23.4960   36.5610 C   0  0  0  0  0  0  0  0  0  0  0  0
   39.1320   26.4710   35.3420 C   0  0  0  0  0  0  0  0  0  0  0  0
   38.6610   25.1560   35.3720 C   0  0  0  0  0  0  0  0  0  0  0  0
   38.0330   24.7110   34.1800 C   0  0  0  0  0  0  0  0  0  0  0  0
   37.9030   25.5090   33.0950 N   0  0  0  0  0  0  0  0  0  0  0  0
   38.3800   26.7640   33.1330 C   0  0  0  0  0  0  0  0  0  0  0  0
   38.9760   27.2270   34.2300 N   0  0  0  0  0  0  0  0  0  0  0  0
   41.0550   23.3910   35.6440 C   0  0  2  0  0  0  0  0  0  0  0  0
   40.9610   22.1000   34.7830 C   0  0  0  0  0  0  0  0  0  0  0  0
   42.1240   22.4370   35.6740 C   0  0  1  0  0  0  0  0  0  0  0  0
   43.4710   22.6970   35.0810 C   0  0  2  0  0  0  0  0  0  0  0  0
   44.6400   22.4700   36.0750 C   0  0  0  0  0  0  0  0  0  0  0  0
   44.2530   23.8250   35.5700 C   0  0  1  0  0  0  0  0  0  0  0  0
   45.1150   24.4650   34.5660 N   0  0  0  0  0  0  0  0  0  0  0  0
   46.4490   24.5600   34.6720 C   0  0  0  0  0  0  0  0  0  0  0  0
   46.9260   25.2060   33.5750 N   0  0  0  0  0  0  0  0  0  0  0  0
   45.8480   25.5050   32.7950 C   0  0  0  0  0  0  0  0  0  0  0  0
   44.7520   25.0310   33.4430 N   0  0  0  0  0  0  0  0  0  0  0  0
   37.7253   25.1467   38.0566 H   0  0  0  0  0  0  0  0  0  0  0  0
   36.7326   24.1882   36.8562 H   0  0  0  0  0  0  0  0  0  0  0  0
   37.1005   23.2390   39.2184 H   0  0  0  0  0  0  0  0  0  0  0  0
   37.3090   22.1784   37.7746 H   0  0  0  0  0  0  0  0  0  0  0  0
   39.2482   22.6262   39.7100 H   0  0  0  0  0  0  0  0  0  0  0  0
   40.9412   22.0141   37.8851 H   0  0  0  0  0  0  0  0  0  0  0  0
   39.6318   26.8939   36.2259 H   0  0  0  0  0  0  0  0  0  0  0  0
   37.6393   23.6848   34.1366 H   0  0  0  0  0  0  0  0  0  0  0  0
   38.2776   27.4140   32.2515 H   0  0  0  0  0  0  0  0  0  0  0  0
   41.1255   24.4864   35.5730 H   0  0  0  0  0  0  0  0  0  0  0  0
   40.2619   21.2949   35.0533 H   0  0  0  0  0  0  0  0  0  0  0  0
   40.8097   21.8540   33.7216 H   0  0  0  0  0  0  0  0  0  0  0  0
   42.6335   21.9298   36.5066 H   0  0  0  0  0  0  0  0  0  0  0  0
   43.1853   22.3637   34.0724 H   0  0  0  0  0  0  0  0  0  0  0  0
   44.4381   22.1847   37.1180 H   0  0  0  0  0  0  0  0  0  0  0  0
   45.5568   21.8626   36.0980 H   0  0  0  0  0  0  0  0  0  0  0  0
   44.0194   24.7678   36.0863 H   0  0  0  0  0  0  0  0  0  0  0  0
   47.0554   24.1789   35.5069 H   0  0  0  0  0  0  0  0  0  0  0  0
   45.8630   26.0288   31.8279 H   0  0  0  0  0  0  0  0  0  0  0  0
  1  6  1  0
  1  2  1  0
  2  3  1  0
  3  4  1  0
  5  4  1  0
  6  5  2  0
  7  8  2  0
  8  1  1  0
  9  8  1  0
 10 11  1  0
 10  9  2  0
 11 12  2  0
 12  7  1  0
 13 15  1  0
 13  6  1  0
 14 13  1  0
 14 15  1  0
 16 18  1  0
 16 15  1  0
 16 17  1  0
 18 17  1  0
 19 20  1  0
 19 18  1  0
 21 20  2  0
 22 23  2  0
 22 21  1  0
 23 19  1  0
  2 24  1  0
  2 25  1  0
  3 26  1  0
  3 27  1  0
  4 28  1  0
  5 29  1  0
  7 30  1  0
  9 31  1  0
 11 32  1  0
 13 33  1  6
 14 34  1  0
 14 35  1  0
 15 36  1  1
 16 37  1  6
 17 38  1  0
 17 39  1  0
 18 40  1  1
 20 41  1  0
 22 42  1  0
M  ISO  8  24  13  25  13  26  13  27  13  29  13  30  14  31  14  32  14
M  ISO  8  33  13  34  13  35  13  36  13  37  13  38  13  39  13  40  13
M  ISO  2  41  14  42  14
M  END
>  <minimizedAffinity>  (1) 
-4.40905046

>  <minimizedRMSD>  (1) 
7.9813199

$$$$
