
     RDKit          3D

 43 47  0  0  1  0  0  0  0  0999 V2000
   39.7270   24.5060   34.6080 N   0  0  0  0  0  0  0  0  0  0  0  0
   41.1650   24.7740   34.6620 C   0  0  0  0  0  0  0  0  0  0  0  0
   41.9940   23.5820   35.0370 C   0  0  0  0  0  0  0  0  0  0  0  0
   41.4980   22.4240   34.4160 N   0  0  0  0  0  0  0  0  0  0  0  0
   40.1130   22.0870   34.4880 C   0  0  0  0  0  0  0  0  0  0  0  0
   39.1970   23.2060   34.5830 C   0  0  0  0  0  0  0  0  0  0  0  0
   38.0880   25.9850   33.4890 C   0  0  0  0  0  0  0  0  0  0  0  0
   38.8470   25.5780   34.5900 C   0  0  0  0  0  0  0  0  0  0  0  0
   38.6690   26.3570   35.7620 C   0  0  0  0  0  0  0  0  0  0  0  0
   37.8240   27.4120   35.8020 N   0  0  0  0  0  0  0  0  0  0  0  0
   37.1260   27.7460   34.7050 C   0  0  0  0  0  0  0  0  0  0  0  0
   37.2560   27.0480   33.5800 N   0  0  0  0  0  0  0  0  0  0  0  0
   37.7910   22.7830   34.6030 C   0  0  2  0  0  0  0  0  0  0  0  0
   37.4470   22.0800   35.9510 C   0  0  0  0  0  0  0  0  0  0  0  0
   37.2720   21.4460   34.5990 C   0  0  1  0  0  0  0  0  0  0  0  0
   35.9060   21.1070   34.0980 C   0  0  2  0  0  0  0  0  0  0  0  0
   35.9100   20.0150   32.9960 C   0  0  0  0  0  0  0  0  0  0  0  0
   35.5520   21.4500   32.7270 C   0  0  2  0  0  0  0  0  0  0  0  0
   36.4950   22.1110   31.7920 C   0  0  0  0  0  0  0  0  0  0  0  0
   36.3950   23.4330   31.3960 C   0  0  0  0  0  0  0  0  0  0  0  0
   37.4280   23.7550   30.5150 C   0  0  0  0  0  0  0  0  0  0  0  0
   38.1310   22.6140   30.3990 N   0  0  0  0  0  0  0  0  0  0  0  0
   37.5830   21.6690   31.1430 N   0  0  0  0  0  0  0  0  0  0  0  0
   41.4893   25.1227   33.6704 H   0  0  0  0  0  0  0  0  0  0  0  0
   41.3188   25.5284   35.4476 H   0  0  0  0  0  0  0  0  0  0  0  0
   43.0330   23.7481   34.7164 H   0  0  0  0  0  0  0  0  0  0  0  0
   41.9512   23.4473   36.1279 H   0  0  0  0  0  0  0  0  0  0  0  0
   42.1436   21.8086   33.9008 H   0  0  0  0  0  0  0  0  0  0  0  0
   39.7631   21.0443   34.4724 H   0  0  0  0  0  0  0  0  0  0  0  0
   38.1679   25.4357   32.5393 H   0  0  0  0  0  0  0  0  0  0  0  0
   39.2364   26.0946   36.6671 H   0  0  0  0  0  0  0  0  0  0  0  0
   36.4399   28.6052   34.7367 H   0  0  0  0  0  0  0  0  0  0  0  0
   37.5036   23.6224   33.9527 H   0  0  0  0  0  0  0  0  0  0  0  0
   38.2457   21.7447   36.6289 H   0  0  0  0  0  0  0  0  0  0  0  0
   36.8140   22.2900   36.8258 H   0  0  0  0  0  0  0  0  0  0  0  0
   37.6314   20.5172   34.1320 H   0  0  0  0  0  0  0  0  0  0  0  0
   35.4111   21.2843   35.0643 H   0  0  0  0  0  0  0  0  0  0  0  0
   36.8585   19.5977   32.6271 H   0  0  0  0  0  0  0  0  0  0  0  0
   35.4337   19.0349   32.8458 H   0  0  0  0  0  0  0  0  0  0  0  0
   34.6921   22.0231   32.3500 H   0  0  0  0  0  0  0  0  0  0  0  0
   35.6124   24.1309   31.7284 H   0  0  0  0  0  0  0  0  0  0  0  0
   37.6230   24.7212   30.0268 H   0  0  0  0  0  0  0  0  0  0  0  0
   38.9720   22.4945   29.8165 H   0  0  0  0  0  0  0  0  0  0  0  0
  1  2  1  0
  2  3  1  0
  4  5  1  0
  4  3  1  0
  5  6  2  0
  6 13  1  0
  6  1  1  0
  7 12  2  0
  7  8  1  0
  8  1  1  0
  8  9  2  0
  9 10  1  0
 11 10  2  0
 12 11  1  0
 13 14  1  0
 15 13  1  0
 15 14  1  0
 16 15  1  0
 17 16  1  0
 18 17  1  0
 18 16  1  0
 19 18  1  0
 20 19  1  0
 21 20  2  0
 22 21  1  0
 22 23  1  0
 23 19  2  0
  2 24  1  0
  2 25  1  0
  3 26  1  0
  3 27  1  0
  4 28  1  0
  5 29  1  0
  7 30  1  0
  9 31  1  0
 11 32  1  0
 13 33  1  6
 14 34  1  0
 14 35  1  0
 15 36  1  1
 16 37  1  1
 17 38  1  0
 17 39  1  0
 18 40  1  1
 20 41  1  0
 21 42  1  0
 22 43  1  0
M  ISO  8  24  13  25  13  26  13  27  13  29  13  30  14  31  14  32  14
M  ISO  8  33  13  34  13  35  13  36  13  37  13  38  13  39  13  40  13
M  ISO  3  41  14  42  14  43   9
M  END
>  <minimizedAffinity>  (1) 
-4.39387989

>  <minimizedRMSD>  (1) 
0.991777539

$$$$
