
     RDKit          3D

 43 47  0  0  1  0  0  0  0  0999 V2000
   39.6150   24.5520   34.4050 N   0  0  0  0  0  0  0  0  0  0  0  0
   41.0460   24.8290   34.2520 C   0  0  0  0  0  0  0  0  0  0  0  0
   41.9290   23.6650   34.5980 C   0  0  0  0  0  0  0  0  0  0  0  0
   41.3750   22.4710   34.1100 N   0  0  0  0  0  0  0  0  0  0  0  0
   40.0140   22.1340   34.3700 C   0  0  0  0  0  0  0  0  0  0  0  0
   39.1010   23.2530   34.5170 C   0  0  0  0  0  0  0  0  0  0  0  0
   37.8200   25.9570   33.4430 C   0  0  0  0  0  0  0  0  0  0  0  0
   38.7280   25.6170   34.4510 C   0  0  0  0  0  0  0  0  0  0  0  0
   38.6990   26.4620   35.5900 C   0  0  0  0  0  0  0  0  0  0  0  0
   37.8540   27.5120   35.6840 N   0  0  0  0  0  0  0  0  0  0  0  0
   37.0080   27.7800   34.6770 C   0  0  0  0  0  0  0  0  0  0  0  0
   36.9950   27.0170   33.5860 N   0  0  0  0  0  0  0  0  0  0  0  0
   37.7140   22.8200   34.7310 C   0  0  2  0  0  0  0  0  0  0  0  0
   37.5120   22.3020   36.1860 C   0  0  0  0  0  0  0  0  0  0  0  0
   37.2270   21.4900   34.9540 C   0  0  1  0  0  0  0  0  0  0  0  0
   35.8280   21.0760   34.6260 C   0  0  2  0  0  0  0  0  0  0  0  0
   35.7560   19.7680   33.7920 C   0  0  0  0  0  0  0  0  0  0  0  0
   35.3890   21.1160   33.2370 C   0  0  2  0  0  0  0  0  0  0  0  0
   36.3290   21.5370   32.1090 C   0  0  0  0  0  0  0  0  0  0  0  0
   36.1860   22.8460   31.4400 C   0  0  0  0  0  0  0  0  0  0  0  0
   35.5820   21.6600   30.7560 C   0  0  0  0  0  0  0  0  0  0  0  0
   41.2351   25.1086   33.2051 H   0  0  0  0  0  0  0  0  0  0  0  0
   41.2926   25.6383   34.9551 H   0  0  0  0  0  0  0  0  0  0  0  0
   42.9210   23.8155   34.1472 H   0  0  0  0  0  0  0  0  0  0  0  0
   42.0186   23.5968   35.6922 H   0  0  0  0  0  0  0  0  0  0  0  0
   41.9600   21.8291   33.5562 H   0  0  0  0  0  0  0  0  0  0  0  0
   39.6767   21.0904   34.4540 H   0  0  0  0  0  0  0  0  0  0  0  0
   37.7772   25.3546   32.5236 H   0  0  0  0  0  0  0  0  0  0  0  0
   39.3866   26.2558   36.4235 H   0  0  0  0  0  0  0  0  0  0  0  0
   36.3209   28.6356   34.7536 H   0  0  0  0  0  0  0  0  0  0  0  0
   37.3489   23.5619   34.0055 H   0  0  0  0  0  0  0  0  0  0  0  0
   38.3773   22.0690   36.8239 H   0  0  0  0  0  0  0  0  0  0  0  0
   36.9581   22.6218   37.0809 H   0  0  0  0  0  0  0  0  0  0  0  0
   37.5618   20.5084   34.5873 H   0  0  0  0  0  0  0  0  0  0  0  0
   35.3969   21.4705   35.5579 H   0  0  0  0  0  0  0  0  0  0  0  0
   36.6769   19.2620   33.4664 H   0  0  0  0  0  0  0  0  0  0  0  0
   35.2661   18.7880   33.8902 H   0  0  0  0  0  0  0  0  0  0  0  0
   34.5098   21.6073   32.7947 H   0  0  0  0  0  0  0  0  0  0  0  0
   37.2053   21.0306   32.5399 H   0  0  0  0  0  0  0  0  0  0  0  0
   35.5289   23.6106   31.8801 H   0  0  0  0  0  0  0  0  0  0  0  0
   36.8997   23.6225   31.1275 H   0  0  0  0  0  0  0  0  0  0  0  0
   34.4894   21.5410   30.7118 H   0  0  0  0  0  0  0  0  0  0  0  0
   35.6651   21.1941   29.7630 H   0  0  0  0  0  0  0  0  0  0  0  0
  1  8  1  0
  1  6  1  0
  2  1  1  0
  2  3  1  0
  4  5  1  0
  4  3  1  0
  5  6  2  0
  6 13  1  0
  7 12  2  0
  7  8  1  0
  8  9  2  0
  9 10  1  0
 11 10  2  0
 12 11  1  0
 13 15  1  0
 13 14  1  0
 15 14  1  0
 16 15  1  0
 17 16  1  0
 18 17  1  0
 18 16  1  0
 19 18  1  0
 20 19  1  0
 21 20  1  0
 21 19  1  0
  2 22  1  0
  2 23  1  0
  3 24  1  0
  3 25  1  0
  4 26  1  0
  5 27  1  0
  7 28  1  0
  9 29  1  0
 11 30  1  0
 13 31  1  6
 14 32  1  0
 14 33  1  0
 15 34  1  1
 16 35  1  1
 17 36  1  0
 17 37  1  0
 18 38  1  1
 19 39  1  0
 20 40  1  0
 20 41  1  0
 21 42  1  0
 21 43  1  0
M  ISO  8  22  13  23  13  24  13  25  13  27  13  28  14  29  14  30  14
M  ISO  8  31  13  32  13  33  13  34  13  35  13  36  13  37  13  38  13
M  ISO  5  39  13  40  13  41  13  42  13  43  13
M  END
>  <minimizedAffinity>  (1) 
-4.07471561

>  <minimizedRMSD>  (1) 
0.855322957

$$$$
