
     RDKit          3D

 43 47  0  0  1  0  0  0  0  0999 V2000
   39.9040   24.4430   34.5760 N   0  0  0  0  0  0  0  0  0  0  0  0
   41.3500   24.6540   34.6370 C   0  0  0  0  0  0  0  0  0  0  0  0
   42.1380   23.4150   34.8940 C   0  0  0  0  0  0  0  0  0  0  0  0
   41.5960   22.3170   34.2160 N   0  0  0  0  0  0  0  0  0  0  0  0
   40.2010   22.0280   34.2730 C   0  0  0  0  0  0  0  0  0  0  0  0
   39.3250   23.1670   34.4570 C   0  0  0  0  0  0  0  0  0  0  0  0
   38.4530   26.1740   33.5630 C   0  0  0  0  0  0  0  0  0  0  0  0
   39.0630   25.5430   34.6500 C   0  0  0  0  0  0  0  0  0  0  0  0
   38.7660   26.1160   35.9150 C   0  0  0  0  0  0  0  0  0  0  0  0
   37.9520   27.1900   36.0440 N   0  0  0  0  0  0  0  0  0  0  0  0
   37.4020   27.7410   34.9510 C   0  0  0  0  0  0  0  0  0  0  0  0
   37.6480   27.2430   33.7420 N   0  0  0  0  0  0  0  0  0  0  0  0
   37.9100   22.7960   34.4480 C   0  0  2  0  0  0  0  0  0  0  0  0
   37.5130   22.0820   35.7720 C   0  0  0  0  0  0  0  0  0  0  0  0
   37.3480   21.4790   34.4030 C   0  0  1  0  0  0  0  0  0  0  0  0
   35.9950   21.1970   33.8500 C   0  0  2  0  0  0  0  0  0  0  0  0
   35.9270   20.0570   32.8360 C   0  0  0  0  0  0  0  0  0  0  0  0
   35.6900   21.4910   32.4660 C   0  0  2  0  0  0  0  0  0  0  0  0
   36.7040   22.0710   31.5610 C   0  0  0  0  0  0  0  0  0  0  0  0
   37.7370   21.3640   30.9730 C   0  0  0  0  0  0  0  0  0  0  0  0
   38.6220   22.0390   30.1830 C   0  0  0  0  0  0  0  0  0  0  0  0
   38.4530   23.3970   30.0000 C   0  0  0  0  0  0  0  0  0  0  0  0
   36.9760   23.7770   30.9840 S   0  0  0  0  0  0  0  0  0  0  0  0
   41.6776   25.0781   33.6764 H   0  0  0  0  0  0  0  0  0  0  0  0
   41.5355   25.3284   35.4860 H   0  0  0  0  0  0  0  0  0  0  0  0
   43.1723   23.5712   34.5536 H   0  0  0  0  0  0  0  0  0  0  0  0
   42.1108   23.2042   35.9733 H   0  0  0  0  0  0  0  0  0  0  0  0
   42.2165   21.7063   33.6656 H   0  0  0  0  0  0  0  0  0  0  0  0
   39.8135   21.0025   34.1827 H   0  0  0  0  0  0  0  0  0  0  0  0
   38.6312   25.7942   32.5461 H   0  0  0  0  0  0  0  0  0  0  0  0
   39.2113   25.6733   36.8182 H   0  0  0  0  0  0  0  0  0  0  0  0
   36.7407   28.6137   35.0557 H   0  0  0  0  0  0  0  0  0  0  0  0
   37.6642   23.6602   33.8134 H   0  0  0  0  0  0  0  0  0  0  0  0
   38.2845   21.7076   36.4610 H   0  0  0  0  0  0  0  0  0  0  0  0
   36.8676   22.2970   36.6364 H   0  0  0  0  0  0  0  0  0  0  0  0
   37.6847   20.5438   33.9318 H   0  0  0  0  0  0  0  0  0  0  0  0
   35.5002   21.4649   34.7952 H   0  0  0  0  0  0  0  0  0  0  0  0
   36.8439   19.5419   32.5135 H   0  0  0  0  0  0  0  0  0  0  0  0
   35.3748   19.1104   32.7409 H   0  0  0  0  0  0  0  0  0  0  0  0
   34.8794   22.0801   32.0123 H   0  0  0  0  0  0  0  0  0  0  0  0
   37.8430   20.2817   31.1383 H   0  0  0  0  0  0  0  0  0  0  0  0
   39.4565   21.5096   29.6999 H   0  0  0  0  0  0  0  0  0  0  0  0
   39.0673   24.0849   29.4005 H   0  0  0  0  0  0  0  0  0  0  0  0
  1  2  1  0
  1  8  1  0
  2  3  1  0
  4  5  1  0
  4  3  1  0
  5  6  2  0
  6  1  1  0
  7 12  2  0
  7  8  1  0
  8  9  2  0
  9 10  1  0
 11 10  2  0
 12 11  1  0
 13  6  1  0
 13 14  1  0
 15 13  1  0
 15 14  1  0
 16 15  1  0
 17 16  1  0
 18 17  1  0
 18 16  1  0
 19 18  1  0
 20 19  2  0
 21 20  1  0
 22 21  2  0
 22 23  1  0
 23 19  1  0
  2 24  1  0
  2 25  1  0
  3 26  1  0
  3 27  1  0
  4 28  1  0
  5 29  1  0
  7 30  1  0
  9 31  1  0
 11 32  1  0
 13 33  1  6
 14 34  1  0
 14 35  1  0
 15 36  1  1
 16 37  1  1
 17 38  1  0
 17 39  1  0
 18 40  1  1
 20 41  1  0
 21 42  1  0
 22 43  1  0
M  ISO  8  24  13  25  13  26  13  27  13  29  13  30  14  31  14  32  14
M  ISO  8  33  13  34  13  35  13  36  13  37  13  38  13  39  13  40  13
M  ISO  3  41  14  42  14  43  14
M  END
>  <minimizedAffinity>  (1) 
-4.2258811

>  <minimizedRMSD>  (1) 
0.949300885

$$$$
