
     RDKit          3D

 42 46  0  0  1  0  0  0  0  0999 V2000
   42.7680   24.9560   34.6200 N   0  0  0  0  0  0  0  0  0  0  0  0
   44.1340   24.9850   35.1540 C   0  0  0  0  0  0  0  0  0  0  0  0
   44.2400   24.4450   36.5530 C   0  0  0  0  0  0  0  0  0  0  0  0
   43.4470   23.2880   36.6820 N   0  0  0  0  0  0  0  0  0  0  0  0
   42.0750   23.3060   36.2920 C   0  0  0  0  0  0  0  0  0  0  0  0
   41.7420   24.1930   35.1920 C   0  0  0  0  0  0  0  0  0  0  0  0
   42.3980   25.2500   32.1910 C   0  0  0  0  0  0  0  0  0  0  0  0
   42.4710   25.7270   33.5030 C   0  0  0  0  0  0  0  0  0  0  0  0
   42.2130   27.1130   33.6520 C   0  0  0  0  0  0  0  0  0  0  0  0
   41.9180   27.9080   32.5970 N   0  0  0  0  0  0  0  0  0  0  0  0
   41.8660   27.3810   31.3630 C   0  0  0  0  0  0  0  0  0  0  0  0
   42.0990   26.0850   31.1710 N   0  0  0  0  0  0  0  0  0  0  0  0
   40.3290   24.1090   34.8140 C   0  0  2  0  0  0  0  0  0  0  0  0
   39.5230   25.3050   35.4030 C   0  0  0  0  0  0  0  0  0  0  0  0
   39.1980   23.8600   35.6590 C   0  0  1  0  0  0  0  0  0  0  0  0
   37.9190   23.2740   35.1550 C   0  0  2  0  0  0  0  0  0  0  0  0
   37.4360   22.0500   35.9740 C   0  0  0  0  0  0  0  0  0  0  0  0
   37.9530   21.9260   34.5750 C   0  0  1  0  0  0  0  0  0  0  0  0
   36.9550   21.6830   33.4710 C   0  0  0  0  0  0  0  0  0  0  0  0
   35.8930   20.7610   33.6690 C   0  0  0  0  0  0  0  0  0  0  0  0
   35.0050   20.8340   32.0850 S   0  0  0  0  0  0  0  0  0  0  0  0
   36.2330   22.1160   31.4050 C   0  0  0  0  0  0  0  0  0  0  0  0
   37.0830   22.3410   32.3110 N   0  0  0  0  0  0  0  0  0  0  0  0
   44.7778   24.3812   34.4975 H   0  0  0  0  0  0  0  0  0  0  0  0
   44.4468   26.0390   35.1883 H   0  0  0  0  0  0  0  0  0  0  0  0
   45.2891   24.1940   36.7685 H   0  0  0  0  0  0  0  0  0  0  0  0
   43.8865   25.2072   37.2630 H   0  0  0  0  0  0  0  0  0  0  0  0
   43.8603   22.4237   37.0602 H   0  0  0  0  0  0  0  0  0  0  0  0
   41.3168   22.6866   36.7934 H   0  0  0  0  0  0  0  0  0  0  0  0
   42.5856   24.1855   31.9869 H   0  0  0  0  0  0  0  0  0  0  0  0
   42.2539   27.5568   34.6577 H   0  0  0  0  0  0  0  0  0  0  0  0
   41.6289   28.0258   30.5039 H   0  0  0  0  0  0  0  0  0  0  0  0
   40.5921   23.6077   33.8709 H   0  0  0  0  0  0  0  0  0  0  0  0
   39.9514   25.9332   36.1979 H   0  0  0  0  0  0  0  0  0  0  0  0
   38.9967   26.1876   35.0106 H   0  0  0  0  0  0  0  0  0  0  0  0
   39.0748   23.2471   36.5641 H   0  0  0  0  0  0  0  0  0  0  0  0
   37.5052   24.2337   34.8118 H   0  0  0  0  0  0  0  0  0  0  0  0
   38.0300   21.6782   36.8219 H   0  0  0  0  0  0  0  0  0  0  0  0
   36.5160   21.7665   36.5061 H   0  0  0  0  0  0  0  0  0  0  0  0
   38.7306   21.2921   34.1239 H   0  0  0  0  0  0  0  0  0  0  0  0
   35.6651   20.1548   34.5581 H   0  0  0  0  0  0  0  0  0  0  0  0
   36.2077   22.5767   30.4065 H   0  0  0  0  0  0  0  0  0  0  0  0
  1  2  1  0
  1  6  1  0
  2  3  1  0
  3  4  1  0
  5  4  1  0
  6  5  2  0
  7  8  2  0
  8  9  1  0
  8  1  1  0
 10  9  2  0
 11 10  1  0
 12 11  2  0
 12  7  1  0
 13  6  1  0
 13 14  1  0
 13 15  1  0
 14 15  1  0
 16 15  1  0
 16 17  1  0
 18 16  1  0
 18 17  1  0
 19 20  2  0
 19 18  1  0
 21 20  1  0
 22 21  1  0
 22 23  2  0
 23 19  1  0
  2 24  1  0
  2 25  1  0
  3 26  1  0
  3 27  1  0
  4 28  1  0
  5 29  1  0
  7 30  1  0
  9 31  1  0
 11 32  1  0
 13 33  1  6
 14 34  1  0
 14 35  1  0
 15 36  1  1
 16 37  1  6
 17 38  1  0
 17 39  1  0
 18 40  1  1
 20 41  1  0
 22 42  1  0
M  ISO  8  24  13  25  13  26  13  27  13  29  13  30  14  31  14  32  14
M  ISO  8  33  13  34  13  35  13  36  13  37  13  38  13  39  13  40  13
M  ISO  2  41  14  42  14
M  END
>  <minimizedAffinity>  (1) 
-4.09340858

>  <minimizedRMSD>  (1) 
4.15202332

$$$$
