
     RDKit          3D

 27 29  0  0  0  0  0  0  0  0999 V2000
   40.7860   21.9540   36.3360 C   0  0  0  0  0  0  0  0  0  0  0  0
   40.1480   22.4320   37.5220 C   0  0  0  0  0  0  0  0  0  0  0  0
   38.9810   23.1510   37.3140 C   0  0  0  0  0  0  0  0  0  0  0  0
   38.5630   23.3290   36.0540 N   0  0  0  0  0  0  0  0  0  0  0  0
   39.1760   22.8720   34.9470 C   0  0  0  0  0  0  0  0  0  0  0  0
   40.2970   22.1810   35.1260 N   0  0  0  0  0  0  0  0  0  0  0  0
   38.4090   23.2750   33.7560 C   0  0  0  0  0  0  0  0  0  0  0  0
   38.6570   24.3480   32.9990 N   0  0  0  0  0  0  0  0  0  0  0  0
   37.9480   24.6890   31.9260 C   0  0  0  0  0  0  0  0  0  0  0  0
   36.8970   23.9760   31.4900 N   0  0  0  0  0  0  0  0  0  0  0  0
   36.5750   22.8680   32.2000 C   0  0  0  0  0  0  0  0  0  0  0  0
   35.4950   22.1600   31.7290 C   0  0  0  0  0  0  0  0  0  0  0  0
   35.1140   21.0250   32.4020 C   0  0  0  0  0  0  0  0  0  0  0  0
   35.8440   20.6500   33.5300 C   0  0  0  0  0  0  0  0  0  0  0  0
   36.9030   21.4120   33.9280 C   0  0  0  0  0  0  0  0  0  0  0  0
   37.3400   22.5590   33.3030 C   0  0  0  0  0  0  0  0  0  0  0  0
   38.3200   23.6480   38.5270 C   0  0  0  0  0  0  0  0  0  0  0  0
   37.8490   24.9310   38.3070 F   0  0  0  0  0  0  0  0  0  0  0  0
   39.3320   23.7750   39.4810 F   0  0  0  0  0  0  0  0  0  0  0  0
   37.2770   22.8880   38.9460 F   0  0  0  0  0  0  0  0  0  0  0  0
   41.7173   21.3764   36.4313 H   0  0  0  0  0  0  0  0  0  0  0  0
   40.5534   22.2432   38.5270 H   0  0  0  0  0  0  0  0  0  0  0  0
   38.2354   25.5947   31.3718 H   0  0  0  0  0  0  0  0  0  0  0  0
   34.9490   22.4944   30.8346 H   0  0  0  0  0  0  0  0  0  0  0  0
   34.2559   20.4275   32.0605 H   0  0  0  0  0  0  0  0  0  0  0  0
   35.5678   19.7469   34.0941 H   0  0  0  0  0  0  0  0  0  0  0  0
   37.4535   21.0834   34.8219 H   0  0  0  0  0  0  0  0  0  0  0  0
  1  2  2  0
  3  2  1  0
  3 17  1  0
  4  3  2  0
  5  6  2  0
  5  4  1  0
  6  1  1  0
  7  5  1  0
  8  7  2  0
  9  8  1  0
 10  9  2  0
 10 11  1  0
 11 16  2  0
 12 11  1  0
 12 13  2  0
 13 14  1  0
 14 15  2  0
 16  7  1  0
 16 15  1  0
 17 20  1  0
 17 19  1  0
 18 17  1  0
  1 21  1  0
  2 22  1  0
  9 23  1  0
 12 24  1  0
 13 25  1  0
 14 26  1  0
 15 27  1  0
M  ISO  7  21  14  22  14  23  14  24  14  25  14  26  14  27  14
M  END
>  <minimizedAffinity>  (1) 
-5.94119406

>  <minimizedRMSD>  (1) 
0.945491493

$$$$
