
     RDKit          3D

 37 40  0  0  1  0  0  0  0  0999 V2000
   39.6290   24.1640   33.8070 N   0  0  0  0  0  0  0  0  0  0  0  0
   41.0700   24.3740   33.6320 C   0  0  0  0  0  0  0  0  0  0  0  0
   41.8680   23.1080   33.5720 C   0  0  0  0  0  0  0  0  0  0  0  0
   41.1850   22.1310   32.8240 N   0  0  0  0  0  0  0  0  0  0  0  0
   39.8200   21.8250   33.0990 C   0  0  0  0  0  0  0  0  0  0  0  0
   39.0170   22.9170   33.6130 C   0  0  0  0  0  0  0  0  0  0  0  0
   37.9900   25.9560   33.3440 C   0  0  0  0  0  0  0  0  0  0  0  0
   38.8380   25.2360   34.1900 C   0  0  0  0  0  0  0  0  0  0  0  0
   38.8570   25.6740   35.5370 C   0  0  0  0  0  0  0  0  0  0  0  0
   38.1090   26.7140   35.9670 N   0  0  0  0  0  0  0  0  0  0  0  0
   37.3130   27.3630   35.0990 C   0  0  0  0  0  0  0  0  0  0  0  0
   37.2590   26.9900   33.8230 N   0  0  0  0  0  0  0  0  0  0  0  0
   37.6130   22.5390   33.8200 C   0  0  2  0  0  0  0  0  0  0  0  0
   37.4220   21.8740   35.2160 C   0  0  0  0  0  0  0  0  0  0  0  0
   37.0650   21.2160   33.9130 C   0  0  1  0  0  0  0  0  0  0  0  0
   35.6380   20.9030   33.5940 C   0  0  2  0  0  0  0  0  0  0  0  0
   35.4300   19.4520   33.0790 C   0  0  0  0  0  0  0  0  0  0  0  0
   35.2580   20.6660   32.2100 C   0  0  2  0  0  0  0  0  0  0  0  0
   36.2690   20.7920   31.2380 O   0  0  0  0  0  0  0  0  0  0  0  0
   41.2275   24.9267   32.6941 H   0  0  0  0  0  0  0  0  0  0  0  0
   41.4200   24.9288   34.5150 H   0  0  0  0  0  0  0  0  0  0  0  0
   42.8389   23.3140   33.0978 H   0  0  0  0  0  0  0  0  0  0  0  0
   42.0182   22.7328   34.5951 H   0  0  0  0  0  0  0  0  0  0  0  0
   41.6768   21.6314   32.0694 H   0  0  0  0  0  0  0  0  0  0  0  0
   39.4017   20.8216   32.9314 H   0  0  0  0  0  0  0  0  0  0  0  0
   37.9160   25.6807   32.2816 H   0  0  0  0  0  0  0  0  0  0  0  0
   39.5024   25.1499   36.2572 H   0  0  0  0  0  0  0  0  0  0  0  0
   36.7017   28.2089   35.4466 H   0  0  0  0  0  0  0  0  0  0  0  0
   37.2676   23.3740   33.1927 H   0  0  0  0  0  0  0  0  0  0  0  0
   38.2904   21.5317   35.7980 H   0  0  0  0  0  0  0  0  0  0  0  0
   36.9077   22.1197   36.1568 H   0  0  0  0  0  0  0  0  0  0  0  0
   37.3409   20.2681   33.4278 H   0  0  0  0  0  0  0  0  0  0  0  0
   35.2274   21.5547   34.3793 H   0  0  0  0  0  0  0  0  0  0  0  0
   36.2899   18.7809   32.9373 H   0  0  0  0  0  0  0  0  0  0  0  0
   34.8165   18.5855   33.3666 H   0  0  0  0  0  0  0  0  0  0  0  0
   34.4486   21.0770   31.5888 H   0  0  0  0  0  0  0  0  0  0  0  0
   37.1453   20.9012   31.6855 H   0  0  0  0  0  0  0  0  0  0  0  0
  1  8  1  0
  2  1  1  0
  3  2  1  0
  4  5  1  0
  4  3  1  0
  5  6  2  0
  6  1  1  0
  6 13  1  0
  7 12  2  0
  7  8  1  0
  8  9  2  0
  9 10  1  0
 11 10  2  0
 12 11  1  0
 13 15  1  0
 13 14  1  0
 15 14  1  0
 16 15  1  0
 17 16  1  0
 18 17  1  0
 18 16  1  0
 19 18  1  0
  2 20  1  0
  2 21  1  0
  3 22  1  0
  3 23  1  0
  4 24  1  0
  5 25  1  0
  7 26  1  0
  9 27  1  0
 11 28  1  0
 13 29  1  1
 14 30  1  0
 14 31  1  0
 15 32  1  6
 16 33  1  1
 17 34  1  0
 17 35  1  0
 18 36  1  6
 19 37  1  0
M  ISO  8  20  13  21  13  22  13  23  13  25  13  26  14  27  14  28  14
M  ISO  8  29  13  30  13  31  13  32  13  33  13  34  13  35  13  36  13
M  ISO  1  37   3
M  END
>  <minimizedAffinity>  (1) 
-3.72849154

>  <minimizedRMSD>  (1) 
0.261219174

$$$$
