
     RDKit          3D

 39 42  0  0  1  0  0  0  0  0999 V2000
   39.4470   24.3610   33.3460 N   0  0  0  0  0  0  0  0  0  0  0  0
   40.8080   24.6570   32.9000 C   0  0  0  0  0  0  0  0  0  0  0  0
   41.6670   23.4380   32.7200 C   0  0  0  0  0  0  0  0  0  0  0  0
   40.9250   22.4030   32.1240 N   0  0  0  0  0  0  0  0  0  0  0  0
   39.6540   22.0220   32.6400 C   0  0  0  0  0  0  0  0  0  0  0  0
   38.8840   23.0760   33.2760 C   0  0  0  0  0  0  0  0  0  0  0  0
   37.6970   26.1040   33.1750 C   0  0  0  0  0  0  0  0  0  0  0  0
   38.6750   25.3870   33.8700 C   0  0  0  0  0  0  0  0  0  0  0  0
   38.8520   25.7810   35.2220 C   0  0  0  0  0  0  0  0  0  0  0  0
   38.1280   26.7740   35.7850 N   0  0  0  0  0  0  0  0  0  0  0  0
   37.2050   27.4190   35.0550 C   0  0  0  0  0  0  0  0  0  0  0  0
   36.9990   27.0900   33.7820 N   0  0  0  0  0  0  0  0  0  0  0  0
   37.5650   22.6160   33.7220 C   0  0  2  0  0  0  0  0  0  0  0  0
   37.6470   21.9880   35.1430 C   0  0  0  0  0  0  0  0  0  0  0  0
   37.1260   21.2670   33.9300 C   0  0  1  0  0  0  0  0  0  0  0  0
   35.6930   20.8560   33.8610 C   0  0  2  0  0  0  0  0  0  0  0  0
   35.4790   19.4830   33.1640 C   0  0  0  0  0  0  0  0  0  0  0  0
   35.0290   20.7910   32.5720 C   0  0  2  0  0  0  0  0  0  0  0  0
   35.6730   21.1280   31.2780 C   0  0  0  0  0  0  0  0  0  0  0  0
   35.5570   22.3290   30.8540 O   0  0  0  0  0  0  0  0  0  0  0  0
   36.3990   20.2750   30.4610 O   0  0  0  0  0  0  0  0  0  0  0  0
   40.7499   25.1853   31.9369 H   0  0  0  0  0  0  0  0  0  0  0  0
   41.2772   25.2655   33.6871 H   0  0  0  0  0  0  0  0  0  0  0  0
   42.5227   23.6887   32.0758 H   0  0  0  0  0  0  0  0  0  0  0  0
   42.0232   23.1021   33.7050 H   0  0  0  0  0  0  0  0  0  0  0  0
   41.3066   21.9133   31.3021 H   0  0  0  0  0  0  0  0  0  0  0  0
   39.2780   20.9913   32.5616 H   0  0  0  0  0  0  0  0  0  0  0  0
   37.4927   25.8631   32.1213 H   0  0  0  0  0  0  0  0  0  0  0  0
   39.6043   25.2603   35.8327 H   0  0  0  0  0  0  0  0  0  0  0  0
   36.6140   28.2261   35.5125 H   0  0  0  0  0  0  0  0  0  0  0  0
   37.0685   23.4082   33.1423 H   0  0  0  0  0  0  0  0  0  0  0  0
   38.6188   21.7180   35.5819 H   0  0  0  0  0  0  0  0  0  0  0  0
   37.2777   22.2328   36.1498 H   0  0  0  0  0  0  0  0  0  0  0  0
   37.3794   20.3241   33.4234 H   0  0  0  0  0  0  0  0  0  0  0  0
   35.4237   21.3374   34.8127 H   0  0  0  0  0  0  0  0  0  0  0  0
   36.3302   18.9369   32.7314 H   0  0  0  0  0  0  0  0  0  0  0  0
   35.0105   18.5220   33.4229 H   0  0  0  0  0  0  0  0  0  0  0  0
   34.0893   21.2626   32.2486 H   0  0  0  0  0  0  0  0  0  0  0  0
   36.7859   20.6111   29.6140 H   0  0  0  0  0  0  0  0  0  0  0  0
  1  8  1  0
  2  1  1  0
  3  2  1  0
  4  5  1  0
  4  3  1  0
  5  6  2  0
  6  1  1  0
  6 13  1  0
  7 12  2  0
  7  8  1  0
  8  9  2  0
  9 10  1  0
 11 10  2  0
 12 11  1  0
 13 15  1  0
 13 14  1  0
 15 14  1  0
 16 15  1  0
 17 16  1  0
 18 17  1  0
 18 16  1  0
 19 18  1  0
 20 19  2  0
 21 19  1  0
  2 22  1  0
  2 23  1  0
  3 24  1  0
  3 25  1  0
  4 26  1  0
  5 27  1  0
  7 28  1  0
  9 29  1  0
 11 30  1  0
 13 31  1  1
 14 32  1  0
 14 33  1  0
 15 34  1  6
 16 35  1  1
 17 36  1  0
 17 37  1  0
 18 38  1  1
 21 39  1  0
M  ISO  8  22  13  23  13  24  13  25  13  27  13  28  14  29  14  30  14
M  ISO  8  31  13  32  13  33  13  34  13  35  13  36  13  37  13  38  13
M  ISO  1  39   3
M  END
>  <minimizedAffinity>  (1) 
-4.20180035

>  <minimizedRMSD>  (1) 
0.665846705

$$$$
