
     RDKit          3D

 27 29  0  0  0  0  0  0  0  0999 V2000
   40.6340   22.1620   36.0430 C   0  0  0  0  0  0  0  0  0  0  0  0
   40.0900   22.6240   37.2750 C   0  0  0  0  0  0  0  0  0  0  0  0
   38.7930   23.1440   37.2260 C   0  0  0  0  0  0  0  0  0  0  0  0
   38.1400   23.1780   36.0390 N   0  0  0  0  0  0  0  0  0  0  0  0
   38.7080   22.7240   34.8940 C   0  0  0  0  0  0  0  0  0  0  0  0
   39.9430   22.2210   34.9030 N   0  0  0  0  0  0  0  0  0  0  0  0
   37.9710   22.7780   33.6370 C   0  0  0  0  0  0  0  0  0  0  0  0
   38.2030   23.6970   32.6370 C   0  0  0  0  0  0  0  0  0  0  0  0
   37.3500   23.4750   31.6080 N   0  0  0  0  0  0  0  0  0  0  0  0
   36.5720   22.4160   31.9470 C   0  0  0  0  0  0  0  0  0  0  0  0
   35.5490   21.7480   31.3140 C   0  0  0  0  0  0  0  0  0  0  0  0
   34.9260   20.6660   31.9370 C   0  0  0  0  0  0  0  0  0  0  0  0
   35.3220   20.2500   33.1920 C   0  0  0  0  0  0  0  0  0  0  0  0
   36.3420   20.9100   33.8320 C   0  0  0  0  0  0  0  0  0  0  0  0
   36.9420   21.9740   33.1980 C   0  0  0  0  0  0  0  0  0  0  0  0
   38.2720   23.6070   38.5030 C   0  0  0  0  0  0  0  0  0  0  0  0
   37.8340   24.9170   38.3800 F   0  0  0  0  0  0  0  0  0  0  0  0
   39.3560   23.6620   39.3780 F   0  0  0  0  0  0  0  0  0  0  0  0
   37.2590   22.8490   39.0030 F   0  0  0  0  0  0  0  0  0  0  0  0
   41.6518   21.7450   36.0306 H   0  0  0  0  0  0  0  0  0  0  0  0
   40.6595   22.5745   38.2148 H   0  0  0  0  0  0  0  0  0  0  0  0
   38.9646   24.4900   32.6692 H   0  0  0  0  0  0  0  0  0  0  0  0
   37.3010   24.0113   30.7300 H   0  0  0  0  0  0  0  0  0  0  0  0
   35.2214   22.0679   30.3139 H   0  0  0  0  0  0  0  0  0  0  0  0
   34.1097   20.1384   31.4219 H   0  0  0  0  0  0  0  0  0  0  0  0
   34.8245   19.3965   33.6757 H   0  0  0  0  0  0  0  0  0  0  0  0
   36.6732   20.5943   34.8323 H   0  0  0  0  0  0  0  0  0  0  0  0
  1  2  2  0
  3  2  1  0
  3 16  1  0
  4  3  2  0
  5  6  2  0
  5  4  1  0
  6  1  1  0
  7  5  1  0
  8  7  2  0
  9 10  1  0
  9  8  1  0
 10 15  2  0
 11 12  2  0
 11 10  1  0
 12 13  1  0
 13 14  2  0
 15  7  1  0
 15 14  1  0
 16 19  1  0
 16 18  1  0
 17 16  1  0
  1 20  1  0
  2 21  1  0
  8 22  1  0
  9 23  1  0
 11 24  1  0
 12 25  1  0
 13 26  1  0
 14 27  1  0
M  ISO  8  20  14  21  14  22  14  23   9  24  14  25  14  26  14  27  14
M  END
>  <minimizedAffinity>  (1) 
-5.84660721

>  <minimizedRMSD>  (1) 
0.906732738

$$$$
