
     RDKit          3D

 53 58  0  0  1  0  0  0  0  0999 V2000
   37.7460   23.3420   33.4580 C   0  0  2  0  0  0  0  0  0  0  0  0
   37.7610   21.8420   33.9010 C   0  0  0  0  0  0  0  0  0  0  0  0
   37.2660   22.3450   32.5650 C   0  0  1  0  0  0  0  0  0  0  0  0
   39.8700   24.2600   34.6390 N   0  0  0  0  0  0  0  0  0  0  0  0
   41.2360   24.7770   34.5310 C   0  0  0  0  0  0  0  0  0  0  0  0
   41.8600   24.5600   33.1800 C   0  0  0  0  0  0  0  0  0  0  0  0
   40.9200   24.7890   32.1550 N   0  0  0  0  0  0  0  0  0  0  0  0
   39.6380   24.1800   32.2060 C   0  0  0  0  0  0  0  0  0  0  0  0
   39.0920   23.9140   33.5220 C   0  0  0  0  0  0  0  0  0  0  0  0
   38.2760   24.8290   36.4320 C   0  0  0  0  0  0  0  0  0  0  0  0
   39.3180   24.0930   35.8890 C   0  0  0  0  0  0  0  0  0  0  0  0
   39.8290   23.0750   36.7530 C   0  0  0  0  0  0  0  0  0  0  0  0
   39.3330   22.8600   37.9880 N   0  0  0  0  0  0  0  0  0  0  0  0
   38.3280   23.6140   38.4370 C   0  0  0  0  0  0  0  0  0  0  0  0
   37.8120   24.5770   37.6750 N   0  0  0  0  0  0  0  0  0  0  0  0
   35.8400   22.1720   32.2190 C   0  0  2  0  0  0  0  0  0  0  0  0
   35.0970   21.0070   32.8770 C   0  0  0  0  0  0  0  0  0  0  0  0
   35.4170   20.9770   31.4500 C   0  0  2  0  0  0  0  0  0  0  0  0
   36.3690   19.9020   31.0370 C   0  0  0  0  0  0  0  0  0  0  0  0
   36.5330   19.7230   29.7820 O   0  0  0  0  0  0  0  0  0  0  0  0
   37.0910   19.0610   31.8920 O   0  0  0  0  0  0  0  0  0  0  0  0
   38.4070   18.7200   31.6210 C   0  0  0  0  0  0  0  0  0  0  0  0
   39.1110   19.7980   31.2380 N   0  0  0  0  0  0  0  0  0  0  0  0
   40.4260   19.6110   30.9380 C   0  0  0  0  0  0  0  0  0  0  0  0
   41.0400   18.4130   31.0080 N   0  0  0  0  0  0  0  0  0  0  0  0
   40.3550   17.3150   31.3900 C   0  0  0  0  0  0  0  0  0  0  0  0
   40.8910   16.0510   31.4800 C   0  0  0  0  0  0  0  0  0  0  0  0
   40.1270   14.9770   31.8650 C   0  0  0  0  0  0  0  0  0  0  0  0
   38.8010   15.2080   32.1590 C   0  0  0  0  0  0  0  0  0  0  0  0
   38.2040   16.4600   32.0860 C   0  0  0  0  0  0  0  0  0  0  0  0
   39.0280   17.4910   31.6950 C   0  0  0  0  0  0  0  0  0  0  0  0
   37.2918   24.3168   33.6892 H   0  0  0  0  0  0  0  0  0  0  0  0
   38.7076   21.2870   33.9783 H   0  0  0  0  0  0  0  0  0  0  0  0
   37.3635   21.2440   34.7343 H   0  0  0  0  0  0  0  0  0  0  0  0
   37.5128   22.1383   31.5132 H   0  0  0  0  0  0  0  0  0  0  0  0
   41.2152   25.8579   34.7343 H   0  0  0  0  0  0  0  0  0  0  0  0
   41.8472   24.2243   35.2597 H   0  0  0  0  0  0  0  0  0  0  0  0
   42.7049   25.2535   33.0568 H   0  0  0  0  0  0  0  0  0  0  0  0
   42.2086   23.5188   33.1143 H   0  0  0  0  0  0  0  0  0  0  0  0
   41.1644   25.4018   31.3640 H   0  0  0  0  0  0  0  0  0  0  0  0
   39.0857   23.9224   31.2903 H   0  0  0  0  0  0  0  0  0  0  0  0
   37.8182   25.6341   35.8386 H   0  0  0  0  0  0  0  0  0  0  0  0
   40.6570   22.4442   36.3972 H   0  0  0  0  0  0  0  0  0  0  0  0
   37.9224   23.4390   39.4444 H   0  0  0  0  0  0  0  0  0  0  0  0
   35.6946   23.2569   32.1102 H   0  0  0  0  0  0  0  0  0  0  0  0
   35.6243   20.3400   33.5749 H   0  0  0  0  0  0  0  0  0  0  0  0
   34.1795   20.9029   33.4747 H   0  0  0  0  0  0  0  0  0  0  0  0
   34.8682   20.8935   30.5003 H   0  0  0  0  0  0  0  0  0  0  0  0
   41.0179   20.4827   30.6222 H   0  0  0  0  0  0  0  0  0  0  0  0
   41.9532   15.8977   31.2386 H   0  0  0  0  0  0  0  0  0  0  0  0
   40.5585   13.9677   31.9362 H   0  0  0  0  0  0  0  0  0  0  0  0
   38.1809   14.3538   32.4686 H   0  0  0  0  0  0  0  0  0  0  0  0
   37.1419   16.6174   32.3251 H   0  0  0  0  0  0  0  0  0  0  0  0
  1  9  1  0
  1  2  1  0
  3  1  1  0
  3  2  1  0
  4 11  1  0
  5  4  1  0
  6  5  1  0
  7  8  1  0
  7  6  1  0
  8  9  2  0
  9  4  1  0
 10 15  2  0
 11 10  1  0
 11 12  2  0
 12 13  1  0
 13 14  2  0
 15 14  1  0
 16  3  1  0
 16 17  1  0
 18 16  1  0
 18 17  1  0
 19 18  1  0
 19 21  1  0
 20 19  2  0
 22 31  1  0
 22 21  1  0
 23 22  2  0
 24 25  2  0
 24 23  1  0
 25 26  1  0
 26 27  1  0
 26 31  2  0
 27 28  2  0
 28 29  1  0
 30 29  2  0
 31 30  1  0
  1 32  1  1
  2 33  1  0
  2 34  1  0
  3 35  1  6
  5 36  1  0
  5 37  1  0
  6 38  1  0
  6 39  1  0
  7 40  1  0
  8 41  1  0
 10 42  1  0
 12 43  1  0
 14 44  1  0
 16 45  1  6
 17 46  1  0
 17 47  1  0
 18 48  1  6
 24 49  1  0
 27 50  1  0
 28 51  1  0
 29 52  1  0
 30 53  1  0
M  ISO  8  32  13  33  13  34  13  35  13  36  13  37  13  38  13  39  13
M  ISO  8  41  13  42  14  43  14  44  14  45  13  46  13  47  13  48  13
M  ISO  5  49  14  50  14  51  14  52  14  53  14
M  END
>  <minimizedAffinity>  (1) 
-4.86412573

>  <minimizedRMSD>  (1) 
4.32614517

$$$$
