
     RDKit          3D

 47 51  0  0  1  0  0  0  0  0999 V2000
   37.6550   22.5840   34.2420 C   0  0  2  0  0  0  0  0  0  0  0  0
   37.4370   22.0340   35.6890 C   0  0  0  0  0  0  0  0  0  0  0  0
   37.1490   21.2680   34.4230 C   0  0  1  0  0  0  0  0  0  0  0  0
   39.6260   24.2710   34.0780 N   0  0  0  0  0  0  0  0  0  0  0  0
   41.0600   24.5050   33.8960 C   0  0  0  0  0  0  0  0  0  0  0  0
   41.8960   23.2640   34.0760 C   0  0  0  0  0  0  0  0  0  0  0  0
   41.2680   22.1650   33.4600 N   0  0  0  0  0  0  0  0  0  0  0  0
   39.9050   21.8690   33.7210 C   0  0  0  0  0  0  0  0  0  0  0  0
   39.0490   22.9950   34.0410 C   0  0  0  0  0  0  0  0  0  0  0  0
   37.9550   25.9390   33.3730 C   0  0  0  0  0  0  0  0  0  0  0  0
   38.7970   25.3490   34.3010 C   0  0  0  0  0  0  0  0  0  0  0  0
   38.7630   25.9580   35.5940 C   0  0  0  0  0  0  0  0  0  0  0  0
   37.9730   27.0150   35.8740 N   0  0  0  0  0  0  0  0  0  0  0  0
   37.1910   27.5250   34.9240 C   0  0  0  0  0  0  0  0  0  0  0  0
   37.1820   26.9980   33.6980 N   0  0  0  0  0  0  0  0  0  0  0  0
   35.7580   20.8730   34.1200 C   0  0  2  0  0  0  0  0  0  0  0  0
   35.5540   19.6220   33.2610 C   0  0  0  0  0  0  0  0  0  0  0  0
   35.2550   20.9570   32.7290 C   0  0  2  0  0  0  0  0  0  0  0  0
   36.1210   21.3700   31.5790 C   0  0  0  0  0  0  0  0  0  0  0  0
   35.7440   22.3990   30.9250 O   0  0  0  0  0  0  0  0  0  0  0  0
   37.2850   20.7440   31.1430 O   0  0  0  0  0  0  0  0  0  0  0  0
   37.4090   20.0460   29.9820 C   0  0  0  0  0  0  0  0  0  0  0  0
   36.5430   19.0870   29.4450 C   0  0  0  0  0  0  0  0  0  0  0  0
   36.8570   18.4970   28.2480 C   0  0  0  0  0  0  0  0  0  0  0  0
   37.9660   18.7860   27.5430 N   0  0  0  0  0  0  0  0  0  0  0  0
   38.7870   19.7190   28.0880 C   0  0  0  0  0  0  0  0  0  0  0  0
   38.5400   20.3500   29.2750 N   0  0  0  0  0  0  0  0  0  0  0  0
   37.3049   23.3521   33.5367 H   0  0  0  0  0  0  0  0  0  0  0  0
   38.2940   21.7681   36.3253 H   0  0  0  0  0  0  0  0  0  0  0  0
   36.8843   22.3364   36.5907 H   0  0  0  0  0  0  0  0  0  0  0  0
   37.4748   20.3046   34.0039 H   0  0  0  0  0  0  0  0  0  0  0  0
   41.3870   25.2554   34.6308 H   0  0  0  0  0  0  0  0  0  0  0  0
   41.2046   24.8469   32.8605 H   0  0  0  0  0  0  0  0  0  0  0  0
   42.8842   23.4215   33.6193 H   0  0  0  0  0  0  0  0  0  0  0  0
   42.0092   23.0585   35.1507 H   0  0  0  0  0  0  0  0  0  0  0  0
   41.8037   21.5692   32.8127 H   0  0  0  0  0  0  0  0  0  0  0  0
   39.5182   20.8400   33.6826 H   0  0  0  0  0  0  0  0  0  0  0  0
   37.9149   25.5368   32.3499 H   0  0  0  0  0  0  0  0  0  0  0  0
   39.4042   25.5499   36.3892 H   0  0  0  0  0  0  0  0  0  0  0  0
   36.5474   28.3875   35.1518 H   0  0  0  0  0  0  0  0  0  0  0  0
   35.4054   21.2437   35.0938 H   0  0  0  0  0  0  0  0  0  0  0  0
   36.4232   19.0606   32.8877 H   0  0  0  0  0  0  0  0  0  0  0  0
   34.9965   18.6800   33.3701 H   0  0  0  0  0  0  0  0  0  0  0  0
   34.3868   21.4915   32.3160 H   0  0  0  0  0  0  0  0  0  0  0  0
   35.6210   18.8097   29.9771 H   0  0  0  0  0  0  0  0  0  0  0  0
   36.1639   17.7458   27.8414 H   0  0  0  0  0  0  0  0  0  0  0  0
   39.7050   19.9829   27.5425 H   0  0  0  0  0  0  0  0  0  0  0  0
  1  3  1  0
  1  2  1  0
  3  2  1  0
  4 11  1  0
  5  6  1  0
  5  4  1  0
  7  8  1  0
  7  6  1  0
  8  9  2  0
  9  4  1  0
  9  1  1  0
 10 15  2  0
 10 11  1  0
 11 12  2  0
 12 13  1  0
 14 13  2  0
 15 14  1  0
 16  3  1  0
 17 16  1  0
 18 17  1  0
 18 16  1  0
 19 18  1  0
 20 19  2  0
 21 19  1  0
 22 21  1  0
 23 22  2  0
 24 23  1  0
 25 26  1  0
 25 24  2  0
 26 27  2  0
 27 22  1  0
  1 28  1  6
  2 29  1  0
  2 30  1  0
  3 31  1  1
  5 32  1  0
  5 33  1  0
  6 34  1  0
  6 35  1  0
  7 36  1  0
  8 37  1  0
 10 38  1  0
 12 39  1  0
 14 40  1  0
 16 41  1  1
 17 42  1  0
 17 43  1  0
 18 44  1  1
 23 45  1  0
 24 46  1  0
 26 47  1  0
M  ISO  8  28  13  29  13  30  13  31  13  32  13  33  13  34  13  35  13
M  ISO  8  37  13  38  14  39  14  40  14  41  13  42  13  43  13  44  13
M  ISO  3  45  14  46  14  47  14
M  END
>  <minimizedAffinity>  (1) 
-4.60229254

>  <minimizedRMSD>  (1) 
1.13547575

$$$$
