
     RDKit          3D

 49 53  0  0  1  0  0  0  0  0999 V2000
   37.6430   23.0230   33.4150 C   0  0  2  0  0  0  0  0  0  0  0  0
   38.1540   22.2470   34.6730 C   0  0  0  0  0  0  0  0  0  0  0  0
   37.3250   21.6460   33.5660 C   0  0  1  0  0  0  0  0  0  0  0  0
   39.3320   24.8880   32.7580 N   0  0  0  0  0  0  0  0  0  0  0  0
   40.4930   25.3000   31.9680 C   0  0  0  0  0  0  0  0  0  0  0  0
   41.2540   24.1450   31.3670 C   0  0  0  0  0  0  0  0  0  0  0  0
   40.3560   23.1780   30.8690 N   0  0  0  0  0  0  0  0  0  0  0  0
   39.2990   22.6920   31.6830 C   0  0  0  0  0  0  0  0  0  0  0  0
   38.7630   23.6070   32.6730 C   0  0  0  0  0  0  0  0  0  0  0  0
   37.5760   26.4690   33.4530 C   0  0  0  0  0  0  0  0  0  0  0  0
   38.7680   25.7870   33.6350 C   0  0  0  0  0  0  0  0  0  0  0  0
   39.4310   26.0820   34.8670 C   0  0  0  0  0  0  0  0  0  0  0  0
   38.9400   26.9500   35.7720 N   0  0  0  0  0  0  0  0  0  0  0  0
   37.7760   27.5690   35.5160 C   0  0  0  0  0  0  0  0  0  0  0  0
   37.1140   27.3330   34.3850 N   0  0  0  0  0  0  0  0  0  0  0  0
   35.9690   21.1490   33.8780 C   0  0  2  0  0  0  0  0  0  0  0  0
   35.7010   19.6570   33.6610 C   0  0  0  0  0  0  0  0  0  0  0  0
   35.0970   20.6610   32.7830 C   0  0  2  0  0  0  0  0  0  0  0  0
   35.5430   20.6020   31.3560 C   0  0  0  0  0  0  0  0  0  0  0  0
   35.5110   21.6930   30.6940 O   0  0  0  0  0  0  0  0  0  0  0  0
   35.9820   19.4600   30.6810 O   0  0  0  0  0  0  0  0  0  0  0  0
   36.9310   19.4770   29.6990 C   0  0  0  0  0  0  0  0  0  0  0  0
   38.2110   20.0240   29.7410 C   0  0  0  0  0  0  0  0  0  0  0  0
   39.0690   19.9740   28.6810 C   0  0  0  0  0  0  0  0  0  0  0  0
   38.7100   19.3710   27.5030 C   0  0  0  0  0  0  0  0  0  0  0  0
   37.4570   18.8330   27.4580 C   0  0  0  0  0  0  0  0  0  0  0  0
   36.5560   18.8620   28.5070 C   0  0  0  0  0  0  0  0  0  0  0  0
   36.9770   23.8416   33.1048 H   0  0  0  0  0  0  0  0  0  0  0  0
   39.2180   21.9904   34.7826 H   0  0  0  0  0  0  0  0  0  0  0  0
   38.0850   22.3500   35.7660 H   0  0  0  0  0  0  0  0  0  0  0  0
   37.4437   20.7978   32.8757 H   0  0  0  0  0  0  0  0  0  0  0  0
   40.1453   25.9500   31.1515 H   0  0  0  0  0  0  0  0  0  0  0  0
   41.1809   25.8192   32.6515 H   0  0  0  0  0  0  0  0  0  0  0  0
   41.8843   24.5136   30.5443 H   0  0  0  0  0  0  0  0  0  0  0  0
   41.8826   23.6855   32.1440 H   0  0  0  0  0  0  0  0  0  0  0  0
   40.4677   22.8222   29.9089 H   0  0  0  0  0  0  0  0  0  0  0  0
   38.9056   21.6712   31.5685 H   0  0  0  0  0  0  0  0  0  0  0  0
   36.9948   26.3047   32.5337 H   0  0  0  0  0  0  0  0  0  0  0  0
   40.3840   25.5778   35.0852 H   0  0  0  0  0  0  0  0  0  0  0  0
   37.3649   28.2789   36.2488 H   0  0  0  0  0  0  0  0  0  0  0  0
   35.8531   21.8744   34.6967 H   0  0  0  0  0  0  0  0  0  0  0  0
   36.4998   19.0019   33.2830 H   0  0  0  0  0  0  0  0  0  0  0  0
   35.3223   18.8320   34.2823 H   0  0  0  0  0  0  0  0  0  0  0  0
   34.0846   20.9696   32.4832 H   0  0  0  0  0  0  0  0  0  0  0  0
   38.5441   20.5165   30.6665 H   0  0  0  0  0  0  0  0  0  0  0  0
   40.0676   20.4260   28.7733 H   0  0  0  0  0  0  0  0  0  0  0  0
   39.3938   19.3237   26.6426 H   0  0  0  0  0  0  0  0  0  0  0  0
   37.1422   18.3433   26.5247 H   0  0  0  0  0  0  0  0  0  0  0  0
   35.5601   18.4070   28.4016 H   0  0  0  0  0  0  0  0  0  0  0  0
  1  3  1  0
  1  2  1  0
  3 16  1  0
  3  2  1  0
  4 11  1  0
  5  4  1  0
  6  5  1  0
  7  6  1  0
  7  8  1  0
  8  9  2  0
  9  4  1  0
  9  1  1  0
 10 11  2  0
 10 15  1  0
 11 12  1  0
 12 13  2  0
 14 13  1  0
 15 14  2  0
 17 16  1  0
 18 17  1  0
 18 16  1  0
 19 18  1  0
 20 19  2  0
 21 19  1  0
 22 23  2  0
 22 21  1  0
 24 23  1  0
 25 24  2  0
 26 25  1  0
 26 27  2  0
 27 22  1  0
  1 28  1  1
  2 29  1  0
  2 30  1  0
  3 31  1  6
  5 32  1  0
  5 33  1  0
  6 34  1  0
  6 35  1  0
  7 36  1  0
  8 37  1  0
 10 38  1  0
 12 39  1  0
 14 40  1  0
 16 41  1  1
 17 42  1  0
 17 43  1  0
 18 44  1  6
 23 45  1  0
 24 46  1  0
 25 47  1  0
 26 48  1  0
 27 49  1  0
M  ISO  8  28  13  29  13  30  13  31  13  32  13  33  13  34  13  35  13
M  ISO  8  37  13  38  14  39  14  40  14  41  13  42  13  43  13  44  13
M  ISO  5  45  14  46  14  47  14  48  14  49  14
M  END
>  <minimizedAffinity>  (1) 
-4.55481815

>  <minimizedRMSD>  (1) 
1.11114943

$$$$
