
     RDKit          3D

 55 59  0  0  1  0  0  0  0  0999 V2000
   37.6820   22.9130   33.4960 C   0  0  2  0  0  0  0  0  0  0  0  0
   38.1190   22.1700   34.7980 C   0  0  0  0  0  0  0  0  0  0  0  0
   37.3350   21.5480   33.6720 C   0  0  1  0  0  0  0  0  0  0  0  0
   39.4240   24.7380   32.8650 N   0  0  0  0  0  0  0  0  0  0  0  0
   40.6250   25.1150   32.1150 C   0  0  0  0  0  0  0  0  0  0  0  0
   41.4000   23.9320   31.5980 C   0  0  0  0  0  0  0  0  0  0  0  0
   40.5170   22.9600   31.0840 N   0  0  0  0  0  0  0  0  0  0  0  0
   39.4120   22.5100   31.8560 C   0  0  0  0  0  0  0  0  0  0  0  0
   38.8430   23.4640   32.7900 C   0  0  0  0  0  0  0  0  0  0  0  0
   37.6280   26.3160   33.4580 C   0  0  0  0  0  0  0  0  0  0  0  0
   38.8340   25.6700   33.6910 C   0  0  0  0  0  0  0  0  0  0  0  0
   39.4750   26.0430   34.9100 C   0  0  0  0  0  0  0  0  0  0  0  0
   38.9440   26.9500   35.7560 N   0  0  0  0  0  0  0  0  0  0  0  0
   37.7810   27.5280   35.4630 C   0  0  0  0  0  0  0  0  0  0  0  0
   37.1360   27.2190   34.3370 N   0  0  0  0  0  0  0  0  0  0  0  0
   35.9570   21.0790   33.9320 C   0  0  2  0  0  0  0  0  0  0  0  0
   35.6120   19.6480   33.5020 C   0  0  0  0  0  0  0  0  0  0  0  0
   35.0520   20.7990   32.7920 C   0  0  2  0  0  0  0  0  0  0  0  0
   35.4800   20.9250   31.3640 C   0  0  0  0  0  0  0  0  0  0  0  0
   35.4860   22.0890   30.8600 O   0  0  0  0  0  0  0  0  0  0  0  0
   35.8660   19.8970   30.5240 O   0  0  0  0  0  0  0  0  0  0  0  0
   37.0460   19.7040   29.8870 C   0  0  0  0  0  0  0  0  0  0  0  0
   38.0500   19.1120   30.8530 C   0  0  0  0  0  0  0  0  0  0  0  0
   38.8030   17.9350   30.2870 C   0  0  0  0  0  0  0  0  0  0  0  0
   37.7550   16.9040   29.9230 C   0  0  0  0  0  0  0  0  0  0  0  0
   37.0110   17.4580   28.7340 C   0  0  0  0  0  0  0  0  0  0  0  0
   37.0970   18.9450   28.6190 C   0  0  0  0  0  0  0  0  0  0  0  0
   37.0447   23.7310   33.1290 H   0  0  0  0  0  0  0  0  0  0  0  0
   39.1723   21.9013   34.9665 H   0  0  0  0  0  0  0  0  0  0  0  0
   37.9996   22.3078   35.8828 H   0  0  0  0  0  0  0  0  0  0  0  0
   37.4725   20.6774   33.0139 H   0  0  0  0  0  0  0  0  0  0  0  0
   40.3215   25.7349   31.2585 H   0  0  0  0  0  0  0  0  0  0  0  0
   41.2842   25.6590   32.8074 H   0  0  0  0  0  0  0  0  0  0  0  0
   42.0803   24.2637   30.7997 H   0  0  0  0  0  0  0  0  0  0  0  0
   41.9778   23.4919   32.4241 H   0  0  0  0  0  0  0  0  0  0  0  0
   40.6741   22.5734   30.1423 H   0  0  0  0  0  0  0  0  0  0  0  0
   39.0090   21.4919   31.7511 H   0  0  0  0  0  0  0  0  0  0  0  0
   37.0621   26.0898   32.5423 H   0  0  0  0  0  0  0  0  0  0  0  0
   40.4359   25.5746   35.1691 H   0  0  0  0  0  0  0  0  0  0  0  0
   37.3487   28.2660   36.1547 H   0  0  0  0  0  0  0  0  0  0  0  0
   35.8848   21.6816   34.8494 H   0  0  0  0  0  0  0  0  0  0  0  0
   36.3732   19.0180   33.0186 H   0  0  0  0  0  0  0  0  0  0  0  0
   35.1979   18.7595   34.0011 H   0  0  0  0  0  0  0  0  0  0  0  0
   34.0544   21.1992   32.5583 H   0  0  0  0  0  0  0  0  0  0  0  0
   37.2783   20.7253   29.5508 H   0  0  0  0  0  0  0  0  0  0  0  0
   38.7759   19.8929   31.1236 H   0  0  0  0  0  0  0  0  0  0  0  0
   37.4864   18.7482   31.7248 H   0  0  0  0  0  0  0  0  0  0  0  0
   39.3684   18.2372   29.3931 H   0  0  0  0  0  0  0  0  0  0  0  0
   39.5274   17.5344   31.0114 H   0  0  0  0  0  0  0  0  0  0  0  0
   38.2347   15.9494   29.6611 H   0  0  0  0  0  0  0  0  0  0  0  0
   37.0748   16.7108   30.7656 H   0  0  0  0  0  0  0  0  0  0  0  0
   37.4328   17.0129   27.8208 H   0  0  0  0  0  0  0  0  0  0  0  0
   35.9492   17.2042   28.8689 H   0  0  0  0  0  0  0  0  0  0  0  0
   38.0470   19.1883   28.1207 H   0  0  0  0  0  0  0  0  0  0  0  0
   36.2000   19.2483   28.0592 H   0  0  0  0  0  0  0  0  0  0  0  0
  1  3  1  0
  1  2  1  0
  3 16  1  0
  3  2  1  0
  4 11  1  0
  5  4  1  0
  6  5  1  0
  7  6  1  0
  7  8  1  0
  8  9  2  0
  9  4  1  0
  9  1  1  0
 10 11  2  0
 10 15  1  0
 11 12  1  0
 12 13  2  0
 14 13  1  0
 15 14  2  0
 17 16  1  0
 18 17  1  0
 18 16  1  0
 19 18  1  0
 20 19  2  0
 21 19  1  0
 22 21  1  0
 22 23  1  0
 24 23  1  0
 25 24  1  0
 26 25  1  0
 27 26  1  0
 27 22  1  0
  1 28  1  1
  2 29  1  0
  2 30  1  0
  3 31  1  6
  5 32  1  0
  5 33  1  0
  6 34  1  0
  6 35  1  0
  7 36  1  0
  8 37  1  0
 10 38  1  0
 12 39  1  0
 14 40  1  0
 16 41  1  1
 17 42  1  0
 17 43  1  0
 18 44  1  6
 22 45  1  0
 23 46  1  0
 23 47  1  0
 24 48  1  0
 24 49  1  0
 25 50  1  0
 25 51  1  0
 26 52  1  0
 26 53  1  0
 27 54  1  0
 27 55  1  0
M  ISO  8  28  13  29  13  30  13  31  13  32  13  33  13  34  13  35  13
M  ISO  8  37  13  38  14  39  14  40  14  41  13  42  13  43  13  44  13
M  ISO  8  45  13  46  13  47  13  48  13  49  13  50  13  51  13  52  13
M  ISO  3  53  13  54  13  55  13
M  END
>  <minimizedAffinity>  (1) 
-4.46179819

>  <minimizedRMSD>  (1) 
1.11479294

$$$$
