
     RDKit          3D

 46 50  0  0  1  0  0  0  0  0999 V2000
   37.5400   22.7780   33.3640 C   0  0  2  0  0  0  0  0  0  0  0  0
   37.8790   22.1080   34.7340 C   0  0  0  0  0  0  0  0  0  0  0  0
   37.1860   21.4200   33.5860 C   0  0  1  0  0  0  0  0  0  0  0  0
   39.3530   24.5600   32.8240 N   0  0  0  0  0  0  0  0  0  0  0  0
   40.6120   24.9010   32.1570 C   0  0  0  0  0  0  0  0  0  0  0  0
   41.3780   23.7110   31.6570 C   0  0  0  0  0  0  0  0  0  0  0  0
   40.5080   22.7460   31.1190 N   0  0  0  0  0  0  0  0  0  0  0  0
   39.3560   22.3240   31.8300 C   0  0  0  0  0  0  0  0  0  0  0  0
   38.7520   23.2970   32.7220 C   0  0  0  0  0  0  0  0  0  0  0  0
   37.6230   26.2670   33.2330 C   0  0  0  0  0  0  0  0  0  0  0  0
   38.7290   25.5150   33.5950 C   0  0  0  0  0  0  0  0  0  0  0  0
   39.2310   25.7950   34.9030 C   0  0  0  0  0  0  0  0  0  0  0  0
   38.6660   26.7170   35.7090 N   0  0  0  0  0  0  0  0  0  0  0  0
   37.6020   27.4020   35.2890 C   0  0  0  0  0  0  0  0  0  0  0  0
   37.0920   27.1800   34.0750 N   0  0  0  0  0  0  0  0  0  0  0  0
   35.7950   20.9540   33.7620 C   0  0  2  0  0  0  0  0  0  0  0  0
   35.5180   19.4660   33.5230 C   0  0  0  0  0  0  0  0  0  0  0  0
   35.0260   20.4780   32.5880 C   0  0  2  0  0  0  0  0  0  0  0  0
   35.6090   20.4030   31.2120 C   0  0  0  0  0  0  0  0  0  0  0  0
   35.6650   21.5000   30.5560 O   0  0  0  0  0  0  0  0  0  0  0  0
   36.0860   19.2460   30.5810 O   0  0  0  0  0  0  0  0  0  0  0  0
   37.0170   19.3710   29.5570 C   0  0  0  0  0  0  0  0  0  0  0  0
   36.6800   18.8130   28.3190 C   0  0  0  0  0  0  0  0  0  0  0  0
   37.7640   19.0700   27.4720 C   0  0  0  0  0  0  0  0  0  0  0  0
   38.6890   19.7700   28.2540 C   0  0  0  0  0  0  0  0  0  0  0  0
   38.2140   19.9240   29.4610 O   0  0  0  0  0  0  0  0  0  0  0  0
   36.9294   23.5703   32.9063 H   0  0  0  0  0  0  0  0  0  0  0  0
   38.9174   21.8574   34.9966 H   0  0  0  0  0  0  0  0  0  0  0  0
   37.6760   22.3021   35.7975 H   0  0  0  0  0  0  0  0  0  0  0  0
   37.3776   20.5162   32.9890 H   0  0  0  0  0  0  0  0  0  0  0  0
   40.3844   25.5514   31.2996 H   0  0  0  0  0  0  0  0  0  0  0  0
   41.2462   25.3965   32.9069 H   0  0  0  0  0  0  0  0  0  0  0  0
   42.0815   24.0370   30.8767 H   0  0  0  0  0  0  0  0  0  0  0  0
   41.9225   23.2627   32.5011 H   0  0  0  0  0  0  0  0  0  0  0  0
   40.7106   22.3396   30.1945 H   0  0  0  0  0  0  0  0  0  0  0  0
   38.9416   21.3119   31.7118 H   0  0  0  0  0  0  0  0  0  0  0  0
   37.1692   26.1178   32.2421 H   0  0  0  0  0  0  0  0  0  0  0  0
   40.1086   25.2394   35.2652 H   0  0  0  0  0  0  0  0  0  0  0  0
   37.1416   28.1543   35.9463 H   0  0  0  0  0  0  0  0  0  0  0  0
   35.6137   21.6865   34.5623 H   0  0  0  0  0  0  0  0  0  0  0  0
   36.3361   18.7927   33.2275 H   0  0  0  0  0  0  0  0  0  0  0  0
   35.0622   18.6518   34.1055 H   0  0  0  0  0  0  0  0  0  0  0  0
   34.0549   20.8061   32.1888 H   0  0  0  0  0  0  0  0  0  0  0  0
   35.7519   18.2807   28.0635 H   0  0  0  0  0  0  0  0  0  0  0  0
   37.8669   18.7825   26.4152 H   0  0  0  0  0  0  0  0  0  0  0  0
   39.6666   20.1348   27.9058 H   0  0  0  0  0  0  0  0  0  0  0  0
  1  3  1  0
  1  2  1  0
  3 16  1  0
  3  2  1  0
  4 11  1  0
  5  4  1  0
  6  5  1  0
  7  6  1  0
  7  8  1  0
  8  9  2  0
  9  4  1  0
  9  1  1  0
 10 11  2  0
 10 15  1  0
 11 12  1  0
 12 13  2  0
 14 13  1  0
 15 14  2  0
 17 16  1  0
 18 17  1  0
 18 16  1  0
 19 18  1  0
 20 19  2  0
 21 19  1  0
 22 21  1  0
 23 22  2  0
 24 25  2  0
 24 23  1  0
 25 26  1  0
 26 22  1  0
  1 27  1  1
  2 28  1  0
  2 29  1  0
  3 30  1  6
  5 31  1  0
  5 32  1  0
  6 33  1  0
  6 34  1  0
  7 35  1  0
  8 36  1  0
 10 37  1  0
 12 38  1  0
 14 39  1  0
 16 40  1  1
 17 41  1  0
 17 42  1  0
 18 43  1  6
 23 44  1  0
 24 45  1  0
 25 46  1  0
M  ISO  8  27  13  28  13  29  13  30  13  31  13  32  13  33  13  34  13
M  ISO  8  36  13  37  14  38  14  39  14  40  13  41  13  42  13  43  13
M  ISO  3  44  14  45  14  46  14
M  END
>  <minimizedAffinity>  (1) 
-4.32378817

>  <minimizedRMSD>  (1) 
0.963018715

$$$$
