
     RDKit          3D

 46 50  0  0  1  0  0  0  0  0999 V2000
   37.6770   22.5760   34.0830 C   0  0  2  0  0  0  0  0  0  0  0  0
   37.3180   21.9640   35.4770 C   0  0  0  0  0  0  0  0  0  0  0  0
   37.1270   21.2680   34.1520 C   0  0  1  0  0  0  0  0  0  0  0  0
   39.6960   24.2120   34.1600 N   0  0  0  0  0  0  0  0  0  0  0  0
   41.1480   24.4100   34.1260 C   0  0  0  0  0  0  0  0  0  0  0  0
   41.9310   23.1440   34.3420 C   0  0  0  0  0  0  0  0  0  0  0  0
   41.3380   22.0830   33.6340 N   0  0  0  0  0  0  0  0  0  0  0  0
   39.9500   21.8150   33.7540 C   0  0  0  0  0  0  0  0  0  0  0  0
   39.0920   22.9540   34.0280 C   0  0  0  0  0  0  0  0  0  0  0  0
   38.1510   25.9450   33.3380 C   0  0  0  0  0  0  0  0  0  0  0  0
   38.8760   25.3070   34.3340 C   0  0  0  0  0  0  0  0  0  0  0  0
   38.7220   25.8770   35.6340 C   0  0  0  0  0  0  0  0  0  0  0  0
   37.9360   26.9480   35.8630 N   0  0  0  0  0  0  0  0  0  0  0  0
   37.2710   27.5090   34.8560 C   0  0  0  0  0  0  0  0  0  0  0  0
   37.3750   27.0180   33.6160 N   0  0  0  0  0  0  0  0  0  0  0  0
   35.7590   20.9290   33.7080 C   0  0  2  0  0  0  0  0  0  0  0  0
   35.5240   19.5050   33.1870 C   0  0  0  0  0  0  0  0  0  0  0  0
   35.4990   20.6520   32.2760 C   0  0  2  0  0  0  0  0  0  0  0  0
   36.5770   20.6540   31.2400 C   0  0  0  0  0  0  0  0  0  0  0  0
   36.8100   21.7750   30.6660 O   0  0  0  0  0  0  0  0  0  0  0  0
   37.3400   19.5490   30.8370 O   0  0  0  0  0  0  0  0  0  0  0  0
   37.5470   19.3990   29.4170 C   0  0  0  0  0  0  0  0  0  0  0  0
   36.5870   18.8420   28.7100 C   0  0  0  0  0  0  0  0  0  0  0  0
   36.5910   18.6150   27.3820 C   0  0  0  0  0  0  0  0  0  0  0  0
   37.7760   19.0500   26.7920 C   0  0  0  0  0  0  0  0  0  0  0  0
   38.7910   19.7630   28.2590 S   0  0  0  0  0  0  0  0  0  0  0  0
   37.4088   23.3865   33.3893 H   0  0  0  0  0  0  0  0  0  0  0  0
   38.1083   21.6445   36.1723 H   0  0  0  0  0  0  0  0  0  0  0  0
   36.6942   22.2377   36.3407 H   0  0  0  0  0  0  0  0  0  0  0  0
   37.4669   20.3172   33.7155 H   0  0  0  0  0  0  0  0  0  0  0  0
   41.4201   24.8245   33.1441 H   0  0  0  0  0  0  0  0  0  0  0  0
   41.4011   25.0920   34.9511 H   0  0  0  0  0  0  0  0  0  0  0  0
   42.9617   23.2882   33.9857 H   0  0  0  0  0  0  0  0  0  0  0  0
   41.9367   22.9025   35.4151 H   0  0  0  0  0  0  0  0  0  0  0  0
   41.9187   21.4933   33.0208 H   0  0  0  0  0  0  0  0  0  0  0  0
   39.5451   20.7980   33.6452 H   0  0  0  0  0  0  0  0  0  0  0  0
   38.2080   25.5722   32.3047 H   0  0  0  0  0  0  0  0  0  0  0  0
   39.2639   25.4263   36.4785 H   0  0  0  0  0  0  0  0  0  0  0  0
   36.6308   28.3833   35.0448 H   0  0  0  0  0  0  0  0  0  0  0  0
   35.3113   21.5930   34.4620 H   0  0  0  0  0  0  0  0  0  0  0  0
   36.3562   18.7867   33.1481 H   0  0  0  0  0  0  0  0  0  0  0  0
   34.8326   18.6856   33.4331 H   0  0  0  0  0  0  0  0  0  0  0  0
   34.7866   21.1157   31.5777 H   0  0  0  0  0  0  0  0  0  0  0  0
   35.6876   18.5292   29.2606 H   0  0  0  0  0  0  0  0  0  0  0  0
   35.7623   18.1450   26.8322 H   0  0  0  0  0  0  0  0  0  0  0  0
   38.0637   18.9973   25.7316 H   0  0  0  0  0  0  0  0  0  0  0  0
  1  3  1  0
  1  2  1  0
  3  2  1  0
  4 11  1  0
  5  4  1  0
  5  6  1  0
  7  8  1  0
  7  6  1  0
  8  9  2  0
  9  1  1  0
  9  4  1  0
 10 15  2  0
 10 11  1  0
 11 12  2  0
 12 13  1  0
 14 13  2  0
 15 14  1  0
 16  3  1  0
 17 16  1  0
 18 17  1  0
 18 16  1  0
 19 18  1  0
 20 19  2  0
 21 19  1  0
 22 21  1  0
 23 22  2  0
 24 23  1  0
 25 24  2  0
 25 26  1  0
 26 22  1  0
  1 27  1  6
  2 28  1  0
  2 29  1  0
  3 30  1  1
  5 31  1  0
  5 32  1  0
  6 33  1  0
  6 34  1  0
  7 35  1  0
  8 36  1  0
 10 37  1  0
 12 38  1  0
 14 39  1  0
 16 40  1  1
 17 41  1  0
 17 42  1  0
 18 43  1  6
 23 44  1  0
 24 45  1  0
 25 46  1  0
M  ISO  8  27  13  28  13  29  13  30  13  31  13  32  13  33  13  34  13
M  ISO  8  36  13  37  14  38  14  39  14  40  13  41  13  42  13  43  13
M  ISO  3  44  14  45  14  46  14
M  END
>  <minimizedAffinity>  (1) 
-4.38250351

>  <minimizedRMSD>  (1) 
1.22690368

$$$$
