
     RDKit          3D

 47 51  0  0  1  0  0  0  0  0999 V2000
   37.5590   22.7820   33.3640 C   0  0  2  0  0  0  0  0  0  0  0  0
   37.9010   22.0900   34.7240 C   0  0  0  0  0  0  0  0  0  0  0  0
   37.2000   21.4220   33.5680 C   0  0  1  0  0  0  0  0  0  0  0  0
   39.3640   24.5710   32.8200 N   0  0  0  0  0  0  0  0  0  0  0  0
   40.6190   24.9180   32.1490 C   0  0  0  0  0  0  0  0  0  0  0  0
   41.4030   23.7170   31.6880 C   0  0  0  0  0  0  0  0  0  0  0  0
   40.5360   22.7540   31.1300 N   0  0  0  0  0  0  0  0  0  0  0  0
   39.3810   22.3320   31.8400 C   0  0  0  0  0  0  0  0  0  0  0  0
   38.7690   23.3050   32.7260 C   0  0  0  0  0  0  0  0  0  0  0  0
   37.6280   26.2760   33.2180 C   0  0  0  0  0  0  0  0  0  0  0  0
   38.7330   25.5250   33.5900 C   0  0  0  0  0  0  0  0  0  0  0  0
   39.2210   25.8080   34.9020 C   0  0  0  0  0  0  0  0  0  0  0  0
   38.6480   26.7310   35.7030 N   0  0  0  0  0  0  0  0  0  0  0  0
   37.5870   27.4120   35.2710 C   0  0  0  0  0  0  0  0  0  0  0  0
   37.0890   27.1880   34.0540 N   0  0  0  0  0  0  0  0  0  0  0  0
   35.8090   20.9580   33.7480 C   0  0  2  0  0  0  0  0  0  0  0  0
   35.5310   19.4690   33.5220 C   0  0  0  0  0  0  0  0  0  0  0  0
   35.0430   20.4710   32.5760 C   0  0  2  0  0  0  0  0  0  0  0  0
   35.6280   20.3860   31.2030 C   0  0  0  0  0  0  0  0  0  0  0  0
   35.6610   21.4700   30.5260 O   0  0  0  0  0  0  0  0  0  0  0  0
   36.1310   19.2280   30.5920 O   0  0  0  0  0  0  0  0  0  0  0  0
   36.9850   19.3480   29.5030 C   0  0  0  0  0  0  0  0  0  0  0  0
   36.6120   18.8090   28.2830 C   0  0  0  0  0  0  0  0  0  0  0  0
   37.4400   18.9060   27.1620 C   0  0  0  0  0  0  0  0  0  0  0  0
   38.6390   19.5470   27.2680 N   0  0  0  0  0  0  0  0  0  0  0  0
   38.9820   20.0630   28.4580 C   0  0  0  0  0  0  0  0  0  0  0  0
   38.1940   19.9760   29.5460 N   0  0  0  0  0  0  0  0  0  0  0  0
   36.9499   23.5832   32.9200 H   0  0  0  0  0  0  0  0  0  0  0  0
   38.9393   21.8310   34.9786 H   0  0  0  0  0  0  0  0  0  0  0  0
   37.7032   22.2692   35.7911 H   0  0  0  0  0  0  0  0  0  0  0  0
   37.3846   20.5278   32.9545 H   0  0  0  0  0  0  0  0  0  0  0  0
   40.3852   25.5394   31.2720 H   0  0  0  0  0  0  0  0  0  0  0  0
   41.2425   25.4510   32.8819 H   0  0  0  0  0  0  0  0  0  0  0  0
   42.1348   24.0303   30.9289 H   0  0  0  0  0  0  0  0  0  0  0  0
   41.9228   23.2749   32.5508 H   0  0  0  0  0  0  0  0  0  0  0  0
   40.7419   22.3551   30.2030 H   0  0  0  0  0  0  0  0  0  0  0  0
   38.9705   21.3180   31.7242 H   0  0  0  0  0  0  0  0  0  0  0  0
   37.1828   26.1255   32.2234 H   0  0  0  0  0  0  0  0  0  0  0  0
   40.0956   25.2537   35.2732 H   0  0  0  0  0  0  0  0  0  0  0  0
   37.1186   28.1642   35.9227 H   0  0  0  0  0  0  0  0  0  0  0  0
   35.6268   21.6971   34.5420 H   0  0  0  0  0  0  0  0  0  0  0  0
   36.3494   18.7920   33.2356 H   0  0  0  0  0  0  0  0  0  0  0  0
   35.0724   18.6611   34.1110 H   0  0  0  0  0  0  0  0  0  0  0  0
   34.0729   20.7942   32.1704 H   0  0  0  0  0  0  0  0  0  0  0  0
   35.6440   18.2940   28.1949 H   0  0  0  0  0  0  0  0  0  0  0  0
   37.1275   18.4691   26.2021 H   0  0  0  0  0  0  0  0  0  0  0  0
   39.9490   20.5795   28.5486 H   0  0  0  0  0  0  0  0  0  0  0  0
  1  3  1  0
  1  2  1  0
  3 16  1  0
  3  2  1  0
  4 11  1  0
  5  4  1  0
  6  5  1  0
  7  6  1  0
  7  8  1  0
  8  9  2  0
  9  4  1  0
  9  1  1  0
 10 11  2  0
 10 15  1  0
 11 12  1  0
 12 13  2  0
 14 13  1  0
 15 14  2  0
 17 16  1  0
 18 17  1  0
 18 16  1  0
 19 18  1  0
 20 19  2  0
 21 19  1  0
 22 27  1  0
 22 21  1  0
 23 22  2  0
 24 25  2  0
 24 23  1  0
 25 26  1  0
 26 27  2  0
  1 28  1  1
  2 29  1  0
  2 30  1  0
  3 31  1  6
  5 32  1  0
  5 33  1  0
  6 34  1  0
  6 35  1  0
  7 36  1  0
  8 37  1  0
 10 38  1  0
 12 39  1  0
 14 40  1  0
 16 41  1  1
 17 42  1  0
 17 43  1  0
 18 44  1  6
 23 45  1  0
 24 46  1  0
 26 47  1  0
M  ISO  8  28  13  29  13  30  13  31  13  32  13  33  13  34  13  35  13
M  ISO  8  37  13  38  14  39  14  40  14  41  13  42  13  43  13  44  13
M  ISO  3  45  14  46  14  47  14
M  END
>  <minimizedAffinity>  (1) 
-4.36638594

>  <minimizedRMSD>  (1) 
1.10717046

$$$$
