
     RDKit          3D

 46 50  0  0  1  0  0  0  0  0999 V2000
   39.4320   24.3190   33.2980 N   0  0  0  0  0  0  0  0  0  0  0  0
   40.8020   24.6010   32.8630 C   0  0  0  0  0  0  0  0  0  0  0  0
   41.6400   23.3580   32.6990 C   0  0  0  0  0  0  0  0  0  0  0  0
   40.8880   22.3520   32.0560 N   0  0  0  0  0  0  0  0  0  0  0  0
   39.6040   21.9970   32.5510 C   0  0  0  0  0  0  0  0  0  0  0  0
   38.8430   23.0490   33.2000 C   0  0  0  0  0  0  0  0  0  0  0  0
   37.7090   26.0750   33.1710 C   0  0  0  0  0  0  0  0  0  0  0  0
   38.6780   25.3390   33.8360 C   0  0  0  0  0  0  0  0  0  0  0  0
   38.8710   25.7180   35.1990 C   0  0  0  0  0  0  0  0  0  0  0  0
   38.1650   26.7090   35.7800 N   0  0  0  0  0  0  0  0  0  0  0  0
   37.2480   27.3700   35.0740 C   0  0  0  0  0  0  0  0  0  0  0  0
   37.0250   27.0590   33.7960 N   0  0  0  0  0  0  0  0  0  0  0  0
   37.5180   22.5890   33.6210 C   0  0  2  0  0  0  0  0  0  0  0  0
   37.5800   21.9350   35.0400 C   0  0  0  0  0  0  0  0  0  0  0  0
   37.0760   21.2510   33.7960 C   0  0  1  0  0  0  0  0  0  0  0  0
   35.6570   20.8390   33.7280 C   0  0  2  0  0  0  0  0  0  0  0  0
   35.3700   19.3810   33.3520 C   0  0  0  0  0  0  0  0  0  0  0  0
   35.0640   20.4690   32.4220 C   0  0  2  0  0  0  0  0  0  0  0  0
   35.8480   20.4520   31.1470 C   0  0  0  0  0  0  0  0  0  0  0  0
   36.0830   21.5850   30.6110 O   0  0  0  0  0  0  0  0  0  0  0  0
   36.3300   19.3200   30.4950 O   0  0  0  0  0  0  0  0  0  0  0  0
   37.0100   19.3160   29.2920 C   0  0  0  0  0  0  0  0  0  0  0  0
   37.7110   18.0490   28.8630 C   0  0  0  0  0  0  0  0  0  0  0  0
   36.5530   18.6890   28.0540 C   0  0  0  0  0  0  0  0  0  0  0  0
   40.7613   25.1254   31.8969 H   0  0  0  0  0  0  0  0  0  0  0  0
   41.2743   25.2133   33.6453 H   0  0  0  0  0  0  0  0  0  0  0  0
   42.5270   23.5937   32.0927 H   0  0  0  0  0  0  0  0  0  0  0  0
   41.9517   22.9984   33.6908 H   0  0  0  0  0  0  0  0  0  0  0  0
   41.2700   21.8745   31.2271 H   0  0  0  0  0  0  0  0  0  0  0  0
   39.2069   20.9764   32.4475 H   0  0  0  0  0  0  0  0  0  0  0  0
   37.4930   25.8539   32.1153 H   0  0  0  0  0  0  0  0  0  0  0  0
   39.6229   25.1821   35.7968 H   0  0  0  0  0  0  0  0  0  0  0  0
   36.6711   28.1776   35.5483 H   0  0  0  0  0  0  0  0  0  0  0  0
   37.0313   23.3933   33.0498 H   0  0  0  0  0  0  0  0  0  0  0  0
   38.5439   21.6511   35.4876 H   0  0  0  0  0  0  0  0  0  0  0  0
   37.1987   22.1583   36.0474 H   0  0  0  0  0  0  0  0  0  0  0  0
   37.3345   20.3291   33.2545 H   0  0  0  0  0  0  0  0  0  0  0  0
   35.3786   21.5298   34.5375 H   0  0  0  0  0  0  0  0  0  0  0  0
   36.2006   18.6914   33.1410 H   0  0  0  0  0  0  0  0  0  0  0  0
   34.8019   18.5539   33.8028 H   0  0  0  0  0  0  0  0  0  0  0  0
   34.1785   20.8636   31.9021 H   0  0  0  0  0  0  0  0  0  0  0  0
   37.2905   20.3577   29.5068 H   0  0  0  0  0  0  0  0  0  0  0  0
   38.7428   18.0832   28.4831 H   0  0  0  0  0  0  0  0  0  0  0  0
   37.9202   17.0658   29.3098 H   0  0  0  0  0  0  0  0  0  0  0  0
   36.7586   19.1694   27.0860 H   0  0  0  0  0  0  0  0  0  0  0  0
   35.5831   18.3363   27.6734 H   0  0  0  0  0  0  0  0  0  0  0  0
  1  8  1  0
  2  1  1  0
  3  2  1  0
  4  5  1  0
  4  3  1  0
  5  6  2  0
  6  1  1  0
  6 13  1  0
  7 12  2  0
  7  8  1  0
  8  9  2  0
  9 10  1  0
 11 10  2  0
 12 11  1  0
 13 15  1  0
 13 14  1  0
 15 14  1  0
 16 15  1  0
 17 16  1  0
 18 17  1  0
 18 16  1  0
 19 18  1  0
 20 19  2  0
 21 19  1  0
 22 21  1  0
 23 22  1  0
 24 23  1  0
 24 22  1  0
  2 25  1  0
  2 26  1  0
  3 27  1  0
  3 28  1  0
  4 29  1  0
  5 30  1  0
  7 31  1  0
  9 32  1  0
 11 33  1  0
 13 34  1  1
 14 35  1  0
 14 36  1  0
 15 37  1  6
 16 38  1  1
 17 39  1  0
 17 40  1  0
 18 41  1  6
 22 42  1  0
 23 43  1  0
 23 44  1  0
 24 45  1  0
 24 46  1  0
M  ISO  8  25  13  26  13  27  13  28  13  30  13  31  14  32  14  33  14
M  ISO  8  34  13  35  13  36  13  37  13  38  13  39  13  40  13  41  13
M  ISO  5  42  13  43  13  44  13  45  13  46  13
M  END
>  <minimizedAffinity>  (1) 
-4.16806126

>  <minimizedRMSD>  (1) 
0.61072582

$$$$
