
     RDKit          3D

 26 28  0  0  0  0  0  0  0  0999 V2000
   41.2700   22.3910   36.5800 C   0  0  0  0  0  0  0  0  0  0  0  0
   40.4900   22.9240   37.6310 C   0  0  0  0  0  0  0  0  0  0  0  0
   39.1140   23.0670   37.4050 C   0  0  0  0  0  0  0  0  0  0  0  0
   38.6120   22.6920   36.2080 N   0  0  0  0  0  0  0  0  0  0  0  0
   39.3960   22.1860   35.2270 C   0  0  0  0  0  0  0  0  0  0  0  0
   40.7070   22.0370   35.4080 N   0  0  0  0  0  0  0  0  0  0  0  0
   38.8470   21.7970   33.9730 N   0  0  0  0  0  0  0  0  0  0  0  0
   39.5920   21.8350   32.8330 C   0  0  0  0  0  0  0  0  0  0  0  0
   38.8800   21.4290   31.7730 N   0  0  0  0  0  0  0  0  0  0  0  0
   37.6480   21.1190   32.2240 C   0  0  0  0  0  0  0  0  0  0  0  0
   36.4590   20.6560   31.7090 C   0  0  0  0  0  0  0  0  0  0  0  0
   35.3660   20.4450   32.4860 N   0  0  0  0  0  0  0  0  0  0  0  0
   35.4340   20.6960   33.8100 C   0  0  0  0  0  0  0  0  0  0  0  0
   36.5860   21.1540   34.3680 N   0  0  0  0  0  0  0  0  0  0  0  0
   37.6430   21.3540   33.5950 C   0  0  0  0  0  0  0  0  0  0  0  0
   38.3690   23.6210   38.5270 C   0  0  0  0  0  0  0  0  0  0  0  0
   37.9100   24.8850   38.1910 F   0  0  0  0  0  0  0  0  0  0  0  0
   39.2730   23.8210   39.5680 F   0  0  0  0  0  0  0  0  0  0  0  0
   37.3000   22.8720   38.9160 F   0  0  0  0  0  0  0  0  0  0  0  0
   36.4250   20.4010   30.2930 N   0  0  0  0  0  0  0  0  0  0  0  0
   42.3534   22.2631   36.7208 H   0  0  0  0  0  0  0  0  0  0  0  0
   40.9450   23.2153   38.5892 H   0  0  0  0  0  0  0  0  0  0  0  0
   40.6427   22.1575   32.7885 H   0  0  0  0  0  0  0  0  0  0  0  0
   34.5501   20.5287   34.4431 H   0  0  0  0  0  0  0  0  0  0  0  0
   35.5611   20.0532   29.8529 H   0  0  0  0  0  0  0  0  0  0  0  0
   37.2646   20.5663   29.7196 H   0  0  0  0  0  0  0  0  0  0  0  0
  1  2  2  0
  3  2  1  0
  3 16  1  0
  4  3  2  0
  5  6  2  0
  5  4  1  0
  6  1  1  0
  7  5  1  0
  8  7  1  0
  9 10  1  0
  9  8  2  0
 10 15  2  0
 11 10  1  0
 11 12  2  0
 12 13  1  0
 13 14  2  0
 15  7  1  0
 15 14  1  0
 16 19  1  0
 16 18  1  0
 17 16  1  0
 20 11  1  0
  1 21  1  0
  2 22  1  0
  8 23  1  0
 13 24  1  0
 20 25  1  0
 20 26  1  0
M  ISO  4  21  14  22  14  23  14  24  14
M  END
>  <minimizedAffinity>  (1) 
-5.47815132

>  <minimizedRMSD>  (1) 
0.767378032

$$$$
