
     RDKit          3D

 19 19  0  0  0  0  0  0  0  0999 V2000
   38.0680   24.4020   37.6080 C   0  0  0  0  0  0  0  0  0  0  0  0
   38.5170   24.7550   36.3090 C   0  0  0  0  0  0  0  0  0  0  0  0
   39.6010   24.0480   35.7890 C   0  0  0  0  0  0  0  0  0  0  0  0
   40.1650   23.0670   36.5470 N   0  0  0  0  0  0  0  0  0  0  0  0
   39.7060   22.7630   37.7810 C   0  0  0  0  0  0  0  0  0  0  0  0
   38.6660   23.4290   38.3040 N   0  0  0  0  0  0  0  0  0  0  0  0
   37.7760   25.8450   35.6440 C   0  0  0  0  0  0  0  0  0  0  0  0
   38.4270   27.1830   35.9670 C   0  0  0  0  0  0  0  0  0  0  0  0
   37.6090   25.6770   34.1700 C   0  0  0  0  0  0  0  0  0  0  0  0
   37.2144   24.9372   38.0496 H   0  0  0  0  0  0  0  0  0  0  0  0
   39.9925   24.2780   34.7871 H   0  0  0  0  0  0  0  0  0  0  0  0
   40.1891   21.9630   38.3612 H   0  0  0  0  0  0  0  0  0  0  0  0
   36.7542   25.8102   36.0498 H   0  0  0  0  0  0  0  0  0  0  0  0
   38.4875   27.3074   37.0583 H   0  0  0  0  0  0  0  0  0  0  0  0
   39.4395   27.2112   35.5380 H   0  0  0  0  0  0  0  0  0  0  0  0
   37.8243   27.9971   35.5380 H   0  0  0  0  0  0  0  0  0  0  0  0
   36.8461   24.9095   33.9725 H   0  0  0  0  0  0  0  0  0  0  0  0
   37.2919   26.6320   33.7257 H   0  0  0  0  0  0  0  0  0  0  0  0
   38.5659   25.3657   33.7257 H   0  0  0  0  0  0  0  0  0  0  0  0
  1  6  2  0
  2  1  1  0
  3  2  2  0
  3  4  1  0
  4  5  2  0
  5  6  1  0
  7  8  1  0
  7  2  1  0
  9  7  1  0
  1 10  1  0
  3 11  1  0
  5 12  1  0
  7 13  1  0
  8 14  1  0
  8 15  1  0
  8 16  1  0
  9 17  1  0
  9 18  1  0
  9 19  1  0
M  ISO  8  10  14  11  14  12  14  13   8  14   8  15   8  16   8  17   8
M  ISO  2  18   8  19   8
M  END
>  <minimizedAffinity>  (1) 
-3.21853018

>  <minimizedRMSD>  (1) 
3.89573288

$$$$
