
     RDKit          3D

 23 24  0  0  0  0  0  0  0  0999 V2000
   40.2750   22.4050   35.3960 C   0  0  0  0  0  0  0  0  0  0  0  0
   39.9210   22.8870   36.6790 C   0  0  0  0  0  0  0  0  0  0  0  0
   38.5490   22.9830   36.9620 C   0  0  0  0  0  0  0  0  0  0  0  0
   37.6430   22.6230   36.0210 N   0  0  0  0  0  0  0  0  0  0  0  0
   38.0400   22.1650   34.7990 C   0  0  0  0  0  0  0  0  0  0  0  0
   39.3520   22.0630   34.5060 N   0  0  0  0  0  0  0  0  0  0  0  0
   37.0410   21.7850   33.8060 C   0  0  0  0  0  0  0  0  0  0  0  0
   37.0070   22.4330   32.5890 C   0  0  0  0  0  0  0  0  0  0  0  0
   36.0810   22.0900   31.6470 C   0  0  0  0  0  0  0  0  0  0  0  0
   35.1640   21.0900   31.9040 C   0  0  0  0  0  0  0  0  0  0  0  0
   35.2070   20.4470   33.1330 C   0  0  0  0  0  0  0  0  0  0  0  0
   36.1310   20.7830   34.0800 C   0  0  0  0  0  0  0  0  0  0  0  0
   38.2490   23.4850   38.3070 C   0  0  0  0  0  0  0  0  0  0  0  0
   37.8700   24.7960   38.2390 F   0  0  0  0  0  0  0  0  0  0  0  0
   39.4270   23.4690   39.0290 F   0  0  0  0  0  0  0  0  0  0  0  0
   37.2350   22.7810   38.9250 F   0  0  0  0  0  0  0  0  0  0  0  0
   41.3385   22.3119   35.1309 H   0  0  0  0  0  0  0  0  0  0  0  0
   40.6837   23.1725   37.4184 H   0  0  0  0  0  0  0  0  0  0  0  0
   37.7319   23.2325   32.3760 H   0  0  0  0  0  0  0  0  0  0  0  0
   36.0650   22.6123   30.6790 H   0  0  0  0  0  0  0  0  0  0  0  0
   34.4145   20.8087   31.1496 H   0  0  0  0  0  0  0  0  0  0  0  0
   34.4809   19.6494   33.3487 H   0  0  0  0  0  0  0  0  0  0  0  0
   36.1505   20.2624   35.0488 H   0  0  0  0  0  0  0  0  0  0  0  0
  1  2  2  0
  2  3  1  0
  3 13  1  0
  4  3  2  0
  5  4  1  0
  6  5  2  0
  6  1  1  0
  7 12  1  0
  7  5  1  0
  8  7  2  0
  9 10  2  0
  9  8  1  0
 10 11  1  0
 11 12  2  0
 13 16  1  0
 13 15  1  0
 14 13  1  0
  1 17  1  0
  2 18  1  0
  8 19  1  0
  9 20  1  0
 10 21  1  0
 11 22  1  0
 12 23  1  0
M  ISO  7  17  14  18  14  19  14  20  14  21  14  22  14  23  14
M  END
>  <minimizedAffinity>  (1) 
-5.20938969

>  <minimizedRMSD>  (1) 
1.75833893

$$$$
