
     RDKit          3D

 29 30  0  0  1  0  0  0  0  0999 V2000
   37.8780   26.0990   35.6370 C   0  0  1  0  0  0  0  0  0  0  0  0
   38.0050   24.5760   37.5520 C   0  0  0  0  0  0  0  0  0  0  0  0
   38.4960   24.9390   36.2810 C   0  0  0  0  0  0  0  0  0  0  0  0
   39.5230   24.1630   35.7180 C   0  0  0  0  0  0  0  0  0  0  0  0
   39.9930   23.0960   36.4350 N   0  0  0  0  0  0  0  0  0  0  0  0
   39.4970   22.7810   37.6510 C   0  0  0  0  0  0  0  0  0  0  0  0
   38.5230   23.5080   38.1940 N   0  0  0  0  0  0  0  0  0  0  0  0
   38.7900   27.3210   35.8230 C   0  0  0  0  0  0  0  0  0  0  0  0
   37.4800   25.9420   34.2230 C   0  0  0  0  0  0  0  0  0  0  0  0
   37.0360   27.1790   33.5400 C   0  0  0  0  0  0  0  0  0  0  0  0
   37.5960   27.3480   32.2650 C   0  0  0  0  0  0  0  0  0  0  0  0
   37.3200   28.4210   31.4470 C   0  0  0  0  0  0  0  0  0  0  0  0
   36.4550   29.3970   31.8730 C   0  0  0  0  0  0  0  0  0  0  0  0
   35.9000   29.2380   33.1240 C   0  0  0  0  0  0  0  0  0  0  0  0
   36.1760   28.1690   33.9380 C   0  0  0  0  0  0  0  0  0  0  0  0
   36.9135   26.2325   36.1487 H   0  0  0  0  0  0  0  0  0  0  0  0
   37.2006   25.1627   38.0197 H   0  0  0  0  0  0  0  0  0  0  0  0
   39.9378   24.4061   34.7286 H   0  0  0  0  0  0  0  0  0  0  0  0
   39.9014   21.9162   38.1975 H   0  0  0  0  0  0  0  0  0  0  0  0
   38.9326   27.5120   36.8969 H   0  0  0  0  0  0  0  0  0  0  0  0
   39.7650   27.1258   35.3527 H   0  0  0  0  0  0  0  0  0  0  0  0
   38.3255   28.2002   35.3527 H   0  0  0  0  0  0  0  0  0  0  0  0
   38.3436   25.5425   33.6711 H   0  0  0  0  0  0  0  0  0  0  0  0
   36.6068   25.2730   34.2296 H   0  0  0  0  0  0  0  0  0  0  0  0
   38.2942   26.5811   31.8983 H   0  0  0  0  0  0  0  0  0  0  0  0
   37.7913   28.4952   30.4559 H   0  0  0  0  0  0  0  0  0  0  0  0
   36.2154   30.2672   31.2442 H   0  0  0  0  0  0  0  0  0  0  0  0
   35.2014   30.0059   33.4878 H   0  0  0  0  0  0  0  0  0  0  0  0
   35.6989   28.1053   34.9271 H   0  0  0  0  0  0  0  0  0  0  0  0
  1  8  1  0
  1  3  1  0
  2  7  2  0
  3  2  1  0
  4  3  2  0
  4  5  1  0
  5  6  2  0
  6  7  1  0
  9  1  1  0
 10 15  1  0
 10  9  1  0
 11 10  2  0
 12 13  2  0
 12 11  1  0
 13 14  1  0
 14 15  2  0
  1 16  1  1
  2 17  1  0
  4 18  1  0
  6 19  1  0
  8 20  1  0
  8 21  1  0
  8 22  1  0
  9 23  1  0
  9 24  1  0
 11 25  1  0
 12 26  1  0
 13 27  1  0
 14 28  1  0
 15 29  1  0
M  ISO  8  16   8  17  14  18  14  19  14  20   8  21   8  22   8  23   8
M  ISO  6  24   8  25  14  26  14  27  14  28  14  29  14
M  END
>  <minimizedAffinity>  (1) 
-4.48366833

>  <minimizedRMSD>  (1) 
3.32535243

$$$$
