
     RDKit          3D

 34 35  0  0  1  0  0  0  0  0999 V2000
   37.8220   25.8110   35.2380 C   0  0  1  0  0  0  0  0  0  0  0  0
   37.8400   24.8250   37.4990 C   0  0  0  0  0  0  0  0  0  0  0  0
   38.3850   24.8090   36.1800 C   0  0  0  0  0  0  0  0  0  0  0  0
   39.3640   23.8650   35.9150 C   0  0  0  0  0  0  0  0  0  0  0  0
   39.7520   23.0140   36.9000 N   0  0  0  0  0  0  0  0  0  0  0  0
   39.2020   23.0690   38.1390 C   0  0  0  0  0  0  0  0  0  0  0  0
   38.2450   23.9770   38.4370 N   0  0  0  0  0  0  0  0  0  0  0  0
   38.2320   27.2120   35.7300 C   0  0  0  0  0  0  0  0  0  0  0  0
   38.2150   25.6090   33.8260 C   0  0  0  0  0  0  0  0  0  0  0  0
   37.1950   25.4570   32.8650 N   0  0  0  0  0  0  0  0  0  0  0  0
   36.5990   26.6390   32.3720 C   0  0  0  0  0  0  0  0  0  0  0  0
   35.7080   26.4690   31.1900 C   0  0  0  0  0  0  0  0  0  0  0  0
   35.0880   25.1220   31.0130 C   0  0  0  0  0  0  0  0  0  0  0  0
   35.8370   23.9820   31.6410 C   0  0  0  0  0  0  0  0  0  0  0  0
   37.2890   24.3920   31.9350 C   0  0  0  0  0  0  0  0  0  0  0  0
   36.7284   25.6925   35.2393 H   0  0  0  0  0  0  0  0  0  0  0  0
   37.0613   25.5617   37.7458 H   0  0  0  0  0  0  0  0  0  0  0  0
   39.8224   23.8053   34.9169 H   0  0  0  0  0  0  0  0  0  0  0  0
   39.5396   22.3642   38.9131 H   0  0  0  0  0  0  0  0  0  0  0  0
   38.2366   27.2276   36.8299 H   0  0  0  0  0  0  0  0  0  0  0  0
   39.2381   27.4522   35.3557 H   0  0  0  0  0  0  0  0  0  0  0  0
   37.5141   27.9567   35.3557 H   0  0  0  0  0  0  0  0  0  0  0  0
   38.8170   26.4799   33.5274 H   0  0  0  0  0  0  0  0  0  0  0  0
   38.7367   24.6406   33.8246 H   0  0  0  0  0  0  0  0  0  0  0  0
   36.0027   27.0808   33.1839 H   0  0  0  0  0  0  0  0  0  0  0  0
   37.4300   27.2745   32.0320 H   0  0  0  0  0  0  0  0  0  0  0  0
   34.8936   27.2033   31.2767 H   0  0  0  0  0  0  0  0  0  0  0  0
   36.3569   26.6091   30.3129 H   0  0  0  0  0  0  0  0  0  0  0  0
   34.0810   25.1510   31.4546 H   0  0  0  0  0  0  0  0  0  0  0  0
   35.0898   24.9268   29.9305 H   0  0  0  0  0  0  0  0  0  0  0  0
   35.3429   23.6983   32.5819 H   0  0  0  0  0  0  0  0  0  0  0  0
   35.8407   23.1307   30.9444 H   0  0  0  0  0  0  0  0  0  0  0  0
   37.8471   23.5493   32.3691 H   0  0  0  0  0  0  0  0  0  0  0  0
   37.8241   24.6908   31.0215 H   0  0  0  0  0  0  0  0  0  0  0  0
  1  8  1  0
  1  3  1  0
  2  7  2  0
  3  2  1  0
  4  3  2  0
  4  5  1  0
  5  6  2  0
  6  7  1  0
  9  1  1  0
 10  9  1  0
 11 10  1  0
 12 11  1  0
 13 12  1  0
 13 14  1  0
 14 15  1  0
 15 10  1  0
  1 16  1  6
  2 17  1  0
  4 18  1  0
  6 19  1  0
  8 20  1  0
  8 21  1  0
  8 22  1  0
  9 23  1  0
  9 24  1  0
 11 25  1  0
 11 26  1  0
 12 27  1  0
 12 28  1  0
 13 29  1  0
 13 30  1  0
 14 31  1  0
 14 32  1  0
 15 33  1  0
 15 34  1  0
M  ISO  8  16   8  17  14  18  14  19  14  20   8  21   8  22   8  23   8
M  ISO  8  24   8  25  13  26  13  27  13  28  13  29  13  30  13  31  13
M  ISO  3  32  13  33  13  34  13
M  END
>  <minimizedAffinity>  (1) 
-4.46358967

>  <minimizedRMSD>  (1) 
1.76599216

$$$$
