
     RDKit          3D

 30 31  0  0  1  0  0  0  0  0999 V2000
   38.3500   26.5440   35.4780 C   0  0  1  0  0  0  0  0  0  0  0  0
   37.9280   24.6080   36.9440 C   0  0  0  0  0  0  0  0  0  0  0  0
   38.7170   25.1860   35.9190 C   0  0  0  0  0  0  0  0  0  0  0  0
   39.7710   24.4350   35.4040 C   0  0  0  0  0  0  0  0  0  0  0  0
   39.9980   23.1830   35.9050 N   0  0  0  0  0  0  0  0  0  0  0  0
   39.2110   22.6740   36.8910 C   0  0  0  0  0  0  0  0  0  0  0  0
   38.1820   23.3850   37.4050 N   0  0  0  0  0  0  0  0  0  0  0  0
   39.4910   27.1300   34.6300 C   0  0  0  0  0  0  0  0  0  0  0  0
   37.0460   26.6730   34.7950 C   0  0  0  0  0  0  0  0  0  0  0  0
   37.2080   26.6610   33.3570 N   0  0  0  0  0  0  0  0  0  0  0  0
   37.0610   25.3630   32.7840 C   0  0  0  0  0  0  0  0  0  0  0  0
   36.0830   25.1970   31.6890 C   0  0  0  0  0  0  0  0  0  0  0  0
   35.4380   26.3330   31.2810 O   0  0  0  0  0  0  0  0  0  0  0  0
   36.3950   27.3480   31.2290 C   0  0  0  0  0  0  0  0  0  0  0  0
   36.6210   27.7430   32.6650 C   0  0  0  0  0  0  0  0  0  0  0  0
   38.2100   27.1280   36.3996 H   0  0  0  0  0  0  0  0  0  0  0  0
   37.0895   25.1806   37.3671 H   0  0  0  0  0  0  0  0  0  0  0  0
   40.4105   24.8425   34.6071 H   0  0  0  0  0  0  0  0  0  0  0  0
   39.4156   21.6647   37.2776 H   0  0  0  0  0  0  0  0  0  0  0  0
   40.2718   27.5310   35.2929 H   0  0  0  0  0  0  0  0  0  0  0  0
   39.9190   26.3402   33.9952 H   0  0  0  0  0  0  0  0  0  0  0  0
   39.0984   27.9380   33.9952 H   0  0  0  0  0  0  0  0  0  0  0  0
   36.4007   25.8328   35.0909 H   0  0  0  0  0  0  0  0  0  0  0  0
   36.5915   27.6310   35.0875 H   0  0  0  0  0  0  0  0  0  0  0  0
   37.6571   24.5123   33.1460 H   0  0  0  0  0  0  0  0  0  0  0  0
   35.8849   24.2178   31.2287 H   0  0  0  0  0  0  0  0  0  0  0  0
   37.3276   26.9776   30.7783 H   0  0  0  0  0  0  0  0  0  0  0  0
   36.0640   28.1975   30.6135 H   0  0  0  0  0  0  0  0  0  0  0  0
   37.2922   28.6135   32.7059 H   0  0  0  0  0  0  0  0  0  0  0  0
   35.6599   28.0031   33.1325 H   0  0  0  0  0  0  0  0  0  0  0  0
  1  3  1  0
  2  7  2  0
  3  2  1  0
  4  5  1  0
  4  3  2  0
  5  6  2  0
  6  7  1  0
  8  1  1  0
  9  1  1  0
 10  9  1  0
 11 10  1  0
 12 11  2  0
 13 12  1  0
 14 13  1  0
 14 15  1  0
 15 10  1  0
  1 16  1  1
  2 17  1  0
  4 18  1  0
  6 19  1  0
  8 20  1  0
  8 21  1  0
  8 22  1  0
  9 23  1  0
  9 24  1  0
 11 25  1  0
 12 26  1  0
 14 27  1  0
 14 28  1  0
 15 29  1  0
 15 30  1  0
M  ISO  8  16   8  17  14  18  14  19  14  20   8  21   8  22   8  23   8
M  ISO  7  24   8  25  13  26  13  27  13  28  13  29  13  30  13
M  END
>  <minimizedAffinity>  (1) 
-3.99384236

>  <minimizedRMSD>  (1) 
2.77254415

$$$$
