
     RDKit          3D

 26 27  0  0  1  0  0  0  0  0999 V2000
   38.0030   25.8760   35.2390 C   0  0  1  0  0  0  0  0  0  0  0  0
   37.9410   24.6660   37.3700 C   0  0  0  0  0  0  0  0  0  0  0  0
   38.5550   24.8330   36.1130 C   0  0  0  0  0  0  0  0  0  0  0  0
   39.6240   23.9950   35.7640 C   0  0  0  0  0  0  0  0  0  0  0  0
   40.0110   23.0520   36.6820 N   0  0  0  0  0  0  0  0  0  0  0  0
   39.4060   22.9160   37.8720 C   0  0  0  0  0  0  0  0  0  0  0  0
   38.3750   23.7190   38.2160 N   0  0  0  0  0  0  0  0  0  0  0  0
   38.2420   27.2540   35.8780 C   0  0  0  0  0  0  0  0  0  0  0  0
   38.4220   25.8530   33.8240 C   0  0  0  0  0  0  0  0  0  0  0  0
   37.3380   26.1460   32.9220 N   0  0  0  0  0  0  0  0  0  0  0  0
   36.7290   25.1650   32.2210 C   0  0  0  0  0  0  0  0  0  0  0  0
   35.7150   25.6430   31.4170 C   0  0  0  0  0  0  0  0  0  0  0  0
   35.7200   26.9760   31.6520 N   0  0  0  0  0  0  0  0  0  0  0  0
   36.6880   27.2580   32.5460 C   0  0  0  0  0  0  0  0  0  0  0  0
   36.9283   25.6515   35.1704 H   0  0  0  0  0  0  0  0  0  0  0  0
   37.1015   25.3152   37.6595 H   0  0  0  0  0  0  0  0  0  0  0  0
   40.1319   24.0901   34.7929 H   0  0  0  0  0  0  0  0  0  0  0  0
   39.7526   22.1435   38.5742 H   0  0  0  0  0  0  0  0  0  0  0  0
   38.2253   27.1579   36.9737 H   0  0  0  0  0  0  0  0  0  0  0  0
   39.2208   27.6414   35.5587 H   0  0  0  0  0  0  0  0  0  0  0  0
   37.4509   27.9484   35.5587 H   0  0  0  0  0  0  0  0  0  0  0  0
   39.2140   26.6024   33.6786 H   0  0  0  0  0  0  0  0  0  0  0  0
   38.7790   24.8374   33.5980 H   0  0  0  0  0  0  0  0  0  0  0  0
   37.0102   24.1034   32.2842 H   0  0  0  0  0  0  0  0  0  0  0  0
   35.0570   25.0745   30.7433 H   0  0  0  0  0  0  0  0  0  0  0  0
   36.9155   28.2676   32.9187 H   0  0  0  0  0  0  0  0  0  0  0  0
  1  8  1  0
  1  3  1  0
  2  7  2  0
  3  2  1  0
  4  3  2  0
  4  5  1  0
  5  6  2  0
  6  7  1  0
  9  1  1  0
 10  9  1  0
 11 10  1  0
 12 13  1  0
 12 11  2  0
 13 14  2  0
 14 10  1  0
  1 15  1  6
  2 16  1  0
  4 17  1  0
  6 18  1  0
  8 19  1  0
  8 20  1  0
  8 21  1  0
  9 22  1  0
  9 23  1  0
 11 24  1  0
 12 25  1  0
 14 26  1  0
M  ISO  8  15   8  16  14  17  14  18  14  19   8  20   8  21   8  22   8
M  ISO  4  23   8  24  14  25  14  26  14
M  END
>  <minimizedAffinity>  (1) 
-3.92178822

>  <minimizedRMSD>  (1) 
2.08996177

$$$$
