
     RDKit          3D

 26 27  0  0  1  0  0  0  0  0999 V2000
   37.8880   26.0300   35.7490 C   0  0  1  0  0  0  0  0  0  0  0  0
   38.0710   24.4650   37.6220 C   0  0  0  0  0  0  0  0  0  0  0  0
   38.5630   24.8720   36.3510 C   0  0  0  0  0  0  0  0  0  0  0  0
   39.6150   24.1470   35.7750 C   0  0  0  0  0  0  0  0  0  0  0  0
   40.1070   23.0830   36.4800 N   0  0  0  0  0  0  0  0  0  0  0  0
   39.6230   22.7210   37.6790 C   0  0  0  0  0  0  0  0  0  0  0  0
   38.6180   23.4010   38.2450 N   0  0  0  0  0  0  0  0  0  0  0  0
   38.7950   27.2650   35.8930 C   0  0  0  0  0  0  0  0  0  0  0  0
   37.4720   25.8870   34.3390 C   0  0  0  0  0  0  0  0  0  0  0  0
   36.9340   27.1450   33.7620 C   0  0  0  0  0  0  0  0  0  0  0  0
   37.2240   27.6220   32.4800 C   0  0  0  0  0  0  0  0  0  0  0  0
   36.5520   28.8180   32.2750 C   0  0  0  0  0  0  0  0  0  0  0  0
   35.8700   29.0130   33.4720 C   0  0  0  0  0  0  0  0  0  0  0  0
   36.1200   28.0300   34.2910 O   0  0  0  0  0  0  0  0  0  0  0  0
   36.9440   26.1315   36.3045 H   0  0  0  0  0  0  0  0  0  0  0  0
   37.2460   25.0169   38.0960 H   0  0  0  0  0  0  0  0  0  0  0  0
   40.0290   24.4229   34.7940 H   0  0  0  0  0  0  0  0  0  0  0  0
   40.0570   21.8561   38.2021 H   0  0  0  0  0  0  0  0  0  0  0  0
   38.9536   27.4810   36.9598 H   0  0  0  0  0  0  0  0  0  0  0  0
   39.7637   27.0667   35.4110 H   0  0  0  0  0  0  0  0  0  0  0  0
   38.3159   28.1300   35.4110 H   0  0  0  0  0  0  0  0  0  0  0  0
   38.3443   25.5745   33.7462 H   0  0  0  0  0  0  0  0  0  0  0  0
   36.6654   25.1397   34.3083 H   0  0  0  0  0  0  0  0  0  0  0  0
   37.8810   27.1271   31.7497 H   0  0  0  0  0  0  0  0  0  0  0  0
   36.5570   29.4585   31.3808 H   0  0  0  0  0  0  0  0  0  0  0  0
   35.2167   29.8696   33.6943 H   0  0  0  0  0  0  0  0  0  0  0  0
  1  8  1  0
  1  3  1  0
  2  7  2  0
  3  2  1  0
  4  3  2  0
  4  5  1  0
  5  6  2  0
  6  7  1  0
  9  1  1  0
 10 14  1  0
 10  9  1  0
 11 10  2  0
 12 11  1  0
 12 13  2  0
 13 14  1  0
  1 15  1  1
  2 16  1  0
  4 17  1  0
  6 18  1  0
  8 19  1  0
  8 20  1  0
  8 21  1  0
  9 22  1  0
  9 23  1  0
 11 24  1  0
 12 25  1  0
 13 26  1  0
M  ISO  8  15   8  16  14  17  14  18  14  19   8  20   8  21   8  22   8
M  ISO  4  23   8  24  14  25  14  26  14
M  END
>  <minimizedAffinity>  (1) 
-4.07442665

>  <minimizedRMSD>  (1) 
2.9044497

$$$$
