
     RDKit          3D

 20 20  0  0  1  0  0  0  0  0999 V2000
   38.0420   25.8650   35.3060 C   0  0  1  0  0  0  0  0  0  0  0  0
   37.9960   24.6000   37.4100 C   0  0  0  0  0  0  0  0  0  0  0  0
   38.6140   24.8120   36.1440 C   0  0  0  0  0  0  0  0  0  0  0  0
   39.6910   23.9870   35.8020 C   0  0  0  0  0  0  0  0  0  0  0  0
   40.0850   23.0390   36.6880 N   0  0  0  0  0  0  0  0  0  0  0  0
   39.4850   22.8600   37.8750 C   0  0  0  0  0  0  0  0  0  0  0  0
   38.4440   23.6380   38.2340 N   0  0  0  0  0  0  0  0  0  0  0  0
   38.3370   27.2310   35.9420 C   0  0  0  0  0  0  0  0  0  0  0  0
   38.4260   25.8520   33.8820 C   0  0  0  0  0  0  0  0  0  0  0  0
   37.0490   25.7330   32.7480 S   0  0  0  0  0  0  0  0  0  0  0  0
   36.9618   25.6592   35.2780 H   0  0  0  0  0  0  0  0  0  0  0  0
   37.1461   25.2283   37.7150 H   0  0  0  0  0  0  0  0  0  0  0  0
   40.2060   24.1046   34.8372 H   0  0  0  0  0  0  0  0  0  0  0  0
   39.8439   22.0756   38.5576 H   0  0  0  0  0  0  0  0  0  0  0  0
   38.3168   27.1373   37.0378 H   0  0  0  0  0  0  0  0  0  0  0  0
   39.3307   27.5776   35.6219 H   0  0  0  0  0  0  0  0  0  0  0  0
   37.5749   27.9568   35.6219 H   0  0  0  0  0  0  0  0  0  0  0  0
   38.9719   26.7818   33.6642 H   0  0  0  0  0  0  0  0  0  0  0  0
   39.0376   24.9505   33.7296 H   0  0  0  0  0  0  0  0  0  0  0  0
   35.8810   25.6321   33.4569 H   0  0  0  0  0  0  0  0  0  0  0  0
  1  8  1  0
  1  3  1  0
  2  7  2  0
  3  2  1  0
  4  3  2  0
  4  5  1  0
  5  6  2  0
  6  7  1  0
  9  1  1  0
 10  9  1  0
  1 11  1  6
  2 12  1  0
  4 13  1  0
  6 14  1  0
  8 15  1  0
  8 16  1  0
  8 17  1  0
  9 18  1  0
  9 19  1  0
 10 20  1  0
M  ISO  8  11   8  12  14  13  14  14  14  15   8  16   8  17   8  18   8
M  ISO  2  19   8  20  11
M  END
>  <minimizedAffinity>  (1) 
-3.13897276

>  <minimizedRMSD>  (1) 
0.684450805

$$$$
