
     RDKit          3D

 22 23  0  0  0  0  0  0  0  0999 V2000
   40.3410   22.3810   35.5150 C   0  0  0  0  0  0  0  0  0  0  0  0
   39.9590   22.8700   36.7830 C   0  0  0  0  0  0  0  0  0  0  0  0
   38.6000   23.0150   37.0490 C   0  0  0  0  0  0  0  0  0  0  0  0
   37.7130   22.6790   36.0780 N   0  0  0  0  0  0  0  0  0  0  0  0
   38.1280   22.2100   34.8690 C   0  0  0  0  0  0  0  0  0  0  0  0
   39.4320   22.0650   34.5970 N   0  0  0  0  0  0  0  0  0  0  0  0
   37.1300   21.8580   33.8460 C   0  0  0  0  0  0  0  0  0  0  0  0
   36.2110   20.8590   34.1120 C   0  0  0  0  0  0  0  0  0  0  0  0
   35.2720   20.5220   33.1580 C   0  0  0  0  0  0  0  0  0  0  0  0
   35.2690   21.1910   31.9530 C   0  0  0  0  0  0  0  0  0  0  0  0
   36.2120   22.1950   31.7140 C   0  0  0  0  0  0  0  0  0  0  0  0
   37.1190   22.5040   32.6650 N   0  0  0  0  0  0  0  0  0  0  0  0
   38.2780   23.5240   38.3720 C   0  0  0  0  0  0  0  0  0  0  0  0
   37.8840   24.8300   38.2860 F   0  0  0  0  0  0  0  0  0  0  0  0
   39.4460   23.5220   39.1130 F   0  0  0  0  0  0  0  0  0  0  0  0
   37.2650   22.8230   38.9930 F   0  0  0  0  0  0  0  0  0  0  0  0
   41.4091   22.2592   35.2821 H   0  0  0  0  0  0  0  0  0  0  0  0
   40.7140   23.1293   37.5398 H   0  0  0  0  0  0  0  0  0  0  0  0
   36.2284   20.3355   35.0793 H   0  0  0  0  0  0  0  0  0  0  0  0
   34.5355   19.7296   33.3570 H   0  0  0  0  0  0  0  0  0  0  0  0
   34.5271   20.9358   31.1820 H   0  0  0  0  0  0  0  0  0  0  0  0
   36.2150   22.7317   30.7538 H   0  0  0  0  0  0  0  0  0  0  0  0
  1  2  2  0
  2  3  1  0
  3 13  1  0
  4  3  2  0
  5  4  1  0
  6  5  2  0
  6  1  1  0
  7  8  2  0
  7  5  1  0
  9  8  1  0
 10  9  2  0
 11 10  1  0
 11 12  2  0
 12  7  1  0
 13 16  1  0
 13 15  1  0
 14 13  1  0
  1 17  1  0
  2 18  1  0
  8 19  1  0
  9 20  1  0
 10 21  1  0
 11 22  1  0
M  ISO  6  17  14  18  14  19  14  20  14  21  14  22  14
M  END
>  <minimizedAffinity>  (1) 
-5.07899094

>  <minimizedRMSD>  (1) 
1.6435138

$$$$
