
     RDKit          3D

 29 30  0  0  0  0  0  0  0  0999 V2000
   40.3720   22.3460   35.5520 C   0  0  0  0  0  0  0  0  0  0  0  0
   39.9810   22.8420   36.8220 C   0  0  0  0  0  0  0  0  0  0  0  0
   38.6140   23.0120   37.0490 C   0  0  0  0  0  0  0  0  0  0  0  0
   37.7380   22.7000   36.0600 N   0  0  0  0  0  0  0  0  0  0  0  0
   38.1640   22.2250   34.8530 C   0  0  0  0  0  0  0  0  0  0  0  0
   39.4710   22.0530   34.6090 N   0  0  0  0  0  0  0  0  0  0  0  0
   37.1440   21.9010   33.8060 C   0  0  0  0  0  0  0  0  0  0  0  0
   36.2010   20.8990   34.4460 C   0  0  0  0  0  0  0  0  0  0  0  0
   35.3550   20.2170   33.4020 C   0  0  0  0  0  0  0  0  0  0  0  0
   35.3290   21.1100   32.1780 C   0  0  0  0  0  0  0  0  0  0  0  0
   36.7120   21.0450   31.5630 C   0  0  0  0  0  0  0  0  0  0  0  0
   37.7840   21.3290   32.5750 C   0  0  0  0  0  0  0  0  0  0  0  0
   38.2540   23.5210   38.3640 C   0  0  0  0  0  0  0  0  0  0  0  0
   37.8640   24.8310   38.2770 F   0  0  0  0  0  0  0  0  0  0  0  0
   39.4160   23.5200   39.1290 F   0  0  0  0  0  0  0  0  0  0  0  0
   37.2520   22.8100   38.9830 F   0  0  0  0  0  0  0  0  0  0  0  0
   41.4410   22.1991   35.3382 H   0  0  0  0  0  0  0  0  0  0  0  0
   40.7243   23.0828   37.5963 H   0  0  0  0  0  0  0  0  0  0  0  0
   36.6111   22.8051   33.4764 H   0  0  0  0  0  0  0  0  0  0  0  0
   36.7904   20.1416   34.9835 H   0  0  0  0  0  0  0  0  0  0  0  0
   35.5382   21.4338   35.1422 H   0  0  0  0  0  0  0  0  0  0  0  0
   35.7915   19.2407   33.1447 H   0  0  0  0  0  0  0  0  0  0  0  0
   34.3355   20.0499   33.7798 H   0  0  0  0  0  0  0  0  0  0  0  0
   34.5776   20.7483   31.4606 H   0  0  0  0  0  0  0  0  0  0  0  0
   35.0635   22.1430   32.4471 H   0  0  0  0  0  0  0  0  0  0  0  0
   36.8708   20.0385   31.1485 H   0  0  0  0  0  0  0  0  0  0  0  0
   36.7731   21.8102   30.7751 H   0  0  0  0  0  0  0  0  0  0  0  0
   38.3089   20.3965   32.8299 H   0  0  0  0  0  0  0  0  0  0  0  0
   38.5090   22.0457   32.1619 H   0  0  0  0  0  0  0  0  0  0  0  0
  1  2  2  0
  2  3  1  0
  3 13  1  0
  4  3  2  0
  5  4  1  0
  6  5  2  0
  6  1  1  0
  7  8  1  0
  7  5  1  0
  9  8  1  0
 10  9  1  0
 11 10  1  0
 11 12  1  0
 12  7  1  0
 13 16  1  0
 13 15  1  0
 14 13  1  0
  1 17  1  0
  2 18  1  0
  7 19  1  0
  8 20  1  0
  8 21  1  0
  9 22  1  0
  9 23  1  0
 10 24  1  0
 10 25  1  0
 11 26  1  0
 11 27  1  0
 12 28  1  0
 12 29  1  0
M  ISO  8  17  14  18  14  19  13  20  13  21  13  22  13  23  13  24  13
M  ISO  5  25  13  26  13  27  13  28  13  29  13
M  END
>  <minimizedAffinity>  (1) 
-5.07817936

>  <minimizedRMSD>  (1) 
1.69134176

$$$$
