
     RDKit          3D

 47 50  0  0  1  0  0  0  0  0999 V2000
   37.4320   27.4650   33.3220 C   0  0  2  0  0  0  0  0  0  0  0  0
   36.0460   28.0430   33.1280 C   0  0  0  0  0  0  0  0  0  0  0  0
   36.2740   29.4010   32.5090 C   0  0  0  0  0  0  0  0  0  0  0  0
   36.7160   29.1270   31.1030 C   0  0  0  0  0  0  0  0  0  0  0  0
   37.8030   28.1610   30.9400 C   0  0  0  0  0  0  0  0  0  0  0  0
   38.2020   27.2910   32.0780 C   0  0  0  0  0  0  0  0  0  0  0  0
   39.2430   26.3930   31.7200 C   0  0  0  0  0  0  0  0  0  0  0  0
   39.0410   25.5320   30.7150 N   0  0  0  0  0  0  0  0  0  0  0  0
   39.9640   24.6690   30.2800 C   0  0  0  0  0  0  0  0  0  0  0  0
   41.2020   24.5970   30.8330 N   0  0  0  0  0  0  0  0  0  0  0  0
   41.5120   25.4400   31.8660 C   0  0  0  0  0  0  0  0  0  0  0  0
   42.7780   25.4200   32.3960 C   0  0  0  0  0  0  0  0  0  0  0  0
   43.1150   26.3090   33.3850 C   0  0  0  0  0  0  0  0  0  0  0  0
   42.1300   27.2080   33.8070 C   0  0  0  0  0  0  0  0  0  0  0  0
   40.8800   27.1710   33.2330 C   0  0  0  0  0  0  0  0  0  0  0  0
   40.5070   26.2950   32.2500 C   0  0  0  0  0  0  0  0  0  0  0  0
   37.2320   26.1490   34.0450 C   0  0  0  0  0  0  0  0  0  0  0  0
   37.5900   26.1920   35.4600 C   0  0  1  0  0  0  0  0  0  0  0  0
   37.8130   24.4400   37.1650 C   0  0  0  0  0  0  0  0  0  0  0  0
   38.3050   25.0560   36.0050 C   0  0  0  0  0  0  0  0  0  0  0  0
   39.4590   24.5100   35.4650 C   0  0  0  0  0  0  0  0  0  0  0  0
   40.0590   23.4310   36.0590 N   0  0  0  0  0  0  0  0  0  0  0  0
   39.5330   22.8810   37.1780 C   0  0  0  0  0  0  0  0  0  0  0  0
   38.4160   23.3880   37.7230 N   0  0  0  0  0  0  0  0  0  0  0  0
   38.3910   27.4760   35.7480 C   0  0  0  0  0  0  0  0  0  0  0  0
   38.0450   28.1719   33.9004 H   0  0  0  0  0  0  0  0  0  0  0  0
   35.4518   27.4063   32.4560 H   0  0  0  0  0  0  0  0  0  0  0  0
   35.4884   28.1077   34.0740 H   0  0  0  0  0  0  0  0  0  0  0  0
   35.3432   29.9871   32.5127 H   0  0  0  0  0  0  0  0  0  0  0  0
   37.0208   29.9852   33.0667 H   0  0  0  0  0  0  0  0  0  0  0  0
   35.8459   28.7490   30.5461 H   0  0  0  0  0  0  0  0  0  0  0  0
   37.1150   30.0820   30.7304 H   0  0  0  0  0  0  0  0  0  0  0  0
   38.3251   28.0784   29.9753 H   0  0  0  0  0  0  0  0  0  0  0  0
   39.7128   23.9955   29.4474 H   0  0  0  0  0  0  0  0  0  0  0  0
   43.5190   24.6944   32.0294 H   0  0  0  0  0  0  0  0  0  0  0  0
   44.1213   26.3146   33.8291 H   0  0  0  0  0  0  0  0  0  0  0  0
   42.3539   27.9421   34.5950 H   0  0  0  0  0  0  0  0  0  0  0  0
   40.1306   27.8937   33.5879 H   0  0  0  0  0  0  0  0  0  0  0  0
   36.1719   25.8668   33.9642 H   0  0  0  0  0  0  0  0  0  0  0  0
   37.9008   25.4173   33.5681 H   0  0  0  0  0  0  0  0  0  0  0  0
   36.6176   26.1668   35.9737 H   0  0  0  0  0  0  0  0  0  0  0  0
   36.8991   24.8373   37.6308 H   0  0  0  0  0  0  0  0  0  0  0  0
   39.8956   24.9456   34.5542 H   0  0  0  0  0  0  0  0  0  0  0  0
   40.0236   22.0135   37.6436 H   0  0  0  0  0  0  0  0  0  0  0  0
   38.4790   27.6171   36.8354 H   0  0  0  0  0  0  0  0  0  0  0  0
   39.3950   27.3885   35.3071 H   0  0  0  0  0  0  0  0  0  0  0  0
   37.8709   28.3392   35.3071 H   0  0  0  0  0  0  0  0  0  0  0  0
  1 17  1  0
  2  1  1  0
  3  2  1  0
  4  3  1  0
  5  4  1  0
  5  6  2  0
  6  1  1  0
  7  6  1  0
  7 16  1  0
  8  7  2  0
  9  8  1  0
  9 10  2  0
 10 11  1  0
 11 16  2  0
 11 12  1  0
 12 13  2  0
 13 14  1  0
 15 14  2  0
 16 15  1  0
 17 18  1  0
 18 25  1  0
 18 20  1  0
 19 24  2  0
 20 19  1  0
 21 20  2  0
 21 22  1  0
 22 23  2  0
 23 24  1  0
  1 26  1  1
  2 27  1  0
  2 28  1  0
  3 29  1  0
  3 30  1  0
  4 31  1  0
  4 32  1  0
  5 33  1  0
  9 34  1  0
 12 35  1  0
 13 36  1  0
 14 37  1  0
 15 38  1  0
 17 39  1  0
 17 40  1  0
 18 41  1  1
 19 42  1  0
 21 43  1  0
 23 44  1  0
 25 45  1  0
 25 46  1  0
 25 47  1  0
M  ISO  8  26  13  27  13  28  13  29  13  30  13  31  13  32  13  33  13
M  ISO  8  34  14  35  14  36  14  37  14  38  14  39   8  40   8  41   8
M  ISO  6  42  14  43  14  44  14  45   8  46   8  47   8
M  END
>  <minimizedAffinity>  (1) 
-5.44241714

>  <minimizedRMSD>  (1) 
1.30664587

$$$$
