
     RDKit          3D

 47 50  0  0  1  0  0  0  0  0999 V2000
   37.3520   27.5960   33.4760 C   0  0  2  0  0  0  0  0  0  0  0  0
   35.8810   28.0360   33.4270 C   0  0  0  0  0  0  0  0  0  0  0  0
   35.9510   29.4500   32.8760 C   0  0  0  0  0  0  0  0  0  0  0  0
   36.2540   29.2600   31.4230 C   0  0  0  0  0  0  0  0  0  0  0  0
   37.4160   28.3900   31.1360 C   0  0  0  0  0  0  0  0  0  0  0  0
   38.0340   27.5500   32.1950 C   0  0  0  0  0  0  0  0  0  0  0  0
   39.1110   26.9400   31.5620 N   0  0  0  0  0  0  0  0  0  0  0  0
   39.1820   26.3850   30.3150 C   0  0  0  0  0  0  0  0  0  0  0  0
   40.3820   25.9740   29.9630 N   0  0  0  0  0  0  0  0  0  0  0  0
   41.2160   26.2400   30.9940 C   0  0  0  0  0  0  0  0  0  0  0  0
   42.5680   26.0180   31.0860 C   0  0  0  0  0  0  0  0  0  0  0  0
   43.1740   25.4690   30.1360 O   0  0  0  0  0  0  0  0  0  0  0  0
   43.1840   26.4050   32.2060 N   0  0  0  0  0  0  0  0  0  0  0  0
   42.4410   26.9820   33.1590 C   0  0  0  0  0  0  0  0  0  0  0  0
   43.1050   27.4030   34.3690 N   0  0  0  0  0  0  0  0  0  0  0  0
   41.1540   27.1460   32.9670 N   0  0  0  0  0  0  0  0  0  0  0  0
   40.3970   26.8210   31.9270 C   0  0  0  0  0  0  0  0  0  0  0  0
   37.2930   26.2270   34.1570 C   0  0  0  0  0  0  0  0  0  0  0  0
   37.7440   26.2400   35.5480 C   0  0  1  0  0  0  0  0  0  0  0  0
   37.8930   24.4290   37.2070 C   0  0  0  0  0  0  0  0  0  0  0  0
   38.3940   25.0480   36.0530 C   0  0  0  0  0  0  0  0  0  0  0  0
   39.5010   24.4460   35.4870 C   0  0  0  0  0  0  0  0  0  0  0  0
   40.0460   23.3230   36.0470 N   0  0  0  0  0  0  0  0  0  0  0  0
   39.5180   22.7780   37.1560 C   0  0  0  0  0  0  0  0  0  0  0  0
   38.4430   23.3390   37.7250 N   0  0  0  0  0  0  0  0  0  0  0  0
   38.6250   27.4640   35.7920 C   0  0  0  0  0  0  0  0  0  0  0  0
   37.9601   28.3353   34.0179 H   0  0  0  0  0  0  0  0  0  0  0  0
   35.2975   27.3832   32.7612 H   0  0  0  0  0  0  0  0  0  0  0  0
   35.3854   27.9827   34.4076 H   0  0  0  0  0  0  0  0  0  0  0  0
   34.9907   29.9695   33.0101 H   0  0  0  0  0  0  0  0  0  0  0  0
   36.7050   30.0661   33.3878 H   0  0  0  0  0  0  0  0  0  0  0  0
   35.3685   28.8158   30.9448 H   0  0  0  0  0  0  0  0  0  0  0  0
   36.5095   30.2548   31.0292 H   0  0  0  0  0  0  0  0  0  0  0  0
   37.8311   28.3644   30.1176 H   0  0  0  0  0  0  0  0  0  0  0  0
   38.3054   26.2893   29.6574 H   0  0  0  0  0  0  0  0  0  0  0  0
   44.1965   26.2644   32.3325 H   0  0  0  0  0  0  0  0  0  0  0  0
   42.5653   27.8505   35.1236 H   0  0  0  0  0  0  0  0  0  0  0  0
   44.1186   27.2561   34.4781 H   0  0  0  0  0  0  0  0  0  0  0  0
   36.2520   25.8724   34.1332 H   0  0  0  0  0  0  0  0  0  0  0  0
   37.9760   25.5647   33.6049 H   0  0  0  0  0  0  0  0  0  0  0  0
   36.8088   26.2799   36.1257 H   0  0  0  0  0  0  0  0  0  0  0  0
   37.0113   24.8634   37.7009 H   0  0  0  0  0  0  0  0  0  0  0  0
   39.9485   24.8735   34.5776 H   0  0  0  0  0  0  0  0  0  0  0  0
   39.9669   21.8747   37.5948 H   0  0  0  0  0  0  0  0  0  0  0  0
   38.7397   27.6233   36.8743 H   0  0  0  0  0  0  0  0  0  0  0  0
   39.6138   27.3003   35.3387 H   0  0  0  0  0  0  0  0  0  0  0  0
   38.1559   28.3497   35.3387 H   0  0  0  0  0  0  0  0  0  0  0  0
  1 18  1  0
  2  1  1  0
  3  2  1  0
  4  3  1  0
  5  4  1  0
  5  6  2  0
  6  1  1  0
  7 17  1  0
  7  6  1  0
  8  7  1  0
  9  8  2  0
  9 10  1  0
 10 11  1  0
 10 17  2  0
 11 13  1  0
 12 11  2  0
 13 14  1  0
 14 15  1  0
 16 14  2  0
 17 16  1  0
 18 19  1  0
 19 26  1  0
 19 21  1  0
 20 25  2  0
 21 20  1  0
 22 23  1  0
 22 21  2  0
 23 24  2  0
 24 25  1  0
  1 27  1  1
  2 28  1  0
  2 29  1  0
  3 30  1  0
  3 31  1  0
  4 32  1  0
  4 33  1  0
  5 34  1  0
  8 35  1  0
 13 36  1  0
 15 37  1  0
 15 38  1  0
 18 39  1  0
 18 40  1  0
 19 41  1  1
 20 42  1  0
 22 43  1  0
 24 44  1  0
 26 45  1  0
 26 46  1  0
 26 47  1  0
M  ISO  8  27  13  28  13  29  13  30  13  31  13  32  13  33  13  34  13
M  ISO  8  35  14  36   9  39   8  40   8  41   8  42  14  43  14  44  14
M  ISO  3  45   8  46   8  47   8
M  END
>  <minimizedAffinity>  (1) 
-5.5591898

>  <minimizedRMSD>  (1) 
1.70469451

$$$$
