
     RDKit          3D

 49 52  0  0  1  0  0  0  0  0999 V2000
   37.3600   27.5620   33.3290 C   0  0  2  0  0  0  0  0  0  0  0  0
   35.9560   28.1140   33.1660 C   0  0  0  0  0  0  0  0  0  0  0  0
   36.1620   29.5060   32.5860 C   0  0  0  0  0  0  0  0  0  0  0  0
   36.6030   29.3000   31.1840 C   0  0  0  0  0  0  0  0  0  0  0  0
   37.6970   28.3460   30.9720 C   0  0  0  0  0  0  0  0  0  0  0  0
   38.1060   27.4320   32.0680 C   0  0  0  0  0  0  0  0  0  0  0  0
   39.1320   26.5770   31.5410 C   0  0  0  0  0  0  0  0  0  0  0  0
   39.0580   25.7930   30.4060 C   0  0  0  0  0  0  0  0  0  0  0  0
   40.0190   25.0270   29.8280 C   0  0  0  0  0  0  0  0  0  0  0  0
   41.2380   25.0070   30.4270 C   0  0  0  0  0  0  0  0  0  0  0  0
   41.4480   25.7570   31.5790 C   0  0  0  0  0  0  0  0  0  0  0  0
   42.7330   25.7080   32.0700 C   0  0  0  0  0  0  0  0  0  0  0  0
   43.0380   26.4770   33.1720 C   0  0  0  0  0  0  0  0  0  0  0  0
   42.0390   27.2600   33.7310 C   0  0  0  0  0  0  0  0  0  0  0  0
   40.7920   27.2400   33.1720 C   0  0  0  0  0  0  0  0  0  0  0  0
   40.4050   26.5020   32.0830 C   0  0  0  0  0  0  0  0  0  0  0  0
   37.1820   26.2150   34.0110 C   0  0  0  0  0  0  0  0  0  0  0  0
   37.5900   26.2200   35.4150 C   0  0  1  0  0  0  0  0  0  0  0  0
   37.8760   24.4390   37.0820 C   0  0  0  0  0  0  0  0  0  0  0  0
   38.3200   25.0700   35.9100 C   0  0  0  0  0  0  0  0  0  0  0  0
   39.4410   24.5150   35.3200 C   0  0  0  0  0  0  0  0  0  0  0  0
   40.0440   23.4250   35.8750 N   0  0  0  0  0  0  0  0  0  0  0  0
   39.5740   22.8620   37.0010 C   0  0  0  0  0  0  0  0  0  0  0  0
   38.4870   23.3800   37.5930 N   0  0  0  0  0  0  0  0  0  0  0  0
   38.3780   27.4980   35.7370 C   0  0  0  0  0  0  0  0  0  0  0  0
   37.9719   28.2601   33.9191 H   0  0  0  0  0  0  0  0  0  0  0  0
   35.3692   27.4883   32.4775 H   0  0  0  0  0  0  0  0  0  0  0  0
   35.4000   28.1330   34.1149 H   0  0  0  0  0  0  0  0  0  0  0  0
   35.2207   30.0746   32.6116 H   0  0  0  0  0  0  0  0  0  0  0  0
   36.9029   30.0789   33.1629 H   0  0  0  0  0  0  0  0  0  0  0  0
   35.7346   28.9445   30.6100 H   0  0  0  0  0  0  0  0  0  0  0  0
   37.0004   30.2730   30.8595 H   0  0  0  0  0  0  0  0  0  0  0  0
   38.2139   28.3079   30.0017 H   0  0  0  0  0  0  0  0  0  0  0  0
   38.0822   25.7885   29.8983 H   0  0  0  0  0  0  0  0  0  0  0  0
   39.8189   24.4479   28.9144 H   0  0  0  0  0  0  0  0  0  0  0  0
   42.0533   24.4018   30.0038 H   0  0  0  0  0  0  0  0  0  0  0  0
   43.4954   25.0725   31.5958 H   0  0  0  0  0  0  0  0  0  0  0  0
   44.0517   26.4700   33.5990 H   0  0  0  0  0  0  0  0  0  0  0  0
   42.2470   27.8872   34.6104 H   0  0  0  0  0  0  0  0  0  0  0  0
   40.0263   27.8762   33.6400 H   0  0  0  0  0  0  0  0  0  0  0  0
   36.1199   25.9338   33.9569 H   0  0  0  0  0  0  0  0  0  0  0  0
   37.8281   25.4959   33.4862 H   0  0  0  0  0  0  0  0  0  0  0  0
   36.6288   26.1739   35.9479 H   0  0  0  0  0  0  0  0  0  0  0  0
   36.9886   24.8379   37.5952 H   0  0  0  0  0  0  0  0  0  0  0  0
   39.8485   24.9552   34.3980 H   0  0  0  0  0  0  0  0  0  0  0  0
   40.0761   21.9841   37.4337 H   0  0  0  0  0  0  0  0  0  0  0  0
   38.4520   27.6180   36.8279 H   0  0  0  0  0  0  0  0  0  0  0  0
   39.3877   27.4243   35.3069 H   0  0  0  0  0  0  0  0  0  0  0  0
   37.8587   28.3671   35.3069 H   0  0  0  0  0  0  0  0  0  0  0  0
  1 17  1  0
  2  1  1  0
  3  2  1  0
  4  3  1  0
  5  4  1  0
  5  6  2  0
  6  1  1  0
  7  6  1  0
  7 16  1  0
  8  7  2  0
  9  8  1  0
  9 10  2  0
 10 11  1  0
 11 12  1  0
 11 16  2  0
 12 13  2  0
 13 14  1  0
 15 14  2  0
 16 15  1  0
 17 18  1  0
 18 25  1  0
 18 20  1  0
 19 24  2  0
 20 19  1  0
 21 22  1  0
 21 20  2  0
 22 23  2  0
 23 24  1  0
  1 26  1  1
  2 27  1  0
  2 28  1  0
  3 29  1  0
  3 30  1  0
  4 31  1  0
  4 32  1  0
  5 33  1  0
  8 34  1  0
  9 35  1  0
 10 36  1  0
 12 37  1  0
 13 38  1  0
 14 39  1  0
 15 40  1  0
 17 41  1  0
 17 42  1  0
 18 43  1  1
 19 44  1  0
 21 45  1  0
 23 46  1  0
 25 47  1  0
 25 48  1  0
 25 49  1  0
M  ISO  8  26  13  27  13  28  13  29  13  30  13  31  13  32  13  33  13
M  ISO  8  34  14  35  14  36  14  37  14  38  14  39  14  40  14  41   8
M  ISO  8  42   8  43   8  44  14  45  14  46  14  47   8  48   8  49   8
M  END
>  <minimizedAffinity>  (1) 
-5.48126507

>  <minimizedRMSD>  (1) 
1.35319841

$$$$
