
     RDKit          3D

 43 45  0  0  1  0  0  0  0  0999 V2000
   36.8650   27.6690   33.9070 C   0  0  2  0  0  0  0  0  0  0  0  0
   35.8470   28.6840   34.3590 C   0  0  0  0  0  0  0  0  0  0  0  0
   35.8870   29.7930   33.3180 C   0  0  0  0  0  0  0  0  0  0  0  0
   35.2530   29.2240   32.1220 C   0  0  0  0  0  0  0  0  0  0  0  0
   35.8630   27.9740   31.6530 C   0  0  0  0  0  0  0  0  0  0  0  0
   36.6830   27.1330   32.5560 C   0  0  0  0  0  0  0  0  0  0  0  0
   37.0730   26.0880   31.7170 N   0  0  0  0  0  0  0  0  0  0  0  0
   36.5550   24.8930   31.4680 C   0  0  0  0  0  0  0  0  0  0  0  0
   37.0080   23.8060   30.7830 C   0  0  0  0  0  0  0  0  0  0  0  0
   38.2550   24.0090   30.2450 C   0  0  0  0  0  0  0  0  0  0  0  0
   38.7510   23.0450   29.5910 O   0  0  0  0  0  0  0  0  0  0  0  0
   38.9160   25.1630   30.4020 N   0  0  0  0  0  0  0  0  0  0  0  0
   38.3170   26.1170   31.1060 C   0  0  0  0  0  0  0  0  0  0  0  0
   39.1100   27.1240   31.1420 O   0  0  0  0  0  0  0  0  0  0  0  0
   36.9830   26.6600   35.0020 C   0  0  0  0  0  0  0  0  0  0  0  0
   38.3170   26.5630   35.6090 C   0  0  1  0  0  0  0  0  0  0  0  0
   38.0730   24.6740   37.1580 C   0  0  0  0  0  0  0  0  0  0  0  0
   38.7520   25.2660   36.0830 C   0  0  0  0  0  0  0  0  0  0  0  0
   39.7910   24.5300   35.5560 C   0  0  0  0  0  0  0  0  0  0  0  0
   40.1300   23.3030   36.0550 N   0  0  0  0  0  0  0  0  0  0  0  0
   39.4290   22.7860   37.1000 C   0  0  0  0  0  0  0  0  0  0  0  0
   38.4120   23.4790   37.6340 N   0  0  0  0  0  0  0  0  0  0  0  0
   39.3910   27.1470   34.6750 C   0  0  0  0  0  0  0  0  0  0  0  0
   37.8357   28.1644   33.7579 H   0  0  0  0  0  0  0  0  0  0  0  0
   34.8452   28.2315   34.4000 H   0  0  0  0  0  0  0  0  0  0  0  0
   36.0694   29.0632   35.3673 H   0  0  0  0  0  0  0  0  0  0  0  0
   35.3271   30.6721   33.6697 H   0  0  0  0  0  0  0  0  0  0  0  0
   36.9146   30.1300   33.1167 H   0  0  0  0  0  0  0  0  0  0  0  0
   34.1959   29.0262   32.3533 H   0  0  0  0  0  0  0  0  0  0  0  0
   35.3830   29.9605   31.3154 H   0  0  0  0  0  0  0  0  0  0  0  0
   35.7084   27.6557   30.6115 H   0  0  0  0  0  0  0  0  0  0  0  0
   35.5551   24.7502   31.9036 H   0  0  0  0  0  0  0  0  0  0  0  0
   36.4390   22.8710   30.6732 H   0  0  0  0  0  0  0  0  0  0  0  0
   39.8508   25.3051   29.9935 H   0  0  0  0  0  0  0  0  0  0  0  0
   36.2660   26.9272   35.7923 H   0  0  0  0  0  0  0  0  0  0  0  0
   36.7792   25.6808   34.5441 H   0  0  0  0  0  0  0  0  0  0  0  0
   38.1975   27.1587   36.5260 H   0  0  0  0  0  0  0  0  0  0  0  0
   37.2345   25.2144   37.6217 H   0  0  0  0  0  0  0  0  0  0  0  0
   40.3631   24.9407   34.7110 H   0  0  0  0  0  0  0  0  0  0  0  0
   39.6961   21.7996   37.5071 H   0  0  0  0  0  0  0  0  0  0  0  0
   40.2001   27.5870   35.2765 H   0  0  0  0  0  0  0  0  0  0  0  0
   39.7995   26.3468   34.0403 H   0  0  0  0  0  0  0  0  0  0  0  0
   38.9414   27.9248   34.0403 H   0  0  0  0  0  0  0  0  0  0  0  0
  1  2  1  0
  1 15  1  0
  3  2  1  0
  4  3  1  0
  5  4  1  0
  5  6  2  0
  6  1  1  0
  7  6  1  0
  8  7  1  0
  9  8  2  0
 10 12  1  0
 10  9  1  0
 11 10  2  0
 12 13  1  0
 13 14  2  0
 13  7  1  0
 15 16  1  0
 16 18  1  0
 17 22  2  0
 18 17  1  0
 19 20  1  0
 19 18  2  0
 20 21  2  0
 21 22  1  0
 23 16  1  0
  1 24  1  6
  2 25  1  0
  2 26  1  0
  3 27  1  0
  3 28  1  0
  4 29  1  0
  4 30  1  0
  5 31  1  0
  8 32  1  0
  9 33  1  0
 12 34  1  0
 15 35  1  0
 15 36  1  0
 16 37  1  1
 17 38  1  0
 19 39  1  0
 21 40  1  0
 23 41  1  0
 23 42  1  0
 23 43  1  0
M  ISO  8  24  13  25  13  26  13  27  13  28  13  29  13  30  13  31  13
M  ISO  8  32  14  33  14  34   9  35   8  36   8  37   8  38  14  39  14
M  ISO  4  40  14  41   8  42   8  43   8
M  END
>  <minimizedAffinity>  (1) 
-5.36457443

>  <minimizedRMSD>  (1) 
2.95205879

$$$$
