
     RDKit          3D

 43 45  0  0  1  0  0  0  0  0999 V2000
   37.5510   26.7390   33.2400 C   0  0  2  0  0  0  0  0  0  0  0  0
   36.3070   26.5920   32.3950 C   0  0  0  0  0  0  0  0  0  0  0  0
   36.0740   27.9440   31.7540 C   0  0  0  0  0  0  0  0  0  0  0  0
   37.1450   28.1160   30.7670 C   0  0  0  0  0  0  0  0  0  0  0  0
   38.5070   27.8760   31.2530 C   0  0  0  0  0  0  0  0  0  0  0  0
   38.7490   27.1360   32.5170 C   0  0  0  0  0  0  0  0  0  0  0  0
   40.1890   27.1420   32.5620 C   0  0  0  0  0  0  0  0  0  0  0  0
   41.0510   27.0630   33.6120 C   0  0  0  0  0  0  0  0  0  0  0  0
   42.4030   27.2270   33.6770 C   0  0  0  0  0  0  0  0  0  0  0  0
   42.9830   27.5160   32.4840 C   0  0  0  0  0  0  0  0  0  0  0  0
   42.3060   27.6360   31.3160 C   0  0  0  0  0  0  0  0  0  0  0  0
   40.9680   27.4460   31.4160 C   0  0  0  0  0  0  0  0  0  0  0  0
   37.6590   25.4750   34.0320 C   0  0  0  0  0  0  0  0  0  0  0  0
   37.6910   25.6460   35.4910 C   0  0  1  0  0  0  0  0  0  0  0  0
   37.9950   24.3750   37.5650 C   0  0  0  0  0  0  0  0  0  0  0  0
   38.4370   24.6810   36.2720 C   0  0  0  0  0  0  0  0  0  0  0  0
   39.5590   24.0070   35.8420 C   0  0  0  0  0  0  0  0  0  0  0  0
   40.1990   23.0910   36.6350 N   0  0  0  0  0  0  0  0  0  0  0  0
   39.7170   22.8400   37.8840 C   0  0  0  0  0  0  0  0  0  0  0  0
   38.6290   23.4820   38.3290 N   0  0  0  0  0  0  0  0  0  0  0  0
   38.1450   27.0640   35.8620 C   0  0  0  0  0  0  0  0  0  0  0  0
   37.4576   27.6004   33.9177 H   0  0  0  0  0  0  0  0  0  0  0  0
   36.4587   25.8240   31.6223 H   0  0  0  0  0  0  0  0  0  0  0  0
   35.4436   26.2798   33.0009 H   0  0  0  0  0  0  0  0  0  0  0  0
   35.0917   27.9679   31.2595 H   0  0  0  0  0  0  0  0  0  0  0  0
   36.0835   28.7505   32.5020 H   0  0  0  0  0  0  0  0  0  0  0  0
   37.0972   29.1498   30.3943 H   0  0  0  0  0  0  0  0  0  0  0  0
   36.9649   27.3527   29.9957 H   0  0  0  0  0  0  0  0  0  0  0  0
   39.3630   28.2500   30.6721 H   0  0  0  0  0  0  0  0  0  0  0  0
   40.5747   26.8258   34.5748 H   0  0  0  0  0  0  0  0  0  0  0  0
   42.9732   27.1335   34.6130 H   0  0  0  0  0  0  0  0  0  0  0  0
   44.0731   27.6622   32.4641 H   0  0  0  0  0  0  0  0  0  0  0  0
   42.8031   27.8691   30.3628 H   0  0  0  0  0  0  0  0  0  0  0  0
   40.4062   27.5410   30.4751 H   0  0  0  0  0  0  0  0  0  0  0  0
   36.7932   24.8437   33.7833 H   0  0  0  0  0  0  0  0  0  0  0  0
   38.6258   25.0275   33.7581 H   0  0  0  0  0  0  0  0  0  0  0  0
   36.6442   25.4584   35.7721 H   0  0  0  0  0  0  0  0  0  0  0  0
   37.1033   24.8829   37.9612 H   0  0  0  0  0  0  0  0  0  0  0  0
   39.9517   24.2097   34.8347 H   0  0  0  0  0  0  0  0  0  0  0  0
   40.2232   22.1073   38.5296 H   0  0  0  0  0  0  0  0  0  0  0  0
   38.1770   27.1640   36.9570 H   0  0  0  0  0  0  0  0  0  0  0  0
   39.1471   27.2484   35.4475 H   0  0  0  0  0  0  0  0  0  0  0  0
   37.4363   27.7961   35.4475 H   0  0  0  0  0  0  0  0  0  0  0  0
  1 13  1  0
  2  1  1  0
  3  2  1  0
  4  5  1  0
  4  3  1  0
  5  6  2  0
  6  7  1  0
  6  1  1  0
  7  8  2  0
  8  9  1  0
 10  9  2  0
 11 12  2  0
 11 10  1  0
 12  7  1  0
 13 14  1  0
 14 21  1  0
 14 16  1  0
 15 20  2  0
 16 15  1  0
 17 16  2  0
 17 18  1  0
 18 19  2  0
 19 20  1  0
  1 22  1  1
  2 23  1  0
  2 24  1  0
  3 25  1  0
  3 26  1  0
  4 27  1  0
  4 28  1  0
  5 29  1  0
  8 30  1  0
  9 31  1  0
 10 32  1  0
 11 33  1  0
 12 34  1  0
 13 35  1  0
 13 36  1  0
 14 37  1  1
 15 38  1  0
 17 39  1  0
 19 40  1  0
 21 41  1  0
 21 42  1  0
 21 43  1  0
M  ISO  8  22  13  23  13  24  13  25  13  26  13  27  13  28  13  29  13
M  ISO  8  30  14  31  14  32  14  33  14  34  14  35   8  36   8  37   8
M  ISO  6  38  14  39  14  40  14  41   8  42   8  43   8
M  END
>  <minimizedAffinity>  (1) 
-5.16806316

>  <minimizedRMSD>  (1) 
1.06478

$$$$
