
     RDKit          3D

 44 47  0  0  1  0  0  0  0  0999 V2000
   37.5530   27.4410   33.3030 C   0  0  2  0  0  0  0  0  0  0  0  0
   36.1080   27.8380   32.9720 C   0  0  0  0  0  0  0  0  0  0  0  0
   36.2470   29.2260   32.3670 C   0  0  0  0  0  0  0  0  0  0  0  0
   36.8030   28.9730   31.0020 C   0  0  0  0  0  0  0  0  0  0  0  0
   38.0360   28.1470   30.9690 C   0  0  0  0  0  0  0  0  0  0  0  0
   38.4640   27.3740   32.1700 C   0  0  0  0  0  0  0  0  0  0  0  0
   39.6640   26.7700   31.7820 N   0  0  0  0  0  0  0  0  0  0  0  0
   39.9470   26.1680   30.6050 C   0  0  0  0  0  0  0  0  0  0  0  0
   41.2200   25.7730   30.5060 N   0  0  0  0  0  0  0  0  0  0  0  0
   41.8640   26.1100   31.6520 C   0  0  0  0  0  0  0  0  0  0  0  0
   43.1730   25.9250   31.9780 C   0  0  0  0  0  0  0  0  0  0  0  0
   43.5460   26.3960   33.1810 N   0  0  0  0  0  0  0  0  0  0  0  0
   42.6340   26.9920   33.9440 C   0  0  0  0  0  0  0  0  0  0  0  0
   41.3840   27.1200   33.5330 N   0  0  0  0  0  0  0  0  0  0  0  0
   40.8870   26.7080   32.3920 C   0  0  0  0  0  0  0  0  0  0  0  0
   37.3980   26.0950   34.0190 C   0  0  0  0  0  0  0  0  0  0  0  0
   37.7280   26.1590   35.4420 C   0  0  1  0  0  0  0  0  0  0  0  0
   37.9120   24.4310   37.1820 C   0  0  0  0  0  0  0  0  0  0  0  0
   38.4190   25.0210   36.0170 C   0  0  0  0  0  0  0  0  0  0  0  0
   39.5640   24.4410   35.5120 C   0  0  0  0  0  0  0  0  0  0  0  0
   40.1400   23.3700   36.1280 N   0  0  0  0  0  0  0  0  0  0  0  0
   39.6060   22.8480   37.2450 C   0  0  0  0  0  0  0  0  0  0  0  0
   38.4940   23.3830   37.7630 N   0  0  0  0  0  0  0  0  0  0  0  0
   38.4740   27.4420   35.7600 C   0  0  0  0  0  0  0  0  0  0  0  0
   38.0377   28.2152   33.9159 H   0  0  0  0  0  0  0  0  0  0  0  0
   35.6642   27.1374   32.2494 H   0  0  0  0  0  0  0  0  0  0  0  0
   35.4480   27.8199   33.8518 H   0  0  0  0  0  0  0  0  0  0  0  0
   35.2685   29.7247   32.3042 H   0  0  0  0  0  0  0  0  0  0  0  0
   36.8878   29.8873   32.9687 H   0  0  0  0  0  0  0  0  0  0  0  0
   36.0320   28.4586   30.4096 H   0  0  0  0  0  0  0  0  0  0  0  0
   37.0817   29.9569   30.5968 H   0  0  0  0  0  0  0  0  0  0  0  0
   38.6394   28.1048   30.0502 H   0  0  0  0  0  0  0  0  0  0  0  0
   39.2036   26.0182   29.8082 H   0  0  0  0  0  0  0  0  0  0  0  0
   43.8797   25.4227   31.3010 H   0  0  0  0  0  0  0  0  0  0  0  0
   42.9237   27.3837   34.9302 H   0  0  0  0  0  0  0  0  0  0  0  0
   36.3545   25.7625   33.9166 H   0  0  0  0  0  0  0  0  0  0  0  0
   38.1030   25.3923   33.5509 H   0  0  0  0  0  0  0  0  0  0  0  0
   36.7423   26.1367   35.9297 H   0  0  0  0  0  0  0  0  0  0  0  0
   36.9999   24.8484   37.6336 H   0  0  0  0  0  0  0  0  0  0  0  0
   40.0196   24.8491   34.5977 H   0  0  0  0  0  0  0  0  0  0  0  0
   40.0812   21.9838   37.7321 H   0  0  0  0  0  0  0  0  0  0  0  0
   38.5450   27.5641   36.8509 H   0  0  0  0  0  0  0  0  0  0  0  0
   39.4853   27.3944   35.3298 H   0  0  0  0  0  0  0  0  0  0  0  0
   37.9324   28.2973   35.3298 H   0  0  0  0  0  0  0  0  0  0  0  0
  1 16  1  0
  2  1  1  0
  3  2  1  0
  4  3  1  0
  5  4  1  0
  5  6  2  0
  6  1  1  0
  7  6  1  0
  7 15  1  0
  8  7  1  0
  9  8  2  0
  9 10  1  0
 10 11  2  0
 10 15  1  0
 11 12  1  0
 12 13  2  0
 14 13  1  0
 15 14  2  0
 16 17  1  0
 17 24  1  0
 17 19  1  0
 18 23  2  0
 19 18  1  0
 20 19  2  0
 20 21  1  0
 21 22  2  0
 22 23  1  0
  1 25  1  1
  2 26  1  0
  2 27  1  0
  3 28  1  0
  3 29  1  0
  4 30  1  0
  4 31  1  0
  5 32  1  0
  8 33  1  0
 11 34  1  0
 13 35  1  0
 16 36  1  0
 16 37  1  0
 17 38  1  1
 18 39  1  0
 20 40  1  0
 22 41  1  0
 24 42  1  0
 24 43  1  0
 24 44  1  0
M  ISO  8  25  13  26  13  27  13  28  13  29  13  30  13  31  13  32  13
M  ISO  8  33  14  34  14  35  14  36   8  37   8  38   8  39  14  40  14
M  ISO  4  41  14  42   8  43   8  44   8
M  END
>  <minimizedAffinity>  (1) 
-5.09513378

>  <minimizedRMSD>  (1) 
1.6321547

$$$$
