
     RDKit          3D

 44 46  0  0  1  0  0  0  0  0999 V2000
   36.9840   27.5420   33.1710 C   0  0  2  0  0  0  0  0  0  0  0  0
   36.3420   28.8960   33.1150 C   0  0  0  0  0  0  0  0  0  0  0  0
   36.7630   29.5260   31.8090 C   0  0  0  0  0  0  0  0  0  0  0  0
   36.0610   28.7770   30.7560 C   0  0  0  0  0  0  0  0  0  0  0  0
   36.1900   27.3090   30.8310 C   0  0  0  0  0  0  0  0  0  0  0  0
   36.6500   26.6460   32.0660 C   0  0  0  0  0  0  0  0  0  0  0  0
   36.6640   25.2950   31.6890 N   0  0  0  0  0  0  0  0  0  0  0  0
   35.7290   24.3650   31.6150 C   0  0  0  0  0  0  0  0  0  0  0  0
   35.7830   23.0190   31.4140 C   0  0  0  0  0  0  0  0  0  0  0  0
   37.0540   22.5280   31.2510 C   0  0  0  0  0  0  0  0  0  0  0  0
   37.1990   21.1330   31.0400 N   0  0  0  0  0  0  0  0  0  0  0  0
   38.1130   23.3440   31.2980 N   0  0  0  0  0  0  0  0  0  0  0  0
   37.8820   24.6550   31.5090 C   0  0  0  0  0  0  0  0  0  0  0  0
   39.0360   25.2230   31.5160 O   0  0  0  0  0  0  0  0  0  0  0  0
   36.7120   26.9900   34.5340 C   0  0  0  0  0  0  0  0  0  0  0  0
   37.9110   26.6580   35.3190 C   0  0  1  0  0  0  0  0  0  0  0  0
   38.0070   25.0260   37.1480 C   0  0  0  0  0  0  0  0  0  0  0  0
   38.0530   25.2880   35.7710 C   0  0  0  0  0  0  0  0  0  0  0  0
   38.2180   24.1840   34.9570 C   0  0  0  0  0  0  0  0  0  0  0  0
   38.3260   22.9270   35.4820 N   0  0  0  0  0  0  0  0  0  0  0  0
   38.2740   22.7410   36.8220 C   0  0  0  0  0  0  0  0  0  0  0  0
   38.1160   23.7930   37.6360 N   0  0  0  0  0  0  0  0  0  0  0  0
   39.1840   27.0790   34.5720 C   0  0  0  0  0  0  0  0  0  0  0  0
   38.0685   27.6446   33.0185 H   0  0  0  0  0  0  0  0  0  0  0  0
   35.2470   28.7975   33.1521 H   0  0  0  0  0  0  0  0  0  0  0  0
   36.6525   29.5152   33.9695 H   0  0  0  0  0  0  0  0  0  0  0  0
   36.4711   30.5863   31.7839 H   0  0  0  0  0  0  0  0  0  0  0  0
   37.8540   29.4862   31.6743 H   0  0  0  0  0  0  0  0  0  0  0  0
   36.4594   29.1036   29.7841 H   0  0  0  0  0  0  0  0  0  0  0  0
   34.9912   28.9948   30.8907 H   0  0  0  0  0  0  0  0  0  0  0  0
   35.9389   26.6986   29.9510 H   0  0  0  0  0  0  0  0  0  0  0  0
   34.7075   24.7533   31.7401 H   0  0  0  0  0  0  0  0  0  0  0  0
   34.8869   22.3817   31.3849 H   0  0  0  0  0  0  0  0  0  0  0  0
   36.3663   20.5276   31.0083 H   0  0  0  0  0  0  0  0  0  0  0  0
   38.1370   20.7253   30.9185 H   0  0  0  0  0  0  0  0  0  0  0  0
   36.1321   27.7372   35.0956 H   0  0  0  0  0  0  0  0  0  0  0  0
   36.1718   26.0440   34.3813 H   0  0  0  0  0  0  0  0  0  0  0  0
   37.7647   27.2380   36.2422 H   0  0  0  0  0  0  0  0  0  0  0  0
   37.8768   25.8659   37.8462 H   0  0  0  0  0  0  0  0  0  0  0  0
   38.2633   24.3193   33.8663 H   0  0  0  0  0  0  0  0  0  0  0  0
   38.3613   21.7279   37.2415 H   0  0  0  0  0  0  0  0  0  0  0  0
   39.9673   27.3381   35.2995 H   0  0  0  0  0  0  0  0  0  0  0  0
   39.5305   26.2476   33.9406 H   0  0  0  0  0  0  0  0  0  0  0  0
   38.9665   27.9531   33.9406 H   0  0  0  0  0  0  0  0  0  0  0  0
  1 15  1  0
  2  1  1  0
  3  2  1  0
  4  5  1  0
  4  3  1  0
  5  6  2  0
  6  1  1  0
  7  6  1  0
  8  7  1  0
  9  8  2  0
 10 12  2  0
 10  9  1  0
 11 10  1  0
 12 13  1  0
 13 14  2  0
 13  7  1  0
 15 16  1  0
 16 18  1  0
 17 22  2  0
 18 17  1  0
 19 20  1  0
 19 18  2  0
 20 21  2  0
 21 22  1  0
 23 16  1  0
  1 24  1  1
  2 25  1  0
  2 26  1  0
  3 27  1  0
  3 28  1  0
  4 29  1  0
  4 30  1  0
  5 31  1  0
  8 32  1  0
  9 33  1  0
 11 34  1  0
 11 35  1  0
 15 36  1  0
 15 37  1  0
 16 38  1  1
 17 39  1  0
 19 40  1  0
 21 41  1  0
 23 42  1  0
 23 43  1  0
 23 44  1  0
M  ISO  8  24  13  25  13  26  13  27  13  28  13  29  13  30  13  31  13
M  ISO  8  32  14  33  14  36   8  37   8  38   8  39  14  40  14  41  14
M  ISO  3  42   8  43   8  44   8
M  END
>  <minimizedAffinity>  (1) 
-5.14417982

>  <minimizedRMSD>  (1) 
3.58638906

$$$$
