
     RDKit          3D

 42 44  0  0  1  0  0  0  0  0999 V2000
   37.8670   26.9610   33.4530 C   0  0  2  0  0  0  0  0  0  0  0  0
   36.6540   27.2270   32.5690 C   0  0  0  0  0  0  0  0  0  0  0  0
   36.9290   28.5400   31.8840 C   0  0  0  0  0  0  0  0  0  0  0  0
   38.0280   28.2390   30.9030 C   0  0  0  0  0  0  0  0  0  0  0  0
   39.2000   27.5500   31.4490 C   0  0  0  0  0  0  0  0  0  0  0  0
   39.1440   26.9160   32.7800 C   0  0  0  0  0  0  0  0  0  0  0  0
   40.4370   26.4130   33.0740 C   0  0  0  0  0  0  0  0  0  0  0  0
   41.3610   26.9120   33.9480 C   0  0  0  0  0  0  0  0  0  0  0  0
   42.5640   26.3210   34.2430 C   0  0  0  0  0  0  0  0  0  0  0  0
   42.8920   25.1340   33.6280 C   0  0  0  0  0  0  0  0  0  0  0  0
   41.9320   24.6740   32.7590 C   0  0  0  0  0  0  0  0  0  0  0  0
   40.7750   25.2730   32.4950 N   0  0  0  0  0  0  0  0  0  0  0  0
   37.5260   25.6970   34.2230 C   0  0  0  0  0  0  0  0  0  0  0  0
   37.6940   25.8080   35.6720 C   0  0  1  0  0  0  0  0  0  0  0  0
   38.0550   24.3660   37.6280 C   0  0  0  0  0  0  0  0  0  0  0  0
   38.4420   24.7660   36.3410 C   0  0  0  0  0  0  0  0  0  0  0  0
   39.5360   24.1080   35.8190 C   0  0  0  0  0  0  0  0  0  0  0  0
   40.1780   23.1380   36.5360 N   0  0  0  0  0  0  0  0  0  0  0  0
   39.7640   22.7960   37.7650 C   0  0  0  0  0  0  0  0  0  0  0  0
   38.7050   23.4140   38.2980 N   0  0  0  0  0  0  0  0  0  0  0  0
   38.2970   27.1820   36.0210 C   0  0  0  0  0  0  0  0  0  0  0  0
   38.0361   27.8171   34.1228 H   0  0  0  0  0  0  0  0  0  0  0  0
   36.5372   26.4240   31.8263 H   0  0  0  0  0  0  0  0  0  0  0  0
   35.7240   27.2620   33.1555 H   0  0  0  0  0  0  0  0  0  0  0  0
   36.0306   28.8998   31.3610 H   0  0  0  0  0  0  0  0  0  0  0  0
   37.2131   29.3284   32.5965 H   0  0  0  0  0  0  0  0  0  0  0  0
   38.3673   29.1931   30.4734 H   0  0  0  0  0  0  0  0  0  0  0  0
   37.5907   27.5472   30.1680 H   0  0  0  0  0  0  0  0  0  0  0  0
   40.1291   27.5050   30.8619 H   0  0  0  0  0  0  0  0  0  0  0  0
   41.1226   27.8594   34.4536 H   0  0  0  0  0  0  0  0  0  0  0  0
   43.2552   26.7885   34.9597 H   0  0  0  0  0  0  0  0  0  0  0  0
   43.8365   24.6021   33.8151 H   0  0  0  0  0  0  0  0  0  0  0  0
   42.1388   23.7283   32.2366 H   0  0  0  0  0  0  0  0  0  0  0  0
   36.4761   25.4414   34.0170 H   0  0  0  0  0  0  0  0  0  0  0  0
   38.2304   24.9232   33.8838 H   0  0  0  0  0  0  0  0  0  0  0  0
   36.6722   25.6847   36.0602 H   0  0  0  0  0  0  0  0  0  0  0  0
   37.1884   24.8526   38.0994 H   0  0  0  0  0  0  0  0  0  0  0  0
   39.8963   24.3674   34.8126 H   0  0  0  0  0  0  0  0  0  0  0  0
   40.2915   22.0133   38.3299 H   0  0  0  0  0  0  0  0  0  0  0  0
   38.3461   27.2939   37.1142 H   0  0  0  0  0  0  0  0  0  0  0  0
   39.3102   27.2557   35.5990 H   0  0  0  0  0  0  0  0  0  0  0  0
   37.6653   27.9775   35.5990 H   0  0  0  0  0  0  0  0  0  0  0  0
  1 13  1  0
  2  1  1  0
  3  2  1  0
  4  5  1  0
  4  3  1  0
  5  6  2  0
  6  7  1  0
  6  1  1  0
  7  8  2  0
  8  9  1  0
 10  9  2  0
 11 10  1  0
 12 11  2  0
 12  7  1  0
 13 14  1  0
 14 21  1  0
 14 16  1  0
 15 20  2  0
 16 15  1  0
 17 16  2  0
 17 18  1  0
 18 19  2  0
 19 20  1  0
  1 22  1  1
  2 23  1  0
  2 24  1  0
  3 25  1  0
  3 26  1  0
  4 27  1  0
  4 28  1  0
  5 29  1  0
  8 30  1  0
  9 31  1  0
 10 32  1  0
 11 33  1  0
 13 34  1  0
 13 35  1  0
 14 36  1  1
 15 37  1  0
 17 38  1  0
 19 39  1  0
 21 40  1  0
 21 41  1  0
 21 42  1  0
M  ISO  8  22  13  23  13  24  13  25  13  26  13  27  13  28  13  29  13
M  ISO  8  30  14  31  14  32  14  33  14  34   8  35   8  36   8  37  14
M  ISO  5  38  14  39  14  40   8  41   8  42   8
M  END
>  <minimizedAffinity>  (1) 
-5.03360415

>  <minimizedRMSD>  (1) 
0.672556043

$$$$
