
     RDKit          3D

 48 50  0  0  1  0  0  0  0  0999 V2000
   37.8390   27.0860   33.1400 C   0  0  2  0  0  0  0  0  0  0  0  0
   36.4450   27.0340   32.5970 C   0  0  0  0  0  0  0  0  0  0  0  0
   36.2180   28.4100   31.9660 C   0  0  0  0  0  0  0  0  0  0  0  0
   37.0500   28.4220   30.7360 C   0  0  0  0  0  0  0  0  0  0  0  0
   38.4530   28.0210   30.8810 C   0  0  0  0  0  0  0  0  0  0  0  0
   38.8770   27.3340   32.1090 C   0  0  0  0  0  0  0  0  0  0  0  0
   40.2310   26.9970   32.1420 N   0  0  0  0  0  0  0  0  0  0  0  0
   41.1150   27.3060   31.0090 C   0  0  0  0  0  0  0  0  0  0  0  0
   42.2480   28.2100   31.4740 C   0  0  0  0  0  0  0  0  0  0  0  0
   43.0380   27.4290   32.5010 C   0  0  0  0  0  0  0  0  0  0  0  0
   42.1170   27.2150   33.6940 C   0  0  0  0  0  0  0  0  0  0  0  0
   40.9820   26.3380   33.1970 C   0  0  0  0  0  0  0  0  0  0  0  0
   38.0860   25.7960   33.8800 C   0  0  0  0  0  0  0  0  0  0  0  0
   37.9370   25.9100   35.3320 C   0  0  1  0  0  0  0  0  0  0  0  0
   37.9460   24.6510   37.4320 C   0  0  0  0  0  0  0  0  0  0  0  0
   38.5160   24.8570   36.1560 C   0  0  0  0  0  0  0  0  0  0  0  0
   39.5790   24.0390   35.7630 C   0  0  0  0  0  0  0  0  0  0  0  0
   40.0270   23.0740   36.6180 N   0  0  0  0  0  0  0  0  0  0  0  0
   39.4500   22.9050   37.8420 C   0  0  0  0  0  0  0  0  0  0  0  0
   38.4180   23.6910   38.2400 N   0  0  0  0  0  0  0  0  0  0  0  0
   38.4580   27.2760   35.8190 C   0  0  0  0  0  0  0  0  0  0  0  0
   37.9200   27.9495   33.8166 H   0  0  0  0  0  0  0  0  0  0  0  0
   36.3536   26.2410   31.8401 H   0  0  0  0  0  0  0  0  0  0  0  0
   35.7039   26.8087   33.3780 H   0  0  0  0  0  0  0  0  0  0  0  0
   35.1562   28.5472   31.7137 H   0  0  0  0  0  0  0  0  0  0  0  0
   36.4911   29.2249   32.6525 H   0  0  0  0  0  0  0  0  0  0  0  0
   37.0367   29.4465   30.3356 H   0  0  0  0  0  0  0  0  0  0  0  0
   36.6010   27.6632   30.0783 H   0  0  0  0  0  0  0  0  0  0  0  0
   39.1784   28.2316   30.0813 H   0  0  0  0  0  0  0  0  0  0  0  0
   40.5382   27.8170   30.2240 H   0  0  0  0  0  0  0  0  0  0  0  0
   41.5353   26.3713   30.6094 H   0  0  0  0  0  0  0  0  0  0  0  0
   42.8926   28.4770   30.6236 H   0  0  0  0  0  0  0  0  0  0  0  0
   41.8564   29.1436   31.9042 H   0  0  0  0  0  0  0  0  0  0  0  0
   43.3482   26.4598   32.0833 H   0  0  0  0  0  0  0  0  0  0  0  0
   43.9473   27.9728   32.7967 H   0  0  0  0  0  0  0  0  0  0  0  0
   42.6586   26.7130   34.5093 H   0  0  0  0  0  0  0  0  0  0  0  0
   41.7430   28.1708   34.0897 H   0  0  0  0  0  0  0  0  0  0  0  0
   40.3049   26.1182   34.0356 H   0  0  0  0  0  0  0  0  0  0  0  0
   41.4113   25.4101   32.7911 H   0  0  0  0  0  0  0  0  0  0  0  0
   37.3699   25.0446   33.5158 H   0  0  0  0  0  0  0  0  0  0  0  0
   39.1305   25.5105   33.6865 H   0  0  0  0  0  0  0  0  0  0  0  0
   36.8520   25.7987   35.4748 H   0  0  0  0  0  0  0  0  0  0  0  0
   37.1092   25.2826   37.7649 H   0  0  0  0  0  0  0  0  0  0  0  0
   40.0486   24.1713   34.7771 H   0  0  0  0  0  0  0  0  0  0  0  0
   39.8262   22.1210   38.5157 H   0  0  0  0  0  0  0  0  0  0  0  0
   38.4652   27.2948   36.9188 H   0  0  0  0  0  0  0  0  0  0  0  0
   39.4796   27.4341   35.4429 H   0  0  0  0  0  0  0  0  0  0  0  0
   37.8012   28.0742   35.4429 H   0  0  0  0  0  0  0  0  0  0  0  0
  1 13  1  0
  2  1  1  0
  3  2  1  0
  4  5  1  0
  4  3  1  0
  5  6  2  0
  6  7  1  0
  6  1  1  0
  7 12  1  0
  8  9  1  0
  8  7  1  0
  9 10  1  0
 10 11  1  0
 12 11  1  0
 13 14  1  0
 14 21  1  0
 14 16  1  0
 15 20  2  0
 16 15  1  0
 17 16  2  0
 17 18  1  0
 18 19  2  0
 19 20  1  0
  1 22  1  1
  2 23  1  0
  2 24  1  0
  3 25  1  0
  3 26  1  0
  4 27  1  0
  4 28  1  0
  5 29  1  0
  8 30  1  0
  8 31  1  0
  9 32  1  0
  9 33  1  0
 10 34  1  0
 10 35  1  0
 11 36  1  0
 11 37  1  0
 12 38  1  0
 12 39  1  0
 13 40  1  0
 13 41  1  0
 14 42  1  6
 15 43  1  0
 17 44  1  0
 19 45  1  0
 21 46  1  0
 21 47  1  0
 21 48  1  0
M  ISO  8  22  13  23  13  24  13  25  13  26  13  27  13  28  13  29  13
M  ISO  8  30  13  31  13  32  13  33  13  34  13  35  13  36  13  37  13
M  ISO  8  38  13  39  13  40   8  41   8  42   8  43  14  44  14  45  14
M  ISO  3  46   8  47   8  48   8
M  END
>  <minimizedAffinity>  (1) 
-4.87632179

>  <minimizedRMSD>  (1) 
0.864784181

$$$$
