
     RDKit          3D

 40 42  0  0  1  0  0  0  0  0999 V2000
   38.0020   26.8150   33.4600 C   0  0  2  0  0  0  0  0  0  0  0  0
   36.8750   27.0320   32.4660 C   0  0  0  0  0  0  0  0  0  0  0  0
   37.1800   28.3400   31.7810 C   0  0  0  0  0  0  0  0  0  0  0  0
   38.3670   28.0560   30.9100 C   0  0  0  0  0  0  0  0  0  0  0  0
   39.5160   27.4220   31.5850 C   0  0  0  0  0  0  0  0  0  0  0  0
   39.3490   26.8070   32.9160 C   0  0  0  0  0  0  0  0  0  0  0  0
   40.6300   26.3780   33.3540 C   0  0  0  0  0  0  0  0  0  0  0  0
   41.4450   25.3500   32.9600 C   0  0  0  0  0  0  0  0  0  0  0  0
   42.6200   25.3870   33.6600 C   0  0  0  0  0  0  0  0  0  0  0  0
   42.5390   26.4330   34.4890 N   0  0  0  0  0  0  0  0  0  0  0  0
   41.3840   26.9620   34.2730 N   0  0  0  0  0  0  0  0  0  0  0  0
   37.6190   25.5590   34.2220 C   0  0  0  0  0  0  0  0  0  0  0  0
   37.7180   25.6900   35.6730 C   0  0  1  0  0  0  0  0  0  0  0  0
   38.0460   24.3660   37.7170 C   0  0  0  0  0  0  0  0  0  0  0  0
   38.4490   24.6950   36.4160 C   0  0  0  0  0  0  0  0  0  0  0  0
   39.5450   24.0110   35.9380 C   0  0  0  0  0  0  0  0  0  0  0  0
   40.1990   23.0720   36.6820 N   0  0  0  0  0  0  0  0  0  0  0  0
   39.7590   22.7960   37.9420 C   0  0  0  0  0  0  0  0  0  0  0  0
   38.6940   23.4430   38.4380 N   0  0  0  0  0  0  0  0  0  0  0  0
   38.2470   27.0920   36.0510 C   0  0  0  0  0  0  0  0  0  0  0  0
   38.0870   27.6864   34.1259 H   0  0  0  0  0  0  0  0  0  0  0  0
   36.8475   26.2125   31.7327 H   0  0  0  0  0  0  0  0  0  0  0  0
   35.8941   27.0537   32.9634 H   0  0  0  0  0  0  0  0  0  0  0  0
   36.3236   28.6665   31.1727 H   0  0  0  0  0  0  0  0  0  0  0  0
   37.3806   29.1463   32.5018 H   0  0  0  0  0  0  0  0  0  0  0  0
   38.7096   29.0102   30.4831 H   0  0  0  0  0  0  0  0  0  0  0  0
   38.0220   27.3309   30.1582 H   0  0  0  0  0  0  0  0  0  0  0  0
   40.5004   27.4078   31.0943 H   0  0  0  0  0  0  0  0  0  0  0  0
   41.1918   24.6036   32.1927 H   0  0  0  0  0  0  0  0  0  0  0  0
   43.4665   24.6916   33.5602 H   0  0  0  0  0  0  0  0  0  0  0  0
   43.2521   26.7502   35.1611 H   0  0  0  0  0  0  0  0  0  0  0  0
   36.5795   25.3040   33.9680 H   0  0  0  0  0  0  0  0  0  0  0  0
   38.3325   24.7766   33.9241 H   0  0  0  0  0  0  0  0  0  0  0  0
   36.6765   25.5208   35.9840 H   0  0  0  0  0  0  0  0  0  0  0  0
   37.1770   24.8781   38.1560 H   0  0  0  0  0  0  0  0  0  0  0  0
   39.9055   24.2290   34.9219 H   0  0  0  0  0  0  0  0  0  0  0  0
   40.2776   22.0422   38.5525 H   0  0  0  0  0  0  0  0  0  0  0  0
   38.2830   27.1873   37.1463 H   0  0  0  0  0  0  0  0  0  0  0  0
   39.2576   27.2262   35.6379 H   0  0  0  0  0  0  0  0  0  0  0  0
   37.5770   27.8604   35.6379 H   0  0  0  0  0  0  0  0  0  0  0  0
  1 12  1  0
  2  1  1  0
  3  2  1  0
  4  5  1  0
  4  3  1  0
  5  6  2  0
  6  7  1  0
  6  1  1  0
  7 11  2  0
  8  7  1  0
  8  9  2  0
  9 10  1  0
 11 10  1  0
 12 13  1  0
 13 20  1  0
 13 15  1  0
 14 19  2  0
 15 14  1  0
 16 15  2  0
 16 17  1  0
 17 18  2  0
 18 19  1  0
  1 21  1  1
  2 22  1  0
  2 23  1  0
  3 24  1  0
  3 25  1  0
  4 26  1  0
  4 27  1  0
  5 28  1  0
  8 29  1  0
  9 30  1  0
 10 31  1  0
 12 32  1  0
 12 33  1  0
 13 34  1  1
 14 35  1  0
 16 36  1  0
 18 37  1  0
 20 38  1  0
 20 39  1  0
 20 40  1  0
M  ISO  8  21  13  22  13  23  13  24  13  25  13  26  13  27  13  28  13
M  ISO  8  29  14  30  14  31   9  32   8  33   8  34   8  35  14  36  14
M  ISO  4  37  14  38   8  39   8  40   8
M  END
>  <minimizedAffinity>  (1) 
-4.94789982

>  <minimizedRMSD>  (1) 
0.857057393

$$$$
