
     RDKit          3D

 40 42  0  0  1  0  0  0  0  0999 V2000
   37.9640   26.8700   33.4840 C   0  0  2  0  0  0  0  0  0  0  0  0
   36.8200   27.0840   32.4870 C   0  0  0  0  0  0  0  0  0  0  0  0
   37.1570   28.3810   31.7940 C   0  0  0  0  0  0  0  0  0  0  0  0
   38.3170   28.0630   30.9090 C   0  0  0  0  0  0  0  0  0  0  0  0
   39.4510   27.3950   31.5740 C   0  0  0  0  0  0  0  0  0  0  0  0
   39.2920   26.8040   32.9170 C   0  0  0  0  0  0  0  0  0  0  0  0
   40.5700   26.3370   33.2480 N   0  0  0  0  0  0  0  0  0  0  0  0
   41.4900   26.7160   34.1380 C   0  0  0  0  0  0  0  0  0  0  0  0
   42.5730   25.8830   34.1820 C   0  0  0  0  0  0  0  0  0  0  0  0
   42.3010   24.9210   33.2510 N   0  0  0  0  0  0  0  0  0  0  0  0
   41.1010   25.2290   32.7220 C   0  0  0  0  0  0  0  0  0  0  0  0
   37.5650   25.6290   34.2630 C   0  0  0  0  0  0  0  0  0  0  0  0
   37.7020   25.7520   35.7080 C   0  0  1  0  0  0  0  0  0  0  0  0
   38.0600   24.3600   37.7060 C   0  0  0  0  0  0  0  0  0  0  0  0
   38.4380   24.7220   36.4060 C   0  0  0  0  0  0  0  0  0  0  0  0
   39.5260   24.0360   35.8980 C   0  0  0  0  0  0  0  0  0  0  0  0
   40.1590   23.0850   36.6440 N   0  0  0  0  0  0  0  0  0  0  0  0
   39.7500   22.7800   37.8840 C   0  0  0  0  0  0  0  0  0  0  0  0
   38.7000   23.4250   38.4030 N   0  0  0  0  0  0  0  0  0  0  0  0
   38.2980   27.1280   36.0510 C   0  0  0  0  0  0  0  0  0  0  0  0
   38.0745   27.7529   34.1308 H   0  0  0  0  0  0  0  0  0  0  0  0
   36.7759   26.2569   31.7631 H   0  0  0  0  0  0  0  0  0  0  0  0
   35.8374   27.1176   32.9804 H   0  0  0  0  0  0  0  0  0  0  0  0
   36.3023   28.7331   31.1978 H   0  0  0  0  0  0  0  0  0  0  0  0
   37.3945   29.1804   32.5113 H   0  0  0  0  0  0  0  0  0  0  0  0
   38.6836   29.0058   30.4769 H   0  0  0  0  0  0  0  0  0  0  0  0
   37.9417   27.3516   30.1586 H   0  0  0  0  0  0  0  0  0  0  0  0
   40.4242   27.3367   31.0645 H   0  0  0  0  0  0  0  0  0  0  0  0
   41.3870   27.6088   34.7722 H   0  0  0  0  0  0  0  0  0  0  0  0
   43.4630   25.9682   34.8228 H   0  0  0  0  0  0  0  0  0  0  0  0
   40.6100   24.6316   31.9397 H   0  0  0  0  0  0  0  0  0  0  0  0
   36.5124   25.4045   34.0357 H   0  0  0  0  0  0  0  0  0  0  0  0
   38.2529   24.8294   33.9508 H   0  0  0  0  0  0  0  0  0  0  0  0
   36.6726   25.6268   36.0750 H   0  0  0  0  0  0  0  0  0  0  0  0
   37.2009   24.8686   38.1679 H   0  0  0  0  0  0  0  0  0  0  0  0
   39.8847   24.2593   34.8824 H   0  0  0  0  0  0  0  0  0  0  0  0
   40.2724   22.0078   38.4678 H   0  0  0  0  0  0  0  0  0  0  0  0
   38.3482   27.2438   37.1437 H   0  0  0  0  0  0  0  0  0  0  0  0
   39.3102   27.2051   35.6273 H   0  0  0  0  0  0  0  0  0  0  0  0
   37.6619   27.9191   35.6273 H   0  0  0  0  0  0  0  0  0  0  0  0
  1 12  1  0
  2  1  1  0
  3  2  1  0
  4  5  1  0
  4  3  1  0
  5  6  2  0
  6  7  1  0
  6  1  1  0
  7  8  1  0
  8  9  2  0
 10  9  1  0
 11  7  1  0
 11 10  2  0
 12 13  1  0
 13 20  1  0
 13 15  1  0
 14 19  2  0
 15 14  1  0
 16 15  2  0
 16 17  1  0
 17 18  2  0
 18 19  1  0
  1 21  1  1
  2 22  1  0
  2 23  1  0
  3 24  1  0
  3 25  1  0
  4 26  1  0
  4 27  1  0
  5 28  1  0
  8 29  1  0
  9 30  1  0
 11 31  1  0
 12 32  1  0
 12 33  1  0
 13 34  1  1
 14 35  1  0
 16 36  1  0
 18 37  1  0
 20 38  1  0
 20 39  1  0
 20 40  1  0
M  ISO  8  21  13  22  13  23  13  24  13  25  13  26  13  27  13  28  13
M  ISO  8  29  14  30  14  31  14  32   8  33   8  34   8  35  14  36  14
M  ISO  4  37  14  38   8  39   8  40   8
M  END
>  <minimizedAffinity>  (1) 
-4.7148881

>  <minimizedRMSD>  (1) 
0.825446904

$$$$
