
     RDKit          3D

 36 37  0  0  1  0  0  0  0  0999 V2000
   37.6000   25.8020   34.0630 C   0  0  0  0  0  0  0  0  0  0  0  0
   37.7670   27.0860   33.2990 C   0  0  2  0  0  0  0  0  0  0  0  0
   36.4350   27.4250   32.6870 C   0  0  0  0  0  0  0  0  0  0  0  0
   36.6400   28.7860   32.0200 C   0  0  0  0  0  0  0  0  0  0  0  0
   37.5120   28.5470   30.8460 C   0  0  0  0  0  0  0  0  0  0  0  0
   38.7410   27.7740   31.0770 C   0  0  0  0  0  0  0  0  0  0  0  0
   38.8850   27.0210   32.3280 C   0  0  0  0  0  0  0  0  0  0  0  0
   40.1100   26.2520   32.5570 C   0  0  0  0  0  0  0  0  0  0  0  0
   37.7530   25.9470   35.5110 C   0  0  1  0  0  0  0  0  0  0  0  0
   37.9380   24.5310   37.5070 C   0  0  0  0  0  0  0  0  0  0  0  0
   38.4430   24.8750   36.2250 C   0  0  0  0  0  0  0  0  0  0  0  0
   39.5540   24.1690   35.7160 C   0  0  0  0  0  0  0  0  0  0  0  0
   40.0940   23.1770   36.4900 N   0  0  0  0  0  0  0  0  0  0  0  0
   39.5810   22.8760   37.7170 C   0  0  0  0  0  0  0  0  0  0  0  0
   38.5200   23.5460   38.2110 N   0  0  0  0  0  0  0  0  0  0  0  0
   38.4330   27.2890   35.8520 C   0  0  0  0  0  0  0  0  0  0  0  0
   38.3547   25.0860   33.7054 H   0  0  0  0  0  0  0  0  0  0  0  0
   36.5708   25.4570   33.8846 H   0  0  0  0  0  0  0  0  0  0  0  0
   38.0616   27.9042   33.9726 H   0  0  0  0  0  0  0  0  0  0  0  0
   36.1484   26.6685   31.9416 H   0  0  0  0  0  0  0  0  0  0  0  0
   35.6304   27.4496   33.4367 H   0  0  0  0  0  0  0  0  0  0  0  0
   35.6738   29.2019   31.6983 H   0  0  0  0  0  0  0  0  0  0  0  0
   37.0944   29.5074   32.7151 H   0  0  0  0  0  0  0  0  0  0  0  0
   37.8068   29.5283   30.4457 H   0  0  0  0  0  0  0  0  0  0  0  0
   36.9098   27.9308   30.1621 H   0  0  0  0  0  0  0  0  0  0  0  0
   39.5414   27.7603   30.3225 H   0  0  0  0  0  0  0  0  0  0  0  0
   40.2794   26.1457   33.6387 H   0  0  0  0  0  0  0  0  0  0  0  0
   40.0079   25.2557   32.1022 H   0  0  0  0  0  0  0  0  0  0  0  0
   40.9629   26.7770   32.1022 H   0  0  0  0  0  0  0  0  0  0  0  0
   36.7145   25.8992   35.8705 H   0  0  0  0  0  0  0  0  0  0  0  0
   37.0732   25.0693   37.9221 H   0  0  0  0  0  0  0  0  0  0  0  0
   39.9733   24.4084   34.7276 H   0  0  0  0  0  0  0  0  0  0  0  0
   40.0400   22.0738   38.3135 H   0  0  0  0  0  0  0  0  0  0  0  0
   38.4910   27.4035   36.9445 H   0  0  0  0  0  0  0  0  0  0  0  0
   39.4476   27.3043   35.4273 H   0  0  0  0  0  0  0  0  0  0  0  0
   37.8453   28.1162   35.4273 H   0  0  0  0  0  0  0  0  0  0  0  0
  1  9  1  0
  2  1  1  0
  3  2  1  0
  4  3  1  0
  5  6  1  0
  5  4  1  0
  6  7  2  0
  7  8  1  0
  7  2  1  0
  9 16  1  0
  9 11  1  0
 10 15  2  0
 11 10  1  0
 12 11  2  0
 12 13  1  0
 13 14  2  0
 14 15  1  0
  1 17  1  0
  1 18  1  0
  2 19  1  1
  3 20  1  0
  3 21  1  0
  4 22  1  0
  4 23  1  0
  5 24  1  0
  5 25  1  0
  6 26  1  0
  8 27  1  0
  8 28  1  0
  8 29  1  0
  9 30  1  1
 10 31  1  0
 12 32  1  0
 14 33  1  0
 16 34  1  0
 16 35  1  0
 16 36  1  0
M  ISO  8  17   8  18   8  19  13  20  13  21  13  22  13  23  13  24  13
M  ISO  8  25  13  26  13  27   8  28   8  29   8  30   8  31  14  32  14
M  ISO  4  33  14  34   8  35   8  36   8
M  END
>  <minimizedAffinity>  (1) 
-4.55395508

>  <minimizedRMSD>  (1) 
0.0635654777

$$$$
