
     RDKit          3D

 39 40  0  0  1  0  0  0  0  0999 V2000
   37.6270   25.6550   34.1500 C   0  0  0  0  0  0  0  0  0  0  0  0
   37.8300   26.9490   33.4010 C   0  0  2  0  0  0  0  0  0  0  0  0
   36.5300   27.2490   32.6870 C   0  0  0  0  0  0  0  0  0  0  0  0
   36.7180   28.6100   32.0600 C   0  0  0  0  0  0  0  0  0  0  0  0
   37.7000   28.4220   30.9460 C   0  0  0  0  0  0  0  0  0  0  0  0
   38.9290   27.6870   31.2780 C   0  0  0  0  0  0  0  0  0  0  0  0
   39.0120   26.9270   32.5370 C   0  0  0  0  0  0  0  0  0  0  0  0
   40.2710   26.2320   32.8010 C   0  0  0  0  0  0  0  0  0  0  0  0
   41.1810   27.0360   33.7390 C   0  0  0  0  0  0  0  0  0  0  0  0
   37.7270   25.7870   35.6050 C   0  0  1  0  0  0  0  0  0  0  0  0
   38.0380   24.4210   37.6210 C   0  0  0  0  0  0  0  0  0  0  0  0
   38.4630   24.7550   36.3220 C   0  0  0  0  0  0  0  0  0  0  0  0
   39.5670   24.0560   35.8140 C   0  0  0  0  0  0  0  0  0  0  0  0
   40.1560   23.1090   36.6000 N   0  0  0  0  0  0  0  0  0  0  0  0
   39.7100   22.8260   37.8430 C   0  0  0  0  0  0  0  0  0  0  0  0
   38.6380   23.4950   38.3490 N   0  0  0  0  0  0  0  0  0  0  0  0
   38.3000   27.1660   35.9880 C   0  0  0  0  0  0  0  0  0  0  0  0
   38.3905   24.9377   33.8145 H   0  0  0  0  0  0  0  0  0  0  0  0
   36.6033   25.3175   33.9307 H   0  0  0  0  0  0  0  0  0  0  0  0
   38.0579   27.7736   34.0925 H   0  0  0  0  0  0  0  0  0  0  0  0
   36.3335   26.4929   31.9126 H   0  0  0  0  0  0  0  0  0  0  0  0
   35.6729   27.2324   33.3763 H   0  0  0  0  0  0  0  0  0  0  0  0
   35.7615   28.9844   31.6665 H   0  0  0  0  0  0  0  0  0  0  0  0
   37.0797   29.3444   32.7948 H   0  0  0  0  0  0  0  0  0  0  0  0
   37.9929   29.4192   30.5856 H   0  0  0  0  0  0  0  0  0  0  0  0
   37.1811   27.8033   30.1990 H   0  0  0  0  0  0  0  0  0  0  0  0
   39.7851   27.7045   30.5875 H   0  0  0  0  0  0  0  0  0  0  0  0
   40.0502   25.2600   33.2662 H   0  0  0  0  0  0  0  0  0  0  0  0
   40.7967   26.1023   31.8435 H   0  0  0  0  0  0  0  0  0  0  0  0
   40.9233   26.8084   34.7839 H   0  0  0  0  0  0  0  0  0  0  0  0
   42.2307   26.7649   33.5528 H   0  0  0  0  0  0  0  0  0  0  0  0
   41.0413   28.1111   33.5528 H   0  0  0  0  0  0  0  0  0  0  0  0
   36.6837   25.6635   35.9311 H   0  0  0  0  0  0  0  0  0  0  0  0
   37.1733   24.9508   38.0471 H   0  0  0  0  0  0  0  0  0  0  0  0
   39.9497   24.2663   34.8044 H   0  0  0  0  0  0  0  0  0  0  0  0
   40.2127   22.0555   38.4460 H   0  0  0  0  0  0  0  0  0  0  0  0
   38.3374   27.2561   37.0837 H   0  0  0  0  0  0  0  0  0  0  0  0
   39.3151   27.2683   35.5768 H   0  0  0  0  0  0  0  0  0  0  0  0
   37.6563   27.9576   35.5768 H   0  0  0  0  0  0  0  0  0  0  0  0
  1 10  1  0
  2  1  1  0
  3  2  1  0
  4  3  1  0
  5  6  1  0
  5  4  1  0
  6  7  2  0
  7  8  1  0
  7  2  1  0
  8  9  1  0
 10 17  1  0
 10 12  1  0
 11 16  2  0
 12 11  1  0
 13 12  2  0
 13 14  1  0
 14 15  2  0
 15 16  1  0
  1 18  1  0
  1 19  1  0
  2 20  1  1
  3 21  1  0
  3 22  1  0
  4 23  1  0
  4 24  1  0
  5 25  1  0
  5 26  1  0
  6 27  1  0
  8 28  1  0
  8 29  1  0
  9 30  1  0
  9 31  1  0
  9 32  1  0
 10 33  1  1
 11 34  1  0
 13 35  1  0
 15 36  1  0
 17 37  1  0
 17 38  1  0
 17 39  1  0
M  ISO  8  18   8  19   8  20  13  21  13  22  13  23  13  24  13  25  13
M  ISO  8  26  13  27  13  28   8  29   8  30   8  31   8  32   8  33   8
M  ISO  6  34  14  35  14  36  14  37   8  38   8  39   8
M  END
>  <minimizedAffinity>  (1) 
-4.64754057

>  <minimizedRMSD>  (1) 
0.502397299

$$$$
