
     RDKit          3D

 34 35  0  0  1  0  0  0  0  0999 V2000
   37.5330   25.8260   34.0800 C   0  0  0  0  0  0  0  0  0  0  0  0
   37.7690   27.0910   33.3010 C   0  0  2  0  0  0  0  0  0  0  0  0
   36.4660   27.4940   32.6790 C   0  0  0  0  0  0  0  0  0  0  0  0
   36.7580   28.8360   32.0010 C   0  0  0  0  0  0  0  0  0  0  0  0
   37.5950   28.5090   30.8230 C   0  0  0  0  0  0  0  0  0  0  0  0
   38.7840   27.6840   31.0660 C   0  0  0  0  0  0  0  0  0  0  0  0
   38.8900   26.9460   32.3360 C   0  0  0  0  0  0  0  0  0  0  0  0
   39.9780   26.1720   32.5920 O   0  0  0  0  0  0  0  0  0  0  0  0
   37.7710   25.9610   35.5170 C   0  0  1  0  0  0  0  0  0  0  0  0
   37.9770   24.4450   37.4360 C   0  0  0  0  0  0  0  0  0  0  0  0
   38.4870   24.8750   36.1830 C   0  0  0  0  0  0  0  0  0  0  0  0
   39.6270   24.2370   35.6510 C   0  0  0  0  0  0  0  0  0  0  0  0
   40.1830   23.2210   36.3950 N   0  0  0  0  0  0  0  0  0  0  0  0
   39.6720   22.8380   37.5820 C   0  0  0  0  0  0  0  0  0  0  0  0
   38.5710   23.4500   38.0990 N   0  0  0  0  0  0  0  0  0  0  0  0
   38.4830   27.2950   35.8230 C   0  0  0  0  0  0  0  0  0  0  0  0
   38.2055   25.0482   33.6892 H   0  0  0  0  0  0  0  0  0  0  0  0
   36.4710   25.5680   33.9554 H   0  0  0  0  0  0  0  0  0  0  0  0
   38.0991   27.9040   33.9643 H   0  0  0  0  0  0  0  0  0  0  0  0
   36.1422   26.7476   31.9387 H   0  0  0  0  0  0  0  0  0  0  0  0
   35.6565   27.5693   33.4200 H   0  0  0  0  0  0  0  0  0  0  0  0
   35.8216   29.3193   31.6853 H   0  0  0  0  0  0  0  0  0  0  0  0
   37.2655   29.5357   32.6813 H   0  0  0  0  0  0  0  0  0  0  0  0
   37.9328   29.4579   30.3808 H   0  0  0  0  0  0  0  0  0  0  0  0
   36.9505   27.9010   30.1712 H   0  0  0  0  0  0  0  0  0  0  0  0
   39.5825   27.6179   30.3124 H   0  0  0  0  0  0  0  0  0  0  0  0
   40.0439   25.6781   33.4475 H   0  0  0  0  0  0  0  0  0  0  0  0
   36.7560   25.9234   35.9394 H   0  0  0  0  0  0  0  0  0  0  0  0
   37.0886   24.9337   37.8625 H   0  0  0  0  0  0  0  0  0  0  0  0
   40.0535   24.5385   34.6829 H   0  0  0  0  0  0  0  0  0  0  0  0
   40.1508   22.0202   38.1405 H   0  0  0  0  0  0  0  0  0  0  0  0
   38.5554   27.4306   36.9122 H   0  0  0  0  0  0  0  0  0  0  0  0
   39.4930   27.2799   35.3875 H   0  0  0  0  0  0  0  0  0  0  0  0
   37.9083   28.1257   35.3875 H   0  0  0  0  0  0  0  0  0  0  0  0
  1  9  1  0
  2  1  1  0
  3  2  1  0
  4  3  1  0
  5  6  1  0
  5  4  1  0
  6  7  2  0
  7  8  1  0
  7  2  1  0
  9 16  1  0
  9 11  1  0
 10 15  2  0
 11 10  1  0
 12 11  2  0
 12 13  1  0
 13 14  2  0
 14 15  1  0
  1 17  1  0
  1 18  1  0
  2 19  1  1
  3 20  1  0
  3 21  1  0
  4 22  1  0
  4 23  1  0
  5 24  1  0
  5 25  1  0
  6 26  1  0
  8 27  1  0
  9 28  1  1
 10 29  1  0
 12 30  1  0
 14 31  1  0
 16 32  1  0
 16 33  1  0
 16 34  1  0
M  ISO  8  17   8  18   8  19  13  20  13  21  13  22  13  23  13  24  13
M  ISO  8  25  13  26  13  27   3  28   8  29  14  30  14  31  14  32   8
M  ISO  2  33   8  34   8
M  END
>  <minimizedAffinity>  (1) 
-4.45029163

>  <minimizedRMSD>  (1) 
0.122747108

$$$$
