
     RDKit          3D

 39 41  0  0  1  0  0  0  0  0999 V2000
   37.7860   27.0170   33.4360 C   0  0  2  0  0  0  0  0  0  0  0  0
   36.5190   27.2990   32.6420 C   0  0  0  0  0  0  0  0  0  0  0  0
   36.7500   28.6400   31.9870 C   0  0  0  0  0  0  0  0  0  0  0  0
   37.7470   28.3530   30.9040 C   0  0  0  0  0  0  0  0  0  0  0  0
   38.9700   27.6450   31.3490 C   0  0  0  0  0  0  0  0  0  0  0  0
   39.0140   26.9770   32.6710 C   0  0  0  0  0  0  0  0  0  0  0  0
   40.3660   26.4690   32.8140 C   0  0  0  0  0  0  0  0  0  0  0  0
   40.9290   25.2570   32.1950 C   0  0  0  0  0  0  0  0  0  0  0  0
   42.6480   25.4030   32.7390 S   0  0  0  0  0  0  0  0  0  0  0  0
   42.3810   27.0160   33.6900 C   0  0  0  0  0  0  0  0  0  0  0  0
   41.0290   27.3340   33.5360 N   0  0  0  0  0  0  0  0  0  0  0  0
   37.4860   25.7390   34.2050 C   0  0  0  0  0  0  0  0  0  0  0  0
   37.7190   25.8470   35.6410 C   0  0  1  0  0  0  0  0  0  0  0  0
   38.0450   24.3670   37.5780 C   0  0  0  0  0  0  0  0  0  0  0  0
   38.4490   24.8000   36.3100 C   0  0  0  0  0  0  0  0  0  0  0  0
   39.5460   24.1610   35.7880 C   0  0  0  0  0  0  0  0  0  0  0  0
   40.1970   23.1710   36.4690 N   0  0  0  0  0  0  0  0  0  0  0  0
   39.7500   22.7990   37.6990 C   0  0  0  0  0  0  0  0  0  0  0  0
   38.6810   23.4020   38.2350 N   0  0  0  0  0  0  0  0  0  0  0  0
   38.3310   27.2090   35.9930 C   0  0  0  0  0  0  0  0  0  0  0  0
   38.0098   27.8586   34.1081 H   0  0  0  0  0  0  0  0  0  0  0  0
   36.3598   26.5208   31.8811 H   0  0  0  0  0  0  0  0  0  0  0  0
   35.6254   27.3042   33.2835 H   0  0  0  0  0  0  0  0  0  0  0  0
   35.8146   29.0330   31.5621 H   0  0  0  0  0  0  0  0  0  0  0  0
   37.1065   29.4003   32.6975 H   0  0  0  0  0  0  0  0  0  0  0  0
   38.0510   29.3113   30.4577 H   0  0  0  0  0  0  0  0  0  0  0  0
   37.2439   27.6800   30.1941 H   0  0  0  0  0  0  0  0  0  0  0  0
   39.8524   27.6150   30.6928 H   0  0  0  0  0  0  0  0  0  0  0  0
   40.4439   24.4853   31.5792 H   0  0  0  0  0  0  0  0  0  0  0  0
   43.1360   27.5872   34.2501 H   0  0  0  0  0  0  0  0  0  0  0  0
   36.4298   25.4772   34.0438 H   0  0  0  0  0  0  0  0  0  0  0  0
   38.1736   24.9685   33.8261 H   0  0  0  0  0  0  0  0  0  0  0  0
   36.7001   25.7278   36.0381 H   0  0  0  0  0  0  0  0  0  0  0  0
   37.1707   24.8417   38.0474 H   0  0  0  0  0  0  0  0  0  0  0  0
   39.9116   24.4542   34.7929 H   0  0  0  0  0  0  0  0  0  0  0  0
   40.2671   22.0022   38.2537 H   0  0  0  0  0  0  0  0  0  0  0  0
   38.3797   27.3175   37.0866 H   0  0  0  0  0  0  0  0  0  0  0  0
   39.3453   27.2749   35.5724 H   0  0  0  0  0  0  0  0  0  0  0  0
   37.7068   28.0112   35.5724 H   0  0  0  0  0  0  0  0  0  0  0  0
  1 12  1  0
  2  1  1  0
  3  2  1  0
  4  5  1  0
  4  3  1  0
  5  6  2  0
  6  7  1  0
  6  1  1  0
  7 11  1  0
  8  9  1  0
  8  7  2  0
  9 10  1  0
 11 10  2  0
 12 13  1  0
 13 20  1  0
 13 15  1  0
 14 19  2  0
 15 14  1  0
 16 15  2  0
 16 17  1  0
 17 18  2  0
 18 19  1  0
  1 21  1  1
  2 22  1  0
  2 23  1  0
  3 24  1  0
  3 25  1  0
  4 26  1  0
  4 27  1  0
  5 28  1  0
  8 29  1  0
 10 30  1  0
 12 31  1  0
 12 32  1  0
 13 33  1  1
 14 34  1  0
 16 35  1  0
 18 36  1  0
 20 37  1  0
 20 38  1  0
 20 39  1  0
M  ISO  8  21  13  22  13  23  13  24  13  25  13  26  13  27  13  28  13
M  ISO  8  29  14  30  14  31   8  32   8  33   8  34  14  35  14  36  14
M  ISO  3  37   8  38   8  39   8
M  END
>  <minimizedAffinity>  (1) 
-4.9045887

>  <minimizedRMSD>  (1) 
0.599186182

$$$$
