
     RDKit          3D

 47 50  0  0  1  0  0  0  0  0999 V2000
   37.5050   26.0350   32.9360 C   0  0  0  0  0  0  0  0  0  0  0  0
   37.5350   27.4640   32.4760 C   0  0  2  0  0  0  0  0  0  0  0  0
   36.0750   27.9260   32.5310 C   0  0  0  0  0  0  0  0  0  0  0  0
   36.1500   29.4190   32.2440 C   0  0  0  0  0  0  0  0  0  0  0  0
   36.4020   29.4620   30.7600 C   0  0  0  0  0  0  0  0  0  0  0  0
   37.5710   28.6840   30.3170 C   0  0  0  0  0  0  0  0  0  0  0  0
   38.1880   27.6520   31.1860 C   0  0  0  0  0  0  0  0  0  0  0  0
   39.3190   27.1380   30.4400 C   0  0  0  0  0  0  0  0  0  0  0  0
   39.3480   25.9200   29.6000 C   0  0  0  0  0  0  0  0  0  0  0  0
   41.0420   26.0380   28.9690 S   0  0  0  0  0  0  0  0  0  0  0  0
   41.4520   27.6500   29.8950 C   0  0  0  0  0  0  0  0  0  0  0  0
   40.2920   27.9660   30.5970 N   0  0  0  0  0  0  0  0  0  0  0  0
   38.4650   25.7000   33.9640 C   0  0  1  0  0  0  0  0  0  0  0  0
   40.6080   24.9860   33.0000 C   0  0  0  0  0  0  0  0  0  0  0  0
   39.8640   25.9220   33.7310 C   0  0  0  0  0  0  0  0  0  0  0  0
   40.5590   27.0110   34.1660 C   0  0  0  0  0  0  0  0  0  0  0  0
   41.8920   27.1710   33.9010 N   0  0  0  0  0  0  0  0  0  0  0  0
   42.5550   26.2340   33.1910 C   0  0  0  0  0  0  0  0  0  0  0  0
   41.9060   25.1610   32.7530 N   0  0  0  0  0  0  0  0  0  0  0  0
   38.0600   26.3340   35.3040 C   0  0  0  0  0  0  0  0  0  0  0  0
   37.9990   25.1740   36.2810 C   0  0  0  0  0  0  0  0  0  0  0  0
   38.0100   25.3930   37.6460 C   0  0  0  0  0  0  0  0  0  0  0  0
   37.9550   24.3800   38.5570 C   0  0  0  0  0  0  0  0  0  0  0  0
   37.8870   23.1070   38.1280 N   0  0  0  0  0  0  0  0  0  0  0  0
   37.8760   22.8770   36.7930 C   0  0  0  0  0  0  0  0  0  0  0  0
   37.9300   23.8840   35.9060 N   0  0  0  0  0  0  0  0  0  0  0  0
   37.7009   25.3927   32.0648 H   0  0  0  0  0  0  0  0  0  0  0  0
   36.5119   25.8782   33.3823 H   0  0  0  0  0  0  0  0  0  0  0  0
   38.1644   28.0890   33.1265 H   0  0  0  0  0  0  0  0  0  0  0  0
   35.4729   27.4109   31.7680 H   0  0  0  0  0  0  0  0  0  0  0  0
   35.5968   27.7040   33.4964 H   0  0  0  0  0  0  0  0  0  0  0  0
   35.2045   29.9195   32.4999 H   0  0  0  0  0  0  0  0  0  0  0  0
   36.9222   29.9369   32.8317 H   0  0  0  0  0  0  0  0  0  0  0  0
   35.5120   29.0664   30.2487 H   0  0  0  0  0  0  0  0  0  0  0  0
   36.6111   30.5122   30.5082 H   0  0  0  0  0  0  0  0  0  0  0  0
   37.9961   28.8721   29.3200 H   0  0  0  0  0  0  0  0  0  0  0  0
   38.5699   25.1651   29.4136 H   0  0  0  0  0  0  0  0  0  0  0  0
   42.3988   28.2097   29.8789 H   0  0  0  0  0  0  0  0  0  0  0  0
   38.4003   24.6019   33.9658 H   0  0  0  0  0  0  0  0  0  0  0  0
   40.1075   24.0831   32.6201 H   0  0  0  0  0  0  0  0  0  0  0  0
   40.0333   27.7833   34.7467 H   0  0  0  0  0  0  0  0  0  0  0  0
   43.6267   26.3582   32.9763 H   0  0  0  0  0  0  0  0  0  0  0  0
   38.8097   27.0720   35.6255 H   0  0  0  0  0  0  0  0  0  0  0  0
   37.1017   26.8698   35.2363 H   0  0  0  0  0  0  0  0  0  0  0  0
   38.0655   26.4286   38.0127 H   0  0  0  0  0  0  0  0  0  0  0  0
   37.9662   24.6021   39.6343 H   0  0  0  0  0  0  0  0  0  0  0  0
   37.8216   21.8411   36.4269 H   0  0  0  0  0  0  0  0  0  0  0  0
  1 13  1  0
  2  3  1  0
  2  1  1  0
  4  3  1  0
  5  4  1  0
  6  5  1  0
  6  7  2  0
  7  2  1  0
  8 12  1  0
  8  7  1  0
  9  8  2  0
 10  9  1  0
 10 11  1  0
 11 12  2  0
 13 20  1  0
 14 15  2  0
 15 13  1  0
 15 16  1  0
 17 16  2  0
 18 17  1  0
 19 14  1  0
 19 18  2  0
 20 21  1  0
 21 22  2  0
 22 23  1  0
 24 23  2  0
 25 24  1  0
 26 21  1  0
 26 25  2  0
  1 27  1  0
  1 28  1  0
  2 29  1  1
  3 30  1  0
  3 31  1  0
  4 32  1  0
  4 33  1  0
  5 34  1  0
  5 35  1  0
  6 36  1  0
  9 37  1  0
 11 38  1  0
 13 39  1  1
 14 40  1  0
 16 41  1  0
 18 42  1  0
 20 43  1  0
 20 44  1  0
 22 45  1  0
 23 46  1  0
 25 47  1  0
M  ISO  8  27   8  28   8  29  13  30  13  31  13  32  13  33  13  34  13
M  ISO  8  35  13  36  13  37  14  38  14  39   8  40  14  41  14  42  14
M  ISO  5  43   8  44   8  45  14  46  14  47  14
M  END
>  <minimizedAffinity>  (1) 
-4.61354017

>  <minimizedRMSD>  (1) 
3.51005697

$$$$
