
     RDKit          3D

 46 49  0  0  1  0  0  0  0  0999 V2000
   37.5210   25.9070   33.2720 C   0  0  0  0  0  0  0  0  0  0  0  0
   37.5600   27.3220   32.7700 C   0  0  2  0  0  0  0  0  0  0  0  0
   36.1210   27.8220   32.8710 C   0  0  0  0  0  0  0  0  0  0  0  0
   36.2200   29.3030   32.5330 C   0  0  0  0  0  0  0  0  0  0  0  0
   36.4080   29.2840   31.0350 C   0  0  0  0  0  0  0  0  0  0  0  0
   37.5630   28.4840   30.5870 C   0  0  0  0  0  0  0  0  0  0  0  0
   38.1840   27.4650   31.4650 C   0  0  0  0  0  0  0  0  0  0  0  0
   39.2890   26.9130   30.7040 C   0  0  0  0  0  0  0  0  0  0  0  0
   39.2640   25.7020   29.8550 C   0  0  0  0  0  0  0  0  0  0  0  0
   40.9480   25.7540   29.2030 S   0  0  0  0  0  0  0  0  0  0  0  0
   41.4320   27.3420   30.1330 C   0  0  0  0  0  0  0  0  0  0  0  0
   40.2920   27.6990   30.8530 N   0  0  0  0  0  0  0  0  0  0  0  0
   38.4980   25.5820   34.2900 C   0  0  1  0  0  0  0  0  0  0  0  0
   40.6050   24.8160   33.2800 C   0  0  0  0  0  0  0  0  0  0  0  0
   39.8960   25.7680   34.0180 C   0  0  0  0  0  0  0  0  0  0  0  0
   40.6300   26.8410   34.4260 C   0  0  0  0  0  0  0  0  0  0  0  0
   41.9600   26.9650   34.1310 N   0  0  0  0  0  0  0  0  0  0  0  0
   42.5780   26.0060   33.4140 C   0  0  0  0  0  0  0  0  0  0  0  0
   41.8920   24.9430   32.9990 N   0  0  0  0  0  0  0  0  0  0  0  0
   38.1350   26.2560   35.6190 C   0  0  0  0  0  0  0  0  0  0  0  0
   38.0410   25.0930   36.5870 C   0  0  0  0  0  0  0  0  0  0  0  0
   37.8950   23.7660   36.2300 C   0  0  0  0  0  0  0  0  0  0  0  0
   37.8490   23.0180   37.3490 N   0  0  0  0  0  0  0  0  0  0  0  0
   37.9630   23.8310   38.3930 C   0  0  0  0  0  0  0  0  0  0  0  0
   38.0780   25.0790   37.9310 N   0  0  0  0  0  0  0  0  0  0  0  0
   37.6886   25.2381   32.4150 H   0  0  0  0  0  0  0  0  0  0  0  0
   36.5363   25.7805   33.7456 H   0  0  0  0  0  0  0  0  0  0  0  0
   38.2212   27.9551   33.3799 H   0  0  0  0  0  0  0  0  0  0  0  0
   35.4742   27.2992   32.1511 H   0  0  0  0  0  0  0  0  0  0  0  0
   35.6797   27.6431   33.8626 H   0  0  0  0  0  0  0  0  0  0  0  0
   35.2994   29.8368   32.8114 H   0  0  0  0  0  0  0  0  0  0  0  0
   37.0274   29.8225   33.0699 H   0  0  0  0  0  0  0  0  0  0  0  0
   35.4991   28.8663   30.5773 H   0  0  0  0  0  0  0  0  0  0  0  0
   36.5991   30.3218   30.7244 H   0  0  0  0  0  0  0  0  0  0  0  0
   37.9723   28.6474   29.5791 H   0  0  0  0  0  0  0  0  0  0  0  0
   38.4548   24.9794   29.6733 H   0  0  0  0  0  0  0  0  0  0  0  0
   42.3997   27.8644   30.1082 H   0  0  0  0  0  0  0  0  0  0  0  0
   38.4125   24.4859   34.3258 H   0  0  0  0  0  0  0  0  0  0  0  0
   40.0714   23.9248   32.9180 H   0  0  0  0  0  0  0  0  0  0  0  0
   40.1378   27.6321   35.0107 H   0  0  0  0  0  0  0  0  0  0  0  0
   43.6468   26.1011   33.1721 H   0  0  0  0  0  0  0  0  0  0  0  0
   38.9182   26.9637   35.9285 H   0  0  0  0  0  0  0  0  0  0  0  0
   37.2077   26.8450   35.5632 H   0  0  0  0  0  0  0  0  0  0  0  0
   37.8274   23.3835   35.2009 H   0  0  0  0  0  0  0  0  0  0  0  0
   37.9628   23.5299   39.4510 H   0  0  0  0  0  0  0  0  0  0  0  0
   38.1809   25.9156   38.5229 H   0  0  0  0  0  0  0  0  0  0  0  0
  1 13  1  0
  2  3  1  0
  2  1  1  0
  4  3  1  0
  5  4  1  0
  6  5  1  0
  6  7  2  0
  7  2  1  0
  8 12  1  0
  8  7  1  0
  9  8  2  0
 10  9  1  0
 10 11  1  0
 11 12  2  0
 13 20  1  0
 14 15  2  0
 15 13  1  0
 15 16  1  0
 17 16  2  0
 18 17  1  0
 19 14  1  0
 19 18  2  0
 20 21  1  0
 21 25  1  0
 22 21  2  0
 22 23  1  0
 23 24  2  0
 25 24  1  0
  1 26  1  0
  1 27  1  0
  2 28  1  1
  3 29  1  0
  3 30  1  0
  4 31  1  0
  4 32  1  0
  5 33  1  0
  5 34  1  0
  6 35  1  0
  9 36  1  0
 11 37  1  0
 13 38  1  1
 14 39  1  0
 16 40  1  0
 18 41  1  0
 20 42  1  0
 20 43  1  0
 22 44  1  0
 24 45  1  0
 25 46  1  0
M  ISO  8  26   8  27   8  28  13  29  13  30  13  31  13  32  13  33  13
M  ISO  8  34  13  35  13  36  14  37  14  38   8  39  14  40  14  41  14
M  ISO  5  42   8  43   8  44  14  45  14  46   9
M  END
>  <minimizedAffinity>  (1) 
-4.45600414

>  <minimizedRMSD>  (1) 
3.27029228

$$$$
