
     RDKit          3D

 52 55  0  0  1  0  0  0  0  0999 V2000
   37.0430   26.8080   32.0150 C   0  0  0  0  0  0  0  0  0  0  0  0
   37.9660   27.8360   31.4560 C   0  0  2  0  0  0  0  0  0  0  0  0
   37.3420   28.2280   30.1210 C   0  0  0  0  0  0  0  0  0  0  0  0
   38.1430   29.4300   29.6690 C   0  0  0  0  0  0  0  0  0  0  0  0
   39.4420   28.8450   29.2290 C   0  0  0  0  0  0  0  0  0  0  0  0
   40.0980   27.9630   30.2150 C   0  0  0  0  0  0  0  0  0  0  0  0
   39.3720   27.4330   31.3880 C   0  0  0  0  0  0  0  0  0  0  0  0
   40.3190   26.6910   32.1590 C   0  0  0  0  0  0  0  0  0  0  0  0
   41.0310   25.4820   31.7480 C   0  0  0  0  0  0  0  0  0  0  0  0
   42.1020   25.2390   33.1950 S   0  0  0  0  0  0  0  0  0  0  0  0
   41.4530   26.7620   34.1300 C   0  0  0  0  0  0  0  0  0  0  0  0
   40.5020   27.3160   33.2870 N   0  0  0  0  0  0  0  0  0  0  0  0
   36.8100   26.8430   33.4370 C   0  0  1  0  0  0  0  0  0  0  0  0
   37.6820   26.2560   35.6490 C   0  0  0  0  0  0  0  0  0  0  0  0
   37.4520   25.9240   34.3180 C   0  0  0  0  0  0  0  0  0  0  0  0
   37.8800   24.6940   33.9330 C   0  0  0  0  0  0  0  0  0  0  0  0
   38.5030   23.8270   34.8030 N   0  0  0  0  0  0  0  0  0  0  0  0
   38.6990   24.2100   36.0860 C   0  0  0  0  0  0  0  0  0  0  0  0
   38.2870   25.4160   36.4940 N   0  0  0  0  0  0  0  0  0  0  0  0
   36.9040   28.2620   33.9610 C   0  0  0  0  0  0  0  0  0  0  0  0
   35.5720   28.9370   34.1840 C   0  0  0  0  0  0  0  0  0  0  0  0
   35.1260   29.6950   32.9600 C   0  0  0  0  0  0  0  0  0  0  0  0
   34.3950   30.9210   33.4260 C   0  0  0  0  0  0  0  0  0  0  0  0
   34.7690   31.1390   34.8720 C   0  0  0  0  0  0  0  0  0  0  0  0
   35.8910   30.2010   35.1220 C   0  0  0  0  0  0  0  0  0  0  0  0
   37.4599   25.8197   31.7711 H   0  0  0  0  0  0  0  0  0  0  0  0
   36.0652   27.0235   31.5595 H   0  0  0  0  0  0  0  0  0  0  0  0
   38.0497   28.7040   32.1265 H   0  0  0  0  0  0  0  0  0  0  0  0
   37.4293   27.4066   29.3945 H   0  0  0  0  0  0  0  0  0  0  0  0
   36.2681   28.4491   30.2092 H   0  0  0  0  0  0  0  0  0  0  0  0
   37.6421   29.9441   28.8354 H   0  0  0  0  0  0  0  0  0  0  0  0
   38.2620   30.1846   30.4604 H   0  0  0  0  0  0  0  0  0  0  0  0
   39.2600   28.2593   28.3159 H   0  0  0  0  0  0  0  0  0  0  0  0
   40.1242   29.6943   29.0762 H   0  0  0  0  0  0  0  0  0  0  0  0
   41.1549   27.6934   30.0726 H   0  0  0  0  0  0  0  0  0  0  0  0
   40.9432   24.8888   30.8258 H   0  0  0  0  0  0  0  0  0  0  0  0
   41.7636   27.1238   35.1213 H   0  0  0  0  0  0  0  0  0  0  0  0
   35.7881   26.4375   33.4717 H   0  0  0  0  0  0  0  0  0  0  0  0
   37.3560   27.2399   36.0172 H   0  0  0  0  0  0  0  0  0  0  0  0
   37.7237   24.3794   32.8906 H   0  0  0  0  0  0  0  0  0  0  0  0
   39.1968   23.5303   36.7932 H   0  0  0  0  0  0  0  0  0  0  0  0
   37.4423   28.2391   34.9200 H   0  0  0  0  0  0  0  0  0  0  0  0
   37.4254   28.8466   33.1887 H   0  0  0  0  0  0  0  0  0  0  0  0
   34.8593   28.1717   34.5252 H   0  0  0  0  0  0  0  0  0  0  0  0
   34.4567   29.0673   32.3533 H   0  0  0  0  0  0  0  0  0  0  0  0
   35.9919   29.9735   32.3415 H   0  0  0  0  0  0  0  0  0  0  0  0
   34.6952   31.7910   32.8235 H   0  0  0  0  0  0  0  0  0  0  0  0
   33.3078   30.7928   33.3182 H   0  0  0  0  0  0  0  0  0  0  0  0
   35.0896   32.1783   35.0363 H   0  0  0  0  0  0  0  0  0  0  0  0
   33.9215   30.9608   35.5502 H   0  0  0  0  0  0  0  0  0  0  0  0
   35.9204   29.9027   36.1804 H   0  0  0  0  0  0  0  0  0  0  0  0
   36.8703   30.6505   34.9009 H   0  0  0  0  0  0  0  0  0  0  0  0
  1 13  1  0
  2  1  1  0
  3  2  1  0
  4  3  1  0
  5  4  1  0
  5  6  1  0
  6  7  2  0
  7  2  1  0
  7  8  1  0
  8 12  1  0
  9  8  2  0
  9 10  1  0
 10 11  1  0
 12 11  2  0
 13 20  1  0
 13 15  1  0
 14 19  2  0
 15 14  1  0
 16 15  2  0
 16 17  1  0
 17 18  2  0
 18 19  1  0
 20 21  1  0
 21 25  1  0
 22 23  1  0
 22 21  1  0
 23 24  1  0
 24 25  1  0
  1 26  1  0
  1 27  1  0
  2 28  1  1
  3 29  1  0
  3 30  1  0
  4 31  1  0
  4 32  1  0
  5 33  1  0
  5 34  1  0
  6 35  1  0
  9 36  1  0
 11 37  1  0
 13 38  1  6
 14 39  1  0
 16 40  1  0
 18 41  1  0
 20 42  1  0
 20 43  1  0
 21 44  1  0
 22 45  1  0
 22 46  1  0
 23 47  1  0
 23 48  1  0
 24 49  1  0
 24 50  1  0
 25 51  1  0
 25 52  1  0
M  ISO  8  26   8  27   8  28  13  29  13  30  13  31  13  32  13  33  13
M  ISO  8  34  13  35  13  36  14  37  14  38   8  39  14  40  14  41  14
M  ISO  8  42   8  43   8  44  13  45  13  46  13  47  13  48  13  49  13
M  ISO  3  50  13  51  13  52  13
M  END
>  <minimizedAffinity>  (1) 
-4.51519299

>  <minimizedRMSD>  (1) 
2.22954583

$$$$
