
     RDKit          3D

 40 42  0  0  1  0  0  0  0  0999 V2000
   37.7230   27.2770   33.0250 C   0  0  2  0  0  0  0  0  0  0  0  0
   36.4580   27.6420   32.2390 C   0  0  0  0  0  0  0  0  0  0  0  0
   36.7840   28.9790   31.6040 C   0  0  0  0  0  0  0  0  0  0  0  0
   37.7260   28.6030   30.4850 C   0  0  0  0  0  0  0  0  0  0  0  0
   38.8860   27.8030   30.9110 C   0  0  0  0  0  0  0  0  0  0  0  0
   38.9180   27.1250   32.2120 C   0  0  0  0  0  0  0  0  0  0  0  0
   40.2220   26.4860   32.3030 C   0  0  0  0  0  0  0  0  0  0  0  0
   40.6260   25.1990   31.6980 C   0  0  0  0  0  0  0  0  0  0  0  0
   42.3820   25.1960   32.1600 S   0  0  0  0  0  0  0  0  0  0  0  0
   42.3230   26.8610   33.0670 C   0  0  0  0  0  0  0  0  0  0  0  0
   41.0020   27.3030   32.9630 N   0  0  0  0  0  0  0  0  0  0  0  0
   37.3480   26.0400   33.7940 C   0  0  0  0  0  0  0  0  0  0  0  0
   37.7240   26.0540   35.1910 C   0  0  1  0  0  0  0  0  0  0  0  0
   37.7880   24.1200   36.7060 C   0  0  0  0  0  0  0  0  0  0  0  0
   38.4150   24.9240   35.7520 C   0  0  0  0  0  0  0  0  0  0  0  0
   39.6810   24.5440   35.4160 C   0  0  0  0  0  0  0  0  0  0  0  0
   40.2820   23.4530   35.9770 N   0  0  0  0  0  0  0  0  0  0  0  0
   39.6200   22.7170   36.8940 C   0  0  0  0  0  0  0  0  0  0  0  0
   38.3760   23.0610   37.2480 N   0  0  0  0  0  0  0  0  0  0  0  0
   38.4850   27.3440   35.5360 C   0  0  0  0  0  0  0  0  0  0  0  0
   38.3310   27.3800   36.9570 O   0  0  0  0  0  0  0  0  0  0  0  0
   38.0232   28.0978   33.6930 H   0  0  0  0  0  0  0  0  0  0  0  0
   36.2463   26.8860   31.4685 H   0  0  0  0  0  0  0  0  0  0  0  0
   35.5643   27.6875   32.8788 H   0  0  0  0  0  0  0  0  0  0  0  0
   35.8769   29.4620   31.2117 H   0  0  0  0  0  0  0  0  0  0  0  0
   37.2178   29.7007   32.3117 H   0  0  0  0  0  0  0  0  0  0  0  0
   38.0978   29.5291   30.0222 H   0  0  0  0  0  0  0  0  0  0  0  0
   37.1511   27.9764   29.7872 H   0  0  0  0  0  0  0  0  0  0  0  0
   39.7505   27.7111   30.2371 H   0  0  0  0  0  0  0  0  0  0  0  0
   40.0366   24.4609   31.1342 H   0  0  0  0  0  0  0  0  0  0  0  0
   43.1565   27.3725   33.5706 H   0  0  0  0  0  0  0  0  0  0  0  0
   36.2563   25.9189   33.7351 H   0  0  0  0  0  0  0  0  0  0  0  0
   37.9036   25.2099   33.3332 H   0  0  0  0  0  0  0  0  0  0  0  0
   36.7380   25.9933   35.6748 H   0  0  0  0  0  0  0  0  0  0  0  0
   36.7653   24.3747   37.0210 H   0  0  0  0  0  0  0  0  0  0  0  0
   40.2349   25.1338   34.6708 H   0  0  0  0  0  0  0  0  0  0  0  0
   40.1007   21.8382   37.3486 H   0  0  0  0  0  0  0  0  0  0  0  0
   39.5440   27.2781   35.2460 H   0  0  0  0  0  0  0  0  0  0  0  0
   38.1157   28.2408   35.0171 H   0  0  0  0  0  0  0  0  0  0  0  0
   39.1988   27.1771   37.3882 H   0  0  0  0  0  0  0  0  0  0  0  0
  1 12  1  0
  2  1  1  0
  3  2  1  0
  4  5  1  0
  4  3  1  0
  5  6  2  0
  6  7  1  0
  6  1  1  0
  7 11  1  0
  8  9  1  0
  8  7  2  0
  9 10  1  0
 11 10  2  0
 12 13  1  0
 13 20  1  0
 13 15  1  0
 14 19  2  0
 15 14  1  0
 16 15  2  0
 16 17  1  0
 17 18  2  0
 18 19  1  0
 20 21  1  0
  1 22  1  1
  2 23  1  0
  2 24  1  0
  3 25  1  0
  3 26  1  0
  4 27  1  0
  4 28  1  0
  5 29  1  0
  8 30  1  0
 10 31  1  0
 12 32  1  0
 12 33  1  0
 13 34  1  1
 14 35  1  0
 16 36  1  0
 18 37  1  0
 20 38  1  0
 20 39  1  0
 21 40  1  0
M  ISO  8  22  13  23  13  24  13  25  13  26  13  27  13  28  13  29  13
M  ISO  8  30  14  31  14  32   8  33   8  34   8  35  14  36  14  37  14
M  ISO  3  38   8  39   8  40   3
M  END
>  <minimizedAffinity>  (1) 
-4.6069541

>  <minimizedRMSD>  (1) 
0.617039323

$$$$
