
     RDKit          3D

 18 19  0  0  0  0  0  0  0  0999 V2000
   38.5020   27.2290   33.1560 C   0  0  0  0  0  0  0  0  0  0  0  0
   39.7350   26.8690   33.7380 C   0  0  0  0  0  0  0  0  0  0  0  0
   39.8210   26.8550   35.1440 C   0  0  0  0  0  0  0  0  0  0  0  0
   38.7200   27.1850   35.8510 N   0  0  0  0  0  0  0  0  0  0  0  0
   37.5660   27.5220   35.2550 C   0  0  0  0  0  0  0  0  0  0  0  0
   37.4370   27.5490   33.9270 N   0  0  0  0  0  0  0  0  0  0  0  0
   38.4520   27.2310   31.6880 C   0  0  0  0  0  0  0  0  0  0  0  0
   39.5360   27.4170   31.0830 O   0  0  0  0  0  0  0  0  0  0  0  0
   37.2570   27.0350   31.0190 O   0  0  0  0  0  0  0  0  0  0  0  0
   36.5770   25.8240   31.0720 C   0  0  0  0  0  0  0  0  0  0  0  0
   35.2350   25.8190   31.1480 N   0  0  0  0  0  0  0  0  0  0  0  0
   34.7900   24.6010   31.1880 O   0  0  0  0  0  0  0  0  0  0  0  0
   35.8470   23.8270   31.1380 C   0  0  0  0  0  0  0  0  0  0  0  0
   36.9840   24.5450   31.0640 N   0  0  0  0  0  0  0  0  0  0  0  0
   40.6022   26.6074   33.1139 H   0  0  0  0  0  0  0  0  0  0  0  0
   40.7586   26.5829   35.6509 H   0  0  0  0  0  0  0  0  0  0  0  0
   36.6997   27.7841   35.8802 H   0  0  0  0  0  0  0  0  0  0  0  0
   35.8098   22.7278   31.1544 H   0  0  0  0  0  0  0  0  0  0  0  0
  1  2  2  0
  1  6  1  0
  2  3  1  0
  3  4  2  0
  5  4  1  0
  6  5  2  0
  7  1  1  0
  8  7  2  0
  9 10  1  0
  9  7  1  0
 10 11  2  0
 11 12  1  0
 13 12  1  0
 14 10  1  0
 14 13  2  0
  2 15  1  0
  3 16  1  0
  5 17  1  0
 13 18  1  0
M  ISO  4  15  14  16  14  17  14  18  14
M  END
>  <minimizedAffinity>  (1) 
-3.4337492

>  <minimizedRMSD>  (1) 
8.16878414

$$$$
