
     RDKit          3D

 13 13  0  0  0  0  0  0  0  0999 V2000
   38.1590   23.8190   36.8560 C   0  0  0  0  0  0  0  0  0  0  0  0
   38.0910   22.5980   36.1660 C   0  0  0  0  0  0  0  0  0  0  0  0
   38.0340   22.6260   34.7570 C   0  0  0  0  0  0  0  0  0  0  0  0
   38.0500   23.8390   34.1450 N   0  0  0  0  0  0  0  0  0  0  0  0
   38.1160   24.9860   34.8420 C   0  0  0  0  0  0  0  0  0  0  0  0
   38.1700   24.9860   36.1830 N   0  0  0  0  0  0  0  0  0  0  0  0
   38.2170   23.7460   38.3130 C   0  0  0  0  0  0  0  0  0  0  0  0
   37.9780   24.7870   38.9610 O   0  0  0  0  0  0  0  0  0  0  0  0
   38.5270   22.5590   38.9560 O   0  0  0  0  0  0  0  0  0  0  0  0
   38.0824   21.6427   36.7112 H   0  0  0  0  0  0  0  0  0  0  0  0
   37.9784   21.6958   34.1724 H   0  0  0  0  0  0  0  0  0  0  0  0
   38.1260   25.9445   34.3024 H   0  0  0  0  0  0  0  0  0  0  0  0
   38.5622   22.5262   39.9448 H   0  0  0  0  0  0  0  0  0  0  0  0
  1  7  1  0
  2  1  2  0
  3  2  1  0
  4  3  2  0
  4  5  1  0
  5  6  2  0
  6  1  1  0
  7  9  1  0
  7  8  2  0
  2 10  1  0
  3 11  1  0
  5 12  1  0
  9 13  1  0
M  ISO  4  10  14  11  14  12  14  13   3
M  END
>  <minimizedAffinity>  (1) 
-3.38905406

>  <minimizedRMSD>  (1) 
3.20565701

$$$$
