
     RDKit          3D

 20 21  0  0  0  0  0  0  0  0999 V2000
   38.6130   25.4960   34.7820 C   0  0  0  0  0  0  0  0  0  0  0  0
   39.6800   24.5740   34.7370 C   0  0  0  0  0  0  0  0  0  0  0  0
   39.7940   23.6550   35.7880 C   0  0  0  0  0  0  0  0  0  0  0  0
   38.8780   23.6990   36.7870 N   0  0  0  0  0  0  0  0  0  0  0  0
   37.8740   24.5900   36.7980 C   0  0  0  0  0  0  0  0  0  0  0  0
   37.7260   25.4950   35.8050 N   0  0  0  0  0  0  0  0  0  0  0  0
   38.5130   26.4480   33.6730 C   0  0  0  0  0  0  0  0  0  0  0  0
   39.5490   27.0240   33.2990 O   0  0  0  0  0  0  0  0  0  0  0  0
   37.2900   26.6780   33.0820 O   0  0  0  0  0  0  0  0  0  0  0  0
   36.5830   25.7470   32.3370 C   0  0  0  0  0  0  0  0  0  0  0  0
   35.6430   26.2500   31.4520 C   0  0  0  0  0  0  0  0  0  0  0  0
   35.0620   25.1480   30.8180 C   0  0  0  0  0  0  0  0  0  0  0  0
   35.6810   24.0550   31.3530 C   0  0  0  0  0  0  0  0  0  0  0  0
   36.5680   24.4370   32.2410 O   0  0  0  0  0  0  0  0  0  0  0  0
   40.3986   24.5767   33.9042 H   0  0  0  0  0  0  0  0  0  0  0  0
   40.6076   22.9149   35.8026 H   0  0  0  0  0  0  0  0  0  0  0  0
   37.1570   24.5835   37.6322 H   0  0  0  0  0  0  0  0  0  0  0  0
   35.4012   27.3095   31.2816 H   0  0  0  0  0  0  0  0  0  0  0  0
   34.2736   25.1591   30.0510 H   0  0  0  0  0  0  0  0  0  0  0  0
   35.4680   23.0108   31.0804 H   0  0  0  0  0  0  0  0  0  0  0  0
  1  6  1  0
  2  1  2  0
  2  3  1  0
  3  4  2  0
  4  5  1  0
  6  5  2  0
  7  1  1  0
  8  7  2  0
  9  7  1  0
 10  9  1  0
 11 10  2  0
 12 13  2  0
 12 11  1  0
 13 14  1  0
 14 10  1  0
  2 15  1  0
  3 16  1  0
  5 17  1  0
 11 18  1  0
 12 19  1  0
 13 20  1  0
M  ISO  6  15  14  16  14  17  14  18  14  19  14  20  14
M  END
>  <minimizedAffinity>  (1) 
-3.49127412

>  <minimizedRMSD>  (1) 
7.25200748

$$$$
