
     RDKit          3D

 20 21  0  0  0  0  0  0  0  0999 V2000
   40.3600   22.5980   35.4230 C   0  0  0  0  0  0  0  0  0  0  0  0
   39.9860   23.0730   36.7090 C   0  0  0  0  0  0  0  0  0  0  0  0
   38.6200   23.0290   37.0210 C   0  0  0  0  0  0  0  0  0  0  0  0
   37.7620   22.5450   36.0950 N   0  0  0  0  0  0  0  0  0  0  0  0
   38.1620   22.1010   34.8780 C   0  0  0  0  0  0  0  0  0  0  0  0
   39.4650   22.1290   34.5430 N   0  0  0  0  0  0  0  0  0  0  0  0
   37.0200   21.6430   34.1020 C   0  0  0  0  0  0  0  0  0  0  0  0
   36.9290   22.2100   32.8290 C   0  0  0  0  0  0  0  0  0  0  0  0
   35.7940   21.6730   32.2190 C   0  0  0  0  0  0  0  0  0  0  0  0
   35.2690   20.8110   33.1710 C   0  0  0  0  0  0  0  0  0  0  0  0
   36.0080   20.8190   34.2530 O   0  0  0  0  0  0  0  0  0  0  0  0
   38.2820   23.5250   38.3450 C   0  0  0  0  0  0  0  0  0  0  0  0
   37.8930   24.8430   38.2600 F   0  0  0  0  0  0  0  0  0  0  0  0
   39.4550   23.5150   39.0910 F   0  0  0  0  0  0  0  0  0  0  0  0
   37.2690   22.8240   38.9470 F   0  0  0  0  0  0  0  0  0  0  0  0
   41.4227   22.6160   35.1397 H   0  0  0  0  0  0  0  0  0  0  0  0
   40.7302   23.4556   37.4230 H   0  0  0  0  0  0  0  0  0  0  0  0
   37.6219   22.9425   32.3893 H   0  0  0  0  0  0  0  0  0  0  0  0
   35.4044   21.8851   31.2124 H   0  0  0  0  0  0  0  0  0  0  0  0
   34.3602   20.2060   33.0364 H   0  0  0  0  0  0  0  0  0  0  0  0
  1  2  2  0
  2  3  1  0
  3 12  1  0
  4  3  2  0
  5  4  1  0
  6  5  2  0
  6  1  1  0
  7 11  1  0
  7  5  1  0
  8  7  2  0
  9  8  1  0
  9 10  2  0
 10 11  1  0
 12 15  1  0
 12 14  1  0
 13 12  1  0
  1 16  1  0
  2 17  1  0
  8 18  1  0
  9 19  1  0
 10 20  1  0
M  ISO  5  16  14  17  14  18  14  19  14  20  14
M  END
>  <minimizedAffinity>  (1) 
-4.64244986

>  <minimizedRMSD>  (1) 
1.64335859

$$$$
