
     RDKit          3D

 17 17  0  0  0  0  0  0  0  0999 V2000
   37.8160   25.3260   34.9510 C   0  0  0  0  0  0  0  0  0  0  0  0
   37.7670   25.0660   33.5830 C   0  0  0  0  0  0  0  0  0  0  0  0
   37.3360   26.0720   32.7070 C   0  0  0  0  0  0  0  0  0  0  0  0
   36.9870   27.2610   33.2590 N   0  0  0  0  0  0  0  0  0  0  0  0
   37.0440   27.4840   34.5770 C   0  0  0  0  0  0  0  0  0  0  0  0
   37.4510   26.5410   35.4340 N   0  0  0  0  0  0  0  0  0  0  0  0
   38.2680   24.2570   35.8200 C   0  0  0  0  0  0  0  0  0  0  0  0
   38.4140   23.1100   35.3430 O   0  0  0  0  0  0  0  0  0  0  0  0
   38.5320   24.5160   37.1630 O   0  0  0  0  0  0  0  0  0  0  0  0
   38.4910   23.4030   38.0220 C   0  0  0  0  0  0  0  0  0  0  0  0
   39.6910   22.6520   38.1520 N   0  0  0  0  0  0  0  0  0  0  0  0
   37.4720   23.0470   38.6670 O   0  0  0  0  0  0  0  0  0  0  0  0
   38.0637   24.0807   33.1941 H   0  0  0  0  0  0  0  0  0  0  0  0
   37.2832   25.9048   31.6211 H   0  0  0  0  0  0  0  0  0  0  0  0
   36.7482   28.4693   34.9664 H   0  0  0  0  0  0  0  0  0  0  0  0
   39.7180   21.8268   38.7678 H   0  0  0  0  0  0  0  0  0  0  0  0
   40.5335   22.9330   37.6303 H   0  0  0  0  0  0  0  0  0  0  0  0
  1  6  2  0
  1  7  1  0
  2  1  1  0
  3  4  1  0
  3  2  2  0
  4  5  2  0
  5  6  1  0
  7  9  1  0
  8  7  2  0
  9 10  1  0
 10 11  1  0
 10 12  2  0
  2 13  1  0
  3 14  1  0
  5 15  1  0
 11 16  1  0
 11 17  1  0
M  ISO  3  13  14  14  14  15  14
M  END
>  <minimizedAffinity>  (1) 
-3.44755316

>  <minimizedRMSD>  (1) 
3.13272357

$$$$
