
     RDKit          3D

 16 16  0  0  0  0  0  0  0  0999 V2000
   39.5180   25.1020   35.4640 C   0  0  0  0  0  0  0  0  0  0  0  0
   40.4420   24.0310   35.4460 C   0  0  0  0  0  0  0  0  0  0  0  0
   41.7520   24.2550   34.9980 C   0  0  0  0  0  0  0  0  0  0  0  0
   42.0710   25.5040   34.5970 N   0  0  0  0  0  0  0  0  0  0  0  0
   41.1690   26.5020   34.6260 C   0  0  0  0  0  0  0  0  0  0  0  0
   39.9130   26.3320   35.0460 N   0  0  0  0  0  0  0  0  0  0  0  0
   38.1760   24.8180   35.9370 C   0  0  0  0  0  0  0  0  0  0  0  0
   37.2950   25.6840   35.6950 O   0  0  0  0  0  0  0  0  0  0  0  0
   37.9220   23.6450   36.6150 O   0  0  0  0  0  0  0  0  0  0  0  0
   37.8130   23.6820   38.0000 C   0  0  0  0  0  0  0  0  0  0  0  0
   38.0560   24.7520   38.6010 O   0  0  0  0  0  0  0  0  0  0  0  0
   37.4360   22.5250   38.6880 O   0  0  0  0  0  0  0  0  0  0  0  0
   40.1351   23.0292   35.7811 H   0  0  0  0  0  0  0  0  0  0  0  0
   42.4929   23.4423   34.9742 H   0  0  0  0  0  0  0  0  0  0  0  0
   41.4800   27.5018   34.2889 H   0  0  0  0  0  0  0  0  0  0  0  0
   37.3552   22.5399   39.6746 H   0  0  0  0  0  0  0  0  0  0  0  0
  1  7  1  0
  2  1  2  0
  3  2  1  0
  4  5  1  0
  4  3  2  0
  5  6  2  0
  6  1  1  0
  7  9  1  0
  8  7  2  0
  9 10  1  0
 10 11  2  0
 10 12  1  0
  2 13  1  0
  3 14  1  0
  5 15  1  0
 12 16  1  0
M  ISO  4  13  14  14  14  15  14  16   3
M  END
>  <minimizedAffinity>  (1) 
-3.30093503

>  <minimizedRMSD>  (1) 
3.10155487

$$$$
