
     RDKit          3D

 29 30  0  0  0  0  0  0  0  0999 V2000
   37.7310   24.5310   32.7510 C   0  0  0  0  0  0  0  0  0  0  0  0
   37.0590   25.8460   33.0510 C   0  0  0  0  0  0  0  0  0  0  0  0
   37.0690   26.6660   31.8720 N   0  0  0  0  0  0  0  0  0  0  0  0
   38.1750   27.4310   31.7300 C   0  0  0  0  0  0  0  0  0  0  0  0
   38.3420   28.2810   30.6430 C   0  0  0  0  0  0  0  0  0  0  0  0
   37.3370   28.3210   29.7050 C   0  0  0  0  0  0  0  0  0  0  0  0
   37.4820   29.0870   28.7210 O   0  0  0  0  0  0  0  0  0  0  0  0
   36.2570   27.5450   29.8880 N   0  0  0  0  0  0  0  0  0  0  0  0
   36.1050   26.7190   30.9510 C   0  0  0  0  0  0  0  0  0  0  0  0
   35.0900   25.9930   31.1190 O   0  0  0  0  0  0  0  0  0  0  0  0
   37.8730   23.7120   33.9050 O   0  0  0  0  0  0  0  0  0  0  0  0
   38.9990   23.9880   34.6920 C   0  0  0  0  0  0  0  0  0  0  0  0
   40.0740   24.4170   34.1840 O   0  0  0  0  0  0  0  0  0  0  0  0
   38.9690   23.7900   36.1340 C   0  0  0  0  0  0  0  0  0  0  0  0
   37.9860   24.4840   36.8380 C   0  0  0  0  0  0  0  0  0  0  0  0
   37.9220   24.3200   38.2410 C   0  0  0  0  0  0  0  0  0  0  0  0
   38.8220   23.4980   38.8110 N   0  0  0  0  0  0  0  0  0  0  0  0
   39.7470   22.8500   38.1070 C   0  0  0  0  0  0  0  0  0  0  0  0
   39.8410   22.9790   36.7730 N   0  0  0  0  0  0  0  0  0  0  0  0
   37.1284   23.9894   32.0069 H   0  0  0  0  0  0  0  0  0  0  0  0
   38.7404   24.7519   32.3737 H   0  0  0  0  0  0  0  0  0  0  0  0
   36.0199   25.6645   33.3631 H   0  0  0  0  0  0  0  0  0  0  0  0
   37.5994   26.3589   33.8602 H   0  0  0  0  0  0  0  0  0  0  0  0
   38.9636   27.3792   32.4952 H   0  0  0  0  0  0  0  0  0  0  0  0
   39.2455   28.8994   30.5368 H   0  0  0  0  0  0  0  0  0  0  0  0
   35.5056   27.5793   29.1844 H   0  0  0  0  0  0  0  0  0  0  0  0
   37.2775   25.1430   36.3148 H   0  0  0  0  0  0  0  0  0  0  0  0
   37.1655   24.8443   38.8434 H   0  0  0  0  0  0  0  0  0  0  0  0
   40.4540   22.1907   38.6318 H   0  0  0  0  0  0  0  0  0  0  0  0
  1  2  1  0
  1 11  1  0
  3  2  1  0
  4  3  1  0
  5  4  2  0
  6  8  1  0
  6  5  1  0
  7  6  2  0
  8  9  1  0
  9 10  2  0
  9  3  1  0
 11 12  1  0
 12 14  1  0
 13 12  2  0
 14 19  1  0
 14 15  2  0
 15 16  1  0
 16 17  2  0
 18 17  1  0
 19 18  2  0
  1 20  1  0
  1 21  1  0
  2 22  1  0
  2 23  1  0
  4 24  1  0
  5 25  1  0
  8 26  1  0
 15 27  1  0
 16 28  1  0
 18 29  1  0
M  ISO  8  20   8  21   8  22   8  23   8  24  14  25  14  26   9  27  14
M  ISO  2  28  14  29  14
M  END
>  <minimizedAffinity>  (1) 
-4.59773064

>  <minimizedRMSD>  (1) 
1.23382235

$$$$
