
     RDKit          3D

 35 37  0  0  0  0  0  0  0  0999 V2000
   37.6110   25.0830   32.9630 C   0  0  0  0  0  0  0  0  0  0  0  0
   37.0980   26.3150   33.6430 C   0  0  0  0  0  0  0  0  0  0  0  0
   36.8030   27.4190   32.7230 C   0  0  0  0  0  0  0  0  0  0  0  0
   37.0500   27.1980   31.3620 C   0  0  0  0  0  0  0  0  0  0  0  0
   36.8340   28.1430   30.3550 C   0  0  0  0  0  0  0  0  0  0  0  0
   36.3490   29.3610   30.7270 C   0  0  0  0  0  0  0  0  0  0  0  0
   36.1010   29.6000   32.0440 C   0  0  0  0  0  0  0  0  0  0  0  0
   35.6060   30.8510   32.3810 C   0  0  0  0  0  0  0  0  0  0  0  0
   35.3420   31.1140   33.7240 C   0  0  0  0  0  0  0  0  0  0  0  0
   35.5680   30.1500   34.7140 C   0  0  0  0  0  0  0  0  0  0  0  0
   36.0620   28.9000   34.3760 C   0  0  0  0  0  0  0  0  0  0  0  0
   36.3140   28.6670   33.0360 C   0  0  0  0  0  0  0  0  0  0  0  0
   37.8930   24.0430   33.8990 O   0  0  0  0  0  0  0  0  0  0  0  0
   39.0250   24.2170   34.6780 C   0  0  0  0  0  0  0  0  0  0  0  0
   40.1020   24.6080   34.1820 O   0  0  0  0  0  0  0  0  0  0  0  0
   38.9660   23.9380   36.1220 C   0  0  0  0  0  0  0  0  0  0  0  0
   37.9920   24.5950   36.8560 C   0  0  0  0  0  0  0  0  0  0  0  0
   37.9350   24.3230   38.2480 C   0  0  0  0  0  0  0  0  0  0  0  0
   38.8220   23.4490   38.7670 N   0  0  0  0  0  0  0  0  0  0  0  0
   39.7390   22.8470   38.0110 C   0  0  0  0  0  0  0  0  0  0  0  0
   39.8390   23.0680   36.6830 N   0  0  0  0  0  0  0  0  0  0  0  0
   36.8519   24.7261   32.2513 H   0  0  0  0  0  0  0  0  0  0  0  0
   38.5462   25.3412   32.4446 H   0  0  0  0  0  0  0  0  0  0  0  0
   36.1742   26.0553   34.1808 H   0  0  0  0  0  0  0  0  0  0  0  0
   37.8937   26.6638   34.3177 H   0  0  0  0  0  0  0  0  0  0  0  0
   37.4407   26.2134   31.0654 H   0  0  0  0  0  0  0  0  0  0  0  0
   37.0476   27.9120   29.3010 H   0  0  0  0  0  0  0  0  0  0  0  0
   36.1606   30.1401   29.9736 H   0  0  0  0  0  0  0  0  0  0  0  0
   35.4267   31.6145   31.6097 H   0  0  0  0  0  0  0  0  0  0  0  0
   34.9478   32.0997   34.0123 H   0  0  0  0  0  0  0  0  0  0  0  0
   35.3522   30.3862   35.7664 H   0  0  0  0  0  0  0  0  0  0  0  0
   36.2453   28.1285   35.1384 H   0  0  0  0  0  0  0  0  0  0  0  0
   37.2923   25.2978   36.3802 H   0  0  0  0  0  0  0  0  0  0  0  0
   37.1861   24.8128   38.8877 H   0  0  0  0  0  0  0  0  0  0  0  0
   40.4398   22.1447   38.4859 H   0  0  0  0  0  0  0  0  0  0  0  0
  1  2  1  0
  1 13  1  0
  3 12  1  0
  3  2  1  0
  4  3  2  0
  5  6  2  0
  5  4  1  0
  6  7  1  0
  7  8  1  0
  7 12  2  0
  8  9  2  0
  9 10  1  0
 11 10  2  0
 12 11  1  0
 13 14  1  0
 14 16  1  0
 15 14  2  0
 16 21  1  0
 16 17  2  0
 17 18  1  0
 18 19  2  0
 20 19  1  0
 21 20  2  0
  1 22  1  0
  1 23  1  0
  2 24  1  0
  2 25  1  0
  4 26  1  0
  5 27  1  0
  6 28  1  0
  8 29  1  0
  9 30  1  0
 10 31  1  0
 11 32  1  0
 17 33  1  0
 18 34  1  0
 20 35  1  0
M  ISO  8  22   8  23   8  24   8  25   8  26  14  27  14  28  14  29  14
M  ISO  6  30  14  31  14  32  14  33  14  34  14  35  14
M  END
>  <minimizedAffinity>  (1) 
-5.16702652

>  <minimizedRMSD>  (1) 
1.87664807

$$$$
