
     RDKit          3D

 30 32  0  0  0  0  0  0  0  0999 V2000
   39.0720   26.8700   34.1380 C   0  0  0  0  0  0  0  0  0  0  0  0
   39.1280   27.1150   32.6510 C   0  0  0  0  0  0  0  0  0  0  0  0
   37.7330   27.0220   32.1910 N   0  0  0  0  0  0  0  0  0  0  0  0
   36.9150   28.0840   32.1840 C   0  0  0  0  0  0  0  0  0  0  0  0
   35.7190   27.6960   31.7170 N   0  0  0  0  0  0  0  0  0  0  0  0
   35.7490   26.3850   31.4180 C   0  0  0  0  0  0  0  0  0  0  0  0
   34.8640   25.4260   30.9150 C   0  0  0  0  0  0  0  0  0  0  0  0
   35.2930   24.1500   30.7490 N   0  0  0  0  0  0  0  0  0  0  0  0
   36.5470   23.7720   31.0530 C   0  0  0  0  0  0  0  0  0  0  0  0
   37.4260   24.6900   31.5450 N   0  0  0  0  0  0  0  0  0  0  0  0
   37.0220   25.9810   31.7220 C   0  0  0  0  0  0  0  0  0  0  0  0
   40.0540   25.9050   34.5300 O   0  0  0  0  0  0  0  0  0  0  0  0
   39.5840   24.6170   34.7290 C   0  0  0  0  0  0  0  0  0  0  0  0
   39.4000   23.8220   33.7680 O   0  0  0  0  0  0  0  0  0  0  0  0
   39.2870   24.1540   36.0850 C   0  0  0  0  0  0  0  0  0  0  0  0
   38.1870   24.7060   36.7240 C   0  0  0  0  0  0  0  0  0  0  0  0
   37.9280   24.2380   38.0220 C   0  0  0  0  0  0  0  0  0  0  0  0
   38.7290   23.3070   38.5760 N   0  0  0  0  0  0  0  0  0  0  0  0
   39.7790   22.8010   37.9260 C   0  0  0  0  0  0  0  0  0  0  0  0
   40.0710   23.2130   36.6840 N   0  0  0  0  0  0  0  0  0  0  0  0
   38.0723   26.4965   34.4049 H   0  0  0  0  0  0  0  0  0  0  0  0
   39.2784   27.8161   34.6599 H   0  0  0  0  0  0  0  0  0  0  0  0
   39.5379   28.1137   32.4399 H   0  0  0  0  0  0  0  0  0  0  0  0
   39.7784   26.3903   32.1394 H   0  0  0  0  0  0  0  0  0  0  0  0
   37.1799   29.1017   32.5067 H   0  0  0  0  0  0  0  0  0  0  0  0
   33.8314   25.7035   30.6568 H   0  0  0  0  0  0  0  0  0  0  0  0
   36.8615   22.7283   30.9055 H   0  0  0  0  0  0  0  0  0  0  0  0
   37.5544   25.4660   36.2421 H   0  0  0  0  0  0  0  0  0  0  0  0
   37.0704   24.6317   38.5872 H   0  0  0  0  0  0  0  0  0  0  0  0
   40.4087   22.0413   38.4122 H   0  0  0  0  0  0  0  0  0  0  0  0
  1 12  1  0
  2  1  1  0
  3  2  1  0
  4  3  1  0
  5  4  2  0
  6  5  1  0
  6 11  2  0
  7  6  1  0
  8  7  2  0
  8  9  1  0
  9 10  2  0
 10 11  1  0
 11  3  1  0
 12 13  1  0
 13 15  1  0
 14 13  2  0
 15 20  1  0
 15 16  2  0
 16 17  1  0
 17 18  2  0
 19 18  1  0
 20 19  2  0
  1 21  1  0
  1 22  1  0
  2 23  1  0
  2 24  1  0
  4 25  1  0
  7 26  1  0
  9 27  1  0
 16 28  1  0
 17 29  1  0
 19 30  1  0
M  ISO  8  21   8  22   8  23   8  24   8  25  14  26  14  27  14  28  14
M  ISO  2  29  14  30  14
M  END
>  <minimizedAffinity>  (1) 
-4.44102192

>  <minimizedRMSD>  (1) 
1.91534281

$$$$
