
     RDKit          3D

 26 27  0  0  0  0  0  0  0  0999 V2000
   37.0410   22.7940   32.5540 C   0  0  0  0  0  0  0  0  0  0  0  0
   35.7470   22.5650   31.8700 C   0  0  0  0  0  0  0  0  0  0  0  0
   35.4820   21.1150   31.7380 C   0  0  0  0  0  0  0  0  0  0  0  0
   36.4350   20.4790   30.9260 C   0  0  0  0  0  0  0  0  0  0  0  0
   36.1270   19.1230   30.8440 C   0  0  0  0  0  0  0  0  0  0  0  0
   35.0320   18.9660   31.5820 N   0  0  0  0  0  0  0  0  0  0  0  0
   34.6690   20.1060   32.0900 N   0  0  0  0  0  0  0  0  0  0  0  0
   37.0920   22.1950   33.8500 O   0  0  0  0  0  0  0  0  0  0  0  0
   38.3620   22.0230   34.3690 C   0  0  0  0  0  0  0  0  0  0  0  0
   39.2950   21.5230   33.6720 O   0  0  0  0  0  0  0  0  0  0  0  0
   38.6940   22.4050   35.7310 C   0  0  0  0  0  0  0  0  0  0  0  0
   37.6510   23.0070   36.4570 C   0  0  0  0  0  0  0  0  0  0  0  0
   37.9230   23.3940   37.7870 C   0  0  0  0  0  0  0  0  0  0  0  0
   39.1730   23.1610   38.2790 N   0  0  0  0  0  0  0  0  0  0  0  0
   40.1260   22.5880   37.5520 C   0  0  0  0  0  0  0  0  0  0  0  0
   39.9100   22.2030   36.2790 N   0  0  0  0  0  0  0  0  0  0  0  0
   37.1959   23.8778   32.6607 H   0  0  0  0  0  0  0  0  0  0  0  0
   37.8279   22.3295   31.9416 H   0  0  0  0  0  0  0  0  0  0  0  0
   34.9402   23.0289   32.4564 H   0  0  0  0  0  0  0  0  0  0  0  0
   35.7904   23.0124   30.8660 H   0  0  0  0  0  0  0  0  0  0  0  0
   37.2867   20.9718   30.4344 H   0  0  0  0  0  0  0  0  0  0  0  0
   36.6732   18.3473   30.2873 H   0  0  0  0  0  0  0  0  0  0  0  0
   34.5429   18.0716   31.7295 H   0  0  0  0  0  0  0  0  0  0  0  0
   36.6611   23.1701   36.0058 H   0  0  0  0  0  0  0  0  0  0  0  0
   37.1495   23.8694   38.4080 H   0  0  0  0  0  0  0  0  0  0  0  0
   41.1167   22.4237   38.0008 H   0  0  0  0  0  0  0  0  0  0  0  0
  1  8  1  0
  2  1  1  0
  3  2  1  0
  3  7  2  0
  4  3  1  0
  5  4  2  0
  5  6  1  0
  6  7  1  0
  8  9  1  0
  9 11  1  0
 10  9  2  0
 11 16  1  0
 11 12  2  0
 12 13  1  0
 13 14  2  0
 15 14  1  0
 16 15  2  0
  1 17  1  0
  1 18  1  0
  2 19  1  0
  2 20  1  0
  4 21  1  0
  5 22  1  0
  6 23  1  0
 12 24  1  0
 13 25  1  0
 15 26  1  0
M  ISO  8  17   8  18   8  19   8  20   8  21  14  22  14  23   9  24  14
M  ISO  2  25  14  26  14
M  END
>  <minimizedAffinity>  (1) 
-4.10751677

>  <minimizedRMSD>  (1) 
5.68614244

$$$$
