
     RDKit          3D

 32 33  0  0  0  0  0  0  0  0999 V2000
   37.1050   26.1260   33.1840 C   0  0  0  0  0  0  0  0  0  0  0  0
   37.3980   27.5790   32.9080 C   0  0  0  0  0  0  0  0  0  0  0  0
   37.9270   27.6770   31.5620 N   0  0  0  0  0  0  0  0  0  0  0  0
   39.1880   27.3220   31.2090 C   0  0  0  0  0  0  0  0  0  0  0  0
   39.6270   27.4410   29.9060 C   0  0  0  0  0  0  0  0  0  0  0  0
   41.0060   27.0530   29.5130 C   0  0  0  0  0  0  0  0  0  0  0  0
   38.7530   27.9350   28.9510 C   0  0  0  0  0  0  0  0  0  0  0  0
   39.1230   28.0600   27.7390 O   0  0  0  0  0  0  0  0  0  0  0  0
   37.5030   28.2860   29.3110 N   0  0  0  0  0  0  0  0  0  0  0  0
   37.1090   28.1520   30.6080 C   0  0  0  0  0  0  0  0  0  0  0  0
   35.9350   28.5080   30.8190 O   0  0  0  0  0  0  0  0  0  0  0  0
   37.4280   25.7840   34.5280 O   0  0  0  0  0  0  0  0  0  0  0  0
   38.4280   24.8350   34.6970 C   0  0  0  0  0  0  0  0  0  0  0  0
   39.1390   24.4680   33.7360 O   0  0  0  0  0  0  0  0  0  0  0  0
   38.6610   24.2470   36.0190 C   0  0  0  0  0  0  0  0  0  0  0  0
   37.8410   24.6880   37.0610 C   0  0  0  0  0  0  0  0  0  0  0  0
   38.0770   24.1120   38.3370 C   0  0  0  0  0  0  0  0  0  0  0  0
   39.0570   23.1940   38.4590 N   0  0  0  0  0  0  0  0  0  0  0  0
   39.8080   22.8120   37.4310 C   0  0  0  0  0  0  0  0  0  0  0  0
   39.6360   23.3180   36.1990 N   0  0  0  0  0  0  0  0  0  0  0  0
   37.7019   25.5032   32.5015 H   0  0  0  0  0  0  0  0  0  0  0  0
   36.0304   25.9505   33.0275 H   0  0  0  0  0  0  0  0  0  0  0  0
   36.4735   28.1693   32.9905 H   0  0  0  0  0  0  0  0  0  0  0  0
   38.1249   27.9691   33.6356 H   0  0  0  0  0  0  0  0  0  0  0  0
   39.8734   26.9320   31.9758 H   0  0  0  0  0  0  0  0  0  0  0  0
   41.6105   26.8829   30.4161 H   0  0  0  0  0  0  0  0  0  0  0  0
   40.9711   26.1298   28.9159 H   0  0  0  0  0  0  0  0  0  0  0  0
   41.4576   27.8590   28.9159 H   0  0  0  0  0  0  0  0  0  0  0  0
   36.8472   28.6546   28.6075 H   0  0  0  0  0  0  0  0  0  0  0  0
   37.0550   25.4408   36.9012 H   0  0  0  0  0  0  0  0  0  0  0  0
   37.4733   24.4083   39.2075 H   0  0  0  0  0  0  0  0  0  0  0  0
   40.5934   22.0593   37.5942 H   0  0  0  0  0  0  0  0  0  0  0  0
  1 12  1  0
  2  1  1  0
  3  2  1  0
  4  3  1  0
  5  4  2  0
  6  5  1  0
  7  9  1  0
  7  5  1  0
  8  7  2  0
  9 10  1  0
 10 11  2  0
 10  3  1  0
 12 13  1  0
 13 15  1  0
 14 13  2  0
 15 20  1  0
 15 16  2  0
 16 17  1  0
 17 18  2  0
 19 18  1  0
 20 19  2  0
  1 21  1  0
  1 22  1  0
  2 23  1  0
  2 24  1  0
  4 25  1  0
  6 26  1  0
  6 27  1  0
  6 28  1  0
  9 29  1  0
 16 30  1  0
 17 31  1  0
 19 32  1  0
M  ISO  8  21   8  22   8  23   8  24   8  25  14  26   8  27   8  28   8
M  ISO  4  29   9  30  14  31  14  32  14
M  END
>  <minimizedAffinity>  (1) 
-4.2833333

>  <minimizedRMSD>  (1) 
2.91848993

$$$$
