
     RDKit          3D

 26 27  0  0  0  0  0  0  0  0999 V2000
   41.2330   22.5500   36.5490 C   0  0  0  0  0  0  0  0  0  0  0  0
   40.4910   23.0710   37.6390 C   0  0  0  0  0  0  0  0  0  0  0  0
   39.0940   23.1040   37.4700 C   0  0  0  0  0  0  0  0  0  0  0  0
   38.5570   22.6520   36.3200 N   0  0  0  0  0  0  0  0  0  0  0  0
   39.3060   22.1640   35.3070 C   0  0  0  0  0  0  0  0  0  0  0  0
   40.6490   22.1170   35.4340 N   0  0  0  0  0  0  0  0  0  0  0  0
   37.4610   20.8010   31.7990 C   0  0  0  0  0  0  0  0  0  0  0  0
   38.8390   20.8060   31.8840 C   0  0  0  0  0  0  0  0  0  0  0  0
   39.4390   21.2540   33.0360 C   0  0  0  0  0  0  0  0  0  0  0  0
   38.6680   21.6900   34.0860 C   0  0  0  0  0  0  0  0  0  0  0  0
   37.2920   21.6840   34.0010 C   0  0  0  0  0  0  0  0  0  0  0  0
   36.6550   21.2350   32.8430 C   0  0  0  0  0  0  0  0  0  0  0  0
   36.6900   20.2270   30.3240 S   0  0  0  0  0  0  0  0  0  0  0  0
   37.7880   19.9960   29.3250 O   0  0  0  0  0  0  0  0  0  0  0  0
   35.9030   18.9940   30.5810 O   0  0  0  0  0  0  0  0  0  0  0  0
   38.3700   23.6520   38.6260 C   0  0  0  0  0  0  0  0  0  0  0  0
   37.8870   24.9080   38.3020 F   0  0  0  0  0  0  0  0  0  0  0  0
   39.2890   23.8520   39.6300 F   0  0  0  0  0  0  0  0  0  0  0  0
   37.3030   22.8810   39.0130 F   0  0  0  0  0  0  0  0  0  0  0  0
   42.3291   22.5019   36.6275 H   0  0  0  0  0  0  0  0  0  0  0  0
   40.9768   23.4272   38.5594 H   0  0  0  0  0  0  0  0  0  0  0  0
   39.4497   20.4553   31.0390 H   0  0  0  0  0  0  0  0  0  0  0  0
   40.5359   21.2635   33.1174 H   0  0  0  0  0  0  0  0  0  0  0  0
   36.6913   22.0359   34.8526 H   0  0  0  0  0  0  0  0  0  0  0  0
   35.5581   21.2254   32.7608 H   0  0  0  0  0  0  0  0  0  0  0  0
   35.7970   21.1466   29.8406 H   0  0  0  0  0  0  0  0  0  0  0  0
  1  2  2  0
  3  2  1  0
  3 16  1  0
  4  3  2  0
  5  6  2  0
  5  4  1  0
  6  1  1  0
  7  8  2  0
  7 12  1  0
  8  9  1  0
  9 10  2  0
 10  5  1  0
 11 10  1  0
 12 11  2  0
 13 15  2  0
 13  7  1  0
 14 13  2  0
 16 19  1  0
 16 18  1  0
 17 16  1  0
  1 20  1  0
  2 21  1  0
  8 22  1  0
  9 23  1  0
 11 24  1  0
 12 25  1  0
 13 26  1  0
M  ISO  7  20  14  21  14  22  14  23  14  24  14  25  14  26  11
M  END
>  <minimizedAffinity>  (1) 
-4.55325413

>  <minimizedRMSD>  (1) 
1.57472849

$$$$
