
     RDKit          3D

 31 32  0  0  0  0  0  0  0  0999 V2000
   37.6000   25.6570   34.5060 O   0  0  0  0  0  0  0  0  0  0  0  0
   37.1770   25.7550   33.1520 C   0  0  0  0  0  0  0  0  0  0  0  0
   37.3100   27.1650   32.6430 C   0  0  0  0  0  0  0  0  0  0  0  0
   36.2550   27.5660   31.7610 N   0  0  0  0  0  0  0  0  0  0  0  0
   35.4580   28.5480   32.4670 C   0  0  0  0  0  0  0  0  0  0  0  0
   36.0950   29.8610   32.0550 C   0  0  0  0  0  0  0  0  0  0  0  0
   36.2610   29.6320   30.5640 C   0  0  0  0  0  0  0  0  0  0  0  0
   36.6980   28.1770   30.5410 C   0  0  0  0  0  0  0  0  0  0  0  0
   38.4890   24.6330   34.7930 C   0  0  0  0  0  0  0  0  0  0  0  0
   39.1710   24.0830   33.8770 O   0  0  0  0  0  0  0  0  0  0  0  0
   38.6790   24.1460   36.1540 C   0  0  0  0  0  0  0  0  0  0  0  0
   37.8310   24.6880   37.1180 C   0  0  0  0  0  0  0  0  0  0  0  0
   37.9760   24.2460   38.4520 C   0  0  0  0  0  0  0  0  0  0  0  0
   38.9340   23.3220   38.7090 N   0  0  0  0  0  0  0  0  0  0  0  0
   39.7170   22.8370   37.7520 C   0  0  0  0  0  0  0  0  0  0  0  0
   39.6240   23.2190   36.4680 N   0  0  0  0  0  0  0  0  0  0  0  0
   37.7969   25.0897   32.5330 H   0  0  0  0  0  0  0  0  0  0  0  0
   36.1184   25.4615   33.0948 H   0  0  0  0  0  0  0  0  0  0  0  0
   37.3166   27.8458   33.5070 H   0  0  0  0  0  0  0  0  0  0  0  0
   38.2441   27.2084   32.0637 H   0  0  0  0  0  0  0  0  0  0  0  0
   34.4049   28.5032   32.1524 H   0  0  0  0  0  0  0  0  0  0  0  0
   35.4445   28.3947   33.5562 H   0  0  0  0  0  0  0  0  0  0  0  0
   35.4348   30.7158   32.2636 H   0  0  0  0  0  0  0  0  0  0  0  0
   37.0258   30.1059   32.5876 H   0  0  0  0  0  0  0  0  0  0  0  0
   35.3133   29.7777   30.0249 H   0  0  0  0  0  0  0  0  0  0  0  0
   36.9621   30.3238   30.0743 H   0  0  0  0  0  0  0  0  0  0  0  0
   36.2451   27.6640   29.6798 H   0  0  0  0  0  0  0  0  0  0  0  0
   37.7920   28.1061   30.4513 H   0  0  0  0  0  0  0  0  0  0  0  0
   37.0719   25.4371   36.8485 H   0  0  0  0  0  0  0  0  0  0  0  0
   37.3337   24.6381   39.2544 H   0  0  0  0  0  0  0  0  0  0  0  0
   40.4760   22.0885   38.0235 H   0  0  0  0  0  0  0  0  0  0  0  0
  1  9  1  0
  2  1  1  0
  3  2  1  0
  4  5  1  0
  4  3  1  0
  6  5  1  0
  7  6  1  0
  8  7  1  0
  8  4  1  0
  9 11  1  0
 10  9  2  0
 11 16  1  0
 11 12  2  0
 12 13  1  0
 13 14  2  0
 15 14  1  0
 16 15  2  0
  2 17  1  0
  2 18  1  0
  3 19  1  0
  3 20  1  0
  5 21  1  0
  5 22  1  0
  6 23  1  0
  6 24  1  0
  7 25  1  0
  7 26  1  0
  8 27  1  0
  8 28  1  0
 12 29  1  0
 13 30  1  0
 15 31  1  0
M  ISO  8  17   8  18   8  19   8  20   8  21  13  22  13  23  13  24  13
M  ISO  7  25  13  26  13  27  13  28  13  29  14  30  14  31  14
M  END
>  <minimizedAffinity>  (1) 
-3.88507247

>  <minimizedRMSD>  (1) 
1.33170021

$$$$
