
     RDKit          3D

 26 26  0  0  0  0  0  0  0  0999 V2000
   37.1090   25.9250   33.1450 C   0  0  0  0  0  0  0  0  0  0  0  0
   37.0190   27.3650   32.7880 C   0  0  0  0  0  0  0  0  0  0  0  0
   38.0040   27.6710   31.7600 N   0  0  0  0  0  0  0  0  0  0  0  0
   37.6220   27.4700   30.3890 C   0  0  0  0  0  0  0  0  0  0  0  0
   36.3870   27.6890   30.0620 N   0  0  0  0  0  0  0  0  0  0  0  0
   38.6050   27.0350   29.4290 N   0  0  0  0  0  0  0  0  0  0  0  0
   36.1380   27.5350   29.0590 H   0  0  0  0  0  0  0  0  0  0  0  0
   37.5280   25.7460   34.5070 O   0  0  0  0  0  0  0  0  0  0  0  0
   38.4670   24.7530   34.7210 C   0  0  0  0  0  0  0  0  0  0  0  0
   39.1660   24.2980   33.7770 O   0  0  0  0  0  0  0  0  0  0  0  0
   38.6730   24.2050   36.0520 C   0  0  0  0  0  0  0  0  0  0  0  0
   37.8280   24.6830   37.0610 C   0  0  0  0  0  0  0  0  0  0  0  0
   38.0210   24.1540   38.3630 C   0  0  0  0  0  0  0  0  0  0  0  0
   38.9880   23.2390   38.5510 N   0  0  0  0  0  0  0  0  0  0  0  0
   39.7720   22.8130   37.5560 C   0  0  0  0  0  0  0  0  0  0  0  0
   39.6360   23.2780   36.3000 N   0  0  0  0  0  0  0  0  0  0  0  0
   37.8365   25.4366   32.4800 H   0  0  0  0  0  0  0  0  0  0  0  0
   36.1109   25.4775   33.0291 H   0  0  0  0  0  0  0  0  0  0  0  0
   36.0108   27.5865   32.4078 H   0  0  0  0  0  0  0  0  0  0  0  0
   37.2164   27.9777   33.6800 H   0  0  0  0  0  0  0  0  0  0  0  0
   38.9414   28.0192   32.0067 H   0  0  0  0  0  0  0  0  0  0  0  0
   38.3354   26.8898   28.4456 H   0  0  0  0  0  0  0  0  0  0  0  0
   39.5771   26.8693   29.7263 H   0  0  0  0  0  0  0  0  0  0  0  0
   37.0510   25.4335   36.8538 H   0  0  0  0  0  0  0  0  0  0  0  0
   37.3920   24.4858   39.2022 H   0  0  0  0  0  0  0  0  0  0  0  0
   40.5483   22.0632   37.7688 H   0  0  0  0  0  0  0  0  0  0  0  0
  1  8  1  0
  2  1  1  0
  3  2  1  0
  4  3  1  0
  5  4  2  0
  6  4  1  0
  7  5  1  0
  8  9  1  0
  9 11  1  0
 10  9  2  0
 11 16  2  0
 11 12  1  0
 12 13  2  0
 13 14  1  0
 15 14  2  0
 16 15  1  0
  1 17  1  0
  1 18  1  0
  2 19  1  0
  2 20  1  0
  3 21  1  0
  6 22  1  0
  6 23  1  0
 12 24  1  0
 13 25  1  0
 15 26  1  0
M  ISO  7  17   8  18   8  19   8  20   8  24  14  25  14  26  14
M  END
>  <minimizedAffinity>  (1) 
-3.90041137

>  <minimizedRMSD>  (1) 
2.01648259

$$$$
