
     RDKit          3D

 24 25  0  0  0  0  0  0  0  0999 V2000
   38.6950   23.5480   33.7280 O   0  0  0  0  0  0  0  0  0  0  0  0
   37.6540   22.9880   32.9400 C   0  0  0  0  0  0  0  0  0  0  0  0
   37.7910   23.3670   31.4860 C   0  0  0  0  0  0  0  0  0  0  0  0
   36.7230   24.3860   31.2190 C   0  0  0  0  0  0  0  0  0  0  0  0
   36.8340   25.7100   31.1210 N   0  0  0  0  0  0  0  0  0  0  0  0
   35.6830   26.2260   30.8840 O   0  0  0  0  0  0  0  0  0  0  0  0
   34.8010   25.2640   30.8240 C   0  0  0  0  0  0  0  0  0  0  0  0
   35.4120   24.0630   31.0310 N   0  0  0  0  0  0  0  0  0  0  0  0
   38.2670   24.3950   34.7630 C   0  0  0  0  0  0  0  0  0  0  0  0
   37.6790   25.4920   34.5270 O   0  0  0  0  0  0  0  0  0  0  0  0
   38.4930   24.0260   36.1550 C   0  0  0  0  0  0  0  0  0  0  0  0
   39.5570   23.1770   36.4170 C   0  0  0  0  0  0  0  0  0  0  0  0
   39.7850   22.8130   37.7660 C   0  0  0  0  0  0  0  0  0  0  0  0
   38.9600   23.3090   38.7060 N   0  0  0  0  0  0  0  0  0  0  0  0
   37.9500   24.1200   38.4170 C   0  0  0  0  0  0  0  0  0  0  0  0
   37.6910   24.4970   37.1480 N   0  0  0  0  0  0  0  0  0  0  0  0
   37.6901   21.8921   33.0279 H   0  0  0  0  0  0  0  0  0  0  0  0
   36.6949   23.3809   33.3085 H   0  0  0  0  0  0  0  0  0  0  0  0
   38.7853   23.7973   31.2958 H   0  0  0  0  0  0  0  0  0  0  0  0
   37.6828   22.4904   30.8304 H   0  0  0  0  0  0  0  0  0  0  0  0
   33.7263   25.4024   30.6348 H   0  0  0  0  0  0  0  0  0  0  0  0
   40.1997   22.8005   35.6076 H   0  0  0  0  0  0  0  0  0  0  0  0
   40.6139   22.1430   38.0382 H   0  0  0  0  0  0  0  0  0  0  0  0
   37.3100   24.4930   39.2302 H   0  0  0  0  0  0  0  0  0  0  0  0
  1  9  1  0
  2  1  1  0
  3  2  1  0
  4  3  1  0
  5  4  2  0
  6  5  1  0
  7  6  1  0
  7  8  2  0
  8  4  1  0
  9 11  1  0
 10  9  2  0
 11 12  2  0
 11 16  1  0
 12 13  1  0
 13 14  2  0
 15 14  1  0
 16 15  2  0
  2 17  1  0
  2 18  1  0
  3 19  1  0
  3 20  1  0
  7 21  1  0
 12 22  1  0
 13 23  1  0
 15 24  1  0
M  ISO  8  17   8  18   8  19   8  20   8  21  14  22  14  23  14  24  14
M  END
>  <minimizedAffinity>  (1) 
-3.93216467

>  <minimizedRMSD>  (1) 
3.69087076

$$$$
