
     RDKit          3D

 27 28  0  0  0  0  0  0  0  0999 V2000
   37.4690   25.8410   33.0870 C   0  0  0  0  0  0  0  0  0  0  0  0
   38.2810   27.0560   32.7200 C   0  0  0  0  0  0  0  0  0  0  0  0
   37.3130   28.0530   32.1380 C   0  0  0  0  0  0  0  0  0  0  0  0
   37.5150   28.3680   30.8100 C   0  0  0  0  0  0  0  0  0  0  0  0
   36.6540   29.2850   30.2080 C   0  0  0  0  0  0  0  0  0  0  0  0
   35.6570   29.8360   30.9340 N   0  0  0  0  0  0  0  0  0  0  0  0
   35.5010   29.4960   32.2290 C   0  0  0  0  0  0  0  0  0  0  0  0
   36.3170   28.6060   32.8550 N   0  0  0  0  0  0  0  0  0  0  0  0
   37.6020   25.5240   34.4720 O   0  0  0  0  0  0  0  0  0  0  0  0
   38.2770   24.3480   34.7530 C   0  0  0  0  0  0  0  0  0  0  0  0
   38.6700   23.5720   33.8390 O   0  0  0  0  0  0  0  0  0  0  0  0
   38.5680   23.9520   36.1220 C   0  0  0  0  0  0  0  0  0  0  0  0
   37.7340   24.4830   37.1080 C   0  0  0  0  0  0  0  0  0  0  0  0
   37.9820   24.1230   38.4520 C   0  0  0  0  0  0  0  0  0  0  0  0
   39.0100   23.2860   38.7070 N   0  0  0  0  0  0  0  0  0  0  0  0
   39.7860   22.7990   37.7400 C   0  0  0  0  0  0  0  0  0  0  0  0
   39.5800   23.1200   36.4430 N   0  0  0  0  0  0  0  0  0  0  0  0
   37.8156   24.9851   32.4892 H   0  0  0  0  0  0  0  0  0  0  0  0
   36.4102   26.0577   32.8819 H   0  0  0  0  0  0  0  0  0  0  0  0
   38.7662   27.4740   33.6144 H   0  0  0  0  0  0  0  0  0  0  0  0
   39.0747   26.8037   32.0014 H   0  0  0  0  0  0  0  0  0  0  0  0
   38.3352   27.9071   30.2400 H   0  0  0  0  0  0  0  0  0  0  0  0
   36.7857   29.5575   29.1504 H   0  0  0  0  0  0  0  0  0  0  0  0
   34.6822   29.9561   32.8016 H   0  0  0  0  0  0  0  0  0  0  0  0
   36.9085   25.1613   36.8465 H   0  0  0  0  0  0  0  0  0  0  0  0
   37.3552   24.5137   39.2671 H   0  0  0  0  0  0  0  0  0  0  0  0
   40.6118   22.1214   38.0023 H   0  0  0  0  0  0  0  0  0  0  0  0
  1  9  1  0
  2  1  1  0
  3  2  1  0
  3  8  1  0
  4  3  2  0
  5  4  1  0
  5  6  2  0
  6  7  1  0
  7  8  2  0
  9 10  1  0
 10 12  1  0
 11 10  2  0
 12 17  1  0
 12 13  2  0
 13 14  1  0
 14 15  2  0
 16 15  1  0
 17 16  2  0
  1 18  1  0
  1 19  1  0
  2 20  1  0
  2 21  1  0
  4 22  1  0
  5 23  1  0
  7 24  1  0
 13 25  1  0
 14 26  1  0
 16 27  1  0
M  ISO  8  18   8  19   8  20   8  21   8  22  14  23  14  24  14  25  14
M  ISO  2  26  14  27  14
M  END
>  <minimizedAffinity>  (1) 
-4.03424025

>  <minimizedRMSD>  (1) 
1.42595875

$$$$
