
     RDKit          3D

 20 20  0  0  0  0  0  0  0  0999 V2000
   38.4620   24.7190   34.7190 C   0  0  0  0  0  0  0  0  0  0  0  0
   39.1550   24.2380   33.7990 O   0  0  0  0  0  0  0  0  0  0  0  0
   38.6760   24.1820   36.0560 C   0  0  0  0  0  0  0  0  0  0  0  0
   37.8240   24.6720   37.0620 C   0  0  0  0  0  0  0  0  0  0  0  0
   38.0090   24.1660   38.3670 C   0  0  0  0  0  0  0  0  0  0  0  0
   38.9810   23.2490   38.5770 N   0  0  0  0  0  0  0  0  0  0  0  0
   39.7640   22.8120   37.5990 C   0  0  0  0  0  0  0  0  0  0  0  0
   39.6260   23.2670   36.3380 N   0  0  0  0  0  0  0  0  0  0  0  0
   37.5270   25.7170   34.4990 O   0  0  0  0  0  0  0  0  0  0  0  0
   37.1520   25.9090   33.1270 C   0  0  0  0  0  0  0  0  0  0  0  0
   37.2550   27.3480   32.7410 C   0  0  0  0  0  0  0  0  0  0  0  0
   36.4460   28.1580   33.5310 O   0  0  0  0  0  0  0  0  0  0  0  0
   37.0463   25.4180   36.8414 H   0  0  0  0  0  0  0  0  0  0  0  0
   37.3749   24.5108   39.1971 H   0  0  0  0  0  0  0  0  0  0  0  0
   40.5399   22.0647   37.8215 H   0  0  0  0  0  0  0  0  0  0  0  0
   37.8196   25.3156   32.4851 H   0  0  0  0  0  0  0  0  0  0  0  0
   36.1083   25.5857   33.0002 H   0  0  0  0  0  0  0  0  0  0  0  0
   38.3001   27.6721   32.8535 H   0  0  0  0  0  0  0  0  0  0  0  0
   36.9187   27.4452   31.6982 H   0  0  0  0  0  0  0  0  0  0  0  0
   36.6287   27.9751   34.4866 H   0  0  0  0  0  0  0  0  0  0  0  0
  1  3  1  0
  2  1  2  0
  3  8  2  0
  3  4  1  0
  4  5  2  0
  5  6  1  0
  7  6  2  0
  8  7  1  0
  9  1  1  0
 10  9  1  0
 11 10  1  0
 11 12  1  0
  4 13  1  0
  5 14  1  0
  7 15  1  0
 10 16  1  0
 10 17  1  0
 11 18  1  0
 11 19  1  0
 12 20  1  0
M  ISO  8  13  14  14  14  15  14  16   8  17   8  18   8  19   8  20   3
M  END
>  <minimizedAffinity>  (1) 
-3.11387086

>  <minimizedRMSD>  (1) 
0.193476275

$$$$
