
     RDKit          3D

 25 26  0  0  0  0  0  0  0  0999 V2000
   37.4890   25.7440   34.5070 O   0  0  0  0  0  0  0  0  0  0  0  0
   37.0830   25.9670   33.1670 C   0  0  0  0  0  0  0  0  0  0  0  0
   37.2020   27.4200   32.7840 C   0  0  0  0  0  0  0  0  0  0  0  0
   38.2150   27.6320   31.7890 N   0  0  0  0  0  0  0  0  0  0  0  0
   38.2410   28.2160   30.5660 C   0  0  0  0  0  0  0  0  0  0  0  0
   39.5010   28.1250   30.0610 N   0  0  0  0  0  0  0  0  0  0  0  0
   40.2460   27.4800   30.9860 C   0  0  0  0  0  0  0  0  0  0  0  0
   39.4510   27.1980   32.0070 N   0  0  0  0  0  0  0  0  0  0  0  0
   38.4150   24.7190   34.7070 C   0  0  0  0  0  0  0  0  0  0  0  0
   39.0600   24.2450   33.7510 O   0  0  0  0  0  0  0  0  0  0  0  0
   38.6470   24.1810   36.0480 C   0  0  0  0  0  0  0  0  0  0  0  0
   37.8260   24.6490   37.0650 C   0  0  0  0  0  0  0  0  0  0  0  0
   38.0110   24.1610   38.3700 C   0  0  0  0  0  0  0  0  0  0  0  0
   39.0020   23.2490   38.5470 N   0  0  0  0  0  0  0  0  0  0  0  0
   39.7750   22.8210   37.5440 C   0  0  0  0  0  0  0  0  0  0  0  0
   39.6260   23.2640   36.2860 N   0  0  0  0  0  0  0  0  0  0  0  0
   37.7183   25.3685   32.4975 H   0  0  0  0  0  0  0  0  0  0  0  0
   36.0271   25.6729   33.0747 H   0  0  0  0  0  0  0  0  0  0  0  0
   36.2356   27.7627   32.3857 H   0  0  0  0  0  0  0  0  0  0  0  0
   37.4848   27.9867   33.6834 H   0  0  0  0  0  0  0  0  0  0  0  0
   37.3831   28.6868   30.0637 H   0  0  0  0  0  0  0  0  0  0  0  0
   41.3153   27.2346   30.9057 H   0  0  0  0  0  0  0  0  0  0  0  0
   37.0421   25.3909   36.8526 H   0  0  0  0  0  0  0  0  0  0  0  0
   37.3838   24.5010   39.2073 H   0  0  0  0  0  0  0  0  0  0  0  0
   40.5600   22.0804   37.7570 H   0  0  0  0  0  0  0  0  0  0  0  0
  1  9  1  0
  2  1  1  0
  3  2  1  0
  4  8  1  0
  4  3  1  0
  5  4  1  0
  6  5  2  0
  6  7  1  0
  7  8  2  0
  9 11  1  0
 10  9  2  0
 11 16  1  0
 11 12  2  0
 12 13  1  0
 13 14  2  0
 15 14  1  0
 16 15  2  0
  2 17  1  0
  2 18  1  0
  3 19  1  0
  3 20  1  0
  5 21  1  0
  7 22  1  0
 12 23  1  0
 13 24  1  0
 15 25  1  0
M  ISO  8  17   8  18   8  19   8  20   8  21  14  22  14  23  14  24  14
M  ISO  1  25  14
M  END
>  <minimizedAffinity>  (1) 
-3.54655337

>  <minimizedRMSD>  (1) 
1.54064333

$$$$
