
     RDKit          3D

 46 49  0  0  0  0  0  0  0  0999 V2000
   37.9100   25.1540   31.3820 O   0  0  0  0  0  0  0  0  0  0  0  0
   37.3290   24.0260   30.7110 C   0  0  0  0  0  0  0  0  0  0  0  0
   37.5730   22.7520   31.3790 C   0  0  0  0  0  0  0  0  0  0  0  0
   36.4710   22.0680   32.0880 C   0  0  0  0  0  0  0  0  0  0  0  0
   36.9250   21.1540   33.1950 C   0  0  0  0  0  0  0  0  0  0  0  0
   35.5450   20.6760   33.6780 C   0  0  0  0  0  0  0  0  0  0  0  0
   34.8720   20.3350   32.3500 C   0  0  0  0  0  0  0  0  0  0  0  0
   35.5570   21.1970   31.3080 C   0  0  0  0  0  0  0  0  0  0  0  0
   37.0050   25.7750   32.2700 C   0  0  0  0  0  0  0  0  0  0  0  0
   35.8410   26.1050   31.9250 O   0  0  0  0  0  0  0  0  0  0  0  0
   37.4460   26.0420   33.6460 C   0  0  0  0  0  0  0  0  0  0  0  0
   37.3430   27.3520   34.1050 C   0  0  0  0  0  0  0  0  0  0  0  0
   37.7640   27.5900   35.4210 C   0  0  0  0  0  0  0  0  0  0  0  0
   38.2420   26.5410   36.1580 N   0  0  0  0  0  0  0  0  0  0  0  0
   38.3180   25.3110   35.6690 C   0  0  0  0  0  0  0  0  0  0  0  0
   37.9240   25.0320   34.4090 N   0  0  0  0  0  0  0  0  0  0  0  0
   38.8390   24.2420   36.5170 C   0  0  0  0  0  0  0  0  0  0  0  0
   38.2350   23.7620   37.6620 C   0  0  0  0  0  0  0  0  0  0  0  0
   38.9620   22.7710   38.2240 N   0  0  0  0  0  0  0  0  0  0  0  0
   40.0590   22.6030   37.4320 C   0  0  0  0  0  0  0  0  0  0  0  0
   41.1180   21.7270   37.5470 C   0  0  0  0  0  0  0  0  0  0  0  0
   42.1240   21.7460   36.6060 C   0  0  0  0  0  0  0  0  0  0  0  0
   42.0560   22.6460   35.5550 C   0  0  0  0  0  0  0  0  0  0  0  0
   40.9940   23.5400   35.4180 C   0  0  0  0  0  0  0  0  0  0  0  0
   39.9940   23.5010   36.3800 C   0  0  0  0  0  0  0  0  0  0  0  0
   37.7503   23.9716   29.6964 H   0  0  0  0  0  0  0  0  0  0  0  0
   36.2401   24.1819   30.7077 H   0  0  0  0  0  0  0  0  0  0  0  0
   37.9376   22.0547   30.6103 H   0  0  0  0  0  0  0  0  0  0  0  0
   38.2681   23.0192   32.1886 H   0  0  0  0  0  0  0  0  0  0  0  0
   35.9385   22.9710   32.4214 H   0  0  0  0  0  0  0  0  0  0  0  0
   37.5429   20.3247   32.8203 H   0  0  0  0  0  0  0  0  0  0  0  0
   37.5658   21.6144   33.9615 H   0  0  0  0  0  0  0  0  0  0  0  0
   35.6284   19.7919   34.3271 H   0  0  0  0  0  0  0  0  0  0  0  0
   34.9986   21.4112   34.2871 H   0  0  0  0  0  0  0  0  0  0  0  0
   35.0070   19.2690   32.1145 H   0  0  0  0  0  0  0  0  0  0  0  0
   33.7889   20.5240   32.3841 H   0  0  0  0  0  0  0  0  0  0  0  0
   34.8203   21.8006   30.7576 H   0  0  0  0  0  0  0  0  0  0  0  0
   36.0910   20.5982   30.5555 H   0  0  0  0  0  0  0  0  0  0  0  0
   36.9515   28.1589   33.4681 H   0  0  0  0  0  0  0  0  0  0  0  0
   37.7110   28.6004   35.8526 H   0  0  0  0  0  0  0  0  0  0  0  0
   37.2833   24.1382   38.0654 H   0  0  0  0  0  0  0  0  0  0  0  0
   38.7329   22.2468   39.0805 H   0  0  0  0  0  0  0  0  0  0  0  0
   41.1592   21.0167   38.3859 H   0  0  0  0  0  0  0  0  0  0  0  0
   42.9739   21.0526   36.6884 H   0  0  0  0  0  0  0  0  0  0  0  0
   42.8626   22.6559   34.8071 H   0  0  0  0  0  0  0  0  0  0  0  0
   40.9506   24.2497   34.5787 H   0  0  0  0  0  0  0  0  0  0  0  0
  1  9  1  0
  2  3  1  0
  2  1  1  0
  3  4  1  0
  4  5  1  0
  5  6  1  0
  7  6  1  0
  8  4  1  0
  8  7  1  0
  9 11  1  0
 10  9  2  0
 11 12  2  0
 11 16  1  0
 12 13  1  0
 13 14  2  0
 15 14  1  0
 15 17  1  0
 16 15  2  0
 17 18  2  0
 18 19  1  0
 20 21  2  0
 20 19  1  0
 22 21  1  0
 23 22  2  0
 24 23  1  0
 24 25  2  0
 25 17  1  0
 25 20  1  0
  2 26  1  0
  2 27  1  0
  3 28  1  0
  3 29  1  0
  4 30  1  0
  5 31  1  0
  5 32  1  0
  6 33  1  0
  6 34  1  0
  7 35  1  0
  7 36  1  0
  8 37  1  0
  8 38  1  0
 12 39  1  0
 13 40  1  0
 18 41  1  0
 19 42  1  0
 21 43  1  0
 22 44  1  0
 23 45  1  0
 24 46  1  0
M  ISO  8  26   8  27   8  28   8  29   8  30  13  31  13  32  13  33  13
M  ISO  8  34  13  35  13  36  13  37  13  38  13  39  14  40  14  41  14
M  ISO  5  42   9  43  14  44  14  45  14  46  14
M  END
>  <minimizedAffinity>  (1) 
-6.28812218

>  <minimizedRMSD>  (1) 
5.02498341

$$$$
