
     RDKit          3D

 42 44  0  0  0  0  0  0  0  0999 V2000
   37.2680   26.3400   35.3280 O   0  0  0  0  0  0  0  0  0  0  0  0
   37.0720   27.1380   34.1520 C   0  0  0  0  0  0  0  0  0  0  0  0
   36.2780   28.3440   34.4070 C   0  0  0  0  0  0  0  0  0  0  0  0
   35.9220   29.2430   33.3000 C   0  0  0  0  0  0  0  0  0  0  0  0
   34.4660   29.3070   32.9540 C   0  0  0  0  0  0  0  0  0  0  0  0
   34.5420   30.3660   31.8330 C   0  0  0  0  0  0  0  0  0  0  0  0
   35.7080   29.8170   31.0080 C   0  0  0  0  0  0  0  0  0  0  0  0
   36.5600   29.0240   31.9800 C   0  0  0  0  0  0  0  0  0  0  0  0
   37.8600   25.0920   35.0420 C   0  0  0  0  0  0  0  0  0  0  0  0
   37.8740   24.6040   33.8830 O   0  0  0  0  0  0  0  0  0  0  0  0
   38.4780   24.3370   36.1270 C   0  0  0  0  0  0  0  0  0  0  0  0
   37.7720   24.2590   37.3270 C   0  0  0  0  0  0  0  0  0  0  0  0
   38.3840   23.5220   38.3720 C   0  0  0  0  0  0  0  0  0  0  0  0
   39.5910   22.9520   38.1510 N   0  0  0  0  0  0  0  0  0  0  0  0
   40.2180   23.0570   36.9890 C   0  0  0  0  0  0  0  0  0  0  0  0
   39.6860   23.7450   35.9600 N   0  0  0  0  0  0  0  0  0  0  0  0
   41.5190   22.4310   36.7780 C   0  0  0  0  0  0  0  0  0  0  0  0
   42.5760   23.1600   36.2820 C   0  0  0  0  0  0  0  0  0  0  0  0
   43.8150   22.5470   36.0860 C   0  0  0  0  0  0  0  0  0  0  0  0
   44.0260   21.2170   36.3730 C   0  0  0  0  0  0  0  0  0  0  0  0
   42.9810   20.4830   36.8670 C   0  0  0  0  0  0  0  0  0  0  0  0
   41.7560   21.0880   37.0620 C   0  0  0  0  0  0  0  0  0  0  0  0
   36.5530   26.5291   33.3971 H   0  0  0  0  0  0  0  0  0  0  0  0
   38.0637   27.4629   33.8043 H   0  0  0  0  0  0  0  0  0  0  0  0
   35.3329   28.0107   34.8605 H   0  0  0  0  0  0  0  0  0  0  0  0
   36.9490   28.9598   35.0239 H   0  0  0  0  0  0  0  0  0  0  0  0
   36.3052   30.1601   33.7713 H   0  0  0  0  0  0  0  0  0  0  0  0
   34.0845   28.3425   32.5875 H   0  0  0  0  0  0  0  0  0  0  0  0
   33.7874   29.5421   33.7872 H   0  0  0  0  0  0  0  0  0  0  0  0
   33.6121   30.4038   31.2466 H   0  0  0  0  0  0  0  0  0  0  0  0
   34.6775   31.3987   32.1869 H   0  0  0  0  0  0  0  0  0  0  0  0
   35.3357   29.1651   30.2040 H   0  0  0  0  0  0  0  0  0  0  0  0
   36.2822   30.6238   30.5291 H   0  0  0  0  0  0  0  0  0  0  0  0
   36.5551   27.9555   31.7186 H   0  0  0  0  0  0  0  0  0  0  0  0
   37.6131   29.3417   31.9674 H   0  0  0  0  0  0  0  0  0  0  0  0
   36.7928   24.7433   37.4558 H   0  0  0  0  0  0  0  0  0  0  0  0
   37.8856   23.4153   39.3468 H   0  0  0  0  0  0  0  0  0  0  0  0
   42.4446   24.2250   36.0402 H   0  0  0  0  0  0  0  0  0  0  0  0
   44.6487   23.1453   35.6899 H   0  0  0  0  0  0  0  0  0  0  0  0
   45.0108   20.7551   36.2093 H   0  0  0  0  0  0  0  0  0  0  0  0
   43.1170   19.4181   37.1069 H   0  0  0  0  0  0  0  0  0  0  0  0
   40.9288   20.4819   37.4600 H   0  0  0  0  0  0  0  0  0  0  0  0
  2  3  1  0
  2  1  1  0
  4  3  1  0
  5  4  1  0
  6  5  1  0
  7  6  1  0
  7  8  1  0
  8  4  1  0
  9  1  1  0
  9 11  1  0
 10  9  2  0
 11 12  2  0
 12 13  1  0
 14 13  2  0
 15 14  1  0
 16 11  1  0
 16 15  2  0
 17 15  1  0
 17 22  1  0
 18 17  2  0
 19 18  1  0
 19 20  2  0
 20 21  1  0
 21 22  2  0
  2 23  1  0
  2 24  1  0
  3 25  1  0
  3 26  1  0
  4 27  1  0
  5 28  1  0
  5 29  1  0
  6 30  1  0
  6 31  1  0
  7 32  1  0
  7 33  1  0
  8 34  1  0
  8 35  1  0
 12 36  1  0
 13 37  1  0
 18 38  1  0
 19 39  1  0
 20 40  1  0
 21 41  1  0
 22 42  1  0
M  ISO  8  23   8  24   8  25   8  26   8  27  13  28  13  29  13  30  13
M  ISO  8  31  13  32  13  33  13  34  13  35  13  36  14  37  14  38  14
M  ISO  4  39  14  40  14  41  14  42  14
M  END
>  <minimizedAffinity>  (1) 
-5.13923502

>  <minimizedRMSD>  (1) 
2.00778198

$$$$
