
     RDKit          3D

 48 50  0  0  0  0  0  0  0  0999 V2000
   37.5050   27.4480   35.0740 C   0  0  0  0  0  0  0  0  0  0  0  0
   36.4400   28.1880   34.4000 C   0  0  0  0  0  0  0  0  0  0  0  0
   36.5960   28.6180   33.0040 C   0  0  0  0  0  0  0  0  0  0  0  0
   35.3680   29.2570   32.4030 C   0  0  0  0  0  0  0  0  0  0  0  0
   35.9340   29.5740   31.0130 C   0  0  0  0  0  0  0  0  0  0  0  0
   36.6300   28.2590   30.6650 C   0  0  0  0  0  0  0  0  0  0  0  0
   36.9630   27.6010   31.9890 C   0  0  0  0  0  0  0  0  0  0  0  0
   37.1130   26.1340   35.4940 O   0  0  0  0  0  0  0  0  0  0  0  0
   38.0160   25.1360   35.0810 C   0  0  0  0  0  0  0  0  0  0  0  0
   38.2780   24.9210   33.8690 O   0  0  0  0  0  0  0  0  0  0  0  0
   38.6820   24.3170   36.1000 C   0  0  0  0  0  0  0  0  0  0  0  0
   38.0500   24.2040   37.3370 C   0  0  0  0  0  0  0  0  0  0  0  0
   38.6880   23.4140   38.3080 C   0  0  0  0  0  0  0  0  0  0  0  0
   39.8710   22.8150   37.9810 N   0  0  0  0  0  0  0  0  0  0  0  0
   40.4310   22.9540   36.7880 C   0  0  0  0  0  0  0  0  0  0  0  0
   39.8570   23.7020   35.8260 N   0  0  0  0  0  0  0  0  0  0  0  0
   41.7180   22.2290   36.6110 C   0  0  0  0  0  0  0  0  0  0  0  0
   41.8580   21.0760   37.5590 C   0  0  0  0  0  0  0  0  0  0  0  0
   42.9030   20.1370   37.0150 C   0  0  0  0  0  0  0  0  0  0  0  0
   43.9630   20.8600   36.1960 C   0  0  0  0  0  0  0  0  0  0  0  0
   43.3420   21.4910   34.9580 C   0  0  0  0  0  0  0  0  0  0  0  0
   41.8410   21.6580   35.2100 C   0  0  0  0  0  0  0  0  0  0  0  0
   37.8171   28.0182   35.9614 H   0  0  0  0  0  0  0  0  0  0  0  0
   38.3220   27.3246   34.3479 H   0  0  0  0  0  0  0  0  0  0  0  0
   35.5437   27.5512   34.4348 H   0  0  0  0  0  0  0  0  0  0  0  0
   36.4159   29.1404   34.9498 H   0  0  0  0  0  0  0  0  0  0  0  0
   37.4347   29.3103   33.1691 H   0  0  0  0  0  0  0  0  0  0  0  0
   34.5188   28.5594   32.3555 H   0  0  0  0  0  0  0  0  0  0  0  0
   34.9550   30.1127   32.9572 H   0  0  0  0  0  0  0  0  0  0  0  0
   35.1332   29.8076   30.2960 H   0  0  0  0  0  0  0  0  0  0  0  0
   36.5940   30.4536   30.9856 H   0  0  0  0  0  0  0  0  0  0  0  0
   35.9597   27.6157   30.0761 H   0  0  0  0  0  0  0  0  0  0  0  0
   37.5331   28.4283   30.0602 H   0  0  0  0  0  0  0  0  0  0  0  0
   36.3741   26.6822   32.1269 H   0  0  0  0  0  0  0  0  0  0  0  0
   38.0192   27.3011   32.0562 H   0  0  0  0  0  0  0  0  0  0  0  0
   37.0955   24.7101   37.5436 H   0  0  0  0  0  0  0  0  0  0  0  0
   38.2458   23.2813   39.3064 H   0  0  0  0  0  0  0  0  0  0  0  0
   42.5019   22.9757   36.8059 H   0  0  0  0  0  0  0  0  0  0  0  0
   42.1680   21.4439   38.5482 H   0  0  0  0  0  0  0  0  0  0  0  0
   40.8961   20.5523   37.6617 H   0  0  0  0  0  0  0  0  0  0  0  0
   43.3939   19.6283   37.8578 H   0  0  0  0  0  0  0  0  0  0  0  0
   42.3971   19.4206   36.3511 H   0  0  0  0  0  0  0  0  0  0  0  0
   44.4218   21.6473   36.8121 H   0  0  0  0  0  0  0  0  0  0  0  0
   44.7256   20.1329   35.8801 H   0  0  0  0  0  0  0  0  0  0  0  0
   43.5034   20.8392   34.0867 H   0  0  0  0  0  0  0  0  0  0  0  0
   43.8051   22.4681   34.7557 H   0  0  0  0  0  0  0  0  0  0  0  0
   41.4037   22.3495   34.4747 H   0  0  0  0  0  0  0  0  0  0  0  0
   41.3055   20.7020   35.1139 H   0  0  0  0  0  0  0  0  0  0  0  0
  1  8  1  0
  2  1  1  0
  3  2  1  0
  4  3  1  0
  5  4  1  0
  6  5  1  0
  6  7  1  0
  7  3  1  0
  9  8  1  0
  9 11  1  0
 10  9  2  0
 11 12  2  0
 12 13  1  0
 14 13  2  0
 15 14  1  0
 16 11  1  0
 16 15  2  0
 17 15  1  0
 17 18  1  0
 19 18  1  0
 20 19  1  0
 21 22  1  0
 21 20  1  0
 22 17  1  0
  1 23  1  0
  1 24  1  0
  2 25  1  0
  2 26  1  0
  3 27  1  0
  4 28  1  0
  4 29  1  0
  5 30  1  0
  5 31  1  0
  6 32  1  0
  6 33  1  0
  7 34  1  0
  7 35  1  0
 12 36  1  0
 13 37  1  0
 17 38  1  0
 18 39  1  0
 18 40  1  0
 19 41  1  0
 19 42  1  0
 20 43  1  0
 20 44  1  0
 21 45  1  0
 21 46  1  0
 22 47  1  0
 22 48  1  0
M  ISO  8  23   8  24   8  25   8  26   8  27  13  28  13  29  13  30  13
M  ISO  8  31  13  32  13  33  13  34  13  35  13  36  14  37  14  38  13
M  ISO  8  39  13  40  13  41  13  42  13  43  13  44  13  45  13  46  13
M  ISO  2  47  13  48  13
M  END
>  <minimizedAffinity>  (1) 
-4.98498297

>  <minimizedRMSD>  (1) 
1.6036936

$$$$
