
     RDKit          3D

 18 19  0  0  0  0  0  0  0  0999 V2000
   40.6390   22.1780   36.1370 C   0  0  0  0  0  0  0  0  0  0  0  0
   40.1100   22.6450   37.3620 C   0  0  0  0  0  0  0  0  0  0  0  0
   38.8030   23.1700   37.3300 C   0  0  0  0  0  0  0  0  0  0  0  0
   38.1290   23.2020   36.1490 N   0  0  0  0  0  0  0  0  0  0  0  0
   38.6870   22.7390   35.0000 C   0  0  0  0  0  0  0  0  0  0  0  0
   39.9290   22.2340   34.9970 N   0  0  0  0  0  0  0  0  0  0  0  0
   37.8470   22.8350   33.7950 C   0  0  0  0  0  0  0  0  0  0  0  0
   37.0520   21.8550   33.2870 N   0  0  0  0  0  0  0  0  0  0  0  0
   36.4460   22.2640   32.2170 O   0  0  0  0  0  0  0  0  0  0  0  0
   36.8060   23.5090   31.9760 C   0  0  0  0  0  0  0  0  0  0  0  0
   37.6770   23.8730   32.9540 N   0  0  0  0  0  0  0  0  0  0  0  0
   38.2940   23.6400   38.6180 C   0  0  0  0  0  0  0  0  0  0  0  0
   37.8130   24.9140   38.4900 F   0  0  0  0  0  0  0  0  0  0  0  0
   39.3940   23.7260   39.4700 F   0  0  0  0  0  0  0  0  0  0  0  0
   37.3070   22.8310   39.1360 F   0  0  0  0  0  0  0  0  0  0  0  0
   41.6558   21.7588   36.1162 H   0  0  0  0  0  0  0  0  0  0  0  0
   40.6908   22.6006   38.2951 H   0  0  0  0  0  0  0  0  0  0  0  0
   36.4651   24.1364   31.1393 H   0  0  0  0  0  0  0  0  0  0  0  0
  1  2  2  0
  3  2  1  0
  3 12  1  0
  4  3  2  0
  5  4  1  0
  6  5  2  0
  6  1  1  0
  7  5  1  0
  8  7  2  0
  9  8  1  0
 10  9  1  0
 10 11  2  0
 11  7  1  0
 12 15  1  0
 12 14  1  0
 13 12  1  0
  1 16  1  0
  2 17  1  0
 10 18  1  0
M  ISO  3  16  14  17  14  18  14
M  END
>  <minimizedAffinity>  (1) 
-4.39060783

>  <minimizedRMSD>  (1) 
0.902511358

$$$$
