
     RDKit          3D

 39 41  0  0  0  0  0  0  0  0999 V2000
   37.0270   26.3550   33.2870 C   0  0  0  0  0  0  0  0  0  0  0  0
   36.7980   27.8000   33.1870 C   0  0  0  0  0  0  0  0  0  0  0  0
   37.0510   28.5130   31.9290 C   0  0  0  0  0  0  0  0  0  0  0  0
   35.9450   29.4130   31.4660 C   0  0  0  0  0  0  0  0  0  0  0  0
   36.6200   29.9700   30.1980 C   0  0  0  0  0  0  0  0  0  0  0  0
   37.1420   28.6820   29.5660 C   0  0  0  0  0  0  0  0  0  0  0  0
   37.3350   27.6980   30.7070 C   0  0  0  0  0  0  0  0  0  0  0  0
   37.4640   25.9340   34.5690 O   0  0  0  0  0  0  0  0  0  0  0  0
   37.9300   24.6030   34.6060 C   0  0  0  0  0  0  0  0  0  0  0  0
   37.9180   23.8860   33.5860 O   0  0  0  0  0  0  0  0  0  0  0  0
   38.4330   24.0560   35.8630 C   0  0  0  0  0  0  0  0  0  0  0  0
   37.7310   24.3550   37.0260 C   0  0  0  0  0  0  0  0  0  0  0  0
   38.2160   23.8280   38.2340 C   0  0  0  0  0  0  0  0  0  0  0  0
   39.3300   23.0650   38.2110 N   0  0  0  0  0  0  0  0  0  0  0  0
   39.9700   22.8020   37.0780 C   0  0  0  0  0  0  0  0  0  0  0  0
   39.5450   23.2830   35.8980 N   0  0  0  0  0  0  0  0  0  0  0  0
   41.1880   21.9660   37.0560 C   0  0  0  0  0  0  0  0  0  0  0  0
   42.2110   22.1160   36.1680 C   0  0  0  0  0  0  0  0  0  0  0  0
   43.1410   21.2020   36.4320 N   0  0  0  0  0  0  0  0  0  0  0  0
   42.7180   20.4690   37.4860 C   0  0  0  0  0  0  0  0  0  0  0  0
   41.5060   20.9310   37.8840 N   0  0  0  0  0  0  0  0  0  0  0  0
   37.7926   26.0729   32.5493 H   0  0  0  0  0  0  0  0  0  0  0  0
   36.0613   25.8629   33.0991 H   0  0  0  0  0  0  0  0  0  0  0  0
   35.7400   27.9686   33.4365 H   0  0  0  0  0  0  0  0  0  0  0  0
   37.5595   28.2166   33.8627 H   0  0  0  0  0  0  0  0  0  0  0  0
   37.9504   29.0501   32.2645 H   0  0  0  0  0  0  0  0  0  0  0  0
   35.0256   28.8549   31.2351 H   0  0  0  0  0  0  0  0  0  0  0  0
   35.6031   30.1633   32.1941 H   0  0  0  0  0  0  0  0  0  0  0  0
   35.8965   30.4782   29.5436 H   0  0  0  0  0  0  0  0  0  0  0  0
   37.3916   30.7305   30.3882 H   0  0  0  0  0  0  0  0  0  0  0  0
   36.4121   28.2890   28.8429 H   0  0  0  0  0  0  0  0  0  0  0  0
   38.0825   28.8548   29.0223 H   0  0  0  0  0  0  0  0  0  0  0  0
   36.6305   26.8573   30.6236 H   0  0  0  0  0  0  0  0  0  0  0  0
   38.3390   27.2488   30.7177 H   0  0  0  0  0  0  0  0  0  0  0  0
   36.8277   24.9822   37.0004 H   0  0  0  0  0  0  0  0  0  0  0  0
   37.6976   24.0331   39.1823 H   0  0  0  0  0  0  0  0  0  0  0  0
   42.2596   22.8677   35.3664 H   0  0  0  0  0  0  0  0  0  0  0  0
   43.2669   19.6341   37.9460 H   0  0  0  0  0  0  0  0  0  0  0  0
   40.9360   20.5693   38.6619 H   0  0  0  0  0  0  0  0  0  0  0  0
  1  8  1  0
  2  1  1  0
  3  2  1  0
  4  3  1  0
  5  4  1  0
  6  5  1  0
  6  7  1  0
  7  3  1  0
  8  9  1  0
  9 11  1  0
 10  9  2  0
 11 16  1  0
 11 12  2  0
 12 13  1  0
 14 13  2  0
 15 14  1  0
 16 15  2  0
 17 15  1  0
 17 21  1  0
 18 19  1  0
 18 17  2  0
 19 20  2  0
 20 21  1  0
  1 22  1  0
  1 23  1  0
  2 24  1  0
  2 25  1  0
  3 26  1  0
  4 27  1  0
  4 28  1  0
  5 29  1  0
  5 30  1  0
  6 31  1  0
  6 32  1  0
  7 33  1  0
  7 34  1  0
 12 35  1  0
 13 36  1  0
 18 37  1  0
 20 38  1  0
 21 39  1  0
M  ISO  8  22   8  23   8  24   8  25   8  26  13  27  13  28  13  29  13
M  ISO  8  30  13  31  13  32  13  33  13  34  13  35  14  36  14  37  14
M  ISO  2  38  14  39   9
M  END
>  <minimizedAffinity>  (1) 
-4.94079971

>  <minimizedRMSD>  (1) 
0.782993734

$$$$
