
     RDKit          3D

 46 48  0  0  0  0  0  0  0  0999 V2000
   37.0800   26.2740   33.2660 C   0  0  0  0  0  0  0  0  0  0  0  0
   36.8490   27.7280   33.2010 C   0  0  0  0  0  0  0  0  0  0  0  0
   37.0650   28.4680   31.9590 C   0  0  0  0  0  0  0  0  0  0  0  0
   35.9400   29.3540   31.5260 C   0  0  0  0  0  0  0  0  0  0  0  0
   36.5690   29.9440   30.2540 C   0  0  0  0  0  0  0  0  0  0  0  0
   37.1280   28.6820   29.5960 C   0  0  0  0  0  0  0  0  0  0  0  0
   37.3640   27.6950   30.7210 C   0  0  0  0  0  0  0  0  0  0  0  0
   37.4920   25.8140   34.5450 O   0  0  0  0  0  0  0  0  0  0  0  0
   37.9780   24.4940   34.5480 C   0  0  0  0  0  0  0  0  0  0  0  0
   37.8910   23.7700   33.5440 O   0  0  0  0  0  0  0  0  0  0  0  0
   38.6020   23.9530   35.7510 C   0  0  0  0  0  0  0  0  0  0  0  0
   37.8380   23.9950   36.9380 C   0  0  0  0  0  0  0  0  0  0  0  0
   38.4150   23.4790   38.1080 C   0  0  0  0  0  0  0  0  0  0  0  0
   39.6650   22.9720   38.0460 N   0  0  0  0  0  0  0  0  0  0  0  0
   40.3450   22.9560   36.8980 C   0  0  0  0  0  0  0  0  0  0  0  0
   39.8550   23.4300   35.7450 N   0  0  0  0  0  0  0  0  0  0  0  0
   41.6520   22.3990   36.9440 N   0  0  0  0  0  0  0  0  0  0  0  0
   42.8090   23.1980   36.5860 C   0  0  0  0  0  0  0  0  0  0  0  0
   43.3310   22.6350   35.2730 C   0  0  0  0  0  0  0  0  0  0  0  0
   43.2760   21.1960   35.2660 N   0  0  0  0  0  0  0  0  0  0  0  0
   43.2340   20.6170   36.5940 C   0  0  0  0  0  0  0  0  0  0  0  0
   41.9610   21.0370   37.3340 C   0  0  0  0  0  0  0  0  0  0  0  0
   37.8610   26.0143   32.5363 H   0  0  0  0  0  0  0  0  0  0  0  0
   36.1183   25.7875   33.0459 H   0  0  0  0  0  0  0  0  0  0  0  0
   35.7986   27.8912   33.4841 H   0  0  0  0  0  0  0  0  0  0  0  0
   37.6325   28.1281   33.8614 H   0  0  0  0  0  0  0  0  0  0  0  0
   37.9533   29.0180   32.3031 H   0  0  0  0  0  0  0  0  0  0  0  0
   35.0264   28.7820   31.3064 H   0  0  0  0  0  0  0  0  0  0  0  0
   35.6057   30.0902   32.2718 H   0  0  0  0  0  0  0  0  0  0  0  0
   35.8149   30.4313   29.6185 H   0  0  0  0  0  0  0  0  0  0  0  0
   37.3166   30.7295   30.4389 H   0  0  0  0  0  0  0  0  0  0  0  0
   36.4043   28.2741   28.8750 H   0  0  0  0  0  0  0  0  0  0  0  0
   38.0553   28.8925   29.0431 H   0  0  0  0  0  0  0  0  0  0  0  0
   36.6896   26.8309   30.6289 H   0  0  0  0  0  0  0  0  0  0  0  0
   38.3864   27.2893   30.7160 H   0  0  0  0  0  0  0  0  0  0  0  0
   36.8229   24.4188   36.9449 H   0  0  0  0  0  0  0  0  0  0  0  0
   37.8599   23.4873   39.0576 H   0  0  0  0  0  0  0  0  0  0  0  0
   42.5192   24.2516   36.4596 H   0  0  0  0  0  0  0  0  0  0  0  0
   43.5789   23.1583   37.3707 H   0  0  0  0  0  0  0  0  0  0  0  0
   42.7162   23.0218   34.4469 H   0  0  0  0  0  0  0  0  0  0  0  0
   44.3797   22.9445   35.1532 H   0  0  0  0  0  0  0  0  0  0  0  0
   42.4307   20.9037   34.7551 H   0  0  0  0  0  0  0  0  0  0  0  0
   43.2561   19.5205   36.5095 H   0  0  0  0  0  0  0  0  0  0  0  0
   44.1049   20.9767   37.1616 H   0  0  0  0  0  0  0  0  0  0  0  0
   42.1256   20.9868   38.4205 H   0  0  0  0  0  0  0  0  0  0  0  0
   41.1282   20.3653   37.0787 H   0  0  0  0  0  0  0  0  0  0  0  0
  1  8  1  0
  2  1  1  0
  3  2  1  0
  4  3  1  0
  5  4  1  0
  6  5  1  0
  6  7  1  0
  7  3  1  0
  8  9  1  0
  9 11  1  0
 10  9  2  0
 11 12  2  0
 12 13  1  0
 14 13  2  0
 15 17  1  0
 15 14  1  0
 16 11  1  0
 16 15  2  0
 17 22  1  0
 18 17  1  0
 19 18  1  0
 20 19  1  0
 20 21  1  0
 21 22  1  0
  1 23  1  0
  1 24  1  0
  2 25  1  0
  2 26  1  0
  3 27  1  0
  4 28  1  0
  4 29  1  0
  5 30  1  0
  5 31  1  0
  6 32  1  0
  6 33  1  0
  7 34  1  0
  7 35  1  0
 12 36  1  0
 13 37  1  0
 18 38  1  0
 18 39  1  0
 19 40  1  0
 19 41  1  0
 20 42  1  0
 21 43  1  0
 21 44  1  0
 22 45  1  0
 22 46  1  0
M  ISO  8  23   8  24   8  25   8  26   8  27  13  28  13  29  13  30  13
M  ISO  8  31  13  32  13  33  13  34  13  35  13  36  14  37  14  38  13
M  ISO  8  39  13  40  13  41  13  42   5  43  13  44  13  45  13  46  13
M  END
>  <minimizedAffinity>  (1) 
-4.81627846

>  <minimizedRMSD>  (1) 
1.1498245

$$$$
