
     RDKit          3D

 34 35  0  0  0  0  0  0  0  0999 V2000
   37.2100   26.0150   33.2560 C   0  0  0  0  0  0  0  0  0  0  0  0
   36.7350   27.3830   33.0180 C   0  0  0  0  0  0  0  0  0  0  0  0
   37.2850   28.2010   31.9240 C   0  0  0  0  0  0  0  0  0  0  0  0
   36.3150   28.5170   30.8160 C   0  0  0  0  0  0  0  0  0  0  0  0
   37.2360   29.3590   29.9220 C   0  0  0  0  0  0  0  0  0  0  0  0
   38.5080   28.5370   29.9240 C   0  0  0  0  0  0  0  0  0  0  0  0
   38.4640   27.6930   31.1840 C   0  0  0  0  0  0  0  0  0  0  0  0
   37.5760   25.7570   34.6010 O   0  0  0  0  0  0  0  0  0  0  0  0
   38.2260   24.5340   34.7980 C   0  0  0  0  0  0  0  0  0  0  0  0
   38.5690   23.8240   33.8350 O   0  0  0  0  0  0  0  0  0  0  0  0
   38.5070   24.0800   36.1650 C   0  0  0  0  0  0  0  0  0  0  0  0
   37.7840   24.6700   37.1970 C   0  0  0  0  0  0  0  0  0  0  0  0
   38.0460   24.2440   38.5070 C   0  0  0  0  0  0  0  0  0  0  0  0
   38.9930   23.2760   38.6960 N   0  0  0  0  0  0  0  0  0  0  0  0
   39.6540   22.7470   37.6710 C   0  0  0  0  0  0  0  0  0  0  0  0
   39.4500   23.1140   36.3820 N   0  0  0  0  0  0  0  0  0  0  0  0
   40.6420   21.7420   37.8450 N   0  0  0  0  0  0  0  0  0  0  0  0
   38.0888   25.8383   32.6185 H   0  0  0  0  0  0  0  0  0  0  0  0
   36.3727   25.3420   33.0196 H   0  0  0  0  0  0  0  0  0  0  0  0
   35.6520   27.3105   32.8393 H   0  0  0  0  0  0  0  0  0  0  0  0
   37.0818   27.9171   33.9149 H   0  0  0  0  0  0  0  0  0  0  0  0
   37.5640   29.0666   32.5427 H   0  0  0  0  0  0  0  0  0  0  0  0
   35.9624   27.6088   30.3053 H   0  0  0  0  0  0  0  0  0  0  0  0
   35.3825   29.0087   31.1301 H   0  0  0  0  0  0  0  0  0  0  0  0
   37.4046   30.3584   30.3496 H   0  0  0  0  0  0  0  0  0  0  0  0
   36.8298   29.5478   28.9173 H   0  0  0  0  0  0  0  0  0  0  0  0
   38.5466   27.8918   29.0339 H   0  0  0  0  0  0  0  0  0  0  0  0
   39.4007   29.1794   29.9026 H   0  0  0  0  0  0  0  0  0  0  0  0
   38.3394   26.6286   30.9359 H   0  0  0  0  0  0  0  0  0  0  0  0
   39.3916   27.7652   31.7708 H   0  0  0  0  0  0  0  0  0  0  0  0
   37.0313   25.4455   36.9919 H   0  0  0  0  0  0  0  0  0  0  0  0
   37.5038   24.6773   39.3604 H   0  0  0  0  0  0  0  0  0  0  0  0
   41.1335   21.3558   37.0264 H   0  0  0  0  0  0  0  0  0  0  0  0
   40.8672   21.3993   38.7898 H   0  0  0  0  0  0  0  0  0  0  0  0
  1  8  1  0
  2  1  1  0
  3  2  1  0
  4  3  1  0
  5  6  1  0
  5  4  1  0
  6  7  1  0
  7  3  1  0
  8  9  1  0
  9 11  1  0
 10  9  2  0
 11 16  1  0
 11 12  2  0
 12 13  1  0
 13 14  2  0
 15 17  1  0
 15 14  1  0
 16 15  2  0
  1 18  1  0
  1 19  1  0
  2 20  1  0
  2 21  1  0
  3 22  1  0
  4 23  1  0
  4 24  1  0
  5 25  1  0
  5 26  1  0
  6 27  1  0
  6 28  1  0
  7 29  1  0
  7 30  1  0
 12 31  1  0
 13 32  1  0
 17 33  1  0
 17 34  1  0
M  ISO  8  18   8  19   8  20   8  21   8  22  13  23  13  24  13  25  13
M  ISO  7  26  13  27  13  28  13  29  13  30  13  31  14  32  14
M  END
>  <minimizedAffinity>  (1) 
-4.64133167

>  <minimizedRMSD>  (1) 
0.150902212

$$$$
