
     RDKit          3D

 35 36  0  0  0  0  0  0  0  0999 V2000
   37.0670   26.2930   33.2720 C   0  0  0  0  0  0  0  0  0  0  0  0
   36.8230   27.7440   33.1920 C   0  0  0  0  0  0  0  0  0  0  0  0
   37.0430   28.4800   31.9450 C   0  0  0  0  0  0  0  0  0  0  0  0
   35.9420   29.3860   31.5050 C   0  0  0  0  0  0  0  0  0  0  0  0
   36.5850   29.9670   30.2370 C   0  0  0  0  0  0  0  0  0  0  0  0
   37.1340   28.6940   29.5830 C   0  0  0  0  0  0  0  0  0  0  0  0
   37.3350   27.7000   30.7080 C   0  0  0  0  0  0  0  0  0  0  0  0
   37.4640   25.8640   34.5790 O   0  0  0  0  0  0  0  0  0  0  0  0
   38.0030   24.5720   34.6130 C   0  0  0  0  0  0  0  0  0  0  0  0
   38.0910   23.8680   33.5800 O   0  0  0  0  0  0  0  0  0  0  0  0
   38.4800   24.0300   35.8960 C   0  0  0  0  0  0  0  0  0  0  0  0
   37.6630   24.2410   37.0150 C   0  0  0  0  0  0  0  0  0  0  0  0
   38.1290   23.7180   38.2300 C   0  0  0  0  0  0  0  0  0  0  0  0
   39.3080   23.0550   38.2650 N   0  0  0  0  0  0  0  0  0  0  0  0
   40.0440   22.8850   37.1600 C   0  0  0  0  0  0  0  0  0  0  0  0
   39.6570   23.3590   35.9660 N   0  0  0  0  0  0  0  0  0  0  0  0
   41.2990   22.1560   37.3080 C   0  0  0  0  0  0  0  0  0  0  0  0
   42.3340   22.6080   36.7430 O   0  0  0  0  0  0  0  0  0  0  0  0
   41.4330   20.9820   38.0370 O   0  0  0  0  0  0  0  0  0  0  0  0
   37.8639   26.0317   32.5601 H   0  0  0  0  0  0  0  0  0  0  0  0
   36.1204   25.7863   33.0326 H   0  0  0  0  0  0  0  0  0  0  0  0
   35.7685   27.8989   33.4643 H   0  0  0  0  0  0  0  0  0  0  0  0
   37.5983   28.1557   33.8549 H   0  0  0  0  0  0  0  0  0  0  0  0
   37.9350   29.0191   32.2967 H   0  0  0  0  0  0  0  0  0  0  0  0
   35.0191   28.8314   31.2801 H   0  0  0  0  0  0  0  0  0  0  0  0
   35.6203   30.1288   32.2499 H   0  0  0  0  0  0  0  0  0  0  0  0
   35.8406   30.4624   29.5963 H   0  0  0  0  0  0  0  0  0  0  0  0
   37.3404   30.7442   30.4250 H   0  0  0  0  0  0  0  0  0  0  0  0
   36.4150   28.3006   28.8493 H   0  0  0  0  0  0  0  0  0  0  0  0
   38.0737   28.8901   29.0459 H   0  0  0  0  0  0  0  0  0  0  0  0
   36.6404   26.8529   30.6083 H   0  0  0  0  0  0  0  0  0  0  0  0
   38.3469   27.2686   30.7121 H   0  0  0  0  0  0  0  0  0  0  0  0
   36.7101   24.7860   36.9443 H   0  0  0  0  0  0  0  0  0  0  0  0
   37.5392   23.8461   39.1496 H   0  0  0  0  0  0  0  0  0  0  0  0
   42.3144   20.5353   38.0984 H   0  0  0  0  0  0  0  0  0  0  0  0
  1  8  1  0
  2  1  1  0
  3  2  1  0
  4  3  1  0
  5  4  1  0
  6  5  1  0
  6  7  1  0
  7  3  1  0
  8  9  1  0
  9 11  1  0
 10  9  2  0
 11 16  1  0
 11 12  2  0
 12 13  1  0
 13 14  2  0
 15 17  1  0
 15 14  1  0
 16 15  2  0
 17 19  1  0
 18 17  2  0
  1 20  1  0
  1 21  1  0
  2 22  1  0
  2 23  1  0
  3 24  1  0
  4 25  1  0
  4 26  1  0
  5 27  1  0
  5 28  1  0
  6 29  1  0
  6 30  1  0
  7 31  1  0
  7 32  1  0
 12 33  1  0
 13 34  1  0
 19 35  1  0
M  ISO  8  20   8  21   8  22   8  23   8  24  13  25  13  26  13  27  13
M  ISO  8  28  13  29  13  30  13  31  13  32  13  33  14  34  14  35   3
M  END
>  <minimizedAffinity>  (1) 
-4.71427774

>  <minimizedRMSD>  (1) 
0.723841488

$$$$
