
     RDKit          3D

 44 45  0  0  0  0  0  0  0  0999 V2000
   35.8190   26.2670   31.2170 C   0  0  0  0  0  0  0  0  0  0  0  0
   35.6390   27.6020   31.7890 C   0  0  0  0  0  0  0  0  0  0  0  0
   36.3980   28.7470   31.2620 C   0  0  0  0  0  0  0  0  0  0  0  0
   35.6330   30.0420   31.1980 C   0  0  0  0  0  0  0  0  0  0  0  0
   36.7080   30.9460   30.6030 C   0  0  0  0  0  0  0  0  0  0  0  0
   37.3210   30.0690   29.5230 C   0  0  0  0  0  0  0  0  0  0  0  0
   36.9840   28.6390   29.8920 C   0  0  0  0  0  0  0  0  0  0  0  0
   36.2720   25.2920   32.1600 O   0  0  0  0  0  0  0  0  0  0  0  0
   37.5850   25.5170   32.5880 C   0  0  0  0  0  0  0  0  0  0  0  0
   38.5470   25.5710   31.7790 O   0  0  0  0  0  0  0  0  0  0  0  0
   37.8640   25.6970   34.0140 C   0  0  0  0  0  0  0  0  0  0  0  0
   38.0880   27.0120   34.4480 C   0  0  0  0  0  0  0  0  0  0  0  0
   38.3570   27.2020   35.8140 C   0  0  0  0  0  0  0  0  0  0  0  0
   38.3840   26.1130   36.6190 N   0  0  0  0  0  0  0  0  0  0  0  0
   38.1670   24.8930   36.1630 C   0  0  0  0  0  0  0  0  0  0  0  0
   37.9020   24.6400   34.8630 N   0  0  0  0  0  0  0  0  0  0  0  0
   38.2140   23.7440   37.1190 C   0  0  0  0  0  0  0  0  0  0  0  0
   39.6300   23.1790   37.0130 C   0  0  0  0  0  0  0  0  0  0  0  0
   37.9940   24.2590   38.5030 C   0  0  0  0  0  0  0  0  0  0  0  0
   37.2370   22.6740   36.6910 C   0  0  0  0  0  0  0  0  0  0  0  0
   34.8545   25.9320   30.8078 H   0  0  0  0  0  0  0  0  0  0  0  0
   36.5973   26.3515   30.4442 H   0  0  0  0  0  0  0  0  0  0  0  0
   34.5735   27.8518   31.6780 H   0  0  0  0  0  0  0  0  0  0  0  0
   36.0348   27.4903   32.8092 H   0  0  0  0  0  0  0  0  0  0  0  0
   37.1947   28.7347   32.0204 H   0  0  0  0  0  0  0  0  0  0  0  0
   34.7530   29.9659   30.5424 H   0  0  0  0  0  0  0  0  0  0  0  0
   35.2139   30.3839   32.1558 H   0  0  0  0  0  0  0  0  0  0  0  0
   36.2666   31.8565   30.1716 H   0  0  0  0  0  0  0  0  0  0  0  0
   37.4390   31.3015   31.3441 H   0  0  0  0  0  0  0  0  0  0  0  0
   38.4119   30.2076   29.4939 H   0  0  0  0  0  0  0  0  0  0  0  0
   36.9286   30.3276   28.5285 H   0  0  0  0  0  0  0  0  0  0  0  0
   36.2539   28.2151   29.1869 H   0  0  0  0  0  0  0  0  0  0  0  0
   37.8607   27.9754   29.8579 H   0  0  0  0  0  0  0  0  0  0  0  0
   38.0544   27.8596   33.7477 H   0  0  0  0  0  0  0  0  0  0  0  0
   38.5407   28.2082   36.2188 H   0  0  0  0  0  0  0  0  0  0  0  0
   40.0365   23.0168   38.0222 H   0  0  0  0  0  0  0  0  0  0  0  0
   39.6035   22.2226   36.4703 H   0  0  0  0  0  0  0  0  0  0  0  0
   40.2692   23.8910   36.4703 H   0  0  0  0  0  0  0  0  0  0  0  0
   38.3176   23.5014   39.2319 H   0  0  0  0  0  0  0  0  0  0  0  0
   38.5771   25.1803   38.6484 H   0  0  0  0  0  0  0  0  0  0  0  0
   36.9252   24.4747   38.6484 H   0  0  0  0  0  0  0  0  0  0  0  0
   36.8018   22.1974   37.5817 H   0  0  0  0  0  0  0  0  0  0  0  0
   36.4357   23.1284   36.0898 H   0  0  0  0  0  0  0  0  0  0  0  0
   37.7622   21.9172   36.0898 H   0  0  0  0  0  0  0  0  0  0  0  0
  1  2  1  0
  1  8  1  0
  3  2  1  0
  4  3  1  0
  5  4  1  0
  6  7  1  0
  6  5  1  0
  7  3  1  0
  8  9  1  0
  9 11  1  0
 10  9  2  0
 11 12  2  0
 11 16  1  0
 12 13  1  0
 13 14  2  0
 15 14  1  0
 15 17  1  0
 16 15  2  0
 17 19  1  0
 18 17  1  0
 20 17  1  0
  1 21  1  0
  1 22  1  0
  2 23  1  0
  2 24  1  0
  3 25  1  0
  4 26  1  0
  4 27  1  0
  5 28  1  0
  5 29  1  0
  6 30  1  0
  6 31  1  0
  7 32  1  0
  7 33  1  0
 12 34  1  0
 13 35  1  0
 18 36  1  0
 18 37  1  0
 18 38  1  0
 19 39  1  0
 19 40  1  0
 19 41  1  0
 20 42  1  0
 20 43  1  0
 20 44  1  0
M  ISO  8  21   8  22   8  23   8  24   8  25  13  26  13  27  13  28  13
M  ISO  8  29  13  30  13  31  13  32  13  33  13  34  14  35  14  36   8
M  ISO  8  37   8  38   8  39   8  40   8  41   8  42   8  43   8  44   8
M  END
>  <minimizedAffinity>  (1) 
-4.65431738

>  <minimizedRMSD>  (1) 
3.00291085

$$$$
