
     RDKit          3D

 16 16  0  0  0  0  0  0  0  0999 V2000
   41.1210   22.1310   36.5890 C   0  0  0  0  0  0  0  0  0  0  0  0
   40.3920   22.6890   37.6630 C   0  0  0  0  0  0  0  0  0  0  0  0
   39.0650   23.0400   37.4180 C   0  0  0  0  0  0  0  0  0  0  0  0
   38.5600   22.8320   36.1870 N   0  0  0  0  0  0  0  0  0  0  0  0
   39.2890   22.2960   35.1820 C   0  0  0  0  0  0  0  0  0  0  0  0
   40.5630   21.9480   35.3820 N   0  0  0  0  0  0  0  0  0  0  0  0
   38.3580   23.6130   38.5640 C   0  0  0  0  0  0  0  0  0  0  0  0
   37.8990   24.8750   38.2280 F   0  0  0  0  0  0  0  0  0  0  0  0
   39.2890   23.8090   39.5640 F   0  0  0  0  0  0  0  0  0  0  0  0
   37.2920   22.8710   38.9770 F   0  0  0  0  0  0  0  0  0  0  0  0
   38.5800   22.1270   33.8650 C   0  0  0  0  0  0  0  0  0  0  0  0
   39.1490   21.0990   33.1330 F   0  0  0  0  0  0  0  0  0  0  0  0
   38.6800   23.3270   33.1890 F   0  0  0  0  0  0  0  0  0  0  0  0
   37.2510   21.8410   34.2040 F   0  0  0  0  0  0  0  0  0  0  0  0
   42.1701   21.8398   36.7456 H   0  0  0  0  0  0  0  0  0  0  0  0
   40.8519   22.8401   38.6507 H   0  0  0  0  0  0  0  0  0  0  0  0
  1  2  2  0
  3  2  1  0
  3  7  1  0
  4  3  2  0
  5  6  2  0
  5  4  1  0
  6  1  1  0
  7 10  1  0
  7  9  1  0
  8  7  1  0
 11 14  1  0
 11  5  1  0
 12 11  1  0
 13 11  1  0
  1 15  1  0
  2 16  1  0
M  ISO  2  15  14  16  14
M  END
>  <minimizedAffinity>  (1) 
-4.20339537

>  <minimizedRMSD>  (1) 
0.206742659

$$$$
