
     RDKit          3D

 38 39  0  0  0  0  0  0  0  0999 V2000
   37.0490   26.3350   33.3780 C   0  0  0  0  0  0  0  0  0  0  0  0
   36.7450   27.7580   33.2560 C   0  0  0  0  0  0  0  0  0  0  0  0
   37.0260   28.4770   32.0000 C   0  0  0  0  0  0  0  0  0  0  0  0
   35.9270   29.3970   31.5470 C   0  0  0  0  0  0  0  0  0  0  0  0
   36.5570   29.9290   30.2640 C   0  0  0  0  0  0  0  0  0  0  0  0
   37.1200   28.6580   29.6390 C   0  0  0  0  0  0  0  0  0  0  0  0
   37.3230   27.6810   30.7810 C   0  0  0  0  0  0  0  0  0  0  0  0
   37.4010   25.9380   34.7130 O   0  0  0  0  0  0  0  0  0  0  0  0
   38.1680   24.7570   34.7390 C   0  0  0  0  0  0  0  0  0  0  0  0
   38.5450   24.1700   33.6920 O   0  0  0  0  0  0  0  0  0  0  0  0
   38.5430   24.1880   36.0370 C   0  0  0  0  0  0  0  0  0  0  0  0
   37.7800   24.5670   37.1400 C   0  0  0  0  0  0  0  0  0  0  0  0
   38.1330   24.0130   38.3800 C   0  0  0  0  0  0  0  0  0  0  0  0
   39.1860   23.1490   38.4370 N   0  0  0  0  0  0  0  0  0  0  0  0
   39.8860   22.8190   37.3460 C   0  0  0  0  0  0  0  0  0  0  0  0
   39.5820   23.3270   36.1340 N   0  0  0  0  0  0  0  0  0  0  0  0
   41.0150   21.8650   37.5270 C   0  0  0  0  0  0  0  0  0  0  0  0
   42.2200   22.2630   36.7260 C   0  0  0  0  0  0  0  0  0  0  0  0
   37.8917   26.1003   32.7111 H   0  0  0  0  0  0  0  0  0  0  0  0
   36.1366   25.7841   33.1059 H   0  0  0  0  0  0  0  0  0  0  0  0
   35.6675   27.8679   33.4480 H   0  0  0  0  0  0  0  0  0  0  0  0
   37.4422   28.2225   33.9689 H   0  0  0  0  0  0  0  0  0  0  0  0
   37.9350   28.9950   32.3398 H   0  0  0  0  0  0  0  0  0  0  0  0
   34.9915   28.8529   31.3498 H   0  0  0  0  0  0  0  0  0  0  0  0
   35.6292   30.1652   32.2759 H   0  0  0  0  0  0  0  0  0  0  0  0
   35.8038   30.3956   29.6121 H   0  0  0  0  0  0  0  0  0  0  0  0
   37.3101   30.7132   30.4309 H   0  0  0  0  0  0  0  0  0  0  0  0
   36.4104   28.2464   28.9062 H   0  0  0  0  0  0  0  0  0  0  0  0
   38.0624   28.8555   29.1072 H   0  0  0  0  0  0  0  0  0  0  0  0
   36.6321   26.8296   30.6933 H   0  0  0  0  0  0  0  0  0  0  0  0
   38.3364   27.2533   30.7940 H   0  0  0  0  0  0  0  0  0  0  0  0
   36.9387   25.2690   37.0429 H   0  0  0  0  0  0  0  0  0  0  0  0
   37.5704   24.2711   39.2893 H   0  0  0  0  0  0  0  0  0  0  0  0
   41.2895   21.8373   38.5918 H   0  0  0  0  0  0  0  0  0  0  0  0
   40.6845   20.8763   37.1759 H   0  0  0  0  0  0  0  0  0  0  0  0
   43.0400   22.5339   37.4073 H   0  0  0  0  0  0  0  0  0  0  0  0
   42.5333   21.4206   36.0918 H   0  0  0  0  0  0  0  0  0  0  0  0
   41.9699   23.1263   36.0918 H   0  0  0  0  0  0  0  0  0  0  0  0
  1  8  1  0
  2  1  1  0
  3  2  1  0
  4  3  1  0
  5  4  1  0
  6  5  1  0
  6  7  1  0
  7  3  1  0
  8  9  1  0
  9 11  1  0
 10  9  2  0
 11 16  1  0
 11 12  2  0
 12 13  1  0
 13 14  2  0
 15 17  1  0
 15 14  1  0
 16 15  2  0
 18 17  1  0
  1 19  1  0
  1 20  1  0
  2 21  1  0
  2 22  1  0
  3 23  1  0
  4 24  1  0
  4 25  1  0
  5 26  1  0
  5 27  1  0
  6 28  1  0
  6 29  1  0
  7 30  1  0
  7 31  1  0
 12 32  1  0
 13 33  1  0
 17 34  1  0
 17 35  1  0
 18 36  1  0
 18 37  1  0
 18 38  1  0
M  ISO  8  19   8  20   8  21   8  22   8  23  13  24  13  25  13  26  13
M  ISO  8  27  13  28  13  29  13  30  13  31  13  32  14  33  14  34   8
M  ISO  4  35   8  36   8  37   8  38   8
M  END
>  <minimizedAffinity>  (1) 
-4.49215984

>  <minimizedRMSD>  (1) 
0.760278523

$$$$
