
     RDKit          3D

 35 36  0  0  0  0  0  0  0  0999 V2000
   37.0190   27.6780   33.1340 C   0  0  0  0  0  0  0  0  0  0  0  0
   37.4280   28.2040   31.8130 C   0  0  0  0  0  0  0  0  0  0  0  0
   36.3940   28.0440   30.7310 C   0  0  0  0  0  0  0  0  0  0  0  0
   37.1500   28.6850   29.5710 C   0  0  0  0  0  0  0  0  0  0  0  0
   38.5380   28.0850   29.7250 C   0  0  0  0  0  0  0  0  0  0  0  0
   38.6590   27.6790   31.1810 C   0  0  0  0  0  0  0  0  0  0  0  0
   37.0470   26.2380   33.3840 C   0  0  0  0  0  0  0  0  0  0  0  0
   37.4740   25.8930   34.7090 O   0  0  0  0  0  0  0  0  0  0  0  0
   38.1250   24.6400   34.7660 C   0  0  0  0  0  0  0  0  0  0  0  0
   38.3800   23.9690   33.7330 O   0  0  0  0  0  0  0  0  0  0  0  0
   38.5140   24.1070   36.0680 C   0  0  0  0  0  0  0  0  0  0  0  0
   37.7640   24.5060   37.1730 C   0  0  0  0  0  0  0  0  0  0  0  0
   38.1390   23.9910   38.4240 C   0  0  0  0  0  0  0  0  0  0  0  0
   39.1990   23.1430   38.4860 N   0  0  0  0  0  0  0  0  0  0  0  0
   39.8890   22.7880   37.3980 C   0  0  0  0  0  0  0  0  0  0  0  0
   39.5640   23.2590   36.1770 N   0  0  0  0  0  0  0  0  0  0  0  0
   41.0420   21.8560   37.5220 C   0  0  0  0  0  0  0  0  0  0  0  0
   35.9840   28.0102   33.3023 H   0  0  0  0  0  0  0  0  0  0  0  0
   37.7902   28.0694   33.8137 H   0  0  0  0  0  0  0  0  0  0  0  0
   37.5954   29.2425   32.1348 H   0  0  0  0  0  0  0  0  0  0  0  0
   36.1625   26.9864   30.5366 H   0  0  0  0  0  0  0  0  0  0  0  0
   35.4104   28.4843   30.9517 H   0  0  0  0  0  0  0  0  0  0  0  0
   37.1756   29.7804   29.6678 H   0  0  0  0  0  0  0  0  0  0  0  0
   36.6935   28.4976   28.5879 H   0  0  0  0  0  0  0  0  0  0  0  0
   38.6490   27.2062   29.0727 H   0  0  0  0  0  0  0  0  0  0  0  0
   39.3211   28.8033   29.4407 H   0  0  0  0  0  0  0  0  0  0  0  0
   38.7094   26.5844   31.2770 H   0  0  0  0  0  0  0  0  0  0  0  0
   39.5723   28.0721   31.6514 H   0  0  0  0  0  0  0  0  0  0  0  0
   36.0336   25.8387   33.2303 H   0  0  0  0  0  0  0  0  0  0  0  0
   37.7783   25.8039   32.6864 H   0  0  0  0  0  0  0  0  0  0  0  0
   36.9135   25.1958   37.0691 H   0  0  0  0  0  0  0  0  0  0  0  0
   37.5868   24.2679   39.3342 H   0  0  0  0  0  0  0  0  0  0  0  0
   41.2589   21.6806   38.5860 H   0  0  0  0  0  0  0  0  0  0  0  0
   40.7952   20.9006   37.0358 H   0  0  0  0  0  0  0  0  0  0  0  0
   41.9244   22.2976   37.0358 H   0  0  0  0  0  0  0  0  0  0  0  0
  1  7  1  0
  2  1  1  0
  3  2  1  0
  4  5  1  0
  4  3  1  0
  5  6  1  0
  6  2  1  0
  7  8  1  0
  8  9  1  0
  9 11  1  0
 10  9  2  0
 11 16  1  0
 11 12  2  0
 12 13  1  0
 13 14  2  0
 15 17  1  0
 15 14  1  0
 16 15  2  0
  1 18  1  0
  1 19  1  0
  2 20  1  0
  3 21  1  0
  3 22  1  0
  4 23  1  0
  4 24  1  0
  5 25  1  0
  5 26  1  0
  6 27  1  0
  6 28  1  0
  7 29  1  0
  7 30  1  0
 12 31  1  0
 13 32  1  0
 17 33  1  0
 17 34  1  0
 17 35  1  0
M  ISO  8  18   8  19   8  20  13  21  13  22  13  23  13  24  13  25  13
M  ISO  8  26  13  27  13  28  13  29   8  30   8  31  14  32  14  33   8
M  ISO  2  34   8  35   8
M  END
>  <minimizedAffinity>  (1) 
-4.37051916

>  <minimizedRMSD>  (1) 
0.314893812

$$$$
