
     RDKit          3D

 34 35  0  0  0  0  0  0  0  0999 V2000
   37.0560   26.3160   33.3760 C   0  0  0  0  0  0  0  0  0  0  0  0
   36.7570   27.7420   33.2460 C   0  0  0  0  0  0  0  0  0  0  0  0
   37.0220   28.4720   31.9950 C   0  0  0  0  0  0  0  0  0  0  0  0
   35.9270   29.3920   31.5520 C   0  0  0  0  0  0  0  0  0  0  0  0
   36.5610   29.9370   30.2710 C   0  0  0  0  0  0  0  0  0  0  0  0
   37.1060   28.6630   29.6330 C   0  0  0  0  0  0  0  0  0  0  0  0
   37.2850   27.6770   30.7700 C   0  0  0  0  0  0  0  0  0  0  0  0
   37.4250   25.9190   34.6850 O   0  0  0  0  0  0  0  0  0  0  0  0
   38.1790   24.7490   34.7490 C   0  0  0  0  0  0  0  0  0  0  0  0
   38.5580   24.1670   33.7090 O   0  0  0  0  0  0  0  0  0  0  0  0
   38.5440   24.1790   36.0410 C   0  0  0  0  0  0  0  0  0  0  0  0
   37.7710   24.5710   37.1460 C   0  0  0  0  0  0  0  0  0  0  0  0
   38.1070   24.0310   38.3980 C   0  0  0  0  0  0  0  0  0  0  0  0
   39.1460   23.1730   38.4710 N   0  0  0  0  0  0  0  0  0  0  0  0
   39.8490   22.8290   37.4050 C   0  0  0  0  0  0  0  0  0  0  0  0
   39.5910   23.3030   36.1640 N   0  0  0  0  0  0  0  0  0  0  0  0
   40.9610   21.8960   37.5590 C   0  0  0  0  0  0  0  0  0  0  0  0
   41.5390   21.2760   36.6530 O   0  0  0  0  0  0  0  0  0  0  0  0
   37.8850   26.0735   32.6949 H   0  0  0  0  0  0  0  0  0  0  0  0
   36.1309   25.7743   33.1293 H   0  0  0  0  0  0  0  0  0  0  0  0
   35.6816   27.8535   33.4487 H   0  0  0  0  0  0  0  0  0  0  0  0
   37.4746   28.1989   33.9433 H   0  0  0  0  0  0  0  0  0  0  0  0
   37.9324   28.9892   32.3321 H   0  0  0  0  0  0  0  0  0  0  0  0
   34.9919   28.8495   31.3488 H   0  0  0  0  0  0  0  0  0  0  0  0
   35.6275   30.1530   32.2876 H   0  0  0  0  0  0  0  0  0  0  0  0
   35.8119   30.4201   29.6264 H   0  0  0  0  0  0  0  0  0  0  0  0
   37.3220   30.7125   30.4430 H   0  0  0  0  0  0  0  0  0  0  0  0
   36.3932   28.2696   28.8933 H   0  0  0  0  0  0  0  0  0  0  0  0
   38.0525   28.8476   29.1039 H   0  0  0  0  0  0  0  0  0  0  0  0
   36.5671   26.8481   30.6827 H   0  0  0  0  0  0  0  0  0  0  0  0
   38.2856   27.2201   30.7743 H   0  0  0  0  0  0  0  0  0  0  0  0
   36.9332   25.2751   37.0349 H   0  0  0  0  0  0  0  0  0  0  0  0
   37.5363   24.3012   39.2987 H   0  0  0  0  0  0  0  0  0  0  0  0
   41.3237   21.7251   38.5833 H   0  0  0  0  0  0  0  0  0  0  0  0
  1  8  1  0
  2  1  1  0
  3  2  1  0
  4  3  1  0
  5  4  1  0
  6  5  1  0
  6  7  1  0
  7  3  1  0
  8  9  1  0
  9 11  1  0
 10  9  2  0
 11 16  1  0
 11 12  2  0
 12 13  1  0
 13 14  2  0
 15 17  1  0
 15 14  1  0
 16 15  2  0
 18 17  2  0
  1 19  1  0
  1 20  1  0
  2 21  1  0
  2 22  1  0
  3 23  1  0
  4 24  1  0
  4 25  1  0
  5 26  1  0
  5 27  1  0
  6 28  1  0
  6 29  1  0
  7 30  1  0
  7 31  1  0
 12 32  1  0
 13 33  1  0
 17 34  1  0
M  ISO  8  19   8  20   8  21   8  22   8  23  13  24  13  25  13  26  13
M  ISO  8  27  13  28  13  29  13  30  13  31  13  32  14  33  14  34   6
M  END
>  <minimizedAffinity>  (1) 
-4.34406519

>  <minimizedRMSD>  (1) 
0.643901289

$$$$
