
     RDKit          3D

 33 34  0  0  0  0  0  0  0  0999 V2000
   36.7690   27.7560   33.2620 C   0  0  0  0  0  0  0  0  0  0  0  0
   37.0230   28.4690   31.9980 C   0  0  0  0  0  0  0  0  0  0  0  0
   35.9450   29.4190   31.5700 C   0  0  0  0  0  0  0  0  0  0  0  0
   36.5470   29.9330   30.2680 C   0  0  0  0  0  0  0  0  0  0  0  0
   37.1090   28.6620   29.6360 C   0  0  0  0  0  0  0  0  0  0  0  0
   37.2600   27.6640   30.7650 C   0  0  0  0  0  0  0  0  0  0  0  0
   37.0510   26.3310   33.3860 C   0  0  0  0  0  0  0  0  0  0  0  0
   37.4270   25.9330   34.7110 O   0  0  0  0  0  0  0  0  0  0  0  0
   38.0790   24.6870   34.7450 C   0  0  0  0  0  0  0  0  0  0  0  0
   38.3190   24.0340   33.7020 O   0  0  0  0  0  0  0  0  0  0  0  0
   38.4880   24.1370   36.0350 C   0  0  0  0  0  0  0  0  0  0  0  0
   37.7590   24.5130   37.1630 C   0  0  0  0  0  0  0  0  0  0  0  0
   38.1470   23.9860   38.4110 C   0  0  0  0  0  0  0  0  0  0  0  0
   39.2080   23.1440   38.4410 N   0  0  0  0  0  0  0  0  0  0  0  0
   39.8730   22.8110   37.3490 C   0  0  0  0  0  0  0  0  0  0  0  0
   39.5420   23.2880   36.1310 N   0  0  0  0  0  0  0  0  0  0  0  0
   41.2810   21.6980   37.3590 S   0  0  0  0  0  0  0  0  0  0  0  0
   35.6995   27.8845   33.4850 H   0  0  0  0  0  0  0  0  0  0  0  0
   37.4991   28.2095   33.9485 H   0  0  0  0  0  0  0  0  0  0  0  0
   37.9514   28.9633   32.3202 H   0  0  0  0  0  0  0  0  0  0  0  0
   34.9887   28.9022   31.4016 H   0  0  0  0  0  0  0  0  0  0  0  0
   35.6960   30.1987   32.3049 H   0  0  0  0  0  0  0  0  0  0  0  0
   35.7775   30.3882   29.6273 H   0  0  0  0  0  0  0  0  0  0  0  0
   37.3023   30.7189   30.4156 H   0  0  0  0  0  0  0  0  0  0  0  0
   36.4157   28.2753   28.8746 H   0  0  0  0  0  0  0  0  0  0  0  0
   38.0702   28.8524   29.1362 H   0  0  0  0  0  0  0  0  0  0  0  0
   36.5162   26.8585   30.6759 H   0  0  0  0  0  0  0  0  0  0  0  0
   38.2443   27.1729   30.7648 H   0  0  0  0  0  0  0  0  0  0  0  0
   36.1487   25.7717   33.0979 H   0  0  0  0  0  0  0  0  0  0  0  0
   37.9061   26.1133   32.7292 H   0  0  0  0  0  0  0  0  0  0  0  0
   36.9051   25.2016   37.0808 H   0  0  0  0  0  0  0  0  0  0  0  0
   37.6057   24.2498   39.3315 H   0  0  0  0  0  0  0  0  0  0  0  0
   41.6336   21.4193   38.6532 H   0  0  0  0  0  0  0  0  0  0  0  0
  1  7  1  0
  2  1  1  0
  3  2  1  0
  4  3  1  0
  5  4  1  0
  5  6  1  0
  6  2  1  0
  7  8  1  0
  8  9  1  0
  9 11  1  0
 10  9  2  0
 11 16  1  0
 11 12  2  0
 12 13  1  0
 13 14  2  0
 15 17  1  0
 15 14  1  0
 16 15  2  0
  1 18  1  0
  1 19  1  0
  2 20  1  0
  3 21  1  0
  3 22  1  0
  4 23  1  0
  4 24  1  0
  5 25  1  0
  5 26  1  0
  6 27  1  0
  6 28  1  0
  7 29  1  0
  7 30  1  0
 12 31  1  0
 13 32  1  0
 17 33  1  0
M  ISO  8  18   8  19   8  20  13  21  13  22  13  23  13  24  13  25  13
M  ISO  8  26  13  27  13  28  13  29   8  30   8  31  14  32  14  33  11
M  END
>  <minimizedAffinity>  (1) 
-4.29659796

>  <minimizedRMSD>  (1) 
0.675321996

$$$$
