
     RDKit          3D

 47 50  0  0  0  0  0  0  0  0999 V2000
   38.3060   25.0530   36.1100 O   0  0  0  0  0  0  0  0  0  0  0  0
   37.9630   25.7570   34.9060 C   0  0  0  0  0  0  0  0  0  0  0  0
   37.3400   27.0420   35.1410 C   0  0  0  0  0  0  0  0  0  0  0  0
   37.0040   27.8940   33.9690 C   0  0  0  0  0  0  0  0  0  0  0  0
   35.8270   28.8030   34.2190 C   0  0  0  0  0  0  0  0  0  0  0  0
   35.7200   29.4520   32.8340 C   0  0  0  0  0  0  0  0  0  0  0  0
   35.9160   28.2790   31.8940 C   0  0  0  0  0  0  0  0  0  0  0  0
   36.6120   27.2070   32.7070 C   0  0  0  0  0  0  0  0  0  0  0  0
   38.5840   23.6990   35.8540 C   0  0  0  0  0  0  0  0  0  0  0  0
   37.7170   22.9260   35.3620 O   0  0  0  0  0  0  0  0  0  0  0  0
   39.9050   23.1650   36.1660 C   0  0  0  0  0  0  0  0  0  0  0  0
   39.9930   22.2520   37.2120 C   0  0  0  0  0  0  0  0  0  0  0  0
   41.2770   21.7350   37.5130 C   0  0  0  0  0  0  0  0  0  0  0  0
   42.3380   22.1610   36.7660 N   0  0  0  0  0  0  0  0  0  0  0  0
   42.1960   23.0250   35.7890 C   0  0  0  0  0  0  0  0  0  0  0  0
   41.0010   23.5550   35.4530 N   0  0  0  0  0  0  0  0  0  0  0  0
   43.5690   23.5980   34.8010 S   0  0  0  0  0  0  0  0  0  0  0  0
   45.0840   23.6070   35.7360 C   0  0  0  0  0  0  0  0  0  0  0  0
   46.2900   22.9510   35.6320 C   0  0  0  0  0  0  0  0  0  0  0  0
   47.1050   23.3420   36.6270 N   0  0  0  0  0  0  0  0  0  0  0  0
   46.4600   24.2450   37.3900 C   0  0  0  0  0  0  0  0  0  0  0  0
   46.9380   24.8850   38.5020 C   0  0  0  0  0  0  0  0  0  0  0  0
   46.1330   25.7870   39.1640 C   0  0  0  0  0  0  0  0  0  0  0  0
   44.8700   25.9970   38.6620 C   0  0  0  0  0  0  0  0  0  0  0  0
   44.3920   25.3400   37.5320 C   0  0  0  0  0  0  0  0  0  0  0  0
   45.2040   24.4240   36.8550 C   0  0  0  0  0  0  0  0  0  0  0  0
   37.2662   25.1341   34.3260 H   0  0  0  0  0  0  0  0  0  0  0  0
   38.9025   25.9489   34.3670 H   0  0  0  0  0  0  0  0  0  0  0  0
   36.4025   26.8535   35.6846 H   0  0  0  0  0  0  0  0  0  0  0  0
   38.1064   27.6176   35.6807 H   0  0  0  0  0  0  0  0  0  0  0  0
   37.9706   28.4038   33.8432 H   0  0  0  0  0  0  0  0  0  0  0  0
   34.9195   28.2390   34.4805 H   0  0  0  0  0  0  0  0  0  0  0  0
   35.9425   29.5030   35.0596 H   0  0  0  0  0  0  0  0  0  0  0  0
   34.7326   29.9146   32.6890 H   0  0  0  0  0  0  0  0  0  0  0  0
   36.4481   30.2613   32.6762 H   0  0  0  0  0  0  0  0  0  0  0  0
   36.5397   28.5751   31.0376 H   0  0  0  0  0  0  0  0  0  0  0  0
   34.9576   27.9209   31.4899 H   0  0  0  0  0  0  0  0  0  0  0  0
   35.9280   26.3711   32.9153 H   0  0  0  0  0  0  0  0  0  0  0  0
   37.4753   26.7754   32.1794 H   0  0  0  0  0  0  0  0  0  0  0  0
   39.1033   21.9446   37.7811 H   0  0  0  0  0  0  0  0  0  0  0  0
   41.4160   21.0090   38.3276 H   0  0  0  0  0  0  0  0  0  0  0  0
   46.5475   22.2183   34.8531 H   0  0  0  0  0  0  0  0  0  0  0  0
   48.0663   23.0057   36.7808 H   0  0  0  0  0  0  0  0  0  0  0  0
   47.9564   24.6810   38.8642 H   0  0  0  0  0  0  0  0  0  0  0  0
   46.4872   26.3185   40.0595 H   0  0  0  0  0  0  0  0  0  0  0  0
   44.2109   26.7133   39.1743 H   0  0  0  0  0  0  0  0  0  0  0  0
   43.3729   25.5416   37.1703 H   0  0  0  0  0  0  0  0  0  0  0  0
  2  3  1  0
  2  1  1  0
  4  5  1  0
  4  3  1  0
  6  5  1  0
  7  8  1  0
  7  6  1  0
  8  4  1  0
  9  1  1  0
  9 11  1  0
 10  9  2  0
 11 12  2  0
 12 13  1  0
 14 13  2  0
 15 14  1  0
 16 15  2  0
 16 11  1  0
 17 18  1  0
 17 15  1  0
 18 26  1  0
 19 18  2  0
 19 20  1  0
 20 21  1  0
 21 22  2  0
 22 23  1  0
 24 23  2  0
 25 24  1  0
 26 21  1  0
 26 25  2  0
  2 27  1  0
  2 28  1  0
  3 29  1  0
  3 30  1  0
  4 31  1  0
  5 32  1  0
  5 33  1  0
  6 34  1  0
  6 35  1  0
  7 36  1  0
  7 37  1  0
  8 38  1  0
  8 39  1  0
 12 40  1  0
 13 41  1  0
 19 42  1  0
 20 43  1  0
 22 44  1  0
 23 45  1  0
 24 46  1  0
 25 47  1  0
M  ISO  8  27   8  28   8  29   8  30   8  31  13  32  13  33  13  34  13
M  ISO  8  35  13  36  13  37  13  38  13  39  13  40  14  41  14  42  14
M  ISO  5  43   9  44  14  45  14  46  14  47  14
M  END
>  <minimizedAffinity>  (1) 
-5.68734264

>  <minimizedRMSD>  (1) 
2.69120288

$$$$
