
     RDKit          3D

 41 43  0  0  0  0  0  0  0  0999 V2000
   37.9890   25.6630   34.8800 C   0  0  0  0  0  0  0  0  0  0  0  0
   37.2700   26.9200   35.1000 C   0  0  0  0  0  0  0  0  0  0  0  0
   37.0060   27.8110   33.9530 C   0  0  0  0  0  0  0  0  0  0  0  0
   35.8480   28.7560   34.1640 C   0  0  0  0  0  0  0  0  0  0  0  0
   35.8730   29.4850   32.8170 C   0  0  0  0  0  0  0  0  0  0  0  0
   36.0740   28.3390   31.8360 C   0  0  0  0  0  0  0  0  0  0  0  0
   36.5980   27.1750   32.6520 C   0  0  0  0  0  0  0  0  0  0  0  0
   38.3890   25.0110   36.0890 O   0  0  0  0  0  0  0  0  0  0  0  0
   38.7580   23.6770   35.9010 C   0  0  0  0  0  0  0  0  0  0  0  0
   37.9330   22.8130   35.4910 O   0  0  0  0  0  0  0  0  0  0  0  0
   40.1200   23.2580   36.1800 C   0  0  0  0  0  0  0  0  0  0  0  0
   40.2930   22.0390   36.8460 C   0  0  0  0  0  0  0  0  0  0  0  0
   41.6140   21.6200   37.1240 C   0  0  0  0  0  0  0  0  0  0  0  0
   42.6340   22.4230   36.7280 N   0  0  0  0  0  0  0  0  0  0  0  0
   42.4310   23.5690   36.1010 C   0  0  0  0  0  0  0  0  0  0  0  0
   41.1850   24.0180   35.8100 N   0  0  0  0  0  0  0  0  0  0  0  0
   43.7480   24.6520   35.5650 S   0  0  0  0  0  0  0  0  0  0  0  0
   44.8970   24.8460   36.9200 C   0  0  0  0  0  0  0  0  0  0  0  0
   46.1090   24.2020   36.7220 C   0  0  0  0  0  0  0  0  0  0  0  0
   47.1070   24.2640   37.6940 C   0  0  0  0  0  0  0  0  0  0  0  0
   46.8480   24.9720   38.8280 N   0  0  0  0  0  0  0  0  0  0  0  0
   45.6500   25.5960   39.0000 C   0  0  0  0  0  0  0  0  0  0  0  0
   44.6630   25.5480   38.0640 N   0  0  0  0  0  0  0  0  0  0  0  0
   37.3333   24.9814   34.3182 H   0  0  0  0  0  0  0  0  0  0  0  0
   38.9080   25.9102   34.3284 H   0  0  0  0  0  0  0  0  0  0  0  0
   36.2940   26.6596   35.5355 H   0  0  0  0  0  0  0  0  0  0  0  0
   37.9544   27.5047   35.7322 H   0  0  0  0  0  0  0  0  0  0  0  0
   38.0017   28.2747   33.8927 H   0  0  0  0  0  0  0  0  0  0  0  0
   34.9019   28.2177   34.3225 H   0  0  0  0  0  0  0  0  0  0  0  0
   35.9256   29.4034   35.0499 H   0  0  0  0  0  0  0  0  0  0  0  0
   34.9243   30.0091   32.6293 H   0  0  0  0  0  0  0  0  0  0  0  0
   36.6464   30.2644   32.7506 H   0  0  0  0  0  0  0  0  0  0  0  0
   36.8031   28.6220   31.0625 H   0  0  0  0  0  0  0  0  0  0  0  0
   35.1363   28.0802   31.3225 H   0  0  0  0  0  0  0  0  0  0  0  0
   35.8121   26.4222   32.8122 H   0  0  0  0  0  0  0  0  0  0  0  0
   37.4249   26.6441   32.1577 H   0  0  0  0  0  0  0  0  0  0  0  0
   39.4288   21.4269   37.1434 H   0  0  0  0  0  0  0  0  0  0  0  0
   41.8095   20.6715   37.6457 H   0  0  0  0  0  0  0  0  0  0  0  0
   46.2841   23.6392   35.7932 H   0  0  0  0  0  0  0  0  0  0  0  0
   48.0725   23.7572   37.5493 H   0  0  0  0  0  0  0  0  0  0  0  0
   45.4736   26.1589   39.9284 H   0  0  0  0  0  0  0  0  0  0  0  0
  1  2  1  0
  1  8  1  0
  3  4  1  0
  3  2  1  0
  5  4  1  0
  6  7  1  0
  6  5  1  0
  7  3  1  0
  9  8  1  0
  9 11  1  0
 10  9  2  0
 11 12  2  0
 12 13  1  0
 14 13  2  0
 15 14  1  0
 16 15  2  0
 16 11  1  0
 17 15  1  0
 17 18  1  0
 18 23  1  0
 19 18  2  0
 19 20  1  0
 20 21  2  0
 21 22  1  0
 23 22  2  0
  1 24  1  0
  1 25  1  0
  2 26  1  0
  2 27  1  0
  3 28  1  0
  4 29  1  0
  4 30  1  0
  5 31  1  0
  5 32  1  0
  6 33  1  0
  6 34  1  0
  7 35  1  0
  7 36  1  0
 12 37  1  0
 13 38  1  0
 19 39  1  0
 20 40  1  0
 22 41  1  0
M  ISO  8  24   8  25   8  26   8  27   8  28  13  29  13  30  13  31  13
M  ISO  8  32  13  33  13  34  13  35  13  36  13  37  14  38  14  39  14
M  ISO  2  40  14  41  14
M  END
>  <minimizedAffinity>  (1) 
-4.93364525

>  <minimizedRMSD>  (1) 
2.7829752

$$$$
