
     RDKit          3D

 40 42  0  0  0  0  0  0  0  0999 V2000
   37.0220   26.3480   33.3550 C   0  0  0  0  0  0  0  0  0  0  0  0
   36.7220   27.7840   33.2490 C   0  0  0  0  0  0  0  0  0  0  0  0
   37.0080   28.4830   31.9800 C   0  0  0  0  0  0  0  0  0  0  0  0
   35.9590   29.4610   31.5540 C   0  0  0  0  0  0  0  0  0  0  0  0
   36.5570   29.9590   30.2520 C   0  0  0  0  0  0  0  0  0  0  0  0
   37.1110   28.6780   29.6310 C   0  0  0  0  0  0  0  0  0  0  0  0
   37.1700   27.6510   30.7430 C   0  0  0  0  0  0  0  0  0  0  0  0
   37.4020   25.9460   34.6670 O   0  0  0  0  0  0  0  0  0  0  0  0
   38.1720   24.7590   34.6800 C   0  0  0  0  0  0  0  0  0  0  0  0
   38.5320   24.1990   33.6130 O   0  0  0  0  0  0  0  0  0  0  0  0
   38.5530   24.1750   35.9580 C   0  0  0  0  0  0  0  0  0  0  0  0
   37.8290   24.5300   37.0830 C   0  0  0  0  0  0  0  0  0  0  0  0
   38.2080   23.9580   38.3130 C   0  0  0  0  0  0  0  0  0  0  0  0
   39.2490   23.1010   38.3280 N   0  0  0  0  0  0  0  0  0  0  0  0
   39.9230   22.7800   37.2270 C   0  0  0  0  0  0  0  0  0  0  0  0
   39.5820   23.3120   36.0450 N   0  0  0  0  0  0  0  0  0  0  0  0
   41.3060   21.6460   37.2200 S   0  0  0  0  0  0  0  0  0  0  0  0
   42.7950   22.3860   36.6340 C   0  0  0  0  0  0  0  0  0  0  0  0
   43.2120   23.7100   36.6600 C   0  0  0  0  0  0  0  0  0  0  0  0
   44.4340   24.0140   36.1270 C   0  0  0  0  0  0  0  0  0  0  0  0
   45.1960   23.0060   35.5920 C   0  0  0  0  0  0  0  0  0  0  0  0
   44.1120   21.4850   35.8520 S   0  0  0  0  0  0  0  0  0  0  0  0
   37.8459   26.1119   32.6654 H   0  0  0  0  0  0  0  0  0  0  0  0
   36.1001   25.8037   33.1024 H   0  0  0  0  0  0  0  0  0  0  0  0
   35.6469   27.9043   33.4482 H   0  0  0  0  0  0  0  0  0  0  0  0
   37.4103   28.2513   33.9687 H   0  0  0  0  0  0  0  0  0  0  0  0
   37.9626   28.9374   32.2837 H   0  0  0  0  0  0  0  0  0  0  0  0
   34.9877   28.9703   31.3932 H   0  0  0  0  0  0  0  0  0  0  0  0
   35.7419   30.2495   32.2896 H   0  0  0  0  0  0  0  0  0  0  0  0
   35.7880   30.4121   29.6091 H   0  0  0  0  0  0  0  0  0  0  0  0
   37.3160   30.7432   30.3898 H   0  0  0  0  0  0  0  0  0  0  0  0
   36.4480   28.3285   28.8258 H   0  0  0  0  0  0  0  0  0  0  0  0
   38.1056   28.8466   29.1923 H   0  0  0  0  0  0  0  0  0  0  0  0
   36.3540   26.9193   30.6491 H   0  0  0  0  0  0  0  0  0  0  0  0
   38.0970   27.0589   30.7373 H   0  0  0  0  0  0  0  0  0  0  0  0
   36.9867   25.2345   37.0187 H   0  0  0  0  0  0  0  0  0  0  0  0
   37.6679   24.2044   39.2390 H   0  0  0  0  0  0  0  0  0  0  0  0
   42.5762   24.4937   37.0978 H   0  0  0  0  0  0  0  0  0  0  0  0
   44.8007   25.0511   36.1271 H   0  0  0  0  0  0  0  0  0  0  0  0
   46.1910   23.0694   35.1273 H   0  0  0  0  0  0  0  0  0  0  0  0
  1  8  1  0
  2  1  1  0
  3  2  1  0
  4  3  1  0
  5  4  1  0
  6  5  1  0
  6  7  1  0
  7  3  1  0
  8  9  1  0
  9 11  1  0
 10  9  2  0
 11 16  1  0
 11 12  2  0
 12 13  1  0
 13 14  2  0
 15 14  1  0
 16 15  2  0
 17 15  1  0
 18 19  2  0
 18 17  1  0
 20 19  1  0
 21 22  1  0
 21 20  2  0
 22 18  1  0
  1 23  1  0
  1 24  1  0
  2 25  1  0
  2 26  1  0
  3 27  1  0
  4 28  1  0
  4 29  1  0
  5 30  1  0
  5 31  1  0
  6 32  1  0
  6 33  1  0
  7 34  1  0
  7 35  1  0
 12 36  1  0
 13 37  1  0
 19 38  1  0
 20 39  1  0
 21 40  1  0
M  ISO  8  23   8  24   8  25   8  26   8  27  13  28  13  29  13  30  13
M  ISO  8  31  13  32  13  33  13  34  13  35  13  36  14  37  14  38  14
M  ISO  2  39  14  40  14
M  END
>  <minimizedAffinity>  (1) 
-4.77789688

>  <minimizedRMSD>  (1) 
1.39095676

$$$$
