
     RDKit          3D

 31 33  0  0  0  0  0  0  0  0999 V2000
   38.6980   23.5680   36.6900 C   0  0  0  0  0  0  0  0  0  0  0  0
   38.3910   24.8850   36.3330 C   0  0  0  0  0  0  0  0  0  0  0  0
   38.0510   25.1320   34.9970 C   0  0  0  0  0  0  0  0  0  0  0  0
   38.0310   24.0830   34.1060 N   0  0  0  0  0  0  0  0  0  0  0  0
   38.3370   22.8250   34.5000 C   0  0  0  0  0  0  0  0  0  0  0  0
   38.6600   22.5860   35.7680 N   0  0  0  0  0  0  0  0  0  0  0  0
   37.7110   26.4350   34.4850 N   0  0  0  0  0  0  0  0  0  0  0  0
   37.7000   27.5990   35.3330 C   0  0  0  0  0  0  0  0  0  0  0  0
   38.5230   27.4640   36.3230 N   0  0  0  0  0  0  0  0  0  0  0  0
   36.7820   28.6080   34.8640 N   0  0  0  0  0  0  0  0  0  0  0  0
   38.5790   28.2640   36.9910 H   0  0  0  0  0  0  0  0  0  0  0  0
   38.3050   21.7480   33.5280 C   0  0  0  0  0  0  0  0  0  0  0  0
   39.4400   21.2000   32.9220 C   0  0  0  0  0  0  0  0  0  0  0  0
   38.9790   20.2370   32.0950 N   0  0  0  0  0  0  0  0  0  0  0  0
   37.6390   20.1380   32.1350 C   0  0  0  0  0  0  0  0  0  0  0  0
   36.7350   19.3250   31.4870 C   0  0  0  0  0  0  0  0  0  0  0  0
   35.3840   19.4370   31.7190 C   0  0  0  0  0  0  0  0  0  0  0  0
   34.9430   20.3820   32.6180 C   0  0  0  0  0  0  0  0  0  0  0  0
   35.8210   21.2290   33.2990 C   0  0  0  0  0  0  0  0  0  0  0  0
   37.1870   21.0980   33.0480 C   0  0  0  0  0  0  0  0  0  0  0  0
   38.9719   23.3326   37.7290 H   0  0  0  0  0  0  0  0  0  0  0  0
   38.4157   25.6972   37.0745 H   0  0  0  0  0  0  0  0  0  0  0  0
   37.4700   26.5365   33.4887 H   0  0  0  0  0  0  0  0  0  0  0  0
   36.6792   29.4919   35.3828 H   0  0  0  0  0  0  0  0  0  0  0  0
   36.2293   28.4446   34.0104 H   0  0  0  0  0  0  0  0  0  0  0  0
   40.4880   21.4920   33.0847 H   0  0  0  0  0  0  0  0  0  0  0  0
   39.5827   19.6481   31.5036 H   0  0  0  0  0  0  0  0  0  0  0  0
   37.1001   18.5733   30.7717 H   0  0  0  0  0  0  0  0  0  0  0  0
   34.6695   18.7841   31.1963 H   0  0  0  0  0  0  0  0  0  0  0  0
   33.8631   20.4732   32.8064 H   0  0  0  0  0  0  0  0  0  0  0  0
   35.4460   21.9775   34.0125 H   0  0  0  0  0  0  0  0  0  0  0  0
  2  1  2  0
  3  2  1  0
  4  5  1  0
  4  3  2  0
  5  6  2  0
  6  1  1  0
  7  3  1  0
  7  8  1  0
  8  9  2  0
  9 11  1  0
 10  8  1  0
 12  5  1  0
 13 12  2  0
 14 15  1  0
 14 13  1  0
 15 20  2  0
 16 17  2  0
 16 15  1  0
 17 18  1  0
 18 19  2  0
 20 19  1  0
 20 12  1  0
  1 21  1  0
  2 22  1  0
  7 23  1  0
 10 24  1  0
 10 25  1  0
 13 26  1  0
 14 27  1  0
 16 28  1  0
 17 29  1  0
 18 30  1  0
 19 31  1  0
M  ISO  8  21  14  22  14  26  14  27   9  28  14  29  14  30  14  31  14
M  END
>  <minimizedAffinity>  (1) 
-5.25534678

>  <minimizedRMSD>  (1) 
3.32989621

$$$$
