
     RDKit          3D

 16 16  0  0  0  0  0  0  0  0999 V2000
   41.1790   22.0760   36.6290 C   0  0  0  0  0  0  0  0  0  0  0  0
   40.4240   22.6390   37.6840 C   0  0  0  0  0  0  0  0  0  0  0  0
   39.1150   23.0550   37.3860 C   0  0  0  0  0  0  0  0  0  0  0  0
   38.6440   22.8990   36.1220 N   0  0  0  0  0  0  0  0  0  0  0  0
   39.4240   22.3490   35.1510 C   0  0  0  0  0  0  0  0  0  0  0  0
   40.6730   21.9450   35.4080 N   0  0  0  0  0  0  0  0  0  0  0  0
   38.3840   23.6250   38.5250 C   0  0  0  0  0  0  0  0  0  0  0  0
   37.9200   24.8650   38.1850 F   0  0  0  0  0  0  0  0  0  0  0  0
   39.2850   23.8100   39.5440 F   0  0  0  0  0  0  0  0  0  0  0  0
   37.2990   22.8510   38.8890 F   0  0  0  0  0  0  0  0  0  0  0  0
   38.8790   22.1940   33.7790 C   0  0  0  0  0  0  0  0  0  0  0  0
   42.2079   21.7392   36.8239 H   0  0  0  0  0  0  0  0  0  0  0  0
   40.8435   22.7468   38.6951 H   0  0  0  0  0  0  0  0  0  0  0  0
   37.8224   21.8935   33.8360 H   0  0  0  0  0  0  0  0  0  0  0  0
   38.9597   23.1507   33.2422 H   0  0  0  0  0  0  0  0  0  0  0  0
   39.4511   21.4229   33.2422 H   0  0  0  0  0  0  0  0  0  0  0  0
  1  2  2  0
  3  2  1  0
  3  7  1  0
  4  3  2  0
  5  6  2  0
  5  4  1  0
  6  1  1  0
  7 10  1  0
  7  9  1  0
  8  7  1  0
 11  5  1  0
  1 12  1  0
  2 13  1  0
 11 14  1  0
 11 15  1  0
 11 16  1  0
M  ISO  5  12  14  13  14  14   8  15   8  16   8
M  END
>  <minimizedAffinity>  (1) 
-3.91735101

>  <minimizedRMSD>  (1) 
0.024363976

$$$$
