
     RDKit          3D

 31 34  0  0  0  0  0  0  0  0999 V2000
   39.3300   22.9180   36.0770 C   0  0  0  0  0  0  0  0  0  0  0  0
   38.9010   23.1210   37.3760 C   0  0  0  0  0  0  0  0  0  0  0  0
   39.8390   22.5150   38.1450 N   0  0  0  0  0  0  0  0  0  0  0  0
   40.8220   21.9490   37.4140 C   0  0  0  0  0  0  0  0  0  0  0  0
   41.9440   21.2500   37.7710 C   0  0  0  0  0  0  0  0  0  0  0  0
   42.8040   20.7700   36.7880 C   0  0  0  0  0  0  0  0  0  0  0  0
   42.5080   21.0090   35.4680 C   0  0  0  0  0  0  0  0  0  0  0  0
   41.3700   21.7190   35.0870 C   0  0  0  0  0  0  0  0  0  0  0  0
   40.5170   22.1950   36.0860 C   0  0  0  0  0  0  0  0  0  0  0  0
   38.0920   25.1270   33.4130 C   0  0  0  0  0  0  0  0  0  0  0  0
   37.2890   24.2620   32.6460 C   0  0  0  0  0  0  0  0  0  0  0  0
   37.1850   22.9260   33.0610 C   0  0  0  0  0  0  0  0  0  0  0  0
   37.8680   22.5550   34.1760 N   0  0  0  0  0  0  0  0  0  0  0  0
   38.6300   23.3980   34.8920 C   0  0  0  0  0  0  0  0  0  0  0  0
   38.7340   24.6660   34.5060 N   0  0  0  0  0  0  0  0  0  0  0  0
   36.4100   21.9390   32.3860 N   0  0  0  0  0  0  0  0  0  0  0  0
   35.2940   21.2780   32.7030 C   0  0  0  0  0  0  0  0  0  0  0  0
   35.0020   20.4300   31.6390 C   0  0  0  0  0  0  0  0  0  0  0  0
   35.9620   20.6140   30.7140 N   0  0  0  0  0  0  0  0  0  0  0  0
   36.8400   21.5480   31.1680 C   0  0  0  0  0  0  0  0  0  0  0  0
   37.9995   23.6551   37.7108 H   0  0  0  0  0  0  0  0  0  0  0  0
   39.8050   22.4895   39.1741 H   0  0  0  0  0  0  0  0  0  0  0  0
   42.1651   21.0682   38.8331 H   0  0  0  0  0  0  0  0  0  0  0  0
   43.7079   20.2072   37.0640 H   0  0  0  0  0  0  0  0  0  0  0  0
   43.1873   20.6299   34.6903 H   0  0  0  0  0  0  0  0  0  0  0  0
   41.1490   21.9001   34.0248 H   0  0  0  0  0  0  0  0  0  0  0  0
   38.1963   26.1822   33.1201 H   0  0  0  0  0  0  0  0  0  0  0  0
   36.7605   24.6217   31.7508 H   0  0  0  0  0  0  0  0  0  0  0  0
   34.7139   21.3840   33.6316 H   0  0  0  0  0  0  0  0  0  0  0  0
   34.1483   19.7400   31.5676 H   0  0  0  0  0  0  0  0  0  0  0  0
   37.7330   21.9157   30.6414 H   0  0  0  0  0  0  0  0  0  0  0  0
  1  9  1  0
  1  2  2  0
  2  3  1  0
  4  5  2  0
  4  3  1  0
  6  5  1  0
  7  6  2  0
  8  7  1  0
  8  9  2  0
  9  4  1  0
 10 15  2  0
 11 12  2  0
 11 10  1  0
 12 13  1  0
 13 14  2  0
 14  1  1  0
 15 14  1  0
 16 17  1  0
 16 12  1  0
 18 17  2  0
 19 20  2  0
 19 18  1  0
 20 16  1  0
  2 21  1  0
  3 22  1  0
  5 23  1  0
  6 24  1  0
  7 25  1  0
  8 26  1  0
 10 27  1  0
 11 28  1  0
 17 29  1  0
 18 30  1  0
 20 31  1  0
M  ISO  8  21  14  22   9  23  14  24  14  25  14  26  14  27  14  28  14
M  ISO  3  29  14  30  14  31  14
M  END
>  <minimizedAffinity>  (1) 
-5.43511534

>  <minimizedRMSD>  (1) 
6.5160327

$$$$
