
     RDKit          3D

 31 34  0  0  0  0  0  0  0  0999 V2000
   39.2910   22.1800   34.6990 C   0  0  0  0  0  0  0  0  0  0  0  0
   40.6610   21.9020   34.6800 C   0  0  0  0  0  0  0  0  0  0  0  0
   41.0820   22.1540   35.9440 N   0  0  0  0  0  0  0  0  0  0  0  0
   40.0880   22.5640   36.7410 C   0  0  0  0  0  0  0  0  0  0  0  0
   40.0350   22.9280   38.0740 C   0  0  0  0  0  0  0  0  0  0  0  0
   38.8530   23.3180   38.6530 C   0  0  0  0  0  0  0  0  0  0  0  0
   37.7190   23.3410   37.8860 C   0  0  0  0  0  0  0  0  0  0  0  0
   37.7230   22.9810   36.5350 C   0  0  0  0  0  0  0  0  0  0  0  0
   38.9280   22.5890   35.9660 C   0  0  0  0  0  0  0  0  0  0  0  0
   37.4840   20.7610   31.8350 C   0  0  0  0  0  0  0  0  0  0  0  0
   36.7580   21.8800   31.3510 C   0  0  0  0  0  0  0  0  0  0  0  0
   36.9100   23.0970   32.0250 C   0  0  0  0  0  0  0  0  0  0  0  0
   37.7450   23.1450   33.1080 N   0  0  0  0  0  0  0  0  0  0  0  0
   38.4230   22.0450   33.5390 C   0  0  0  0  0  0  0  0  0  0  0  0
   38.2940   20.8820   32.9160 N   0  0  0  0  0  0  0  0  0  0  0  0
   36.2290   24.3090   31.6340 C   0  0  0  0  0  0  0  0  0  0  0  0
   35.0240   24.3050   30.9530 C   0  0  0  0  0  0  0  0  0  0  0  0
   34.7260   25.6600   30.7790 C   0  0  0  0  0  0  0  0  0  0  0  0
   35.7470   26.3900   31.3520 C   0  0  0  0  0  0  0  0  0  0  0  0
   36.6020   25.5480   31.8380 O   0  0  0  0  0  0  0  0  0  0  0  0
   41.2641   21.5554   33.8279 H   0  0  0  0  0  0  0  0  0  0  0  0
   42.0573   22.0424   36.2558 H   0  0  0  0  0  0  0  0  0  0  0  0
   40.9533   22.9047   38.6792 H   0  0  0  0  0  0  0  0  0  0  0  0
   38.8175   23.6068   39.7138 H   0  0  0  0  0  0  0  0  0  0  0  0
   36.7715   23.6537   38.3490 H   0  0  0  0  0  0  0  0  0  0  0  0
   36.7984   23.0074   35.9397 H   0  0  0  0  0  0  0  0  0  0  0  0
   37.3891   19.7885   31.3298 H   0  0  0  0  0  0  0  0  0  0  0  0
   36.0978   21.7938   30.4754 H   0  0  0  0  0  0  0  0  0  0  0  0
   34.4359   23.4355   30.6242 H   0  0  0  0  0  0  0  0  0  0  0  0
   33.8378   26.0700   30.2760 H   0  0  0  0  0  0  0  0  0  0  0  0
   35.8210   27.4869   31.3891 H   0  0  0  0  0  0  0  0  0  0  0  0
  1  9  1  0
  2  1  2  0
  2  3  1  0
  3  4  1  0
  4  5  2  0
  5  6  1  0
  7  6  2  0
  8  7  1  0
  9  8  2  0
  9  4  1  0
 10 15  2  0
 11 10  1  0
 11 12  2  0
 12 13  1  0
 13 14  2  0
 14  1  1  0
 15 14  1  0
 16 20  1  0
 16 12  1  0
 17 16  2  0
 18 17  1  0
 18 19  2  0
 19 20  1  0
  2 21  1  0
  3 22  1  0
  5 23  1  0
  6 24  1  0
  7 25  1  0
  8 26  1  0
 10 27  1  0
 11 28  1  0
 17 29  1  0
 18 30  1  0
 19 31  1  0
M  ISO  8  21  14  22   9  23  14  24  14  25  14  26  14  27  14  28  14
M  ISO  3  29  14  30  14  31  14
M  END
>  <minimizedAffinity>  (1) 
-5.28008032

>  <minimizedRMSD>  (1) 
6.1949873

$$$$
