
     RDKit          3D

 26 28  0  0  0  0  0  0  0  0999 V2000
   37.8500   22.9320   33.9750 C   0  0  0  0  0  0  0  0  0  0  0  0
   38.1190   23.9010   33.0030 C   0  0  0  0  0  0  0  0  0  0  0  0
   37.3280   23.5730   31.9600 N   0  0  0  0  0  0  0  0  0  0  0  0
   36.5890   22.4770   32.2010 C   0  0  0  0  0  0  0  0  0  0  0  0
   35.6570   21.7750   31.4520 C   0  0  0  0  0  0  0  0  0  0  0  0
   35.0380   20.6610   31.9560 C   0  0  0  0  0  0  0  0  0  0  0  0
   35.3600   20.2500   33.2230 C   0  0  0  0  0  0  0  0  0  0  0  0
   36.2960   20.9270   34.0170 C   0  0  0  0  0  0  0  0  0  0  0  0
   36.9110   22.0550   33.4850 C   0  0  0  0  0  0  0  0  0  0  0  0
   40.1900   22.1640   36.6950 C   0  0  0  0  0  0  0  0  0  0  0  0
   39.6390   22.8910   37.7810 C   0  0  0  0  0  0  0  0  0  0  0  0
   38.4730   23.6310   37.5550 C   0  0  0  0  0  0  0  0  0  0  0  0
   37.9250   23.6130   36.2990 N   0  0  0  0  0  0  0  0  0  0  0  0
   38.4880   22.8990   35.2860 C   0  0  0  0  0  0  0  0  0  0  0  0
   39.5940   22.1900   35.4760 N   0  0  0  0  0  0  0  0  0  0  0  0
   37.9020   24.3660   38.6200 N   0  0  0  0  0  0  0  0  0  0  0  0
   38.8210   24.7449   33.0733 H   0  0  0  0  0  0  0  0  0  0  0  0
   37.2945   24.1035   31.0778 H   0  0  0  0  0  0  0  0  0  0  0  0
   35.4103   22.1179   30.4363 H   0  0  0  0  0  0  0  0  0  0  0  0
   34.2990   20.1089   31.3567 H   0  0  0  0  0  0  0  0  0  0  0  0
   34.8660   19.3563   33.6318 H   0  0  0  0  0  0  0  0  0  0  0  0
   36.5370   20.5762   35.0313 H   0  0  0  0  0  0  0  0  0  0  0  0
   41.1072   21.5747   36.8418 H   0  0  0  0  0  0  0  0  0  0  0  0
   40.1147   22.8737   38.7727 H   0  0  0  0  0  0  0  0  0  0  0  0
   37.0439   24.9143   38.4655 H   0  0  0  0  0  0  0  0  0  0  0  0
   38.3443   24.3529   39.5501 H   0  0  0  0  0  0  0  0  0  0  0  0
  1 14  1  0
  2  1  2  0
  3  4  1  0
  3  2  1  0
  4  9  2  0
  5  6  2  0
  5  4  1  0
  6  7  1  0
  7  8  2  0
  9  1  1  0
  9  8  1  0
 10 11  2  0
 12 11  1  0
 12 16  1  0
 13 12  2  0
 14 15  2  0
 14 13  1  0
 15 10  1  0
  2 17  1  0
  3 18  1  0
  5 19  1  0
  6 20  1  0
  7 21  1  0
  8 22  1  0
 10 23  1  0
 11 24  1  0
 16 25  1  0
 16 26  1  0
M  ISO  8  17  14  18   9  19  14  20  14  21  14  22  14  23  14  24  14
M  END
>  <minimizedAffinity>  (1) 
-4.95833158

>  <minimizedRMSD>  (1) 
0.697651684

$$$$
