
     RDKit          3D

 31 34  0  0  0  0  0  0  0  0999 V2000
   38.3340   22.8450   33.6230 C   0  0  0  0  0  0  0  0  0  0  0  0
   38.5270   23.8020   32.6340 C   0  0  0  0  0  0  0  0  0  0  0  0
   37.5050   23.6000   31.7660 N   0  0  0  0  0  0  0  0  0  0  0  0
   36.6980   22.6020   32.1330 C   0  0  0  0  0  0  0  0  0  0  0  0
   35.5630   22.0550   31.5740 C   0  0  0  0  0  0  0  0  0  0  0  0
   34.9140   21.0020   32.1840 C   0  0  0  0  0  0  0  0  0  0  0  0
   35.4130   20.5020   33.3580 C   0  0  0  0  0  0  0  0  0  0  0  0
   36.5580   21.0280   33.9560 C   0  0  0  0  0  0  0  0  0  0  0  0
   37.2160   22.1010   33.3300 C   0  0  0  0  0  0  0  0  0  0  0  0
   41.2460   22.0380   35.7120 C   0  0  0  0  0  0  0  0  0  0  0  0
   40.7960   22.3730   37.0030 C   0  0  0  0  0  0  0  0  0  0  0  0
   39.4960   22.8740   37.1430 C   0  0  0  0  0  0  0  0  0  0  0  0
   38.7550   23.0010   36.0120 N   0  0  0  0  0  0  0  0  0  0  0  0
   39.2010   22.6760   34.7880 C   0  0  0  0  0  0  0  0  0  0  0  0
   40.4370   22.1990   34.6430 N   0  0  0  0  0  0  0  0  0  0  0  0
   38.9280   23.2590   38.4770 C   0  0  0  0  0  0  0  0  0  0  0  0
   37.4800   23.2160   38.7070 C   0  0  0  0  0  0  0  0  0  0  0  0
   38.0930   24.5670   38.4920 C   0  0  0  0  0  0  0  0  0  0  0  0
   39.3278   24.5534   32.5698 H   0  0  0  0  0  0  0  0  0  0  0  0
   37.3658   24.1587   30.9120 H   0  0  0  0  0  0  0  0  0  0  0  0
   35.1705   22.4629   30.6308 H   0  0  0  0  0  0  0  0  0  0  0  0
   34.0081   20.5695   31.7341 H   0  0  0  0  0  0  0  0  0  0  0  0
   34.8955   19.6612   33.8430 H   0  0  0  0  0  0  0  0  0  0  0  0
   36.9391   20.6110   34.8999 H   0  0  0  0  0  0  0  0  0  0  0  0
   42.2630   21.6426   35.5732 H   0  0  0  0  0  0  0  0  0  0  0  0
   41.4486   22.2445   37.8791 H   0  0  0  0  0  0  0  0  0  0  0  0
   39.7887   22.8410   39.0196 H   0  0  0  0  0  0  0  0  0  0  0  0
   36.8217   22.7913   37.9348 H   0  0  0  0  0  0  0  0  0  0  0  0
   36.8496   22.7857   39.4991 H   0  0  0  0  0  0  0  0  0  0  0  0
   38.1843   25.2765   39.3276 H   0  0  0  0  0  0  0  0  0  0  0  0
   37.9300   25.4111   37.8058 H   0  0  0  0  0  0  0  0  0  0  0  0
  1 14  1  0
  2  1  2  0
  3  4  1  0
  3  2  1  0
  4  9  2  0
  5  4  1  0
  5  6  2  0
  6  7  1  0
  7  8  2  0
  9  1  1  0
  9  8  1  0
 10 11  2  0
 11 12  1  0
 12 16  1  0
 13 12  2  0
 14 13  1  0
 15 14  2  0
 15 10  1  0
 16 18  1  0
 16 17  1  0
 18 17  1  0
  2 19  1  0
  3 20  1  0
  5 21  1  0
  6 22  1  0
  7 23  1  0
  8 24  1  0
 10 25  1  0
 11 26  1  0
 16 27  1  0
 17 28  1  0
 17 29  1  0
 18 30  1  0
 18 31  1  0
M  ISO  8  19  14  20   9  21  14  22  14  23  14  24  14  25  14  26  14
M  ISO  5  27  13  28  13  29  13  30  13  31  13
M  END
>  <minimizedAffinity>  (1) 
-5.00582361

>  <minimizedRMSD>  (1) 
1.55639505

$$$$
