
     RDKit          3D

 30 33  0  0  0  0  0  0  0  0999 V2000
   39.2550   22.4490   34.6710 C   0  0  0  0  0  0  0  0  0  0  0  0
   40.5930   22.0940   34.6410 C   0  0  0  0  0  0  0  0  0  0  0  0
   41.0190   22.2270   35.9160 N   0  0  0  0  0  0  0  0  0  0  0  0
   40.0410   22.6400   36.7350 C   0  0  0  0  0  0  0  0  0  0  0  0
   40.0020   22.9090   38.0850 C   0  0  0  0  0  0  0  0  0  0  0  0
   38.8270   23.3330   38.6980 C   0  0  0  0  0  0  0  0  0  0  0  0
   37.7040   23.4770   37.9180 C   0  0  0  0  0  0  0  0  0  0  0  0
   37.6940   23.2150   36.5440 C   0  0  0  0  0  0  0  0  0  0  0  0
   38.8970   22.7870   35.9510 C   0  0  0  0  0  0  0  0  0  0  0  0
   36.8810   23.5170   32.0730 C   0  0  0  0  0  0  0  0  0  0  0  0
   36.7690   22.3770   31.2690 C   0  0  0  0  0  0  0  0  0  0  0  0
   37.5130   21.2440   31.6260 C   0  0  0  0  0  0  0  0  0  0  0  0
   38.3000   21.3240   32.7380 N   0  0  0  0  0  0  0  0  0  0  0  0
   38.3850   22.4510   33.4980 C   0  0  0  0  0  0  0  0  0  0  0  0
   37.6830   23.5250   33.1620 N   0  0  0  0  0  0  0  0  0  0  0  0
   37.5600   19.9960   30.9780 N   0  0  0  0  0  0  0  0  0  0  0  0
   36.4760   19.7570   30.1870 C   0  0  0  0  0  0  0  0  0  0  0  0
   36.5900   18.5380   29.5940 N   0  0  0  0  0  0  0  0  0  0  0  0
   37.7720   18.0320   30.0390 C   0  0  0  0  0  0  0  0  0  0  0  0
   38.3550   18.9310   30.8830 N   0  0  0  0  0  0  0  0  0  0  0  0
   41.1812   21.7734   33.7685 H   0  0  0  0  0  0  0  0  0  0  0  0
   41.9829   22.0337   36.2233 H   0  0  0  0  0  0  0  0  0  0  0  0
   40.9138   22.7868   38.6881 H   0  0  0  0  0  0  0  0  0  0  0  0
   38.7974   23.5470   39.7766 H   0  0  0  0  0  0  0  0  0  0  0  0
   36.7719   23.8132   38.3957 H   0  0  0  0  0  0  0  0  0  0  0  0
   36.7781   23.3391   35.9476 H   0  0  0  0  0  0  0  0  0  0  0  0
   36.3082   24.4201   31.8154 H   0  0  0  0  0  0  0  0  0  0  0  0
   36.1166   22.3703   30.3834 H   0  0  0  0  0  0  0  0  0  0  0  0
   35.6321   20.4489   30.0484 H   0  0  0  0  0  0  0  0  0  0  0  0
   38.1909   17.0533   29.7621 H   0  0  0  0  0  0  0  0  0  0  0  0
  1  9  1  0
  2  1  2  0
  2  3  1  0
  3  4  1  0
  4  5  2  0
  5  6  1  0
  7  6  2  0
  8  7  1  0
  9  8  2  0
  9  4  1  0
 10 15  2  0
 11 12  2  0
 11 10  1  0
 12 13  1  0
 13 14  2  0
 14  1  1  0
 15 14  1  0
 16 12  1  0
 17 16  1  0
 18 19  1  0
 18 17  2  0
 19 20  2  0
 20 16  1  0
  2 21  1  0
  3 22  1  0
  5 23  1  0
  6 24  1  0
  7 25  1  0
  8 26  1  0
 10 27  1  0
 11 28  1  0
 17 29  1  0
 19 30  1  0
M  ISO  8  21  14  22   9  23  14  24  14  25  14  26  14  27  14  28  14
M  ISO  2  29  14  30  14
M  END
>  <minimizedAffinity>  (1) 
-4.96851921

>  <minimizedRMSD>  (1) 
7.26062012

$$$$
