
     RDKit          3D

 14 14  0  0  0  0  0  0  0  0999 V2000
   41.1890   22.0870   36.6380 C   0  0  0  0  0  0  0  0  0  0  0  0
   40.4350   22.6520   37.7040 C   0  0  0  0  0  0  0  0  0  0  0  0
   39.1280   23.0490   37.3940 C   0  0  0  0  0  0  0  0  0  0  0  0
   38.6790   22.8740   36.1360 N   0  0  0  0  0  0  0  0  0  0  0  0
   39.4310   22.3310   35.1500 C   0  0  0  0  0  0  0  0  0  0  0  0
   40.6890   21.9400   35.4150 N   0  0  0  0  0  0  0  0  0  0  0  0
   38.3780   23.6230   38.4990 C   0  0  0  0  0  0  0  0  0  0  0  0
   37.9560   24.8960   38.1570 F   0  0  0  0  0  0  0  0  0  0  0  0
   39.2830   23.8120   39.5440 F   0  0  0  0  0  0  0  0  0  0  0  0
   37.2960   22.8950   38.8910 F   0  0  0  0  0  0  0  0  0  0  0  0
   38.9450   22.1620   33.8600 O   0  0  0  0  0  0  0  0  0  0  0  0
   42.2213   21.7605   36.8325 H   0  0  0  0  0  0  0  0  0  0  0  0
   40.8545   22.7703   38.7140 H   0  0  0  0  0  0  0  0  0  0  0  0
   38.0216   22.4417   33.6383 H   0  0  0  0  0  0  0  0  0  0  0  0
  1  2  2  0
  3  2  1  0
  3  7  1  0
  4  3  2  0
  5  6  2  0
  5  4  1  0
  6  1  1  0
  7 10  1  0
  7  9  1  0
  8  7  1  0
 11  5  1  0
  1 12  1  0
  2 13  1  0
 11 14  1  0
M  ISO  3  12  14  13  14  14   3
M  END
>  <minimizedAffinity>  (1) 
-3.89517021

>  <minimizedRMSD>  (1) 
0.0439400263

$$$$
