
     RDKit          3D

 30 33  0  0  0  0  0  0  0  0999 V2000
   38.5730   22.7880   35.5560 C   0  0  0  0  0  0  0  0  0  0  0  0
   37.9990   23.0330   36.8080 C   0  0  0  0  0  0  0  0  0  0  0  0
   38.9580   22.7450   37.6980 N   0  0  0  0  0  0  0  0  0  0  0  0
   40.1050   22.3330   37.1090 C   0  0  0  0  0  0  0  0  0  0  0  0
   41.3200   21.9360   37.6090 C   0  0  0  0  0  0  0  0  0  0  0  0
   42.3280   21.5520   36.7620 C   0  0  0  0  0  0  0  0  0  0  0  0
   42.0980   21.5760   35.4120 C   0  0  0  0  0  0  0  0  0  0  0  0
   40.8850   21.9710   34.8510 C   0  0  0  0  0  0  0  0  0  0  0  0
   39.8700   22.3570   35.7420 C   0  0  0  0  0  0  0  0  0  0  0  0
   36.7860   22.1070   32.4310 C   0  0  0  0  0  0  0  0  0  0  0  0
   36.5750   23.3880   31.9110 C   0  0  0  0  0  0  0  0  0  0  0  0
   37.0510   24.4850   32.6380 C   0  0  0  0  0  0  0  0  0  0  0  0
   37.6930   24.2030   33.8150 N   0  0  0  0  0  0  0  0  0  0  0  0
   37.8820   22.9660   34.2920 C   0  0  0  0  0  0  0  0  0  0  0  0
   37.4320   21.9170   33.6050 N   0  0  0  0  0  0  0  0  0  0  0  0
   36.8870   25.8790   32.1890 C   0  0  0  0  0  0  0  0  0  0  0  0
   36.3360   26.1780   30.9640 C   0  0  0  0  0  0  0  0  0  0  0  0
   36.3710   28.0070   30.9220 S   0  0  0  0  0  0  0  0  0  0  0  0
   37.1530   28.0530   32.6330 C   0  0  0  0  0  0  0  0  0  0  0  0
   37.2270   26.9580   32.8650 N   0  0  0  0  0  0  0  0  0  0  0  0
   36.9785   23.3865   37.0170 H   0  0  0  0  0  0  0  0  0  0  0  0
   38.8361   22.8279   38.7174 H   0  0  0  0  0  0  0  0  0  0  0  0
   41.4864   21.9258   38.6963 H   0  0  0  0  0  0  0  0  0  0  0  0
   43.3023   21.2310   37.1592 H   0  0  0  0  0  0  0  0  0  0  0  0
   42.9106   21.2684   34.7375 H   0  0  0  0  0  0  0  0  0  0  0  0
   40.7298   21.9801   33.7620 H   0  0  0  0  0  0  0  0  0  0  0  0
   36.4183   21.2334   31.8727 H   0  0  0  0  0  0  0  0  0  0  0  0
   36.0487   23.5296   30.9555 H   0  0  0  0  0  0  0  0  0  0  0  0
   35.9641   25.4846   30.1953 H   0  0  0  0  0  0  0  0  0  0  0  0
   37.4554   28.9186   33.2407 H   0  0  0  0  0  0  0  0  0  0  0  0
  1  9  1  0
  1  2  2  0
  2  3  1  0
  4  5  2  0
  4  3  1  0
  6  5  1  0
  7  6  2  0
  8  7  1  0
  8  9  2  0
  9  4  1  0
 10 15  2  0
 11 10  1  0
 11 12  2  0
 12 13  1  0
 13 14  2  0
 14  1  1  0
 15 14  1  0
 16 12  1  0
 16 20  1  0
 17 16  2  0
 18 17  1  0
 18 19  1  0
 19 20  2  0
  2 21  1  0
  3 22  1  0
  5 23  1  0
  6 24  1  0
  7 25  1  0
  8 26  1  0
 10 27  1  0
 11 28  1  0
 17 29  1  0
 19 30  1  0
M  ISO  8  21  14  22   9  23  14  24  14  25  14  26  14  27  14  28  14
M  ISO  2  29  14  30  14
M  END
>  <minimizedAffinity>  (1) 
-4.94632339

>  <minimizedRMSD>  (1) 
6.16339207

$$$$
