
     RDKit          3D

 45 50  0  0  0  0  0  0  0  0999 V2000
   43.8360   28.3470   31.9500 C   0  0  0  0  0  0  0  0  0  0  0  0
   44.5740   27.5400   32.8570 C   0  0  0  0  0  0  0  0  0  0  0  0
   43.8230   26.6420   33.6460 C   0  0  0  0  0  0  0  0  0  0  0  0
   42.4880   26.6030   33.4970 N   0  0  0  0  0  0  0  0  0  0  0  0
   41.8210   27.3940   32.6150 C   0  0  0  0  0  0  0  0  0  0  0  0
   42.4920   28.2520   31.8540 N   0  0  0  0  0  0  0  0  0  0  0  0
   40.3790   27.2940   32.5130 C   0  0  0  0  0  0  0  0  0  0  0  0
   39.6680   27.3190   31.3160 C   0  0  0  0  0  0  0  0  0  0  0  0
   38.3750   27.1980   31.6760 N   0  0  0  0  0  0  0  0  0  0  0  0
   38.2000   27.1000   33.0010 C   0  0  0  0  0  0  0  0  0  0  0  0
   37.0900   26.9650   33.8070 C   0  0  0  0  0  0  0  0  0  0  0  0
   37.2250   26.8870   35.1800 C   0  0  0  0  0  0  0  0  0  0  0  0
   38.4820   26.9430   35.7410 C   0  0  0  0  0  0  0  0  0  0  0  0
   39.6230   27.0810   34.9480 C   0  0  0  0  0  0  0  0  0  0  0  0
   39.4790   27.1590   33.5550 C   0  0  0  0  0  0  0  0  0  0  0  0
   44.5350   25.7940   34.5910 C   0  0  0  0  0  0  0  0  0  0  0  0
   45.3500   26.2280   35.6030 C   0  0  0  0  0  0  0  0  0  0  0  0
   45.7790   25.0450   36.2040 C   0  0  0  0  0  0  0  0  0  0  0  0
   45.2430   23.9750   35.5780 N   0  0  0  0  0  0  0  0  0  0  0  0
   44.4760   24.4590   34.5830 N   0  0  0  0  0  0  0  0  0  0  0  0
   45.3840   22.5910   35.8260 C   0  0  0  0  0  0  0  0  0  0  0  0
   46.5730   21.8780   35.7070 C   0  0  0  0  0  0  0  0  0  0  0  0
   46.3880   20.5790   36.0080 N   0  0  0  0  0  0  0  0  0  0  0  0
   45.0940   20.3980   36.3290 C   0  0  0  0  0  0  0  0  0  0  0  0
   44.4180   19.2560   36.7080 C   0  0  0  0  0  0  0  0  0  0  0  0
   43.0600   19.3850   36.9800 C   0  0  0  0  0  0  0  0  0  0  0  0
   42.4120   20.6140   36.8760 C   0  0  0  0  0  0  0  0  0  0  0  0
   43.1300   21.7510   36.4900 C   0  0  0  0  0  0  0  0  0  0  0  0
   44.4780   21.6270   36.2180 C   0  0  0  0  0  0  0  0  0  0  0  0
   44.3712   29.0653   31.3116 H   0  0  0  0  0  0  0  0  0  0  0  0
   45.6686   27.6109   32.9398 H   0  0  0  0  0  0  0  0  0  0  0  0
   40.0735   27.4163   30.2981 H   0  0  0  0  0  0  0  0  0  0  0  0
   37.5982   27.1824   30.9998 H   0  0  0  0  0  0  0  0  0  0  0  0
   36.0888   26.9190   33.3537 H   0  0  0  0  0  0  0  0  0  0  0  0
   36.3364   26.7811   35.8196 H   0  0  0  0  0  0  0  0  0  0  0  0
   38.5888   26.8778   36.8339 H   0  0  0  0  0  0  0  0  0  0  0  0
   40.6205   27.1279   35.4092 H   0  0  0  0  0  0  0  0  0  0  0  0
   45.6051   27.2625   35.8763 H   0  0  0  0  0  0  0  0  0  0  0  0
   46.4588   24.9909   37.0671 H   0  0  0  0  0  0  0  0  0  0  0  0
   47.5358   22.3173   35.4070 H   0  0  0  0  0  0  0  0  0  0  0  0
   47.1136   19.8481   35.9948 H   0  0  0  0  0  0  0  0  0  0  0  0
   44.9306   18.2863   36.7913 H   0  0  0  0  0  0  0  0  0  0  0  0
   42.4853   18.4976   37.2837 H   0  0  0  0  0  0  0  0  0  0  0  0
   41.3372   20.6902   37.0971 H   0  0  0  0  0  0  0  0  0  0  0  0
   42.6294   22.7267   36.4047 H   0  0  0  0  0  0  0  0  0  0  0  0
  1  2  2  0
  2  3  1  0
  3 16  1  0
  4  3  2  0
  5  4  1  0
  6  1  1  0
  6  5  2  0
  7  5  1  0
  7 15  1  0
  8  9  1  0
  8  7  2  0
  9 10  1  0
 10 15  2  0
 10 11  1  0
 11 12  2  0
 12 13  1  0
 14 13  2  0
 15 14  1  0
 16 17  1  0
 17 18  2  0
 19 21  1  0
 19 18  1  0
 20 16  2  0
 20 19  1  0
 21 29  1  0
 22 21  2  0
 22 23  1  0
 23 24  1  0
 24 25  2  0
 25 26  1  0
 27 26  2  0
 28 27  1  0
 29 24  1  0
 29 28  2  0
  1 30  1  0
  2 31  1  0
  8 32  1  0
  9 33  1  0
 11 34  1  0
 12 35  1  0
 13 36  1  0
 14 37  1  0
 17 38  1  0
 18 39  1  0
 22 40  1  0
 23 41  1  0
 25 42  1  0
 26 43  1  0
 27 44  1  0
 28 45  1  0
M  ISO  8  30  14  31  14  32  14  33   9  34  14  35  14  36  14  37  14
M  ISO  8  38  14  39  14  40  14  41   9  42  14  43  14  44  14  45  14
M  END
>  <minimizedAffinity>  (1) 
-5.41437912

>  <minimizedRMSD>  (1) 
4.86879253

$$$$
