
     RDKit          3D

 19 20  0  0  0  0  0  0  0  0999 V2000
   38.6210   24.3660   36.1280 C   0  0  0  0  0  0  0  0  0  0  0  0
   39.5900   23.3700   36.2730 C   0  0  0  0  0  0  0  0  0  0  0  0
   39.7100   22.7820   37.5410 C   0  0  0  0  0  0  0  0  0  0  0  0
   38.8840   23.2100   38.5500 N   0  0  0  0  0  0  0  0  0  0  0  0
   37.9600   24.1810   38.3520 C   0  0  0  0  0  0  0  0  0  0  0  0
   37.8410   24.7450   37.1480 N   0  0  0  0  0  0  0  0  0  0  0  0
   40.6320   21.7540   37.8920 N   0  0  0  0  0  0  0  0  0  0  0  0
   40.5140   22.8410   35.2740 C   0  0  0  0  0  0  0  0  0  0  0  0
   40.5430   23.4640   33.9330 C   0  0  0  0  0  0  0  0  0  0  0  0
   41.7130   23.6560   34.9040 C   0  0  0  0  0  0  0  0  0  0  0  0
   38.4955   24.8520   35.1492 H   0  0  0  0  0  0  0  0  0  0  0  0
   37.3109   24.5031   39.1796 H   0  0  0  0  0  0  0  0  0  0  0  0
   40.6475   21.3820   38.8524 H   0  0  0  0  0  0  0  0  0  0  0  0
   41.2830   21.3828   37.1854 H   0  0  0  0  0  0  0  0  0  0  0  0
   40.3684   21.8131   35.6376 H   0  0  0  0  0  0  0  0  0  0  0  0
   39.8745   24.3064   33.7020 H   0  0  0  0  0  0  0  0  0  0  0  0
   40.4374   23.0993   32.9006 H   0  0  0  0  0  0  0  0  0  0  0  0
   42.6788   23.1656   34.7121 H   0  0  0  0  0  0  0  0  0  0  0  0
   42.2431   24.5172   35.3368 H   0  0  0  0  0  0  0  0  0  0  0  0
  1  2  2  0
  1  6  1  0
  2  3  1  0
  3  7  1  0
  3  4  2  0
  5  4  1  0
  6  5  2  0
  8  2  1  0
  9 10  1  0
  9  8  1  0
 10  8  1  0
  1 11  1  0
  5 12  1  0
  7 13  1  0
  7 14  1  0
  8 15  1  0
  9 16  1  0
  9 17  1  0
 10 18  1  0
 10 19  1  0
M  ISO  7  11  14  12  14  15  13  16  13  17  13  18  13  19  13
M  END
>  <minimizedAffinity>  (1) 
-3.55406499

>  <minimizedRMSD>  (1) 
3.6989584

$$$$
