
     RDKit          3D

 44 48  0  0  0  0  0  0  0  0999 V2000
   42.9340   26.2820   31.2480 C   0  0  0  0  0  0  0  0  0  0  0  0
   43.1730   25.2130   32.1430 C   0  0  0  0  0  0  0  0  0  0  0  0
   42.0640   24.7970   32.9240 C   0  0  0  0  0  0  0  0  0  0  0  0
   40.8680   25.4150   32.7880 N   0  0  0  0  0  0  0  0  0  0  0  0
   40.7070   26.4400   31.9060 C   0  0  0  0  0  0  0  0  0  0  0  0
   41.7180   26.8630   31.1540 N   0  0  0  0  0  0  0  0  0  0  0  0
   39.4080   27.0660   31.8000 C   0  0  0  0  0  0  0  0  0  0  0  0
   38.8240   27.4890   30.6090 C   0  0  0  0  0  0  0  0  0  0  0  0
   37.6320   28.0070   30.9430 N   0  0  0  0  0  0  0  0  0  0  0  0
   37.4170   27.9420   32.2640 C   0  0  0  0  0  0  0  0  0  0  0  0
   36.3510   28.3420   33.0660 C   0  0  0  0  0  0  0  0  0  0  0  0
   36.3910   28.1520   34.4320 C   0  0  0  0  0  0  0  0  0  0  0  0
   37.5110   27.5560   35.0030 C   0  0  0  0  0  0  0  0  0  0  0  0
   38.5890   27.1480   34.2210 C   0  0  0  0  0  0  0  0  0  0  0  0
   38.5330   27.3470   32.8410 C   0  0  0  0  0  0  0  0  0  0  0  0
   42.2700   23.7070   33.8640 C   0  0  0  0  0  0  0  0  0  0  0  0
   43.4310   22.9950   34.0370 C   0  0  0  0  0  0  0  0  0  0  0  0
   43.0960   22.0920   35.0610 C   0  0  0  0  0  0  0  0  0  0  0  0
   41.8210   22.2740   35.4540 N   0  0  0  0  0  0  0  0  0  0  0  0
   41.3320   23.2700   34.7040 N   0  0  0  0  0  0  0  0  0  0  0  0
   41.1250   21.5950   36.4730 C   0  0  0  0  0  0  0  0  0  0  0  0
   40.9490   22.4360   37.6490 C   0  0  0  0  0  0  0  0  0  0  0  0
   39.6070   22.9050   37.8180 N   0  0  0  0  0  0  0  0  0  0  0  0
   38.7260   22.7290   36.7720 C   0  0  0  0  0  0  0  0  0  0  0  0
   37.4510   23.1640   37.0420 C   0  0  0  0  0  0  0  0  0  0  0  0
   37.5470   23.6310   38.3110 N   0  0  0  0  0  0  0  0  0  0  0  0
   38.8080   23.4580   38.7140 C   0  0  0  0  0  0  0  0  0  0  0  0
   43.7558   26.6480   30.6150 H   0  0  0  0  0  0  0  0  0  0  0  0
   44.1592   24.7332   32.2283 H   0  0  0  0  0  0  0  0  0  0  0  0
   39.2529   27.4138   29.5988 H   0  0  0  0  0  0  0  0  0  0  0  0
   36.9646   28.4055   30.2672 H   0  0  0  0  0  0  0  0  0  0  0  0
   35.4697   28.8134   32.6065 H   0  0  0  0  0  0  0  0  0  0  0  0
   35.5469   28.4682   35.0625 H   0  0  0  0  0  0  0  0  0  0  0  0
   37.5458   27.4042   36.0919 H   0  0  0  0  0  0  0  0  0  0  0  0
   39.4691   26.6771   34.6832 H   0  0  0  0  0  0  0  0  0  0  0  0
   44.3877   23.1042   33.5053 H   0  0  0  0  0  0  0  0  0  0  0  0
   43.7803   21.3411   35.4826 H   0  0  0  0  0  0  0  0  0  0  0  0
   40.1358   21.2983   36.0941 H   0  0  0  0  0  0  0  0  0  0  0  0
   41.7129   20.7121   36.7642 H   0  0  0  0  0  0  0  0  0  0  0  0
   41.2293   21.8536   38.5391 H   0  0  0  0  0  0  0  0  0  0  0  0
   41.5873   23.3215   37.5129 H   0  0  0  0  0  0  0  0  0  0  0  0
   39.0171   22.2816   35.8102 H   0  0  0  0  0  0  0  0  0  0  0  0
   36.5672   23.1393   36.3876 H   0  0  0  0  0  0  0  0  0  0  0  0
   39.1554   23.7531   39.7151 H   0  0  0  0  0  0  0  0  0  0  0  0
  1  2  2  0
  2  3  1  0
  3 16  1  0
  4  3  2  0
  5  4  1  0
  6  1  1  0
  6  5  2  0
  7  5  1  0
  7 15  1  0
  8  9  1  0
  8  7  2  0
  9 10  1  0
 10 15  2  0
 10 11  1  0
 11 12  2  0
 12 13  1  0
 14 13  2  0
 15 14  1  0
 16 17  1  0
 16 20  2  0
 17 18  2  0
 18 19  1  0
 19 21  1  0
 20 19  1  0
 21 22  1  0
 22 23  1  0
 23 27  1  0
 24 25  2  0
 24 23  1  0
 25 26  1  0
 26 27  2  0
  1 28  1  0
  2 29  1  0
  8 30  1  0
  9 31  1  0
 11 32  1  0
 12 33  1  0
 13 34  1  0
 14 35  1  0
 17 36  1  0
 18 37  1  0
 21 38  1  0
 21 39  1  0
 22 40  1  0
 22 41  1  0
 24 42  1  0
 25 43  1  0
 27 44  1  0
M  ISO  8  28  14  29  14  30  14  31   9  32  14  33  14  34  14  35  14
M  ISO  8  36  14  37  14  38   8  39   8  40   8  41   8  42  14  43  14
M  ISO  1  44  14
M  END
>  <minimizedAffinity>  (1) 
-4.96328735

>  <minimizedRMSD>  (1) 
2.56538105

$$$$
