
     RDKit          3D

 24 24  0  0  0  0  0  0  0  0999 V2000
   39.0080   24.5870   36.0620 C   0  0  0  0  0  0  0  0  0  0  0  0
   39.9610   23.6030   36.3240 C   0  0  0  0  0  0  0  0  0  0  0  0
   39.7730   22.8230   37.4770 C   0  0  0  0  0  0  0  0  0  0  0  0
   38.6830   23.0600   38.2760 N   0  0  0  0  0  0  0  0  0  0  0  0
   37.7880   24.0270   37.9760 C   0  0  0  0  0  0  0  0  0  0  0  0
   37.9610   24.7780   36.8740 N   0  0  0  0  0  0  0  0  0  0  0  0
   40.6360   21.7820   37.9010 N   0  0  0  0  0  0  0  0  0  0  0  0
   41.1570   23.2350   35.5800 C   0  0  0  0  0  0  0  0  0  0  0  0
   40.8660   21.9420   34.8410 C   0  0  0  0  0  0  0  0  0  0  0  0
   41.5050   24.2610   34.5030 C   0  0  0  0  0  0  0  0  0  0  0  0
   42.3680   22.9960   36.4340 C   0  0  0  0  0  0  0  0  0  0  0  0
   39.1191   25.2197   35.1690 H   0  0  0  0  0  0  0  0  0  0  0  0
   36.9211   24.1992   38.6309 H   0  0  0  0  0  0  0  0  0  0  0  0
   40.4253   21.2568   38.7616 H   0  0  0  0  0  0  0  0  0  0  0  0
   41.4740   21.5506   37.3486 H   0  0  0  0  0  0  0  0  0  0  0  0
   40.6848   21.1368   35.5682 H   0  0  0  0  0  0  0  0  0  0  0  0
   39.9749   22.0731   34.2095 H   0  0  0  0  0  0  0  0  0  0  0  0
   41.7274   21.6787   34.2095 H   0  0  0  0  0  0  0  0  0  0  0  0
   41.8234   25.1997   34.9800 H   0  0  0  0  0  0  0  0  0  0  0  0
   42.3217   23.8726   33.8767 H   0  0  0  0  0  0  0  0  0  0  0  0
   40.6206   24.4495   33.8767 H   0  0  0  0  0  0  0  0  0  0  0  0
   42.0849   23.0519   37.4955 H   0  0  0  0  0  0  0  0  0  0  0  0
   42.7794   21.9993   36.2162 H   0  0  0  0  0  0  0  0  0  0  0  0
   43.1272   23.7616   36.2162 H   0  0  0  0  0  0  0  0  0  0  0  0
  1  2  2  0
  1  6  1  0
  2  3  1  0
  3  7  1  0
  3  4  2  0
  5  4  1  0
  6  5  2  0
  8  2  1  0
  8 11  1  0
  9  8  1  0
 10  8  1  0
  1 12  1  0
  5 13  1  0
  7 14  1  0
  7 15  1  0
  9 16  1  0
  9 17  1  0
  9 18  1  0
 10 19  1  0
 10 20  1  0
 10 21  1  0
 11 22  1  0
 11 23  1  0
 11 24  1  0
M  ISO  8  12  14  13  14  16   8  17   8  18   8  19   8  20   8  21   8
M  ISO  3  22   8  23   8  24   8
M  END
>  <minimizedAffinity>  (1) 
-3.72250772

>  <minimizedRMSD>  (1) 
3.46003127

$$$$
