
     RDKit          3D

 13 13  0  0  0  0  0  0  0  0999 V2000
   38.6230   24.2720   36.0500 C   0  0  0  0  0  0  0  0  0  0  0  0
   39.5870   23.2690   36.2270 C   0  0  0  0  0  0  0  0  0  0  0  0
   39.7280   22.7470   37.5030 C   0  0  0  0  0  0  0  0  0  0  0  0
   38.9440   23.2170   38.5070 N   0  0  0  0  0  0  0  0  0  0  0  0
   38.0180   24.1860   38.3110 C   0  0  0  0  0  0  0  0  0  0  0  0
   37.8740   24.7000   37.0770 N   0  0  0  0  0  0  0  0  0  0  0  0
   40.6430   21.7280   37.8930 N   0  0  0  0  0  0  0  0  0  0  0  0
   40.6430   22.6090   34.9720 S   0  0  0  0  0  0  0  0  0  0  0  0
   38.4789   24.7146   35.0533 H   0  0  0  0  0  0  0  0  0  0  0  0
   37.3965   24.5451   39.1445 H   0  0  0  0  0  0  0  0  0  0  0  0
   40.6703   21.4074   38.8714 H   0  0  0  0  0  0  0  0  0  0  0  0
   41.2775   21.3116   37.1967 H   0  0  0  0  0  0  0  0  0  0  0  0
   41.6933   21.9526   35.5576 H   0  0  0  0  0  0  0  0  0  0  0  0
  1  2  2  0
  1  6  1  0
  2  3  1  0
  3  7  1  0
  3  4  2  0
  5  4  1  0
  6  5  2  0
  8  2  1  0
  1  9  1  0
  5 10  1  0
  7 11  1  0
  7 12  1  0
  8 13  1  0
M  ISO  3   9  14  10  14  13  11
M  END
>  <minimizedAffinity>  (1) 
-3.36315632

>  <minimizedRMSD>  (1) 
2.9858458

$$$$
