
     RDKit          3D

 31 32  0  0  1  0  0  0  0  0999 V2000
   39.4520   23.2560   34.7460 C   0  0  2  0  0  0  0  0  0  0  0  0
   38.2600   24.8410   36.3350 C   0  0  0  0  0  0  0  0  0  0  0  0
   39.0070   23.6860   36.0720 C   0  0  0  0  0  0  0  0  0  0  0  0
   39.3060   22.8770   37.1780 C   0  0  0  0  0  0  0  0  0  0  0  0
   38.8810   23.2130   38.4340 N   0  0  0  0  0  0  0  0  0  0  0  0
   38.1580   24.3550   38.6060 C   0  0  0  0  0  0  0  0  0  0  0  0
   37.8500   25.1610   37.5720 N   0  0  0  0  0  0  0  0  0  0  0  0
   40.0810   21.6730   37.0900 N   0  0  0  0  0  0  0  0  0  0  0  0
   40.9320   23.6670   34.6310 C   0  0  0  0  0  0  0  0  0  0  0  0
   38.6230   23.8690   33.6610 C   0  0  0  0  0  0  0  0  0  0  0  0
   37.5200   23.0320   33.2280 N   0  0  0  0  0  0  0  0  0  0  0  0
   37.2630   21.8510   33.8680 C   0  0  0  0  0  0  0  0  0  0  0  0
   36.2660   20.9470   33.5810 C   0  0  0  0  0  0  0  0  0  0  0  0
   35.4410   21.2660   32.5370 C   0  0  0  0  0  0  0  0  0  0  0  0
   34.5060   20.4910   32.2130 O   0  0  0  0  0  0  0  0  0  0  0  0
   35.6800   22.4220   31.8970 N   0  0  0  0  0  0  0  0  0  0  0  0
   36.6690   23.2750   32.2160 C   0  0  0  0  0  0  0  0  0  0  0  0
   36.8430   24.3450   31.5790 O   0  0  0  0  0  0  0  0  0  0  0  0
   39.3367   22.1686   34.6265 H   0  0  0  0  0  0  0  0  0  0  0  0
   38.0007   25.5081   35.4997 H   0  0  0  0  0  0  0  0  0  0  0  0
   37.8169   24.6258   39.6161 H   0  0  0  0  0  0  0  0  0  0  0  0
   40.2690   21.1184   37.9374 H   0  0  0  0  0  0  0  0  0  0  0  0
   40.4495   21.3631   36.1795 H   0  0  0  0  0  0  0  0  0  0  0  0
   41.3589   23.7856   35.6378 H   0  0  0  0  0  0  0  0  0  0  0  0
   41.4873   22.8891   34.0865 H   0  0  0  0  0  0  0  0  0  0  0  0
   41.0067   24.6199   34.0865 H   0  0  0  0  0  0  0  0  0  0  0  0
   38.2129   24.8198   34.0322 H   0  0  0  0  0  0  0  0  0  0  0  0
   39.2824   24.0080   32.7916 H   0  0  0  0  0  0  0  0  0  0  0  0
   37.9278   21.5950   34.7062 H   0  0  0  0  0  0  0  0  0  0  0  0
   36.1393   20.0195   34.1587 H   0  0  0  0  0  0  0  0  0  0  0  0
   35.0649   22.6718   31.1095 H   0  0  0  0  0  0  0  0  0  0  0  0
  1  3  1  0
  2  7  2  0
  3  2  1  0
  3  4  2  0
  4  5  1  0
  5  6  2  0
  7  6  1  0
  8  4  1  0
  9  1  1  0
 10  1  1  0
 11 10  1  0
 11 12  1  0
 13 12  2  0
 14 13  1  0
 15 14  2  0
 16 17  1  0
 16 14  1  0
 17 11  1  0
 18 17  2  0
  1 19  1  1
  2 20  1  0
  6 21  1  0
  8 22  1  0
  8 23  1  0
  9 24  1  0
  9 25  1  0
  9 26  1  0
 10 27  1  0
 10 28  1  0
 12 29  1  0
 13 30  1  0
 16 31  1  0
M  ISO  8  19   8  20  14  21  14  24   8  25   8  26   8  27   8  28   8
M  ISO  3  29  14  30  14  31   9
M  END
>  <minimizedAffinity>  (1) 
-4.6529541

>  <minimizedRMSD>  (1) 
3.3300128

$$$$
