
     RDKit          3D

 34 35  0  0  1  0  0  0  0  0999 V2000
   39.8070   23.3050   34.8230 C   0  0  2  0  0  0  0  0  0  0  0  0
   38.4250   24.8170   36.3090 C   0  0  0  0  0  0  0  0  0  0  0  0
   39.2340   23.6870   36.0960 C   0  0  0  0  0  0  0  0  0  0  0  0
   39.4290   22.8640   37.2060 C   0  0  0  0  0  0  0  0  0  0  0  0
   38.8540   23.1570   38.4220 N   0  0  0  0  0  0  0  0  0  0  0  0
   38.0820   24.2730   38.5440 C   0  0  0  0  0  0  0  0  0  0  0  0
   37.8710   25.0910   37.5000 N   0  0  0  0  0  0  0  0  0  0  0  0
   40.2550   21.6860   37.1770 N   0  0  0  0  0  0  0  0  0  0  0  0
   41.2510   23.8720   34.8070 C   0  0  0  0  0  0  0  0  0  0  0  0
   39.0380   23.8550   33.6750 C   0  0  0  0  0  0  0  0  0  0  0  0
   38.1820   22.8980   33.0160 N   0  0  0  0  0  0  0  0  0  0  0  0
   37.3190   22.1050   33.6790 C   0  0  0  0  0  0  0  0  0  0  0  0
   36.4810   21.1770   33.0940 C   0  0  0  0  0  0  0  0  0  0  0  0
   35.5440   20.3180   33.8200 C   0  0  0  0  0  0  0  0  0  0  0  0
   36.5600   21.0780   31.7020 C   0  0  0  0  0  0  0  0  0  0  0  0
   35.8370   20.2600   31.0600 O   0  0  0  0  0  0  0  0  0  0  0  0
   37.4250   21.8710   31.0150 N   0  0  0  0  0  0  0  0  0  0  0  0
   38.2130   22.7570   31.6770 C   0  0  0  0  0  0  0  0  0  0  0  0
   38.9910   23.4560   30.9490 O   0  0  0  0  0  0  0  0  0  0  0  0
   39.7875   22.2104   34.7164 H   0  0  0  0  0  0  0  0  0  0  0  0
   38.2394   25.5017   35.4683 H   0  0  0  0  0  0  0  0  0  0  0  0
   37.6231   24.5084   39.5156 H   0  0  0  0  0  0  0  0  0  0  0  0
   40.3650   21.1131   38.0259 H   0  0  0  0  0  0  0  0  0  0  0  0
   40.7362   21.4157   36.3074 H   0  0  0  0  0  0  0  0  0  0  0  0
   41.6022   24.0099   35.8403 H   0  0  0  0  0  0  0  0  0  0  0  0
   41.9156   23.1680   34.2847 H   0  0  0  0  0  0  0  0  0  0  0  0
   41.2590   24.8401   34.2847 H   0  0  0  0  0  0  0  0  0  0  0  0
   38.4110   24.6797   34.0448 H   0  0  0  0  0  0  0  0  0  0  0  0
   39.7781   24.1794   32.9287 H   0  0  0  0  0  0  0  0  0  0  0  0
   37.2785   22.2046   34.7737 H   0  0  0  0  0  0  0  0  0  0  0  0
   35.6884   20.4504   34.9024 H   0  0  0  0  0  0  0  0  0  0  0  0
   34.5128   20.5911   33.5516 H   0  0  0  0  0  0  0  0  0  0  0  0
   35.7267   19.2670   33.5516 H   0  0  0  0  0  0  0  0  0  0  0  0
   37.4827   21.7994   29.9891 H   0  0  0  0  0  0  0  0  0  0  0  0
  1  3  1  0
  2  7  2  0
  3  2  1  0
  3  4  2  0
  4  5  1  0
  5  6  2  0
  7  6  1  0
  8  4  1  0
  9  1  1  0
 10  1  1  0
 11 10  1  0
 11 12  1  0
 13 12  2  0
 13 14  1  0
 15 13  1  0
 16 15  2  0
 17 18  1  0
 17 15  1  0
 18 11  1  0
 19 18  2  0
  1 20  1  6
  2 21  1  0
  6 22  1  0
  8 23  1  0
  8 24  1  0
  9 25  1  0
  9 26  1  0
  9 27  1  0
 10 28  1  0
 10 29  1  0
 12 30  1  0
 14 31  1  0
 14 32  1  0
 14 33  1  0
 17 34  1  0
M  ISO  8  20   8  21  14  22  14  25   8  26   8  27   8  28   8  29   8
M  ISO  5  30  14  31   8  32   8  33   8  34   9
M  END
>  <minimizedAffinity>  (1) 
-4.7203083

>  <minimizedRMSD>  (1) 
2.86649752

$$$$
