
     RDKit          3D

 30 31  0  0  1  0  0  0  0  0999 V2000
   39.3740   22.4110   35.0830 C   0  0  2  0  0  0  0  0  0  0  0  0
   38.0690   24.2020   36.2920 C   0  0  0  0  0  0  0  0  0  0  0  0
   38.9740   23.1290   36.2740 C   0  0  0  0  0  0  0  0  0  0  0  0
   39.4630   22.7220   37.5220 C   0  0  0  0  0  0  0  0  0  0  0  0
   39.0570   23.3560   38.6680 N   0  0  0  0  0  0  0  0  0  0  0  0
   38.1860   24.3760   38.6060 C   0  0  0  0  0  0  0  0  0  0  0  0
   37.6950   24.8000   37.4420 N   0  0  0  0  0  0  0  0  0  0  0  0
   40.4240   21.6630   37.6800 N   0  0  0  0  0  0  0  0  0  0  0  0
   40.8410   22.7730   34.7990 C   0  0  0  0  0  0  0  0  0  0  0  0
   38.4930   22.7310   33.9180 C   0  0  0  0  0  0  0  0  0  0  0  0
   37.6040   21.6220   33.5110 C   0  0  0  0  0  0  0  0  0  0  0  0
   36.5430   21.4570   34.3820 C   0  0  0  0  0  0  0  0  0  0  0  0
   35.5880   20.4570   34.1700 C   0  0  0  0  0  0  0  0  0  0  0  0
   35.7310   19.6480   33.0760 C   0  0  0  0  0  0  0  0  0  0  0  0
   36.8100   19.8410   32.2170 C   0  0  0  0  0  0  0  0  0  0  0  0
   37.7140   20.8160   32.4550 N   0  0  0  0  0  0  0  0  0  0  0  0
   39.2726   21.3276   35.2443 H   0  0  0  0  0  0  0  0  0  0  0  0
   37.6528   24.5657   35.3410 H   0  0  0  0  0  0  0  0  0  0  0  0
   37.8710   24.8722   39.5358 H   0  0  0  0  0  0  0  0  0  0  0  0
   40.7522   21.4015   38.6206 H   0  0  0  0  0  0  0  0  0  0  0  0
   40.7838   21.1664   36.8525 H   0  0  0  0  0  0  0  0  0  0  0  0
   41.3769   22.9052   35.7505 H   0  0  0  0  0  0  0  0  0  0  0  0
   41.3130   21.9644   34.2216 H   0  0  0  0  0  0  0  0  0  0  0  0
   40.8827   23.7084   34.2216 H   0  0  0  0  0  0  0  0  0  0  0  0
   37.8671   23.5952   34.1853 H   0  0  0  0  0  0  0  0  0  0  0  0
   39.1568   22.9349   33.0649 H   0  0  0  0  0  0  0  0  0  0  0  0
   36.4485   22.1212   35.2537 H   0  0  0  0  0  0  0  0  0  0  0  0
   34.7449   20.3247   34.8641 H   0  0  0  0  0  0  0  0  0  0  0  0
   34.9993   18.8512   32.8764 H   0  0  0  0  0  0  0  0  0  0  0  0
   36.9273   19.1930   31.3359 H   0  0  0  0  0  0  0  0  0  0  0  0
  1  3  1  0
  2  7  2  0
  3  2  1  0
  3  4  2  0
  4  8  1  0
  4  5  1  0
  6  5  2  0
  7  6  1  0
  9  1  1  0
 10  1  1  0
 11 10  1  0
 11 12  2  0
 13 12  1  0
 14 13  2  0
 15 16  2  0
 15 14  1  0
 16 11  1  0
  1 17  1  1
  2 18  1  0
  6 19  1  0
  8 20  1  0
  8 21  1  0
  9 22  1  0
  9 23  1  0
  9 24  1  0
 10 25  1  0
 10 26  1  0
 12 27  1  0
 13 28  1  0
 14 29  1  0
 15 30  1  0
M  ISO  8  17   8  18  14  19  14  22   8  23   8  24   8  25   8  26   8
M  ISO  4  27  14  28  14  29  14  30  14
M  END
>  <minimizedAffinity>  (1) 
-4.48286963

>  <minimizedRMSD>  (1) 
2.47946048

$$$$
