
     RDKit          3D

 27 29  0  0  0  0  0  0  0  0999 V2000
   38.4600   22.7280   33.8150 C   0  0  0  0  0  0  0  0  0  0  0  0
   38.4000   21.7500   32.8540 C   0  0  0  0  0  0  0  0  0  0  0  0
   37.6560   22.2350   31.7810 C   0  0  0  0  0  0  0  0  0  0  0  0
   37.2810   23.4790   32.0990 N   0  0  0  0  0  0  0  0  0  0  0  0
   37.7670   23.7630   33.3150 N   0  0  0  0  0  0  0  0  0  0  0  0
   36.5260   24.5090   31.4710 C   0  0  0  0  0  0  0  0  0  0  0  0
   35.1710   24.2910   31.2410 C   0  0  0  0  0  0  0  0  0  0  0  0
   34.6910   25.4380   30.6280 C   0  0  0  0  0  0  0  0  0  0  0  0
   35.7360   26.3070   30.5030 N   0  0  0  0  0  0  0  0  0  0  0  0
   36.8430   25.7470   31.0120 N   0  0  0  0  0  0  0  0  0  0  0  0
   40.9330   22.1090   36.4310 C   0  0  0  0  0  0  0  0  0  0  0  0
   40.2740   22.6070   37.5870 C   0  0  0  0  0  0  0  0  0  0  0  0
   39.0010   23.1360   37.4160 C   0  0  0  0  0  0  0  0  0  0  0  0
   38.4550   23.1550   36.1800 N   0  0  0  0  0  0  0  0  0  0  0  0
   39.1290   22.6650   35.1000 C   0  0  0  0  0  0  0  0  0  0  0  0
   40.3610   22.1470   35.2400 N   0  0  0  0  0  0  0  0  0  0  0  0
   38.3730   23.6360   38.6590 C   0  0  0  0  0  0  0  0  0  0  0  0
   37.8480   24.8780   38.4320 F   0  0  0  0  0  0  0  0  0  0  0  0
   39.3780   23.7960   39.5910 F   0  0  0  0  0  0  0  0  0  0  0  0
   37.3590   22.8170   39.0940 F   0  0  0  0  0  0  0  0  0  0  0  0
   38.8608   20.7533   32.9199 H   0  0  0  0  0  0  0  0  0  0  0  0
   37.4216   21.6978   30.8502 H   0  0  0  0  0  0  0  0  0  0  0  0
   34.5956   23.3886   31.4949 H   0  0  0  0  0  0  0  0  0  0  0  0
   33.6557   25.6156   30.3015 H   0  0  0  0  0  0  0  0  0  0  0  0
   35.6827   27.2461   30.0833 H   0  0  0  0  0  0  0  0  0  0  0  0
   41.9420   21.6822   36.5294 H   0  0  0  0  0  0  0  0  0  0  0  0
   40.7523   22.5750   38.5770 H   0  0  0  0  0  0  0  0  0  0  0  0
  1 15  1  0
  2  1  1  0
  3  4  1  0
  3  2  2  0
  4  5  1  0
  5  1  2  0
  6  4  1  0
  7  6  1  0
  8  7  2  0
  9  8  1  0
  9 10  1  0
 10  6  2  0
 11 12  2  0
 13 12  1  0
 13 17  1  0
 14 13  2  0
 15 16  2  0
 15 14  1  0
 16 11  1  0
 17 20  1  0
 17 19  1  0
 18 17  1  0
  2 21  1  0
  3 22  1  0
  7 23  1  0
  8 24  1  0
  9 25  1  0
 11 26  1  0
 12 27  1  0
M  ISO  7  21  14  22  14  23  14  24  14  25   9  26  14  27  14
M  END
>  <minimizedAffinity>  (1) 
-6.01349926

>  <minimizedRMSD>  (1) 
0.668896616

$$$$
