
     RDKit          3D

 28 29  0  0  1  0  0  0  0  0999 V2000
   39.5830   22.7770   35.2550 C   0  0  2  0  0  0  0  0  0  0  0  0
   38.2430   24.5730   36.4480 C   0  0  0  0  0  0  0  0  0  0  0  0
   39.0840   23.4490   36.4490 C   0  0  0  0  0  0  0  0  0  0  0  0
   39.4450   22.9200   37.6910 C   0  0  0  0  0  0  0  0  0  0  0  0
   38.9840   23.4960   38.8450 N   0  0  0  0  0  0  0  0  0  0  0  0
   38.1710   24.5870   38.7760 C   0  0  0  0  0  0  0  0  0  0  0  0
   37.8040   25.1200   37.5910 N   0  0  0  0  0  0  0  0  0  0  0  0
   40.2920   21.7920   37.8690 N   0  0  0  0  0  0  0  0  0  0  0  0
   40.9600   23.3920   34.9160 C   0  0  0  0  0  0  0  0  0  0  0  0
   38.6540   22.9640   34.0950 C   0  0  0  0  0  0  0  0  0  0  0  0
   37.5280   22.0500   34.0800 C   0  0  0  0  0  0  0  0  0  0  0  0
   36.7990   21.4560   35.0500 C   0  0  0  0  0  0  0  0  0  0  0  0
   35.7640   20.6150   34.7790 C   0  0  0  0  0  0  0  0  0  0  0  0
   35.5320   20.4280   33.3860 C   0  0  0  0  0  0  0  0  0  0  0  0
   36.7540   21.4220   32.5690 S   0  0  0  0  0  0  0  0  0  0  0  0
   39.6616   21.6968   35.4471 H   0  0  0  0  0  0  0  0  0  0  0  0
   37.9373   25.0149   35.4882 H   0  0  0  0  0  0  0  0  0  0  0  0
   37.8051   25.0442   39.7072 H   0  0  0  0  0  0  0  0  0  0  0  0
   40.5138   21.4592   38.8182 H   0  0  0  0  0  0  0  0  0  0  0  0
   40.6838   21.3076   37.0488 H   0  0  0  0  0  0  0  0  0  0  0  0
   41.4943   23.6306   35.8474 H   0  0  0  0  0  0  0  0  0  0  0  0
   41.5491   22.6714   34.3297 H   0  0  0  0  0  0  0  0  0  0  0  0
   40.8165   24.3116   34.3297 H   0  0  0  0  0  0  0  0  0  0  0  0
   38.2633   23.9917   34.1285 H   0  0  0  0  0  0  0  0  0  0  0  0
   39.2389   22.7590   33.1862 H   0  0  0  0  0  0  0  0  0  0  0  0
   37.0521   21.6603   36.1008 H   0  0  0  0  0  0  0  0  0  0  0  0
   35.1640   20.1264   35.5608 H   0  0  0  0  0  0  0  0  0  0  0  0
   34.7597   19.8009   32.9167 H   0  0  0  0  0  0  0  0  0  0  0  0
  1  3  1  0
  2  3  2  0
  2  7  1  0
  3  4  1  0
  4  8  1  0
  4  5  2  0
  6  5  1  0
  7  6  2  0
  9  1  1  0
 10  1  1  0
 11 10  1  0
 11 12  2  0
 13 12  1  0
 14 13  2  0
 15 14  1  0
 15 11  1  0
  1 16  1  1
  2 17  1  0
  6 18  1  0
  8 19  1  0
  8 20  1  0
  9 21  1  0
  9 22  1  0
  9 23  1  0
 10 24  1  0
 10 25  1  0
 12 26  1  0
 13 27  1  0
 14 28  1  0
M  ISO  8  16   8  17  14  18  14  21   8  22   8  23   8  24   8  25   8
M  ISO  3  26  14  27  14  28  14
M  END
>  <minimizedAffinity>  (1) 
-4.25648499

>  <minimizedRMSD>  (1) 
0.992162168

$$$$
