
     RDKit          3D

 34 35  0  0  1  0  0  0  0  0999 V2000
   40.0760   22.8590   35.1670 C   0  0  2  0  0  0  0  0  0  0  0  0
   38.3990   24.4290   36.2610 C   0  0  0  0  0  0  0  0  0  0  0  0
   39.3510   23.3990   36.3100 C   0  0  0  0  0  0  0  0  0  0  0  0
   39.5880   22.8230   37.5690 C   0  0  0  0  0  0  0  0  0  0  0  0
   38.9050   23.2720   38.6770 N   0  0  0  0  0  0  0  0  0  0  0  0
   38.0030   24.2690   38.5440 C   0  0  0  0  0  0  0  0  0  0  0  0
   37.7540   24.8400   37.3530 N   0  0  0  0  0  0  0  0  0  0  0  0
   40.5300   21.7810   37.7990 N   0  0  0  0  0  0  0  0  0  0  0  0
   41.2660   23.8200   34.9020 C   0  0  0  0  0  0  0  0  0  0  0  0
   39.2030   22.8120   33.9480 C   0  0  0  0  0  0  0  0  0  0  0  0
   38.5620   21.5490   33.7210 N   0  0  0  0  0  0  0  0  0  0  0  0
   38.9940   20.9190   32.5060 C   0  0  0  0  0  0  0  0  0  0  0  0
   37.7700   20.2630   31.8790 C   0  0  0  0  0  0  0  0  0  0  0  0
   36.9910   21.2990   31.3930 O   0  0  0  0  0  0  0  0  0  0  0  0
   36.5190   22.0700   32.4260 C   0  0  0  0  0  0  0  0  0  0  0  0
   37.1290   21.7630   33.7690 C   0  0  0  0  0  0  0  0  0  0  0  0
   40.4110   21.8331   35.3800 H   0  0  0  0  0  0  0  0  0  0  0  0
   38.1793   24.9098   35.2963 H   0  0  0  0  0  0  0  0  0  0  0  0
   37.4589   24.6222   39.4324 H   0  0  0  0  0  0  0  0  0  0  0  0
   40.6564   21.4013   38.7481 H   0  0  0  0  0  0  0  0  0  0  0  0
   41.0853   21.4067   37.0164 H   0  0  0  0  0  0  0  0  0  0  0  0
   41.6848   24.1582   35.8613 H   0  0  0  0  0  0  0  0  0  0  0  0
   42.0425   23.2926   34.3285 H   0  0  0  0  0  0  0  0  0  0  0  0
   40.9139   24.6901   34.3285 H   0  0  0  0  0  0  0  0  0  0  0  0
   38.4217   23.5788   34.0557 H   0  0  0  0  0  0  0  0  0  0  0  0
   39.8627   22.9864   33.0852 H   0  0  0  0  0  0  0  0  0  0  0  0
   39.4120   21.6703   31.8199 H   0  0  0  0  0  0  0  0  0  0  0  0
   39.7759   20.1726   32.7097 H   0  0  0  0  0  0  0  0  0  0  0  0
   38.0720   19.5944   31.0594 H   0  0  0  0  0  0  0  0  0  0  0  0
   37.2197   19.6529   32.6104 H   0  0  0  0  0  0  0  0  0  0  0  0
   36.7249   23.1242   32.1888 H   0  0  0  0  0  0  0  0  0  0  0  0
   35.4451   21.8486   32.5141 H   0  0  0  0  0  0  0  0  0  0  0  0
   36.6548   20.8535   34.1665 H   0  0  0  0  0  0  0  0  0  0  0  0
   36.9554   22.6400   34.4099 H   0  0  0  0  0  0  0  0  0  0  0  0
  1  3  1  0
  2  3  2  0
  2  7  1  0
  3  4  1  0
  4  8  1  0
  4  5  2  0
  6  5  1  0
  7  6  2  0
  9  1  1  0
 10  1  1  0
 11 16  1  0
 11 10  1  0
 12 11  1  0
 13 12  1  0
 14 13  1  0
 14 15  1  0
 15 16  1  0
  1 17  1  1
  2 18  1  0
  6 19  1  0
  8 20  1  0
  8 21  1  0
  9 22  1  0
  9 23  1  0
  9 24  1  0
 10 25  1  0
 10 26  1  0
 12 27  1  0
 12 28  1  0
 13 29  1  0
 13 30  1  0
 15 31  1  0
 15 32  1  0
 16 33  1  0
 16 34  1  0
M  ISO  8  17   8  18  14  19  14  22   8  23   8  24   8  25   8  26   8
M  ISO  8  27  13  28  13  29  13  30  13  31  13  32  13  33  13  34  13
M  END
>  <minimizedAffinity>  (1) 
-4.25709438

>  <minimizedRMSD>  (1) 
1.51212013

$$$$
