
     RDKit          3D

 23 23  0  0  1  0  0  0  0  0999 V2000
   39.7790   22.3870   35.1720 C   0  0  2  0  0  0  0  0  0  0  0  0
   38.1610   24.0390   36.1930 C   0  0  0  0  0  0  0  0  0  0  0  0
   39.1740   23.0700   36.3010 C   0  0  0  0  0  0  0  0  0  0  0  0
   39.5880   22.7170   37.5900 C   0  0  0  0  0  0  0  0  0  0  0  0
   38.9970   23.3230   38.6820 N   0  0  0  0  0  0  0  0  0  0  0  0
   38.0330   24.2420   38.5140 C   0  0  0  0  0  0  0  0  0  0  0  0
   37.6110   24.6040   37.2810 N   0  0  0  0  0  0  0  0  0  0  0  0
   40.5960   21.7580   37.8760 N   0  0  0  0  0  0  0  0  0  0  0  0
   40.8380   23.3380   34.5730 C   0  0  0  0  0  0  0  0  0  0  0  0
   38.7640   21.9890   34.1500 C   0  0  0  0  0  0  0  0  0  0  0  0
   39.3980   21.2820   33.0320 N   0  0  0  0  0  0  0  0  0  0  0  0
   40.2476   21.4502   35.5079 H   0  0  0  0  0  0  0  0  0  0  0  0
   37.8107   24.3415   35.1951 H   0  0  0  0  0  0  0  0  0  0  0  0
   37.5764   24.7108   39.3982 H   0  0  0  0  0  0  0  0  0  0  0  0
   40.8472   21.5506   38.8531 H   0  0  0  0  0  0  0  0  0  0  0  0
   41.0758   21.2699   37.1062 H   0  0  0  0  0  0  0  0  0  0  0  0
   41.3888   23.8326   35.3867 H   0  0  0  0  0  0  0  0  0  0  0  0
   41.5399   22.7612   33.9528 H   0  0  0  0  0  0  0  0  0  0  0  0
   40.3397   24.0977   33.9528 H   0  0  0  0  0  0  0  0  0  0  0  0
   38.0203   21.3280   34.6191 H   0  0  0  0  0  0  0  0  0  0  0  0
   38.2796   22.8975   33.7626 H   0  0  0  0  0  0  0  0  0  0  0  0
   40.0405   20.5655   33.3990 H   0  0  0  0  0  0  0  0  0  0  0  0
   38.6732   20.8306   32.4560 H   0  0  0  0  0  0  0  0  0  0  0  0
  1  3  1  0
  2  3  2  0
  2  7  1  0
  3  4  1  0
  4  8  1  0
  4  5  2  0
  6  5  1  0
  7  6  2  0
  9  1  1  0
 10  1  1  0
 11 10  1  0
  1 12  1  1
  2 13  1  0
  6 14  1  0
  8 15  1  0
  8 16  1  0
  9 17  1  0
  9 18  1  0
  9 19  1  0
 10 20  1  0
 10 21  1  0
 11 22  1  0
 11 23  1  0
M  ISO  8  12   8  13  14  14  14  17   8  18   8  19   8  20   8  21   8
M  ISO  2  22   5  23   5
M  END
>  <minimizedAffinity>  (1) 
-3.50699115

>  <minimizedRMSD>  (1) 
0.144360363

$$$$
