
     RDKit          3D

 26 27  0  0  1  0  0  0  0  0999 V2000
   40.3930   23.0830   35.2400 C   0  0  2  0  0  0  0  0  0  0  0  0
   38.6640   24.6310   36.2650 C   0  0  0  0  0  0  0  0  0  0  0  0
   39.5620   23.5540   36.3360 C   0  0  0  0  0  0  0  0  0  0  0  0
   39.6180   22.8650   37.5470 C   0  0  0  0  0  0  0  0  0  0  0  0
   38.8300   23.2360   38.6000 N   0  0  0  0  0  0  0  0  0  0  0  0
   37.9780   24.2920   38.4630 C   0  0  0  0  0  0  0  0  0  0  0  0
   37.8950   24.9850   37.3050 N   0  0  0  0  0  0  0  0  0  0  0  0
   40.4820   21.7540   37.7980 N   0  0  0  0  0  0  0  0  0  0  0  0
   41.7650   23.7800   35.3780 C   0  0  0  0  0  0  0  0  0  0  0  0
   39.7970   23.4140   33.9070 C   0  0  0  0  0  0  0  0  0  0  0  0
   38.8390   22.3300   33.4800 C   0  0  0  0  0  0  0  0  0  0  0  0
   39.1610   21.1770   32.8610 N   0  0  0  0  0  0  0  0  0  0  0  0
   38.0680   20.5080   32.6590 O   0  0  0  0  0  0  0  0  0  0  0  0
   37.0130   21.1440   33.1080 C   0  0  0  0  0  0  0  0  0  0  0  0
   37.5030   22.2880   33.6240 N   0  0  0  0  0  0  0  0  0  0  0  0
   40.4828   21.9879   35.2918 H   0  0  0  0  0  0  0  0  0  0  0  0
   38.5890   25.2018   35.3277 H   0  0  0  0  0  0  0  0  0  0  0  0
   37.3447   24.5863   39.3129 H   0  0  0  0  0  0  0  0  0  0  0  0
   40.4714   21.2909   38.7180 H   0  0  0  0  0  0  0  0  0  0  0  0
   41.1151   21.4166   37.0589 H   0  0  0  0  0  0  0  0  0  0  0  0
   42.0080   23.9035   36.4437 H   0  0  0  0  0  0  0  0  0  0  0  0
   42.5387   23.1656   34.8943 H   0  0  0  0  0  0  0  0  0  0  0  0
   41.7251   24.7671   34.8943 H   0  0  0  0  0  0  0  0  0  0  0  0
   39.2562   24.3693   33.9781 H   0  0  0  0  0  0  0  0  0  0  0  0
   40.6036   23.4930   33.1633 H   0  0  0  0  0  0  0  0  0  0  0  0
   35.9634   20.8169   33.0716 H   0  0  0  0  0  0  0  0  0  0  0  0
  1  9  1  0
  1  3  1  0
  2  3  2  0
  2  7  1  0
  3  4  1  0
  4  8  1  0
  4  5  2  0
  6  5  1  0
  7  6  2  0
 10  1  1  0
 11 15  1  0
 11 10  1  0
 12 11  2  0
 13 12  1  0
 13 14  1  0
 14 15  2  0
  1 16  1  1
  2 17  1  0
  6 18  1  0
  8 19  1  0
  8 20  1  0
  9 21  1  0
  9 22  1  0
  9 23  1  0
 10 24  1  0
 10 25  1  0
 14 26  1  0
M  ISO  8  16   8  17  14  18  14  21   8  22   8  23   8  24   8  25   8
M  ISO  1  26  14
M  END
>  <minimizedAffinity>  (1) 
-3.9822557

>  <minimizedRMSD>  (1) 
1.80174255

$$$$
