
     RDKit          3D

 31 34  0  0  0  0  0  0  0  0999 V2000
   40.0230   24.0950   33.9940 C   0  0  0  0  0  0  0  0  0  0  0  0
   40.8740   23.9770   32.9200 C   0  0  0  0  0  0  0  0  0  0  0  0
   40.3500   24.7390   31.8680 C   0  0  0  0  0  0  0  0  0  0  0  0
   39.2170   25.2910   32.3150 N   0  0  0  0  0  0  0  0  0  0  0  0
   39.0400   24.8990   33.5720 N   0  0  0  0  0  0  0  0  0  0  0  0
   35.0600   26.0400   30.4510 N   0  0  0  0  0  0  0  0  0  0  0  0
   35.1530   24.7790   30.9470 C   0  0  0  0  0  0  0  0  0  0  0  0
   36.3770   24.5980   31.4820 N   0  0  0  0  0  0  0  0  0  0  0  0
   37.0390   25.7520   31.3140 C   0  0  0  0  0  0  0  0  0  0  0  0
   38.3060   26.1430   31.6550 C   0  0  0  0  0  0  0  0  0  0  0  0
   38.7470   27.3890   31.3690 N   0  0  0  0  0  0  0  0  0  0  0  0
   37.9100   28.2600   30.7310 C   0  0  0  0  0  0  0  0  0  0  0  0
   36.6550   27.9380   30.3680 N   0  0  0  0  0  0  0  0  0  0  0  0
   36.2280   26.6790   30.6650 C   0  0  0  0  0  0  0  0  0  0  0  0
   41.2100   22.0140   36.7580 C   0  0  0  0  0  0  0  0  0  0  0  0
   40.3310   22.3900   37.8070 C   0  0  0  0  0  0  0  0  0  0  0  0
   39.3580   23.3530   37.5150 C   0  0  0  0  0  0  0  0  0  0  0  0
   39.3010   23.8710   36.2750 N   0  0  0  0  0  0  0  0  0  0  0  0
   40.1690   23.4760   35.2990 C   0  0  0  0  0  0  0  0  0  0  0  0
   41.1120   22.5550   35.5490 N   0  0  0  0  0  0  0  0  0  0  0  0
   38.4780   23.6970   38.6530 C   0  0  0  0  0  0  0  0  0  0  0  0
   37.8650   24.8870   38.4060 F   0  0  0  0  0  0  0  0  0  0  0  0
   39.2780   23.8780   39.7520 F   0  0  0  0  0  0  0  0  0  0  0  0
   37.5060   22.7290   38.8550 F   0  0  0  0  0  0  0  0  0  0  0  0
   41.8026   23.3880   32.8921 H   0  0  0  0  0  0  0  0  0  0  0  0
   40.7869   24.8602   30.8658 H   0  0  0  0  0  0  0  0  0  0  0  0
   34.2329   26.4423   29.9874 H   0  0  0  0  0  0  0  0  0  0  0  0
   34.3542   24.0234   30.9168 H   0  0  0  0  0  0  0  0  0  0  0  0
   38.2790   29.2710   30.5036 H   0  0  0  0  0  0  0  0  0  0  0  0
   41.9875   21.2599   36.9500 H   0  0  0  0  0  0  0  0  0  0  0  0
   40.4111   21.9428   38.8088 H   0  0  0  0  0  0  0  0  0  0  0  0
  1 19  1  0
  2  1  1  0
  3  4  1  0
  3  2  2  0
  4  5  1  0
  5  1  2  0
  6 14  1  0
  6  7  1  0
  7  8  2  0
  9  8  1  0
  9 10  2  0
 10  4  1  0
 11 10  1  0
 12 11  2  0
 13 14  2  0
 13 12  1  0
 14  9  1  0
 15 16  2  0
 17 16  1  0
 17 21  1  0
 18 17  2  0
 19 20  2  0
 19 18  1  0
 20 15  1  0
 21 24  1  0
 21 23  1  0
 22 21  1  0
  2 25  1  0
  3 26  1  0
  6 27  1  0
  7 28  1  0
 12 29  1  0
 15 30  1  0
 16 31  1  0
M  ISO  7  25  14  26  14  27   9  28  14  29  14  30  14  31  14
M  END
>  <minimizedAffinity>  (1) 
-5.8518548

>  <minimizedRMSD>  (1) 
2.29247832

$$$$
