
     RDKit          3D

 27 29  0  0  0  0  0  0  0  0999 V2000
   38.2920   24.0540   33.7020 C   0  0  0  0  0  0  0  0  0  0  0  0
   37.4420   23.3660   32.8650 C   0  0  0  0  0  0  0  0  0  0  0  0
   37.0740   24.2090   31.8350 C   0  0  0  0  0  0  0  0  0  0  0  0
   37.6910   25.3780   32.0540 N   0  0  0  0  0  0  0  0  0  0  0  0
   38.4130   25.2720   33.1680 N   0  0  0  0  0  0  0  0  0  0  0  0
   36.3440   27.8470   29.9590 N   0  0  0  0  0  0  0  0  0  0  0  0
   36.3340   26.7790   30.7220 N   0  0  0  0  0  0  0  0  0  0  0  0
   37.5670   26.5170   31.2090 C   0  0  0  0  0  0  0  0  0  0  0  0
   38.4190   27.4860   30.7190 C   0  0  0  0  0  0  0  0  0  0  0  0
   37.6130   28.2980   29.9440 C   0  0  0  0  0  0  0  0  0  0  0  0
   40.5800   22.3810   36.0260 C   0  0  0  0  0  0  0  0  0  0  0  0
   40.0010   22.6740   37.2790 C   0  0  0  0  0  0  0  0  0  0  0  0
   38.8360   23.4430   37.2810 C   0  0  0  0  0  0  0  0  0  0  0  0
   38.3170   23.8690   36.1020 N   0  0  0  0  0  0  0  0  0  0  0  0
   38.9240   23.5510   34.9190 C   0  0  0  0  0  0  0  0  0  0  0  0
   40.0400   22.8170   34.8890 N   0  0  0  0  0  0  0  0  0  0  0  0
   38.2760   23.7190   38.6230 C   0  0  0  0  0  0  0  0  0  0  0  0
   37.7310   24.9710   38.6290 F   0  0  0  0  0  0  0  0  0  0  0  0
   39.3350   23.7340   39.5080 F   0  0  0  0  0  0  0  0  0  0  0  0
   37.2950   22.8140   38.9730 F   0  0  0  0  0  0  0  0  0  0  0  0
   37.1129   22.3244   32.9946 H   0  0  0  0  0  0  0  0  0  0  0  0
   36.4039   23.9675   30.9968 H   0  0  0  0  0  0  0  0  0  0  0  0
   35.5384   28.2597   29.4675 H   0  0  0  0  0  0  0  0  0  0  0  0
   39.4984   27.5889   30.9040 H   0  0  0  0  0  0  0  0  0  0  0  0
   37.9584   29.1856   29.3937 H   0  0  0  0  0  0  0  0  0  0  0  0
   41.4993   21.7781   35.9872 H   0  0  0  0  0  0  0  0  0  0  0  0
   40.4493   22.3113   38.2158 H   0  0  0  0  0  0  0  0  0  0  0  0
  1 15  1  0
  2  1  1  0
  3  4  1  0
  3  2  2  0
  4  5  1  0
  5  1  2  0
  6  7  1  0
  7  8  2  0
  8  4  1  0
  9  8  1  0
 10  6  1  0
 10  9  2  0
 11 12  2  0
 12 13  1  0
 13 17  1  0
 14 13  2  0
 15 14  1  0
 16 15  2  0
 16 11  1  0
 17 18  1  0
 17 20  1  0
 17 19  1  0
  2 21  1  0
  3 22  1  0
  6 23  1  0
  9 24  1  0
 10 25  1  0
 11 26  1  0
 12 27  1  0
M  ISO  7  21  14  22  14  23   9  24  14  25  14  26  14  27  14
M  END
>  <minimizedAffinity>  (1) 
-5.68864059

>  <minimizedRMSD>  (1) 
1.82430482

$$$$
