
     RDKit          3D

 37 38  0  0  1  0  0  0  0  0999 V2000
   37.8170   22.2540   33.6060 C   0  0  2  0  0  0  0  0  0  0  0  0
   38.2430   24.7180   34.0350 C   0  0  0  0  0  0  0  0  0  0  0  0
   38.0230   23.4050   34.4790 C   0  0  0  0  0  0  0  0  0  0  0  0
   37.9610   23.2250   35.8710 C   0  0  0  0  0  0  0  0  0  0  0  0
   38.1110   24.2910   36.7150 N   0  0  0  0  0  0  0  0  0  0  0  0
   38.3200   25.5310   36.2140 C   0  0  0  0  0  0  0  0  0  0  0  0
   38.3830   25.7320   34.8910 N   0  0  0  0  0  0  0  0  0  0  0  0
   37.7650   21.9380   36.4870 N   0  0  0  0  0  0  0  0  0  0  0  0
   39.2090   21.7730   33.1560 C   0  0  0  0  0  0  0  0  0  0  0  0
   36.9520   22.6000   32.4350 C   0  0  0  0  0  0  0  0  0  0  0  0
   35.7230   21.7410   32.4530 C   0  0  0  0  0  0  0  0  0  0  0  0
   35.9070   20.6730   33.5020 C   0  0  0  0  0  0  0  0  0  0  0  0
   35.3780   19.3280   33.1230 C   0  0  0  0  0  0  0  0  0  0  0  0
   35.7860   18.8590   31.7610 C   0  0  0  0  0  0  0  0  0  0  0  0
   36.4370   19.9620   30.9580 C   0  0  0  0  0  0  0  0  0  0  0  0
   35.5410   21.1760   31.0550 C   0  0  0  0  0  0  0  0  0  0  0  0
   37.2888   21.4536   34.1449 H   0  0  0  0  0  0  0  0  0  0  0  0
   38.3015   24.9162   32.9546 H   0  0  0  0  0  0  0  0  0  0  0  0
   38.4393   26.3824   36.9002 H   0  0  0  0  0  0  0  0  0  0  0  0
   37.7267   21.8587   37.5132 H   0  0  0  0  0  0  0  0  0  0  0  0
   37.6631   21.0969   35.9013 H   0  0  0  0  0  0  0  0  0  0  0  0
   39.8269   21.5595   34.0407 H   0  0  0  0  0  0  0  0  0  0  0  0
   39.1039   20.8591   32.5529 H   0  0  0  0  0  0  0  0  0  0  0  0
   39.6906   22.5569   32.5529 H   0  0  0  0  0  0  0  0  0  0  0  0
   37.5089   22.4245   31.5027 H   0  0  0  0  0  0  0  0  0  0  0  0
   36.6610   23.6592   32.4932 H   0  0  0  0  0  0  0  0  0  0  0  0
   34.8139   22.3022   32.7151 H   0  0  0  0  0  0  0  0  0  0  0  0
   36.9836   20.5732   33.7042 H   0  0  0  0  0  0  0  0  0  0  0  0
   35.3300   20.9976   34.3804 H   0  0  0  0  0  0  0  0  0  0  0  0
   35.7401   18.5966   33.8605 H   0  0  0  0  0  0  0  0  0  0  0  0
   34.2818   19.4175   33.1065 H   0  0  0  0  0  0  0  0  0  0  0  0
   36.4997   18.0290   31.8694 H   0  0  0  0  0  0  0  0  0  0  0  0
   34.8810   18.5356   31.2259 H   0  0  0  0  0  0  0  0  0  0  0  0
   36.5397   19.6527   29.9074 H   0  0  0  0  0  0  0  0  0  0  0  0
   37.4413   20.1865   31.3466 H   0  0  0  0  0  0  0  0  0  0  0  0
   35.8327   21.9237   30.3028 H   0  0  0  0  0  0  0  0  0  0  0  0
   34.4902   20.9085   30.8696 H   0  0  0  0  0  0  0  0  0  0  0  0
  1  3  1  0
  2  3  2  0
  2  7  1  0
  3  4  1  0
  4  8  1  0
  4  5  2  0
  6  5  1  0
  7  6  2  0
  9  1  1  0
 10 11  1  0
 10  1  1  0
 11 12  1  0
 13 12  1  0
 14 13  1  0
 15 16  1  0
 15 14  1  0
 16 11  1  0
  1 17  1  1
  2 18  1  0
  6 19  1  0
  8 20  1  0
  8 21  1  0
  9 22  1  0
  9 23  1  0
  9 24  1  0
 10 25  1  0
 10 26  1  0
 11 27  1  0
 12 28  1  0
 12 29  1  0
 13 30  1  0
 13 31  1  0
 14 32  1  0
 14 33  1  0
 15 34  1  0
 15 35  1  0
 16 36  1  0
 16 37  1  0
M  ISO  8  17   8  18  14  19  14  22   8  23   8  24   8  25   8  26   8
M  ISO  8  27  13  28  13  29  13  30  13  31  13  32  13  33  13  34  13
M  ISO  3  35  13  36  13  37  13
M  END
>  <minimizedAffinity>  (1) 
-4.36990786

>  <minimizedRMSD>  (1) 
3.46069455

$$$$
