
     RDKit          3D

 44 46  0  0  1  0  0  0  0  0999 V2000
   37.6520   22.3570   34.3670 C   0  0  2  0  0  0  0  0  0  0  0  0
   36.8770   21.2180   35.0050 C   0  0  0  0  0  0  0  0  0  0  0  0
   35.6710   20.8450   34.2090 C   0  0  0  0  0  0  0  0  0  0  0  0
   36.0620   20.4360   32.8320 C   0  0  0  0  0  0  0  0  0  0  0  0
   37.4610   20.8280   32.4880 C   0  0  0  0  0  0  0  0  0  0  0  0
   37.6380   22.2900   32.8600 C   0  0  1  0  0  0  0  0  0  0  0  0
   36.7570   23.2150   32.1740 C   0  0  0  0  0  0  0  0  0  0  0  0
   35.7400   23.1330   31.2470 C   0  0  0  0  0  0  0  0  0  0  0  0
   35.2160   24.3470   30.9140 C   0  0  0  0  0  0  0  0  0  0  0  0
   35.9730   25.1960   31.6930 C   0  0  0  0  0  0  0  0  0  0  0  0
   36.8230   24.5210   32.3830 O   0  0  0  0  0  0  0  0  0  0  0  0
   39.0700   22.0800   34.7810 C   0  0  0  0  0  0  0  0  0  0  0  0
   39.4530   22.7440   36.0090 C   0  0  2  0  0  0  0  0  0  0  0  0
   40.0940   25.0000   35.0200 C   0  0  0  0  0  0  0  0  0  0  0  0
   39.3300   24.2070   35.8640 C   0  0  0  0  0  0  0  0  0  0  0  0
   38.3450   24.8680   36.6320 C   0  0  0  0  0  0  0  0  0  0  0  0
   38.1940   26.2230   36.5060 N   0  0  0  0  0  0  0  0  0  0  0  0
   38.9710   26.9260   35.6660 C   0  0  0  0  0  0  0  0  0  0  0  0
   39.9020   26.3170   34.9390 N   0  0  0  0  0  0  0  0  0  0  0  0
   37.4870   24.1780   37.5590 N   0  0  0  0  0  0  0  0  0  0  0  0
   40.8980   22.4260   36.3900 C   0  0  0  0  0  0  0  0  0  0  0  0
   37.2317   23.3280   34.6678 H   0  0  0  0  0  0  0  0  0  0  0  0
   37.5358   20.3406   35.0831 H   0  0  0  0  0  0  0  0  0  0  0  0
   36.5384   21.5522   35.9968 H   0  0  0  0  0  0  0  0  0  0  0  0
   35.1558   20.0079   34.7029 H   0  0  0  0  0  0  0  0  0  0  0  0
   35.0029   21.7165   34.1454 H   0  0  0  0  0  0  0  0  0  0  0  0
   35.9734   19.3425   32.7515 H   0  0  0  0  0  0  0  0  0  0  0  0
   35.3909   20.9522   32.1297 H   0  0  0  0  0  0  0  0  0  0  0  0
   38.1729   20.2090   33.0537 H   0  0  0  0  0  0  0  0  0  0  0  0
   37.6490   20.6791   31.4145 H   0  0  0  0  0  0  0  0  0  0  0  0
   38.5998   22.6669   32.4820 H   0  0  0  0  0  0  0  0  0  0  0  0
   35.3866   22.1834   30.8188 H   0  0  0  0  0  0  0  0  0  0  0  0
   34.4047   24.5856   30.2106 H   0  0  0  0  0  0  0  0  0  0  0  0
   35.8657   26.2904   31.7204 H   0  0  0  0  0  0  0  0  0  0  0  0
   39.1863   20.9951   34.9208 H   0  0  0  0  0  0  0  0  0  0  0  0
   39.7216   22.4702   33.9853 H   0  0  0  0  0  0  0  0  0  0  0  0
   38.7780   22.3772   36.7963 H   0  0  0  0  0  0  0  0  0  0  0  0
   40.8757   24.5317   34.4038 H   0  0  0  0  0  0  0  0  0  0  0  0
   38.8358   28.0142   35.5790 H   0  0  0  0  0  0  0  0  0  0  0  0
   36.7829   24.7026   38.0974 H   0  0  0  0  0  0  0  0  0  0  0  0
   37.5771   23.1596   37.6840 H   0  0  0  0  0  0  0  0  0  0  0  0
   40.9922   22.4053   37.4858 H   0  0  0  0  0  0  0  0  0  0  0  0
   41.1780   21.4447   35.9793 H   0  0  0  0  0  0  0  0  0  0  0  0
   41.5641   23.1990   35.9793 H   0  0  0  0  0  0  0  0  0  0  0  0
  1 12  1  0
  1  2  1  0
  3  2  1  0
  4  3  1  0
  5  4  1  0
  5  6  1  0
  6  1  1  0
  7 11  1  0
  7  6  1  0
  8  7  2  0
  9  8  1  0
  9 10  2  0
 10 11  1  0
 12 13  1  0
 13 21  1  0
 14 15  2  0
 15 13  1  0
 15 16  1  0
 16 20  1  0
 17 16  2  0
 18 17  1  0
 19 14  1  0
 19 18  2  0
  1 22  1  6
  2 23  1  0
  2 24  1  0
  3 25  1  0
  3 26  1  0
  4 27  1  0
  4 28  1  0
  5 29  1  0
  5 30  1  0
  6 31  1  6
  8 32  1  0
  9 33  1  0
 10 34  1  0
 12 35  1  0
 12 36  1  0
 13 37  1  1
 14 38  1  0
 18 39  1  0
 20 40  1  0
 20 41  1  0
 21 42  1  0
 21 43  1  0
 21 44  1  0
M  ISO  8  22  13  23  13  24  13  25  13  26  13  27  13  28  13  29  13
M  ISO  8  30  13  31  13  32  14  33  14  34  14  35   8  36   8  37   8
M  ISO  5  38  14  39  14  42   8  43   8  44   8
M  END
>  <minimizedAffinity>  (1) 
-5.00727654

>  <minimizedRMSD>  (1) 
3.13554502

$$$$
