
     RDKit          3D

 52 53  0  0  1  0  0  0  0  0999 V2000
   36.8420   21.5040   32.8540 C   0  0  0  0  0  0  0  0  0  0  0  0
   36.0880   22.0150   31.6460 C   0  0  0  0  0  0  0  0  0  0  0  0
   35.6560   23.4480   31.8140 C   0  0  0  0  0  0  0  0  0  0  0  0
   36.8700   24.3300   31.9180 C   0  0  0  0  0  0  0  0  0  0  0  0
   38.1190   23.5540   32.3070 C   0  0  0  0  0  0  0  0  0  0  0  0
   37.6630   22.6580   33.3970 C   0  0  0  0  0  0  0  0  0  0  0  0
   38.1380   22.6910   34.7180 N   0  0  0  0  0  0  0  0  0  0  0  0
   37.6460   23.0150   35.9580 C   0  0  0  0  0  0  0  0  0  0  0  0
   38.5410   22.8720   36.9530 N   0  0  0  0  0  0  0  0  0  0  0  0
   39.6930   22.4360   36.4120 C   0  0  0  0  0  0  0  0  0  0  0  0
   40.9320   22.1190   36.9140 C   0  0  0  0  0  0  0  0  0  0  0  0
   41.9090   21.6990   36.0880 N   0  0  0  0  0  0  0  0  0  0  0  0
   41.6670   21.5950   34.7670 C   0  0  0  0  0  0  0  0  0  0  0  0
   40.4600   21.9030   34.2640 N   0  0  0  0  0  0  0  0  0  0  0  0
   39.4200   22.3350   35.0390 C   0  0  0  0  0  0  0  0  0  0  0  0
   37.7710   20.4600   32.3080 C   0  0  0  0  0  0  0  0  0  0  0  0
   37.1520   19.6860   31.2450 C   0  0  2  0  0  0  0  0  0  0  0  0
   37.9670   17.3400   31.7500 C   0  0  0  0  0  0  0  0  0  0  0  0
   36.9540   18.2890   31.6560 C   0  0  0  0  0  0  0  0  0  0  0  0
   35.6460   17.8730   32.0050 C   0  0  0  0  0  0  0  0  0  0  0  0
   35.4420   16.5800   32.4130 N   0  0  0  0  0  0  0  0  0  0  0  0
   36.4680   15.7160   32.4810 C   0  0  0  0  0  0  0  0  0  0  0  0
   37.6990   16.0980   32.1550 N   0  0  0  0  0  0  0  0  0  0  0  0
   34.5100   18.7430   31.9390 N   0  0  0  0  0  0  0  0  0  0  0  0
   38.0180   19.6800   29.9730 C   0  0  0  0  0  0  0  0  0  0  0  0
   37.4091   22.3174   33.3302 H   0  0  0  0  0  0  0  0  0  0  0  0
   36.1692   21.1008   33.6252 H   0  0  0  0  0  0  0  0  0  0  0  0
   35.1952   21.3905   31.4946 H   0  0  0  0  0  0  0  0  0  0  0  0
   36.7622   21.9633   30.7783 H   0  0  0  0  0  0  0  0  0  0  0  0
   35.0543   23.7536   30.9453 H   0  0  0  0  0  0  0  0  0  0  0  0
   35.0541   23.5440   32.7297 H   0  0  0  0  0  0  0  0  0  0  0  0
   37.1079   24.5029   32.9780 H   0  0  0  0  0  0  0  0  0  0  0  0
   37.7228   23.8395   31.4260 H   0  0  0  0  0  0  0  0  0  0  0  0
   36.6670   25.2927   31.4260 H   0  0  0  0  0  0  0  0  0  0  0  0
   38.5775   24.4550   32.7406 H   0  0  0  0  0  0  0  0  0  0  0  0
   38.8593   23.0285   31.6859 H   0  0  0  0  0  0  0  0  0  0  0  0
   37.2584   23.8432   31.6859 H   0  0  0  0  0  0  0  0  0  0  0  0
   36.5770   22.8161   33.4717 H   0  0  0  0  0  0  0  0  0  0  0  0
   38.0865   21.7012   33.0577 H   0  0  0  0  0  0  0  0  0  0  0  0
   36.6146   23.3599   36.1233 H   0  0  0  0  0  0  0  0  0  0  0  0
   41.1263   22.2085   37.9930 H   0  0  0  0  0  0  0  0  0  0  0  0
   42.4665   21.2541   34.0927 H   0  0  0  0  0  0  0  0  0  0  0  0
   38.6688   20.9558   31.9103 H   0  0  0  0  0  0  0  0  0  0  0  0
   38.0279   19.7710   33.1261 H   0  0  0  0  0  0  0  0  0  0  0  0
   36.1838   20.1644   31.0358 H   0  0  0  0  0  0  0  0  0  0  0  0
   38.9988   17.6168   31.4878 H   0  0  0  0  0  0  0  0  0  0  0  0
   36.2880   14.6818   32.8098 H   0  0  0  0  0  0  0  0  0  0  0  0
   33.5778   18.3938   32.2035 H   0  0  0  0  0  0  0  0  0  0  0  0
   34.6253   19.7178   31.6270 H   0  0  0  0  0  0  0  0  0  0  0  0
   39.0816   19.6726   30.2536 H   0  0  0  0  0  0  0  0  0  0  0  0
   37.7895   18.7834   29.3781 H   0  0  0  0  0  0  0  0  0  0  0  0
   37.8019   20.5797   29.3781 H   0  0  0  0  0  0  0  0  0  0  0  0
  2  3  1  0
  2  1  1  0
  3  4  1  0
  5  6  1  0
  6  7  1  0
  7 15  1  0
  7  8  1  0
  8  9  2  0
 10 11  2  0
 10  9  1  0
 12 11  1  0
 13 12  2  0
 14 13  1  0
 14 15  2  0
 15 10  1  0
 16  1  1  0
 17 19  1  0
 17 16  1  0
 18 23  2  0
 19 18  1  0
 19 20  2  0
 20 21  1  0
 21 22  2  0
 23 22  1  0
 24 20  1  0
 25 17  1  0
  1 26  1  0
  1 27  1  0
  2 28  1  0
  2 29  1  0
  3 30  1  0
  3 31  1  0
  4 32  1  0
  4 33  1  0
  4 34  1  0
  5 35  1  0
  5 36  1  0
  5 37  1  0
  6 38  1  0
  6 39  1  0
  8 40  1  0
 11 41  1  0
 13 42  1  0
 16 43  1  0
 16 44  1  0
 17 45  1  6
 18 46  1  0
 22 47  1  0
 24 48  1  0
 24 49  1  0
 25 50  1  0
 25 51  1  0
 25 52  1  0
M  ISO  8  26   8  27   8  28   8  29   8  30   8  31   8  32   8  33   8
M  ISO  8  34   8  35   8  36   8  37   8  38   8  39   8  40  14  41  14
M  ISO  8  42  14  43   8  44   8  45   8  46  14  47  14  50   8  51   8
M  ISO  1  52   8
M  END
>  <minimizedAffinity>  (1) 
-5.11025572

>  <minimizedRMSD>  (1) 
7.61348104

$$$$
