
     RDKit          3D

 47 49  0  0  1  0  0  0  0  0999 V2000
   39.5330   22.0540   33.5400 C   0  0  2  0  0  0  0  0  0  0  0  0
   40.6590   21.1430   33.0730 C   0  0  0  0  0  0  0  0  0  0  0  0
   40.2500   20.2550   31.9480 C   0  0  0  0  0  0  0  0  0  0  0  0
   39.7880   21.0660   30.7850 C   0  0  0  0  0  0  0  0  0  0  0  0
   39.4990   22.4850   31.1540 C   0  0  0  0  0  0  0  0  0  0  0  0
   38.6390   22.4800   32.4110 C   0  0  1  0  0  0  0  0  0  0  0  0
   37.3460   21.8570   32.2930 C   0  0  0  0  0  0  0  0  0  0  0  0
   36.4480   21.8280   31.2490 C   0  0  0  0  0  0  0  0  0  0  0  0
   35.2240   21.2110   31.2520 C   0  0  0  0  0  0  0  0  0  0  0  0
   34.8050   20.5520   32.3650 C   0  0  0  0  0  0  0  0  0  0  0  0
   35.6360   20.5250   33.4660 C   0  0  0  0  0  0  0  0  0  0  0  0
   36.8580   21.1600   33.4120 C   0  0  0  0  0  0  0  0  0  0  0  0
   40.2540   23.2880   34.0080 C   0  0  0  0  0  0  0  0  0  0  0  0
   40.7940   23.1640   35.3480 C   0  0  2  0  0  0  0  0  0  0  0  0
   38.8700   24.5950   36.1980 C   0  0  0  0  0  0  0  0  0  0  0  0
   39.7880   23.5610   36.3540 C   0  0  0  0  0  0  0  0  0  0  0  0
   39.7280   22.8300   37.5600 C   0  0  0  0  0  0  0  0  0  0  0  0
   38.7870   23.1660   38.5010 N   0  0  0  0  0  0  0  0  0  0  0  0
   37.9320   24.1780   38.2790 C   0  0  0  0  0  0  0  0  0  0  0  0
   37.9750   24.8770   37.1490 N   0  0  0  0  0  0  0  0  0  0  0  0
   40.6240   21.7440   37.8580 N   0  0  0  0  0  0  0  0  0  0  0  0
   42.0210   24.0440   35.5330 C   0  0  0  0  0  0  0  0  0  0  0  0
   38.9073   21.5471   34.2894 H   0  0  0  0  0  0  0  0  0  0  0  0
   41.5018   21.7669   32.7406 H   0  0  0  0  0  0  0  0  0  0  0  0
   40.9392   20.4994   33.9199 H   0  0  0  0  0  0  0  0  0  0  0  0
   41.1087   19.6394   31.6420 H   0  0  0  0  0  0  0  0  0  0  0  0
   39.4235   19.6118   32.2844 H   0  0  0  0  0  0  0  0  0  0  0  0
   38.8705   20.6128   30.3814 H   0  0  0  0  0  0  0  0  0  0  0  0
   40.5977   21.0731   30.0404 H   0  0  0  0  0  0  0  0  0  0  0  0
   40.4408   23.0191   31.3484 H   0  0  0  0  0  0  0  0  0  0  0  0
   38.9718   22.9930   30.3330 H   0  0  0  0  0  0  0  0  0  0  0  0
   38.2672   23.4915   32.6316 H   0  0  0  0  0  0  0  0  0  0  0  0
   36.7408   22.3492   30.3256 H   0  0  0  0  0  0  0  0  0  0  0  0
   34.5838   21.2488   30.3583 H   0  0  0  0  0  0  0  0  0  0  0  0
   33.8256   20.0517   32.3871 H   0  0  0  0  0  0  0  0  0  0  0  0
   35.3251   19.9999   34.3812 H   0  0  0  0  0  0  0  0  0  0  0  0
   37.4961   21.1185   34.3071 H   0  0  0  0  0  0  0  0  0  0  0  0
   41.0835   23.4915   33.3149 H   0  0  0  0  0  0  0  0  0  0  0  0
   39.5194   24.1065   34.0275 H   0  0  0  0  0  0  0  0  0  0  0  0
   41.0733   22.1089   35.4853 H   0  0  0  0  0  0  0  0  0  0  0  0
   38.8814   25.1917   35.2740 H   0  0  0  0  0  0  0  0  0  0  0  0
   37.1842   24.4324   39.0446 H   0  0  0  0  0  0  0  0  0  0  0  0
   40.5420   21.2393   38.7521 H   0  0  0  0  0  0  0  0  0  0  0  0
   41.3472   21.4714   37.1772 H   0  0  0  0  0  0  0  0  0  0  0  0
   42.2143   24.1826   36.6070 H   0  0  0  0  0  0  0  0  0  0  0  0
   42.8914   23.5630   35.0629 H   0  0  0  0  0  0  0  0  0  0  0  0
   41.8446   25.0227   35.0629 H   0  0  0  0  0  0  0  0  0  0  0  0
  1 13  1  0
  2  1  1  0
  3  2  1  0
  4  5  1  0
  4  3  1  0
  5  6  1  0
  6  1  1  0
  7  6  1  0
  7 12  2  0
  8  9  2  0
  8  7  1  0
  9 10  1  0
 10 11  2  0
 12 11  1  0
 13 14  1  0
 14 22  1  0
 14 16  1  0
 15 16  2  0
 15 20  1  0
 16 17  1  0
 17 21  1  0
 17 18  2  0
 19 18  1  0
 20 19  2  0
  1 23  1  1
  2 24  1  0
  2 25  1  0
  3 26  1  0
  3 27  1  0
  4 28  1  0
  4 29  1  0
  5 30  1  0
  5 31  1  0
  6 32  1  1
  8 33  1  0
  9 34  1  0
 10 35  1  0
 11 36  1  0
 12 37  1  0
 13 38  1  0
 13 39  1  0
 14 40  1  1
 15 41  1  0
 19 42  1  0
 21 43  1  0
 21 44  1  0
 22 45  1  0
 22 46  1  0
 22 47  1  0
M  ISO  8  23  13  24  13  25  13  26  13  27  13  28  13  29  13  30  13
M  ISO  8  31  13  32  13  33  14  34  14  35  14  36  14  37  14  38   8
M  ISO  7  39   8  40   8  41  14  42  14  45   8  46   8  47   8
M  END
>  <minimizedAffinity>  (1) 
-5.2768836

>  <minimizedRMSD>  (1) 
3.68690658

$$$$
