
     RDKit          3D

 44 46  0  0  1  0  0  0  0  0999 V2000
   38.1780   24.4130   35.3940 C   0  0  2  0  0  0  0  0  0  0  0  0
   38.3080   25.1870   36.6920 C   0  0  0  0  0  0  0  0  0  0  0  0
   37.8600   24.4130   37.8900 C   0  0  0  0  0  0  0  0  0  0  0  0
   38.6280   23.1360   37.9860 C   0  0  0  0  0  0  0  0  0  0  0  0
   39.3850   22.8150   36.7460 C   0  0  0  0  0  0  0  0  0  0  0  0
   38.4550   22.9420   35.5760 C   0  0  1  0  0  0  0  0  0  0  0  0
   37.3340   22.0870   35.5580 N   0  0  0  0  0  0  0  0  0  0  0  0
   36.5470   21.7710   36.5770 N   0  0  0  0  0  0  0  0  0  0  0  0
   35.5740   20.9260   36.1900 C   0  0  0  0  0  0  0  0  0  0  0  0
   35.7510   20.6850   34.8360 C   0  0  0  0  0  0  0  0  0  0  0  0
   36.8630   21.4310   34.4790 C   0  0  0  0  0  0  0  0  0  0  0  0
   39.2650   24.9770   34.5460 C   0  0  0  0  0  0  0  0  0  0  0  0
   39.3220   26.4200   34.5440 C   0  0  2  0  0  0  0  0  0  0  0  0
   39.2800   26.8850   32.0460 C   0  0  0  0  0  0  0  0  0  0  0  0
   38.7100   26.9480   33.3150 C   0  0  0  0  0  0  0  0  0  0  0  0
   37.4390   27.5520   33.4110 C   0  0  0  0  0  0  0  0  0  0  0  0
   36.8330   28.0390   32.2830 N   0  0  0  0  0  0  0  0  0  0  0  0
   37.4410   27.9450   31.0890 C   0  0  0  0  0  0  0  0  0  0  0  0
   38.6390   27.3800   30.9730 N   0  0  0  0  0  0  0  0  0  0  0  0
   36.7400   27.6920   34.6680 N   0  0  0  0  0  0  0  0  0  0  0  0
   40.7650   26.9230   34.6090 C   0  0  0  0  0  0  0  0  0  0  0  0
   37.1626   24.5010   34.9802 H   0  0  0  0  0  0  0  0  0  0  0  0
   39.3639   25.4630   36.8296 H   0  0  0  0  0  0  0  0  0  0  0  0
   37.6558   26.0692   36.6118 H   0  0  0  0  0  0  0  0  0  0  0  0
   38.0327   25.0116   38.7966 H   0  0  0  0  0  0  0  0  0  0  0  0
   36.7882   24.1848   37.7939 H   0  0  0  0  0  0  0  0  0  0  0  0
   39.3407   23.2181   38.8198 H   0  0  0  0  0  0  0  0  0  0  0  0
   37.8999   22.3268   38.1443 H   0  0  0  0  0  0  0  0  0  0  0  0
   40.2242   23.5168   36.6311 H   0  0  0  0  0  0  0  0  0  0  0  0
   39.7841   21.7915   36.8016 H   0  0  0  0  0  0  0  0  0  0  0  0
   38.9531   22.5470   34.6783 H   0  0  0  0  0  0  0  0  0  0  0  0
   34.7844   20.5044   36.8294 H   0  0  0  0  0  0  0  0  0  0  0  0
   35.1407   20.0409   34.1858 H   0  0  0  0  0  0  0  0  0  0  0  0
   37.2954   21.4802   33.4688 H   0  0  0  0  0  0  0  0  0  0  0  0
   40.2269   24.5937   34.9172 H   0  0  0  0  0  0  0  0  0  0  0  0
   39.0546   24.6662   33.5120 H   0  0  0  0  0  0  0  0  0  0  0  0
   38.7747   26.7693   35.4320 H   0  0  0  0  0  0  0  0  0  0  0  0
   40.2702   26.4230   31.9196 H   0  0  0  0  0  0  0  0  0  0  0  0
   36.9402   28.3415   30.1935 H   0  0  0  0  0  0  0  0  0  0  0  0
   35.8127   28.1396   34.6946 H   0  0  0  0  0  0  0  0  0  0  0  0
   37.1691   27.3442   35.5374 H   0  0  0  0  0  0  0  0  0  0  0  0
   41.0693   27.0291   35.6607 H   0  0  0  0  0  0  0  0  0  0  0  0
   41.4274   26.2027   34.1065 H   0  0  0  0  0  0  0  0  0  0  0  0
   40.8361   27.8989   34.1065 H   0  0  0  0  0  0  0  0  0  0  0  0
  1  6  1  0
  1  2  1  0
  2  3  1  0
  3  4  1  0
  5  4  1  0
  6  5  1  0
  7  6  1  0
  7  8  1  0
  9  8  2  0
 10  9  1  0
 11 10  2  0
 11  7  1  0
 12  1  1  0
 13 12  1  0
 13 21  1  0
 14 15  2  0
 15 16  1  0
 15 13  1  0
 16 20  1  0
 17 16  2  0
 18 17  1  0
 19 18  2  0
 19 14  1  0
  1 22  1  6
  2 23  1  0
  2 24  1  0
  3 25  1  0
  3 26  1  0
  4 27  1  0
  4 28  1  0
  5 29  1  0
  5 30  1  0
  6 31  1  6
  9 32  1  0
 10 33  1  0
 11 34  1  0
 12 35  1  0
 12 36  1  0
 13 37  1  1
 14 38  1  0
 18 39  1  0
 20 40  1  0
 20 41  1  0
 21 42  1  0
 21 43  1  0
 21 44  1  0
M  ISO  8  22  13  23  13  24  13  25  13  26  13  27  13  28  13  29  13
M  ISO  8  30  13  31  13  32  14  33  14  34  14  35   8  36   8  37   8
M  ISO  5  38  14  39  14  42   8  43   8  44   8
M  END
>  <minimizedAffinity>  (1) 
-5.26767874

>  <minimizedRMSD>  (1) 
5.80293369

$$$$
