
     RDKit          3D

 47 49  0  0  1  0  0  0  0  0999 V2000
   36.9490   22.1030   32.7400 C   0  0  2  0  0  0  0  0  0  0  0  0
   35.7940   22.1930   31.7550 C   0  0  0  0  0  0  0  0  0  0  0  0
   35.3920   23.6050   31.4580 C   0  0  0  0  0  0  0  0  0  0  0  0
   36.5650   24.3550   30.8950 C   0  0  0  0  0  0  0  0  0  0  0  0
   37.8650   23.6600   31.1560 C   0  0  0  0  0  0  0  0  0  0  0  0
   37.9360   23.2240   32.5670 C   0  0  1  0  0  0  0  0  0  0  0  0
   38.0020   24.1920   33.5940 N   0  0  0  0  0  0  0  0  0  0  0  0
   37.4660   25.4230   33.5120 C   0  0  0  0  0  0  0  0  0  0  0  0
   37.5280   26.3710   34.5100 C   0  0  0  0  0  0  0  0  0  0  0  0
   38.1750   26.0730   35.6930 C   0  0  0  0  0  0  0  0  0  0  0  0
   38.2690   26.8830   36.6410 O   0  0  0  0  0  0  0  0  0  0  0  0
   38.7060   24.8400   35.7620 N   0  0  0  0  0  0  0  0  0  0  0  0
   38.6270   23.9390   34.7660 C   0  0  0  0  0  0  0  0  0  0  0  0
   39.1770   22.8030   34.9650 O   0  0  0  0  0  0  0  0  0  0  0  0
   37.6090   20.8280   32.3600 C   0  0  0  0  0  0  0  0  0  0  0  0
   36.9570   20.0940   31.3060 C   0  0  2  0  0  0  0  0  0  0  0  0
   37.9760   17.7990   31.7290 C   0  0  0  0  0  0  0  0  0  0  0  0
   36.8850   18.6660   31.6660 C   0  0  0  0  0  0  0  0  0  0  0  0
   35.6280   18.1160   31.9900 C   0  0  0  0  0  0  0  0  0  0  0  0
   35.5340   16.7950   32.3430 N   0  0  0  0  0  0  0  0  0  0  0  0
   36.6310   16.0230   32.3810 C   0  0  0  0  0  0  0  0  0  0  0  0
   37.8250   16.5250   32.0770 N   0  0  0  0  0  0  0  0  0  0  0  0
   34.4110   18.8940   31.9590 N   0  0  0  0  0  0  0  0  0  0  0  0
   37.6850   20.2160   29.9800 C   0  0  0  0  0  0  0  0  0  0  0  0
   36.6000   22.1580   33.7817 H   0  0  0  0  0  0  0  0  0  0  0  0
   36.0957   21.7085   30.8147 H   0  0  0  0  0  0  0  0  0  0  0  0
   34.9285   21.6921   32.2134 H   0  0  0  0  0  0  0  0  0  0  0  0
   34.5713   23.6056   30.7255 H   0  0  0  0  0  0  0  0  0  0  0  0
   35.0579   24.0925   32.3857 H   0  0  0  0  0  0  0  0  0  0  0  0
   36.5996   25.3536   31.3550 H   0  0  0  0  0  0  0  0  0  0  0  0
   36.4311   24.4179   29.8050 H   0  0  0  0  0  0  0  0  0  0  0  0
   37.9454   22.7811   30.4995 H   0  0  0  0  0  0  0  0  0  0  0  0
   38.6918   24.3567   30.9533 H   0  0  0  0  0  0  0  0  0  0  0  0
   38.9590   22.8593   32.7418 H   0  0  0  0  0  0  0  0  0  0  0  0
   36.9415   25.6917   32.5832 H   0  0  0  0  0  0  0  0  0  0  0  0
   37.0653   27.3584   34.3654 H   0  0  0  0  0  0  0  0  0  0  0  0
   39.2003   24.5703   36.6244 H   0  0  0  0  0  0  0  0  0  0  0  0
   38.6332   21.0589   32.0317 H   0  0  0  0  0  0  0  0  0  0  0  0
   37.5699   20.1847   33.2514 H   0  0  0  0  0  0  0  0  0  0  0  0
   35.9516   20.5248   31.1897 H   0  0  0  0  0  0  0  0  0  0  0  0
   38.9802   18.1767   31.4861 H   0  0  0  0  0  0  0  0  0  0  0  0
   36.5421   14.9644   32.6664 H   0  0  0  0  0  0  0  0  0  0  0  0
   33.5122   18.4541   32.2029 H   0  0  0  0  0  0  0  0  0  0  0  0
   34.4422   19.8886   31.6930 H   0  0  0  0  0  0  0  0  0  0  0  0
   38.7546   20.3952   30.1641 H   0  0  0  0  0  0  0  0  0  0  0  0
   37.5625   19.2848   29.4074 H   0  0  0  0  0  0  0  0  0  0  0  0
   37.2656   21.0564   29.4074 H   0  0  0  0  0  0  0  0  0  0  0  0
  2  1  1  0
  3  2  1  0
  4  5  1  0
  4  3  1  0
  5  6  1  0
  6  1  1  0
  6  7  1  0
  7 13  1  0
  8  7  1  0
  8  9  2  0
  9 10  1  0
 10 12  1  0
 10 11  2  0
 13 14  2  0
 13 12  1  0
 15  1  1  0
 16 18  1  0
 16 15  1  0
 17 22  2  0
 18 17  1  0
 18 19  2  0
 19 20  1  0
 20 21  2  0
 22 21  1  0
 23 19  1  0
 24 16  1  0
  1 25  1  1
  2 26  1  0
  2 27  1  0
  3 28  1  0
  3 29  1  0
  4 30  1  0
  4 31  1  0
  5 32  1  0
  5 33  1  0
  6 34  1  6
  8 35  1  0
  9 36  1  0
 12 37  1  0
 15 38  1  0
 15 39  1  0
 16 40  1  6
 17 41  1  0
 21 42  1  0
 23 43  1  0
 23 44  1  0
 24 45  1  0
 24 46  1  0
 24 47  1  0
M  ISO  8  25  13  26  13  27  13  28  13  29  13  30  13  31  13  32  13
M  ISO  8  33  13  34  13  35  14  36  14  37   9  38   8  39   8  40   8
M  ISO  5  41  14  42  14  45   8  46   8  47   8
M  END
>  <minimizedAffinity>  (1) 
-5.37776279

>  <minimizedRMSD>  (1) 
6.96518898

$$$$
