
     RDKit          3D

 44 46  0  0  1  0  0  0  0  0999 V2000
   37.7350   22.3910   34.2550 C   0  0  2  0  0  0  0  0  0  0  0  0
   36.9160   21.2950   34.9140 C   0  0  0  0  0  0  0  0  0  0  0  0
   35.7140   20.9500   34.0930 C   0  0  0  0  0  0  0  0  0  0  0  0
   36.1320   20.4540   32.7540 C   0  0  0  0  0  0  0  0  0  0  0  0
   37.5560   20.8020   32.4320 C   0  0  0  0  0  0  0  0  0  0  0  0
   37.7550   22.2550   32.7440 C   0  0  1  0  0  0  0  0  0  0  0  0
   36.7980   23.1080   32.0430 C   0  0  0  0  0  0  0  0  0  0  0  0
   36.8650   24.4870   32.2920 C   0  0  0  0  0  0  0  0  0  0  0  0
   35.8870   25.1570   31.5460 C   0  0  0  0  0  0  0  0  0  0  0  0
   35.2550   24.1810   30.8690 N   0  0  0  0  0  0  0  0  0  0  0  0
   35.7890   23.0350   31.1680 N   0  0  0  0  0  0  0  0  0  0  0  0
   39.1350   22.1020   34.7140 C   0  0  0  0  0  0  0  0  0  0  0  0
   39.4610   22.7540   35.9740 C   0  0  2  0  0  0  0  0  0  0  0  0
   40.1060   25.0180   35.0050 C   0  0  0  0  0  0  0  0  0  0  0  0
   39.3390   24.2170   35.8390 C   0  0  0  0  0  0  0  0  0  0  0  0
   38.3390   24.8650   36.6060 C   0  0  0  0  0  0  0  0  0  0  0  0
   38.1850   26.2220   36.4880 N   0  0  0  0  0  0  0  0  0  0  0  0
   38.9660   26.9310   35.6580 C   0  0  0  0  0  0  0  0  0  0  0  0
   39.9120   26.3330   34.9300 N   0  0  0  0  0  0  0  0  0  0  0  0
   37.4800   24.1620   37.5230 N   0  0  0  0  0  0  0  0  0  0  0  0
   40.8930   22.4380   36.4090 C   0  0  0  0  0  0  0  0  0  0  0  0
   37.3333   23.3832   34.5083 H   0  0  0  0  0  0  0  0  0  0  0  0
   37.5425   20.3980   35.0275 H   0  0  0  0  0  0  0  0  0  0  0  0
   36.5754   21.6569   35.8953 H   0  0  0  0  0  0  0  0  0  0  0  0
   35.1358   20.1675   34.6062 H   0  0  0  0  0  0  0  0  0  0  0  0
   35.0957   21.8508   33.9653 H   0  0  0  0  0  0  0  0  0  0  0  0
   36.0227   19.3596   32.7331 H   0  0  0  0  0  0  0  0  0  0  0  0
   35.4910   20.9384   32.0026 H   0  0  0  0  0  0  0  0  0  0  0  0
   37.7543   20.6177   31.3658 H   0  0  0  0  0  0  0  0  0  0  0  0
   38.2460   20.1838   33.0251 H   0  0  0  0  0  0  0  0  0  0  0  0
   38.7257   22.6133   32.3707 H   0  0  0  0  0  0  0  0  0  0  0  0
   37.5805   24.9710   32.9731 H   0  0  0  0  0  0  0  0  0  0  0  0
   35.6819   26.2374   31.5196 H   0  0  0  0  0  0  0  0  0  0  0  0
   34.4707   24.3205   30.2160 H   0  0  0  0  0  0  0  0  0  0  0  0
   39.2458   21.0151   34.8417 H   0  0  0  0  0  0  0  0  0  0  0  0
   39.8220   22.4950   33.9501 H   0  0  0  0  0  0  0  0  0  0  0  0
   38.7554   22.3753   36.7281 H   0  0  0  0  0  0  0  0  0  0  0  0
   40.8930   24.5555   34.3912 H   0  0  0  0  0  0  0  0  0  0  0  0
   38.8248   28.0189   35.5765 H   0  0  0  0  0  0  0  0  0  0  0  0
   36.7671   24.6773   38.0589 H   0  0  0  0  0  0  0  0  0  0  0  0
   37.5784   23.1438   37.6432 H   0  0  0  0  0  0  0  0  0  0  0  0
   40.9483   22.4258   37.5075 H   0  0  0  0  0  0  0  0  0  0  0  0
   41.1867   21.4534   36.0161 H   0  0  0  0  0  0  0  0  0  0  0  0
   41.5738   23.2075   36.0161 H   0  0  0  0  0  0  0  0  0  0  0  0
  1 12  1  0
  1  2  1  0
  3  2  1  0
  4  3  1  0
  5  6  1  0
  5  4  1  0
  6  1  1  0
  7  8  1  0
  7  6  1  0
  9  8  2  0
 10 11  1  0
 10  9  1  0
 11  7  2  0
 12 13  1  0
 13 21  1  0
 14 15  2  0
 15 13  1  0
 15 16  1  0
 16 20  1  0
 17 16  2  0
 18 17  1  0
 19 14  1  0
 19 18  2  0
  1 22  1  6
  2 23  1  0
  2 24  1  0
  3 25  1  0
  3 26  1  0
  4 27  1  0
  4 28  1  0
  5 29  1  0
  5 30  1  0
  6 31  1  6
  8 32  1  0
  9 33  1  0
 10 34  1  0
 12 35  1  0
 12 36  1  0
 13 37  1  1
 14 38  1  0
 18 39  1  0
 20 40  1  0
 20 41  1  0
 21 42  1  0
 21 43  1  0
 21 44  1  0
M  ISO  8  22  13  23  13  24  13  25  13  26  13  27  13  28  13  29  13
M  ISO  8  30  13  31  13  32  14  33  14  34   9  35   8  36   8  37   8
M  ISO  5  38  14  39  14  42   8  43   8  44   8
M  END
>  <minimizedAffinity>  (1) 
-4.81705332

>  <minimizedRMSD>  (1) 
3.04516649

$$$$
