
     RDKit          3D

 44 46  0  0  1  0  0  0  0  0999 V2000
   37.6090   22.3570   34.3880 C   0  0  2  0  0  0  0  0  0  0  0  0
   36.8990   21.2270   35.1120 C   0  0  0  0  0  0  0  0  0  0  0  0
   35.6380   20.8060   34.4190 C   0  0  0  0  0  0  0  0  0  0  0  0
   35.9520   20.3400   33.0410 C   0  0  0  0  0  0  0  0  0  0  0  0
   37.2880   20.8180   32.5710 C   0  0  0  0  0  0  0  0  0  0  0  0
   37.4850   22.2460   32.8850 C   0  0  1  0  0  0  0  0  0  0  0  0
   36.6990   23.2620   32.2110 C   0  0  0  0  0  0  0  0  0  0  0  0
   36.9100   24.6490   32.3540 C   0  0  0  0  0  0  0  0  0  0  0  0
   36.0370   25.3980   31.6140 N   0  0  0  0  0  0  0  0  0  0  0  0
   35.2720   24.4890   30.9990 C   0  0  0  0  0  0  0  0  0  0  0  0
   35.6630   23.2500   31.3530 N   0  0  0  0  0  0  0  0  0  0  0  0
   39.0400   22.1540   34.7420 C   0  0  0  0  0  0  0  0  0  0  0  0
   39.4340   22.8150   35.9720 C   0  0  2  0  0  0  0  0  0  0  0  0
   40.0970   25.0460   34.9480 C   0  0  0  0  0  0  0  0  0  0  0  0
   39.3290   24.2760   35.8190 C   0  0  0  0  0  0  0  0  0  0  0  0
   38.3600   24.9510   36.5940 C   0  0  0  0  0  0  0  0  0  0  0  0
   38.2190   26.3080   36.4590 N   0  0  0  0  0  0  0  0  0  0  0  0
   38.9920   26.9940   35.6000 C   0  0  0  0  0  0  0  0  0  0  0  0
   39.9080   26.3720   34.8640 N   0  0  0  0  0  0  0  0  0  0  0  0
   37.5130   24.2760   37.5450 N   0  0  0  0  0  0  0  0  0  0  0  0
   40.8870   22.4850   36.3400 C   0  0  0  0  0  0  0  0  0  0  0  0
   37.1878   23.3323   34.6734 H   0  0  0  0  0  0  0  0  0  0  0  0
   37.5768   20.3624   35.1677 H   0  0  0  0  0  0  0  0  0  0  0  0
   36.6254   21.5906   36.1135 H   0  0  0  0  0  0  0  0  0  0  0  0
   35.1671   19.9874   34.9830 H   0  0  0  0  0  0  0  0  0  0  0  0
   34.9498   21.6624   34.3650 H   0  0  0  0  0  0  0  0  0  0  0  0
   35.9458   19.2401   33.0296 H   0  0  0  0  0  0  0  0  0  0  0  0
   35.1896   20.7532   32.3642 H   0  0  0  0  0  0  0  0  0  0  0  0
   37.3566   20.6774   31.4822 H   0  0  0  0  0  0  0  0  0  0  0  0
   38.0668   20.2374   33.0872 H   0  0  0  0  0  0  0  0  0  0  0  0
   38.4175   22.5511   32.3877 H   0  0  0  0  0  0  0  0  0  0  0  0
   37.6935   25.0825   32.9929 H   0  0  0  0  0  0  0  0  0  0  0  0
   34.4476   24.7191   30.3081 H   0  0  0  0  0  0  0  0  0  0  0  0
   35.2181   22.3885   31.0053 H   0  0  0  0  0  0  0  0  0  0  0  0
   39.2207   21.0747   34.8540 H   0  0  0  0  0  0  0  0  0  0  0  0
   39.6384   22.5968   33.9321 H   0  0  0  0  0  0  0  0  0  0  0  0
   38.7612   22.4569   36.7651 H   0  0  0  0  0  0  0  0  0  0  0  0
   40.8640   24.5634   34.3245 H   0  0  0  0  0  0  0  0  0  0  0  0
   38.8654   28.0825   35.5047 H   0  0  0  0  0  0  0  0  0  0  0  0
   36.8201   24.8108   38.0879 H   0  0  0  0  0  0  0  0  0  0  0  0
   37.6006   23.2589   37.6817 H   0  0  0  0  0  0  0  0  0  0  0  0
   40.9916   22.4612   37.4348 H   0  0  0  0  0  0  0  0  0  0  0  0
   41.1565   21.5028   35.9245 H   0  0  0  0  0  0  0  0  0  0  0  0
   41.5543   23.2545   35.9245 H   0  0  0  0  0  0  0  0  0  0  0  0
  1 12  1  0
  1  2  1  0
  3  2  1  0
  4  3  1  0
  5  6  1  0
  5  4  1  0
  6  1  1  0
  7  8  2  0
  7  6  1  0
  9  8  1  0
 10 11  1  0
 10  9  2  0
 11  7  1  0
 12 13  1  0
 13 21  1  0
 14 15  2  0
 15 13  1  0
 15 16  1  0
 16 20  1  0
 17 16  2  0
 18 17  1  0
 19 14  1  0
 19 18  2  0
  1 22  1  1
  2 23  1  0
  2 24  1  0
  3 25  1  0
  3 26  1  0
  4 27  1  0
  4 28  1  0
  5 29  1  0
  5 30  1  0
  6 31  1  6
  8 32  1  0
 10 33  1  0
 11 34  1  0
 12 35  1  0
 12 36  1  0
 13 37  1  1
 14 38  1  0
 18 39  1  0
 20 40  1  0
 20 41  1  0
 21 42  1  0
 21 43  1  0
 21 44  1  0
M  ISO  8  22  13  23  13  24  13  25  13  26  13  27  13  28  13  29  13
M  ISO  8  30  13  31  13  32  14  33  14  34   9  35   8  36   8  37   8
M  ISO  5  38  14  39  14  42   8  43   8  44   8
M  END
>  <minimizedAffinity>  (1) 
-4.94609976

>  <minimizedRMSD>  (1) 
3.13316321

$$$$
