
     RDKit          3D

 44 45  0  0  1  0  0  0  0  0999 V2000
   37.7220   21.2350   33.3290 C   0  0  2  0  0  0  0  0  0  0  0  0
   39.1760   21.3090   32.9130 C   0  0  0  0  0  0  0  0  0  0  0  0
   39.4100   20.5210   31.6610 C   0  0  0  0  0  0  0  0  0  0  0  0
   38.5960   21.1120   30.5360 C   0  0  0  0  0  0  0  0  0  0  0  0
   37.4630   21.9570   31.0390 C   0  0  0  0  0  0  0  0  0  0  0  0
   36.7840   21.1620   32.1440 C   0  0  1  0  0  0  0  0  0  0  0  0
   36.5010   19.8170   31.7430 N   0  0  0  0  0  0  0  0  0  0  0  0
   35.1640   19.3660   31.9900 C   0  0  0  0  0  0  0  0  0  0  0  0
   34.1460   20.1590   31.9590 N   0  0  0  0  0  0  0  0  0  0  0  0
   34.8130   18.0000   32.2940 N   0  0  0  0  0  0  0  0  0  0  0  0
   34.1720   21.1620   31.7630 H   0  0  0  0  0  0  0  0  0  0  0  0
   37.4630   22.5180   34.0300 C   0  0  0  0  0  0  0  0  0  0  0  0
   38.6840   23.1530   34.4940 C   0  0  2  0  0  0  0  0  0  0  0  0
   37.7090   23.9790   36.6850 C   0  0  0  0  0  0  0  0  0  0  0  0
   38.6790   23.3080   35.9520 C   0  0  0  0  0  0  0  0  0  0  0  0
   39.7340   22.7170   36.6850 C   0  0  0  0  0  0  0  0  0  0  0  0
   39.7700   22.8180   38.0470 N   0  0  0  0  0  0  0  0  0  0  0  0
   38.7900   23.4860   38.6880 C   0  0  0  0  0  0  0  0  0  0  0  0
   37.7810   24.0540   38.0170 N   0  0  0  0  0  0  0  0  0  0  0  0
   40.8190   21.9980   36.0470 N   0  0  0  0  0  0  0  0  0  0  0  0
   38.8450   24.5460   33.8680 C   0  0  0  0  0  0  0  0  0  0  0  0
   37.5494   20.3356   33.9383 H   0  0  0  0  0  0  0  0  0  0  0  0
   39.4472   22.3599   32.7340 H   0  0  0  0  0  0  0  0  0  0  0  0
   39.7956   20.8862   33.7176 H   0  0  0  0  0  0  0  0  0  0  0  0
   40.4778   20.5568   31.3992 H   0  0  0  0  0  0  0  0  0  0  0  0
   39.1074   19.4759   31.8232 H   0  0  0  0  0  0  0  0  0  0  0  0
   38.1842   20.2927   29.9284 H   0  0  0  0  0  0  0  0  0  0  0  0
   39.2600   21.7568   29.9416 H   0  0  0  0  0  0  0  0  0  0  0  0
   37.8466   22.9081   31.4367 H   0  0  0  0  0  0  0  0  0  0  0  0
   36.7564   22.1947   30.2302 H   0  0  0  0  0  0  0  0  0  0  0  0
   35.7986   21.5801   32.3973 H   0  0  0  0  0  0  0  0  0  0  0  0
   37.2119   19.2135   31.3057 H   0  0  0  0  0  0  0  0  0  0  0  0
   33.8288   17.7461   32.4609 H   0  0  0  0  0  0  0  0  0  0  0  0
   35.5466   17.2787   32.3442 H   0  0  0  0  0  0  0  0  0  0  0  0
   36.9508   23.2017   33.3371 H   0  0  0  0  0  0  0  0  0  0  0  0
   36.8436   22.2985   34.9121 H   0  0  0  0  0  0  0  0  0  0  0  0
   39.5186   22.5031   34.1922 H   0  0  0  0  0  0  0  0  0  0  0  0
   36.8680   24.4563   36.1607 H   0  0  0  0  0  0  0  0  0  0  0  0
   38.8204   23.5658   39.7847 H   0  0  0  0  0  0  0  0  0  0  0  0
   41.5681   21.5825   36.6190 H   0  0  0  0  0  0  0  0  0  0  0  0
   40.8409   21.9026   35.0217 H   0  0  0  0  0  0  0  0  0  0  0  0
   38.9320   25.2986   34.6655 H   0  0  0  0  0  0  0  0  0  0  0  0
   39.7514   24.5655   33.2450 H   0  0  0  0  0  0  0  0  0  0  0  0
   37.9670   24.7717   33.2450 H   0  0  0  0  0  0  0  0  0  0  0  0
  1 12  1  0
  2  1  1  0
  3  2  1  0
  4  5  1  0
  4  3  1  0
  5  6  1  0
  6  1  1  0
  7  8  1  0
  7  6  1  0
  8 10  1  0
  9  8  2  0
 11  9  1  0
 12 13  1  0
 13 15  1  0
 14 19  2  0
 15 16  2  0
 15 14  1  0
 16 17  1  0
 17 18  2  0
 19 18  1  0
 20 16  1  0
 21 13  1  0
  1 22  1  1
  2 23  1  0
  2 24  1  0
  3 25  1  0
  3 26  1  0
  4 27  1  0
  4 28  1  0
  5 29  1  0
  5 30  1  0
  6 31  1  1
  7 32  1  0
 10 33  1  0
 10 34  1  0
 12 35  1  0
 12 36  1  0
 13 37  1  1
 14 38  1  0
 18 39  1  0
 20 40  1  0
 20 41  1  0
 21 42  1  0
 21 43  1  0
 21 44  1  0
M  ISO  8  22  13  23  13  24  13  25  13  26  13  27  13  28  13  29  13
M  ISO  8  30  13  31  13  35   8  36   8  37   8  38  14  39  14  42   8
M  ISO  2  43   8  44   8
M  END
>  <minimizedAffinity>  (1) 
-4.61792469

>  <minimizedRMSD>  (1) 
2.81851268

$$$$
