
     RDKit          3D

 33 35  0  0  0  0  0  0  0  0999 V2000
   40.1810   22.5810   35.5820 C   0  0  0  0  0  0  0  0  0  0  0  0
   39.7590   22.7650   36.9180 C   0  0  0  0  0  0  0  0  0  0  0  0
   38.6550   23.5890   37.1350 C   0  0  0  0  0  0  0  0  0  0  0  0
   38.0470   24.1650   36.0720 N   0  0  0  0  0  0  0  0  0  0  0  0
   38.4940   23.9550   34.7990 C   0  0  0  0  0  0  0  0  0  0  0  0
   39.5490   23.1700   34.5700 N   0  0  0  0  0  0  0  0  0  0  0  0
   37.7680   24.6240   33.7240 C   0  0  0  0  0  0  0  0  0  0  0  0
   37.3520   24.0690   32.5370 C   0  0  0  0  0  0  0  0  0  0  0  0
   36.7000   25.0680   31.8120 C   0  0  0  0  0  0  0  0  0  0  0  0
   36.7360   26.1750   32.5580 N   0  0  0  0  0  0  0  0  0  0  0  0
   37.3750   25.9050   33.6980 N   0  0  0  0  0  0  0  0  0  0  0  0
   36.1630   27.4410   32.1560 C   0  0  0  0  0  0  0  0  0  0  0  0
   36.3350   28.4980   33.2380 C   0  0  0  0  0  0  0  0  0  0  0  0
   35.8560   29.7280   32.4950 C   0  0  0  0  0  0  0  0  0  0  0  0
   36.2490   29.4740   31.0420 C   0  0  0  0  0  0  0  0  0  0  0  0
   36.9220   28.0990   31.0440 C   0  0  0  0  0  0  0  0  0  0  0  0
   38.2740   23.7340   38.5460 C   0  0  0  0  0  0  0  0  0  0  0  0
   37.7980   25.0080   38.7530 F   0  0  0  0  0  0  0  0  0  0  0  0
   39.4100   23.6140   39.3030 F   0  0  0  0  0  0  0  0  0  0  0  0
   37.2890   22.8500   38.9190 F   0  0  0  0  0  0  0  0  0  0  0  0
   41.0491   21.9381   35.3745 H   0  0  0  0  0  0  0  0  0  0  0  0
   40.2810   22.2772   37.7544 H   0  0  0  0  0  0  0  0  0  0  0  0
   37.5050   23.0278   32.2170 H   0  0  0  0  0  0  0  0  0  0  0  0
   36.2438   24.9633   30.8165 H   0  0  0  0  0  0  0  0  0  0  0  0
   35.1253   27.1771   31.9041 H   0  0  0  0  0  0  0  0  0  0  0  0
   35.7099   28.2850   34.1177 H   0  0  0  0  0  0  0  0  0  0  0  0
   37.3529   28.5754   33.6477 H   0  0  0  0  0  0  0  0  0  0  0  0
   34.7657   29.8391   32.5892 H   0  0  0  0  0  0  0  0  0  0  0  0
   36.2968   30.6544   32.8917 H   0  0  0  0  0  0  0  0  0  0  0  0
   36.9495   30.2461   30.6910 H   0  0  0  0  0  0  0  0  0  0  0  0
   35.3796   29.5058   30.3689 H   0  0  0  0  0  0  0  0  0  0  0  0
   36.7819   27.5743   30.0874 H   0  0  0  0  0  0  0  0  0  0  0  0
   38.0140   28.1173   31.1751 H   0  0  0  0  0  0  0  0  0  0  0  0
  1  2  2  0
  2  3  1  0
  3 17  1  0
  4  3  2  0
  5  4  1  0
  6  5  2  0
  6  1  1  0
  7  5  1  0
  8  7  1  0
  9  8  2  0
  9 10  1  0
 10 11  1  0
 11  7  2  0
 12 10  1  0
 12 13  1  0
 14 13  1  0
 15 16  1  0
 15 14  1  0
 16 12  1  0
 17 18  1  0
 17 20  1  0
 17 19  1  0
  1 21  1  0
  2 22  1  0
  8 23  1  0
  9 24  1  0
 12 25  1  0
 13 26  1  0
 13 27  1  0
 14 28  1  0
 14 29  1  0
 15 30  1  0
 15 31  1  0
 16 32  1  0
 16 33  1  0
M  ISO  8  21  14  22  14  23  14  24  14  25  13  26  13  27  13  28  13
M  ISO  5  29  13  30  13  31  13  32  13  33  13
M  END
>  <minimizedAffinity>  (1) 
-5.55239487

>  <minimizedRMSD>  (1) 
2.34910154

$$$$
