
     RDKit          3D

 45 47  0  0  1  0  0  0  0  0999 V2000
   38.2390   23.7050   33.1580 C   0  0  2  0  0  0  0  0  0  0  0  0
   39.3430   24.1250   32.2020 C   0  0  0  0  0  0  0  0  0  0  0  0
   39.2470   23.4010   30.8940 C   0  0  0  0  0  0  0  0  0  0  0  0
   37.9310   23.7050   30.2520 C   0  0  0  0  0  0  0  0  0  0  0  0
   36.9450   24.2870   31.2060 C   0  0  0  0  0  0  0  0  0  0  0  0
   36.9330   23.4400   32.4480 C   0  0  1  0  0  0  0  0  0  0  0  0
   36.5320   22.0590   32.3030 C   0  0  0  0  0  0  0  0  0  0  0  0
   35.1770   21.7300   32.1250 C   0  0  0  0  0  0  0  0  0  0  0  0
   34.6970   20.4230   31.9750 C   0  0  0  0  0  0  0  0  0  0  0  0
   35.5760   19.4040   32.0000 N   0  0  0  0  0  0  0  0  0  0  0  0
   36.8780   19.7060   32.1690 C   0  0  0  0  0  0  0  0  0  0  0  0
   37.3050   20.9580   32.3090 N   0  0  0  0  0  0  0  0  0  0  0  0
   38.0480   24.9030   34.0130 C   0  0  0  0  0  0  0  0  0  0  0  0
   39.1650   25.1790   34.8890 C   0  0  2  0  0  0  0  0  0  0  0  0
   37.9680   24.8910   37.1100 C   0  0  0  0  0  0  0  0  0  0  0  0
   38.9650   24.5450   36.1960 C   0  0  0  0  0  0  0  0  0  0  0  0
   39.8310   23.4900   36.5570 C   0  0  0  0  0  0  0  0  0  0  0  0
   39.6770   22.8510   37.7590 N   0  0  0  0  0  0  0  0  0  0  0  0
   38.6880   23.2390   38.5970 C   0  0  0  0  0  0  0  0  0  0  0  0
   37.8520   24.2390   38.2760 N   0  0  0  0  0  0  0  0  0  0  0  0
   40.9070   23.0420   35.7170 N   0  0  0  0  0  0  0  0  0  0  0  0
   39.3360   26.6880   35.1160 C   0  0  0  0  0  0  0  0  0  0  0  0
   38.5107   22.7814   33.6902 H   0  0  0  0  0  0  0  0  0  0  0  0
   39.2630   25.2065   32.0178 H   0  0  0  0  0  0  0  0  0  0  0  0
   40.3099   23.8747   32.6629 H   0  0  0  0  0  0  0  0  0  0  0  0
   40.0623   23.7291   30.2325 H   0  0  0  0  0  0  0  0  0  0  0  0
   39.3292   22.3178   31.0673 H   0  0  0  0  0  0  0  0  0  0  0  0
   38.0958   24.4229   29.4350 H   0  0  0  0  0  0  0  0  0  0  0  0
   37.5150   22.7560   29.8828 H   0  0  0  0  0  0  0  0  0  0  0  0
   37.2370   25.3165   31.4607 H   0  0  0  0  0  0  0  0  0  0  0  0
   35.9437   24.3066   30.7511 H   0  0  0  0  0  0  0  0  0  0  0  0
   36.0941   23.7451   33.0908 H   0  0  0  0  0  0  0  0  0  0  0  0
   34.4466   22.5522   32.1021 H   0  0  0  0  0  0  0  0  0  0  0  0
   33.6221   20.2328   31.8393 H   0  0  0  0  0  0  0  0  0  0  0  0
   37.6138   18.8886   32.1920 H   0  0  0  0  0  0  0  0  0  0  0  0
   37.8961   25.7748   33.3596 H   0  0  0  0  0  0  0  0  0  0  0  0
   37.1785   24.7022   34.6561 H   0  0  0  0  0  0  0  0  0  0  0  0
   40.0636   24.7739   34.4007 H   0  0  0  0  0  0  0  0  0  0  0  0
   37.2702   25.7071   36.8711 H   0  0  0  0  0  0  0  0  0  0  0  0
   38.5665   22.7242   39.5615 H   0  0  0  0  0  0  0  0  0  0  0  0
   41.5123   22.2675   36.0246 H   0  0  0  0  0  0  0  0  0  0  0  0
   41.0731   23.4953   34.8071 H   0  0  0  0  0  0  0  0  0  0  0  0
   39.3596   26.8960   36.1959 H   0  0  0  0  0  0  0  0  0  0  0  0
   40.2779   27.0234   34.6574 H   0  0  0  0  0  0  0  0  0  0  0  0
   38.4930   27.2256   34.6574 H   0  0  0  0  0  0  0  0  0  0  0  0
  1 13  1  0
  2  1  1  0
  3  2  1  0
  4  3  1  0
  4  5  1  0
  5  6  1  0
  6  1  1  0
  7 12  1  0
  7  6  1  0
  8  7  2  0
  9 10  2  0
  9  8  1  0
 10 11  1  0
 11 12  2  0
 13 14  1  0
 14 22  1  0
 14 16  1  0
 15 20  2  0
 16 17  2  0
 16 15  1  0
 17 18  1  0
 18 19  2  0
 20 19  1  0
 21 17  1  0
  1 23  1  1
  2 24  1  0
  2 25  1  0
  3 26  1  0
  3 27  1  0
  4 28  1  0
  4 29  1  0
  5 30  1  0
  5 31  1  0
  6 32  1  1
  8 33  1  0
  9 34  1  0
 11 35  1  0
 13 36  1  0
 13 37  1  0
 14 38  1  6
 15 39  1  0
 19 40  1  0
 21 41  1  0
 21 42  1  0
 22 43  1  0
 22 44  1  0
 22 45  1  0
M  ISO  8  23  13  24  13  25  13  26  13  27  13  28  13  29  13  30  13
M  ISO  8  31  13  32  13  33  14  34  14  35  14  36   8  37   8  38   8
M  ISO  5  39  14  40  14  43   8  44   8  45   8
M  END
>  <minimizedAffinity>  (1) 
-4.98326302

>  <minimizedRMSD>  (1) 
3.98634481

$$$$
