
     RDKit          3D

 40 41  0  0  1  0  0  0  0  0999 V2000
   37.6410   22.5110   32.8710 C   0  0  0  0  0  0  0  0  0  0  0  0
   36.2640   21.9950   33.1200 C   0  0  2  0  0  0  0  0  0  0  0  0
   36.4620   20.5430   33.5190 C   0  0  0  0  0  0  0  0  0  0  0  0
   35.2670   19.7420   33.1180 C   0  0  0  0  0  0  0  0  0  0  0  0
   35.1250   19.7440   31.6220 C   0  0  0  0  0  0  0  0  0  0  0  0
   35.8380   20.9220   30.9960 C   0  0  0  0  0  0  0  0  0  0  0  0
   35.4930   22.1270   31.8210 C   0  0  2  0  0  0  0  0  0  0  0  0
   35.7410   23.4210   31.1230 C   0  0  0  0  0  0  0  0  0  0  0  0
   38.4870   22.3860   34.0530 C   0  0  2  0  0  0  0  0  0  0  0  0
   38.7300   24.8970   34.4120 C   0  0  0  0  0  0  0  0  0  0  0  0
   38.4310   23.6190   34.8620 C   0  0  0  0  0  0  0  0  0  0  0  0
   38.0190   23.5140   36.2030 C   0  0  0  0  0  0  0  0  0  0  0  0
   37.9280   24.6260   36.9900 N   0  0  0  0  0  0  0  0  0  0  0  0
   38.2350   25.8300   36.4810 C   0  0  0  0  0  0  0  0  0  0  0  0
   38.6300   25.9590   35.2090 N   0  0  0  0  0  0  0  0  0  0  0  0
   37.6900   22.2430   36.8170 N   0  0  0  0  0  0  0  0  0  0  0  0
   39.9500   22.1560   33.6570 C   0  0  0  0  0  0  0  0  0  0  0  0
   38.0926   21.9384   32.0475 H   0  0  0  0  0  0  0  0  0  0  0  0
   37.5658   23.5781   32.6150 H   0  0  0  0  0  0  0  0  0  0  0  0
   35.7047   22.5315   33.9006 H   0  0  0  0  0  0  0  0  0  0  0  0
   37.3550   20.1442   33.0155 H   0  0  0  0  0  0  0  0  0  0  0  0
   36.5929   20.4800   34.6094 H   0  0  0  0  0  0  0  0  0  0  0  0
   35.3870   18.7071   33.4711 H   0  0  0  0  0  0  0  0  0  0  0  0
   34.3668   20.1874   33.5666 H   0  0  0  0  0  0  0  0  0  0  0  0
   35.5537   18.8135   31.2216 H   0  0  0  0  0  0  0  0  0  0  0  0
   34.0551   19.8206   31.3783 H   0  0  0  0  0  0  0  0  0  0  0  0
   36.9252   20.7552   31.0058 H   0  0  0  0  0  0  0  0  0  0  0  0
   35.5290   21.0591   29.9492 H   0  0  0  0  0  0  0  0  0  0  0  0
   34.4104   22.1536   32.0140 H   0  0  0  0  0  0  0  0  0  0  0  0
   35.8934   24.2160   31.8678 H   0  0  0  0  0  0  0  0  0  0  0  0
   36.6384   23.3318   30.4931 H   0  0  0  0  0  0  0  0  0  0  0  0
   34.8742   23.6699   30.4931 H   0  0  0  0  0  0  0  0  0  0  0  0
   38.1128   21.5285   34.6316 H   0  0  0  0  0  0  0  0  0  0  0  0
   39.0577   25.0363   33.3712 H   0  0  0  0  0  0  0  0  0  0  0  0
   38.1607   26.7231   37.1188 H   0  0  0  0  0  0  0  0  0  0  0  0
   37.3922   22.2089   37.8024 H   0  0  0  0  0  0  0  0  0  0  0  0
   37.7540   21.3739   36.2679 H   0  0  0  0  0  0  0  0  0  0  0  0
   40.5646   22.0594   34.5642 H   0  0  0  0  0  0  0  0  0  0  0  0
   40.0281   21.2345   33.0613 H   0  0  0  0  0  0  0  0  0  0  0  0
   40.3071   23.0090   33.0613 H   0  0  0  0  0  0  0  0  0  0  0  0
  1  2  1  0
  1  9  1  0
  2  3  1  0
  4  3  1  0
  5  4  1  0
  6  5  1  0
  6  7  1  0
  7  2  1  0
  8  7  1  0
  9 11  1  0
 10 11  2  0
 10 15  1  0
 11 12  1  0
 12 16  1  0
 12 13  2  0
 14 13  1  0
 15 14  2  0
 17  9  1  0
  1 18  1  0
  1 19  1  0
  2 20  1  1
  3 21  1  0
  3 22  1  0
  4 23  1  0
  4 24  1  0
  5 25  1  0
  5 26  1  0
  6 27  1  0
  6 28  1  0
  7 29  1  1
  8 30  1  0
  8 31  1  0
  8 32  1  0
  9 33  1  1
 10 34  1  0
 14 35  1  0
 16 36  1  0
 16 37  1  0
 17 38  1  0
 17 39  1  0
 17 40  1  0
M  ISO  8  18   8  19   8  20  13  21  13  22  13  23  13  24  13  25  13
M  ISO  8  26  13  27  13  28  13  29  13  30   8  31   8  32   8  33   8
M  ISO  5  34  14  35  14  38   8  39   8  40   8
M  END
>  <minimizedAffinity>  (1) 
-4.29822588

>  <minimizedRMSD>  (1) 
0.814682782

$$$$
