
     RDKit          3D

 46 47  0  0  1  0  0  0  0  0999 V2000
   39.0110   23.7050   33.7220 C   0  0  0  0  0  0  0  0  0  0  0  0
   38.1990   22.5970   33.1570 C   0  0  2  0  0  0  0  0  0  0  0  0
   39.1740   21.4310   33.1130 C   0  0  0  0  0  0  0  0  0  0  0  0
   38.8640   20.4650   32.0130 C   0  0  0  0  0  0  0  0  0  0  0  0
   38.9070   21.1630   30.6890 C   0  0  0  0  0  0  0  0  0  0  0  0
   38.8150   22.6510   30.8270 C   0  0  0  0  0  0  0  0  0  0  0  0
   37.7270   23.0040   31.7860 C   0  0  1  0  0  0  0  0  0  0  0  0
   36.3360   22.7690   31.4470 C   0  0  0  0  0  0  0  0  0  0  0  0
   35.3910   23.8450   31.1620 C   0  0  0  0  0  0  0  0  0  0  0  0
   35.7450   21.8880   32.5570 C   0  0  0  0  0  0  0  0  0  0  0  0
   39.8530   23.3170   34.8310 C   0  0  2  0  0  0  0  0  0  0  0  0
   38.3970   24.7980   36.2950 C   0  0  0  0  0  0  0  0  0  0  0  0
   39.2170   23.6870   36.1030 C   0  0  0  0  0  0  0  0  0  0  0  0
   39.4350   22.8510   37.2170 C   0  0  0  0  0  0  0  0  0  0  0  0
   38.8440   23.1560   38.4150 N   0  0  0  0  0  0  0  0  0  0  0  0
   38.0620   24.2430   38.5360 C   0  0  0  0  0  0  0  0  0  0  0  0
   37.8500   25.0380   37.4910 N   0  0  0  0  0  0  0  0  0  0  0  0
   40.2720   21.6780   37.1570 N   0  0  0  0  0  0  0  0  0  0  0  0
   41.2170   24.0260   34.7650 C   0  0  0  0  0  0  0  0  0  0  0  0
   38.3259   24.4929   34.0682 H   0  0  0  0  0  0  0  0  0  0  0  0
   39.6821   24.0458   32.9198 H   0  0  0  0  0  0  0  0  0  0  0  0
   37.2978   22.3400   33.7330 H   0  0  0  0  0  0  0  0  0  0  0  0
   40.1892   21.8258   32.9598 H   0  0  0  0  0  0  0  0  0  0  0  0
   39.0899   20.8893   34.0667 H   0  0  0  0  0  0  0  0  0  0  0  0
   39.6068   19.6537   32.0210 H   0  0  0  0  0  0  0  0  0  0  0  0
   37.8568   20.0514   32.1698 H   0  0  0  0  0  0  0  0  0  0  0  0
   38.0634   20.8119   30.0766 H   0  0  0  0  0  0  0  0  0  0  0  0
   39.8722   20.9282   30.2164 H   0  0  0  0  0  0  0  0  0  0  0  0
   39.7725   23.0429   31.2007 H   0  0  0  0  0  0  0  0  0  0  0  0
   38.5911   23.0935   29.8451 H   0  0  0  0  0  0  0  0  0  0  0  0
   37.5908   24.0941   31.7302 H   0  0  0  0  0  0  0  0  0  0  0  0
   36.4331   22.3387   30.4393 H   0  0  0  0  0  0  0  0  0  0  0  0
   35.0201   24.2673   32.1076 H   0  0  0  0  0  0  0  0  0  0  0  0
   35.8953   24.6318   30.5819 H   0  0  0  0  0  0  0  0  0  0  0  0
   34.5456   23.4465   30.5819 H   0  0  0  0  0  0  0  0  0  0  0  0
   36.0215   22.3002   33.5386 H   0  0  0  0  0  0  0  0  0  0  0  0
   34.6492   21.8666   32.4638 H   0  0  0  0  0  0  0  0  0  0  0  0
   36.1409   20.8660   32.4638 H   0  0  0  0  0  0  0  0  0  0  0  0
   39.9960   22.2281   34.7694 H   0  0  0  0  0  0  0  0  0  0  0  0
   38.1987   25.4819   35.4566 H   0  0  0  0  0  0  0  0  0  0  0  0
   37.5951   24.4760   39.5043 H   0  0  0  0  0  0  0  0  0  0  0  0
   40.4033   21.0955   37.9963 H   0  0  0  0  0  0  0  0  0  0  0  0
   40.7385   21.4228   36.2749 H   0  0  0  0  0  0  0  0  0  0  0  0
   41.5815   24.2155   35.7854 H   0  0  0  0  0  0  0  0  0  0  0  0
   41.9365   23.3878   34.2312 H   0  0  0  0  0  0  0  0  0  0  0  0
   41.1081   24.9816   34.2312 H   0  0  0  0  0  0  0  0  0  0  0  0
  1 11  1  0
  2  1  1  0
  3  2  1  0
  4  3  1  0
  5  6  1  0
  5  4  1  0
  6  7  1  0
  7  2  1  0
  8  7  1  0
  8 10  1  0
  9  8  1  0
 11 13  1  0
 12 17  2  0
 13 12  1  0
 13 14  2  0
 14 15  1  0
 15 16  2  0
 17 16  1  0
 18 14  1  0
 19 11  1  0
  1 20  1  0
  1 21  1  0
  2 22  1  1
  3 23  1  0
  3 24  1  0
  4 25  1  0
  4 26  1  0
  5 27  1  0
  5 28  1  0
  6 29  1  0
  6 30  1  0
  7 31  1  1
  8 32  1  0
  9 33  1  0
  9 34  1  0
  9 35  1  0
 10 36  1  0
 10 37  1  0
 10 38  1  0
 11 39  1  1
 12 40  1  0
 16 41  1  0
 18 42  1  0
 18 43  1  0
 19 44  1  0
 19 45  1  0
 19 46  1  0
M  ISO  8  20   8  21   8  22  13  23  13  24  13  25  13  26  13  27  13
M  ISO  8  28  13  29  13  30  13  31  13  32   8  33   8  34   8  35   8
M  ISO  8  36   8  37   8  38   8  39   8  40  14  41  14  44   8  45   8
M  ISO  1  46   8
M  END
>  <minimizedAffinity>  (1) 
-4.46257162

>  <minimizedRMSD>  (1) 
2.8989346

$$$$
