
     RDKit          3D

 42 45  0  0  1  0  0  0  0  0999 V2000
   40.9250   22.2510   36.1990 C   0  0  2  0  0  0  0  0  0  0  0  0
   41.6960   21.3240   37.1150 C   0  0  0  0  0  0  0  0  0  0  0  0
   42.8220   20.9430   36.1420 C   0  0  0  0  0  0  0  0  0  0  0  0
   43.0650   22.2220   35.3390 C   0  0  0  0  0  0  0  0  0  0  0  0
   42.0880   23.2480   35.9510 C   0  0  1  0  0  0  0  0  0  0  0  0
   38.5790   23.3410   36.2750 C   0  0  0  0  0  0  0  0  0  0  0  0
   37.5380   23.9600   36.9860 C   0  0  0  0  0  0  0  0  0  0  0  0
   37.7570   24.1130   38.3490 C   0  0  0  0  0  0  0  0  0  0  0  0
   38.9550   23.6600   38.9230 C   0  0  0  0  0  0  0  0  0  0  0  0
   39.9330   23.0550   38.1370 C   0  0  0  0  0  0  0  0  0  0  0  0
   39.7710   22.8790   36.7820 C   0  0  0  0  0  0  0  0  0  0  0  0
   38.0190   24.3430   34.0880 C   0  0  0  0  0  0  0  0  0  0  0  0
   38.3170   23.1890   34.8570 C   0  0  0  0  0  0  0  0  0  0  0  0
   38.3510   21.9470   34.2330 C   0  0  0  0  0  0  0  0  0  0  0  0
   38.1050   21.8270   32.9140 N   0  0  0  0  0  0  0  0  0  0  0  0
   37.8160   22.9730   32.1810 C   0  0  0  0  0  0  0  0  0  0  0  0
   37.7750   24.2100   32.7620 N   0  0  0  0  0  0  0  0  0  0  0  0
   41.7220   24.2800   34.9800 C   0  0  0  0  0  0  0  0  0  0  0  0
   41.4200   25.5680   35.2890 C   0  0  0  0  0  0  0  0  0  0  0  0
   41.0720   26.5640   34.4000 C   0  0  0  0  0  0  0  0  0  0  0  0
   41.0260   26.2270   33.0590 C   0  0  0  0  0  0  0  0  0  0  0  0
   41.3330   24.9210   32.7450 C   0  0  0  0  0  0  0  0  0  0  0  0
   41.6660   23.9870   33.6540 N   0  0  0  0  0  0  0  0  0  0  0  0
   40.4574   21.7717   35.3263 H   0  0  0  0  0  0  0  0  0  0  0  0
   42.0755   21.8424   38.0079 H   0  0  0  0  0  0  0  0  0  0  0  0
   41.1257   20.4863   37.5428 H   0  0  0  0  0  0  0  0  0  0  0  0
   43.7288   20.6470   36.6898 H   0  0  0  0  0  0  0  0  0  0  0  0
   42.5590   20.0861   35.5044 H   0  0  0  0  0  0  0  0  0  0  0  0
   42.8440   22.0610   34.2735 H   0  0  0  0  0  0  0  0  0  0  0  0
   44.1116   22.5569   35.3887 H   0  0  0  0  0  0  0  0  0  0  0  0
   42.4406   23.8273   36.8171 H   0  0  0  0  0  0  0  0  0  0  0  0
   36.6131   24.3001   36.4972 H   0  0  0  0  0  0  0  0  0  0  0  0
   36.9912   24.5894   38.9788 H   0  0  0  0  0  0  0  0  0  0  0  0
   39.1231   23.7838   40.0030 H   0  0  0  0  0  0  0  0  0  0  0  0
   40.8618   22.7079   38.6134 H   0  0  0  0  0  0  0  0  0  0  0  0
   37.9864   25.3347   34.5629 H   0  0  0  0  0  0  0  0  0  0  0  0
   38.5822   21.0492   34.8250 H   0  0  0  0  0  0  0  0  0  0  0  0
   37.6147   22.8817   31.1034 H   0  0  0  0  0  0  0  0  0  0  0  0
   41.4565   25.8441   36.3532 H   0  0  0  0  0  0  0  0  0  0  0  0
   40.8408   27.5833   34.7430 H   0  0  0  0  0  0  0  0  0  0  0  0
   40.7588   26.9619   32.2853 H   0  0  0  0  0  0  0  0  0  0  0  0
   41.3040   24.6240   31.6863 H   0  0  0  0  0  0  0  0  0  0  0  0
  1 11  1  0
  1  2  1  0
  3  2  1  0
  4  5  1  0
  4  3  1  0
  5  1  1  0
  6 11  1  0
  6  7  2  0
  7  8  1  0
  8  9  2  0
 10  9  1  0
 11 10  2  0
 12 13  2  0
 13  6  1  0
 14 13  1  0
 15 14  2  0
 16 17  2  0
 16 15  1  0
 17 12  1  0
 18 19  2  0
 18  5  1  0
 20 19  1  0
 21 20  2  0
 22 21  1  0
 22 23  2  0
 23 18  1  0
  1 24  1  6
  2 25  1  0
  2 26  1  0
  3 27  1  0
  3 28  1  0
  4 29  1  0
  4 30  1  0
  5 31  1  1
  7 32  1  0
  8 33  1  0
  9 34  1  0
 10 35  1  0
 12 36  1  0
 14 37  1  0
 16 38  1  0
 19 39  1  0
 20 40  1  0
 21 41  1  0
 22 42  1  0
M  ISO  8  24  13  25  13  26  13  27  13  28  13  29  13  30  13  31  13
M  ISO  8  32  14  33  14  34  14  35  14  36  14  37  14  38  14  39  14
M  ISO  3  40  14  41  14  42  14
M  END
>  <minimizedAffinity>  (1) 
-5.24298382

>  <minimizedRMSD>  (1) 
6.80341434

$$$$
