
     RDKit          3D

 40 43  0  0  1  0  0  0  0  0999 V2000
   40.6820   24.9230   34.8930 C   0  0  0  0  0  0  0  0  0  0  0  0
   41.9510   24.3000   34.9250 C   0  0  0  0  0  0  0  0  0  0  0  0
   43.0250   25.0960   34.5570 C   0  0  0  0  0  0  0  0  0  0  0  0
   42.8080   26.4200   34.1870 C   0  0  0  0  0  0  0  0  0  0  0  0
   41.5270   26.9570   34.1820 C   0  0  0  0  0  0  0  0  0  0  0  0
   40.4210   26.2290   34.5340 C   0  0  0  0  0  0  0  0  0  0  0  0
   39.2220   27.0080   34.4550 C   0  0  2  0  0  0  0  0  0  0  0  0
   38.3090   26.9160   35.6580 C   0  0  0  0  0  0  0  0  0  0  0  0
   37.1490   27.7770   35.1400 C   0  0  0  0  0  0  0  0  0  0  0  0
   37.1400   27.5500   33.6280 C   0  0  0  0  0  0  0  0  0  0  0  0
   38.2030   26.4430   33.4410 C   0  0  1  0  0  0  0  0  0  0  0  0
   38.7560   26.4150   32.0830 C   0  0  0  0  0  0  0  0  0  0  0  0
   39.0610   25.3340   31.2470 C   0  0  0  0  0  0  0  0  0  0  0  0
   39.5460   25.9440   30.1060 C   0  0  0  0  0  0  0  0  0  0  0  0
   39.5190   27.3280   30.2860 C   0  0  0  0  0  0  0  0  0  0  0  0
   39.0390   27.5300   31.4810 O   0  0  0  0  0  0  0  0  0  0  0  0
   39.2140   24.0000   36.6490 C   0  0  0  0  0  0  0  0  0  0  0  0
   39.5790   24.0680   35.2810 C   0  0  0  0  0  0  0  0  0  0  0  0
   38.8810   23.3160   34.3410 C   0  0  0  0  0  0  0  0  0  0  0  0
   37.8590   22.5230   34.7280 N   0  0  0  0  0  0  0  0  0  0  0  0
   37.5130   22.4660   36.0600 C   0  0  0  0  0  0  0  0  0  0  0  0
   38.1820   23.1960   37.0090 N   0  0  0  0  0  0  0  0  0  0  0  0
   42.0783   23.2489   35.2234 H   0  0  0  0  0  0  0  0  0  0  0  0
   44.0444   24.6827   34.5575 H   0  0  0  0  0  0  0  0  0  0  0  0
   43.6617   27.0491   33.8948 H   0  0  0  0  0  0  0  0  0  0  0  0
   41.3954   28.0076   33.8838 H   0  0  0  0  0  0  0  0  0  0  0  0
   39.6568   27.9989   34.2572 H   0  0  0  0  0  0  0  0  0  0  0  0
   37.9966   25.8811   35.8614 H   0  0  0  0  0  0  0  0  0  0  0  0
   38.7490   27.2376   36.6135 H   0  0  0  0  0  0  0  0  0  0  0  0
   36.1970   27.4537   35.5862 H   0  0  0  0  0  0  0  0  0  0  0  0
   37.2712   28.8388   35.4001 H   0  0  0  0  0  0  0  0  0  0  0  0
   36.1513   27.2120   33.2840 H   0  0  0  0  0  0  0  0  0  0  0  0
   37.3539   28.4610   33.0498 H   0  0  0  0  0  0  0  0  0  0  0  0
   37.8625   25.4071   33.5858 H   0  0  0  0  0  0  0  0  0  0  0  0
   38.9431   24.2593   31.4495 H   0  0  0  0  0  0  0  0  0  0  0  0
   39.8965   25.4235   29.2025 H   0  0  0  0  0  0  0  0  0  0  0  0
   39.8386   28.0942   29.5644 H   0  0  0  0  0  0  0  0  0  0  0  0
   39.7568   24.5876   37.4040 H   0  0  0  0  0  0  0  0  0  0  0  0
   39.1628   23.3678   33.2790 H   0  0  0  0  0  0  0  0  0  0  0  0
   36.6794   21.8189   36.3704 H   0  0  0  0  0  0  0  0  0  0  0  0
  1  2  2  0
  1 18  1  0
  3  2  1  0
  4  3  2  0
  5  4  1  0
  5  6  2  0
  6  1  1  0
  7  6  1  0
  7  8  1  0
  9  8  1  0
 10  9  1  0
 11 10  1  0
 11  7  1  0
 12 11  1  0
 13 12  2  0
 14 15  2  0
 14 13  1  0
 15 16  1  0
 16 12  1  0
 17 22  2  0
 18 17  1  0
 19 20  1  0
 19 18  2  0
 20 21  2  0
 21 22  1  0
  2 23  1  0
  3 24  1  0
  4 25  1  0
  5 26  1  0
  7 27  1  6
  8 28  1  0
  8 29  1  0
  9 30  1  0
  9 31  1  0
 10 32  1  0
 10 33  1  0
 11 34  1  1
 13 35  1  0
 14 36  1  0
 15 37  1  0
 17 38  1  0
 19 39  1  0
 21 40  1  0
M  ISO  8  23  14  24  14  25  14  26  14  27  13  28  13  29  13  30  13
M  ISO  8  31  13  32  13  33  13  34  13  35  14  36  14  37  14  38  14
M  ISO  2  39  14  40  14
M  END
>  <minimizedAffinity>  (1) 
-5.02705669

>  <minimizedRMSD>  (1) 
6.59482908

$$$$
