
     RDKit          3D

 36 38  0  0  1  0  0  0  0  0999 V2000
   37.4160   23.2400   32.8100 C   0  0  0  0  0  0  0  0  0  0  0  0
   37.3200   24.6330   32.7150 C   0  0  0  0  0  0  0  0  0  0  0  0
   36.2850   25.0970   31.9100 C   0  0  0  0  0  0  0  0  0  0  0  0
   35.4330   24.1860   31.2650 C   0  0  0  0  0  0  0  0  0  0  0  0
   35.6110   22.8160   31.4240 C   0  0  0  0  0  0  0  0  0  0  0  0
   36.6160   22.2930   32.2070 C   0  0  0  0  0  0  0  0  0  0  0  0
   36.5760   20.8630   32.2200 C   0  0  2  0  0  0  0  0  0  0  0  0
   36.2300   20.2050   30.8930 C   0  0  0  0  0  0  0  0  0  0  0  0
   36.2330   18.7430   31.3710 C   0  0  0  0  0  0  0  0  0  0  0  0
   35.7070   18.8100   32.8210 C   0  0  0  0  0  0  0  0  0  0  0  0
   35.3800   20.2980   33.0150 C   0  0  1  0  0  0  0  0  0  0  0  0
   35.5170   20.7280   34.4420 C   0  0  0  0  0  0  0  0  0  0  0  0
   38.2950   22.7270   35.0680 C   0  0  0  0  0  0  0  0  0  0  0  0
   38.5060   22.7850   33.6560 C   0  0  0  0  0  0  0  0  0  0  0  0
   39.7380   22.4090   33.1330 C   0  0  0  0  0  0  0  0  0  0  0  0
   40.7280   21.9900   33.9570 N   0  0  0  0  0  0  0  0  0  0  0  0
   40.5100   21.9400   35.3100 C   0  0  0  0  0  0  0  0  0  0  0  0
   39.3120   22.3020   35.8630 N   0  0  0  0  0  0  0  0  0  0  0  0
   38.0114   25.3102   33.2379 H   0  0  0  0  0  0  0  0  0  0  0  0
   36.1337   26.1786   31.7785 H   0  0  0  0  0  0  0  0  0  0  0  0
   34.6175   24.5594   30.6282 H   0  0  0  0  0  0  0  0  0  0  0  0
   34.9264   22.1273   30.9073 H   0  0  0  0  0  0  0  0  0  0  0  0
   37.5870   20.6546   32.6001 H   0  0  0  0  0  0  0  0  0  0  0  0
   36.9930   20.3932   30.1233 H   0  0  0  0  0  0  0  0  0  0  0  0
   35.3054   20.5524   30.4088 H   0  0  0  0  0  0  0  0  0  0  0  0
   35.5701   18.1277   30.7449 H   0  0  0  0  0  0  0  0  0  0  0  0
   37.2308   18.2843   31.3085 H   0  0  0  0  0  0  0  0  0  0  0  0
   34.8061   18.1904   32.9415 H   0  0  0  0  0  0  0  0  0  0  0  0
   36.4308   18.4307   33.5574 H   0  0  0  0  0  0  0  0  0  0  0  0
   34.3626   20.5953   32.7209 H   0  0  0  0  0  0  0  0  0  0  0  0
   35.2504   19.8912   35.1043 H   0  0  0  0  0  0  0  0  0  0  0  0
   36.5564   21.0318   34.6352 H   0  0  0  0  0  0  0  0  0  0  0  0
   34.8449   21.5771   34.6352 H   0  0  0  0  0  0  0  0  0  0  0  0
   37.3283   23.0206   35.5030 H   0  0  0  0  0  0  0  0  0  0  0  0
   39.9092   22.4519   32.0473 H   0  0  0  0  0  0  0  0  0  0  0  0
   41.3216   21.5991   35.9696 H   0  0  0  0  0  0  0  0  0  0  0  0
  1 14  1  0
  2  1  2  0
  3  2  1  0
  4  5  1  0
  4  3  2  0
  5  6  2  0
  6  7  1  0
  6  1  1  0
  7 11  1  0
  8  9  1  0
  8  7  1  0
  9 10  1  0
 10 11  1  0
 11 12  1  0
 13 18  2  0
 14 13  1  0
 15 14  2  0
 15 16  1  0
 16 17  2  0
 17 18  1  0
  2 19  1  0
  3 20  1  0
  4 21  1  0
  5 22  1  0
  7 23  1  1
  8 24  1  0
  8 25  1  0
  9 26  1  0
  9 27  1  0
 10 28  1  0
 10 29  1  0
 11 30  1  6
 12 31  1  0
 12 32  1  0
 12 33  1  0
 13 34  1  0
 15 35  1  0
 17 36  1  0
M  ISO  8  19  14  20  14  21  14  22  14  23  13  24  13  25  13  26  13
M  ISO  8  27  13  28  13  29  13  30  13  31   8  32   8  33   8  34  14
M  ISO  2  35  14  36  14
M  END
>  <minimizedAffinity>  (1) 
-4.77281141

>  <minimizedRMSD>  (1) 
0.634211123

$$$$
