
     RDKit          3D

 40 43  0  0  1  0  0  0  0  0999 V2000
   38.1270   25.6610   34.2610 C   0  0  0  0  0  0  0  0  0  0  0  0
   37.4030   26.4420   35.1860 C   0  0  0  0  0  0  0  0  0  0  0  0
   36.7700   27.5630   34.6480 C   0  0  0  0  0  0  0  0  0  0  0  0
   36.8840   27.8380   33.2740 C   0  0  0  0  0  0  0  0  0  0  0  0
   37.6220   27.0040   32.4430 C   0  0  0  0  0  0  0  0  0  0  0  0
   38.2690   25.8850   32.9120 C   0  0  0  0  0  0  0  0  0  0  0  0
   38.9380   25.1880   31.8570 C   0  0  2  0  0  0  0  0  0  0  0  0
   39.7670   26.0580   30.9260 C   0  0  0  0  0  0  0  0  0  0  0  0
   40.2150   24.9700   29.9380 C   0  0  0  0  0  0  0  0  0  0  0  0
   39.0480   23.9940   29.8910 C   0  0  0  0  0  0  0  0  0  0  0  0
   37.9610   24.6440   30.7810 C   0  0  1  0  0  0  0  0  0  0  0  0
   37.1330   23.5780   31.2960 N   0  0  0  0  0  0  0  0  0  0  0  0
   37.4400   22.3230   31.6590 C   0  0  0  0  0  0  0  0  0  0  0  0
   36.3310   21.6320   32.1000 C   0  0  0  0  0  0  0  0  0  0  0  0
   35.2980   22.4870   32.0100 N   0  0  0  0  0  0  0  0  0  0  0  0
   35.7870   23.6300   31.5340 C   0  0  0  0  0  0  0  0  0  0  0  0
   38.0390   23.3210   35.0480 C   0  0  0  0  0  0  0  0  0  0  0  0
   38.7880   24.5090   34.8550 C   0  0  0  0  0  0  0  0  0  0  0  0
   40.1270   24.5610   35.2300 C   0  0  0  0  0  0  0  0  0  0  0  0
   40.7270   23.4890   35.7810 N   0  0  0  0  0  0  0  0  0  0  0  0
   39.9810   22.3290   35.9660 C   0  0  0  0  0  0  0  0  0  0  0  0
   38.6680   22.2530   35.6060 N   0  0  0  0  0  0  0  0  0  0  0  0
   37.3419   26.1858   36.2540 H   0  0  0  0  0  0  0  0  0  0  0  0
   36.1834   28.2297   35.2971 H   0  0  0  0  0  0  0  0  0  0  0  0
   36.3839   28.7224   32.8525 H   0  0  0  0  0  0  0  0  0  0  0  0
   37.6911   27.2475   31.3725 H   0  0  0  0  0  0  0  0  0  0  0  0
   39.5090   24.4544   32.4450 H   0  0  0  0  0  0  0  0  0  0  0  0
   39.1624   26.8371   30.4387 H   0  0  0  0  0  0  0  0  0  0  0  0
   40.5747   26.6332   31.4022 H   0  0  0  0  0  0  0  0  0  0  0  0
   40.4017   25.4010   28.9433 H   0  0  0  0  0  0  0  0  0  0  0  0
   41.1532   24.4856   30.2464 H   0  0  0  0  0  0  0  0  0  0  0  0
   38.6844   23.8724   28.8600 H   0  0  0  0  0  0  0  0  0  0  0  0
   39.3290   22.9898   30.2412 H   0  0  0  0  0  0  0  0  0  0  0  0
   37.2686   25.3807   30.3476 H   0  0  0  0  0  0  0  0  0  0  0  0
   38.4531   21.8972   31.6107 H   0  0  0  0  0  0  0  0  0  0  0  0
   36.2985   20.5910   32.4540 H   0  0  0  0  0  0  0  0  0  0  0  0
   35.1723   24.5237   31.3510 H   0  0  0  0  0  0  0  0  0  0  0  0
   36.9802   23.2651   34.7549 H   0  0  0  0  0  0  0  0  0  0  0  0
   40.7007   25.4866   35.0748 H   0  0  0  0  0  0  0  0  0  0  0  0
   40.4640   21.4487   36.4152 H   0  0  0  0  0  0  0  0  0  0  0  0
  1 18  1  0
  1  2  2  0
  3  2  1  0
  4  3  2  0
  5  6  2  0
  5  4  1  0
  6  1  1  0
  7  6  1  0
  8  7  1  0
  9  8  1  0
 10  9  1  0
 10 11  1  0
 11 12  1  0
 11  7  1  0
 12 16  1  0
 12 13  1  0
 13 14  2  0
 15 14  1  0
 16 15  2  0
 17 22  2  0
 18 17  1  0
 18 19  2  0
 19 20  1  0
 20 21  2  0
 22 21  1  0
  2 23  1  0
  3 24  1  0
  4 25  1  0
  5 26  1  0
  7 27  1  1
  8 28  1  0
  8 29  1  0
  9 30  1  0
  9 31  1  0
 10 32  1  0
 10 33  1  0
 11 34  1  6
 13 35  1  0
 14 36  1  0
 16 37  1  0
 17 38  1  0
 19 39  1  0
 21 40  1  0
M  ISO  8  23  14  24  14  25  14  26  14  27  13  28  13  29  13  30  13
M  ISO  8  31  13  32  13  33  13  34  13  35  14  36  14  37  14  38  14
M  ISO  2  39  14  40  14
M  END
>  <minimizedAffinity>  (1) 
-4.73424864

>  <minimizedRMSD>  (1) 
4.07514286

$$$$
