
     RDKit          3D

 45 47  0  0  1  0  0  0  0  0999 V2000
   38.8080   22.5610   32.8960 C   0  0  0  0  0  0  0  0  0  0  0  0
   39.8410   21.6360   32.7360 C   0  0  0  0  0  0  0  0  0  0  0  0
   40.1160   21.2630   31.4210 C   0  0  0  0  0  0  0  0  0  0  0  0
   39.3710   21.8120   30.3600 C   0  0  0  0  0  0  0  0  0  0  0  0
   38.3560   22.7320   30.6160 C   0  0  0  0  0  0  0  0  0  0  0  0
   38.0380   23.1400   31.8910 C   0  0  0  0  0  0  0  0  0  0  0  0
   36.9820   24.0990   31.8680 C   0  0  2  0  0  0  0  0  0  0  0  0
   35.7560   23.6790   31.0530 C   0  0  0  0  0  0  0  0  0  0  0  0
   34.9090   24.9440   31.2430 C   0  0  0  0  0  0  0  0  0  0  0  0
   35.9410   26.0880   31.3480 C   0  0  0  0  0  0  0  0  0  0  0  0
   37.2850   25.3660   31.0950 C   0  0  1  0  0  0  0  0  0  0  0  0
   38.3410   26.2550   31.5710 C   0  0  0  0  0  0  0  0  0  0  0  0
   39.7560   25.8410   31.4860 C   0  0  0  0  0  0  0  0  0  0  0  0
   38.2360   27.5160   30.6890 C   0  0  0  0  0  0  0  0  0  0  0  0
   38.1150   26.7870   32.9750 C   0  0  0  0  0  0  0  0  0  0  0  0
   39.1550   24.0410   34.8280 C   0  0  0  0  0  0  0  0  0  0  0  0
   38.5230   22.9150   34.2580 C   0  0  0  0  0  0  0  0  0  0  0  0
   37.6450   22.1850   35.0520 C   0  0  0  0  0  0  0  0  0  0  0  0
   37.3990   22.5390   36.3320 N   0  0  0  0  0  0  0  0  0  0  0  0
   38.0370   23.6500   36.8560 C   0  0  0  0  0  0  0  0  0  0  0  0
   38.9190   24.4070   36.1030 N   0  0  0  0  0  0  0  0  0  0  0  0
   40.4009   21.2284   33.5906 H   0  0  0  0  0  0  0  0  0  0  0  0
   40.9167   20.5383   31.2121 H   0  0  0  0  0  0  0  0  0  0  0  0
   39.5910   21.5135   29.3244 H   0  0  0  0  0  0  0  0  0  0  0  0
   37.7893   23.1465   29.7692 H   0  0  0  0  0  0  0  0  0  0  0  0
   36.8348   24.2153   32.9519 H   0  0  0  0  0  0  0  0  0  0  0  0
   35.2670   22.7867   31.4708 H   0  0  0  0  0  0  0  0  0  0  0  0
   35.9531   23.3895   30.0103 H   0  0  0  0  0  0  0  0  0  0  0  0
   34.2430   25.0990   30.3814 H   0  0  0  0  0  0  0  0  0  0  0  0
   34.2598   24.8836   32.1290 H   0  0  0  0  0  0  0  0  0  0  0  0
   35.7562   26.8588   30.5853 H   0  0  0  0  0  0  0  0  0  0  0  0
   35.9068   26.6164   32.3122 H   0  0  0  0  0  0  0  0  0  0  0  0
   37.6357   25.1233   30.0810 H   0  0  0  0  0  0  0  0  0  0  0  0
   40.1646   25.7214   32.5003 H   0  0  0  0  0  0  0  0  0  0  0  0
   39.8265   24.8846   30.9472 H   0  0  0  0  0  0  0  0  0  0  0  0
   40.3309   26.6086   30.9472 H   0  0  0  0  0  0  0  0  0  0  0  0
   38.1618   28.4068   31.3301 H   0  0  0  0  0  0  0  0  0  0  0  0
   39.1307   27.5948   30.0539 H   0  0  0  0  0  0  0  0  0  0  0  0
   37.3406   27.4457   30.0539 H   0  0  0  0  0  0  0  0  0  0  0  0
   38.4354   26.0328   33.7089 H   0  0  0  0  0  0  0  0  0  0  0  0
   38.6996   27.7080   33.1167 H   0  0  0  0  0  0  0  0  0  0  0  0
   37.0463   27.0056   33.1167 H   0  0  0  0  0  0  0  0  0  0  0  0
   39.8547   24.6319   34.2187 H   0  0  0  0  0  0  0  0  0  0  0  0
   37.1415   21.3029   34.6297 H   0  0  0  0  0  0  0  0  0  0  0  0
   37.8381   23.9394   37.8984 H   0  0  0  0  0  0  0  0  0  0  0  0
  1 17  1  0
  2  1  2  0
  3  2  1  0
  4  5  1  0
  4  3  2  0
  5  6  2  0
  6  1  1  0
  7  6  1  0
  8  9  1  0
  8  7  1  0
  9 10  1  0
 11 10  1  0
 11 12  1  0
 11  7  1  0
 12 15  1  0
 13 12  1  0
 14 12  1  0
 16 21  2  0
 17 16  1  0
 17 18  2  0
 18 19  1  0
 19 20  2  0
 21 20  1  0
  2 22  1  0
  3 23  1  0
  4 24  1  0
  5 25  1  0
  7 26  1  1
  8 27  1  0
  8 28  1  0
  9 29  1  0
  9 30  1  0
 10 31  1  0
 10 32  1  0
 11 33  1  6
 13 34  1  0
 13 35  1  0
 13 36  1  0
 14 37  1  0
 14 38  1  0
 14 39  1  0
 15 40  1  0
 15 41  1  0
 15 42  1  0
 16 43  1  0
 18 44  1  0
 20 45  1  0
M  ISO  8  22  14  23  14  24  14  25  14  26  13  27  13  28  13  29  13
M  ISO  8  30  13  31  13  32  13  33  13  34   8  35   8  36   8  37   8
M  ISO  8  38   8  39   8  40   8  41   8  42   8  43  14  44  14  45  14
M  END
>  <minimizedAffinity>  (1) 
-4.28912449

>  <minimizedRMSD>  (1) 
4.82274675

$$$$
