
     RDKit          3D

 35 37  0  0  1  0  0  0  0  0999 V2000
   37.3410   23.4830   32.7490 C   0  0  0  0  0  0  0  0  0  0  0  0
   37.2530   24.8820   32.6140 C   0  0  0  0  0  0  0  0  0  0  0  0
   36.2750   25.3460   31.7500 C   0  0  0  0  0  0  0  0  0  0  0  0
   35.4570   24.4390   31.0840 C   0  0  0  0  0  0  0  0  0  0  0  0
   35.6040   23.0640   31.2710 C   0  0  0  0  0  0  0  0  0  0  0  0
   36.5560   22.5450   32.1140 C   0  0  0  0  0  0  0  0  0  0  0  0
   36.4930   21.1120   32.1540 C   0  0  2  0  0  0  0  0  0  0  0  0
   36.1720   20.4440   30.8220 C   0  0  0  0  0  0  0  0  0  0  0  0
   36.1340   18.9860   31.3100 C   0  0  0  0  0  0  0  0  0  0  0  0
   35.5840   19.0820   32.7360 C   0  0  0  0  0  0  0  0  0  0  0  0
   35.2600   20.5800   32.9090 C   0  0  1  0  0  0  0  0  0  0  0  0
   35.3120   20.9700   34.3360 C   0  0  0  0  0  0  0  0  0  0  0  0
   35.9670   20.2580   35.0650 O   0  0  0  0  0  0  0  0  0  0  0  0
   38.1440   23.0850   35.0530 C   0  0  0  0  0  0  0  0  0  0  0  0
   38.3760   23.0310   33.6520 C   0  0  0  0  0  0  0  0  0  0  0  0
   39.5940   22.5470   33.1850 C   0  0  0  0  0  0  0  0  0  0  0  0
   40.5510   22.1330   34.0370 N   0  0  0  0  0  0  0  0  0  0  0  0
   40.2990   22.1960   35.4030 C   0  0  0  0  0  0  0  0  0  0  0  0
   39.1160   22.6650   35.8950 N   0  0  0  0  0  0  0  0  0  0  0  0
   37.9201   25.5644   33.1612 H   0  0  0  0  0  0  0  0  0  0  0  0
   36.1456   26.4268   31.5911 H   0  0  0  0  0  0  0  0  0  0  0  0
   34.6816   24.8119   30.3987 H   0  0  0  0  0  0  0  0  0  0  0  0
   34.9388   22.3765   30.7280 H   0  0  0  0  0  0  0  0  0  0  0  0
   37.4846   20.8915   32.5761 H   0  0  0  0  0  0  0  0  0  0  0  0
   36.9598   20.6111   30.0727 H   0  0  0  0  0  0  0  0  0  0  0  0
   35.2669   20.8031   30.3103 H   0  0  0  0  0  0  0  0  0  0  0  0
   35.4707   18.3794   30.6759 H   0  0  0  0  0  0  0  0  0  0  0  0
   37.1212   18.5024   31.2706 H   0  0  0  0  0  0  0  0  0  0  0  0
   34.6768   18.4700   32.8475 H   0  0  0  0  0  0  0  0  0  0  0  0
   36.2941   18.7119   33.4902 H   0  0  0  0  0  0  0  0  0  0  0  0
   34.2721   20.9224   32.5672 H   0  0  0  0  0  0  0  0  0  0  0  0
   34.7845   21.8582   34.7140 H   0  0  0  0  0  0  0  0  0  0  0  0
   37.1888   23.4625   35.4467 H   0  0  0  0  0  0  0  0  0  0  0  0
   39.7783   22.5018   32.1015 H   0  0  0  0  0  0  0  0  0  0  0  0
   41.0746   21.8585   36.1062 H   0  0  0  0  0  0  0  0  0  0  0  0
  1 15  1  0
  2  1  2  0
  3  2  1  0
  4  5  1  0
  4  3  2  0
  5  6  2  0
  6  7  1  0
  6  1  1  0
  7 11  1  0
  8  9  1  0
  8  7  1  0
  9 10  1  0
 10 11  1  0
 11 12  1  0
 12 13  2  0
 14 19  2  0
 15 14  1  0
 16 15  2  0
 16 17  1  0
 17 18  2  0
 18 19  1  0
  2 20  1  0
  3 21  1  0
  4 22  1  0
  5 23  1  0
  7 24  1  1
  8 25  1  0
  8 26  1  0
  9 27  1  0
  9 28  1  0
 10 29  1  0
 10 30  1  0
 11 31  1  6
 12 32  1  0
 14 33  1  0
 16 34  1  0
 18 35  1  0
M  ISO  8  20  14  21  14  22  14  23  14  24  13  25  13  26  13  27  13
M  ISO  8  28  13  29  13  30  13  31  13  32   6  33  14  34  14  35  14
M  END
>  <minimizedAffinity>  (1) 
-4.30841351

>  <minimizedRMSD>  (1) 
0.519026816

$$$$
