
     RDKit          3D

 40 43  0  0  1  0  0  0  0  0999 V2000
   36.9470   21.0450   32.7570 C   0  0  2  0  0  0  0  0  0  0  0  0
   36.3850   19.6640   32.5230 C   0  0  0  0  0  0  0  0  0  0  0  0
   34.9040   20.0390   32.3710 C   0  0  0  0  0  0  0  0  0  0  0  0
   34.9240   21.4220   31.7120 C   0  0  0  0  0  0  0  0  0  0  0  0
   36.4150   21.6590   31.4240 C   0  0  1  0  0  0  0  0  0  0  0  0
   39.2290   21.8250   33.6800 C   0  0  0  0  0  0  0  0  0  0  0  0
   40.6400   21.7970   33.6570 C   0  0  0  0  0  0  0  0  0  0  0  0
   41.2040   20.9650   32.7040 C   0  0  0  0  0  0  0  0  0  0  0  0
   40.3880   20.2300   31.8520 C   0  0  0  0  0  0  0  0  0  0  0  0
   39.0050   20.3180   31.9420 C   0  0  0  0  0  0  0  0  0  0  0  0
   38.3780   21.1210   32.8630 C   0  0  0  0  0  0  0  0  0  0  0  0
   38.5820   24.0940   34.4160 C   0  0  0  0  0  0  0  0  0  0  0  0
   38.6660   22.7050   34.6950 C   0  0  0  0  0  0  0  0  0  0  0  0
   38.2200   22.2090   35.9160 C   0  0  0  0  0  0  0  0  0  0  0  0
   37.7090   23.0470   36.8320 N   0  0  0  0  0  0  0  0  0  0  0  0
   37.6280   24.3980   36.5570 C   0  0  0  0  0  0  0  0  0  0  0  0
   38.0580   24.9110   35.3710 N   0  0  0  0  0  0  0  0  0  0  0  0
   36.7400   23.0890   31.3210 C   0  0  0  0  0  0  0  0  0  0  0  0
   37.8170   23.6240   30.6290 C   0  0  0  0  0  0  0  0  0  0  0  0
   37.7520   25.0090   30.7900 C   0  0  0  0  0  0  0  0  0  0  0  0
   36.6570   25.2640   31.5590 N   0  0  0  0  0  0  0  0  0  0  0  0
   36.0700   24.0950   31.8620 N   0  0  0  0  0  0  0  0  0  0  0  0
   36.6600   21.5209   33.7063 H   0  0  0  0  0  0  0  0  0  0  0  0
   36.7904   19.2014   31.6111 H   0  0  0  0  0  0  0  0  0  0  0  0
   36.6103   18.9201   33.3014 H   0  0  0  0  0  0  0  0  0  0  0  0
   34.3823   19.3113   31.7320 H   0  0  0  0  0  0  0  0  0  0  0  0
   34.3724   20.0423   33.3340 H   0  0  0  0  0  0  0  0  0  0  0  0
   34.3385   21.4226   30.7808 H   0  0  0  0  0  0  0  0  0  0  0  0
   34.4794   22.2049   32.3440 H   0  0  0  0  0  0  0  0  0  0  0  0
   36.8103   21.2473   30.4836 H   0  0  0  0  0  0  0  0  0  0  0  0
   41.2505   22.3955   34.3492 H   0  0  0  0  0  0  0  0  0  0  0  0
   42.2980   20.8859   32.6214 H   0  0  0  0  0  0  0  0  0  0  0  0
   40.8429   19.5711   31.0978 H   0  0  0  0  0  0  0  0  0  0  0  0
   38.3897   19.7232   31.2509 H   0  0  0  0  0  0  0  0  0  0  0  0
   38.9306   24.4994   33.4547 H   0  0  0  0  0  0  0  0  0  0  0  0
   38.2860   21.1321   36.1305 H   0  0  0  0  0  0  0  0  0  0  0  0
   37.2062   25.0757   37.3138 H   0  0  0  0  0  0  0  0  0  0  0  0
   38.5760   23.0644   30.0626 H   0  0  0  0  0  0  0  0  0  0  0  0
   38.4502   25.7512   30.3758 H   0  0  0  0  0  0  0  0  0  0  0  0
   36.3341   26.1954   31.8574 H   0  0  0  0  0  0  0  0  0  0  0  0
  1 11  1  0
  2  1  1  0
  3  2  1  0
  4  3  1  0
  5  4  1  0
  5  1  1  0
  6 13  1  0
  7  6  2  0
  8  7  1  0
  9 10  1  0
  9  8  2  0
 10 11  2  0
 11  6  1  0
 12 13  2  0
 12 17  1  0
 13 14  1  0
 14 15  2  0
 16 15  1  0
 17 16  2  0
 18  5  1  0
 18 22  2  0
 19 20  2  0
 19 18  1  0
 20 21  1  0
 21 22  1  0
  1 23  1  1
  2 24  1  0
  2 25  1  0
  3 26  1  0
  3 27  1  0
  4 28  1  0
  4 29  1  0
  5 30  1  6
  7 31  1  0
  8 32  1  0
  9 33  1  0
 10 34  1  0
 12 35  1  0
 14 36  1  0
 16 37  1  0
 19 38  1  0
 20 39  1  0
 21 40  1  0
M  ISO  8  23  13  24  13  25  13  26  13  27  13  28  13  29  13  30  13
M  ISO  8  31  14  32  14  33  14  34  14  35  14  36  14  37  14  38  14
M  ISO  2  39  14  40   9
M  END
>  <minimizedAffinity>  (1) 
-4.60695505

>  <minimizedRMSD>  (1) 
4.08489656

$$$$
