
     RDKit          3D

 34 36  0  0  1  0  0  0  0  0999 V2000
   37.3530   23.4110   32.8140 C   0  0  0  0  0  0  0  0  0  0  0  0
   37.2020   24.8060   32.7450 C   0  0  0  0  0  0  0  0  0  0  0  0
   36.2850   25.2760   31.8220 C   0  0  0  0  0  0  0  0  0  0  0  0
   35.5750   24.3490   31.0270 C   0  0  0  0  0  0  0  0  0  0  0  0
   35.7870   22.9850   31.1610 C   0  0  0  0  0  0  0  0  0  0  0  0
   36.6830   22.4680   32.0620 C   0  0  0  0  0  0  0  0  0  0  0  0
   36.6670   21.0390   32.0110 C   0  0  2  0  0  0  0  0  0  0  0  0
   36.3850   20.4250   30.6620 C   0  0  0  0  0  0  0  0  0  0  0  0
   36.4410   18.9450   31.0630 C   0  0  0  0  0  0  0  0  0  0  0  0
   35.9170   18.9180   32.4980 C   0  0  0  0  0  0  0  0  0  0  0  0
   35.5180   20.3910   32.7960 C   0  0  2  0  0  0  0  0  0  0  0  0
   34.2710   20.6550   32.3510 O   0  0  0  0  0  0  0  0  0  0  0  0
   37.8960   22.6150   35.0850 C   0  0  0  0  0  0  0  0  0  0  0  0
   38.3370   22.9610   33.7820 C   0  0  0  0  0  0  0  0  0  0  0  0
   39.6900   22.8620   33.4630 C   0  0  0  0  0  0  0  0  0  0  0  0
   40.5780   22.4430   34.3820 N   0  0  0  0  0  0  0  0  0  0  0  0
   40.1350   22.1100   35.6500 C   0  0  0  0  0  0  0  0  0  0  0  0
   38.8160   22.1960   35.9870 N   0  0  0  0  0  0  0  0  0  0  0  0
   37.7800   25.4858   33.3882 H   0  0  0  0  0  0  0  0  0  0  0  0
   36.1112   26.3563   31.7087 H   0  0  0  0  0  0  0  0  0  0  0  0
   34.8435   24.7142   30.2911 H   0  0  0  0  0  0  0  0  0  0  0  0
   35.2170   22.2938   30.5228 H   0  0  0  0  0  0  0  0  0  0  0  0
   37.6818   20.8521   32.3921 H   0  0  0  0  0  0  0  0  0  0  0  0
   37.1564   20.6822   29.9212 H   0  0  0  0  0  0  0  0  0  0  0  0
   35.4534   20.7512   30.1764 H   0  0  0  0  0  0  0  0  0  0  0  0
   35.8017   18.3391   30.4041 H   0  0  0  0  0  0  0  0  0  0  0  0
   37.4550   18.5269   30.9798 H   0  0  0  0  0  0  0  0  0  0  0  0
   35.0435   18.2545   32.5803 H   0  0  0  0  0  0  0  0  0  0  0  0
   36.6646   18.5358   33.2086 H   0  0  0  0  0  0  0  0  0  0  0  0
   35.4355   20.7246   33.8410 H   0  0  0  0  0  0  0  0  0  0  0  0
   33.6652   20.7832   33.1235 H   0  0  0  0  0  0  0  0  0  0  0  0
   36.8324   22.6852   35.3567 H   0  0  0  0  0  0  0  0  0  0  0  0
   40.0340   23.1284   32.4527 H   0  0  0  0  0  0  0  0  0  0  0  0
   40.8617   21.7688   36.4019 H   0  0  0  0  0  0  0  0  0  0  0  0
  1 14  1  0
  2  1  2  0
  3  2  1  0
  4  5  1  0
  4  3  2  0
  5  6  2  0
  6  1  1  0
  7  6  1  0
  7 11  1  0
  8  9  1  0
  8  7  1  0
  9 10  1  0
 10 11  1  0
 12 11  1  0
 13 18  2  0
 14 13  1  0
 15 14  2  0
 15 16  1  0
 16 17  2  0
 17 18  1  0
  2 19  1  0
  3 20  1  0
  4 21  1  0
  5 22  1  0
  7 23  1  1
  8 24  1  0
  8 25  1  0
  9 26  1  0
  9 27  1  0
 10 28  1  0
 10 29  1  0
 11 30  1  1
 12 31  1  0
 13 32  1  0
 15 33  1  0
 17 34  1  0
M  ISO  8  19  14  20  14  21  14  22  14  23  13  24  13  25  13  26  13
M  ISO  8  27  13  28  13  29  13  30  13  31   3  32  14  33  14  34  14
M  END
>  <minimizedAffinity>  (1) 
-4.44632196

>  <minimizedRMSD>  (1) 
0.484746248

$$$$
