
     RDKit          3D

 42 44  0  0  1  0  0  0  0  0999 V2000
   39.4680   24.2400   33.5050 C   0  0  0  0  0  0  0  0  0  0  0  0
   40.8630   24.0850   33.5770 C   0  0  0  0  0  0  0  0  0  0  0  0
   41.5580   24.3430   32.4020 C   0  0  0  0  0  0  0  0  0  0  0  0
   40.8660   24.7270   31.2580 C   0  0  0  0  0  0  0  0  0  0  0  0
   39.4790   24.8580   31.2710 C   0  0  0  0  0  0  0  0  0  0  0  0
   38.7310   24.6180   32.4030 C   0  0  0  0  0  0  0  0  0  0  0  0
   37.3360   24.8420   32.1680 C   0  0  2  0  0  0  0  0  0  0  0  0
   36.7260   24.0120   31.0480 C   0  0  0  0  0  0  0  0  0  0  0  0
   35.3090   24.6130   31.0830 C   0  0  0  0  0  0  0  0  0  0  0  0
   35.5250   26.0780   31.4670 C   0  0  0  0  0  0  0  0  0  0  0  0
   37.0470   26.2120   31.5200 C   0  0  1  0  0  0  0  0  0  0  0  0
   37.4960   27.3590   32.3550 C   0  0  0  0  0  0  0  0  0  0  0  0
   37.2590   28.6090   31.5220 C   0  0  0  0  0  0  0  0  0  0  0  0
   36.8090   27.5010   33.6620 C   0  0  0  0  0  0  0  0  0  0  0  0
   38.6360   24.9920   35.7060 C   0  0  0  0  0  0  0  0  0  0  0  0
   38.7670   23.9590   34.7440 C   0  0  0  0  0  0  0  0  0  0  0  0
   38.2270   22.7080   35.0140 C   0  0  0  0  0  0  0  0  0  0  0  0
   37.5840   22.4720   36.1730 N   0  0  0  0  0  0  0  0  0  0  0  0
   37.4680   23.5010   37.0980 C   0  0  0  0  0  0  0  0  0  0  0  0
   37.9870   24.7400   36.8660 N   0  0  0  0  0  0  0  0  0  0  0  0
   41.3714   23.7793   34.5033 H   0  0  0  0  0  0  0  0  0  0  0  0
   42.6532   24.2438   32.3764 H   0  0  0  0  0  0  0  0  0  0  0  0
   41.4214   24.9300   30.3305 H   0  0  0  0  0  0  0  0  0  0  0  0
   38.9645   25.1629   30.3478 H   0  0  0  0  0  0  0  0  0  0  0  0
   36.9433   24.6525   33.1779 H   0  0  0  0  0  0  0  0  0  0  0  0
   36.7281   22.9363   31.2780 H   0  0  0  0  0  0  0  0  0  0  0  0
   37.2444   24.0541   30.0787 H   0  0  0  0  0  0  0  0  0  0  0  0
   34.8294   24.5362   30.0961 H   0  0  0  0  0  0  0  0  0  0  0  0
   34.6488   24.0880   31.7890 H   0  0  0  0  0  0  0  0  0  0  0  0
   35.0972   26.7504   30.7088 H   0  0  0  0  0  0  0  0  0  0  0  0
   35.0376   26.3489   32.4152 H   0  0  0  0  0  0  0  0  0  0  0  0
   37.5568   26.4182   30.5673 H   0  0  0  0  0  0  0  0  0  0  0  0
   38.5512   27.1906   32.6161 H   0  0  0  0  0  0  0  0  0  0  0  0
   37.0960   29.4685   32.1888 H   0  0  0  0  0  0  0  0  0  0  0  0
   38.1372   28.7986   30.8873 H   0  0  0  0  0  0  0  0  0  0  0  0
   36.3723   28.4640   30.8873 H   0  0  0  0  0  0  0  0  0  0  0  0
   37.5341   27.3511   34.4755 H   0  0  0  0  0  0  0  0  0  0  0  0
   36.3735   28.5081   33.7398 H   0  0  0  0  0  0  0  0  0  0  0  0
   36.0099   26.7490   33.7398 H   0  0  0  0  0  0  0  0  0  0  0  0
   39.0580   25.9890   35.5111 H   0  0  0  0  0  0  0  0  0  0  0  0
   38.3258   21.9013   34.2727 H   0  0  0  0  0  0  0  0  0  0  0  0
   36.9422   23.3109   38.0453 H   0  0  0  0  0  0  0  0  0  0  0  0
  1  2  2  0
  1 16  1  0
  3  2  1  0
  4  5  1  0
  4  3  2  0
  5  6  2  0
  6  1  1  0
  7  6  1  0
  8  9  1  0
  8  7  1  0
  9 10  1  0
 10 11  1  0
 11  7  1  0
 11 12  1  0
 12 14  1  0
 13 12  1  0
 15 20  2  0
 16 17  2  0
 16 15  1  0
 17 18  1  0
 18 19  2  0
 20 19  1  0
  2 21  1  0
  3 22  1  0
  4 23  1  0
  5 24  1  0
  7 25  1  1
  8 26  1  0
  8 27  1  0
  9 28  1  0
  9 29  1  0
 10 30  1  0
 10 31  1  0
 11 32  1  6
 12 33  1  0
 13 34  1  0
 13 35  1  0
 13 36  1  0
 14 37  1  0
 14 38  1  0
 14 39  1  0
 15 40  1  0
 17 41  1  0
 19 42  1  0
M  ISO  8  21  14  22  14  23  14  24  14  25  13  26  13  27  13  28  13
M  ISO  8  29  13  30  13  31  13  32  13  33   8  34   8  35   8  36   8
M  ISO  6  37   8  38   8  39   8  40  14  41  14  42  14
M  END
>  <minimizedAffinity>  (1) 
-4.45333242

>  <minimizedRMSD>  (1) 
4.64402914

$$$$
