
     RDKit          3D

 36 38  0  0  0  0  0  0  0  0999 V2000
   38.4080   22.7390   33.8480 C   0  0  0  0  0  0  0  0  0  0  0  0
   37.6800   21.7440   33.2350 C   0  0  0  0  0  0  0  0  0  0  0  0
   37.2200   22.2540   32.0260 C   0  0  0  0  0  0  0  0  0  0  0  0
   37.6690   23.5240   31.9290 N   0  0  0  0  0  0  0  0  0  0  0  0
   38.3770   23.8040   33.0230 N   0  0  0  0  0  0  0  0  0  0  0  0
   40.8900   22.0620   36.4580 C   0  0  0  0  0  0  0  0  0  0  0  0
   40.2520   22.5700   37.6150 C   0  0  0  0  0  0  0  0  0  0  0  0
   38.9880   23.1280   37.4590 C   0  0  0  0  0  0  0  0  0  0  0  0
   38.4380   23.1580   36.2230 N   0  0  0  0  0  0  0  0  0  0  0  0
   39.0810   22.6610   35.1320 C   0  0  0  0  0  0  0  0  0  0  0  0
   40.3120   22.1120   35.2620 N   0  0  0  0  0  0  0  0  0  0  0  0
   38.3880   23.6340   38.6980 C   0  0  0  0  0  0  0  0  0  0  0  0
   37.8430   24.8710   38.4710 F   0  0  0  0  0  0  0  0  0  0  0  0
   39.3980   23.7960   39.6200 F   0  0  0  0  0  0  0  0  0  0  0  0
   37.3680   22.8090   39.1540 F   0  0  0  0  0  0  0  0  0  0  0  0
   37.3750   24.3680   30.7850 C   0  0  0  0  0  0  0  0  0  0  0  0
   36.0670   25.1000   30.9390 C   0  0  0  0  0  0  0  0  0  0  0  0
   36.2400   26.1990   31.9460 C   0  0  0  0  0  0  0  0  0  0  0  0
   37.1950   27.2230   31.4400 C   0  0  0  0  0  0  0  0  0  0  0  0
   38.2040   26.7330   30.4540 C   0  0  0  0  0  0  0  0  0  0  0  0
   38.5290   25.2840   30.5220 C   0  0  0  0  0  0  0  0  0  0  0  0
   37.4964   20.7334   33.6286 H   0  0  0  0  0  0  0  0  0  0  0  0
   36.6045   21.7217   31.2858 H   0  0  0  0  0  0  0  0  0  0  0  0
   41.8904   21.6141   36.5511 H   0  0  0  0  0  0  0  0  0  0  0  0
   40.7381   22.5250   38.6008 H   0  0  0  0  0  0  0  0  0  0  0  0
   37.2443   23.7282   29.8998 H   0  0  0  0  0  0  0  0  0  0  0  0
   35.7682   25.5296   29.9714 H   0  0  0  0  0  0  0  0  0  0  0  0
   35.2876   24.4023   31.2793 H   0  0  0  0  0  0  0  0  0  0  0  0
   35.2659   26.6740   32.1346 H   0  0  0  0  0  0  0  0  0  0  0  0
   36.6385   25.7695   32.8770 H   0  0  0  0  0  0  0  0  0  0  0  0
   36.6113   28.0215   30.9585 H   0  0  0  0  0  0  0  0  0  0  0  0
   37.7689   27.5583   32.3164 H   0  0  0  0  0  0  0  0  0  0  0  0
   39.1353   27.2951   30.6174 H   0  0  0  0  0  0  0  0  0  0  0  0
   37.7523   26.8902   29.4634 H   0  0  0  0  0  0  0  0  0  0  0  0
   38.9778   24.9936   29.5606 H   0  0  0  0  0  0  0  0  0  0  0  0
   39.2029   25.1697   31.3839 H   0  0  0  0  0  0  0  0  0  0  0  0
  1 10  1  0
  2  1  1  0
  3  2  2  0
  4  3  1  0
  4  5  1  0
  5  1  2  0
  6  7  2  0
  8  7  1  0
  8 12  1  0
  9  8  2  0
 10 11  2  0
 10  9  1  0
 11  6  1  0
 12 15  1  0
 12 14  1  0
 13 12  1  0
 16 17  1  0
 16  4  1  0
 17 18  1  0
 19 18  1  0
 20 21  1  0
 20 19  1  0
 21 16  1  0
  2 22  1  0
  3 23  1  0
  6 24  1  0
  7 25  1  0
 16 26  1  0
 17 27  1  0
 17 28  1  0
 18 29  1  0
 18 30  1  0
 19 31  1  0
 19 32  1  0
 20 33  1  0
 20 34  1  0
 21 35  1  0
 21 36  1  0
M  ISO  8  22  14  23  14  24  14  25  14  26  13  27  13  28  13  29  13
M  ISO  7  30  13  31  13  32  13  33  13  34  13  35  13  36  13
M  END
>  <minimizedAffinity>  (1) 
-5.31636953

>  <minimizedRMSD>  (1) 
2.18858862

$$$$
