
     RDKit          3D

 51 54  0  0  1  0  0  0  0  0999 V2000
   37.3240   23.3780   32.6360 C   0  0  0  0  0  0  0  0  0  0  0  0
   37.1830   24.7710   32.4860 C   0  0  0  0  0  0  0  0  0  0  0  0
   36.1280   25.2030   31.7160 C   0  0  0  0  0  0  0  0  0  0  0  0
   35.2720   24.2630   31.1370 C   0  0  0  0  0  0  0  0  0  0  0  0
   35.4650   22.9040   31.3240 C   0  0  0  0  0  0  0  0  0  0  0  0
   36.5120   22.4150   32.0900 C   0  0  0  0  0  0  0  0  0  0  0  0
   36.5130   20.9770   32.1140 C   0  0  2  0  0  0  0  0  0  0  0  0
   36.1130   20.2800   30.8540 C   0  0  0  0  0  0  0  0  0  0  0  0
   36.1750   18.8290   31.3810 C   0  0  0  0  0  0  0  0  0  0  0  0
   35.6610   18.9480   32.8230 C   0  0  0  0  0  0  0  0  0  0  0  0
   35.3280   20.4310   32.9850 C   0  0  1  0  0  0  0  0  0  0  0  0
   35.5470   20.7910   34.3620 N   0  0  0  0  0  0  0  0  0  0  0  0
   38.3190   23.0430   34.8750 C   0  0  0  0  0  0  0  0  0  0  0  0
   38.4460   22.9650   33.4560 C   0  0  0  0  0  0  0  0  0  0  0  0
   39.6200   22.5090   32.8940 C   0  0  0  0  0  0  0  0  0  0  0  0
   40.6460   22.1370   33.6850 N   0  0  0  0  0  0  0  0  0  0  0  0
   40.5120   22.2170   35.0560 C   0  0  0  0  0  0  0  0  0  0  0  0
   39.3570   22.6660   35.6470 N   0  0  0  0  0  0  0  0  0  0  0  0
   41.6320   21.8130   35.9600 C   0  0  0  0  0  0  0  0  0  0  0  0
   42.1650   22.9580   36.7620 C   0  0  0  0  0  0  0  0  0  0  0  0
   43.6530   23.1560   36.5820 C   0  0  0  0  0  0  0  0  0  0  0  0
   43.9770   23.1960   35.1080 C   0  0  0  0  0  0  0  0  0  0  0  0
   43.6940   21.8640   34.5010 C   0  0  0  0  0  0  0  0  0  0  0  0
   42.6540   21.0470   35.1960 C   0  0  0  0  0  0  0  0  0  0  0  0
   37.8804   25.4773   32.9600 H   0  0  0  0  0  0  0  0  0  0  0  0
   35.9600   26.2785   31.5577 H   0  0  0  0  0  0  0  0  0  0  0  0
   34.4287   24.6085   30.5209 H   0  0  0  0  0  0  0  0  0  0  0  0
   34.7693   22.1943   30.8524 H   0  0  0  0  0  0  0  0  0  0  0  0
   37.5518   20.7888   32.4231 H   0  0  0  0  0  0  0  0  0  0  0  0
   36.8265   20.4568   30.0357 H   0  0  0  0  0  0  0  0  0  0  0  0
   35.1550   20.5926   30.4130 H   0  0  0  0  0  0  0  0  0  0  0  0
   35.5281   18.1670   30.7866 H   0  0  0  0  0  0  0  0  0  0  0  0
   37.1837   18.3944   31.3206 H   0  0  0  0  0  0  0  0  0  0  0  0
   34.7634   18.3290   32.9689 H   0  0  0  0  0  0  0  0  0  0  0  0
   36.3981   18.6000   33.5616 H   0  0  0  0  0  0  0  0  0  0  0  0
   34.3146   20.7662   32.7193 H   0  0  0  0  0  0  0  0  0  0  0  0
   35.1166   20.0835   34.9745 H   0  0  0  0  0  0  0  0  0  0  0  0
   36.5590   20.8364   34.5482 H   0  0  0  0  0  0  0  0  0  0  0  0
   37.3867   23.4058   35.3324 H   0  0  0  0  0  0  0  0  0  0  0  0
   39.7191   22.4489   31.8001 H   0  0  0  0  0  0  0  0  0  0  0  0
   41.2448   21.1264   36.7272 H   0  0  0  0  0  0  0  0  0  0  0  0
   41.6477   23.8771   36.4495 H   0  0  0  0  0  0  0  0  0  0  0  0
   41.9868   22.7306   37.8234 H   0  0  0  0  0  0  0  0  0  0  0  0
   43.9568   24.1036   37.0507 H   0  0  0  0  0  0  0  0  0  0  0  0
   44.1951   22.3243   37.0557 H   0  0  0  0  0  0  0  0  0  0  0  0
   43.3582   23.9616   34.6171 H   0  0  0  0  0  0  0  0  0  0  0  0
   45.0405   23.4423   34.9727 H   0  0  0  0  0  0  0  0  0  0  0  0
   43.3601   22.0277   33.4658 H   0  0  0  0  0  0  0  0  0  0  0  0
   44.6299   21.2915   34.5805 H   0  0  0  0  0  0  0  0  0  0  0  0
   42.1295   20.4504   34.4351 H   0  0  0  0  0  0  0  0  0  0  0  0
   43.1954   20.4458   35.9413 H   0  0  0  0  0  0  0  0  0  0  0  0
  1 14  1  0
  2  1  2  0
  3  2  1  0
  4  5  1  0
  4  3  2  0
  5  6  2  0
  6  7  1  0
  6  1  1  0
  7 11  1  0
  8  9  1  0
  8  7  1  0
  9 10  1  0
 10 11  1  0
 11 12  1  0
 13 18  2  0
 14 13  1  0
 15 14  2  0
 15 16  1  0
 16 17  2  0
 17 18  1  0
 17 19  1  0
 19 20  1  0
 21 20  1  0
 22 21  1  0
 23 22  1  0
 23 24  1  0
 24 19  1  0
  2 25  1  0
  3 26  1  0
  4 27  1  0
  5 28  1  0
  7 29  1  1
  8 30  1  0
  8 31  1  0
  9 32  1  0
  9 33  1  0
 10 34  1  0
 10 35  1  0
 11 36  1  6
 12 37  1  0
 12 38  1  0
 13 39  1  0
 15 40  1  0
 19 41  1  0
 20 42  1  0
 20 43  1  0
 21 44  1  0
 21 45  1  0
 22 46  1  0
 22 47  1  0
 23 48  1  0
 23 49  1  0
 24 50  1  0
 24 51  1  0
M  ISO  8  25  14  26  14  27  14  28  14  29  13  30  13  31  13  32  13
M  ISO  8  33  13  34  13  35  13  36  13  37   5  38   5  39  14  40  14
M  ISO  8  41  13  42  13  43  13  44  13  45  13  46  13  47  13  48  13
M  ISO  3  49  13  50  13  51  13
M  END
>  <minimizedAffinity>  (1) 
-5.45679903

>  <minimizedRMSD>  (1) 
0.313269049

$$$$
