
     RDKit          3D

 49 53  0  0  1  0  0  0  0  0999 V2000
   37.1050   24.0290   32.3240 C   0  0  0  0  0  0  0  0  0  0  0  0
   36.8060   25.3860   32.1820 C   0  0  0  0  0  0  0  0  0  0  0  0
   35.6600   25.6880   31.4700 C   0  0  0  0  0  0  0  0  0  0  0  0
   34.8890   24.6520   30.9460 C   0  0  0  0  0  0  0  0  0  0  0  0
   35.2480   23.3280   31.1270 C   0  0  0  0  0  0  0  0  0  0  0  0
   36.3840   22.9710   31.8330 C   0  0  0  0  0  0  0  0  0  0  0  0
   36.5480   21.5400   31.8630 C   0  0  2  0  0  0  0  0  0  0  0  0
   36.1810   20.7900   30.6250 C   0  0  0  0  0  0  0  0  0  0  0  0
   36.4270   19.3590   31.1540 C   0  0  0  0  0  0  0  0  0  0  0  0
   35.9500   19.4330   32.6120 C   0  0  0  0  0  0  0  0  0  0  0  0
   35.4620   20.8710   32.7770 C   0  0  1  0  0  0  0  0  0  0  0  0
   35.6770   21.2690   34.1430 N   0  0  0  0  0  0  0  0  0  0  0  0
   38.2470   23.7630   34.5110 C   0  0  0  0  0  0  0  0  0  0  0  0
   38.3180   23.7480   33.0840 C   0  0  0  0  0  0  0  0  0  0  0  0
   39.5180   23.4730   32.4550 C   0  0  0  0  0  0  0  0  0  0  0  0
   40.6260   23.2160   33.1810 N   0  0  0  0  0  0  0  0  0  0  0  0
   40.5370   23.2350   34.5660 C   0  0  0  0  0  0  0  0  0  0  0  0
   39.3770   23.5000   35.2130 N   0  0  0  0  0  0  0  0  0  0  0  0
   41.7220   22.9590   35.3860 C   0  0  0  0  0  0  0  0  0  0  0  0
   42.0080   21.7980   36.1090 C   0  0  0  0  0  0  0  0  0  0  0  0
   43.1780   21.9380   36.7220 N   0  0  0  0  0  0  0  0  0  0  0  0
   43.6960   23.1470   36.4430 C   0  0  0  0  0  0  0  0  0  0  0  0
   44.8670   23.7690   36.8260 C   0  0  0  0  0  0  0  0  0  0  0  0
   45.1710   25.0480   36.3890 C   0  0  0  0  0  0  0  0  0  0  0  0
   44.2810   25.7240   35.5480 C   0  0  0  0  0  0  0  0  0  0  0  0
   43.1080   25.0770   35.1770 C   0  0  0  0  0  0  0  0  0  0  0  0
   42.7930   23.8080   35.6020 C   0  0  0  0  0  0  0  0  0  0  0  0
   37.4462   26.1702   32.6124 H   0  0  0  0  0  0  0  0  0  0  0  0
   35.3598   26.7354   31.3186 H   0  0  0  0  0  0  0  0  0  0  0  0
   33.9780   24.8913   30.3779 H   0  0  0  0  0  0  0  0  0  0  0  0
   34.6138   22.5380   30.6984 H   0  0  0  0  0  0  0  0  0  0  0  0
   37.6122   21.4745   32.1336 H   0  0  0  0  0  0  0  0  0  0  0  0
   36.8372   21.0389   29.7780 H   0  0  0  0  0  0  0  0  0  0  0  0
   35.1766   20.9881   30.2225 H   0  0  0  0  0  0  0  0  0  0  0  0
   35.8409   18.6225   30.5848 H   0  0  0  0  0  0  0  0  0  0  0  0
   37.4757   19.0404   31.0604 H   0  0  0  0  0  0  0  0  0  0  0  0
   35.1311   18.7207   32.7907 H   0  0  0  0  0  0  0  0  0  0  0  0
   36.7442   19.1740   33.3276 H   0  0  0  0  0  0  0  0  0  0  0  0
   34.4093   21.0872   32.5423 H   0  0  0  0  0  0  0  0  0  0  0  0
   35.2902   20.5529   34.7742 H   0  0  0  0  0  0  0  0  0  0  0  0
   36.6873   21.3698   34.3163 H   0  0  0  0  0  0  0  0  0  0  0  0
   37.3004   23.9822   35.0267 H   0  0  0  0  0  0  0  0  0  0  0  0
   39.5699   23.4636   31.3563 H   0  0  0  0  0  0  0  0  0  0  0  0
   41.3647   20.9073   36.1622 H   0  0  0  0  0  0  0  0  0  0  0  0
   43.6218   21.2273   37.3210 H   0  0  0  0  0  0  0  0  0  0  0  0
   45.5693   23.2414   37.4881 H   0  0  0  0  0  0  0  0  0  0  0  0
   46.1088   25.5301   36.7022 H   0  0  0  0  0  0  0  0  0  0  0  0
   44.5033   26.7401   35.1899 H   0  0  0  0  0  0  0  0  0  0  0  0
   42.4026   25.6020   34.5161 H   0  0  0  0  0  0  0  0  0  0  0  0
  1 14  1  0
  2  1  2  0
  3  2  1  0
  4  5  1  0
  4  3  2  0
  5  6  2  0
  6  7  1  0
  6  1  1  0
  7 11  1  0
  8  9  1  0
  8  7  1  0
  9 10  1  0
 10 11  1  0
 11 12  1  0
 13 18  2  0
 14 13  1  0
 15 14  2  0
 15 16  1  0
 16 17  2  0
 17 18  1  0
 17 19  1  0
 19 27  1  0
 19 20  2  0
 20 21  1  0
 22 21  1  0
 22 23  2  0
 24 23  1  0
 25 24  2  0
 26 25  1  0
 26 27  2  0
 27 22  1  0
  2 28  1  0
  3 29  1  0
  4 30  1  0
  5 31  1  0
  7 32  1  1
  8 33  1  0
  8 34  1  0
  9 35  1  0
  9 36  1  0
 10 37  1  0
 10 38  1  0
 11 39  1  6
 12 40  1  0
 12 41  1  0
 13 42  1  0
 15 43  1  0
 20 44  1  0
 21 45  1  0
 23 46  1  0
 24 47  1  0
 25 48  1  0
 26 49  1  0
M  ISO  8  28  14  29  14  30  14  31  14  32  13  33  13  34  13  35  13
M  ISO  8  36  13  37  13  38  13  39  13  40   5  41   5  42  14  43  14
M  ISO  6  44  14  45   9  46  14  47  14  48  14  49  14
M  END
>  <minimizedAffinity>  (1) 
-5.56815004

>  <minimizedRMSD>  (1) 
1.4046092

$$$$
