
     RDKit          3D

 49 52  0  0  1  0  0  0  0  0999 V2000
   37.4820   23.3210   32.6600 C   0  0  0  0  0  0  0  0  0  0  0  0
   37.3780   24.7220   32.5610 C   0  0  0  0  0  0  0  0  0  0  0  0
   36.2730   25.2140   31.9030 C   0  0  0  0  0  0  0  0  0  0  0  0
   35.3360   24.3180   31.3800 C   0  0  0  0  0  0  0  0  0  0  0  0
   35.4960   22.9500   31.5100 C   0  0  0  0  0  0  0  0  0  0  0  0
   36.5910   22.4070   32.1650 C   0  0  0  0  0  0  0  0  0  0  0  0
   38.5780   22.6680   34.7780 C   0  0  0  0  0  0  0  0  0  0  0  0
   38.6560   22.8460   33.3640 C   0  0  0  0  0  0  0  0  0  0  0  0
   39.8320   22.5700   32.7010 C   0  0  0  0  0  0  0  0  0  0  0  0
   40.9100   22.1320   33.3800 N   0  0  0  0  0  0  0  0  0  0  0  0
   40.8240   21.9640   34.7490 C   0  0  0  0  0  0  0  0  0  0  0  0
   39.6690   22.2300   35.4420 N   0  0  0  0  0  0  0  0  0  0  0  0
   41.9170   21.5110   35.5100 N   0  0  0  0  0  0  0  0  0  0  0  0
   42.3390   22.0930   36.7710 C   0  0  0  0  0  0  0  0  0  0  0  0
   42.0450   21.0610   37.8390 C   0  0  0  0  0  0  0  0  0  0  0  0
   42.4080   19.7330   37.4260 N   0  0  0  0  0  0  0  0  0  0  0  0
   43.3430   19.7360   36.3200 C   0  0  0  0  0  0  0  0  0  0  0  0
   42.7400   20.3930   35.0880 C   0  0  0  0  0  0  0  0  0  0  0  0
   36.5380   20.9660   32.1530 C   0  0  2  0  0  0  0  0  0  0  0  0
   36.0990   20.3170   30.8820 C   0  0  0  0  0  0  0  0  0  0  0  0
   36.0980   18.8510   31.3730 C   0  0  0  0  0  0  0  0  0  0  0  0
   35.6140   18.9520   32.8260 C   0  0  0  0  0  0  0  0  0  0  0  0
   35.3390   20.4430   33.0250 C   0  0  1  0  0  0  0  0  0  0  0  0
   35.5820   20.7650   34.4050 N   0  0  0  0  0  0  0  0  0  0  0  0
   38.1410   25.3896   32.9878 H   0  0  0  0  0  0  0  0  0  0  0  0
   36.1293   26.2987   31.7903 H   0  0  0  0  0  0  0  0  0  0  0  0
   34.4527   24.7090   30.8539 H   0  0  0  0  0  0  0  0  0  0  0  0
   34.7370   22.2774   31.0839 H   0  0  0  0  0  0  0  0  0  0  0  0
   37.6443   22.8841   35.3180 H   0  0  0  0  0  0  0  0  0  0  0  0
   39.8909   22.7081   31.6113 H   0  0  0  0  0  0  0  0  0  0  0  0
   43.4156   22.3171   36.7449 H   0  0  0  0  0  0  0  0  0  0  0  0
   41.8092   23.0359   36.9716 H   0  0  0  0  0  0  0  0  0  0  0  0
   42.6129   21.3177   38.7454 H   0  0  0  0  0  0  0  0  0  0  0  0
   40.9616   21.0711   38.0289 H   0  0  0  0  0  0  0  0  0  0  0  0
   42.8402   19.2450   38.2234 H   0  0  0  0  0  0  0  0  0  0  0  0
   44.2460   20.2901   36.6158 H   0  0  0  0  0  0  0  0  0  0  0  0
   43.5900   18.6933   36.0715 H   0  0  0  0  0  0  0  0  0  0  0  0
   42.1218   19.6630   34.5449 H   0  0  0  0  0  0  0  0  0  0  0  0
   43.5415   20.7486   34.4238 H   0  0  0  0  0  0  0  0  0  0  0  0
   37.5721   20.7308   32.4452 H   0  0  0  0  0  0  0  0  0  0  0  0
   36.8144   20.4808   30.0626 H   0  0  0  0  0  0  0  0  0  0  0  0
   35.1527   20.6827   30.4569 H   0  0  0  0  0  0  0  0  0  0  0  0
   35.4104   18.2371   30.7727 H   0  0  0  0  0  0  0  0  0  0  0  0
   37.0845   18.3724   31.2855 H   0  0  0  0  0  0  0  0  0  0  0  0
   34.6970   18.3627   32.9739 H   0  0  0  0  0  0  0  0  0  0  0  0
   36.3488   18.5588   33.5439 H   0  0  0  0  0  0  0  0  0  0  0  0
   34.3361   20.8205   32.7768 H   0  0  0  0  0  0  0  0  0  0  0  0
   35.0786   20.0979   35.0070 H   0  0  0  0  0  0  0  0  0  0  0  0
   36.5921   20.7073   34.5983 H   0  0  0  0  0  0  0  0  0  0  0  0
  1  8  1  0
  2  1  2  0
  3  2  1  0
  4  5  1  0
  4  3  2  0
  5  6  2  0
  6  1  1  0
  7 12  2  0
  8  7  1  0
  9  8  2  0
  9 10  1  0
 10 11  2  0
 11 12  1  0
 11 13  1  0
 13 14  1  0
 14 15  1  0
 16 15  1  0
 17 16  1  0
 18 13  1  0
 18 17  1  0
 19  6  1  0
 19 23  1  0
 20 21  1  0
 20 19  1  0
 21 22  1  0
 22 23  1  0
 23 24  1  0
  2 25  1  0
  3 26  1  0
  4 27  1  0
  5 28  1  0
  7 29  1  0
  9 30  1  0
 14 31  1  0
 14 32  1  0
 15 33  1  0
 15 34  1  0
 16 35  1  0
 17 36  1  0
 17 37  1  0
 18 38  1  0
 18 39  1  0
 19 40  1  1
 20 41  1  0
 20 42  1  0
 21 43  1  0
 21 44  1  0
 22 45  1  0
 22 46  1  0
 23 47  1  6
 24 48  1  0
 24 49  1  0
M  ISO  8  25  14  26  14  27  14  28  14  29  14  30  14  31  13  32  13
M  ISO  8  33  13  34  13  35   5  36  13  37  13  38  13  39  13  40  13
M  ISO  8  41  13  42  13  43  13  44  13  45  13  46  13  47  13  48   5
M  ISO  1  49   5
M  END
>  <minimizedAffinity>  (1) 
-5.66518831

>  <minimizedRMSD>  (1) 
0.60268873

$$$$
