
     RDKit          3D

 36 39  0  0  0  0  0  0  0  0999 V2000
   38.0300   23.9290   34.0950 C   0  0  0  0  0  0  0  0  0  0  0  0
   38.8920   23.0010   34.6740 C   0  0  0  0  0  0  0  0  0  0  0  0
   38.6960   21.7910   34.0110 C   0  0  0  0  0  0  0  0  0  0  0  0
   37.7460   22.0040   33.0690 N   0  0  0  0  0  0  0  0  0  0  0  0
   37.3610   23.2850   33.1350 N   0  0  0  0  0  0  0  0  0  0  0  0
   37.2990   20.9710   32.2020 C   0  0  0  0  0  0  0  0  0  0  0  0
   36.2430   20.1880   32.6600 C   0  0  0  0  0  0  0  0  0  0  0  0
   35.6810   19.1420   31.9530 C   0  0  0  0  0  0  0  0  0  0  0  0
   36.2050   18.8540   30.7030 C   0  0  0  0  0  0  0  0  0  0  0  0
   37.2580   19.6200   30.2210 C   0  0  0  0  0  0  0  0  0  0  0  0
   37.7640   19.3180   28.9760 C   0  0  0  0  0  0  0  0  0  0  0  0
   38.8240   20.0990   28.5060 C   0  0  0  0  0  0  0  0  0  0  0  0
   39.3530   21.1430   29.2630 C   0  0  0  0  0  0  0  0  0  0  0  0
   38.8410   21.4400   30.5090 C   0  0  0  0  0  0  0  0  0  0  0  0
   37.7950   20.6580   30.9560 C   0  0  0  0  0  0  0  0  0  0  0  0
   38.2970   27.0770   35.9490 C   0  0  0  0  0  0  0  0  0  0  0  0
   37.5890   27.9720   35.1010 C   0  0  0  0  0  0  0  0  0  0  0  0
   37.0510   27.4550   33.9300 C   0  0  0  0  0  0  0  0  0  0  0  0
   37.2160   26.1470   33.6420 N   0  0  0  0  0  0  0  0  0  0  0  0
   37.8970   25.3240   34.4750 C   0  0  0  0  0  0  0  0  0  0  0  0
   38.4330   25.8010   35.6260 N   0  0  0  0  0  0  0  0  0  0  0  0
   36.3360   28.4430   33.1080 C   0  0  0  0  0  0  0  0  0  0  0  0
   37.1860   28.9320   32.1420 F   0  0  0  0  0  0  0  0  0  0  0  0
   36.0210   29.5130   33.9280 F   0  0  0  0  0  0  0  0  0  0  0  0
   35.2400   27.9020   32.4690 F   0  0  0  0  0  0  0  0  0  0  0  0
   39.5950   23.1879   35.4991 H   0  0  0  0  0  0  0  0  0  0  0  0
   39.2146   20.8424   34.2141 H   0  0  0  0  0  0  0  0  0  0  0  0
   35.8276   20.4175   33.6523 H   0  0  0  0  0  0  0  0  0  0  0  0
   34.8464   18.5581   32.3683 H   0  0  0  0  0  0  0  0  0  0  0  0
   35.7928   18.0306   30.1013 H   0  0  0  0  0  0  0  0  0  0  0  0
   37.3503   18.4947   28.3752 H   0  0  0  0  0  0  0  0  0  0  0  0
   39.2508   19.8845   27.5151 H   0  0  0  0  0  0  0  0  0  0  0  0
   40.1880   21.7366   28.8624 H   0  0  0  0  0  0  0  0  0  0  0  0
   39.2471   22.2613   31.1177 H   0  0  0  0  0  0  0  0  0  0  0  0
   38.7373   27.4500   36.8855 H   0  0  0  0  0  0  0  0  0  0  0  0
   37.4719   29.0340   35.3627 H   0  0  0  0  0  0  0  0  0  0  0  0
  1 20  1  0
  1  2  1  0
  3  2  2  0
  4  5  1  0
  4  3  1  0
  5  1  2  0
  6  7  2  0
  6  4  1  0
  8  7  1  0
  9  8  2  0
 10  9  1  0
 10 15  2  0
 11 10  1  0
 12 11  2  0
 12 13  1  0
 13 14  2  0
 14 15  1  0
 15  6  1  0
 17 16  2  0
 18 17  1  0
 19 18  2  0
 19 20  1  0
 20 21  2  0
 21 16  1  0
 22 24  1  0
 22 18  1  0
 23 22  1  0
 25 22  1  0
  2 26  1  0
  3 27  1  0
  7 28  1  0
  8 29  1  0
  9 30  1  0
 11 31  1  0
 12 32  1  0
 13 33  1  0
 14 34  1  0
 16 35  1  0
 17 36  1  0
M  ISO  8  26  14  27  14  28  14  29  14  30  14  31  14  32  14  33  14
M  ISO  3  34  14  35  14  36  14
M  END
>  <minimizedAffinity>  (1) 
-5.19364977

>  <minimizedRMSD>  (1) 
5.64788294

$$$$
