
     RDKit          3D

 38 40  0  0  1  0  0  0  0  0999 V2000
   37.3760   23.2490   32.9720 C   0  0  0  0  0  0  0  0  0  0  0  0
   37.2340   24.6360   32.7920 C   0  0  0  0  0  0  0  0  0  0  0  0
   36.2770   25.0460   31.8780 C   0  0  0  0  0  0  0  0  0  0  0  0
   35.5270   24.0820   31.2030 C   0  0  0  0  0  0  0  0  0  0  0  0
   35.7180   22.7300   31.4260 C   0  0  0  0  0  0  0  0  0  0  0  0
   36.6620   22.2710   32.3320 C   0  0  0  0  0  0  0  0  0  0  0  0
   36.6850   20.8300   32.3700 C   0  0  2  0  0  0  0  0  0  0  0  0
   36.4880   20.1140   31.0770 C   0  0  0  0  0  0  0  0  0  0  0  0
   36.4810   18.6680   31.6200 C   0  0  0  0  0  0  0  0  0  0  0  0
   35.7690   18.7940   32.9740 C   0  0  0  0  0  0  0  0  0  0  0  0
   35.3870   20.2730   33.0630 C   0  0  1  0  0  0  0  0  0  0  0  0
   35.3890   20.6510   34.4500 N   0  0  0  0  0  0  0  0  0  0  0  0
   38.0170   22.7970   35.3180 C   0  0  0  0  0  0  0  0  0  0  0  0
   38.3810   22.8640   33.9390 C   0  0  0  0  0  0  0  0  0  0  0  0
   39.6720   22.5690   33.5600 C   0  0  0  0  0  0  0  0  0  0  0  0
   40.5910   22.2190   34.4810 N   0  0  0  0  0  0  0  0  0  0  0  0
   40.2270   22.1580   35.8170 C   0  0  0  0  0  0  0  0  0  0  0  0
   38.9480   22.4450   36.2270 N   0  0  0  0  0  0  0  0  0  0  0  0
   41.3340   21.7580   36.7310 C   0  0  0  0  0  0  0  0  0  0  0  0
   40.8770   21.5440   38.0170 F   0  0  0  0  0  0  0  0  0  0  0  0
   42.3020   22.7540   36.8510 F   0  0  0  0  0  0  0  0  0  0  0  0
   41.9790   20.6090   36.3200 F   0  0  0  0  0  0  0  0  0  0  0  0
   37.8504   25.3579   33.3477 H   0  0  0  0  0  0  0  0  0  0  0  0
   36.1107   26.1164   31.6870 H   0  0  0  0  0  0  0  0  0  0  0  0
   34.7663   24.4045   30.4768 H   0  0  0  0  0  0  0  0  0  0  0  0
   35.1069   22.0024   30.8718 H   0  0  0  0  0  0  0  0  0  0  0  0
   37.6706   20.6626   32.8289 H   0  0  0  0  0  0  0  0  0  0  0  0
   37.3162   20.2898   30.3747 H   0  0  0  0  0  0  0  0  0  0  0  0
   35.6037   20.4115   30.4943 H   0  0  0  0  0  0  0  0  0  0  0  0
   35.9271   17.9981   30.9459 H   0  0  0  0  0  0  0  0  0  0  0  0
   37.4902   18.2391   31.7062 H   0  0  0  0  0  0  0  0  0  0  0  0
   34.8725   18.1573   33.0037 H   0  0  0  0  0  0  0  0  0  0  0  0
   36.4022   18.4718   33.8138 H   0  0  0  0  0  0  0  0  0  0  0  0
   34.4197   20.5873   32.6440 H   0  0  0  0  0  0  0  0  0  0  0  0
   35.3845   19.8044   35.0366 H   0  0  0  0  0  0  0  0  0  0  0  0
   36.2329   21.2053   34.6536 H   0  0  0  0  0  0  0  0  0  0  0  0
   36.9896   23.0297   35.6347 H   0  0  0  0  0  0  0  0  0  0  0  0
   39.9546   22.6195   32.4981 H   0  0  0  0  0  0  0  0  0  0  0  0
  1 14  1  0
  2  1  2  0
  3  2  1  0
  4  5  1  0
  4  3  2  0
  5  6  2  0
  6  7  1  0
  6  1  1  0
  7 11  1  0
  8  9  1  0
  8  7  1  0
  9 10  1  0
 10 11  1  0
 11 12  1  0
 13 18  2  0
 14 13  1  0
 15 14  2  0
 15 16  1  0
 16 17  2  0
 17 18  1  0
 17 19  1  0
 19 21  1  0
 19 20  1  0
 22 19  1  0
  2 23  1  0
  3 24  1  0
  4 25  1  0
  5 26  1  0
  7 27  1  1
  8 28  1  0
  8 29  1  0
  9 30  1  0
  9 31  1  0
 10 32  1  0
 10 33  1  0
 11 34  1  6
 12 35  1  0
 12 36  1  0
 13 37  1  0
 15 38  1  0
M  ISO  8  23  14  24  14  25  14  26  14  27  13  28  13  29  13  30  13
M  ISO  8  31  13  32  13  33  13  34  13  35   5  36   5  37  14  38  14
M  END
>  <minimizedAffinity>  (1) 
-5.44425583

>  <minimizedRMSD>  (1) 
0.451017588

$$$$
