
     RDKit          3D

 49 53  0  0  1  0  0  0  0  0999 V2000
   37.3670   23.6460   32.2060 C   0  0  0  0  0  0  0  0  0  0  0  0
   37.1720   25.0260   32.0970 C   0  0  0  0  0  0  0  0  0  0  0  0
   35.9580   25.4380   31.5750 C   0  0  0  0  0  0  0  0  0  0  0  0
   35.0190   24.4750   31.1930 C   0  0  0  0  0  0  0  0  0  0  0  0
   35.2790   23.1230   31.3290 C   0  0  0  0  0  0  0  0  0  0  0  0
   36.4720   22.6580   31.8440 C   0  0  0  0  0  0  0  0  0  0  0  0
   36.5110   21.2180   31.8670 C   0  0  2  0  0  0  0  0  0  0  0  0
   36.0420   20.5160   30.6340 C   0  0  0  0  0  0  0  0  0  0  0  0
   36.1620   19.0650   31.1580 C   0  0  0  0  0  0  0  0  0  0  0  0
   35.7570   19.1700   32.6390 C   0  0  0  0  0  0  0  0  0  0  0  0
   35.4090   20.6530   32.8310 C   0  0  1  0  0  0  0  0  0  0  0  0
   35.7040   21.0170   34.1790 N   0  0  0  0  0  0  0  0  0  0  0  0
   38.7600   23.0230   34.1490 C   0  0  0  0  0  0  0  0  0  0  0  0
   38.6470   23.2580   32.7660 C   0  0  0  0  0  0  0  0  0  0  0  0
   39.7670   23.1130   31.9800 C   0  0  0  0  0  0  0  0  0  0  0  0
   40.9400   22.7550   32.5140 N   0  0  0  0  0  0  0  0  0  0  0  0
   41.0530   22.5260   33.8490 C   0  0  0  0  0  0  0  0  0  0  0  0
   39.9680   22.6630   34.6390 N   0  0  0  0  0  0  0  0  0  0  0  0
   42.2070   22.1290   34.6700 C   0  0  0  0  0  0  0  0  0  0  0  0
   42.5680   20.8570   34.9410 N   0  0  0  0  0  0  0  0  0  0  0  0
   43.6000   20.4790   35.6750 C   0  0  0  0  0  0  0  0  0  0  0  0
   44.4120   21.3930   36.2380 N   0  0  0  0  0  0  0  0  0  0  0  0
   44.1540   22.7170   36.0390 C   0  0  0  0  0  0  0  0  0  0  0  0
   45.0010   23.6250   36.6270 C   0  0  0  0  0  0  0  0  0  0  0  0
   44.7770   24.9680   36.4510 C   0  0  0  0  0  0  0  0  0  0  0  0
   43.6790   25.3410   35.6700 C   0  0  0  0  0  0  0  0  0  0  0  0
   42.8840   24.3780   35.1200 C   0  0  0  0  0  0  0  0  0  0  0  0
   43.0620   23.0300   35.2630 C   0  0  0  0  0  0  0  0  0  0  0  0
   37.9424   25.7463   32.4095 H   0  0  0  0  0  0  0  0  0  0  0  0
   35.7349   26.5092   31.4622 H   0  0  0  0  0  0  0  0  0  0  0  0
   34.0541   24.7989   30.7759 H   0  0  0  0  0  0  0  0  0  0  0  0
   34.5128   22.3977   31.0177 H   0  0  0  0  0  0  0  0  0  0  0  0
   37.5725   21.0453   32.0978 H   0  0  0  0  0  0  0  0  0  0  0  0
   36.6986   20.7038   29.7716 H   0  0  0  0  0  0  0  0  0  0  0  0
   35.0534   20.8133   30.2541 H   0  0  0  0  0  0  0  0  0  0  0  0
   35.4811   18.3947   30.6129 H   0  0  0  0  0  0  0  0  0  0  0  0
   37.1710   18.6480   31.0233 H   0  0  0  0  0  0  0  0  0  0  0  0
   34.8847   18.5342   32.8508 H   0  0  0  0  0  0  0  0  0  0  0  0
   36.5540   18.8332   33.3183 H   0  0  0  0  0  0  0  0  0  0  0  0
   34.3733   20.9730   32.6438 H   0  0  0  0  0  0  0  0  0  0  0  0
   35.1974   20.3919   34.8221 H   0  0  0  0  0  0  0  0  0  0  0  0
   36.7171   20.9314   34.3439 H   0  0  0  0  0  0  0  0  0  0  0  0
   37.8896   23.1292   34.8132 H   0  0  0  0  0  0  0  0  0  0  0  0
   39.6968   23.2940   30.8973 H   0  0  0  0  0  0  0  0  0  0  0  0
   43.7972   19.4076   35.8272 H   0  0  0  0  0  0  0  0  0  0  0  0
   45.8510   23.2790   37.2334 H   0  0  0  0  0  0  0  0  0  0  0  0
   45.4360   25.7216   36.9069 H   0  0  0  0  0  0  0  0  0  0  0  0
   43.4572   26.4049   35.4998 H   0  0  0  0  0  0  0  0  0  0  0  0
   42.0307   24.7134   34.5123 H   0  0  0  0  0  0  0  0  0  0  0  0
  1 14  1  0
  2  1  2  0
  3  2  1  0
  4  5  1  0
  4  3  2  0
  5  6  2  0
  6  7  1  0
  6  1  1  0
  7 11  1  0
  8  9  1  0
  8  7  1  0
  9 10  1  0
 10 11  1  0
 11 12  1  0
 13 18  2  0
 14 13  1  0
 15 16  1  0
 15 14  2  0
 16 17  2  0
 17 18  1  0
 17 19  1  0
 19 20  2  0
 19 28  1  0
 20 21  1  0
 21 22  2  0
 23 22  1  0
 23 24  2  0
 25 24  1  0
 26 25  2  0
 27 28  2  0
 27 26  1  0
 28 23  1  0
  2 29  1  0
  3 30  1  0
  4 31  1  0
  5 32  1  0
  7 33  1  1
  8 34  1  0
  8 35  1  0
  9 36  1  0
  9 37  1  0
 10 38  1  0
 10 39  1  0
 11 40  1  6
 12 41  1  0
 12 42  1  0
 13 43  1  0
 15 44  1  0
 21 45  1  0
 24 46  1  0
 25 47  1  0
 26 48  1  0
 27 49  1  0
M  ISO  8  29  14  30  14  31  14  32  14  33  13  34  13  35  13  36  13
M  ISO  8  37  13  38  13  39  13  40  13  41   5  42   5  43  14  44  14
M  ISO  5  45  14  46  14  47  14  48  14  49  14
M  END
>  <minimizedAffinity>  (1) 
-5.40452957

>  <minimizedRMSD>  (1) 
2.54318023

$$$$
