
     RDKit          3D

 42 45  0  0  1  0  0  0  0  0999 V2000
   37.3090   23.4000   32.8750 C   0  0  0  0  0  0  0  0  0  0  0  0
   37.2240   24.7830   32.7070 C   0  0  0  0  0  0  0  0  0  0  0  0
   36.2920   25.2340   31.7810 C   0  0  0  0  0  0  0  0  0  0  0  0
   35.5170   24.3040   31.0910 C   0  0  0  0  0  0  0  0  0  0  0  0
   35.6640   22.9340   31.3190 C   0  0  0  0  0  0  0  0  0  0  0  0
   36.5710   22.4450   32.2220 C   0  0  0  0  0  0  0  0  0  0  0  0
   36.5530   21.0090   32.2440 C   0  0  2  0  0  0  0  0  0  0  0  0
   36.2260   20.3080   30.9590 C   0  0  0  0  0  0  0  0  0  0  0  0
   36.1950   18.8550   31.4870 C   0  0  0  0  0  0  0  0  0  0  0  0
   35.6510   18.9830   32.9140 C   0  0  0  0  0  0  0  0  0  0  0  0
   35.3270   20.4740   33.0650 C   0  0  1  0  0  0  0  0  0  0  0  0
   35.4890   20.8310   34.4450 N   0  0  0  0  0  0  0  0  0  0  0  0
   38.0410   23.2180   35.2390 C   0  0  0  0  0  0  0  0  0  0  0  0
   38.2980   22.9700   33.8570 C   0  0  0  0  0  0  0  0  0  0  0  0
   39.4640   22.3330   33.4800 C   0  0  0  0  0  0  0  0  0  0  0  0
   40.3590   21.9430   34.4080 N   0  0  0  0  0  0  0  0  0  0  0  0
   40.0920   22.1920   35.7430 C   0  0  0  0  0  0  0  0  0  0  0  0
   38.9600   22.8140   36.1510 N   0  0  0  0  0  0  0  0  0  0  0  0
   41.0460   21.7840   36.8230 C   0  0  0  0  0  0  0  0  0  0  0  0
   42.3650   22.4960   36.9320 C   0  0  0  0  0  0  0  0  0  0  0  0
   42.3070   21.0910   36.4650 C   0  0  0  0  0  0  0  0  0  0  0  0
   37.8597   25.4772   33.2762 H   0  0  0  0  0  0  0  0  0  0  0  0
   36.1674   26.3110   31.5949 H   0  0  0  0  0  0  0  0  0  0  0  0
   34.7780   24.6543   30.3554 H   0  0  0  0  0  0  0  0  0  0  0  0
   35.0341   22.2279   30.7580 H   0  0  0  0  0  0  0  0  0  0  0  0
   37.5731   20.8110   32.6048 H   0  0  0  0  0  0  0  0  0  0  0  0
   37.0060   20.4549   30.1974 H   0  0  0  0  0  0  0  0  0  0  0  0
   35.3126   20.6491   30.4496 H   0  0  0  0  0  0  0  0  0  0  0  0
   35.5310   18.2306   30.8712 H   0  0  0  0  0  0  0  0  0  0  0  0
   37.1842   18.3749   31.4555 H   0  0  0  0  0  0  0  0  0  0  0  0
   34.7448   18.3727   33.0415 H   0  0  0  0  0  0  0  0  0  0  0  0
   36.3683   18.6307   33.6699 H   0  0  0  0  0  0  0  0  0  0  0  0
   34.3289   20.8196   32.7577 H   0  0  0  0  0  0  0  0  0  0  0  0
   35.1418   20.0658   35.0406 H   0  0  0  0  0  0  0  0  0  0  0  0
   36.4866   20.9942   34.6426 H   0  0  0  0  0  0  0  0  0  0  0  0
   37.1183   23.7254   35.5572 H   0  0  0  0  0  0  0  0  0  0  0  0
   39.6631   22.1429   32.4150 H   0  0  0  0  0  0  0  0  0  0  0  0
   40.2099   21.5703   37.5051 H   0  0  0  0  0  0  0  0  0  0  0  0
   42.6165   23.3014   36.2263 H   0  0  0  0  0  0  0  0  0  0  0  0
   42.8991   23.0314   37.7308 H   0  0  0  0  0  0  0  0  0  0  0  0
   42.6898   20.2843   37.1075 H   0  0  0  0  0  0  0  0  0  0  0  0
   42.6691   20.5578   35.5736 H   0  0  0  0  0  0  0  0  0  0  0  0
  1 14  1  0
  2  1  2  0
  3  2  1  0
  4  5  1  0
  4  3  2  0
  5  6  2  0
  6  7  1  0
  6  1  1  0
  7 11  1  0
  8  9  1  0
  8  7  1  0
  9 10  1  0
 10 11  1  0
 11 12  1  0
 13 18  2  0
 14 13  1  0
 15 14  2  0
 15 16  1  0
 16 17  2  0
 17 18  1  0
 17 19  1  0
 19 20  1  0
 21 19  1  0
 21 20  1  0
  2 22  1  0
  3 23  1  0
  4 24  1  0
  5 25  1  0
  7 26  1  1
  8 27  1  0
  8 28  1  0
  9 29  1  0
  9 30  1  0
 10 31  1  0
 10 32  1  0
 11 33  1  6
 12 34  1  0
 12 35  1  0
 13 36  1  0
 15 37  1  0
 19 38  1  0
 20 39  1  0
 20 40  1  0
 21 41  1  0
 21 42  1  0
M  ISO  8  22  14  23  14  24  14  25  14  26  13  27  13  28  13  29  13
M  ISO  8  30  13  31  13  32  13  33  13  34   5  35   5  36  14  37  14
M  ISO  5  38  13  39  13  40  13  41  13  42  13
M  END
>  <minimizedAffinity>  (1) 
-5.33480501

>  <minimizedRMSD>  (1) 
0.38252461

$$$$
