
     RDKit          3D

 42 45  0  0  1  0  0  0  0  0999 V2000
   37.3220   23.4070   32.7100 C   0  0  0  0  0  0  0  0  0  0  0  0
   37.2440   24.8030   32.6250 C   0  0  0  0  0  0  0  0  0  0  0  0
   36.2260   25.3100   31.8420 C   0  0  0  0  0  0  0  0  0  0  0  0
   35.3550   24.4270   31.1940 C   0  0  0  0  0  0  0  0  0  0  0  0
   35.5080   23.0510   31.3360 C   0  0  0  0  0  0  0  0  0  0  0  0
   36.4990   22.5010   32.1000 C   0  0  0  0  0  0  0  0  0  0  0  0
   38.2170   22.8040   34.9400 C   0  0  0  0  0  0  0  0  0  0  0  0
   38.4140   22.9170   33.5470 C   0  0  0  0  0  0  0  0  0  0  0  0
   39.6380   22.5660   32.9930 C   0  0  0  0  0  0  0  0  0  0  0  0
   40.6350   22.1200   33.7810 N   0  0  0  0  0  0  0  0  0  0  0  0
   40.4200   22.0170   35.1420 C   0  0  0  0  0  0  0  0  0  0  0  0
   39.2330   22.3520   35.7130 N   0  0  0  0  0  0  0  0  0  0  0  0
   41.5360   21.5350   35.8840 N   0  0  0  0  0  0  0  0  0  0  0  0
   41.6310   21.1480   37.1400 N   0  0  0  0  0  0  0  0  0  0  0  0
   42.9130   20.7660   37.4040 C   0  0  0  0  0  0  0  0  0  0  0  0
   43.6200   20.9410   36.2140 C   0  0  0  0  0  0  0  0  0  0  0  0
   42.7310   21.4260   35.2770 C   0  0  0  0  0  0  0  0  0  0  0  0
   36.4640   21.0660   32.0430 C   0  0  2  0  0  0  0  0  0  0  0  0
   36.0890   20.4410   30.7320 C   0  0  0  0  0  0  0  0  0  0  0  0
   36.0650   18.9620   31.1870 C   0  0  0  0  0  0  0  0  0  0  0  0
   35.5500   19.0180   32.6260 C   0  0  0  0  0  0  0  0  0  0  0  0
   35.2550   20.5020   32.8700 C   0  0  1  0  0  0  0  0  0  0  0  0
   35.4580   20.7860   34.2620 N   0  0  0  0  0  0  0  0  0  0  0  0
   37.9533   25.4580   33.1520 H   0  0  0  0  0  0  0  0  0  0  0  0
   36.1009   26.3970   31.7287 H   0  0  0  0  0  0  0  0  0  0  0  0
   34.5427   24.8237   30.5672 H   0  0  0  0  0  0  0  0  0  0  0  0
   34.8067   22.3825   30.8151 H   0  0  0  0  0  0  0  0  0  0  0  0
   37.2523   23.0791   35.3912 H   0  0  0  0  0  0  0  0  0  0  0  0
   39.7937   22.6525   31.9075 H   0  0  0  0  0  0  0  0  0  0  0  0
   43.3093   20.3952   38.3608 H   0  0  0  0  0  0  0  0  0  0  0  0
   44.6877   20.7313   36.0528 H   0  0  0  0  0  0  0  0  0  0  0  0
   42.9572   21.6765   34.2301 H   0  0  0  0  0  0  0  0  0  0  0  0
   37.4918   20.8359   32.3603 H   0  0  0  0  0  0  0  0  0  0  0  0
   36.8445   20.6238   29.9537 H   0  0  0  0  0  0  0  0  0  0  0  0
   35.1638   20.8154   30.2696 H   0  0  0  0  0  0  0  0  0  0  0  0
   35.3879   18.3703   30.5535 H   0  0  0  0  0  0  0  0  0  0  0  0
   37.0524   18.4831   31.1122 H   0  0  0  0  0  0  0  0  0  0  0  0
   34.6355   18.4166   32.7354 H   0  0  0  0  0  0  0  0  0  0  0  0
   36.2754   18.6116   33.3462 H   0  0  0  0  0  0  0  0  0  0  0  0
   34.2528   20.8751   32.6123 H   0  0  0  0  0  0  0  0  0  0  0  0
   34.9588   20.0876   34.8312 H   0  0  0  0  0  0  0  0  0  0  0  0
   36.4646   20.7480   34.4769 H   0  0  0  0  0  0  0  0  0  0  0  0
  1  8  1  0
  2  1  2  0
  3  2  1  0
  4  5  1  0
  4  3  2  0
  5  6  2  0
  6  1  1  0
  7 12  2  0
  8  7  1  0
  9  8  2  0
  9 10  1  0
 10 11  2  0
 11 12  1  0
 11 13  1  0
 13 14  1  0
 14 15  2  0
 16 15  1  0
 17 13  1  0
 17 16  2  0
 18  6  1  0
 18 22  1  0
 19 20  1  0
 19 18  1  0
 20 21  1  0
 21 22  1  0
 22 23  1  0
  2 24  1  0
  3 25  1  0
  4 26  1  0
  5 27  1  0
  7 28  1  0
  9 29  1  0
 15 30  1  0
 16 31  1  0
 17 32  1  0
 18 33  1  1
 19 34  1  0
 19 35  1  0
 20 36  1  0
 20 37  1  0
 21 38  1  0
 21 39  1  0
 22 40  1  6
 23 41  1  0
 23 42  1  0
M  ISO  8  24  14  25  14  26  14  27  14  28  14  29  14  30  14  31  14
M  ISO  8  32  14  33  13  34  13  35  13  36  13  37  13  38  13  39  13
M  ISO  3  40  13  41   5  42   5
M  END
>  <minimizedAffinity>  (1) 
-5.36492395

>  <minimizedRMSD>  (1) 
0.165337265

$$$$
