
     RDKit          3D

 42 45  0  0  1  0  0  0  0  0999 V2000
   37.3210   23.4210   32.6770 C   0  0  0  0  0  0  0  0  0  0  0  0
   37.2420   24.8180   32.6110 C   0  0  0  0  0  0  0  0  0  0  0  0
   36.2120   25.3340   31.8520 C   0  0  0  0  0  0  0  0  0  0  0  0
   35.3280   24.4660   31.2080 C   0  0  0  0  0  0  0  0  0  0  0  0
   35.4800   23.0820   31.3290 C   0  0  0  0  0  0  0  0  0  0  0  0
   36.4860   22.5240   32.0700 C   0  0  0  0  0  0  0  0  0  0  0  0
   36.4460   21.0890   32.0010 C   0  0  2  0  0  0  0  0  0  0  0  0
   36.0690   20.4800   30.6820 C   0  0  0  0  0  0  0  0  0  0  0  0
   36.0300   18.9960   31.1210 C   0  0  0  0  0  0  0  0  0  0  0  0
   35.5220   19.0420   32.5670 C   0  0  0  0  0  0  0  0  0  0  0  0
   35.2380   20.5230   32.8260 C   0  0  1  0  0  0  0  0  0  0  0  0
   35.4510   20.7860   34.2210 N   0  0  0  0  0  0  0  0  0  0  0  0
   38.2230   22.7630   34.8930 C   0  0  0  0  0  0  0  0  0  0  0  0
   38.4220   22.9180   33.4940 C   0  0  0  0  0  0  0  0  0  0  0  0
   39.6420   22.5960   32.9390 C   0  0  0  0  0  0  0  0  0  0  0  0
   40.6400   22.1370   33.7200 N   0  0  0  0  0  0  0  0  0  0  0  0
   40.4320   21.9920   35.0800 C   0  0  0  0  0  0  0  0  0  0  0  0
   39.2360   22.3030   35.6550 N   0  0  0  0  0  0  0  0  0  0  0  0
   41.4880   21.4990   35.9580 C   0  0  0  0  0  0  0  0  0  0  0  0
   42.8270   21.3640   35.6570 C   0  0  0  0  0  0  0  0  0  0  0  0
   43.5190   20.8780   36.7000 N   0  0  0  0  0  0  0  0  0  0  0  0
   42.6020   20.6980   37.6950 C   0  0  0  0  0  0  0  0  0  0  0  0
   41.3930   21.0740   37.2310 N   0  0  0  0  0  0  0  0  0  0  0  0
   37.9601   25.4664   33.1344 H   0  0  0  0  0  0  0  0  0  0  0  0
   36.0879   26.4226   31.7548 H   0  0  0  0  0  0  0  0  0  0  0  0
   34.5063   24.8743   30.6013 H   0  0  0  0  0  0  0  0  0  0  0  0
   34.7688   22.4206   30.8125 H   0  0  0  0  0  0  0  0  0  0  0  0
   37.4724   20.8495   32.3159 H   0  0  0  0  0  0  0  0  0  0  0  0
   36.8285   20.6639   29.9078 H   0  0  0  0  0  0  0  0  0  0  0  0
   35.1483   20.8675   30.2213 H   0  0  0  0  0  0  0  0  0  0  0  0
   35.3426   18.4193   30.4846 H   0  0  0  0  0  0  0  0  0  0  0  0
   37.0114   18.5065   31.0357 H   0  0  0  0  0  0  0  0  0  0  0  0
   34.6044   18.4452   32.6760 H   0  0  0  0  0  0  0  0  0  0  0  0
   36.2489   18.6245   33.2793 H   0  0  0  0  0  0  0  0  0  0  0  0
   34.2380   20.9069   32.5755 H   0  0  0  0  0  0  0  0  0  0  0  0
   34.9080   20.1155   34.7836 H   0  0  0  0  0  0  0  0  0  0  0  0
   36.4525   20.6863   34.4402 H   0  0  0  0  0  0  0  0  0  0  0  0
   37.2541   23.0153   35.3486 H   0  0  0  0  0  0  0  0  0  0  0  0
   39.8013   22.7138   31.8570 H   0  0  0  0  0  0  0  0  0  0  0  0
   43.2722   21.6220   34.6848 H   0  0  0  0  0  0  0  0  0  0  0  0
   42.8132   20.3121   38.7032 H   0  0  0  0  0  0  0  0  0  0  0  0
   40.5190   21.0405   37.7750 H   0  0  0  0  0  0  0  0  0  0  0  0
  1 14  1  0
  2  1  2  0
  3  2  1  0
  4  5  1  0
  4  3  2  0
  5  6  2  0
  6  1  1  0
  7  6  1  0
  7 11  1  0
  8  9  1  0
  8  7  1  0
  9 10  1  0
 10 11  1  0
 11 12  1  0
 13 18  2  0
 14 13  1  0
 15 14  2  0
 15 16  1  0
 16 17  2  0
 17 18  1  0
 17 19  1  0
 19 23  1  0
 20 19  2  0
 20 21  1  0
 21 22  2  0
 23 22  1  0
  2 24  1  0
  3 25  1  0
  4 26  1  0
  5 27  1  0
  7 28  1  1
  8 29  1  0
  8 30  1  0
  9 31  1  0
  9 32  1  0
 10 33  1  0
 10 34  1  0
 11 35  1  6
 12 36  1  0
 12 37  1  0
 13 38  1  0
 15 39  1  0
 20 40  1  0
 22 41  1  0
 23 42  1  0
M  ISO  8  24  14  25  14  26  14  27  14  28  13  29  13  30  13  31  13
M  ISO  8  32  13  33  13  34  13  35  13  36   5  37   5  38  14  39  14
M  ISO  3  40  14  41  14  42   9
M  END
>  <minimizedAffinity>  (1) 
-5.14328384

>  <minimizedRMSD>  (1) 
0.508950293

$$$$
