
     RDKit          3D

 45 48  0  0  1  0  0  0  0  0999 V2000
   37.4150   23.4030   32.6500 C   0  0  0  0  0  0  0  0  0  0  0  0
   37.3490   24.7990   32.5800 C   0  0  0  0  0  0  0  0  0  0  0  0
   36.2680   25.3300   31.9130 C   0  0  0  0  0  0  0  0  0  0  0  0
   35.3140   24.4590   31.3550 C   0  0  0  0  0  0  0  0  0  0  0  0
   35.4620   23.0800   31.4750 C   0  0  0  0  0  0  0  0  0  0  0  0
   36.5180   22.5120   32.1270 C   0  0  0  0  0  0  0  0  0  0  0  0
   36.4530   21.0780   32.0750 C   0  0  2  0  0  0  0  0  0  0  0  0
   35.9890   20.4600   30.7880 C   0  0  0  0  0  0  0  0  0  0  0  0
   35.9740   18.9820   31.2490 C   0  0  0  0  0  0  0  0  0  0  0  0
   35.5400   19.0490   32.7140 C   0  0  0  0  0  0  0  0  0  0  0  0
   35.2870   20.5350   32.9760 C   0  0  1  0  0  0  0  0  0  0  0  0
   35.5800   20.8130   34.3520 N   0  0  0  0  0  0  0  0  0  0  0  0
   38.5280   22.7660   34.7700 C   0  0  0  0  0  0  0  0  0  0  0  0
   38.5830   22.8920   33.3660 C   0  0  0  0  0  0  0  0  0  0  0  0
   39.7410   22.5340   32.6890 C   0  0  0  0  0  0  0  0  0  0  0  0
   40.8040   22.0680   33.3700 N   0  0  0  0  0  0  0  0  0  0  0  0
   40.7290   21.9520   34.7430 C   0  0  0  0  0  0  0  0  0  0  0  0
   39.6080   22.2950   35.4310 N   0  0  0  0  0  0  0  0  0  0  0  0
   41.9060   21.4430   35.4370 C   0  0  0  0  0  0  0  0  0  0  0  0
   41.7850   21.0570   36.7570 C   0  0  0  0  0  0  0  0  0  0  0  0
   42.9380   20.5790   37.3700 C   0  0  0  0  0  0  0  0  0  0  0  0
   44.1320   20.5010   36.6850 C   0  0  0  0  0  0  0  0  0  0  0  0
   44.2350   20.8970   35.3480 C   0  0  0  0  0  0  0  0  0  0  0  0
   43.0900   21.3710   34.7400 C   0  0  0  0  0  0  0  0  0  0  0  0
   38.1203   25.4385   33.0340 H   0  0  0  0  0  0  0  0  0  0  0  0
   36.1517   26.4197   31.8176 H   0  0  0  0  0  0  0  0  0  0  0  0
   34.4453   24.8706   30.8203 H   0  0  0  0  0  0  0  0  0  0  0  0
   34.7002   22.4243   31.0281 H   0  0  0  0  0  0  0  0  0  0  0  0
   37.4935   20.8289   32.3308 H   0  0  0  0  0  0  0  0  0  0  0  0
   36.6976   20.6320   29.9644 H   0  0  0  0  0  0  0  0  0  0  0  0
   35.0434   20.8474   30.3808 H   0  0  0  0  0  0  0  0  0  0  0  0
   35.2563   18.3959   30.6562 H   0  0  0  0  0  0  0  0  0  0  0  0
   36.9502   18.4914   31.1213 H   0  0  0  0  0  0  0  0  0  0  0  0
   34.6216   18.4650   32.8737 H   0  0  0  0  0  0  0  0  0  0  0  0
   36.2977   18.6297   33.3923 H   0  0  0  0  0  0  0  0  0  0  0  0
   34.2777   20.9267   32.7813 H   0  0  0  0  0  0  0  0  0  0  0  0
   34.9742   20.2382   34.9549 H   0  0  0  0  0  0  0  0  0  0  0  0
   36.5670   20.5901   34.5447 H   0  0  0  0  0  0  0  0  0  0  0  0
   37.6176   23.0476   35.3194 H   0  0  0  0  0  0  0  0  0  0  0  0
   39.7897   22.6314   31.5944 H   0  0  0  0  0  0  0  0  0  0  0  0
   40.8279   21.1240   37.2950 H   0  0  0  0  0  0  0  0  0  0  0  0
   42.8967   20.2571   38.4210 H   0  0  0  0  0  0  0  0  0  0  0  0
   45.0242   20.1184   37.2023 H   0  0  0  0  0  0  0  0  0  0  0  0
   45.1886   20.8335   34.8034 H   0  0  0  0  0  0  0  0  0  0  0  0
   43.1245   21.6940   33.6891 H   0  0  0  0  0  0  0  0  0  0  0  0
  1 14  1  0
  2  1  2  0
  3  2  1  0
  4  5  1  0
  4  3  2  0
  5  6  2  0
  6  1  1  0
  7  6  1  0
  7 11  1  0
  8  9  1  0
  8  7  1  0
  9 10  1  0
 10 11  1  0
 11 12  1  0
 13 18  2  0
 14 13  1  0
 15 14  2  0
 15 16  1  0
 16 17  2  0
 17 18  1  0
 17 19  1  0
 19 20  2  0
 20 21  1  0
 22 21  2  0
 23 22  1  0
 24 23  2  0
 24 19  1  0
  2 25  1  0
  3 26  1  0
  4 27  1  0
  5 28  1  0
  7 29  1  1
  8 30  1  0
  8 31  1  0
  9 32  1  0
  9 33  1  0
 10 34  1  0
 10 35  1  0
 11 36  1  6
 12 37  1  0
 12 38  1  0
 13 39  1  0
 15 40  1  0
 20 41  1  0
 21 42  1  0
 22 43  1  0
 23 44  1  0
 24 45  1  0
M  ISO  8  25  14  26  14  27  14  28  14  29  13  30  13  31  13  32  13
M  ISO  8  33  13  34  13  35  13  36  13  37   5  38   5  39  14  40  14
M  ISO  5  41  14  42  14  43  14  44  14  45  14
M  END
>  <minimizedAffinity>  (1) 
-5.04867983

>  <minimizedRMSD>  (1) 
0.586325049

$$$$
