
     RDKit          3D

 44 46  0  0  1  0  0  0  0  0999 V2000
   37.3360   23.4810   32.7120 C   0  0  0  0  0  0  0  0  0  0  0  0
   37.1690   24.8720   32.5740 C   0  0  0  0  0  0  0  0  0  0  0  0
   36.1370   25.2930   31.7650 C   0  0  0  0  0  0  0  0  0  0  0  0
   35.3310   24.3430   31.1400 C   0  0  0  0  0  0  0  0  0  0  0  0
   35.5450   22.9880   31.3140 C   0  0  0  0  0  0  0  0  0  0  0  0
   36.5690   22.5100   32.1170 C   0  0  0  0  0  0  0  0  0  0  0  0
   36.6010   21.0710   32.1210 C   0  0  2  0  0  0  0  0  0  0  0  0
   36.3070   20.3880   30.8260 C   0  0  0  0  0  0  0  0  0  0  0  0
   36.3570   18.9290   31.3300 C   0  0  0  0  0  0  0  0  0  0  0  0
   35.7480   19.0130   32.7400 C   0  0  0  0  0  0  0  0  0  0  0  0
   35.3670   20.4860   32.8980 C   0  0  1  0  0  0  0  0  0  0  0  0
   35.4710   20.8330   34.2880 N   0  0  0  0  0  0  0  0  0  0  0  0
   38.1780   22.9330   34.9720 C   0  0  0  0  0  0  0  0  0  0  0  0
   38.4270   23.0790   33.5740 C   0  0  0  0  0  0  0  0  0  0  0  0
   39.6920   22.8410   33.0800 C   0  0  0  0  0  0  0  0  0  0  0  0
   40.6870   22.4720   33.9100 N   0  0  0  0  0  0  0  0  0  0  0  0
   40.4290   22.3350   35.2600 C   0  0  0  0  0  0  0  0  0  0  0  0
   39.1870   22.5640   35.7860 N   0  0  0  0  0  0  0  0  0  0  0  0
   41.5310   21.9280   36.1760 C   0  0  0  0  0  0  0  0  0  0  0  0
   42.6280   22.9800   36.0560 C   0  0  0  0  0  0  0  0  0  0  0  0
   41.0580   21.7610   37.5900 C   0  0  0  0  0  0  0  0  0  0  0  0
   37.8296   25.5867   33.0866 H   0  0  0  0  0  0  0  0  0  0  0  0
   35.9510   26.3666   31.6138 H   0  0  0  0  0  0  0  0  0  0  0  0
   34.5064   24.6786   30.4940 H   0  0  0  0  0  0  0  0  0  0  0  0
   34.8860   22.2712   30.8023 H   0  0  0  0  0  0  0  0  0  0  0  0
   37.6187   20.8987   32.5014 H   0  0  0  0  0  0  0  0  0  0  0  0
   37.0747   20.5915   30.0649 H   0  0  0  0  0  0  0  0  0  0  0  0
   35.3770   20.6912   30.3228 H   0  0  0  0  0  0  0  0  0  0  0  0
   35.7603   18.2692   30.6830 H   0  0  0  0  0  0  0  0  0  0  0  0
   37.3742   18.5104   31.3277 H   0  0  0  0  0  0  0  0  0  0  0  0
   34.8594   18.3696   32.8200 H   0  0  0  0  0  0  0  0  0  0  0  0
   36.4444   18.6722   33.5203 H   0  0  0  0  0  0  0  0  0  0  0  0
   34.3675   20.8012   32.5640 H   0  0  0  0  0  0  0  0  0  0  0  0
   35.2261   20.0158   34.8651 H   0  0  0  0  0  0  0  0  0  0  0  0
   36.4363   21.1246   34.4978 H   0  0  0  0  0  0  0  0  0  0  0  0
   37.1738   23.1196   35.3805 H   0  0  0  0  0  0  0  0  0  0  0  0
   39.8897   22.9529   32.0037 H   0  0  0  0  0  0  0  0  0  0  0  0
   41.9200   20.9403   35.8875 H   0  0  0  0  0  0  0  0  0  0  0  0
   42.9507   23.2895   37.0610 H   0  0  0  0  0  0  0  0  0  0  0  0
   43.4840   22.5565   35.5102 H   0  0  0  0  0  0  0  0  0  0  0  0
   42.2407   23.8530   35.5102 H   0  0  0  0  0  0  0  0  0  0  0  0
   41.8641   22.0456   38.2823 H   0  0  0  0  0  0  0  0  0  0  0  0
   40.1826   22.4044   37.7622 H   0  0  0  0  0  0  0  0  0  0  0  0
   40.7806   20.7106   37.7622 H   0  0  0  0  0  0  0  0  0  0  0  0
  1 14  1  0
  2  1  2  0
  3  2  1  0
  4  5  1  0
  4  3  2  0
  5  6  2  0
  6  7  1  0
  6  1  1  0
  7 11  1  0
  8  9  1  0
  8  7  1  0
  9 10  1  0
 10 11  1  0
 11 12  1  0
 13 18  2  0
 14 13  1  0
 15 14  2  0
 15 16  1  0
 16 17  2  0
 17 18  1  0
 17 19  1  0
 19 21  1  0
 20 19  1  0
  2 22  1  0
  3 23  1  0
  4 24  1  0
  5 25  1  0
  7 26  1  1
  8 27  1  0
  8 28  1  0
  9 29  1  0
  9 30  1  0
 10 31  1  0
 10 32  1  0
 11 33  1  6
 12 34  1  0
 12 35  1  0
 13 36  1  0
 15 37  1  0
 19 38  1  0
 20 39  1  0
 20 40  1  0
 20 41  1  0
 21 42  1  0
 21 43  1  0
 21 44  1  0
M  ISO  8  22  14  23  14  24  14  25  14  26  13  27  13  28  13  29  13
M  ISO  8  30  13  31  13  32  13  33  13  34   5  35   5  36  14  37  14
M  ISO  7  38   8  39   8  40   8  41   8  42   8  43   8  44   8
M  END
>  <minimizedAffinity>  (1) 
-5.25205374

>  <minimizedRMSD>  (1) 
0.494300276

$$$$
