
     RDKit          3D

 27 29  0  0  0  0  0  0  0  0999 V2000
   41.0590   22.9680   36.3790 C   0  0  0  0  0  0  0  0  0  0  0  0
   40.4140   22.4760   37.5220 C   0  0  0  0  0  0  0  0  0  0  0  0
   39.1750   23.0310   37.8280 C   0  0  0  0  0  0  0  0  0  0  0  0
   38.7300   23.9790   36.9940 N   0  0  0  0  0  0  0  0  0  0  0  0
   39.3240   24.4560   35.9120 C   0  0  0  0  0  0  0  0  0  0  0  0
   40.5090   23.9140   35.6330 N   0  0  0  0  0  0  0  0  0  0  0  0
   38.5260   25.4870   35.2590 C   0  0  0  0  0  0  0  0  0  0  0  0
   38.3450   26.7740   35.7760 C   0  0  0  0  0  0  0  0  0  0  0  0
   37.5950   27.7400   35.1600 C   0  0  0  0  0  0  0  0  0  0  0  0
   36.9640   27.4840   33.9670 C   0  0  0  0  0  0  0  0  0  0  0  0
   37.1080   26.2320   33.4140 C   0  0  0  0  0  0  0  0  0  0  0  0
   36.4520   26.0350   32.2190 C   0  0  0  0  0  0  0  0  0  0  0  0
   36.5440   24.8100   31.5960 C   0  0  0  0  0  0  0  0  0  0  0  0
   37.3070   23.8240   32.2200 C   0  0  0  0  0  0  0  0  0  0  0  0
   37.9310   24.1040   33.4160 C   0  0  0  0  0  0  0  0  0  0  0  0
   37.8690   25.2960   34.0660 C   0  0  0  0  0  0  0  0  0  0  0  0
   38.5040   22.5710   38.9510 O   0  0  0  0  0  0  0  0  0  0  0  0
   42.0408   22.5606   36.0962 H   0  0  0  0  0  0  0  0  0  0  0  0
   40.8647   21.6903   38.1461 H   0  0  0  0  0  0  0  0  0  0  0  0
   38.8320   27.0240   36.7301 H   0  0  0  0  0  0  0  0  0  0  0  0
   37.4967   28.7318   35.6256 H   0  0  0  0  0  0  0  0  0  0  0  0
   36.3612   28.2572   33.4682 H   0  0  0  0  0  0  0  0  0  0  0  0
   35.8618   26.8461   31.7677 H   0  0  0  0  0  0  0  0  0  0  0  0
   36.0340   24.6167   30.6408 H   0  0  0  0  0  0  0  0  0  0  0  0
   37.4100   22.8298   31.7608 H   0  0  0  0  0  0  0  0  0  0  0  0
   38.5242   23.3022   33.8799 H   0  0  0  0  0  0  0  0  0  0  0  0
   37.6211   22.9499   39.1899 H   0  0  0  0  0  0  0  0  0  0  0  0
  1  2  2  0
  2  3  1  0
  3 17  1  0
  4  3  2  0
  5  4  1  0
  6  5  2  0
  6  1  1  0
  7  8  2  0
  7  5  1  0
  9  8  1  0
 10  9  2  0
 11 10  1  0
 11 16  2  0
 12 11  1  0
 13 12  2  0
 13 14  1  0
 14 15  2  0
 15 16  1  0
 16  7  1  0
  1 18  1  0
  2 19  1  0
  8 20  1  0
  9 21  1  0
 10 22  1  0
 12 23  1  0
 13 24  1  0
 14 25  1  0
 15 26  1  0
 17 27  1  0
M  ISO  8  18  14  19  14  20  14  21  14  22  14  23  14  24  14  25  14
M  ISO  2  26  14  27   3
M  END
>  <minimizedAffinity>  (1) 
-5.66168213

>  <minimizedRMSD>  (1) 
4.2988472

$$$$
