
     RDKit          3D

 48 51  0  0  1  0  0  0  0  0999 V2000
   37.5750   23.2080   32.4220 C   0  0  0  0  0  0  0  0  0  0  0  0
   37.5330   24.6030   32.3090 C   0  0  0  0  0  0  0  0  0  0  0  0
   36.3620   25.1400   31.8160 C   0  0  0  0  0  0  0  0  0  0  0  0
   35.3110   24.2860   31.4650 C   0  0  0  0  0  0  0  0  0  0  0  0
   35.4390   22.9060   31.6110 C   0  0  0  0  0  0  0  0  0  0  0  0
   36.5790   22.3290   32.0950 C   0  0  0  0  0  0  0  0  0  0  0  0
   36.4700   20.8960   32.1110 C   0  0  2  0  0  0  0  0  0  0  0  0
   35.9600   20.2390   30.8620 C   0  0  0  0  0  0  0  0  0  0  0  0
   35.8890   18.7830   31.3830 C   0  0  0  0  0  0  0  0  0  0  0  0
   35.5250   18.9240   32.8660 C   0  0  0  0  0  0  0  0  0  0  0  0
   35.3150   20.4300   33.0620 C   0  0  1  0  0  0  0  0  0  0  0  0
   35.6580   20.7560   34.4180 N   0  0  0  0  0  0  0  0  0  0  0  0
   38.9760   22.5370   34.3550 C   0  0  0  0  0  0  0  0  0  0  0  0
   38.8340   22.6840   32.9500 C   0  0  0  0  0  0  0  0  0  0  0  0
   39.8770   22.3380   32.1170 C   0  0  0  0  0  0  0  0  0  0  0  0
   41.0280   21.8610   32.6310 N   0  0  0  0  0  0  0  0  0  0  0  0
   41.1490   21.7240   33.9980 C   0  0  0  0  0  0  0  0  0  0  0  0
   40.1410   22.0560   34.8460 N   0  0  0  0  0  0  0  0  0  0  0  0
   44.7350   20.2250   35.7010 C   0  0  0  0  0  0  0  0  0  0  0  0
   43.6400   20.5040   36.4920 C   0  0  0  0  0  0  0  0  0  0  0  0
   42.4690   20.9930   35.9360 C   0  0  0  0  0  0  0  0  0  0  0  0
   42.3880   21.2080   34.5690 C   0  0  0  0  0  0  0  0  0  0  0  0
   43.5030   20.9210   33.7810 C   0  0  0  0  0  0  0  0  0  0  0  0
   44.6680   20.4340   34.3330 C   0  0  0  0  0  0  0  0  0  0  0  0
   46.1850   19.6090   36.4530 S   0  0  0  0  0  0  0  0  0  0  0  0
   47.2290   19.4310   35.3650 O   0  0  0  0  0  0  0  0  0  0  0  0
   45.9110   18.2710   37.1040 O   0  0  0  0  0  0  0  0  0  0  0  0
   38.3859   25.2351   32.5972 H   0  0  0  0  0  0  0  0  0  0  0  0
   36.2556   26.2287   31.7000 H   0  0  0  0  0  0  0  0  0  0  0  0
   34.3749   24.7077   31.0701 H   0  0  0  0  0  0  0  0  0  0  0  0
   34.5948   22.2603   31.3274 H   0  0  0  0  0  0  0  0  0  0  0  0
   37.5074   20.6246   32.3562 H   0  0  0  0  0  0  0  0  0  0  0  0
   36.6617   20.3449   30.0215 H   0  0  0  0  0  0  0  0  0  0  0  0
   35.0232   20.6475   30.4551 H   0  0  0  0  0  0  0  0  0  0  0  0
   35.1159   18.2147   30.8451 H   0  0  0  0  0  0  0  0  0  0  0  0
   36.8330   18.2385   31.2336 H   0  0  0  0  0  0  0  0  0  0  0  0
   34.6036   18.3688   33.0957 H   0  0  0  0  0  0  0  0  0  0  0  0
   36.3019   18.5177   33.5303 H   0  0  0  0  0  0  0  0  0  0  0  0
   34.3128   20.8424   32.8734 H   0  0  0  0  0  0  0  0  0  0  0  0
   35.0754   20.2023   35.0621 H   0  0  0  0  0  0  0  0  0  0  0  0
   36.6517   20.5402   34.5822 H   0  0  0  0  0  0  0  0  0  0  0  0
   38.1532   22.8095   35.0323 H   0  0  0  0  0  0  0  0  0  0  0  0
   39.7692   22.4518   31.0282 H   0  0  0  0  0  0  0  0  0  0  0  0
   43.6972   20.3362   37.5776 H   0  0  0  0  0  0  0  0  0  0  0  0
   41.6036   21.2106   36.5793 H   0  0  0  0  0  0  0  0  0  0  0  0
   43.4510   21.0872   32.6949 H   0  0  0  0  0  0  0  0  0  0  0  0
   45.5358   20.2135   33.6941 H   0  0  0  0  0  0  0  0  0  0  0  0
   46.6204   20.4804   37.4163 H   0  0  0  0  0  0  0  0  0  0  0  0
  1 14  1  0
  2  1  2  0
  3  2  1  0
  4  5  1  0
  4  3  2  0
  5  6  2  0
  6  7  1  0
  6  1  1  0
  7 11  1  0
  8  9  1  0
  8  7  1  0
  9 10  1  0
 10 11  1  0
 11 12  1  0
 13 18  2  0
 14 13  1  0
 15 16  1  0
 15 14  2  0
 16 17  2  0
 17 22  1  0
 17 18  1  0
 19 25  1  0
 19 20  2  0
 21 20  1  0
 22 21  2  0
 23 24  2  0
 23 22  1  0
 24 19  1  0
 25 27  2  0
 26 25  2  0
  2 28  1  0
  3 29  1  0
  4 30  1  0
  5 31  1  0
  7 32  1  1
  8 33  1  0
  8 34  1  0
  9 35  1  0
  9 36  1  0
 10 37  1  0
 10 38  1  0
 11 39  1  6
 12 40  1  0
 12 41  1  0
 13 42  1  0
 15 43  1  0
 20 44  1  0
 21 45  1  0
 23 46  1  0
 24 47  1  0
 25 48  1  0
M  ISO  8  28  14  29  14  30  14  31  14  32  13  33  13  34  13  35  13
M  ISO  8  36  13  37  13  38  13  39  13  40   5  41   5  42  14  43  14
M  ISO  5  44  14  45  14  46  14  47  14  48  11
M  END
>  <minimizedAffinity>  (1) 
-4.75793648

>  <minimizedRMSD>  (1) 
1.67281842

$$$$
