
     RDKit          3D

 43 46  0  0  1  0  0  0  0  0999 V2000
   37.4550   23.3910   32.5970 C   0  0  0  0  0  0  0  0  0  0  0  0
   37.3780   24.7910   32.5340 C   0  0  0  0  0  0  0  0  0  0  0  0
   36.2680   25.3160   31.9120 C   0  0  0  0  0  0  0  0  0  0  0  0
   35.3070   24.4510   31.3900 C   0  0  0  0  0  0  0  0  0  0  0  0
   35.4440   23.0790   31.4850 C   0  0  0  0  0  0  0  0  0  0  0  0
   36.5410   22.4980   32.1020 C   0  0  0  0  0  0  0  0  0  0  0  0
   36.4620   21.0620   32.0500 C   0  0  2  0  0  0  0  0  0  0  0  0
   35.9720   20.4500   30.7840 C   0  0  0  0  0  0  0  0  0  0  0  0
   35.9480   18.9760   31.2380 C   0  0  0  0  0  0  0  0  0  0  0  0
   35.5300   19.0470   32.7150 C   0  0  0  0  0  0  0  0  0  0  0  0
   35.2890   20.5380   32.9640 C   0  0  1  0  0  0  0  0  0  0  0  0
   35.5940   20.8190   34.3380 N   0  0  0  0  0  0  0  0  0  0  0  0
   38.6030   22.7070   34.6860 C   0  0  0  0  0  0  0  0  0  0  0  0
   38.6380   22.8730   33.2690 C   0  0  0  0  0  0  0  0  0  0  0  0
   39.7820   22.5480   32.5720 C   0  0  0  0  0  0  0  0  0  0  0  0
   40.8630   22.0750   33.2200 N   0  0  0  0  0  0  0  0  0  0  0  0
   40.8150   21.9190   34.5920 C   0  0  0  0  0  0  0  0  0  0  0  0
   39.6990   22.2320   35.3150 N   0  0  0  0  0  0  0  0  0  0  0  0
   41.9700   21.4100   35.3240 C   0  0  0  0  0  0  0  0  0  0  0  0
   41.8410   21.0400   36.6470 C   0  0  0  0  0  0  0  0  0  0  0  0
   42.9320   20.5530   37.3570 C   0  0  0  0  0  0  0  0  0  0  0  0
   44.1520   20.4320   36.7580 N   0  0  0  0  0  0  0  0  0  0  0  0
   44.2470   20.8000   35.4680 C   0  0  0  0  0  0  0  0  0  0  0  0
   43.1980   21.2830   34.7390 N   0  0  0  0  0  0  0  0  0  0  0  0
   38.1627   25.4342   32.9589 H   0  0  0  0  0  0  0  0  0  0  0  0
   36.1405   26.4053   31.8277 H   0  0  0  0  0  0  0  0  0  0  0  0
   34.4203   24.8698   30.8916 H   0  0  0  0  0  0  0  0  0  0  0  0
   34.6627   22.4316   31.0602 H   0  0  0  0  0  0  0  0  0  0  0  0
   37.5035   20.8017   32.2897 H   0  0  0  0  0  0  0  0  0  0  0  0
   36.6671   20.6149   29.9476 H   0  0  0  0  0  0  0  0  0  0  0  0
   35.0215   20.8468   30.3978 H   0  0  0  0  0  0  0  0  0  0  0  0
   35.2174   18.3987   30.6525 H   0  0  0  0  0  0  0  0  0  0  0  0
   36.9166   18.4742   31.0964 H   0  0  0  0  0  0  0  0  0  0  0  0
   34.6107   18.4686   32.8888 H   0  0  0  0  0  0  0  0  0  0  0  0
   36.2892   18.6239   33.3892 H   0  0  0  0  0  0  0  0  0  0  0  0
   34.2838   20.9404   32.7700 H   0  0  0  0  0  0  0  0  0  0  0  0
   34.9832   20.2563   34.9473 H   0  0  0  0  0  0  0  0  0  0  0  0
   36.5787   20.5827   34.5264 H   0  0  0  0  0  0  0  0  0  0  0  0
   37.6977   22.9620   35.2564 H   0  0  0  0  0  0  0  0  0  0  0  0
   39.8118   22.6759   31.4799 H   0  0  0  0  0  0  0  0  0  0  0  0
   40.8644   21.1314   37.1450 H   0  0  0  0  0  0  0  0  0  0  0  0
   42.8109   20.2626   38.4110 H   0  0  0  0  0  0  0  0  0  0  0  0
   45.2245   20.7067   34.9722 H   0  0  0  0  0  0  0  0  0  0  0  0
  1 14  1  0
  2  1  2  0
  3  2  1  0
  4  5  1  0
  4  3  2  0
  5  6  2  0
  6  1  1  0
  7  6  1  0
  7 11  1  0
  8  9  1  0
  8  7  1  0
  9 10  1  0
 10 11  1  0
 11 12  1  0
 13 18  2  0
 14 13  1  0
 15 16  1  0
 15 14  2  0
 16 17  2  0
 17 18  1  0
 17 19  1  0
 19 20  2  0
 20 21  1  0
 22 21  2  0
 23 22  1  0
 24 19  1  0
 24 23  2  0
  2 25  1  0
  3 26  1  0
  4 27  1  0
  5 28  1  0
  7 29  1  1
  8 30  1  0
  8 31  1  0
  9 32  1  0
  9 33  1  0
 10 34  1  0
 10 35  1  0
 11 36  1  6
 12 37  1  0
 12 38  1  0
 13 39  1  0
 15 40  1  0
 20 41  1  0
 21 42  1  0
 23 43  1  0
M  ISO  8  25  14  26  14  27  14  28  14  29  13  30  13  31  13  32  13
M  ISO  8  33  13  34  13  35  13  36  13  37   5  38   5  39  14  40  14
M  ISO  3  41  14  42  14  43  14
M  END
>  <minimizedAffinity>  (1) 
-4.8242898

>  <minimizedRMSD>  (1) 
0.831248403

$$$$
