
     RDKit          3D

 36 38  0  0  1  0  0  0  0  0999 V2000
   37.3440   23.2090   32.9600 C   0  0  0  0  0  0  0  0  0  0  0  0
   37.2480   24.6030   32.8160 C   0  0  0  0  0  0  0  0  0  0  0  0
   36.3170   25.0620   31.9070 C   0  0  0  0  0  0  0  0  0  0  0  0
   35.5410   24.1370   31.1990 C   0  0  0  0  0  0  0  0  0  0  0  0
   35.6890   22.7760   31.3900 C   0  0  0  0  0  0  0  0  0  0  0  0
   36.6090   22.2640   32.2910 C   0  0  0  0  0  0  0  0  0  0  0  0
   36.5850   20.8260   32.2940 C   0  0  2  0  0  0  0  0  0  0  0  0
   36.2980   20.1480   30.9980 C   0  0  0  0  0  0  0  0  0  0  0  0
   36.2700   18.6910   31.5100 C   0  0  0  0  0  0  0  0  0  0  0  0
   35.6330   18.8020   32.9010 C   0  0  0  0  0  0  0  0  0  0  0  0
   35.3070   20.2920   33.0460 C   0  0  1  0  0  0  0  0  0  0  0  0
   35.3920   20.6400   34.4360 N   0  0  0  0  0  0  0  0  0  0  0  0
   37.9810   22.7730   35.3130 C   0  0  0  0  0  0  0  0  0  0  0  0
   38.3300   22.7680   33.9300 C   0  0  0  0  0  0  0  0  0  0  0  0
   39.5860   22.3520   33.5440 C   0  0  0  0  0  0  0  0  0  0  0  0
   40.4850   21.9520   34.4630 N   0  0  0  0  0  0  0  0  0  0  0  0
   40.1330   21.9630   35.7990 C   0  0  0  0  0  0  0  0  0  0  0  0
   38.8910   22.3700   36.2230 N   0  0  0  0  0  0  0  0  0  0  0  0
   41.0000   21.5670   36.8110 O   0  0  0  0  0  0  0  0  0  0  0  0
   37.8805   25.2910   33.3962 H   0  0  0  0  0  0  0  0  0  0  0  0
   36.1863   26.1415   31.7408 H   0  0  0  0  0  0  0  0  0  0  0  0
   34.7972   24.5010   30.4749 H   0  0  0  0  0  0  0  0  0  0  0  0
   35.0608   22.0820   30.8123 H   0  0  0  0  0  0  0  0  0  0  0  0
   37.5877   20.6165   32.6948 H   0  0  0  0  0  0  0  0  0  0  0  0
   37.0946   20.3129   30.2576 H   0  0  0  0  0  0  0  0  0  0  0  0
   35.3959   20.4878   30.4681 H   0  0  0  0  0  0  0  0  0  0  0  0
   35.6610   18.0557   30.8500 H   0  0  0  0  0  0  0  0  0  0  0  0
   37.2688   18.2308   31.5359 H   0  0  0  0  0  0  0  0  0  0  0  0
   34.7179   18.1946   32.9608 H   0  0  0  0  0  0  0  0  0  0  0  0
   36.2957   18.4356   33.6989 H   0  0  0  0  0  0  0  0  0  0  0  0
   34.3288   20.6454   32.6878 H   0  0  0  0  0  0  0  0  0  0  0  0
   35.1892   19.8097   35.0108 H   0  0  0  0  0  0  0  0  0  0  0  0
   36.3409   20.9804   34.6473 H   0  0  0  0  0  0  0  0  0  0  0  0
   36.9814   23.1017   35.6335 H   0  0  0  0  0  0  0  0  0  0  0  0
   39.8558   22.3467   32.4776 H   0  0  0  0  0  0  0  0  0  0  0  0
   40.7031   21.5919   37.7551 H   0  0  0  0  0  0  0  0  0  0  0  0
  1 14  1  0
  2  1  2  0
  3  2  1  0
  4  5  1  0
  4  3  2  0
  5  6  2  0
  6  7  1  0
  6  1  1  0
  7 11  1  0
  8  9  1  0
  8  7  1  0
  9 10  1  0
 10 11  1  0
 11 12  1  0
 13 18  2  0
 14 13  1  0
 15 14  2  0
 15 16  1  0
 16 17  2  0
 17 18  1  0
 17 19  1  0
  2 20  1  0
  3 21  1  0
  4 22  1  0
  5 23  1  0
  7 24  1  1
  8 25  1  0
  8 26  1  0
  9 27  1  0
  9 28  1  0
 10 29  1  0
 10 30  1  0
 11 31  1  6
 12 32  1  0
 12 33  1  0
 13 34  1  0
 15 35  1  0
 19 36  1  0
M  ISO  8  20  14  21  14  22  14  23  14  24  13  25  13  26  13  27  13
M  ISO  8  28  13  29  13  30  13  31  13  32   5  33   5  34  14  35  14
M  ISO  1  36   3
M  END
>  <minimizedAffinity>  (1) 
-4.98359251

>  <minimizedRMSD>  (1) 
0.351113617

$$$$
