
     RDKit          3D

 21 22  0  0  0  0  0  0  0  0999 V2000
   40.8150   23.1180   36.2520 C   0  0  0  0  0  0  0  0  0  0  0  0
   40.2880   22.5840   37.4600 C   0  0  0  0  0  0  0  0  0  0  0  0
   39.0550   23.1050   37.9130 C   0  0  0  0  0  0  0  0  0  0  0  0
   38.4520   24.0760   37.1730 N   0  0  0  0  0  0  0  0  0  0  0  0
   38.9900   24.5430   36.0430 C   0  0  0  0  0  0  0  0  0  0  0  0
   40.1660   24.0750   35.5700 N   0  0  0  0  0  0  0  0  0  0  0  0
   38.2940   25.5840   35.2940 C   0  0  0  0  0  0  0  0  0  0  0  0
   37.7820   25.3290   34.0320 C   0  0  0  0  0  0  0  0  0  0  0  0
   37.1320   26.3390   33.3560 C   0  0  0  0  0  0  0  0  0  0  0  0
   36.9630   27.6170   33.8830 C   0  0  0  0  0  0  0  0  0  0  0  0
   37.4820   27.8410   35.1400 C   0  0  0  0  0  0  0  0  0  0  0  0
   38.1360   26.8430   35.8320 C   0  0  0  0  0  0  0  0  0  0  0  0
   38.5980   22.5540   39.0820 O   0  0  0  0  0  0  0  0  0  0  0  0
   41.7739   22.7392   35.8686 H   0  0  0  0  0  0  0  0  0  0  0  0
   40.8179   21.7983   38.0184 H   0  0  0  0  0  0  0  0  0  0  0  0
   37.8928   24.3342   33.5759 H   0  0  0  0  0  0  0  0  0  0  0  0
   36.7285   26.1261   32.3551 H   0  0  0  0  0  0  0  0  0  0  0  0
   36.4415   28.4079   33.3241 H   0  0  0  0  0  0  0  0  0  0  0  0
   37.3726   28.8342   35.6000 H   0  0  0  0  0  0  0  0  0  0  0  0
   38.5394   27.0562   36.8329 H   0  0  0  0  0  0  0  0  0  0  0  0
   37.7411   22.8603   39.4718 H   0  0  0  0  0  0  0  0  0  0  0  0
  1  2  2  0
  2  3  1  0
  3 13  1  0
  4  3  2  0
  5  4  1  0
  6  5  2  0
  6  1  1  0
  7 12  1  0
  7  5  1  0
  8  7  2  0
  9 10  2  0
  9  8  1  0
 10 11  1  0
 11 12  2  0
  1 14  1  0
  2 15  1  0
  8 16  1  0
  9 17  1  0
 10 18  1  0
 11 19  1  0
 12 20  1  0
 13 21  1  0
M  ISO  8  14  14  15  14  16  14  17  14  18  14  19  14  20  14  21   3
M  END
>  <minimizedAffinity>  (1) 
-4.73404312

>  <minimizedRMSD>  (1) 
3.97336555

$$$$
