
     RDKit          3D

 21 22  0  0  0  0  0  0  0  0999 V2000
   40.7870   23.1170   36.2560 C   0  0  0  0  0  0  0  0  0  0  0  0
   40.2740   22.5930   37.4600 C   0  0  0  0  0  0  0  0  0  0  0  0
   39.0580   23.1040   37.9260 C   0  0  0  0  0  0  0  0  0  0  0  0
   38.4450   24.0690   37.1970 N   0  0  0  0  0  0  0  0  0  0  0  0
   38.9670   24.5480   36.0460 C   0  0  0  0  0  0  0  0  0  0  0  0
   40.1420   24.0710   35.5740 N   0  0  0  0  0  0  0  0  0  0  0  0
   38.2830   25.5890   35.2830 C   0  0  0  0  0  0  0  0  0  0  0  0
   38.1460   26.8530   35.8650 C   0  0  0  0  0  0  0  0  0  0  0  0
   37.4940   27.8230   35.1250 C   0  0  0  0  0  0  0  0  0  0  0  0
   36.9990   27.5640   33.8700 C   0  0  0  0  0  0  0  0  0  0  0  0
   37.1210   26.3250   33.2750 C   0  0  0  0  0  0  0  0  0  0  0  0
   37.7770   25.3320   34.0090 C   0  0  0  0  0  0  0  0  0  0  0  0
   38.5950   22.5710   39.0920 O   0  0  0  0  0  0  0  0  0  0  0  0
   41.7414   22.7321   35.8673 H   0  0  0  0  0  0  0  0  0  0  0  0
   40.8114   21.8092   38.0140 H   0  0  0  0  0  0  0  0  0  0  0  0
   38.5402   27.0671   36.8694 H   0  0  0  0  0  0  0  0  0  0  0  0
   37.3686   28.8286   35.5529 H   0  0  0  0  0  0  0  0  0  0  0  0
   36.4891   28.3700   33.3219 H   0  0  0  0  0  0  0  0  0  0  0  0
   36.7207   26.1276   32.2696 H   0  0  0  0  0  0  0  0  0  0  0  0
   37.8963   24.3290   33.5733 H   0  0  0  0  0  0  0  0  0  0  0  0
   37.7398   22.8888   39.4763 H   0  0  0  0  0  0  0  0  0  0  0  0
  1  2  2  0
  2  3  1  0
  3 13  1  0
  4  3  2  0
  5  4  1  0
  6  5  2  0
  6  1  1  0
  7  8  2  0
  7  5  1  0
  9  8  1  0
 10  9  2  0
 11 10  1  0
 11 12  2  0
 12  7  1  0
  1 14  1  0
  2 15  1  0
  8 16  1  0
  9 17  1  0
 10 18  1  0
 11 19  1  0
 12 20  1  0
 13 21  1  0
M  ISO  8  14  14  15  14  16  14  17  14  18  14  19  14  20  14  21   3
M  END
>  <minimizedAffinity>  (1) 
-4.75393152

>  <minimizedRMSD>  (1) 
3.98620892

$$$$
