
     RDKit          3D

 25 27  0  0  0  0  0  0  0  0999 V2000
   40.6580   23.1390   36.0750 C   0  0  0  0  0  0  0  0  0  0  0  0
   40.1060   22.5650   37.2590 C   0  0  0  0  0  0  0  0  0  0  0  0
   38.9670   23.1610   37.8050 C   0  0  0  0  0  0  0  0  0  0  0  0
   38.4500   24.2450   37.1830 N   0  0  0  0  0  0  0  0  0  0  0  0
   38.9910   24.7670   36.0680 C   0  0  0  0  0  0  0  0  0  0  0  0
   40.1020   24.2110   35.5080 N   0  0  0  0  0  0  0  0  0  0  0  0
   38.3400   25.9410   35.4890 C   0  0  0  0  0  0  0  0  0  0  0  0
   38.2210   27.2090   36.0310 C   0  0  0  0  0  0  0  0  0  0  0  0
   37.5460   28.0180   35.1760 N   0  0  0  0  0  0  0  0  0  0  0  0
   37.2190   27.2980   34.0740 C   0  0  0  0  0  0  0  0  0  0  0  0
   36.5430   27.6090   32.9120 C   0  0  0  0  0  0  0  0  0  0  0  0
   36.3420   26.6730   31.9330 C   0  0  0  0  0  0  0  0  0  0  0  0
   36.8070   25.3850   32.0730 C   0  0  0  0  0  0  0  0  0  0  0  0
   37.4850   25.0980   33.2530 C   0  0  0  0  0  0  0  0  0  0  0  0
   37.7090   26.0200   34.2700 C   0  0  0  0  0  0  0  0  0  0  0  0
   38.4860   22.5630   38.9400 O   0  0  0  0  0  0  0  0  0  0  0  0
   41.5552   22.6910   35.6231 H   0  0  0  0  0  0  0  0  0  0  0  0
   40.5632   21.6808   37.7271 H   0  0  0  0  0  0  0  0  0  0  0  0
   38.6156   27.5158   37.0109 H   0  0  0  0  0  0  0  0  0  0  0  0
   37.3203   29.0101   35.3365 H   0  0  0  0  0  0  0  0  0  0  0  0
   36.1578   28.6294   32.7692 H   0  0  0  0  0  0  0  0  0  0  0  0
   35.7995   26.9553   31.0187 H   0  0  0  0  0  0  0  0  0  0  0  0
   36.6509   24.6242   31.2941 H   0  0  0  0  0  0  0  0  0  0  0  0
   37.8687   24.0763   33.3908 H   0  0  0  0  0  0  0  0  0  0  0  0
   37.6811   22.9260   39.3877 H   0  0  0  0  0  0  0  0  0  0  0  0
  1  2  2  0
  2  3  1  0
  3 16  1  0
  4  3  2  0
  5  4  1  0
  6  5  2  0
  6  1  1  0
  7  8  2  0
  7  5  1  0
  9  8  1  0
 10 15  2  0
 10  9  1  0
 11 10  1  0
 12 13  1  0
 12 11  2  0
 13 14  2  0
 14 15  1  0
 15  7  1  0
  1 17  1  0
  2 18  1  0
  8 19  1  0
  9 20  1  0
 11 21  1  0
 12 22  1  0
 13 23  1  0
 14 24  1  0
 16 25  1  0
M  ISO  8  17  14  18  14  19  14  20   9  21  14  22  14  23  14  24  14
M  ISO  1  25   3
M  END
>  <minimizedAffinity>  (1) 
-5.12681866

>  <minimizedRMSD>  (1) 
5.11924791

$$$$
