
     RDKit          3D

 19 20  0  0  0  0  0  0  0  0999 V2000
   40.1750   22.3930   37.2530 C   0  0  0  0  0  0  0  0  0  0  0  0
   39.6600   23.3280   38.1780 C   0  0  0  0  0  0  0  0  0  0  0  0
   38.3460   23.7750   38.0120 C   0  0  0  0  0  0  0  0  0  0  0  0
   37.6310   23.2800   36.9610 N   0  0  0  0  0  0  0  0  0  0  0  0
   38.1550   22.3960   36.1080 C   0  0  0  0  0  0  0  0  0  0  0  0
   39.4140   21.9440   36.2350 N   0  0  0  0  0  0  0  0  0  0  0  0
   37.3320   21.9090   35.0060 C   0  0  0  0  0  0  0  0  0  0  0  0
   36.2940   21.0230   35.1960 C   0  0  0  0  0  0  0  0  0  0  0  0
   35.5280   20.5750   34.1350 C   0  0  0  0  0  0  0  0  0  0  0  0
   35.7980   21.0070   32.9090 N   0  0  0  0  0  0  0  0  0  0  0  0
   36.8140   21.8760   32.7110 C   0  0  0  0  0  0  0  0  0  0  0  0
   37.5600   22.3130   33.7430 N   0  0  0  0  0  0  0  0  0  0  0  0
   37.9000   24.6830   38.9410 O   0  0  0  0  0  0  0  0  0  0  0  0
   41.2066   22.0279   37.3644 H   0  0  0  0  0  0  0  0  0  0  0  0
   40.2787   23.6959   39.0098 H   0  0  0  0  0  0  0  0  0  0  0  0
   36.0701   20.6648   36.2117 H   0  0  0  0  0  0  0  0  0  0  0  0
   34.7030   19.8676   34.3054 H   0  0  0  0  0  0  0  0  0  0  0  0
   37.0343   22.2308   31.6934 H   0  0  0  0  0  0  0  0  0  0  0  0
   36.9786   25.0401   38.8814 H   0  0  0  0  0  0  0  0  0  0  0  0
  1  2  2  0
  3  2  1  0
  3 13  1  0
  4  3  2  0
  5  6  2  0
  5  4  1  0
  6  1  1  0
  7  8  2  0
  7  5  1  0
  9  8  1  0
 10  9  2  0
 11 10  1  0
 11 12  2  0
 12  7  1  0
  1 14  1  0
  2 15  1  0
  8 16  1  0
  9 17  1  0
 11 18  1  0
 13 19  1  0
M  ISO  6  14  14  15  14  16  14  17  14  18  14  19   3
M  END
>  <minimizedAffinity>  (1) 
-4.00349092

>  <minimizedRMSD>  (1) 
1.06624055

$$$$
