
     RDKit          3D

 19 20  0  0  0  0  0  0  0  0999 V2000
   40.7910   23.1090   36.2730 C   0  0  0  0  0  0  0  0  0  0  0  0
   40.2710   22.5940   37.4810 C   0  0  0  0  0  0  0  0  0  0  0  0
   39.0520   23.1060   37.9310 C   0  0  0  0  0  0  0  0  0  0  0  0
   38.4260   24.0750   37.1870 N   0  0  0  0  0  0  0  0  0  0  0  0
   38.9680   24.5260   36.0500 C   0  0  0  0  0  0  0  0  0  0  0  0
   40.1380   24.0610   35.5780 N   0  0  0  0  0  0  0  0  0  0  0  0
   38.2690   25.5570   35.2880 C   0  0  0  0  0  0  0  0  0  0  0  0
   38.1070   26.8330   35.7830 C   0  0  0  0  0  0  0  0  0  0  0  0
   37.4480   27.8390   35.0860 C   0  0  0  0  0  0  0  0  0  0  0  0
   36.9650   27.4920   33.8730 N   0  0  0  0  0  0  0  0  0  0  0  0
   37.1090   26.2630   33.3700 C   0  0  0  0  0  0  0  0  0  0  0  0
   37.7550   25.3030   34.0720 N   0  0  0  0  0  0  0  0  0  0  0  0
   38.5870   22.5750   39.1090 O   0  0  0  0  0  0  0  0  0  0  0  0
   41.7487   22.7251   35.8917 H   0  0  0  0  0  0  0  0  0  0  0  0
   40.8068   21.8177   38.0469 H   0  0  0  0  0  0  0  0  0  0  0  0
   38.5185   27.0662   36.7761 H   0  0  0  0  0  0  0  0  0  0  0  0
   37.3275   28.8527   35.4958 H   0  0  0  0  0  0  0  0  0  0  0  0
   36.6989   26.0291   32.3765 H   0  0  0  0  0  0  0  0  0  0  0  0
   37.7288   22.8897   39.4892 H   0  0  0  0  0  0  0  0  0  0  0  0
  1  2  2  0
  2  3  1  0
  3 13  1  0
  4  3  2  0
  5  4  1  0
  6  5  2  0
  6  1  1  0
  7  8  2  0
  7  5  1  0
  9  8  1  0
 10  9  2  0
 11 10  1  0
 11 12  2  0
 12  7  1  0
  1 14  1  0
  2 15  1  0
  8 16  1  0
  9 17  1  0
 11 18  1  0
 13 19  1  0
M  ISO  6  14  14  15  14  16  14  17  14  18  14  19   3
M  END
>  <minimizedAffinity>  (1) 
-4.40478468

>  <minimizedRMSD>  (1) 
3.93465495

$$$$
