
     RDKit          3D

 25 26  0  0  0  0  0  0  0  0999 V2000
   40.1290   22.3250   37.1460 C   0  0  0  0  0  0  0  0  0  0  0  0
   39.5160   23.2200   38.0650 C   0  0  0  0  0  0  0  0  0  0  0  0
   38.2000   23.6270   37.8080 C   0  0  0  0  0  0  0  0  0  0  0  0
   37.5750   23.1410   36.6860 N   0  0  0  0  0  0  0  0  0  0  0  0
   38.1970   22.3010   35.8540 C   0  0  0  0  0  0  0  0  0  0  0  0
   39.4590   21.8870   36.0640 N   0  0  0  0  0  0  0  0  0  0  0  0
   37.4910   21.8350   34.7090 N   0  0  0  0  0  0  0  0  0  0  0  0
   36.2580   21.0900   34.8500 C   0  0  0  0  0  0  0  0  0  0  0  0
   35.8780   20.6700   33.4360 C   0  0  0  0  0  0  0  0  0  0  0  0
   35.6980   21.8230   32.5850 N   0  0  0  0  0  0  0  0  0  0  0  0
   36.8280   22.7320   32.5970 C   0  0  0  0  0  0  0  0  0  0  0  0
   37.9570   22.0740   33.3560 C   0  0  0  0  0  0  0  0  0  0  0  0
   37.6850   24.4890   38.7420 O   0  0  0  0  0  0  0  0  0  0  0  0
   41.1611   21.9872   37.3210 H   0  0  0  0  0  0  0  0  0  0  0  0
   40.0583   23.5820   38.9509 H   0  0  0  0  0  0  0  0  0  0  0  0
   36.4126   20.2060   35.4861 H   0  0  0  0  0  0  0  0  0  0  0  0
   35.4684   21.6902   35.3256 H   0  0  0  0  0  0  0  0  0  0  0  0
   36.6771   20.0380   33.0213 H   0  0  0  0  0  0  0  0  0  0  0  0
   34.9299   20.1138   33.4782 H   0  0  0  0  0  0  0  0  0  0  0  0
   34.8634   22.3360   32.9030 H   0  0  0  0  0  0  0  0  0  0  0  0
   37.1465   22.9434   31.5656 H   0  0  0  0  0  0  0  0  0  0  0  0
   36.5476   23.6795   33.0802 H   0  0  0  0  0  0  0  0  0  0  0  0
   38.2260   21.1208   32.8774 H   0  0  0  0  0  0  0  0  0  0  0  0
   38.8482   22.7187   33.3611 H   0  0  0  0  0  0  0  0  0  0  0  0
   36.7610   24.8307   38.6439 H   0  0  0  0  0  0  0  0  0  0  0  0
  1  2  2  0
  3  2  1  0
  3 13  1  0
  4  3  2  0
  5  6  2  0
  5  4  1  0
  6  1  1  0
  7  8  1  0
  7  5  1  0
  9  8  1  0
 10 11  1  0
 10  9  1  0
 11 12  1  0
 12  7  1  0
  1 14  1  0
  2 15  1  0
  8 16  1  0
  8 17  1  0
  9 18  1  0
  9 19  1  0
 10 20  1  0
 11 21  1  0
 11 22  1  0
 12 23  1  0
 12 24  1  0
 13 25  1  0
M  ISO  8  14  14  15  14  16  13  17  13  18  13  19  13  20   5  21  13
M  ISO  4  22  13  23  13  24  13  25   3
M  END
>  <minimizedAffinity>  (1) 
-4.00867367

>  <minimizedRMSD>  (1) 
0.803980291

$$$$
