
     RDKit          3D

 18 19  0  0  0  0  0  0  0  0999 V2000
   40.1160   22.4150   37.0800 C   0  0  0  0  0  0  0  0  0  0  0  0
   39.5650   23.2740   38.0490 C   0  0  0  0  0  0  0  0  0  0  0  0
   38.1980   23.6020   37.9360 C   0  0  0  0  0  0  0  0  0  0  0  0
   37.5100   23.0550   36.8910 N   0  0  0  0  0  0  0  0  0  0  0  0
   38.0720   22.2420   35.9930 C   0  0  0  0  0  0  0  0  0  0  0  0
   39.3910   21.9120   36.0800 N   0  0  0  0  0  0  0  0  0  0  0  0
   37.2460   21.7110   34.9110 C   0  0  0  0  0  0  0  0  0  0  0  0
   37.4380   21.8100   33.5490 C   0  0  0  0  0  0  0  0  0  0  0  0
   36.4050   21.1580   32.9640 N   0  0  0  0  0  0  0  0  0  0  0  0
   35.6000   20.6710   33.9260 C   0  0  0  0  0  0  0  0  0  0  0  0
   36.1170   21.0110   35.1360 N   0  0  0  0  0  0  0  0  0  0  0  0
   37.7010   24.4370   38.8940 O   0  0  0  0  0  0  0  0  0  0  0  0
   41.1812   22.1493   37.1498 H   0  0  0  0  0  0  0  0  0  0  0  0
   40.1801   23.6763   38.8674 H   0  0  0  0  0  0  0  0  0  0  0  0
   38.2681   22.3192   33.0375 H   0  0  0  0  0  0  0  0  0  0  0  0
   34.6780   20.0943   33.7607 H   0  0  0  0  0  0  0  0  0  0  0  0
   35.7187   20.7765   36.0565 H   0  0  0  0  0  0  0  0  0  0  0  0
   36.7484   24.7054   38.8709 H   0  0  0  0  0  0  0  0  0  0  0  0
  1  2  2  0
  3  2  1  0
  3 12  1  0
  4  3  2  0
  5  6  2  0
  5  4  1  0
  6  1  1  0
  7 11  1  0
  7  5  1  0
  8  7  2  0
  9  8  1  0
  9 10  2  0
 10 11  1  0
  1 13  1  0
  2 14  1  0
  8 15  1  0
 10 16  1  0
 11 17  1  0
 12 18  1  0
M  ISO  6  13  14  14  14  15  14  16  14  17   9  18   3
M  END
>  <minimizedAffinity>  (1) 
-3.69819808

>  <minimizedRMSD>  (1) 
0.995706737

$$$$
