
     RDKit          3D

 18 19  0  0  0  0  0  0  0  0999 V2000
   40.0830   22.4260   37.1110 C   0  0  0  0  0  0  0  0  0  0  0  0
   39.6190   23.3660   38.0480 C   0  0  0  0  0  0  0  0  0  0  0  0
   38.2680   23.7610   38.0000 C   0  0  0  0  0  0  0  0  0  0  0  0
   37.4750   23.2090   37.0440 N   0  0  0  0  0  0  0  0  0  0  0  0
   37.9660   22.3070   36.1610 C   0  0  0  0  0  0  0  0  0  0  0  0
   39.2550   21.9060   36.1780 N   0  0  0  0  0  0  0  0  0  0  0  0
   37.1150   21.7190   35.1390 C   0  0  0  0  0  0  0  0  0  0  0  0
   35.9920   20.8900   35.2250 C   0  0  0  0  0  0  0  0  0  0  0  0
   35.5450   20.6100   33.9290 C   0  0  0  0  0  0  0  0  0  0  0  0
   36.4430   21.2990   33.1310 C   0  0  0  0  0  0  0  0  0  0  0  0
   37.3320   21.9250   33.8660 O   0  0  0  0  0  0  0  0  0  0  0  0
   37.8920   24.6720   38.9370 O   0  0  0  0  0  0  0  0  0  0  0  0
   41.1360   22.1090   37.1377 H   0  0  0  0  0  0  0  0  0  0  0  0
   40.2986   23.7852   38.8046 H   0  0  0  0  0  0  0  0  0  0  0  0
   35.5365   20.5201   36.1554 H   0  0  0  0  0  0  0  0  0  0  0  0
   34.6887   19.9928   33.6194 H   0  0  0  0  0  0  0  0  0  0  0  0
   36.4150   21.3189   32.0315 H   0  0  0  0  0  0  0  0  0  0  0  0
   36.9571   24.9966   38.9646 H   0  0  0  0  0  0  0  0  0  0  0  0
  1  2  2  0
  3  2  1  0
  3 12  1  0
  4  3  2  0
  5  6  2  0
  5  4  1  0
  6  1  1  0
  7  8  2  0
  7  5  1  0
  9  8  1  0
 10 11  1  0
 10  9  2  0
 11  7  1  0
  1 13  1  0
  2 14  1  0
  8 15  1  0
  9 16  1  0
 10 17  1  0
 12 18  1  0
M  ISO  6  13  14  14  14  15  14  16  14  17  14  18   3
M  END
>  <minimizedAffinity>  (1) 
-3.9635787

>  <minimizedRMSD>  (1) 
1.27212393

$$$$
