
     RDKit          3D

 13 13  0  0  0  0  0  0  0  0999 V2000
   40.2850   22.3510   37.3190 C   0  0  0  0  0  0  0  0  0  0  0  0
   39.6090   23.1890   38.2400 C   0  0  0  0  0  0  0  0  0  0  0  0
   38.3070   23.6310   37.9040 C   0  0  0  0  0  0  0  0  0  0  0  0
   37.7790   23.2190   36.7050 N   0  0  0  0  0  0  0  0  0  0  0  0
   38.4660   22.4280   35.8780 C   0  0  0  0  0  0  0  0  0  0  0  0
   39.7120   21.9870   36.1670 N   0  0  0  0  0  0  0  0  0  0  0  0
   37.8360   22.0330   34.6210 C   0  0  0  0  0  0  0  0  0  0  0  0
   36.7350   21.3950   34.6920 O   0  0  0  0  0  0  0  0  0  0  0  0
   37.7090   24.4340   38.8320 O   0  0  0  0  0  0  0  0  0  0  0  0
   41.2982   21.9939   37.5556 H   0  0  0  0  0  0  0  0  0  0  0  0
   40.0817   23.4871   39.1875 H   0  0  0  0  0  0  0  0  0  0  0  0
   38.2939   22.2766   33.6509 H   0  0  0  0  0  0  0  0  0  0  0  0
   36.7973   24.7840   38.6698 H   0  0  0  0  0  0  0  0  0  0  0  0
  1  2  2  0
  3  2  1  0
  3  9  1  0
  4  3  2  0
  5  6  2  0
  5  4  1  0
  6  1  1  0
  7  8  2  0
  7  5  1  0
  1 10  1  0
  2 11  1  0
  7 12  1  0
  9 13  1  0
M  ISO  4  10  14  11  14  12   6  13   3
M  END
>  <minimizedAffinity>  (1) 
-3.05376911

>  <minimizedRMSD>  (1) 
0.469195724

$$$$
