
     RDKit          3D

 12 12  0  0  0  0  0  0  0  0999 V2000
   40.4600   22.3500   37.4870 C   0  0  0  0  0  0  0  0  0  0  0  0
   39.6650   23.1610   38.3170 C   0  0  0  0  0  0  0  0  0  0  0  0
   38.3930   23.5260   37.8660 C   0  0  0  0  0  0  0  0  0  0  0  0
   37.9940   23.0770   36.6530 N   0  0  0  0  0  0  0  0  0  0  0  0
   38.7710   22.3050   35.8860 C   0  0  0  0  0  0  0  0  0  0  0  0
   40.0170   21.9320   36.2970 N   0  0  0  0  0  0  0  0  0  0  0  0
   37.6560   24.3170   38.7100 O   0  0  0  0  0  0  0  0  0  0  0  0
   38.2830   21.8900   34.6570 O   0  0  0  0  0  0  0  0  0  0  0  0
   41.4647   22.0543   37.8233 H   0  0  0  0  0  0  0  0  0  0  0  0
   40.0348   23.4995   39.2961 H   0  0  0  0  0  0  0  0  0  0  0  0
   36.7472   24.6089   38.4473 H   0  0  0  0  0  0  0  0  0  0  0  0
   37.3777   22.1648   34.3655 H   0  0  0  0  0  0  0  0  0  0  0  0
  1  2  2  0
  3  2  1  0
  3  7  1  0
  4  3  2  0
  5  6  2  0
  5  4  1  0
  6  1  1  0
  8  5  1  0
  1  9  1  0
  2 10  1  0
  7 11  1  0
  8 12  1  0
M  ISO  4   9  14  10  14  11   3  12   3
M  END
>  <minimizedAffinity>  (1) 
-2.92465353

>  <minimizedRMSD>  (1) 
0.0103444438

$$$$
