
     RDKit          3D

 33 35  0  0  0  0  0  0  0  0999 V2000
   38.4470   23.9480   33.2120 C   0  0  0  0  0  0  0  0  0  0  0  0
   37.3580   23.5170   32.4690 C   0  0  0  0  0  0  0  0  0  0  0  0
   36.6290   24.6640   32.1330 C   0  0  0  0  0  0  0  0  0  0  0  0
   37.2600   25.7200   32.6540 N   0  0  0  0  0  0  0  0  0  0  0  0
   38.3620   25.2970   33.3090 N   0  0  0  0  0  0  0  0  0  0  0  0
   41.1490   21.4950   33.5870 C   0  0  0  0  0  0  0  0  0  0  0  0
   41.4250   21.5810   34.9680 C   0  0  0  0  0  0  0  0  0  0  0  0
   40.6830   22.4740   35.7330 C   0  0  0  0  0  0  0  0  0  0  0  0
   39.7340   23.2140   35.1200 N   0  0  0  0  0  0  0  0  0  0  0  0
   39.4960   23.1030   33.7870 C   0  0  0  0  0  0  0  0  0  0  0  0
   40.2010   22.2480   33.0300 N   0  0  0  0  0  0  0  0  0  0  0  0
   41.0340   22.5010   37.1590 C   0  0  0  0  0  0  0  0  0  0  0  0
   42.1660   23.2310   37.3300 F   0  0  0  0  0  0  0  0  0  0  0  0
   41.3050   21.2110   37.5460 F   0  0  0  0  0  0  0  0  0  0  0  0
   40.0380   23.0830   37.9290 F   0  0  0  0  0  0  0  0  0  0  0  0
   35.8130   29.6730   32.2900 C   0  0  0  0  0  0  0  0  0  0  0  0
   36.0010   29.1020   33.5500 C   0  0  0  0  0  0  0  0  0  0  0  0
   36.4830   27.7910   33.6180 C   0  0  0  0  0  0  0  0  0  0  0  0
   36.7750   27.0470   32.4950 C   0  0  0  0  0  0  0  0  0  0  0  0
   36.5860   27.6200   31.2420 C   0  0  0  0  0  0  0  0  0  0  0  0
   36.1070   28.9270   31.1640 C   0  0  0  0  0  0  0  0  0  0  0  0
   35.2170   31.3040   32.0670 S   0  0  0  0  0  0  0  0  0  0  0  0
   34.5280   31.7620   33.3260 O   0  0  0  0  0  0  0  0  0  0  0  0
   36.3390   32.2110   31.6780 O   0  0  0  0  0  0  0  0  0  0  0  0
   37.1151   22.4791   32.1974 H   0  0  0  0  0  0  0  0  0  0  0  0
   35.7004   24.6910   31.5439 H   0  0  0  0  0  0  0  0  0  0  0  0
   41.7243   20.7967   32.9614 H   0  0  0  0  0  0  0  0  0  0  0  0
   42.2066   20.9580   35.4273 H   0  0  0  0  0  0  0  0  0  0  0  0
   35.7758   29.6686   34.4656 H   0  0  0  0  0  0  0  0  0  0  0  0
   36.6352   27.3352   34.6075 H   0  0  0  0  0  0  0  0  0  0  0  0
   36.8107   27.0514   30.3276 H   0  0  0  0  0  0  0  0  0  0  0  0
   35.9580   29.3800   30.1727 H   0  0  0  0  0  0  0  0  0  0  0  0
   34.2996   31.3338   31.0500 H   0  0  0  0  0  0  0  0  0  0  0  0
  1  5  2  0
  1 10  1  0
  2  1  1  0
  3  2  2  0
  3  4  1  0
  4  5  1  0
  6  7  2  0
  7  8  1  0
  8 12  1  0
  9  8  2  0
 10  9  1  0
 11  6  1  0
 11 10  2  0
 12 13  1  0
 12 14  1  0
 12 15  1  0
 16 17  2  0
 17 18  1  0
 19  4  1  0
 19 18  2  0
 20 19  1  0
 21 20  2  0
 21 16  1  0
 22 16  1  0
 22 23  2  0
 24 22  2  0
  2 25  1  0
  3 26  1  0
  6 27  1  0
  7 28  1  0
 17 29  1  0
 18 30  1  0
 20 31  1  0
 21 32  1  0
 22 33  1  0
M  ISO  8  25  14  26  14  27  14  28  14  29  14  30  14  31  14  32  14
M  ISO  1  33  11
M  END
>  <minimizedAffinity>  (1) 
-4.54794645

>  <minimizedRMSD>  (1) 
3.93109536

$$$$
