
     RDKit          3D

 15 15  0  0  0  0  0  0  0  0999 V2000
   38.0400   24.2070   38.4800 C   0  0  0  0  0  0  0  0  0  0  0  0
   37.7380   24.6000   37.1580 C   0  0  0  0  0  0  0  0  0  0  0  0
   38.4280   24.0190   36.0800 C   0  0  0  0  0  0  0  0  0  0  0  0
   39.3630   23.0940   36.3950 N   0  0  0  0  0  0  0  0  0  0  0  0
   39.6400   22.7310   37.6530 C   0  0  0  0  0  0  0  0  0  0  0  0
   38.9760   23.2900   38.6870 N   0  0  0  0  0  0  0  0  0  0  0  0
   40.6380   21.7540   37.8690 N   0  0  0  0  0  0  0  0  0  0  0  0
   38.0790   24.4510   34.8410 O   0  0  0  0  0  0  0  0  0  0  0  0
   38.5140   23.7210   33.7280 C   0  0  0  0  0  0  0  0  0  0  0  0
   39.4870   24.0010   32.9820 O   0  0  0  0  0  0  0  0  0  0  0  0
   37.5048   24.6565   39.3294 H   0  0  0  0  0  0  0  0  0  0  0  0
   36.9642   25.3594   36.9720 H   0  0  0  0  0  0  0  0  0  0  0  0
   40.8696   21.4576   38.8279 H   0  0  0  0  0  0  0  0  0  0  0  0
   41.1338   21.3383   37.0676 H   0  0  0  0  0  0  0  0  0  0  0  0
   37.9476   22.8109   33.4813 H   0  0  0  0  0  0  0  0  0  0  0  0
  1  6  2  0
  2  1  1  0
  3  4  1  0
  3  2  2  0
  4  5  2  0
  5  7  1  0
  5  6  1  0
  8  3  1  0
  9  8  1  0
 10  9  2  0
  1 11  1  0
  2 12  1  0
  7 13  1  0
  7 14  1  0
  9 15  1  0
M  ISO  3  11  14  12  14  15   6
M  END
>  <minimizedAffinity>  (1) 
-3.41519904

>  <minimizedRMSD>  (1) 
4.14567471

$$$$
