
     RDKit          3D

 16 16  0  0  0  0  0  0  0  0999 V2000
   41.8370   21.4220   36.4820 C   0  0  0  0  0  0  0  0  0  0  0  0
   40.9540   21.8220   37.5070 C   0  0  0  0  0  0  0  0  0  0  0  0
   40.0830   22.8920   37.2910 C   0  0  0  0  0  0  0  0  0  0  0  0
   40.1420   23.5000   36.0690 N   0  0  0  0  0  0  0  0  0  0  0  0
   40.9840   23.0990   35.1270 C   0  0  0  0  0  0  0  0  0  0  0  0
   41.8320   22.0650   35.3240 N   0  0  0  0  0  0  0  0  0  0  0  0
   40.9690   23.7970   33.8900 N   0  0  0  0  0  0  0  0  0  0  0  0
   39.2720   23.2040   38.3320 O   0  0  0  0  0  0  0  0  0  0  0  0
   37.9680   23.6750   38.3350 C   0  0  0  0  0  0  0  0  0  0  0  0
   37.8200   24.8430   39.0440 F   0  0  0  0  0  0  0  0  0  0  0  0
   37.1990   22.7050   38.9910 F   0  0  0  0  0  0  0  0  0  0  0  0
   37.4130   23.8780   37.0940 F   0  0  0  0  0  0  0  0  0  0  0  0
   42.5263   20.5802   36.6437 H   0  0  0  0  0  0  0  0  0  0  0  0
   40.9516   21.2936   38.4718 H   0  0  0  0  0  0  0  0  0  0  0  0
   40.3188   24.5835   33.7503 H   0  0  0  0  0  0  0  0  0  0  0  0
   41.6083   23.5166   33.1327 H   0  0  0  0  0  0  0  0  0  0  0  0
  1  2  2  0
  3  2  1  0
  3  8  1  0
  4  3  2  0
  5  6  2  0
  5  4  1  0
  6  1  1  0
  7  5  1  0
  8  9  1  0
  9 11  1  0
  9 10  1  0
 12  9  1  0
  1 13  1  0
  2 14  1  0
  7 15  1  0
  7 16  1  0
M  ISO  2  13  14  14  14
M  END
>  <minimizedAffinity>  (1) 
-3.76049352

>  <minimizedRMSD>  (1) 
2.22631311

$$$$
