
     RDKit          3D

 16 16  0  0  0  0  0  0  0  0999 V2000
   41.3380   22.0390   36.5270 C   0  0  0  0  0  0  0  0  0  0  0  0
   40.6430   22.5690   37.6390 C   0  0  0  0  0  0  0  0  0  0  0  0
   39.2980   22.9550   37.5010 C   0  0  0  0  0  0  0  0  0  0  0  0
   38.7440   22.7860   36.2740 N   0  0  0  0  0  0  0  0  0  0  0  0
   39.4220   22.2840   35.2450 C   0  0  0  0  0  0  0  0  0  0  0  0
   40.7200   21.9040   35.3530 N   0  0  0  0  0  0  0  0  0  0  0  0
   38.7420   22.1520   34.0070 N   0  0  0  0  0  0  0  0  0  0  0  0
   38.7360   23.4490   38.6310 O   0  0  0  0  0  0  0  0  0  0  0  0
   37.9300   24.5660   38.7870 C   0  0  0  0  0  0  0  0  0  0  0  0
   42.3908   21.7374   36.6308 H   0  0  0  0  0  0  0  0  0  0  0  0
   41.1525   22.6788   38.6077 H   0  0  0  0  0  0  0  0  0  0  0  0
   37.7566   22.4411   33.9273 H   0  0  0  0  0  0  0  0  0  0  0  0
   39.2337   21.7670   33.1879 H   0  0  0  0  0  0  0  0  0  0  0  0
   37.7851   24.7668   39.8588 H   0  0  0  0  0  0  0  0  0  0  0  0
   38.4110   25.4343   38.3130 H   0  0  0  0  0  0  0  0  0  0  0  0
   36.9543   24.3832   38.3130 H   0  0  0  0  0  0  0  0  0  0  0  0
  1  2  2  0
  3  2  1  0
  3  8  1  0
  4  3  2  0
  5  6  2  0
  5  4  1  0
  6  1  1  0
  7  5  1  0
  8  9  1  0
  1 10  1  0
  2 11  1  0
  7 12  1  0
  7 13  1  0
  9 14  1  0
  9 15  1  0
  9 16  1  0
M  ISO  5  10  14  11  14  14   8  15   8  16   8
M  END
>  <minimizedAffinity>  (1) 
-2.75761056

>  <minimizedRMSD>  (1) 
1.19875443

$$$$
