
     RDKit          3D

 29 31  0  0  1  0  0  0  0  0999 V2000
   39.3530   25.2680   34.0920 C   0  0  1  0  0  0  0  0  0  0  0  0
   39.2730   26.6390   33.5500 C   0  0  0  0  0  0  0  0  0  0  0  0
   40.1460   26.3570   34.7620 C   0  0  2  0  0  0  0  0  0  0  0  0
   41.6100   26.2860   34.5450 C   0  0  0  0  0  0  0  0  0  0  0  0
   42.3200   25.2320   35.0710 C   0  0  0  0  0  0  0  0  0  0  0  0
   43.6840   25.1250   34.8950 C   0  0  0  0  0  0  0  0  0  0  0  0
   44.3560   26.0960   34.1760 C   0  0  0  0  0  0  0  0  0  0  0  0
   43.6190   27.1380   33.6610 C   0  0  0  0  0  0  0  0  0  0  0  0
   42.2820   27.2200   33.8490 N   0  0  0  0  0  0  0  0  0  0  0  0
   38.2790   24.8220   34.9300 O   0  0  0  0  0  0  0  0  0  0  0  0
   38.0040   24.2360   38.4790 C   0  0  0  0  0  0  0  0  0  0  0  0
   37.8130   24.7510   37.1480 C   0  0  0  0  0  0  0  0  0  0  0  0
   38.5920   24.2040   36.1060 C   0  0  0  0  0  0  0  0  0  0  0  0
   39.4790   23.2160   36.4240 N   0  0  0  0  0  0  0  0  0  0  0  0
   39.6090   22.7880   37.6570 C   0  0  0  0  0  0  0  0  0  0  0  0
   38.8990   23.2710   38.6820 N   0  0  0  0  0  0  0  0  0  0  0  0
   40.5940   21.7730   37.8540 N   0  0  0  0  0  0  0  0  0  0  0  0
   39.5528   24.2983   33.6128 H   0  0  0  0  0  0  0  0  0  0  0  0
   39.7377   26.8746   32.5812 H   0  0  0  0  0  0  0  0  0  0  0  0
   38.4545   27.3399   33.3290 H   0  0  0  0  0  0  0  0  0  0  0  0
   40.2284   26.7835   35.7726 H   0  0  0  0  0  0  0  0  0  0  0  0
   41.7889   24.4579   35.6442 H   0  0  0  0  0  0  0  0  0  0  0  0
   44.2329   24.2735   35.3235 H   0  0  0  0  0  0  0  0  0  0  0  0
   45.4434   26.0377   34.0207 H   0  0  0  0  0  0  0  0  0  0  0  0
   44.1292   27.9226   33.0829 H   0  0  0  0  0  0  0  0  0  0  0  0
   37.4169   24.6354   39.3191 H   0  0  0  0  0  0  0  0  0  0  0  0
   37.0811   25.5477   36.9491 H   0  0  0  0  0  0  0  0  0  0  0  0
   40.7541   21.3865   38.7952 H   0  0  0  0  0  0  0  0  0  0  0  0
   41.1443   21.4274   37.0549 H   0  0  0  0  0  0  0  0  0  0  0  0
  1  3  1  0
  1 10  1  0
  2  1  1  0
  2  3  1  0
  4  3  1  0
  4  5  2  0
  6  5  1  0
  7  6  2  0
  8  9  2  0
  8  7  1  0
  9  4  1  0
 10 13  1  0
 11 16  2  0
 12 11  1  0
 13 14  1  0
 13 12  2  0
 14 15  2  0
 15 17  1  0
 15 16  1  0
  1 18  1  6
  2 19  1  0
  2 20  1  0
  3 21  1  1
  5 22  1  0
  6 23  1  0
  7 24  1  0
  8 25  1  0
 11 26  1  0
 12 27  1  0
 17 28  1  0
 17 29  1  0
M  ISO  8  18  13  19  13  20  13  21  13  22  14  23  14  24  14  25  14
M  ISO  2  26  14  27  14
M  END
>  <minimizedAffinity>  (1) 
-4.7744689

>  <minimizedRMSD>  (1) 
2.7477057

$$$$
