
     RDKit          3D

 34 37  0  0  1  0  0  0  0  0999 V2000
   38.9410   22.9600   37.3960 C   0  0  1  0  0  0  0  0  0  0  0  0
   38.0800   23.9940   36.7820 C   0  0  0  0  0  0  0  0  0  0  0  0
   38.6440   22.8440   35.9500 C   0  0  2  0  0  0  0  0  0  0  0  0
   37.5700   22.0750   35.3370 C   0  0  0  0  0  0  0  0  0  0  0  0
   36.6140   21.4100   36.0510 N   0  0  0  0  0  0  0  0  0  0  0  0
   35.6400   20.7010   35.4890 C   0  0  0  0  0  0  0  0  0  0  0  0
   35.4800   20.5570   34.1680 N   0  0  0  0  0  0  0  0  0  0  0  0
   36.3820   21.1810   33.3660 C   0  0  0  0  0  0  0  0  0  0  0  0
   36.2690   21.0720   32.0120 C   0  0  0  0  0  0  0  0  0  0  0  0
   37.1790   21.7060   31.1630 C   0  0  0  0  0  0  0  0  0  0  0  0
   38.1940   22.4430   31.7380 C   0  0  0  0  0  0  0  0  0  0  0  0
   38.2710   22.5270   33.1120 C   0  0  0  0  0  0  0  0  0  0  0  0
   37.3860   21.9110   33.9720 C   0  0  0  0  0  0  0  0  0  0  0  0
   40.3030   23.3590   37.6280 O   0  0  0  0  0  0  0  0  0  0  0  0
   43.3670   22.3610   35.9830 C   0  0  0  0  0  0  0  0  0  0  0  0
   42.2410   23.1350   36.4460 C   0  0  0  0  0  0  0  0  0  0  0  0
   41.2960   22.4940   37.2990 C   0  0  0  0  0  0  0  0  0  0  0  0
   41.5090   21.1960   37.6310 N   0  0  0  0  0  0  0  0  0  0  0  0
   42.5500   20.5340   37.1820 C   0  0  0  0  0  0  0  0  0  0  0  0
   43.4710   21.0760   36.3790 N   0  0  0  0  0  0  0  0  0  0  0  0
   42.6810   19.1750   37.5740 N   0  0  0  0  0  0  0  0  0  0  0  0
   38.8230   22.3151   38.2793 H   0  0  0  0  0  0  0  0  0  0  0  0
   37.0063   24.0308   37.0181 H   0  0  0  0  0  0  0  0  0  0  0  0
   38.0991   25.0919   36.7162 H   0  0  0  0  0  0  0  0  0  0  0  0
   39.3280   22.6151   35.1195 H   0  0  0  0  0  0  0  0  0  0  0  0
   34.9192   20.2005   36.1523 H   0  0  0  0  0  0  0  0  0  0  0  0
   35.4500   20.4766   31.5821 H   0  0  0  0  0  0  0  0  0  0  0  0
   37.0893   21.6204   30.0700 H   0  0  0  0  0  0  0  0  0  0  0  0
   38.9335   22.9578   31.1071 H   0  0  0  0  0  0  0  0  0  0  0  0
   39.0874   23.1210   33.5486 H   0  0  0  0  0  0  0  0  0  0  0  0
   44.1236   22.8088   35.3219 H   0  0  0  0  0  0  0  0  0  0  0  0
   42.1157   24.1870   36.1500 H   0  0  0  0  0  0  0  0  0  0  0  0
   43.4829   18.6189   37.2444 H   0  0  0  0  0  0  0  0  0  0  0  0
   41.9741   18.7456   38.1879 H   0  0  0  0  0  0  0  0  0  0  0  0
  1 14  1  0
  2  1  1  0
  3  2  1  0
  3  1  1  0
  4  3  1  0
  4  5  2  0
  6  5  1  0
  7  6  2  0
  8 13  2  0
  8  7  1  0
  9  8  1  0
 10 11  1  0
 10  9  2  0
 11 12  2  0
 12 13  1  0
 13  4  1  0
 15 20  2  0
 15 16  1  0
 16 17  2  0
 17 14  1  0
 17 18  1  0
 19 21  1  0
 19 18  2  0
 20 19  1  0
  1 22  1  1
  2 23  1  0
  2 24  1  0
  3 25  1  6
  6 26  1  0
  9 27  1  0
 10 28  1  0
 11 29  1  0
 12 30  1  0
 15 31  1  0
 16 32  1  0
 21 33  1  0
 21 34  1  0
M  ISO  8  22  13  23  13  24  13  25  13  26  14  27  14  28  14  29  14
M  ISO  3  30  14  31  14  32  14
M  END
>  <minimizedAffinity>  (1) 
-5.10812283

>  <minimizedRMSD>  (1) 
6.3685441

$$$$
