
     RDKit          3D

 36 39  0  0  1  0  0  0  0  0999 V2000
   37.2810   23.8690   32.0020 C   0  0  1  0  0  0  0  0  0  0  0  0
   37.6120   23.9130   30.5640 C   0  0  0  0  0  0  0  0  0  0  0  0
   38.2100   22.8430   31.4820 C   0  0  2  0  0  0  0  0  0  0  0  0
   37.8770   21.5180   30.9830 C   0  0  0  0  0  0  0  0  0  0  0  0
   38.3990   20.9830   29.7970 C   0  0  0  0  0  0  0  0  0  0  0  0
   38.1260   19.7450   29.2690 C   0  0  0  0  0  0  0  0  0  0  0  0
   37.2660   18.9190   29.9320 C   0  0  0  0  0  0  0  0  0  0  0  0
   36.7040   19.3500   31.1000 C   0  0  0  0  0  0  0  0  0  0  0  0
   35.8410   18.5070   31.7660 C   0  0  0  0  0  0  0  0  0  0  0  0
   35.2480   18.8970   32.9620 C   0  0  0  0  0  0  0  0  0  0  0  0
   35.5450   20.1620   33.4770 C   0  0  0  0  0  0  0  0  0  0  0  0
   36.4140   20.9500   32.7600 C   0  0  0  0  0  0  0  0  0  0  0  0
   37.0190   20.6000   31.5740 C   0  0  0  0  0  0  0  0  0  0  0  0
   37.9390   24.8490   32.8190 O   0  0  0  0  0  0  0  0  0  0  0  0
   38.1650   25.8730   36.2780 C   0  0  0  0  0  0  0  0  0  0  0  0
   38.0650   25.8970   34.8420 C   0  0  0  0  0  0  0  0  0  0  0  0
   38.0200   24.6480   34.1500 C   0  0  0  0  0  0  0  0  0  0  0  0
   38.0720   23.5070   34.8860 N   0  0  0  0  0  0  0  0  0  0  0  0
   38.1640   23.5380   36.1880 C   0  0  0  0  0  0  0  0  0  0  0  0
   38.2140   24.6840   36.9090 N   0  0  0  0  0  0  0  0  0  0  0  0
   38.2200   22.3120   36.8940 N   0  0  0  0  0  0  0  0  0  0  0  0
   36.3284   23.8555   32.5519 H   0  0  0  0  0  0  0  0  0  0  0  0
   38.2468   24.7188   30.1669 H   0  0  0  0  0  0  0  0  0  0  0  0
   37.0371   23.9099   29.6262 H   0  0  0  0  0  0  0  0  0  0  0  0
   39.1487   22.4807   31.9265 H   0  0  0  0  0  0  0  0  0  0  0  0
   39.0973   21.6186   29.2327 H   0  0  0  0  0  0  0  0  0  0  0  0
   38.5934   19.4243   28.3263 H   0  0  0  0  0  0  0  0  0  0  0  0
   37.0290   17.9219   29.5324 H   0  0  0  0  0  0  0  0  0  0  0  0
   35.6187   17.5145   31.3470 H   0  0  0  0  0  0  0  0  0  0  0  0
   34.5588   18.2232   33.4922 H   0  0  0  0  0  0  0  0  0  0  0  0
   35.1005   20.5136   34.4198 H   0  0  0  0  0  0  0  0  0  0  0  0
   36.6455   21.9447   33.1687 H   0  0  0  0  0  0  0  0  0  0  0  0
   38.2008   26.8112   36.8511 H   0  0  0  0  0  0  0  0  0  0  0  0
   38.0244   26.8496   34.2934 H   0  0  0  0  0  0  0  0  0  0  0  0
   38.2927   22.3122   37.9214 H   0  0  0  0  0  0  0  0  0  0  0  0
   38.1880   21.4199   36.3802 H   0  0  0  0  0  0  0  0  0  0  0  0
  1 14  1  0
  2  3  1  0
  2  1  1  0
  3  1  1  0
  4  3  1  0
  4 13  1  0
  5  4  2  0
  6  5  1  0
  6  7  2  0
  7  8  1  0
  8 13  2  0
  8  9  1  0
  9 10  2  0
 10 11  1  0
 12 11  2  0
 13 12  1  0
 14 17  1  0
 15 20  2  0
 16 15  1  0
 17 16  2  0
 17 18  1  0
 18 19  2  0
 19 21  1  0
 19 20  1  0
  1 22  1  6
  2 23  1  0
  2 24  1  0
  3 25  1  1
  5 26  1  0
  6 27  1  0
  7 28  1  0
  9 29  1  0
 10 30  1  0
 11 31  1  0
 12 32  1  0
 15 33  1  0
 16 34  1  0
 21 35  1  0
 21 36  1  0
M  ISO  8  22  13  23  13  24  13  25  13  26  14  27  14  28  14  29  14
M  ISO  5  30  14  31  14  32  14  33  14  34  14
M  END
>  <minimizedAffinity>  (1) 
-5.0744791

>  <minimizedRMSD>  (1) 
6.96958876

$$$$
