
     RDKit          3D

 27 29  0  0  1  0  0  0  0  0999 V2000
   39.1620   25.0970   34.0380 C   0  0  1  0  0  0  0  0  0  0  0  0
   38.9100   26.4490   33.4940 C   0  0  0  0  0  0  0  0  0  0  0  0
   39.7840   26.2810   34.7310 C   0  0  2  0  0  0  0  0  0  0  0  0
   41.2200   26.5280   34.4460 C   0  0  0  0  0  0  0  0  0  0  0  0
   42.2910   25.7000   34.7640 C   0  0  0  0  0  0  0  0  0  0  0  0
   43.4550   26.3220   34.3100 C   0  0  0  0  0  0  0  0  0  0  0  0
   43.0780   27.4890   33.7370 N   0  0  0  0  0  0  0  0  0  0  0  0
   41.7610   27.5970   33.8230 N   0  0  0  0  0  0  0  0  0  0  0  0
   38.1430   24.5080   34.8570 O   0  0  0  0  0  0  0  0  0  0  0  0
   37.9610   24.1390   38.4400 C   0  0  0  0  0  0  0  0  0  0  0  0
   37.7290   24.5550   37.0790 C   0  0  0  0  0  0  0  0  0  0  0  0
   38.5050   23.9810   36.0590 C   0  0  0  0  0  0  0  0  0  0  0  0
   39.4400   23.0520   36.4190 N   0  0  0  0  0  0  0  0  0  0  0  0
   39.6110   22.7090   37.6740 C   0  0  0  0  0  0  0  0  0  0  0  0
   38.9000   23.2270   38.6820 N   0  0  0  0  0  0  0  0  0  0  0  0
   40.6410   21.7510   37.9150 N   0  0  0  0  0  0  0  0  0  0  0  0
   39.4999   24.1662   33.5591 H   0  0  0  0  0  0  0  0  0  0  0  0
   39.3631   26.7498   32.5378 H   0  0  0  0  0  0  0  0  0  0  0  0
   38.0101   27.0337   33.2524 H   0  0  0  0  0  0  0  0  0  0  0  0
   39.7977   26.6425   35.7698 H   0  0  0  0  0  0  0  0  0  0  0  0
   42.2315   24.7303   35.2800 H   0  0  0  0  0  0  0  0  0  0  0  0
   44.4817   25.9377   34.4005 H   0  0  0  0  0  0  0  0  0  0  0  0
   43.7103   28.1783   33.3058 H   0  0  0  0  0  0  0  0  0  0  0  0
   37.3721   24.5679   39.2642 H   0  0  0  0  0  0  0  0  0  0  0  0
   36.9603   25.3062   36.8447 H   0  0  0  0  0  0  0  0  0  0  0  0
   40.8340   21.4329   38.8755 H   0  0  0  0  0  0  0  0  0  0  0  0
   41.1914   21.3777   37.1285 H   0  0  0  0  0  0  0  0  0  0  0  0
  1  3  1  0
  1  9  1  0
  2  1  1  0
  2  3  1  0
  4  3  1  0
  4  5  1  0
  6  5  2  0
  7  8  1  0
  7  6  1  0
  8  4  2  0
  9 12  1  0
 10 15  2  0
 11 10  1  0
 12 13  1  0
 12 11  2  0
 13 14  2  0
 14 16  1  0
 14 15  1  0
  1 17  1  6
  2 18  1  0
  2 19  1  0
  3 20  1  1
  5 21  1  0
  6 22  1  0
  7 23  1  0
 10 24  1  0
 11 25  1  0
 16 26  1  0
 16 27  1  0
M  ISO  8  17  13  18  13  19  13  20  13  21  14  22  14  23   9  24  14
M  ISO  1  25  14
M  END
>  <minimizedAffinity>  (1) 
-4.74870491

>  <minimizedRMSD>  (1) 
2.46572399

$$$$
