
     RDKit          3D

 28 30  0  0  0  0  0  0  0  0999 V2000
   38.9560   23.2160   34.0520 C   0  0  0  0  0  0  0  0  0  0  0  0
   39.3790   22.6860   32.8540 C   0  0  0  0  0  0  0  0  0  0  0  0
   38.5940   23.2340   31.8470 C   0  0  0  0  0  0  0  0  0  0  0  0
   37.7190   24.0740   32.4350 N   0  0  0  0  0  0  0  0  0  0  0  0
   37.9400   24.0600   33.7650 N   0  0  0  0  0  0  0  0  0  0  0  0
   41.1010   21.9870   36.7510 C   0  0  0  0  0  0  0  0  0  0  0  0
   40.4180   22.4370   37.9050 C   0  0  0  0  0  0  0  0  0  0  0  0
   39.2370   23.1530   37.7030 C   0  0  0  0  0  0  0  0  0  0  0  0
   38.8070   23.3780   36.4420 N   0  0  0  0  0  0  0  0  0  0  0  0
   39.4860   22.9310   35.3660 C   0  0  0  0  0  0  0  0  0  0  0  0
   40.6370   22.2330   35.5330 N   0  0  0  0  0  0  0  0  0  0  0  0
   38.5720   23.5940   38.9450 C   0  0  0  0  0  0  0  0  0  0  0  0
   37.9000   24.7480   38.7130 F   0  0  0  0  0  0  0  0  0  0  0  0
   39.5550   23.8690   39.8690 F   0  0  0  0  0  0  0  0  0  0  0  0
   37.6700   22.6610   39.4120 F   0  0  0  0  0  0  0  0  0  0  0  0
   36.7480   24.8220   31.7110 C   0  0  0  0  0  0  0  0  0  0  0  0
   35.5440   24.3050   31.2670 C   0  0  0  0  0  0  0  0  0  0  0  0
   34.6410   25.1060   30.5620 C   0  0  0  0  0  0  0  0  0  0  0  0
   34.9820   26.4030   30.3260 N   0  0  0  0  0  0  0  0  0  0  0  0
   36.1450   26.8930   30.7580 C   0  0  0  0  0  0  0  0  0  0  0  0
   37.0320   26.1300   31.4440 N   0  0  0  0  0  0  0  0  0  0  0  0
   40.1930   21.9587   32.7182 H   0  0  0  0  0  0  0  0  0  0  0  0
   38.6720   23.0219   30.7705 H   0  0  0  0  0  0  0  0  0  0  0  0
   42.0371   21.4209   36.8661 H   0  0  0  0  0  0  0  0  0  0  0  0
   40.8003   22.2320   38.9159 H   0  0  0  0  0  0  0  0  0  0  0  0
   35.2948   23.2532   31.4708 H   0  0  0  0  0  0  0  0  0  0  0  0
   33.6820   24.7000   30.2078 H   0  0  0  0  0  0  0  0  0  0  0  0
   36.3915   27.9451   30.5522 H   0  0  0  0  0  0  0  0  0  0  0  0
  1 10  1  0
  2  1  1  0
  3  4  1  0
  3  2  2  0
  4  5  1  0
  5  1  2  0
  6  7  2  0
  8  7  1  0
  8 12  1  0
  9  8  2  0
 10 11  2  0
 10  9  1  0
 11  6  1  0
 12 15  1  0
 12 14  1  0
 13 12  1  0
 16  4  1  0
 17 16  2  0
 18 17  1  0
 19 18  2  0
 19 20  1  0
 20 21  2  0
 21 16  1  0
  2 22  1  0
  3 23  1  0
  6 24  1  0
  7 25  1  0
 17 26  1  0
 18 27  1  0
 20 28  1  0
M  ISO  7  22  14  23  14  24  14  25  14  26  14  27  14  28  14
M  END
>  <minimizedAffinity>  (1) 
-4.32597065

>  <minimizedRMSD>  (1) 
1.24746895

$$$$
