
     RDKit          3D

 30 32  0  0  1  0  0  0  0  0999 V2000
   37.6450   26.2300   35.0860 C   0  0  1  0  0  0  0  0  0  0  0  0
   37.9490   27.6390   35.4420 C   0  0  0  0  0  0  0  0  0  0  0  0
   39.0810   26.6340   35.2740 C   0  0  2  0  0  0  0  0  0  0  0  0
   39.9510   26.9270   34.1060 C   0  0  0  0  0  0  0  0  0  0  0  0
   41.3160   27.1210   34.2240 C   0  0  0  0  0  0  0  0  0  0  0  0
   42.1400   27.3920   33.1510 C   0  0  0  0  0  0  0  0  0  0  0  0
   41.5530   27.4720   31.9000 C   0  0  0  0  0  0  0  0  0  0  0  0
   40.1780   27.2830   31.7400 C   0  0  0  0  0  0  0  0  0  0  0  0
   39.3950   27.0120   32.8450 C   0  0  0  0  0  0  0  0  0  0  0  0
   37.2210   25.3520   36.1440 O   0  0  0  0  0  0  0  0  0  0  0  0
   38.9110   23.4230   38.6950 C   0  0  0  0  0  0  0  0  0  0  0  0
   38.0340   24.3440   38.0130 C   0  0  0  0  0  0  0  0  0  0  0  0
   38.1110   24.4300   36.6050 C   0  0  0  0  0  0  0  0  0  0  0  0
   39.0100   23.6370   35.9550 N   0  0  0  0  0  0  0  0  0  0  0  0
   39.7880   22.8140   36.6200 C   0  0  0  0  0  0  0  0  0  0  0  0
   39.7640   22.6860   37.9570 N   0  0  0  0  0  0  0  0  0  0  0  0
   40.7020   22.0260   35.8760 N   0  0  0  0  0  0  0  0  0  0  0  0
   37.0213   25.7921   34.2928 H   0  0  0  0  0  0  0  0  0  0  0  0
   37.8071   28.4371   34.6985 H   0  0  0  0  0  0  0  0  0  0  0  0
   37.6305   28.3259   36.2399 H   0  0  0  0  0  0  0  0  0  0  0  0
   39.9014   26.2002   35.8645 H   0  0  0  0  0  0  0  0  0  0  0  0
   41.7675   27.0558   35.2250 H   0  0  0  0  0  0  0  0  0  0  0  0
   43.2219   27.5388   33.2846 H   0  0  0  0  0  0  0  0  0  0  0  0
   42.1773   27.6872   31.0203 H   0  0  0  0  0  0  0  0  0  0  0  0
   39.7223   27.3496   30.7411 H   0  0  0  0  0  0  0  0  0  0  0  0
   38.3127   26.8617   32.7186 H   0  0  0  0  0  0  0  0  0  0  0  0
   38.8838   23.3251   39.7903 H   0  0  0  0  0  0  0  0  0  0  0  0
   37.3219   24.9648   38.5765 H   0  0  0  0  0  0  0  0  0  0  0  0
   41.3291   21.3686   36.3613 H   0  0  0  0  0  0  0  0  0  0  0  0
   40.7390   22.1109   34.8502 H   0  0  0  0  0  0  0  0  0  0  0  0
  1  3  1  0
  1  2  1  0
  1 10  1  0
  3  2  1  0
  4  5  2  0
  4  3  1  0
  6  5  1  0
  7  6  2  0
  8  7  1  0
  8  9  2  0
  9  4  1  0
 10 13  1  0
 12 11  2  0
 13 12  1  0
 14 13  2  0
 14 15  1  0
 15 16  2  0
 16 11  1  0
 17 15  1  0
  1 18  1  6
  2 19  1  0
  2 20  1  0
  3 21  1  1
  5 22  1  0
  6 23  1  0
  7 24  1  0
  8 25  1  0
  9 26  1  0
 11 27  1  0
 12 28  1  0
 17 29  1  0
 17 30  1  0
M  ISO  8  18  13  19  13  20  13  21  13  22  14  23  14  24  14  25  14
M  ISO  3  26  14  27  14  28  14
M  END
>  <minimizedAffinity>  (1) 
-4.85441637

>  <minimizedRMSD>  (1) 
1.25775349

$$$$
