
     RDKit          3D

 31 33  0  0  1  0  0  0  0  0999 V2000
   37.7810   26.3390   35.1260 C   0  0  1  0  0  0  0  0  0  0  0  0
   38.7040   27.3050   35.7740 C   0  0  0  0  0  0  0  0  0  0  0  0
   39.2540   26.1680   34.9190 C   0  0  2  0  0  0  0  0  0  0  0  0
   39.9330   26.6570   33.7480 N   0  0  0  0  0  0  0  0  0  0  0  0
   41.1820   27.1030   33.9810 C   0  0  0  0  0  0  0  0  0  0  0  0
   41.9430   27.6010   32.9290 C   0  0  0  0  0  0  0  0  0  0  0  0
   41.3920   27.6260   31.6510 C   0  0  0  0  0  0  0  0  0  0  0  0
   42.1970   28.1420   30.5990 N   0  0  0  0  0  0  0  0  0  0  0  0
   40.1350   27.1680   31.4630 N   0  0  0  0  0  0  0  0  0  0  0  0
   39.4100   26.6880   32.5020 C   0  0  0  0  0  0  0  0  0  0  0  0
   38.2390   26.2560   32.3570 O   0  0  0  0  0  0  0  0  0  0  0  0
   37.2580   25.3000   35.9710 O   0  0  0  0  0  0  0  0  0  0  0  0
   38.8510   23.5010   38.6750 C   0  0  0  0  0  0  0  0  0  0  0  0
   37.9950   24.3860   37.9270 C   0  0  0  0  0  0  0  0  0  0  0  0
   38.1290   24.4070   36.5090 C   0  0  0  0  0  0  0  0  0  0  0  0
   39.0540   23.5910   35.9330 N   0  0  0  0  0  0  0  0  0  0  0  0
   39.8080   22.8040   36.6620 C   0  0  0  0  0  0  0  0  0  0  0  0
   39.7350   22.7360   38.0020 N   0  0  0  0  0  0  0  0  0  0  0  0
   40.7490   21.9780   36.0020 N   0  0  0  0  0  0  0  0  0  0  0  0
   36.8922   26.4724   34.4918 H   0  0  0  0  0  0  0  0  0  0  0  0
   38.7585   28.3424   35.4124 H   0  0  0  0  0  0  0  0  0  0  0  0
   38.8681   27.6566   36.8033 H   0  0  0  0  0  0  0  0  0  0  0  0
   39.8992   25.2811   35.0039 H   0  0  0  0  0  0  0  0  0  0  0  0
   41.5984   27.0736   34.9987 H   0  0  0  0  0  0  0  0  0  0  0  0
   42.9646   27.9695   33.1041 H   0  0  0  0  0  0  0  0  0  0  0  0
   41.8276   28.1784   29.6382 H   0  0  0  0  0  0  0  0  0  0  0  0
   43.1497   28.4794   30.7976 H   0  0  0  0  0  0  0  0  0  0  0  0
   38.7851   23.4502   39.7718 H   0  0  0  0  0  0  0  0  0  0  0  0
   37.2597   25.0266   38.4358 H   0  0  0  0  0  0  0  0  0  0  0  0
   41.3550   21.3494   36.5483 H   0  0  0  0  0  0  0  0  0  0  0  0
   40.8277   22.0055   34.9754 H   0  0  0  0  0  0  0  0  0  0  0  0
  1  2  1  0
  1 12  1  0
  3  1  1  0
  3  2  1  0
  4  5  1  0
  4  3  1  0
  6  5  2  0
  7  6  1  0
  8  7  1  0
  9  7  2  0
  9 10  1  0
 10  4  1  0
 11 10  2  0
 12 15  1  0
 14 13  2  0
 15 14  1  0
 16 15  2  0
 16 17  1  0
 17 18  2  0
 18 13  1  0
 19 17  1  0
  1 20  1  6
  2 21  1  0
  2 22  1  0
  3 23  1  1
  5 24  1  0
  6 25  1  0
  8 26  1  0
  8 27  1  0
 13 28  1  0
 14 29  1  0
 19 30  1  0
 19 31  1  0
M  ISO  8  20  13  21  13  22  13  23  13  24  14  25  14  28  14  29  14
M  END
>  <minimizedAffinity>  (1) 
-4.56586409

>  <minimizedRMSD>  (1) 
1.38981032

$$$$
