
     RDKit          3D

 28 30  0  0  1  0  0  0  0  0999 V2000
   39.4810   25.3360   34.1330 C   0  0  1  0  0  0  0  0  0  0  0  0
   39.4550   26.6890   33.5280 C   0  0  0  0  0  0  0  0  0  0  0  0
   40.2800   26.4390   34.7810 C   0  0  2  0  0  0  0  0  0  0  0  0
   41.7320   26.3890   34.4950 C   0  0  0  0  0  0  0  0  0  0  0  0
   42.5390   25.3980   35.0460 C   0  0  0  0  0  0  0  0  0  0  0  0
   43.8960   25.3310   34.7940 C   0  0  0  0  0  0  0  0  0  0  0  0
   44.4180   26.2730   33.9830 N   0  0  0  0  0  0  0  0  0  0  0  0
   43.6490   27.2420   33.4390 C   0  0  0  0  0  0  0  0  0  0  0  0
   42.3090   27.2990   33.6960 N   0  0  0  0  0  0  0  0  0  0  0  0
   38.3790   24.9580   34.9740 O   0  0  0  0  0  0  0  0  0  0  0  0
   37.9830   24.2540   38.4940 C   0  0  0  0  0  0  0  0  0  0  0  0
   37.8440   24.8120   37.1720 C   0  0  0  0  0  0  0  0  0  0  0  0
   38.6560   24.2940   36.1270 C   0  0  0  0  0  0  0  0  0  0  0  0
   39.5290   23.2880   36.4290 N   0  0  0  0  0  0  0  0  0  0  0  0
   39.6160   22.8160   37.6500 C   0  0  0  0  0  0  0  0  0  0  0  0
   38.8810   23.2630   38.6740 N   0  0  0  0  0  0  0  0  0  0  0  0
   40.5690   21.7750   37.8640 N   0  0  0  0  0  0  0  0  0  0  0  0
   39.6642   24.3430   33.6967 H   0  0  0  0  0  0  0  0  0  0  0  0
   39.9577   26.8705   32.5666 H   0  0  0  0  0  0  0  0  0  0  0  0
   38.6629   27.3995   33.2492 H   0  0  0  0  0  0  0  0  0  0  0  0
   40.3442   26.8601   35.7952 H   0  0  0  0  0  0  0  0  0  0  0  0
   42.0818   24.6437   35.7033 H   0  0  0  0  0  0  0  0  0  0  0  0
   44.5233   24.5430   35.2361 H   0  0  0  0  0  0  0  0  0  0  0  0
   44.1082   27.9943   32.7809 H   0  0  0  0  0  0  0  0  0  0  0  0
   37.3746   24.6254   39.3318 H   0  0  0  0  0  0  0  0  0  0  0  0
   37.1250   25.6212   36.9764 H   0  0  0  0  0  0  0  0  0  0  0  0
   40.6820   21.3651   38.8022 H   0  0  0  0  0  0  0  0  0  0  0  0
   41.1436   21.4337   37.0803 H   0  0  0  0  0  0  0  0  0  0  0  0
  1  3  1  0
  1 10  1  0
  2  1  1  0
  2  3  1  0
  4  3  1  0
  4  5  2  0
  6  5  1  0
  7  6  2  0
  8  9  2  0
  8  7  1  0
  9  4  1  0
 10 13  1  0
 11 16  2  0
 12 11  1  0
 13 14  1  0
 13 12  2  0
 14 15  2  0
 15 17  1  0
 15 16  1  0
  1 18  1  6
  2 19  1  0
  2 20  1  0
  3 21  1  1
  5 22  1  0
  6 23  1  0
  8 24  1  0
 11 25  1  0
 12 26  1  0
 17 27  1  0
 17 28  1  0
M  ISO  8  18  13  19  13  20  13  21  13  22  14  23  14  24  14  25  14
M  ISO  1  26  14
M  END
>  <minimizedAffinity>  (1) 
-4.72066689

>  <minimizedRMSD>  (1) 
2.84562278

$$$$
