
     RDKit          3D

 28 30  0  0  1  0  0  0  0  0999 V2000
   37.6580   26.2660   35.0740 C   0  0  1  0  0  0  0  0  0  0  0  0
   37.9860   27.6550   35.4540 C   0  0  0  0  0  0  0  0  0  0  0  0
   39.1060   26.6440   35.2540 C   0  0  2  0  0  0  0  0  0  0  0  0
   39.9740   26.9320   34.0950 C   0  0  0  0  0  0  0  0  0  0  0  0
   39.3620   26.9420   32.8380 C   0  0  0  0  0  0  0  0  0  0  0  0
   40.2090   27.2170   31.7590 C   0  0  0  0  0  0  0  0  0  0  0  0
   41.5290   27.4560   31.9270 N   0  0  0  0  0  0  0  0  0  0  0  0
   42.0830   27.4360   33.1580 C   0  0  0  0  0  0  0  0  0  0  0  0
   41.2950   27.1730   34.2250 N   0  0  0  0  0  0  0  0  0  0  0  0
   37.2400   25.3620   36.1010 O   0  0  0  0  0  0  0  0  0  0  0  0
   38.9060   23.4220   38.6430 C   0  0  0  0  0  0  0  0  0  0  0  0
   38.0380   24.3410   37.9790 C   0  0  0  0  0  0  0  0  0  0  0  0
   38.1240   24.4400   36.5600 C   0  0  0  0  0  0  0  0  0  0  0  0
   39.0260   23.6560   35.9060 N   0  0  0  0  0  0  0  0  0  0  0  0
   39.8020   22.8220   36.5910 C   0  0  0  0  0  0  0  0  0  0  0  0
   39.7660   22.6870   37.9210 N   0  0  0  0  0  0  0  0  0  0  0  0
   40.7280   22.0520   35.8190 N   0  0  0  0  0  0  0  0  0  0  0  0
   37.0126   25.8607   34.2808 H   0  0  0  0  0  0  0  0  0  0  0  0
   37.8462   28.4702   34.7289 H   0  0  0  0  0  0  0  0  0  0  0  0
   37.6847   28.3278   36.2704 H   0  0  0  0  0  0  0  0  0  0  0  0
   39.9287   26.1924   35.8277 H   0  0  0  0  0  0  0  0  0  0  0  0
   38.2875   26.7469   32.7063 H   0  0  0  0  0  0  0  0  0  0  0  0
   39.7881   27.2394   30.7430 H   0  0  0  0  0  0  0  0  0  0  0  0
   43.1575   27.6304   33.2908 H   0  0  0  0  0  0  0  0  0  0  0  0
   38.8701   23.3173   39.7374 H   0  0  0  0  0  0  0  0  0  0  0  0
   37.3233   24.9550   38.5466 H   0  0  0  0  0  0  0  0  0  0  0  0
   41.3595   21.3860   36.2865 H   0  0  0  0  0  0  0  0  0  0  0  0
   40.7632   22.1636   34.7957 H   0  0  0  0  0  0  0  0  0  0  0  0
  1  3  1  0
  1  2  1  0
  1 10  1  0
  3  2  1  0
  4  9  1  0
  4  3  1  0
  5  4  2  0
  6  7  2  0
  6  5  1  0
  7  8  1  0
  8  9  2  0
 10 13  1  0
 12 11  2  0
 13 12  1  0
 14 13  2  0
 14 15  1  0
 15 16  2  0
 16 11  1  0
 17 15  1  0
  1 18  1  6
  2 19  1  0
  2 20  1  0
  3 21  1  1
  5 22  1  0
  6 23  1  0
  8 24  1  0
 11 25  1  0
 12 26  1  0
 17 27  1  0
 17 28  1  0
M  ISO  8  18  13  19  13  20  13  21  13  22  14  23  14  24  14  25  14
M  ISO  1  26  14
M  END
>  <minimizedAffinity>  (1) 
-4.48423767

>  <minimizedRMSD>  (1) 
1.19626164

$$$$
