
     RDKit          3D

 27 29  0  0  1  0  0  0  0  0999 V2000
   37.7690   23.8800   36.1480 O   0  0  0  0  0  0  0  0  0  0  0  0
   40.6350   22.3620   37.7460 C   0  0  0  0  0  0  0  0  0  0  0  0
   39.3960   23.0550   37.5100 C   0  0  0  0  0  0  0  0  0  0  0  0
   38.9370   23.2000   36.1690 C   0  0  0  0  0  0  0  0  0  0  0  0
   39.6810   22.6820   35.1710 N   0  0  0  0  0  0  0  0  0  0  0  0
   40.8240   22.0470   35.4410 C   0  0  0  0  0  0  0  0  0  0  0  0
   41.3070   21.8800   36.6790 N   0  0  0  0  0  0  0  0  0  0  0  0
   41.5600   21.5140   34.3560 N   0  0  0  0  0  0  0  0  0  0  0  0
   37.8030   25.2980   35.9050 C   0  0  1  0  0  0  0  0  0  0  0  0
   39.0340   25.8290   35.2640 C   0  0  0  0  0  0  0  0  0  0  0  0
   37.7850   25.5870   34.4350 C   0  0  2  0  0  0  0  0  0  0  0  0
   37.0820   26.8360   33.9450 C   0  0  0  0  0  0  0  0  0  0  0  0
   36.5620   28.0100   34.5350 C   0  0  0  0  0  0  0  0  0  0  0  0
   35.9960   28.8820   33.6550 C   0  0  0  0  0  0  0  0  0  0  0  0
   35.9000   28.7060   32.3020 C   0  0  0  0  0  0  0  0  0  0  0  0
   36.7430   27.0120   32.1300 S   0  0  0  0  0  0  0  0  0  0  0  0
   41.0233   22.2289   38.7665 H   0  0  0  0  0  0  0  0  0  0  0  0
   38.8144   23.4649   38.3489 H   0  0  0  0  0  0  0  0  0  0  0  0
   42.4461   21.0181   34.5289 H   0  0  0  0  0  0  0  0  0  0  0  0
   41.2096   21.6220   33.3935 H   0  0  0  0  0  0  0  0  0  0  0  0
   37.2359   25.6093   36.7947 H   0  0  0  0  0  0  0  0  0  0  0  0
   39.3646   26.8569   35.4742 H   0  0  0  0  0  0  0  0  0  0  0  0
   40.0833   25.5044   35.2045 H   0  0  0  0  0  0  0  0  0  0  0  0
   37.5110   25.0019   33.5447 H   0  0  0  0  0  0  0  0  0  0  0  0
   36.6104   28.2038   35.6167 H   0  0  0  0  0  0  0  0  0  0  0  0
   35.5785   29.8114   34.0697 H   0  0  0  0  0  0  0  0  0  0  0  0
   35.4604   29.3586   31.5333 H   0  0  0  0  0  0  0  0  0  0  0  0
  1  4  1  0
  3  2  2  0
  4  3  1  0
  5  6  1  0
  5  4  2  0
  6  7  2  0
  7  2  1  0
  8  6  1  0
  9  1  1  0
 10  9  1  0
 11 10  1  0
 11  9  1  0
 12 11  1  0
 12 13  2  0
 14 13  1  0
 15 14  2  0
 16 15  1  0
 16 12  1  0
  2 17  1  0
  3 18  1  0
  8 19  1  0
  8 20  1  0
  9 21  1  1
 10 22  1  0
 10 23  1  0
 11 24  1  6
 13 25  1  0
 14 26  1  0
 15 27  1  0
M  ISO  8  17  14  18  14  21  13  22  13  23  13  24  13  25  14  26  14
M  ISO  1  27  14
M  END
>  <minimizedAffinity>  (1) 
-4.01254559

>  <minimizedRMSD>  (1) 
2.7183857

$$$$
