
     RDKit          3D

 35 37  0  0  1  0  0  0  0  0999 V2000
   37.5000   26.7380   33.2840 C   0  0  1  0  0  0  0  0  0  0  0  0
   38.0730   27.5670   32.1930 C   0  0  0  0  0  0  0  0  0  0  0  0
   38.1190   26.0630   32.0980 C   0  0  2  0  0  0  0  0  0  0  0  0
   37.3680   25.5080   31.0480 N   0  0  0  0  0  0  0  0  0  0  0  0
   37.7240   24.2380   30.5400 C   0  0  0  0  0  0  0  0  0  0  0  0
   37.1160   23.1630   31.3920 C   0  0  0  0  0  0  0  0  0  0  0  0
   35.6300   23.2220   31.1150 C   0  0  0  0  0  0  0  0  0  0  0  0
   35.0650   24.5980   31.3060 C   0  0  0  0  0  0  0  0  0  0  0  0
   35.9760   25.7130   31.0040 C   0  0  0  0  0  0  0  0  0  0  0  0
   38.3230   26.5570   34.4500 O   0  0  0  0  0  0  0  0  0  0  0  0
   38.0330   24.5860   37.4730 C   0  0  0  0  0  0  0  0  0  0  0  0
   38.1470   25.6940   36.5590 C   0  0  0  0  0  0  0  0  0  0  0  0
   38.2070   25.4180   35.1640 C   0  0  0  0  0  0  0  0  0  0  0  0
   38.1520   24.1220   34.7530 N   0  0  0  0  0  0  0  0  0  0  0  0
   38.0470   23.1500   35.6320 C   0  0  0  0  0  0  0  0  0  0  0  0
   37.9870   23.3370   36.9680 N   0  0  0  0  0  0  0  0  0  0  0  0
   37.9810   21.8200   35.1540 N   0  0  0  0  0  0  0  0  0  0  0  0
   36.5249   26.7509   33.7929 H   0  0  0  0  0  0  0  0  0  0  0  0
   37.4076   28.1396   31.5302 H   0  0  0  0  0  0  0  0  0  0  0  0
   38.8202   28.3725   32.1393 H   0  0  0  0  0  0  0  0  0  0  0  0
   38.8655   25.2592   32.0161 H   0  0  0  0  0  0  0  0  0  0  0  0
   37.3540   24.1400   29.5087 H   0  0  0  0  0  0  0  0  0  0  0  0
   38.8192   24.1355   30.5513 H   0  0  0  0  0  0  0  0  0  0  0  0
   37.5201   22.1781   31.1152 H   0  0  0  0  0  0  0  0  0  0  0  0
   37.3391   23.3118   32.4588 H   0  0  0  0  0  0  0  0  0  0  0  0
   35.1158   22.5313   31.7994 H   0  0  0  0  0  0  0  0  0  0  0  0
   35.4743   22.9395   30.0634 H   0  0  0  0  0  0  0  0  0  0  0  0
   34.1852   24.6950   30.6529 H   0  0  0  0  0  0  0  0  0  0  0  0
   34.8378   24.6808   32.3791 H   0  0  0  0  0  0  0  0  0  0  0  0
   35.7487   26.5142   31.7226 H   0  0  0  0  0  0  0  0  0  0  0  0
   35.7814   25.9221   29.9417 H   0  0  0  0  0  0  0  0  0  0  0  0
   37.9846   24.7556   38.5588 H   0  0  0  0  0  0  0  0  0  0  0  0
   38.1867   26.7286   36.9305 H   0  0  0  0  0  0  0  0  0  0  0  0
   37.8985   21.0374   35.8186 H   0  0  0  0  0  0  0  0  0  0  0  0
   38.0155   21.6343   34.1415 H   0  0  0  0  0  0  0  0  0  0  0  0
  1 10  1  0
  2  1  1  0
  3  2  1  0
  3  1  1  0
  4  3  1  0
  5  4  1  0
  5  6  1  0
  7  8  1  0
  7  6  1  0
  9  4  1  0
  9  8  1  0
 10 13  1  0
 12 11  2  0
 13 12  1  0
 14 13  2  0
 14 15  1  0
 15 16  2  0
 16 11  1  0
 17 15  1  0
  1 18  1  1
  2 19  1  0
  2 20  1  0
  3 21  1  1
  5 22  1  0
  5 23  1  0
  6 24  1  0
  6 25  1  0
  7 26  1  0
  7 27  1  0
  8 28  1  0
  8 29  1  0
  9 30  1  0
  9 31  1  0
 11 32  1  0
 12 33  1  0
 17 34  1  0
 17 35  1  0
M  ISO  8  18  13  19  13  20  13  21  13  22  13  23  13  24  13  25  13
M  ISO  8  26  13  27  13  28  13  29  13  30  13  31  13  32  14  33  14
M  END
>  <minimizedAffinity>  (1) 
-4.21645498

>  <minimizedRMSD>  (1) 
4.69560194

$$$$
