
     RDKit          3D

 27 29  0  0  1  0  0  0  0  0999 V2000
   37.7070   26.2880   35.0420 C   0  0  1  0  0  0  0  0  0  0  0  0
   37.8760   27.7090   35.4270 C   0  0  0  0  0  0  0  0  0  0  0  0
   39.0930   26.7980   35.3510 C   0  0  2  0  0  0  0  0  0  0  0  0
   39.9510   26.9920   34.2050 N   0  0  0  0  0  0  0  0  0  0  0  0
   41.2580   27.2570   34.1930 N   0  0  0  0  0  0  0  0  0  0  0  0
   41.6790   27.3640   32.9110 C   0  0  0  0  0  0  0  0  0  0  0  0
   40.5910   27.1560   32.0900 C   0  0  0  0  0  0  0  0  0  0  0  0
   39.5060   26.9220   32.9350 C   0  0  0  0  0  0  0  0  0  0  0  0
   37.2770   25.3760   36.0630 O   0  0  0  0  0  0  0  0  0  0  0  0
   38.8820   23.3670   38.5930 C   0  0  0  0  0  0  0  0  0  0  0  0
   38.0110   24.2980   37.9250 C   0  0  0  0  0  0  0  0  0  0  0  0
   38.1670   24.4530   36.5250 C   0  0  0  0  0  0  0  0  0  0  0  0
   39.1250   23.7130   35.8920 N   0  0  0  0  0  0  0  0  0  0  0  0
   39.8870   22.8810   36.5560 C   0  0  0  0  0  0  0  0  0  0  0  0
   39.7960   22.6850   37.8810 N   0  0  0  0  0  0  0  0  0  0  0  0
   40.8670   22.1640   35.8180 N   0  0  0  0  0  0  0  0  0  0  0  0
   37.1819   25.8142   34.1995 H   0  0  0  0  0  0  0  0  0  0  0  0
   37.7356   28.5016   34.6773 H   0  0  0  0  0  0  0  0  0  0  0  0
   37.4415   28.3609   36.1992 H   0  0  0  0  0  0  0  0  0  0  0  0
   39.9051   26.5128   36.0359 H   0  0  0  0  0  0  0  0  0  0  0  0
   42.7066   27.5788   32.5825 H   0  0  0  0  0  0  0  0  0  0  0  0
   40.5806   27.1715   30.9902 H   0  0  0  0  0  0  0  0  0  0  0  0
   38.4720   26.7170   32.6208 H   0  0  0  0  0  0  0  0  0  0  0  0
   38.8003   23.2144   39.6793 H   0  0  0  0  0  0  0  0  0  0  0  0
   37.2521   24.8683   38.4808 H   0  0  0  0  0  0  0  0  0  0  0  0
   41.4889   21.4985   36.2988 H   0  0  0  0  0  0  0  0  0  0  0  0
   40.9554   22.3098   34.8022 H   0  0  0  0  0  0  0  0  0  0  0  0
  1  3  1  0
  1  2  1  0
  1  9  1  0
  3  2  1  0
  4  3  1  0
  5  4  1  0
  6  5  2  0
  7  6  1  0
  7  8  2  0
  8  4  1  0
  9 12  1  0
 11 10  2  0
 12 11  1  0
 13 12  2  0
 13 14  1  0
 14 15  2  0
 15 10  1  0
 16 14  1  0
  1 17  1  6
  2 18  1  0
  2 19  1  0
  3 20  1  1
  6 21  1  0
  7 22  1  0
  8 23  1  0
 10 24  1  0
 11 25  1  0
 16 26  1  0
 16 27  1  0
M  ISO  8  17  13  18  13  19  13  20  13  21  14  22  14  23  14  24  14
M  ISO  1  25  14
M  END
>  <minimizedAffinity>  (1) 
-4.24918938

>  <minimizedRMSD>  (1) 
1.21490633

$$$$
