
     RDKit          3D

 32 34  0  0  1  0  0  0  0  0999 V2000
   37.8190   26.1830   35.3710 C   0  0  1  0  0  0  0  0  0  0  0  0
   38.1380   27.5350   35.8860 C   0  0  0  0  0  0  0  0  0  0  0  0
   39.2360   26.6750   35.2740 C   0  0  2  0  0  0  0  0  0  0  0  0
   39.7610   27.2230   34.0580 N   0  0  0  0  0  0  0  0  0  0  0  0
   39.2270   26.6770   32.8520 C   0  0  0  0  0  0  0  0  0  0  0  0
   40.3700   26.0620   32.0850 C   0  0  0  0  0  0  0  0  0  0  0  0
   41.5770   26.8380   32.5880 C   0  0  0  0  0  0  0  0  0  0  0  0
   41.1910   27.0290   34.0460 C   0  0  0  0  0  0  0  0  0  0  0  0
   37.7090   25.1220   36.3280 O   0  0  0  0  0  0  0  0  0  0  0  0
   39.9150   22.5720   37.6150 C   0  0  0  0  0  0  0  0  0  0  0  0
   38.9960   23.6630   37.5280 C   0  0  0  0  0  0  0  0  0  0  0  0
   38.5690   24.0690   36.2300 C   0  0  0  0  0  0  0  0  0  0  0  0
   39.0530   23.3990   35.1450 N   0  0  0  0  0  0  0  0  0  0  0  0
   39.8960   22.4030   35.2900 C   0  0  0  0  0  0  0  0  0  0  0  0
   40.3410   21.9710   36.4960 N   0  0  0  0  0  0  0  0  0  0  0  0
   40.3640   21.7570   34.1200 N   0  0  0  0  0  0  0  0  0  0  0  0
   37.0386   25.8225   34.6847 H   0  0  0  0  0  0  0  0  0  0  0  0
   37.7759   28.4263   35.3526 H   0  0  0  0  0  0  0  0  0  0  0  0
   38.0008   28.0538   36.8462 H   0  0  0  0  0  0  0  0  0  0  0  0
   40.1953   26.2168   35.5565 H   0  0  0  0  0  0  0  0  0  0  0  0
   38.4769   25.9079   33.0883 H   0  0  0  0  0  0  0  0  0  0  0  0
   38.7392   27.4619   32.2553 H   0  0  0  0  0  0  0  0  0  0  0  0
   40.2369   26.1970   31.0015 H   0  0  0  0  0  0  0  0  0  0  0  0
   40.4591   24.9762   32.2368 H   0  0  0  0  0  0  0  0  0  0  0  0
   42.5054   26.2570   32.4858 H   0  0  0  0  0  0  0  0  0  0  0  0
   41.7849   27.7698   32.0416 H   0  0  0  0  0  0  0  0  0  0  0  0
   41.4606   26.1382   34.6324 H   0  0  0  0  0  0  0  0  0  0  0  0
   41.7171   27.8856   34.4926 H   0  0  0  0  0  0  0  0  0  0  0  0
   40.2712   22.2271   38.5969 H   0  0  0  0  0  0  0  0  0  0  0  0
   38.6306   24.1722   38.4320 H   0  0  0  0  0  0  0  0  0  0  0  0
   41.0262   20.9717   34.1952 H   0  0  0  0  0  0  0  0  0  0  0  0
   40.0422   22.0724   33.1938 H   0  0  0  0  0  0  0  0  0  0  0  0
  1  2  1  0
  1  9  1  0
  3  1  1  0
  3  2  1  0
  4  5  1  0
  4  3  1  0
  6  7  1  0
  6  5  1  0
  7  8  1  0
  8  4  1  0
 11 10  2  0
 12  9  1  0
 12 11  1  0
 13 14  1  0
 13 12  2  0
 14 15  2  0
 15 10  1  0
 16 14  1  0
  1 17  1  6
  2 18  1  0
  2 19  1  0
  3 20  1  1
  5 21  1  0
  5 22  1  0
  6 23  1  0
  6 24  1  0
  7 25  1  0
  7 26  1  0
  8 27  1  0
  8 28  1  0
 10 29  1  0
 11 30  1  0
 16 31  1  0
 16 32  1  0
M  ISO  8  17  13  18  13  19  13  20  13  21  13  22  13  23  13  24  13
M  ISO  6  25  13  26  13  27  13  28  13  29  14  30  14
M  END
>  <minimizedAffinity>  (1) 
-3.76869512

>  <minimizedRMSD>  (1) 
1.25344133

$$$$
