
     RDKit          3D

 26 28  0  0  1  0  0  0  0  0999 V2000
   37.8520   25.1340   36.5590 O   0  0  0  0  0  0  0  0  0  0  0  0
   40.0340   22.4980   37.6980 C   0  0  0  0  0  0  0  0  0  0  0  0
   39.1400   23.6260   37.6540 C   0  0  0  0  0  0  0  0  0  0  0  0
   38.6720   24.0590   36.3990 C   0  0  0  0  0  0  0  0  0  0  0  0
   39.0780   23.3990   35.2850 N   0  0  0  0  0  0  0  0  0  0  0  0
   39.9080   22.3610   35.3880 C   0  0  0  0  0  0  0  0  0  0  0  0
   40.3860   21.9040   36.5510 N   0  0  0  0  0  0  0  0  0  0  0  0
   40.2920   21.7470   34.1520 N   0  0  0  0  0  0  0  0  0  0  0  0
   37.7010   26.0530   35.4720 C   0  0  1  0  0  0  0  0  0  0  0  0
   38.0400   27.4740   35.7030 C   0  0  0  0  0  0  0  0  0  0  0  0
   39.0460   26.5610   35.0140 C   0  0  2  0  0  0  0  0  0  0  0  0
   39.2450   26.9120   33.6200 N   0  0  0  0  0  0  0  0  0  0  0  0
   40.4930   27.0860   33.1430 C   0  0  0  0  0  0  0  0  0  0  0  0
   40.4010   27.4060   31.8240 N   0  0  0  0  0  0  0  0  0  0  0  0
   39.0710   27.4210   31.5210 C   0  0  0  0  0  0  0  0  0  0  0  0
   38.3810   27.1150   32.6370 N   0  0  0  0  0  0  0  0  0  0  0  0
   40.4218   22.1300   38.6594 H   0  0  0  0  0  0  0  0  0  0  0  0
   38.8305   24.1365   38.5779 H   0  0  0  0  0  0  0  0  0  0  0  0
   40.9314   20.9395   34.1549 H   0  0  0  0  0  0  0  0  0  0  0  0
   39.9287   22.1131   33.2604 H   0  0  0  0  0  0  0  0  0  0  0  0
   36.8131   25.5784   35.0288 H   0  0  0  0  0  0  0  0  0  0  0  0
   37.5292   28.2608   35.1285 H   0  0  0  0  0  0  0  0  0  0  0  0
   38.0659   28.1322   36.5839 H   0  0  0  0  0  0  0  0  0  0  0  0
   40.0726   26.1948   35.1626 H   0  0  0  0  0  0  0  0  0  0  0  0
   41.4243   26.9866   33.7198 H   0  0  0  0  0  0  0  0  0  0  0  0
   38.6367   27.6444   30.5354 H   0  0  0  0  0  0  0  0  0  0  0  0
  3  2  2  0
  4  1  1  0
  4  3  1  0
  5  6  1  0
  5  4  2  0
  6  7  2  0
  7  2  1  0
  8  6  1  0
  9 10  1  0
  9  1  1  0
 11  9  1  0
 11 10  1  0
 12 11  1  0
 13 12  1  0
 14 13  2  0
 15 14  1  0
 15 16  2  0
 16 12  1  0
  2 17  1  0
  3 18  1  0
  8 19  1  0
  8 20  1  0
  9 21  1  6
 10 22  1  0
 10 23  1  0
 11 24  1  1
 13 25  1  0
 15 26  1  0
M  ISO  8  17  14  18  14  21  13  22  13  23  13  24  13  25  14  26  14
M  END
>  <minimizedAffinity>  (1) 
-3.74838758

>  <minimizedRMSD>  (1) 
0.889797151

$$$$
