
     RDKit          3D

 32 33  0  0  1  0  0  0  0  0999 V2000
   38.1770   26.5520   35.8010 O   0  0  0  0  0  0  0  0  0  0  0  0
   38.2400   23.3370   37.4460 C   0  0  0  0  0  0  0  0  0  0  0  0
   37.8740   24.6700   37.0610 C   0  0  0  0  0  0  0  0  0  0  0  0
   38.6430   25.2880   36.0450 C   0  0  0  0  0  0  0  0  0  0  0  0
   39.6770   24.5850   35.4950 N   0  0  0  0  0  0  0  0  0  0  0  0
   39.9560   23.3690   35.8960 C   0  0  0  0  0  0  0  0  0  0  0  0
   39.2750   22.7240   36.8510 N   0  0  0  0  0  0  0  0  0  0  0  0
   41.0650   22.7240   35.2760 N   0  0  0  0  0  0  0  0  0  0  0  0
   37.0870   26.7060   34.8830 C   0  0  1  0  0  0  0  0  0  0  0  0
   36.6110   28.0790   34.5890 C   0  0  0  0  0  0  0  0  0  0  0  0
   37.5410   27.3800   33.6140 C   0  0  2  0  0  0  0  0  0  0  0  0
   36.9930   27.0130   32.2830 C   0  0  0  0  0  0  0  0  0  0  0  0
   35.7860   27.8790   31.9950 C   0  0  0  0  0  0  0  0  0  0  0  0
   37.9800   27.2970   31.1520 C   0  0  0  0  0  0  0  0  0  0  0  0
   36.6180   25.5620   32.1550 C   0  0  0  0  0  0  0  0  0  0  0  0
   37.6710   22.8165   38.2305 H   0  0  0  0  0  0  0  0  0  0  0  0
   37.0297   25.1911   37.5361 H   0  0  0  0  0  0  0  0  0  0  0  0
   41.3264   21.7676   35.5550 H   0  0  0  0  0  0  0  0  0  0  0  0
   41.6052   23.2142   34.5488 H   0  0  0  0  0  0  0  0  0  0  0  0
   36.5511   25.7900   35.1724 H   0  0  0  0  0  0  0  0  0  0  0  0
   35.5585   28.2492   34.3182 H   0  0  0  0  0  0  0  0  0  0  0  0
   36.6290   29.0385   35.1266 H   0  0  0  0  0  0  0  0  0  0  0  0
   38.5274   27.5598   33.1616 H   0  0  0  0  0  0  0  0  0  0  0  0
   35.3332   28.2039   32.9433 H   0  0  0  0  0  0  0  0  0  0  0  0
   36.0973   28.7611   31.4161 H   0  0  0  0  0  0  0  0  0  0  0  0
   35.0501   27.3016   31.4161 H   0  0  0  0  0  0  0  0  0  0  0  0
   38.9547   27.5775   31.5778 H   0  0  0  0  0  0  0  0  0  0  0  0
   38.0963   26.3959   30.5320 H   0  0  0  0  0  0  0  0  0  0  0  0
   37.5996   28.1221   30.5320 H   0  0  0  0  0  0  0  0  0  0  0  0
   36.5045   25.1228   33.1571 H   0  0  0  0  0  0  0  0  0  0  0  0
   35.6681   25.4757   31.6071 H   0  0  0  0  0  0  0  0  0  0  0  0
   37.4072   25.0263   31.6071 H   0  0  0  0  0  0  0  0  0  0  0  0
  1  4  1  0
  3  2  2  0
  4  3  1  0
  5  6  1  0
  5  4  2  0
  6  7  2  0
  7  2  1  0
  8  6  1  0
  9  1  1  0
 10  9  1  0
 11 10  1  0
 11  9  1  0
 12 11  1  0
 13 12  1  0
 14 12  1  0
 15 12  1  0
  2 16  1  0
  3 17  1  0
  8 18  1  0
  8 19  1  0
  9 20  1  6
 10 21  1  0
 10 22  1  0
 11 23  1  6
 13 24  1  0
 13 25  1  0
 13 26  1  0
 14 27  1  0
 14 28  1  0
 14 29  1  0
 15 30  1  0
 15 31  1  0
 15 32  1  0
M  ISO  8  16  14  17  14  20  13  21  13  22  13  23  13  24   8  25   8
M  ISO  7  26   8  27   8  28   8  29   8  30   8  31   8  32   8
M  END
>  <minimizedAffinity>  (1) 
-3.88788581

>  <minimizedRMSD>  (1) 
2.6624608

$$$$
