
     RDKit          3D

 23 24  0  0  1  0  0  0  0  0999 V2000
   39.6350   22.8980   38.0350 C   0  0  0  0  0  0  0  0  0  0  0  0
   38.6950   23.7210   37.3200 C   0  0  0  0  0  0  0  0  0  0  0  0
   38.7980   23.7760   35.9090 C   0  0  0  0  0  0  0  0  0  0  0  0
   39.7820   23.0440   35.3090 N   0  0  0  0  0  0  0  0  0  0  0  0
   40.6080   22.3140   36.0200 C   0  0  0  0  0  0  0  0  0  0  0  0
   40.5600   22.2220   37.3520 N   0  0  0  0  0  0  0  0  0  0  0  0
   41.6110   21.6130   35.2700 N   0  0  0  0  0  0  0  0  0  0  0  0
   37.8390   24.6070   35.4150 O   0  0  0  0  0  0  0  0  0  0  0  0
   38.1150   25.3180   34.2040 C   0  0  1  0  0  0  0  0  0  0  0  0
   37.1820   26.3850   33.7910 C   0  0  0  0  0  0  0  0  0  0  0  0
   38.4860   26.7510   34.4890 C   0  0  1  0  0  0  0  0  0  0  0  0
   38.4410   27.2040   35.9040 C   0  0  0  0  0  0  0  0  0  0  0  0
   39.5910   22.8274   39.1319 H   0  0  0  0  0  0  0  0  0  0  0  0
   37.9198   24.2902   37.8539 H   0  0  0  0  0  0  0  0  0  0  0  0
   42.2969   21.0187   35.7572 H   0  0  0  0  0  0  0  0  0  0  0  0
   41.6449   21.7042   34.2446 H   0  0  0  0  0  0  0  0  0  0  0  0
   38.5357   24.4627   33.6548 H   0  0  0  0  0  0  0  0  0  0  0  0
   37.0474   26.6140   32.7235 H   0  0  0  0  0  0  0  0  0  0  0  0
   36.1183   26.5987   33.9722 H   0  0  0  0  0  0  0  0  0  0  0  0
   39.3334   27.4142   34.2609 H   0  0  0  0  0  0  0  0  0  0  0  0
   38.5275   26.3333   36.5707 H   0  0  0  0  0  0  0  0  0  0  0  0
   39.2748   27.8957   36.0942 H   0  0  0  0  0  0  0  0  0  0  0  0
   37.4874   27.7182   36.0942 H   0  0  0  0  0  0  0  0  0  0  0  0
  2  1  2  0
  3  2  1  0
  4  3  2  0
  4  5  1  0
  5  6  2  0
  6  1  1  0
  7  5  1  0
  8  3  1  0
  9 11  1  0
  9  8  1  0
 10  9  1  0
 10 11  1  0
 11 12  1  0
  1 13  1  0
  2 14  1  0
  7 15  1  0
  7 16  1  0
  9 17  1  6
 10 18  1  0
 10 19  1  0
 11 20  1  6
 12 21  1  0
 12 22  1  0
 12 23  1  0
M  ISO  8  13  14  14  14  17  13  18  13  19  13  20  13  21   8  22   8
M  ISO  1  23   8
M  END
>  <minimizedAffinity>  (1) 
-3.40503907

>  <minimizedRMSD>  (1) 
1.24262393

$$$$
