
     RDKit          3D

 22 23  0  0  1  0  0  0  0  0999 V2000
   38.0180   24.2070   38.3420 C   0  0  0  0  0  0  0  0  0  0  0  0
   37.9180   24.7140   36.9930 C   0  0  0  0  0  0  0  0  0  0  0  0
   38.7530   24.1670   36.0100 C   0  0  0  0  0  0  0  0  0  0  0  0
   39.6230   23.1790   36.3720 N   0  0  0  0  0  0  0  0  0  0  0  0
   39.6710   22.7560   37.6210 C   0  0  0  0  0  0  0  0  0  0  0  0
   38.9000   23.2390   38.6020 N   0  0  0  0  0  0  0  0  0  0  0  0
   40.6380   21.7400   37.8890 N   0  0  0  0  0  0  0  0  0  0  0  0
   38.5160   24.7800   34.8160 O   0  0  0  0  0  0  0  0  0  0  0  0
   39.5470   25.5860   34.2410 C   0  0  1  0  0  0  0  0  0  0  0  0
   39.4210   25.9630   32.8160 C   0  0  0  0  0  0  0  0  0  0  0  0
   39.0390   26.9600   33.8980 C   0  0  1  0  0  0  0  0  0  0  0  0
   37.6160   27.2280   34.1530 C   0  0  0  0  0  0  0  0  0  0  0  0
   36.5880   27.5570   34.7300 O   0  0  0  0  0  0  0  0  0  0  0  0
   37.3788   24.6113   39.1408 H   0  0  0  0  0  0  0  0  0  0  0  0
   37.2026   25.5114   36.7433 H   0  0  0  0  0  0  0  0  0  0  0  0
   40.7347   21.3594   38.8412 H   0  0  0  0  0  0  0  0  0  0  0  0
   41.2388   21.3878   37.1301 H   0  0  0  0  0  0  0  0  0  0  0  0
   40.3775   25.1474   34.8137 H   0  0  0  0  0  0  0  0  0  0  0  0
   38.6403   25.5025   32.1928 H   0  0  0  0  0  0  0  0  0  0  0  0
   40.1029   25.9767   31.9530 H   0  0  0  0  0  0  0  0  0  0  0  0
   39.3224   27.9972   34.1301 H   0  0  0  0  0  0  0  0  0  0  0  0
   37.1968   26.9444   33.1763 H   0  0  0  0  0  0  0  0  0  0  0  0
  1  6  2  0
  2  1  1  0
  3  4  1  0
  3  2  2  0
  4  5  2  0
  5  7  1  0
  5  6  1  0
  8  3  1  0
  9  8  1  0
 10 11  1  0
 10  9  1  0
 11 12  1  0
 11  9  1  0
 12 13  2  0
  1 14  1  0
  2 15  1  0
  7 16  1  0
  7 17  1  0
  9 18  1  1
 10 19  1  0
 10 20  1  0
 11 21  1  1
 12 22  1  0
M  ISO  7  14  14  15  14  18  13  19  13  20  13  21  13  22   6
M  END
>  <minimizedAffinity>  (1) 
-3.98783946

>  <minimizedRMSD>  (1) 
2.87295699

$$$$
