
     RDKit          3D

 21 22  0  0  1  0  0  0  0  0999 V2000
   38.6970   23.4680   38.5760 C   0  0  0  0  0  0  0  0  0  0  0  0
   37.9730   24.1150   37.5210 C   0  0  0  0  0  0  0  0  0  0  0  0
   38.4750   24.0020   36.2000 C   0  0  0  0  0  0  0  0  0  0  0  0
   39.6190   23.2810   36.0110 N   0  0  0  0  0  0  0  0  0  0  0  0
   40.2360   22.7130   37.0220 C   0  0  0  0  0  0  0  0  0  0  0  0
   39.8030   22.7910   38.2840 N   0  0  0  0  0  0  0  0  0  0  0  0
   41.4370   22.0060   36.6970 N   0  0  0  0  0  0  0  0  0  0  0  0
   37.6680   24.6850   35.3400 O   0  0  0  0  0  0  0  0  0  0  0  0
   38.1920   25.0770   34.0710 C   0  0  1  0  0  0  0  0  0  0  0  0
   37.2870   25.8450   33.1900 C   0  0  0  0  0  0  0  0  0  0  0  0
   38.3520   26.5730   33.9920 C   0  0  1  0  0  0  0  0  0  0  0  0
   37.9120   27.6070   35.3800 S   0  0  0  0  0  0  0  0  0  0  0  0
   38.3413   23.5312   39.6150 H   0  0  0  0  0  0  0  0  0  0  0  0
   37.0544   24.6827   37.7306 H   0  0  0  0  0  0  0  0  0  0  0  0
   41.9744   21.5354   37.4390 H   0  0  0  0  0  0  0  0  0  0  0  0
   41.7640   21.9678   35.7210 H   0  0  0  0  0  0  0  0  0  0  0  0
   38.8181   24.1892   33.8986 H   0  0  0  0  0  0  0  0  0  0  0  0
   36.2258   25.9576   33.4570 H   0  0  0  0  0  0  0  0  0  0  0  0
   37.0153   25.7966   32.1252 H   0  0  0  0  0  0  0  0  0  0  0  0
   39.1718   27.2679   33.7573 H   0  0  0  0  0  0  0  0  0  0  0  0
   38.1926   26.9477   36.5477 H   0  0  0  0  0  0  0  0  0  0  0  0
  2  1  2  0
  3  2  1  0
  4  3  2  0
  4  5  1  0
  5  6  2  0
  6  1  1  0
  7  5  1  0
  8  3  1  0
  9  8  1  0
 10 11  1  0
 10  9  1  0
 11  9  1  0
 11 12  1  0
  1 13  1  0
  2 14  1  0
  7 15  1  0
  7 16  1  0
  9 17  1  6
 10 18  1  0
 10 19  1  0
 11 20  1  6
 12 21  1  0
M  ISO  7  13  14  14  14  17  13  18  13  19  13  20  13  21  11
M  END
>  <minimizedAffinity>  (1) 
-3.25076771

>  <minimizedRMSD>  (1) 
2.00855207

$$$$
