
     RDKit          3D

 37 39  0  0  1  0  0  0  0  0999 V2000
   36.2760   29.6830   32.2910 C   0  0  0  0  0  0  0  0  0  0  0  0
   37.0050   28.6490   31.7680 C   0  0  0  0  0  0  0  0  0  0  0  0
   37.2520   27.5440   32.5780 C   0  0  0  0  0  0  0  0  0  0  0  0
   36.7700   27.4990   33.8740 C   0  0  0  0  0  0  0  0  0  0  0  0
   36.0390   28.5320   34.3980 C   0  0  0  0  0  0  0  0  0  0  0  0
   35.7870   29.6350   33.6070 C   0  0  0  0  0  0  0  0  0  0  0  0
   37.1440   26.2470   34.5760 C   0  0  0  0  0  0  0  0  0  0  0  0
   38.5890   26.1900   34.9760 C   0  0  2  0  0  0  0  0  0  0  0  0
   40.4960   23.2510   36.0390 C   0  0  0  0  0  0  0  0  0  0  0  0
   39.6380   22.6260   36.9960 C   0  0  0  0  0  0  0  0  0  0  0  0
   38.4020   23.2350   37.2610 C   0  0  0  0  0  0  0  0  0  0  0  0
   38.1040   24.3880   36.5820 N   0  0  0  0  0  0  0  0  0  0  0  0
   38.9340   24.9500   35.6890 C   0  0  0  0  0  0  0  0  0  0  0  0
   40.1330   24.3870   35.4120 N   0  0  0  0  0  0  0  0  0  0  0  0
   38.8660   27.3670   35.9050 C   0  0  0  0  0  0  0  0  0  0  0  0
   35.9410   31.0710   31.2760 S   0  0  0  0  0  0  0  0  0  0  0  0
   36.4680   30.7450   29.8780 O   0  0  0  0  0  0  0  0  0  0  0  0
   36.6350   32.2850   31.7810 O   0  0  0  0  0  0  0  0  0  0  0  0
   34.2230   31.3690   31.1850 C   0  0  0  0  0  0  0  0  0  0  0  0
   33.1310   30.7200   31.6280 N   0  0  0  0  0  0  0  0  0  0  0  0
   32.0560   31.3710   31.2930 O   0  0  0  0  0  0  0  0  0  0  0  0
   32.3920   32.4580   30.6280 C   0  0  0  0  0  0  0  0  0  0  0  0
   33.7150   32.4520   30.5660 N   0  0  0  0  0  0  0  0  0  0  0  0
   37.3850   28.6901   30.7365 H   0  0  0  0  0  0  0  0  0  0  0  0
   37.8357   26.6990   32.1840 H   0  0  0  0  0  0  0  0  0  0  0  0
   35.6599   28.4836   35.4295 H   0  0  0  0  0  0  0  0  0  0  0  0
   35.2030   30.4768   34.0075 H   0  0  0  0  0  0  0  0  0  0  0  0
   36.5285   26.1602   35.4835 H   0  0  0  0  0  0  0  0  0  0  0  0
   36.9717   25.4193   33.8722 H   0  0  0  0  0  0  0  0  0  0  0  0
   39.1953   26.2264   34.0589 H   0  0  0  0  0  0  0  0  0  0  0  0
   41.4710   22.7961   35.8100 H   0  0  0  0  0  0  0  0  0  0  0  0
   39.9365   21.6990   37.5075 H   0  0  0  0  0  0  0  0  0  0  0  0
   37.6977   22.8029   37.9872 H   0  0  0  0  0  0  0  0  0  0  0  0
   38.7879   27.0350   36.9508 H   0  0  0  0  0  0  0  0  0  0  0  0
   39.8792   27.7518   35.7172 H   0  0  0  0  0  0  0  0  0  0  0  0
   38.1307   28.1633   35.7172 H   0  0  0  0  0  0  0  0  0  0  0  0
   31.7126   33.2154   30.2099 H   0  0  0  0  0  0  0  0  0  0  0  0
  1  6  1  0
  2  1  2  0
  2  3  1  0
  3  4  2  0
  4  5  1  0
  4  7  1  0
  6  5  2  0
  7  8  1  0
  8 13  1  0
  8 15  1  0
  9 10  2  0
 10 11  1  0
 12 11  2  0
 13 12  1  0
 14 13  2  0
 14  9  1  0
 16 18  2  0
 16  1  1  0
 17 16  2  0
 19 16  1  0
 19 20  2  0
 21 20  1  0
 22 21  1  0
 23 22  2  0
 23 19  1  0
  2 24  1  0
  3 25  1  0
  5 26  1  0
  6 27  1  0
  7 28  1  0
  7 29  1  0
  8 30  1  6
  9 31  1  0
 10 32  1  0
 11 33  1  0
 15 34  1  0
 15 35  1  0
 15 36  1  0
 22 37  1  0
M  ISO  8  24  14  25  14  26  14  27  14  28   8  29   8  30   8  31  14
M  ISO  6  32  14  33  14  34   8  35   8  36   8  37  14
M  END
>  <minimizedAffinity>  (1) 
-4.86069822

>  <minimizedRMSD>  (1) 
1.59934735

$$$$
