
     RDKit          3D

 41 45  0  0  1  0  0  0  0  0999 V2000
   42.1620   22.6900   35.8200 C   0  0  1  0  0  0  0  0  0  0  0  0
   43.0150   22.0930   34.7810 C   0  0  0  0  0  0  0  0  0  0  0  0
   43.3510   23.4990   35.1880 C   0  0  2  0  0  0  0  0  0  0  0  0
   44.6140   23.5610   35.9480 C   0  0  0  0  0  0  0  0  0  0  0  0
   45.7810   22.8450   35.6530 C   0  0  0  0  0  0  0  0  0  0  0  0
   46.8050   23.2240   36.4350 N   0  0  0  0  0  0  0  0  0  0  0  0
   46.3420   24.1780   37.2520 C   0  0  0  0  0  0  0  0  0  0  0  0
   46.9030   24.9200   38.2870 C   0  0  0  0  0  0  0  0  0  0  0  0
   46.1840   25.8450   39.0250 C   0  0  0  0  0  0  0  0  0  0  0  0
   44.8470   26.0500   38.7260 C   0  0  0  0  0  0  0  0  0  0  0  0
   44.3050   25.3180   37.7060 C   0  0  0  0  0  0  0  0  0  0  0  0
   45.0010   24.3830   36.9490 C   0  0  0  0  0  0  0  0  0  0  0  0
   40.9290   23.2880   35.3310 O   0  0  0  0  0  0  0  0  0  0  0  0
   38.1650   25.1680   36.6550 C   0  0  0  0  0  0  0  0  0  0  0  0
   39.2600   24.7240   35.8390 C   0  0  0  0  0  0  0  0  0  0  0  0
   39.9250   23.5140   36.2240 C   0  0  0  0  0  0  0  0  0  0  0  0
   39.4850   22.8660   37.3190 N   0  0  0  0  0  0  0  0  0  0  0  0
   38.4870   23.3020   38.0340 C   0  0  0  0  0  0  0  0  0  0  0  0
   37.8230   24.4240   37.7340 N   0  0  0  0  0  0  0  0  0  0  0  0
   38.0990   22.5700   39.1730 N   0  0  0  0  0  0  0  0  0  0  0  0
   39.5900   25.5710   34.6740 C   0  0  0  0  0  0  0  0  0  0  0  0
   39.3980   27.0660   34.9600 C   0  0  0  0  0  0  0  0  0  0  0  0
   40.7440   26.4660   34.6710 C   0  0  0  0  0  0  0  0  0  0  0  0
   41.8280   22.3350   36.8061 H   0  0  0  0  0  0  0  0  0  0  0  0
   42.5963   21.9066   33.7810 H   0  0  0  0  0  0  0  0  0  0  0  0
   43.5995   21.1627   34.7268 H   0  0  0  0  0  0  0  0  0  0  0  0
   43.4391   24.4956   34.7308 H   0  0  0  0  0  0  0  0  0  0  0  0
   45.8503   22.0685   34.8770 H   0  0  0  0  0  0  0  0  0  0  0  0
   47.7649   22.8512   36.4107 H   0  0  0  0  0  0  0  0  0  0  0  0
   47.9646   24.7648   38.5296 H   0  0  0  0  0  0  0  0  0  0  0  0
   46.6673   26.4087   39.8366 H   0  0  0  0  0  0  0  0  0  0  0  0
   44.2425   26.7761   39.2893 H   0  0  0  0  0  0  0  0  0  0  0  0
   43.2435   25.4806   37.4679 H   0  0  0  0  0  0  0  0  0  0  0  0
   37.6173   26.0899   36.4098 H   0  0  0  0  0  0  0  0  0  0  0  0
   37.3126   22.8971   39.7522 H   0  0  0  0  0  0  0  0  0  0  0  0
   38.6017   21.7076   39.4268 H   0  0  0  0  0  0  0  0  0  0  0  0
   39.2601   24.8137   33.9476 H   0  0  0  0  0  0  0  0  0  0  0  0
   38.9077   27.7159   34.2203 H   0  0  0  0  0  0  0  0  0  0  0  0
   38.9557   27.6677   35.7677 H   0  0  0  0  0  0  0  0  0  0  0  0
   41.4904   26.3929   35.4757 H   0  0  0  0  0  0  0  0  0  0  0  0
   41.5376   26.6863   33.9419 H   0  0  0  0  0  0  0  0  0  0  0  0
  2  3  1  0
  2  1  1  0
  3  1  1  0
  3  4  1  0
  4 12  1  0
  5  4  2  0
  5  6  1  0
  6  7  1  0
  7  8  2  0
  8  9  1  0
 10  9  2  0
 11 10  1  0
 12  7  1  0
 12 11  2  0
 13  1  1  0
 13 16  1  0
 14 19  2  0
 15 16  2  0
 15 14  1  0
 16 17  1  0
 17 18  2  0
 18 20  1  0
 19 18  1  0
 21 22  1  0
 21 15  1  0
 23 21  1  0
 23 22  1  0
  1 24  1  1
  2 25  1  0
  2 26  1  0
  3 27  1  6
  5 28  1  0
  6 29  1  0
  8 30  1  0
  9 31  1  0
 10 32  1  0
 11 33  1  0
 14 34  1  0
 20 35  1  0
 20 36  1  0
 21 37  1  0
 22 38  1  0
 22 39  1  0
 23 40  1  0
 23 41  1  0
M  ISO  8  24  13  25  13  26  13  27  13  28  14  29   9  30  14  31  14
M  ISO  8  32  14  33  14  34  14  37  13  38  13  39  13  40  13  41  13
M  END
>  <minimizedAffinity>  (1) 
-6.30848503

>  <minimizedRMSD>  (1) 
4.12998056

$$$$
