
     RDKit          3D

 42 46  0  0  1  0  0  0  0  0999 V2000
   41.7010   24.2190   33.5300 C   0  0  1  0  0  0  0  0  0  0  0  0
   41.9020   25.2340   32.4880 C   0  0  0  0  0  0  0  0  0  0  0  0
   42.1060   25.6900   33.9060 C   0  0  2  0  0  0  0  0  0  0  0  0
   43.5280   25.9570   34.1930 C   0  0  0  0  0  0  0  0  0  0  0  0
   44.4300   26.6010   33.3400 C   0  0  0  0  0  0  0  0  0  0  0  0
   45.6120   26.8160   33.9370 N   0  0  0  0  0  0  0  0  0  0  0  0
   45.5180   26.3240   35.1800 C   0  0  0  0  0  0  0  0  0  0  0  0
   46.4040   26.2220   36.2510 C   0  0  0  0  0  0  0  0  0  0  0  0
   46.0680   25.6230   37.4500 C   0  0  0  0  0  0  0  0  0  0  0  0
   44.7950   25.0990   37.6060 C   0  0  0  0  0  0  0  0  0  0  0  0
   43.9330   25.2050   36.5520 C   0  0  0  0  0  0  0  0  0  0  0  0
   44.2390   25.8000   35.3300 C   0  0  0  0  0  0  0  0  0  0  0  0
   40.3220   24.0340   33.9490 O   0  0  0  0  0  0  0  0  0  0  0  0
   38.5960   24.0670   37.1020 C   0  0  0  0  0  0  0  0  0  0  0  0
   39.0030   24.3600   35.7570 C   0  0  0  0  0  0  0  0  0  0  0  0
   40.0820   23.5980   35.2190 C   0  0  0  0  0  0  0  0  0  0  0  0
   40.6440   22.6550   36.0000 N   0  0  0  0  0  0  0  0  0  0  0  0
   40.2430   22.4210   37.2140 C   0  0  0  0  0  0  0  0  0  0  0  0
   39.2470   23.0930   37.7790 N   0  0  0  0  0  0  0  0  0  0  0  0
   40.8960   21.4210   37.9630 N   0  0  0  0  0  0  0  0  0  0  0  0
   38.2980   25.3820   35.0610 C   0  0  0  0  0  0  0  0  0  0  0  0
   37.9390   26.5890   35.5960 C   0  0  0  0  0  0  0  0  0  0  0  0
   37.2640   27.5420   34.8940 C   0  0  0  0  0  0  0  0  0  0  0  0
   36.9110   27.3330   33.6140 N   0  0  0  0  0  0  0  0  0  0  0  0
   37.2590   26.1360   33.0590 C   0  0  0  0  0  0  0  0  0  0  0  0
   37.9180   25.2360   33.7850 N   0  0  0  0  0  0  0  0  0  0  0  0
   42.0799   23.1938   33.6544 H   0  0  0  0  0  0  0  0  0  0  0  0
   42.7702   25.1536   31.8174 H   0  0  0  0  0  0  0  0  0  0  0  0
   41.2766   25.5998   31.6603 H   0  0  0  0  0  0  0  0  0  0  0  0
   41.7027   26.4381   34.6043 H   0  0  0  0  0  0  0  0  0  0  0  0
   44.1985   26.8953   32.3057 H   0  0  0  0  0  0  0  0  0  0  0  0
   46.4354   27.2725   33.5193 H   0  0  0  0  0  0  0  0  0  0  0  0
   47.4163   26.6370   36.1367 H   0  0  0  0  0  0  0  0  0  0  0  0
   46.8004   25.5631   38.2685 H   0  0  0  0  0  0  0  0  0  0  0  0
   44.4895   24.6149   38.5453 H   0  0  0  0  0  0  0  0  0  0  0  0
   42.9221   24.7898   36.6772 H   0  0  0  0  0  0  0  0  0  0  0  0
   37.7717   24.6229   37.5727 H   0  0  0  0  0  0  0  0  0  0  0  0
   40.5939   21.2197   38.9269 H   0  0  0  0  0  0  0  0  0  0  0  0
   41.6752   20.8917   37.5463 H   0  0  0  0  0  0  0  0  0  0  0  0
   38.2078   26.7999   36.6416 H   0  0  0  0  0  0  0  0  0  0  0  0
   37.0048   28.4938   35.3807 H   0  0  0  0  0  0  0  0  0  0  0  0
   36.9955   25.9154   32.0141 H   0  0  0  0  0  0  0  0  0  0  0  0
  1  3  1  0
  1 13  1  0
  2  1  1  0
  2  3  1  0
  3  4  1  0
  4 12  1  0
  5  6  1  0
  5  4  2  0
  6  7  1  0
  7 12  2  0
  7  8  1  0
  8  9  2  0
  9 10  1  0
 11 10  2  0
 12 11  1  0
 13 16  1  0
 14 19  2  0
 15 14  1  0
 16 15  2  0
 16 17  1  0
 17 18  2  0
 18 19  1  0
 18 20  1  0
 21 22  2  0
 21 15  1  0
 23 22  1  0
 24 23  2  0
 25 24  1  0
 25 26  2  0
 26 21  1  0
  1 27  1  6
  2 28  1  0
  2 29  1  0
  3 30  1  1
  5 31  1  0
  6 32  1  0
  8 33  1  0
  9 34  1  0
 10 35  1  0
 11 36  1  0
 14 37  1  0
 20 38  1  0
 20 39  1  0
 22 40  1  0
 23 41  1  0
 25 42  1  0
M  ISO  8  27  13  28  13  29  13  30  13  31  14  32   9  33  14  34  14
M  ISO  6  35  14  36  14  37  14  40  14  41  14  42  14
M  END
>  <minimizedAffinity>  (1) 
-5.73732281

>  <minimizedRMSD>  (1) 
2.53912568

$$$$
