
     RDKit          3D

 48 52  0  0  1  0  0  0  0  0999 V2000
   41.4580   24.3380   33.3520 C   0  0  1  0  0  0  0  0  0  0  0  0
   41.6680   25.3960   32.3450 C   0  0  0  0  0  0  0  0  0  0  0  0
   41.7710   25.8100   33.7800 C   0  0  2  0  0  0  0  0  0  0  0  0
   43.1590   26.1300   34.1650 C   0  0  0  0  0  0  0  0  0  0  0  0
   43.9620   27.1130   33.5710 C   0  0  0  0  0  0  0  0  0  0  0  0
   45.1130   27.2780   34.2370 N   0  0  0  0  0  0  0  0  0  0  0  0
   45.0980   26.4230   35.2640 C   0  0  0  0  0  0  0  0  0  0  0  0
   45.9980   26.0890   36.2880 C   0  0  0  0  0  0  0  0  0  0  0  0
   45.7540   25.1140   37.2280 C   0  0  0  0  0  0  0  0  0  0  0  0
   44.5680   24.4210   37.1720 C   0  0  0  0  0  0  0  0  0  0  0  0
   43.6830   24.7420   36.1780 C   0  0  0  0  0  0  0  0  0  0  0  0
   43.8990   25.7210   35.2160 C   0  0  0  0  0  0  0  0  0  0  0  0
   40.0610   24.0830   33.6770 O   0  0  0  0  0  0  0  0  0  0  0  0
   38.0540   24.0760   36.6600 C   0  0  0  0  0  0  0  0  0  0  0  0
   38.5510   24.3450   35.3380 C   0  0  0  0  0  0  0  0  0  0  0  0
   39.7600   23.6830   34.9420 C   0  0  0  0  0  0  0  0  0  0  0  0
   40.3520   22.8510   35.8200 N   0  0  0  0  0  0  0  0  0  0  0  0
   39.8670   22.6350   37.0090 C   0  0  0  0  0  0  0  0  0  0  0  0
   38.7420   23.2220   37.4490 N   0  0  0  0  0  0  0  0  0  0  0  0
   40.5500   21.7620   37.8740 N   0  0  0  0  0  0  0  0  0  0  0  0
   37.7730   25.2390   34.5970 N   0  0  0  0  0  0  0  0  0  0  0  0
   37.2300   26.3790   35.2680 C   0  0  0  0  0  0  0  0  0  0  0  0
   37.3500   27.6770   34.5280 C   0  0  0  0  0  0  0  0  0  0  0  0
   37.2940   27.5540   33.1030 N   0  0  0  0  0  0  0  0  0  0  0  0
   38.0090   26.4280   32.5730 C   0  0  0  0  0  0  0  0  0  0  0  0
   37.4220   25.1740   33.1890 C   0  0  0  0  0  0  0  0  0  0  0  0
   41.8776   23.3290   33.4784 H   0  0  0  0  0  0  0  0  0  0  0  0
   42.5745   25.3765   31.7222 H   0  0  0  0  0  0  0  0  0  0  0  0
   41.0735   25.7589   31.4937 H   0  0  0  0  0  0  0  0  0  0  0  0
   41.2935   26.5211   34.4702 H   0  0  0  0  0  0  0  0  0  0  0  0
   43.6822   27.6788   32.6701 H   0  0  0  0  0  0  0  0  0  0  0  0
   45.8670   27.9391   34.0018 H   0  0  0  0  0  0  0  0  0  0  0  0
   46.9505   26.6366   36.3421 H   0  0  0  0  0  0  0  0  0  0  0  0
   46.4949   24.8930   38.0104 H   0  0  0  0  0  0  0  0  0  0  0  0
   44.3372   23.6326   37.9035 H   0  0  0  0  0  0  0  0  0  0  0  0
   42.7347   24.1860   36.1382 H   0  0  0  0  0  0  0  0  0  0  0  0
   37.1325   24.5557   37.0216 H   0  0  0  0  0  0  0  0  0  0  0  0
   40.1810   21.5794   38.8181 H   0  0  0  0  0  0  0  0  0  0  0  0
   41.4194   21.3051   37.5635 H   0  0  0  0  0  0  0  0  0  0  0  0
   36.1618   26.1892   35.4496 H   0  0  0  0  0  0  0  0  0  0  0  0
   37.8200   26.4988   36.1886 H   0  0  0  0  0  0  0  0  0  0  0  0
   36.5275   28.3331   34.8490 H   0  0  0  0  0  0  0  0  0  0  0  0
   38.3431   28.0842   34.7686 H   0  0  0  0  0  0  0  0  0  0  0  0
   36.3057   27.4663   32.8265 H   0  0  0  0  0  0  0  0  0  0  0  0
   37.8972   26.3951   31.4792 H   0  0  0  0  0  0  0  0  0  0  0  0
   39.0802   26.5071   32.8102 H   0  0  0  0  0  0  0  0  0  0  0  0
   36.3292   25.1586   33.0645 H   0  0  0  0  0  0  0  0  0  0  0  0
   37.8093   24.2620   32.7112 H   0  0  0  0  0  0  0  0  0  0  0  0
  1 13  1  0
  1  3  1  0
  2  1  1  0
  2  3  1  0
  3  4  1  0
  4 12  1  0
  5  4  2  0
  5  6  1  0
  6  7  1  0
  7  8  2  0
  8  9  1  0
 10  9  2  0
 11 10  1  0
 12  7  1  0
 12 11  2  0
 13 16  1  0
 14 19  2  0
 15 14  1  0
 16 15  2  0
 16 17  1  0
 17 18  2  0
 18 19  1  0
 18 20  1  0
 21 22  1  0
 21 15  1  0
 23 22  1  0
 24 23  1  0
 25 24  1  0
 25 26  1  0
 26 21  1  0
  1 27  1  6
  2 28  1  0
  2 29  1  0
  3 30  1  1
  5 31  1  0
  6 32  1  0
  8 33  1  0
  9 34  1  0
 10 35  1  0
 11 36  1  0
 14 37  1  0
 20 38  1  0
 20 39  1  0
 22 40  1  0
 22 41  1  0
 23 42  1  0
 23 43  1  0
 24 44  1  0
 25 45  1  0
 25 46  1  0
 26 47  1  0
 26 48  1  0
M  ISO  8  27  13  28  13  29  13  30  13  31  14  32   9  33  14  34  14
M  ISO  8  35  14  36  14  37  14  40  13  41  13  42  13  43  13  44   5
M  ISO  4  45  13  46  13  47  13  48  13
M  END
>  <minimizedAffinity>  (1) 
-5.63379049

>  <minimizedRMSD>  (1) 
2.30702066

$$$$
