
     RDKit          3D

 42 46  0  0  1  0  0  0  0  0999 V2000
   42.2930   24.7790   34.2060 C   0  0  1  0  0  0  0  0  0  0  0  0
   42.7420   25.7680   33.2240 C   0  0  0  0  0  0  0  0  0  0  0  0
   43.0000   26.1020   34.6690 C   0  0  2  0  0  0  0  0  0  0  0  0
   44.4400   26.0300   34.9910 C   0  0  0  0  0  0  0  0  0  0  0  0
   45.4900   26.3070   34.1100 C   0  0  0  0  0  0  0  0  0  0  0  0
   46.6750   26.3040   34.7370 N   0  0  0  0  0  0  0  0  0  0  0  0
   46.4380   26.0260   36.0290 C   0  0  0  0  0  0  0  0  0  0  0  0
   47.2490   25.8500   37.1500 C   0  0  0  0  0  0  0  0  0  0  0  0
   46.7520   25.5180   38.3900 C   0  0  0  0  0  0  0  0  0  0  0  0
   45.3860   25.3500   38.5440 C   0  0  0  0  0  0  0  0  0  0  0  0
   44.5960   25.5250   37.4420 C   0  0  0  0  0  0  0  0  0  0  0  0
   45.0680   25.8600   36.1780 C   0  0  0  0  0  0  0  0  0  0  0  0
   40.8960   24.8750   34.5900 O   0  0  0  0  0  0  0  0  0  0  0  0
   38.4860   23.8260   37.0380 C   0  0  0  0  0  0  0  0  0  0  0  0
   39.1390   24.5230   35.9710 C   0  0  0  0  0  0  0  0  0  0  0  0
   40.4500   24.0770   35.6090 C   0  0  0  0  0  0  0  0  0  0  0  0
   40.9770   23.0410   36.2850 N   0  0  0  0  0  0  0  0  0  0  0  0
   40.3520   22.4350   37.2490 C   0  0  0  0  0  0  0  0  0  0  0  0
   39.1380   22.7970   37.6390 N   0  0  0  0  0  0  0  0  0  0  0  0
   40.9880   21.3610   37.9060 N   0  0  0  0  0  0  0  0  0  0  0  0
   38.4240   25.6160   35.3300 C   0  0  0  0  0  0  0  0  0  0  0  0
   38.3580   26.8800   35.8480 C   0  0  0  0  0  0  0  0  0  0  0  0
   37.6820   27.8790   35.2230 C   0  0  0  0  0  0  0  0  0  0  0  0
   37.0330   27.6840   34.0500 N   0  0  0  0  0  0  0  0  0  0  0  0
   37.0940   26.4420   33.5370 C   0  0  0  0  0  0  0  0  0  0  0  0
   37.7670   25.4700   34.1710 N   0  0  0  0  0  0  0  0  0  0  0  0
   42.4339   23.6907   34.2824 H   0  0  0  0  0  0  0  0  0  0  0  0
   43.5904   25.5280   32.5663 H   0  0  0  0  0  0  0  0  0  0  0  0
   42.2373   26.3010   32.4047 H   0  0  0  0  0  0  0  0  0  0  0  0
   42.7514   26.8861   35.3993 H   0  0  0  0  0  0  0  0  0  0  0  0
   45.3598   26.5031   33.0355 H   0  0  0  0  0  0  0  0  0  0  0  0
   47.5945   26.4816   34.3081 H   0  0  0  0  0  0  0  0  0  0  0  0
   48.3352   25.9825   37.0381 H   0  0  0  0  0  0  0  0  0  0  0  0
   47.4301   25.3880   39.2463 H   0  0  0  0  0  0  0  0  0  0  0  0
   44.9517   25.0849   39.5192 H   0  0  0  0  0  0  0  0  0  0  0  0
   43.5110   25.3914   37.5640 H   0  0  0  0  0  0  0  0  0  0  0  0
   37.4769   24.1180   37.3643 H   0  0  0  0  0  0  0  0  0  0  0  0
   40.5073   20.8689   38.6726 H   0  0  0  0  0  0  0  0  0  0  0  0
   41.9331   21.0688   37.6191 H   0  0  0  0  0  0  0  0  0  0  0  0
   38.8675   27.0942   36.7991 H   0  0  0  0  0  0  0  0  0  0  0  0
   37.6610   28.8776   35.6839 H   0  0  0  0  0  0  0  0  0  0  0  0
   36.5862   26.2208   32.5866 H   0  0  0  0  0  0  0  0  0  0  0  0
  1 13  1  0
  1  3  1  0
  2  1  1  0
  2  3  1  0
  3  4  1  0
  4 12  1  0
  5  6  1  0
  5  4  2  0
  6  7  1  0
  7 12  2  0
  7  8  1  0
  8  9  2  0
  9 10  1  0
 11 10  2  0
 12 11  1  0
 13 16  1  0
 14 19  2  0
 15 14  1  0
 16 15  2  0
 16 17  1  0
 17 18  2  0
 18 19  1  0
 18 20  1  0
 21 22  2  0
 21 15  1  0
 23 22  1  0
 24 23  2  0
 25 24  1  0
 25 26  2  0
 26 21  1  0
  1 27  1  6
  2 28  1  0
  2 29  1  0
  3 30  1  1
  5 31  1  0
  6 32  1  0
  8 33  1  0
  9 34  1  0
 10 35  1  0
 11 36  1  0
 14 37  1  0
 20 38  1  0
 20 39  1  0
 22 40  1  0
 23 41  1  0
 25 42  1  0
M  ISO  8  27  13  28  13  29  13  30  13  31  14  32   9  33  14  34  14
M  ISO  6  35  14  36  14  37  14  40  14  41  14  42  14
M  END
>  <minimizedAffinity>  (1) 
-6.22781801

>  <minimizedRMSD>  (1) 
3.01966882

$$$$
