
     RDKit          3D

 20 21  0  0  0  0  0  0  0  0999 V2000
   39.9710   22.6860   37.4710 C   0  0  0  0  0  0  0  0  0  0  0  0
   39.2740   23.3770   38.4740 C   0  0  0  0  0  0  0  0  0  0  0  0
   37.8930   23.5460   38.2950 C   0  0  0  0  0  0  0  0  0  0  0  0
   37.3110   23.0440   37.1800 N   0  0  0  0  0  0  0  0  0  0  0  0
   38.0150   22.3790   36.2260 C   0  0  0  0  0  0  0  0  0  0  0  0
   39.3410   22.2070   36.3820 N   0  0  0  0  0  0  0  0  0  0  0  0
   37.2990   21.8740   35.0600 C   0  0  0  0  0  0  0  0  0  0  0  0
   37.6970   22.2530   33.7940 C   0  0  0  0  0  0  0  0  0  0  0  0
   37.0150   21.7710   32.6770 C   0  0  0  0  0  0  0  0  0  0  0  0
   35.9440   20.9120   32.9230 C   0  0  0  0  0  0  0  0  0  0  0  0
   35.5400   20.5280   34.1840 C   0  0  0  0  0  0  0  0  0  0  0  0
   36.2340   21.0200   35.2810 C   0  0  0  0  0  0  0  0  0  0  0  0
   41.0551   22.5325   37.5769 H   0  0  0  0  0  0  0  0  0  0  0  0
   39.7889   23.7696   39.3632 H   0  0  0  0  0  0  0  0  0  0  0  0
   37.2926   24.0776   39.0480 H   0  0  0  0  0  0  0  0  0  0  0  0
   38.5510   22.9344   33.6661 H   0  0  0  0  0  0  0  0  0  0  0  0
   37.3067   22.0537   31.6548 H   0  0  0  0  0  0  0  0  0  0  0  0
   35.3886   20.5174   32.0594 H   0  0  0  0  0  0  0  0  0  0  0  0
   34.6867   19.8469   34.3179 H   0  0  0  0  0  0  0  0  0  0  0  0
   35.9432   20.7368   36.3034 H   0  0  0  0  0  0  0  0  0  0  0  0
  1  2  2  0
  3  2  1  0
  4  3  2  0
  5  6  2  0
  5  4  1  0
  6  1  1  0
  7 12  1  0
  7  5  1  0
  8  7  2  0
  9 10  2  0
  9  8  1  0
 10 11  1  0
 11 12  2  0
  1 13  1  0
  2 14  1  0
  3 15  1  0
  8 16  1  0
  9 17  1  0
 10 18  1  0
 11 19  1  0
 12 20  1  0
M  ISO  8  13  14  14  14  15  14  16  14  17  14  18  14  19  14  20  14
M  END
>  <minimizedAffinity>  (1) 
-3.98356485

>  <minimizedRMSD>  (1) 
1.22056186

$$$$
