
     RDKit          3D

 50 54  0  0  1  0  0  0  0  0999 V2000
   41.7950   25.7870   33.5790 C   0  0  1  0  0  0  0  0  0  0  0  0
   43.2010   26.2340   33.6560 C   0  0  0  0  0  0  0  0  0  0  0  0
   42.6350   25.6040   34.8920 C   0  0  2  0  0  0  0  0  0  0  0  0
   43.2210   24.2800   35.1600 C   0  0  0  0  0  0  0  0  0  0  0  0
   44.5070   23.8670   34.7940 C   0  0  0  0  0  0  0  0  0  0  0  0
   44.8010   22.6570   35.2900 N   0  0  0  0  0  0  0  0  0  0  0  0
   43.7270   22.2450   35.9890 C   0  0  0  0  0  0  0  0  0  0  0  0
   43.4080   21.0840   36.6890 C   0  0  0  0  0  0  0  0  0  0  0  0
   42.1940   20.8830   37.2930 C   0  0  0  0  0  0  0  0  0  0  0  0
   41.2280   21.8750   37.2130 C   0  0  0  0  0  0  0  0  0  0  0  0
   41.5430   23.0140   36.5270 C   0  0  0  0  0  0  0  0  0  0  0  0
   42.7680   23.2500   35.9000 C   0  0  0  0  0  0  0  0  0  0  0  0
   40.8130   26.8280   33.8380 O   0  0  0  0  0  0  0  0  0  0  0  0
   37.2380   26.6130   34.0470 C   0  0  0  0  0  0  0  0  0  0  0  0
   38.5760   26.8920   33.5750 C   0  0  0  0  0  0  0  0  0  0  0  0
   39.6400   26.4730   34.4320 C   0  0  0  0  0  0  0  0  0  0  0  0
   39.3200   25.8620   35.5820 N   0  0  0  0  0  0  0  0  0  0  0  0
   38.1010   25.6330   35.9610 C   0  0  0  0  0  0  0  0  0  0  0  0
   37.0600   25.9940   35.2250 N   0  0  0  0  0  0  0  0  0  0  0  0
   37.8760   24.9810   37.1930 N   0  0  0  0  0  0  0  0  0  0  0  0
   38.5150   27.5420   32.2250 C   0  0  0  0  0  0  0  0  0  0  0  0
   37.2000   28.2990   32.0740 C   0  0  0  0  0  0  0  0  0  0  0  0
   36.6240   28.0700   30.7230 C   0  0  0  0  0  0  0  0  0  0  0  0
   37.6450   28.4190   29.6750 C   0  0  0  0  0  0  0  0  0  0  0  0
   38.8830   27.5730   29.8570 C   0  0  0  0  0  0  0  0  0  0  0  0
   38.7450   26.6360   31.0710 C   0  0  0  0  0  0  0  0  0  0  0  0
   41.2423   25.1730   32.8526 H   0  0  0  0  0  0  0  0  0  0  0  0
   43.9700   25.6977   33.0807 H   0  0  0  0  0  0  0  0  0  0  0  0
   43.7007   27.1937   33.4580 H   0  0  0  0  0  0  0  0  0  0  0  0
   42.4634   25.8623   35.9474 H   0  0  0  0  0  0  0  0  0  0  0  0
   45.1933   24.4630   34.1745 H   0  0  0  0  0  0  0  0  0  0  0  0
   45.6824   22.1400   35.1607 H   0  0  0  0  0  0  0  0  0  0  0  0
   44.1664   20.2905   36.7606 H   0  0  0  0  0  0  0  0  0  0  0  0
   41.9887   19.9474   37.8339 H   0  0  0  0  0  0  0  0  0  0  0  0
   40.2426   21.7492   37.6854 H   0  0  0  0  0  0  0  0  0  0  0  0
   40.7770   23.8010   36.4643 H   0  0  0  0  0  0  0  0  0  0  0  0
   36.3677   26.9073   33.4421 H   0  0  0  0  0  0  0  0  0  0  0  0
   36.9135   24.7922   37.5075 H   0  0  0  0  0  0  0  0  0  0  0  0
   38.6743   24.6942   37.7772 H   0  0  0  0  0  0  0  0  0  0  0  0
   39.3651   28.2394   32.1942 H   0  0  0  0  0  0  0  0  0  0  0  0
   36.4891   27.9466   32.8359 H   0  0  0  0  0  0  0  0  0  0  0  0
   37.3899   29.3747   32.2039 H   0  0  0  0  0  0  0  0  0  0  0  0
   36.3403   27.0122   30.6202 H   0  0  0  0  0  0  0  0  0  0  0  0
   35.7343   28.7035   30.5924 H   0  0  0  0  0  0  0  0  0  0  0  0
   37.9133   29.4817   29.7676 H   0  0  0  0  0  0  0  0  0  0  0  0
   37.2198   28.2267   28.6789 H   0  0  0  0  0  0  0  0  0  0  0  0
   39.0395   26.9671   28.9523 H   0  0  0  0  0  0  0  0  0  0  0  0
   39.7391   28.2419   30.0294 H   0  0  0  0  0  0  0  0  0  0  0  0
   37.8929   25.9531   30.9386 H   0  0  0  0  0  0  0  0  0  0  0  0
   39.6340   26.0033   31.2105 H   0  0  0  0  0  0  0  0  0  0  0  0
  1  2  1  0
  1 13  1  0
  1  3  1  0
  2  3  1  0
  3  4  1  0
  4 12  1  0
  5  4  2  0
  5  6  1  0
  6  7  1  0
  7  8  2  0
  8  9  1  0
 10  9  2  0
 11 10  1  0
 12  7  1  0
 12 11  2  0
 13 16  1  0
 14 19  2  0
 15 14  1  0
 15 16  2  0
 16 17  1  0
 17 18  2  0
 18 20  1  0
 19 18  1  0
 21 15  1  0
 22 21  1  0
 23 22  1  0
 24 25  1  0
 24 23  1  0
 25 26  1  0
 26 21  1  0
  1 27  1  6
  2 28  1  0
  2 29  1  0
  3 30  1  1
  5 31  1  0
  6 32  1  0
  8 33  1  0
  9 34  1  0
 10 35  1  0
 11 36  1  0
 14 37  1  0
 20 38  1  0
 20 39  1  0
 21 40  1  0
 22 41  1  0
 22 42  1  0
 23 43  1  0
 23 44  1  0
 24 45  1  0
 24 46  1  0
 25 47  1  0
 25 48  1  0
 26 49  1  0
 26 50  1  0
M  ISO  8  27  13  28  13  29  13  30  13  31  14  32   9  33  14  34  14
M  ISO  8  35  14  36  14  37  14  40  13  41  13  42  13  43  13  44  13
M  ISO  6  45  13  46  13  47  13  48  13  49  13  50  13
M  END
>  <minimizedAffinity>  (1) 
-5.18763638

>  <minimizedRMSD>  (1) 
4.92901087

$$$$
