
     RDKit          3D

 36 39  0  0  1  0  0  0  0  0999 V2000
   42.5890   24.6480   34.2110 C   0  0  1  0  0  0  0  0  0  0  0  0
   43.2030   25.5050   33.1800 C   0  0  0  0  0  0  0  0  0  0  0  0
   43.3350   25.9720   34.5980 C   0  0  2  0  0  0  0  0  0  0  0  0
   44.7220   25.8650   35.0870 C   0  0  0  0  0  0  0  0  0  0  0  0
   45.8760   26.0140   34.3050 C   0  0  0  0  0  0  0  0  0  0  0  0
   46.9850   26.0130   35.0620 N   0  0  0  0  0  0  0  0  0  0  0  0
   46.5950   25.8640   36.3350 C   0  0  0  0  0  0  0  0  0  0  0  0
   47.2620   25.7470   37.5610 C   0  0  0  0  0  0  0  0  0  0  0  0
   46.6170   25.5480   38.7540 C   0  0  0  0  0  0  0  0  0  0  0  0
   45.2410   25.4560   38.7650 C   0  0  0  0  0  0  0  0  0  0  0  0
   44.5820   25.5710   37.5700 C   0  0  0  0  0  0  0  0  0  0  0  0
   45.2090   25.7740   36.3440 C   0  0  0  0  0  0  0  0  0  0  0  0
   41.1690   24.8730   34.4260 O   0  0  0  0  0  0  0  0  0  0  0  0
   38.4100   24.1380   36.6110 C   0  0  0  0  0  0  0  0  0  0  0  0
   39.2330   24.7210   35.5940 C   0  0  0  0  0  0  0  0  0  0  0  0
   40.5490   24.1810   35.4230 C   0  0  0  0  0  0  0  0  0  0  0  0
   40.9200   23.1630   36.2230 N   0  0  0  0  0  0  0  0  0  0  0  0
   40.1390   22.6650   37.1360 C   0  0  0  0  0  0  0  0  0  0  0  0
   38.9060   23.1230   37.3460 N   0  0  0  0  0  0  0  0  0  0  0  0
   40.6070   21.6130   37.9390 N   0  0  0  0  0  0  0  0  0  0  0  0
   38.6690   25.7900   34.8360 C   0  0  0  0  0  0  0  0  0  0  0  0
   37.5730   25.6570   34.2360 O   0  0  0  0  0  0  0  0  0  0  0  0
   42.6468   23.5694   34.4188 H   0  0  0  0  0  0  0  0  0  0  0  0
   44.0951   25.1492   32.6438 H   0  0  0  0  0  0  0  0  0  0  0  0
   42.8203   25.9751   32.2621 H   0  0  0  0  0  0  0  0  0  0  0  0
   43.0670   26.8455   35.2105 H   0  0  0  0  0  0  0  0  0  0  0  0
   45.8733   26.1185   33.2100 H   0  0  0  0  0  0  0  0  0  0  0  0
   47.9542   26.1089   34.7267 H   0  0  0  0  0  0  0  0  0  0  0  0
   48.3597   25.8185   37.5668 H   0  0  0  0  0  0  0  0  0  0  0  0
   47.1890   25.4629   39.6897 H   0  0  0  0  0  0  0  0  0  0  0  0
   44.6904   25.2954   39.7036 H   0  0  0  0  0  0  0  0  0  0  0  0
   43.4845   25.4981   37.5797 H   0  0  0  0  0  0  0  0  0  0  0  0
   37.3910   24.5121   36.7890 H   0  0  0  0  0  0  0  0  0  0  0  0
   39.9985   21.2097   38.6656 H   0  0  0  0  0  0  0  0  0  0  0  0
   41.5589   21.2444   37.8016 H   0  0  0  0  0  0  0  0  0  0  0  0
   39.2040   26.7492   34.7756 H   0  0  0  0  0  0  0  0  0  0  0  0
  1 13  1  0
  1  3  1  0
  2  1  1  0
  2  3  1  0
  3  4  1  0
  4 12  1  0
  5  6  1  0
  5  4  2  0
  6  7  1  0
  7 12  2  0
  7  8  1  0
  8  9  2  0
  9 10  1  0
 11 10  2  0
 12 11  1  0
 13 16  1  0
 14 19  2  0
 15 14  1  0
 16 15  2  0
 16 17  1  0
 17 18  2  0
 18 19  1  0
 18 20  1  0
 21 15  1  0
 22 21  2  0
  1 23  1  1
  2 24  1  0
  2 25  1  0
  3 26  1  6
  5 27  1  0
  6 28  1  0
  8 29  1  0
  9 30  1  0
 10 31  1  0
 11 32  1  0
 14 33  1  0
 20 34  1  0
 20 35  1  0
 21 36  1  0
M  ISO  8  23  13  24  13  25  13  26  13  27  14  28   9  29  14  30  14
M  ISO  4  31  14  32  14  33  14  36   6
M  END
>  <minimizedAffinity>  (1) 
-5.26117325

>  <minimizedRMSD>  (1) 
3.19483709

$$$$
