
     RDKit          3D

 31 33  0  0  0  0  0  0  0  0999 V2000
   37.7630   22.5110   34.7140 C   0  0  0  0  0  0  0  0  0  0  0  0
   36.8190   21.4990   34.5850 C   0  0  0  0  0  0  0  0  0  0  0  0
   36.3620   21.1560   33.3100 C   0  0  0  0  0  0  0  0  0  0  0  0
   36.8900   21.8620   32.2410 C   0  0  0  0  0  0  0  0  0  0  0  0
   37.8270   22.8670   32.3820 C   0  0  0  0  0  0  0  0  0  0  0  0
   38.2810   23.2060   33.6520 C   0  0  0  0  0  0  0  0  0  0  0  0
   39.2460   24.2420   33.7830 N   0  0  0  0  0  0  0  0  0  0  0  0
   38.7520   25.4770   34.0050 C   0  0  0  0  0  0  0  0  0  0  0  0
   39.6900   26.4910   34.1340 C   0  0  0  0  0  0  0  0  0  0  0  0
   41.0610   26.3070   34.0470 C   0  0  0  0  0  0  0  0  0  0  0  0
   41.9510   27.4100   34.1920 N   0  0  0  0  0  0  0  0  0  0  0  0
   41.4660   25.0470   33.8230 N   0  0  0  0  0  0  0  0  0  0  0  0
   40.5920   24.0320   33.6930 C   0  0  0  0  0  0  0  0  0  0  0  0
   40.9520   22.8430   33.4830 O   0  0  0  0  0  0  0  0  0  0  0  0
   38.0080   23.9830   38.0940 C   0  0  0  0  0  0  0  0  0  0  0  0
   39.2250   23.4530   38.5650 C   0  0  0  0  0  0  0  0  0  0  0  0
   39.9380   22.5960   37.6970 C   0  0  0  0  0  0  0  0  0  0  0  0
   39.4120   22.3390   36.4830 N   0  0  0  0  0  0  0  0  0  0  0  0
   38.2360   22.8630   36.0540 C   0  0  0  0  0  0  0  0  0  0  0  0
   37.5600   23.6740   36.8730 N   0  0  0  0  0  0  0  0  0  0  0  0
   36.4372   20.9756   35.4740 H   0  0  0  0  0  0  0  0  0  0  0  0
   35.6164   20.3610   33.1615 H   0  0  0  0  0  0  0  0  0  0  0  0
   36.5451   21.6090   31.2276 H   0  0  0  0  0  0  0  0  0  0  0  0
   38.2111   23.3950   31.4967 H   0  0  0  0  0  0  0  0  0  0  0  0
   37.6714   25.6687   34.0793 H   0  0  0  0  0  0  0  0  0  0  0  0
   39.3204   27.5106   34.3179 H   0  0  0  0  0  0  0  0  0  0  0  0
   42.9683   27.2631   34.1257 H   0  0  0  0  0  0  0  0  0  0  0  0
   41.5771   28.3544   34.3631 H   0  0  0  0  0  0  0  0  0  0  0  0
   37.4215   24.6566   38.7360 H   0  0  0  0  0  0  0  0  0  0  0  0
   39.6050   23.6965   39.5681 H   0  0  0  0  0  0  0  0  0  0  0  0
   40.8960   22.1508   38.0036 H   0  0  0  0  0  0  0  0  0  0  0  0
  1 19  1  0
  2  1  2  0
  3  2  1  0
  4  5  1  0
  4  3  2  0
  5  6  2  0
  6  7  1  0
  6  1  1  0
  7  8  1  0
  8  9  2  0
 10  9  1  0
 10 11  1  0
 12 10  2  0
 13  7  1  0
 13 12  1  0
 14 13  2  0
 15 16  2  0
 17 16  1  0
 18 17  2  0
 19 18  1  0
 19 20  2  0
 20 15  1  0
  2 21  1  0
  3 22  1  0
  4 23  1  0
  5 24  1  0
  8 25  1  0
  9 26  1  0
 11 27  1  0
 11 28  1  0
 15 29  1  0
 16 30  1  0
 17 31  1  0
M  ISO  8  21  14  22  14  23  14  24  14  25  14  26  14  29  14  30  14
M  ISO  1  31  14
M  END
>  <minimizedAffinity>  (1) 
-4.80792761

>  <minimizedRMSD>  (1) 
5.85204411

$$$$
