
     RDKit          3D

 30 32  0  0  0  0  0  0  0  0999 V2000
   38.3600   23.5370   33.7160 C   0  0  0  0  0  0  0  0  0  0  0  0
   37.9960   23.1840   32.4260 C   0  0  0  0  0  0  0  0  0  0  0  0
   37.2000   22.0600   32.2260 C   0  0  0  0  0  0  0  0  0  0  0  0
   36.8100   21.3480   33.3550 C   0  0  0  0  0  0  0  0  0  0  0  0
   37.1680   21.6930   34.6490 C   0  0  0  0  0  0  0  0  0  0  0  0
   37.9600   22.8130   34.8180 C   0  0  0  0  0  0  0  0  0  0  0  0
   41.2920   25.7280   34.1620 C   0  0  0  0  0  0  0  0  0  0  0  0
   40.7040   26.9760   34.3770 C   0  0  0  0  0  0  0  0  0  0  0  0
   39.3080   27.0350   34.3630 C   0  0  0  0  0  0  0  0  0  0  0  0
   38.6040   25.9030   34.1460 N   0  0  0  0  0  0  0  0  0  0  0  0
   39.1910   24.7070   33.9410 C   0  0  0  0  0  0  0  0  0  0  0  0
   40.5340   24.6370   33.9510 N   0  0  0  0  0  0  0  0  0  0  0  0
   38.2950   23.1180   36.1980 C   0  0  0  0  0  0  0  0  0  0  0  0
   37.5310   23.9130   37.0280 C   0  0  0  0  0  0  0  0  0  0  0  0
   37.9080   24.1740   38.3460 C   0  0  0  0  0  0  0  0  0  0  0  0
   39.0920   23.6120   38.8330 C   0  0  0  0  0  0  0  0  0  0  0  0
   39.8440   22.8180   37.9890 C   0  0  0  0  0  0  0  0  0  0  0  0
   39.4690   22.5630   36.6880 C   0  0  0  0  0  0  0  0  0  0  0  0
   38.3328   23.7860   31.5692 H   0  0  0  0  0  0  0  0  0  0  0  0
   36.8923   21.7479   31.2171 H   0  0  0  0  0  0  0  0  0  0  0  0
   36.1797   20.4578   33.2128 H   0  0  0  0  0  0  0  0  0  0  0  0
   36.8336   21.0966   35.5107 H   0  0  0  0  0  0  0  0  0  0  0  0
   42.3881   25.6359   34.1652 H   0  0  0  0  0  0  0  0  0  0  0  0
   41.3140   27.8749   34.5501 H   0  0  0  0  0  0  0  0  0  0  0  0
   38.7891   27.9910   34.5266 H   0  0  0  0  0  0  0  0  0  0  0  0
   36.6002   24.3526   36.6403 H   0  0  0  0  0  0  0  0  0  0  0  0
   37.2844   24.8109   38.9906 H   0  0  0  0  0  0  0  0  0  0  0  0
   39.4180   23.7983   39.8669 H   0  0  0  0  0  0  0  0  0  0  0  0
   40.7755   22.3734   38.3692 H   0  0  0  0  0  0  0  0  0  0  0  0
   40.0936   21.9262   36.0443 H   0  0  0  0  0  0  0  0  0  0  0  0
  1 11  1  0
  1  6  1  0
  2  1  2  0
  3  2  1  0
  3  4  2  0
  4  5  1  0
  5  6  2  0
  6 13  1  0
  7  8  2  0
  9  8  1  0
 10  9  2  0
 11 12  2  0
 11 10  1  0
 12  7  1  0
 13 18  1  0
 13 14  2  0
 14 15  1  0
 15 16  2  0
 17 16  1  0
 18 17  2  0
  2 19  1  0
  3 20  1  0
  4 21  1  0
  5 22  1  0
  7 23  1  0
  8 24  1  0
  9 25  1  0
 14 26  1  0
 15 27  1  0
 16 28  1  0
 17 29  1  0
 18 30  1  0
M  ISO  8  19  14  20  14  21  14  22  14  23  14  24  14  25  14  26  14
M  ISO  4  27  14  28  14  29  14  30  14
M  END
>  <minimizedAffinity>  (1) 
-4.79583216

>  <minimizedRMSD>  (1) 
4.01916695

$$$$
