
     RDKit          3D

 30 32  0  0  0  0  0  0  0  0999 V2000
   37.9500   25.0500   34.0450 C   0  0  0  0  0  0  0  0  0  0  0  0
   37.2270   26.0220   33.3810 C   0  0  0  0  0  0  0  0  0  0  0  0
   37.0670   27.2840   33.9500 C   0  0  0  0  0  0  0  0  0  0  0  0
   37.6660   27.4930   35.1960 C   0  0  0  0  0  0  0  0  0  0  0  0
   38.3830   26.5340   35.8570 C   0  0  0  0  0  0  0  0  0  0  0  0
   38.5260   25.2830   35.2660 C   0  0  0  0  0  0  0  0  0  0  0  0
   37.5620   21.4600   33.3020 C   0  0  0  0  0  0  0  0  0  0  0  0
   38.4760   21.2680   32.2670 C   0  0  0  0  0  0  0  0  0  0  0  0
   39.2100   22.3860   31.8460 C   0  0  0  0  0  0  0  0  0  0  0  0
   39.0110   23.5860   32.4450 N   0  0  0  0  0  0  0  0  0  0  0  0
   38.1120   23.7350   33.4500 C   0  0  0  0  0  0  0  0  0  0  0  0
   37.3890   22.6690   33.8760 N   0  0  0  0  0  0  0  0  0  0  0  0
   39.3060   24.3080   36.0230 C   0  0  0  0  0  0  0  0  0  0  0  0
   40.5830   23.8600   35.6840 C   0  0  0  0  0  0  0  0  0  0  0  0
   41.2450   22.9340   36.4610 C   0  0  0  0  0  0  0  0  0  0  0  0
   40.6600   22.4160   37.6110 C   0  0  0  0  0  0  0  0  0  0  0  0
   39.4120   22.8590   37.9340 C   0  0  0  0  0  0  0  0  0  0  0  0
   38.7180   23.7850   37.1820 C   0  0  0  0  0  0  0  0  0  0  0  0
   36.7771   25.7996   32.4021 H   0  0  0  0  0  0  0  0  0  0  0  0
   36.4972   28.0771   33.4436 H   0  0  0  0  0  0  0  0  0  0  0  0
   37.5548   28.4798   35.6691 H   0  0  0  0  0  0  0  0  0  0  0  0
   38.8372   26.7476   36.8358 H   0  0  0  0  0  0  0  0  0  0  0  0
   36.9679   20.6059   33.6592 H   0  0  0  0  0  0  0  0  0  0  0  0
   38.6154   20.2816   31.8006 H   0  0  0  0  0  0  0  0  0  0  0  0
   39.9445   22.2899   31.0328 H   0  0  0  0  0  0  0  0  0  0  0  0
   41.0706   24.2532   34.7797 H   0  0  0  0  0  0  0  0  0  0  0  0
   42.2509   22.5999   36.1670 H   0  0  0  0  0  0  0  0  0  0  0  0
   41.1838   21.6776   38.2358 H   0  0  0  0  0  0  0  0  0  0  0  0
   38.9338   22.4581   38.8399 H   0  0  0  0  0  0  0  0  0  0  0  0
   37.7129   24.1093   37.4897 H   0  0  0  0  0  0  0  0  0  0  0  0
  1  6  2  0
  2  3  2  0
  2  1  1  0
  3  4  1  0
  4  5  2  0
  6  5  1  0
  6 13  1  0
  7 12  2  0
  8  7  1  0
  9  8  2  0
  9 10  1  0
 10 11  2  0
 11 12  1  0
 11  1  1  0
 13 18  1  0
 14 13  2  0
 14 15  1  0
 15 16  2  0
 16 17  1  0
 18 17  2  0
  2 19  1  0
  3 20  1  0
  4 21  1  0
  5 22  1  0
  7 23  1  0
  8 24  1  0
  9 25  1  0
 14 26  1  0
 15 27  1  0
 16 28  1  0
 17 29  1  0
 18 30  1  0
M  ISO  8  19  14  20  14  21  14  22  14  23  14  24  14  25  14  26  14
M  ISO  4  27  14  28  14  29  14  30  14
M  END
>  <minimizedAffinity>  (1) 
-4.81012774

>  <minimizedRMSD>  (1) 
5.57627201

$$$$
