
     RDKit          3D

 33 35  0  0  0  0  0  0  0  0999 V2000
   37.8610   25.8530   34.5430 C   0  0  0  0  0  0  0  0  0  0  0  0
   37.6100   26.9760   35.3230 C   0  0  0  0  0  0  0  0  0  0  0  0
   36.9300   28.0610   34.7580 C   0  0  0  0  0  0  0  0  0  0  0  0
   36.5420   27.9340   33.4140 C   0  0  0  0  0  0  0  0  0  0  0  0
   36.7930   26.8250   32.6530 C   0  0  0  0  0  0  0  0  0  0  0  0
   37.4630   25.7690   33.2320 C   0  0  0  0  0  0  0  0  0  0  0  0
   37.6970   24.6410   32.3910 N   0  0  0  0  0  0  0  0  0  0  0  0
   36.7950   23.6440   32.2230 C   0  0  0  0  0  0  0  0  0  0  0  0
   37.0260   22.5530   31.4070 C   0  0  0  0  0  0  0  0  0  0  0  0
   36.0200   21.4710   31.2390 C   0  0  0  0  0  0  0  0  0  0  0  0
   38.2210   22.4670   30.7300 C   0  0  0  0  0  0  0  0  0  0  0  0
   38.4520   21.4810   29.9810 O   0  0  0  0  0  0  0  0  0  0  0  0
   39.1090   23.4730   30.9110 N   0  0  0  0  0  0  0  0  0  0  0  0
   38.8570   24.5300   31.7170 C   0  0  0  0  0  0  0  0  0  0  0  0
   39.7630   25.4040   31.8050 O   0  0  0  0  0  0  0  0  0  0  0  0
   40.5130   23.5870   35.7120 C   0  0  0  0  0  0  0  0  0  0  0  0
   39.7920   22.5370   36.2760 C   0  0  0  0  0  0  0  0  0  0  0  0
   38.3900   22.6280   36.2430 C   0  0  0  0  0  0  0  0  0  0  0  0
   37.8040   23.7200   35.6710 N   0  0  0  0  0  0  0  0  0  0  0  0
   38.5650   24.7240   35.1310 C   0  0  0  0  0  0  0  0  0  0  0  0
   39.9000   24.6390   35.1620 N   0  0  0  0  0  0  0  0  0  0  0  0
   37.9417   27.0114   36.3712 H   0  0  0  0  0  0  0  0  0  0  0  0
   36.7101   28.9692   35.3383 H   0  0  0  0  0  0  0  0  0  0  0  0
   36.0061   28.7735   32.9470 H   0  0  0  0  0  0  0  0  0  0  0  0
   36.4675   26.7774   31.6033 H   0  0  0  0  0  0  0  0  0  0  0  0
   35.8368   23.7058   32.7597 H   0  0  0  0  0  0  0  0  0  0  0  0
   35.6921   21.1184   32.2280 H   0  0  0  0  0  0  0  0  0  0  0  0
   35.1541   21.8587   30.6823 H   0  0  0  0  0  0  0  0  0  0  0  0
   36.4696   20.6355   30.6823 H   0  0  0  0  0  0  0  0  0  0  0  0
   40.0113   23.4320   30.4159 H   0  0  0  0  0  0  0  0  0  0  0  0
   41.6123   23.5491   35.7196 H   0  0  0  0  0  0  0  0  0  0  0  0
   40.2992   21.6722   36.7286 H   0  0  0  0  0  0  0  0  0  0  0  0
   37.7711   21.8272   36.6738 H   0  0  0  0  0  0  0  0  0  0  0  0
  1 20  1  0
  1  2  2  0
  3  2  1  0
  4  3  2  0
  5  6  2  0
  5  4  1  0
  6  1  1  0
  7  6  1  0
  8  7  1  0
  9  8  2  0
 10  9  1  0
 11 13  1  0
 11  9  1  0
 12 11  2  0
 13 14  1  0
 14 15  2  0
 14  7  1  0
 16 17  2  0
 18 17  1  0
 19 18  2  0
 20 21  2  0
 20 19  1  0
 21 16  1  0
  2 22  1  0
  3 23  1  0
  4 24  1  0
  5 25  1  0
  8 26  1  0
 10 27  1  0
 10 28  1  0
 10 29  1  0
 13 30  1  0
 16 31  1  0
 17 32  1  0
 18 33  1  0
M  ISO  8  22  14  23  14  24  14  25  14  26  14  27   8  28   8  29   8
M  ISO  4  30   9  31  14  32  14  33  14
M  END
>  <minimizedAffinity>  (1) 
-4.81373835

>  <minimizedRMSD>  (1) 
6.5297389

$$$$
