
     RDKit          3D

 32 34  0  0  0  0  0  0  0  0999 V2000
   37.8380   22.8680   34.7260 C   0  0  0  0  0  0  0  0  0  0  0  0
   37.3300   21.6750   34.2800 C   0  0  0  0  0  0  0  0  0  0  0  0
   36.9440   21.5170   32.9570 C   0  0  0  0  0  0  0  0  0  0  0  0
   37.1040   22.6210   32.1320 C   0  0  0  0  0  0  0  0  0  0  0  0
   37.6150   23.8340   32.5600 C   0  0  0  0  0  0  0  0  0  0  0  0
   37.9960   23.9700   33.8950 C   0  0  0  0  0  0  0  0  0  0  0  0
   37.8150   23.6980   38.3180 C   0  0  0  0  0  0  0  0  0  0  0  0
   39.1040   23.2780   38.7220 C   0  0  0  0  0  0  0  0  0  0  0  0
   39.9530   22.7160   37.7420 C   0  0  0  0  0  0  0  0  0  0  0  0
   39.4800   22.6180   36.4880 N   0  0  0  0  0  0  0  0  0  0  0  0
   38.2390   23.0250   36.1130 C   0  0  0  0  0  0  0  0  0  0  0  0
   37.4280   23.5600   37.0410 N   0  0  0  0  0  0  0  0  0  0  0  0
   38.5150   25.2330   34.2910 N   0  0  0  0  0  0  0  0  0  0  0  0
   39.9390   25.5400   34.2660 C   0  0  0  0  0  0  0  0  0  0  0  0
   40.0100   27.0280   34.5920 C   0  0  0  0  0  0  0  0  0  0  0  0
   38.8660   27.1060   35.5940 C   0  0  0  0  0  0  0  0  0  0  0  0
   37.7760   26.4090   34.7730 C   0  0  0  0  0  0  0  0  0  0  0  0
   37.2273   20.8328   34.9800 H   0  0  0  0  0  0  0  0  0  0  0  0
   36.5333   20.5678   32.5823 H   0  0  0  0  0  0  0  0  0  0  0  0
   36.8076   22.5268   31.0769 H   0  0  0  0  0  0  0  0  0  0  0  0
   37.7188   24.6760   31.8598 H   0  0  0  0  0  0  0  0  0  0  0  0
   37.1271   24.1396   39.0541 H   0  0  0  0  0  0  0  0  0  0  0  0
   39.4349   23.3854   39.7655 H   0  0  0  0  0  0  0  0  0  0  0  0
   40.9659   22.3708   37.9968 H   0  0  0  0  0  0  0  0  0  0  0  0
   40.4781   24.9495   35.0214 H   0  0  0  0  0  0  0  0  0  0  0  0
   40.4037   25.2993   33.2984 H   0  0  0  0  0  0  0  0  0  0  0  0
   40.9737   27.3060   35.0436 H   0  0  0  0  0  0  0  0  0  0  0  0
   39.9310   27.7060   33.7294 H   0  0  0  0  0  0  0  0  0  0  0  0
   39.0938   26.5618   36.5224 H   0  0  0  0  0  0  0  0  0  0  0  0
   38.6164   28.1173   35.9475 H   0  0  0  0  0  0  0  0  0  0  0  0
   37.4285   27.0393   33.9412 H   0  0  0  0  0  0  0  0  0  0  0  0
   36.8584   26.1761   35.3332 H   0  0  0  0  0  0  0  0  0  0  0  0
  1 11  1  0
  2  1  2  0
  3  2  1  0
  4  5  1  0
  4  3  2  0
  5  6  2  0
  6 13  1  0
  6  1  1  0
  7  8  2  0
  9  8  1  0
 10  9  2  0
 11 10  1  0
 11 12  2  0
 12  7  1  0
 13 17  1  0
 14 13  1  0
 14 15  1  0
 15 16  1  0
 17 16  1  0
  2 18  1  0
  3 19  1  0
  4 20  1  0
  5 21  1  0
  7 22  1  0
  8 23  1  0
  9 24  1  0
 14 25  1  0
 14 26  1  0
 15 27  1  0
 15 28  1  0
 16 29  1  0
 16 30  1  0
 17 31  1  0
 17 32  1  0
M  ISO  8  18  14  19  14  20  14  21  14  22  14  23  14  24  14  25  13
M  ISO  7  26  13  27  13  28  13  29  13  30  13  31  13  32  13
M  END
>  <minimizedAffinity>  (1) 
-4.83920002

>  <minimizedRMSD>  (1) 
4.67016888

$$$$
