
     RDKit          3D

 27 29  0  0  0  0  0  0  0  0999 V2000
   37.8530   22.8690   34.7300 C   0  0  0  0  0  0  0  0  0  0  0  0
   37.3310   21.6680   34.2940 C   0  0  0  0  0  0  0  0  0  0  0  0
   36.9490   21.5350   32.9540 C   0  0  0  0  0  0  0  0  0  0  0  0
   37.1280   22.6530   32.1300 C   0  0  0  0  0  0  0  0  0  0  0  0
   37.6470   23.8490   32.5580 C   0  0  0  0  0  0  0  0  0  0  0  0
   38.0130   23.9440   33.8880 C   0  0  0  0  0  0  0  0  0  0  0  0
   37.8300   23.6620   38.3280 C   0  0  0  0  0  0  0  0  0  0  0  0
   39.1050   23.2570   38.7330 C   0  0  0  0  0  0  0  0  0  0  0  0
   39.9550   22.7140   37.7480 C   0  0  0  0  0  0  0  0  0  0  0  0
   39.5000   22.6120   36.4740 N   0  0  0  0  0  0  0  0  0  0  0  0
   38.2520   23.0170   36.1160 C   0  0  0  0  0  0  0  0  0  0  0  0
   37.4320   23.5380   37.0520 N   0  0  0  0  0  0  0  0  0  0  0  0
   38.5490   25.2090   34.2840 N   0  0  0  0  0  0  0  0  0  0  0  0
   37.6170   26.1060   34.5920 N   0  0  0  0  0  0  0  0  0  0  0  0
   38.2180   27.2740   34.9550 C   0  0  0  0  0  0  0  0  0  0  0  0
   39.5940   27.0500   34.8540 C   0  0  0  0  0  0  0  0  0  0  0  0
   39.7890   25.7510   34.4320 C   0  0  0  0  0  0  0  0  0  0  0  0
   37.2165   20.8251   34.9915 H   0  0  0  0  0  0  0  0  0  0  0  0
   36.5277   20.5958   32.5662 H   0  0  0  0  0  0  0  0  0  0  0  0
   36.8342   22.5671   31.0735 H   0  0  0  0  0  0  0  0  0  0  0  0
   37.7672   24.6988   31.8700 H   0  0  0  0  0  0  0  0  0  0  0  0
   37.1394   24.0906   39.0692 H   0  0  0  0  0  0  0  0  0  0  0  0
   39.4321   23.3579   39.7784 H   0  0  0  0  0  0  0  0  0  0  0  0
   40.9699   22.3787   38.0080 H   0  0  0  0  0  0  0  0  0  0  0  0
   37.7207   28.2050   35.2649 H   0  0  0  0  0  0  0  0  0  0  0  0
   40.3847   27.7827   35.0731 H   0  0  0  0  0  0  0  0  0  0  0  0
   40.7531   25.2531   34.2514 H   0  0  0  0  0  0  0  0  0  0  0  0
  1 11  1  0
  2  1  2  0
  3  2  1  0
  4  5  1  0
  4  3  2  0
  5  6  2  0
  6 13  1  0
  6  1  1  0
  7  8  2  0
  9  8  1  0
 10  9  2  0
 11 10  1  0
 11 12  2  0
 12  7  1  0
 13 17  1  0
 13 14  1  0
 14 15  2  0
 16 15  1  0
 17 16  2  0
  2 18  1  0
  3 19  1  0
  4 20  1  0
  5 21  1  0
  7 22  1  0
  8 23  1  0
  9 24  1  0
 15 25  1  0
 16 26  1  0
 17 27  1  0
M  ISO  8  18  14  19  14  20  14  21  14  22  14  23  14  24  14  25  14
M  ISO  2  26  14  27  14
M  END
>  <minimizedAffinity>  (1) 
-4.5544095

>  <minimizedRMSD>  (1) 
4.59632206

$$$$
