
     RDKit          3D

 22 23  0  0  0  0  0  0  0  0999 V2000
   37.2760   21.8950   35.0330 C   0  0  0  0  0  0  0  0  0  0  0  0
   37.6830   22.2540   33.7730 C   0  0  0  0  0  0  0  0  0  0  0  0
   37.0040   21.7570   32.6630 C   0  0  0  0  0  0  0  0  0  0  0  0
   35.9320   20.9100   32.8980 C   0  0  0  0  0  0  0  0  0  0  0  0
   35.5200   20.5480   34.1560 C   0  0  0  0  0  0  0  0  0  0  0  0
   36.1980   21.0430   35.2610 C   0  0  0  0  0  0  0  0  0  0  0  0
   39.8960   22.6240   37.5170 C   0  0  0  0  0  0  0  0  0  0  0  0
   39.2120   23.4120   38.4600 C   0  0  0  0  0  0  0  0  0  0  0  0
   37.8590   23.6720   38.2120 C   0  0  0  0  0  0  0  0  0  0  0  0
   37.2880   23.1630   37.1010 N   0  0  0  0  0  0  0  0  0  0  0  0
   37.9760   22.4070   36.2110 C   0  0  0  0  0  0  0  0  0  0  0  0
   39.2840   22.1360   36.4180 N   0  0  0  0  0  0  0  0  0  0  0  0
   35.8280   20.7100   36.6060 N   0  0  0  0  0  0  0  0  0  0  0  0
   38.5404   22.9302   33.6401 H   0  0  0  0  0  0  0  0  0  0  0  0
   37.3065   22.0260   31.6402 H   0  0  0  0  0  0  0  0  0  0  0  0
   35.3843   20.5080   32.0329 H   0  0  0  0  0  0  0  0  0  0  0  0
   34.6616   19.8727   34.2870 H   0  0  0  0  0  0  0  0  0  0  0  0
   40.9603   22.3991   37.6801 H   0  0  0  0  0  0  0  0  0  0  0  0
   39.7181   23.8068   39.3534 H   0  0  0  0  0  0  0  0  0  0  0  0
   37.2703   24.2823   38.9127 H   0  0  0  0  0  0  0  0  0  0  0  0
   35.0316   20.0804   36.7802 H   0  0  0  0  0  0  0  0  0  0  0  0
   36.3586   21.1004   37.3978 H   0  0  0  0  0  0  0  0  0  0  0  0
  1  6  1  0
  1 11  1  0
  2  1  2  0
  3  4  2  0
  3  2  1  0
  4  5  1  0
  5  6  2  0
  6 13  1  0
  7  8  2  0
  9  8  1  0
 10  9  2  0
 11 12  2  0
 11 10  1  0
 12  7  1  0
  2 14  1  0
  3 15  1  0
  4 16  1  0
  5 17  1  0
  7 18  1  0
  8 19  1  0
  9 20  1  0
 13 21  1  0
 13 22  1  0
M  ISO  7  14  14  15  14  16  14  17  14  18  14  19  14  20  14
M  END
>  <minimizedAffinity>  (1) 
-4.49344778

>  <minimizedRMSD>  (1) 
0.0806429237

$$$$
