
     RDKit          3D

 30 32  0  0  0  0  0  0  0  0999 V2000
   37.1590   23.3720   32.5600 C   0  0  0  0  0  0  0  0  0  0  0  0
   36.3070   23.2240   31.4820 C   0  0  0  0  0  0  0  0  0  0  0  0
   35.5770   22.0510   31.3080 C   0  0  0  0  0  0  0  0  0  0  0  0
   35.7690   21.0630   32.2830 C   0  0  0  0  0  0  0  0  0  0  0  0
   36.6150   21.1930   33.3640 C   0  0  0  0  0  0  0  0  0  0  0  0
   37.3260   22.3850   33.4990 C   0  0  0  0  0  0  0  0  0  0  0  0
   39.8170   25.9180   32.3470 C   0  0  0  0  0  0  0  0  0  0  0  0
   39.2720   26.9850   33.0750 C   0  0  0  0  0  0  0  0  0  0  0  0
   37.9850   26.8000   33.6290 C   0  0  0  0  0  0  0  0  0  0  0  0
   37.3560   25.6170   33.4300 N   0  0  0  0  0  0  0  0  0  0  0  0
   37.9080   24.6010   32.7200 C   0  0  0  0  0  0  0  0  0  0  0  0
   39.1370   24.7740   32.1890 N   0  0  0  0  0  0  0  0  0  0  0  0
   38.1830   22.4670   34.6300 N   0  0  0  0  0  0  0  0  0  0  0  0
   37.7550   22.9450   35.8330 C   0  0  0  0  0  0  0  0  0  0  0  0
   38.6160   23.0160   36.9320 C   0  0  0  0  0  0  0  0  0  0  0  0
   39.9110   22.6060   36.8150 C   0  0  0  0  0  0  0  0  0  0  0  0
   40.7200   22.6560   37.7880 O   0  0  0  0  0  0  0  0  0  0  0  0
   40.3140   22.1440   35.6380 N   0  0  0  0  0  0  0  0  0  0  0  0
   39.4840   22.0700   34.5600 C   0  0  0  0  0  0  0  0  0  0  0  0
   39.8920   21.6280   33.4560 O   0  0  0  0  0  0  0  0  0  0  0  0
   36.2044   24.0417   30.7534 H   0  0  0  0  0  0  0  0  0  0  0  0
   34.8927   21.9089   30.4586 H   0  0  0  0  0  0  0  0  0  0  0  0
   35.2082   20.1224   32.1792 H   0  0  0  0  0  0  0  0  0  0  0  0
   36.7257   20.3810   34.0977 H   0  0  0  0  0  0  0  0  0  0  0  0
   40.8165   26.0212   31.8993 H   0  0  0  0  0  0  0  0  0  0  0  0
   39.8233   27.9273   33.2095 H   0  0  0  0  0  0  0  0  0  0  0  0
   37.5039   27.6005   34.2100 H   0  0  0  0  0  0  0  0  0  0  0  0
   36.7131   23.2809   35.9408 H   0  0  0  0  0  0  0  0  0  0  0  0
   38.2478   23.4036   37.8934 H   0  0  0  0  0  0  0  0  0  0  0  0
   41.2896   21.8300   35.5357 H   0  0  0  0  0  0  0  0  0  0  0  0
  1 11  1  0
  1  6  1  0
  2  1  2  0
  3  2  1  0
  3  4  2  0
  4  5  1  0
  5  6  2  0
  6 13  1  0
  7  8  2  0
  8  9  1  0
 10  9  2  0
 11 10  1  0
 12  7  1  0
 12 11  2  0
 13 14  1  0
 14 15  2  0
 16 15  1  0
 16 17  2  0
 18 16  1  0
 19 13  1  0
 19 18  1  0
 20 19  2  0
  2 21  1  0
  3 22  1  0
  4 23  1  0
  5 24  1  0
  7 25  1  0
  8 26  1  0
  9 27  1  0
 14 28  1  0
 15 29  1  0
 18 30  1  0
M  ISO  8  21  14  22  14  23  14  24  14  25  14  26  14  27  14  28  14
M  ISO  2  29  14  30   9
M  END
>  <minimizedAffinity>  (1) 
-4.69894123

>  <minimizedRMSD>  (1) 
4.66381693

$$$$
