
     RDKit          3D

 21 22  0  0  0  0  0  0  0  0999 V2000
   37.2840   21.8590   35.0410 C   0  0  0  0  0  0  0  0  0  0  0  0
   37.6930   22.2040   33.7790 C   0  0  0  0  0  0  0  0  0  0  0  0
   37.0260   21.7100   32.6610 C   0  0  0  0  0  0  0  0  0  0  0  0
   35.9520   20.8690   32.8970 C   0  0  0  0  0  0  0  0  0  0  0  0
   35.5160   20.5030   34.1680 C   0  0  0  0  0  0  0  0  0  0  0  0
   36.2000   21.0110   35.2590 C   0  0  0  0  0  0  0  0  0  0  0  0
   39.9270   22.6660   37.4690 C   0  0  0  0  0  0  0  0  0  0  0  0
   39.2300   23.3540   38.4610 C   0  0  0  0  0  0  0  0  0  0  0  0
   37.8400   23.5340   38.2760 C   0  0  0  0  0  0  0  0  0  0  0  0
   37.2880   23.0300   37.1580 N   0  0  0  0  0  0  0  0  0  0  0  0
   37.9740   22.3650   36.2060 C   0  0  0  0  0  0  0  0  0  0  0  0
   39.3090   22.1830   36.3660 N   0  0  0  0  0  0  0  0  0  0  0  0
   35.7780   20.6540   36.5490 O   0  0  0  0  0  0  0  0  0  0  0  0
   38.5542   22.8758   33.6486 H   0  0  0  0  0  0  0  0  0  0  0  0
   37.3374   21.9751   31.6398 H   0  0  0  0  0  0  0  0  0  0  0  0
   35.4105   20.4657   32.0286 H   0  0  0  0  0  0  0  0  0  0  0  0
   34.6551   19.8313   34.3008 H   0  0  0  0  0  0  0  0  0  0  0  0
   41.0098   22.5113   37.5860 H   0  0  0  0  0  0  0  0  0  0  0  0
   39.7421   23.7421   39.3538 H   0  0  0  0  0  0  0  0  0  0  0  0
   37.2312   24.0677   39.0206 H   0  0  0  0  0  0  0  0  0  0  0  0
   35.0034   20.0489   36.6667 H   0  0  0  0  0  0  0  0  0  0  0  0
  1  6  1  0
  1 11  1  0
  2  1  2  0
  3  4  2  0
  3  2  1  0
  4  5  1  0
  5  6  2  0
  6 13  1  0
  7  8  2  0
  9  8  1  0
 10  9  2  0
 11 12  2  0
 11 10  1  0
 12  7  1  0
  2 14  1  0
  3 15  1  0
  4 16  1  0
  5 17  1  0
  7 18  1  0
  8 19  1  0
  9 20  1  0
 13 21  1  0
M  ISO  8  14  14  15  14  16  14  17  14  18  14  19  14  20  14  21   3
M  END
>  <minimizedAffinity>  (1) 
-4.49403095

>  <minimizedRMSD>  (1) 
0.0459064133

$$$$
