
     RDKit          3D

 33 35  0  0  0  0  0  0  0  0999 V2000
   37.0370   22.0460   33.3970 C   0  0  0  0  0  0  0  0  0  0  0  0
   36.3520   20.9690   33.9380 C   0  0  0  0  0  0  0  0  0  0  0  0
   35.2970   20.3790   33.2490 C   0  0  0  0  0  0  0  0  0  0  0  0
   34.9910   20.9450   31.9990 C   0  0  0  0  0  0  0  0  0  0  0  0
   35.6610   22.0080   31.4560 C   0  0  0  0  0  0  0  0  0  0  0  0
   36.7000   22.5640   32.1710 C   0  0  0  0  0  0  0  0  0  0  0  0
   39.0290   24.2010   35.6170 C   0  0  0  0  0  0  0  0  0  0  0  0
   40.3220   23.6710   35.4790 C   0  0  0  0  0  0  0  0  0  0  0  0
   40.4620   22.5830   34.6200 C   0  0  0  0  0  0  0  0  0  0  0  0
   39.3720   22.0960   33.9730 N   0  0  0  0  0  0  0  0  0  0  0  0
   38.1350   22.6430   34.1370 C   0  0  0  0  0  0  0  0  0  0  0  0
   37.9780   23.6870   34.9550 N   0  0  0  0  0  0  0  0  0  0  0  0
   38.7170   25.7580   30.3070 C   0  0  0  0  0  0  0  0  0  0  0  0
   37.7550   26.0710   31.2450 C   0  0  0  0  0  0  0  0  0  0  0  0
   37.0810   25.0200   31.8690 C   0  0  0  0  0  0  0  0  0  0  0  0
   37.3790   23.6930   31.5450 C   0  0  0  0  0  0  0  0  0  0  0  0
   38.3430   23.3920   30.6070 C   0  0  0  0  0  0  0  0  0  0  0  0
   39.0180   24.4480   29.9820 C   0  0  0  0  0  0  0  0  0  0  0  0
   39.5490   27.0910   29.5390 S   0  0  0  0  0  0  0  0  0  0  0  0
   40.0510   26.7240   28.1780 O   0  0  0  0  0  0  0  0  0  0  0  0
   38.5370   28.2250   29.4550 O   0  0  0  0  0  0  0  0  0  0  0  0
   36.6458   20.5766   34.9227 H   0  0  0  0  0  0  0  0  0  0  0  0
   34.7378   19.5239   33.6565 H   0  0  0  0  0  0  0  0  0  0  0  0
   34.1629   20.5071   31.4223 H   0  0  0  0  0  0  0  0  0  0  0  0
   35.3769   22.4092   30.4720 H   0  0  0  0  0  0  0  0  0  0  0  0
   38.8718   25.0605   36.2852 H   0  0  0  0  0  0  0  0  0  0  0  0
   41.1807   24.0933   36.0215 H   0  0  0  0  0  0  0  0  0  0  0  0
   41.4488   22.1217   34.4670 H   0  0  0  0  0  0  0  0  0  0  0  0
   37.5259   27.1177   31.4938 H   0  0  0  0  0  0  0  0  0  0  0  0
   36.3091   25.2376   32.6218 H   0  0  0  0  0  0  0  0  0  0  0  0
   38.5767   22.3470   30.3552 H   0  0  0  0  0  0  0  0  0  0  0  0
   39.7911   24.2344   29.2292 H   0  0  0  0  0  0  0  0  0  0  0  0
   40.6556   27.4518   30.2616 H   0  0  0  0  0  0  0  0  0  0  0  0
  1  2  2  0
  1 11  1  0
  3  2  1  0
  4  3  2  0
  5  4  1  0
  5  6  2  0
  6  1  1  0
  8  7  2  0
  9  8  1  0
 10 11  1  0
 10  9  2  0
 11 12  2  0
 12  7  1  0
 13 14  2  0
 14 15  1  0
 16 15  2  0
 16  6  1  0
 17 16  1  0
 18 13  1  0
 18 17  2  0
 19 13  1  0
 20 19  2  0
 21 19  2  0
  2 22  1  0
  3 23  1  0
  4 24  1  0
  5 25  1  0
  7 26  1  0
  8 27  1  0
  9 28  1  0
 14 29  1  0
 15 30  1  0
 17 31  1  0
 18 32  1  0
 19 33  1  0
M  ISO  8  22  14  23  14  24  14  25  14  26  14  27  14  28  14  29  14
M  ISO  4  30  14  31  14  32  14  33  11
M  END
>  <minimizedAffinity>  (1) 
-4.44207048

>  <minimizedRMSD>  (1) 
7.80777931

$$$$
