
     RDKit          3D

 23 24  0  0  0  0  0  0  0  0999 V2000
   37.3650   21.9640   35.2890 C   0  0  0  0  0  0  0  0  0  0  0  0
   37.8870   22.0880   34.0290 C   0  0  0  0  0  0  0  0  0  0  0  0
   37.2670   21.4830   32.9410 C   0  0  0  0  0  0  0  0  0  0  0  0
   36.1140   20.7640   33.2070 C   0  0  0  0  0  0  0  0  0  0  0  0
   35.5630   20.6190   34.4710 C   0  0  0  0  0  0  0  0  0  0  0  0
   36.2220   21.2410   35.5100 C   0  0  0  0  0  0  0  0  0  0  0  0
   39.7780   22.7740   37.9480 C   0  0  0  0  0  0  0  0  0  0  0  0
   39.1470   23.8620   38.5960 C   0  0  0  0  0  0  0  0  0  0  0  0
   37.8970   24.2900   38.0950 C   0  0  0  0  0  0  0  0  0  0  0  0
   37.3740   23.6400   37.0300 N   0  0  0  0  0  0  0  0  0  0  0  0
   38.0030   22.5920   36.4240 C   0  0  0  0  0  0  0  0  0  0  0  0
   39.2020   22.1710   36.8920 N   0  0  0  0  0  0  0  0  0  0  0  0
   35.5720   21.0250   36.7800 C   0  0  0  0  0  0  0  0  0  0  0  0
   36.0380   21.1560   37.9410 O   0  0  0  0  0  0  0  0  0  0  0  0
   34.3060   20.6270   37.1690 O   0  0  0  0  0  0  0  0  0  0  0  0
   38.8063   22.6723   33.8759 H   0  0  0  0  0  0  0  0  0  0  0  0
   37.6716   21.5711   31.9219 H   0  0  0  0  0  0  0  0  0  0  0  0
   35.6033   20.2775   32.3629 H   0  0  0  0  0  0  0  0  0  0  0  0
   34.6449   20.0362   34.6367 H   0  0  0  0  0  0  0  0  0  0  0  0
   40.7524   22.4163   38.3123 H   0  0  0  0  0  0  0  0  0  0  0  0
   39.6135   24.3577   39.4601 H   0  0  0  0  0  0  0  0  0  0  0  0
   37.3621   25.1314   38.5597 H   0  0  0  0  0  0  0  0  0  0  0  0
   34.0857   20.5480   38.1309 H   0  0  0  0  0  0  0  0  0  0  0  0
  1  6  1  0
  1 11  1  0
  2  1  2  0
  3  4  2  0
  3  2  1  0
  4  5  1  0
  5  6  2  0
  6 13  1  0
  7  8  2  0
  9  8  1  0
 10  9  2  0
 11 12  2  0
 11 10  1  0
 12  7  1  0
 13 15  1  0
 13 14  2  0
  2 16  1  0
  3 17  1  0
  4 18  1  0
  5 19  1  0
  7 20  1  0
  8 21  1  0
  9 22  1  0
 15 23  1  0
M  ISO  8  16  14  17  14  18  14  19  14  20  14  21  14  22  14  23   3
M  END
>  <minimizedAffinity>  (1) 
-4.23025846

>  <minimizedRMSD>  (1) 
0.517340839

$$$$
