
     RDKit          3D

 39 43  0  0  0  0  0  0  0  0999 V2000
   39.3810   24.6480   33.8110 C   0  0  0  0  0  0  0  0  0  0  0  0
   39.9970   24.4610   32.5840 C   0  0  0  0  0  0  0  0  0  0  0  0
   39.4240   25.3770   31.6980 C   0  0  0  0  0  0  0  0  0  0  0  0
   38.5160   26.0720   32.3680 N   0  0  0  0  0  0  0  0  0  0  0  0
   38.4800   25.6390   33.6530 N   0  0  0  0  0  0  0  0  0  0  0  0
   37.6850   27.1250   31.8350 C   0  0  0  0  0  0  0  0  0  0  0  0
   37.8490   27.4450   30.4960 C   0  0  0  0  0  0  0  0  0  0  0  0
   37.0180   28.4690   30.0120 C   0  0  0  0  0  0  0  0  0  0  0  0
   36.1520   29.0630   30.8090 N   0  0  0  0  0  0  0  0  0  0  0  0
   36.0000   28.7440   32.1150 C   0  0  0  0  0  0  0  0  0  0  0  0
   36.7970   27.7590   32.5890 N   0  0  0  0  0  0  0  0  0  0  0  0
   35.0920   29.3330   33.0420 N   0  0  0  0  0  0  0  0  0  0  0  0
   35.1370   29.2300   34.3900 C   0  0  0  0  0  0  0  0  0  0  0  0
   34.1160   29.9160   34.9700 N   0  0  0  0  0  0  0  0  0  0  0  0
   33.4150   30.4610   33.9750 C   0  0  0  0  0  0  0  0  0  0  0  0
   32.2970   31.2540   33.8540 C   0  0  0  0  0  0  0  0  0  0  0  0
   31.7870   31.6750   32.6890 N   0  0  0  0  0  0  0  0  0  0  0  0
   32.4090   31.3000   31.5350 C   0  0  0  0  0  0  0  0  0  0  0  0
   33.5220   30.5150   31.5810 N   0  0  0  0  0  0  0  0  0  0  0  0
   34.0050   30.1110   32.7810 C   0  0  0  0  0  0  0  0  0  0  0  0
   40.8380   22.3230   36.2390 C   0  0  0  0  0  0  0  0  0  0  0  0
   40.0800   22.6040   37.4060 C   0  0  0  0  0  0  0  0  0  0  0  0
   39.1070   23.5730   37.3120 C   0  0  0  0  0  0  0  0  0  0  0  0
   38.9050   24.2220   36.1280 N   0  0  0  0  0  0  0  0  0  0  0  0
   39.6530   23.9190   35.0410 C   0  0  0  0  0  0  0  0  0  0  0  0
   40.6080   22.9780   35.1020 N   0  0  0  0  0  0  0  0  0  0  0  0
   38.3480   23.8280   38.5530 C   0  0  0  0  0  0  0  0  0  0  0  0
   37.8430   25.0990   38.5400 F   0  0  0  0  0  0  0  0  0  0  0  0
   39.2530   23.7880   39.5900 F   0  0  0  0  0  0  0  0  0  0  0  0
   37.3040   22.9440   38.7140 F   0  0  0  0  0  0  0  0  0  0  0  0
   40.7863   23.7309   32.3518 H   0  0  0  0  0  0  0  0  0  0  0  0
   39.6805   25.4993   30.6353 H   0  0  0  0  0  0  0  0  0  0  0  0
   38.5810   26.9313   29.8554 H   0  0  0  0  0  0  0  0  0  0  0  0
   37.0905   28.7779   28.9588 H   0  0  0  0  0  0  0  0  0  0  0  0
   35.9003   28.6648   34.9450 H   0  0  0  0  0  0  0  0  0  0  0  0
   31.7867   31.5637   34.7779 H   0  0  0  0  0  0  0  0  0  0  0  0
   32.0114   31.6319   30.5646 H   0  0  0  0  0  0  0  0  0  0  0  0
   41.6248   21.5551   36.2740 H   0  0  0  0  0  0  0  0  0  0  0  0
   40.2632   22.0680   38.3490 H   0  0  0  0  0  0  0  0  0  0  0  0
  1 25  1  0
  2  1  1  0
  3  4  1  0
  3  2  2  0
  4  5  1  0
  5  1  2  0
  6  4  1  0
  6 11  1  0
  7  6  2  0
  8  7  1  0
  8  9  2  0
  9 10  1  0
 10 11  2  0
 10 12  1  0
 12 13  1  0
 13 14  2  0
 15 14  1  0
 16 15  2  0
 17 16  1  0
 18 19  1  0
 18 17  2  0
 19 20  2  0
 20 12  1  0
 20 15  1  0
 21 22  2  0
 23 22  1  0
 23 27  1  0
 24 23  2  0
 25 26  2  0
 25 24  1  0
 26 21  1  0
 27 30  1  0
 27 29  1  0
 28 27  1  0
  2 31  1  0
  3 32  1  0
  7 33  1  0
  8 34  1  0
 13 35  1  0
 16 36  1  0
 18 37  1  0
 21 38  1  0
 22 39  1  0
M  ISO  8  31  14  32  14  33  14  34  14  35  14  36  14  37  14  38  14
M  ISO  1  39  14
M  END
>  <minimizedAffinity>  (1) 
-6.62590551

>  <minimizedRMSD>  (1) 
2.83402705

$$$$
