
     RDKit          3D

 26 27  0  0  0  0  0  0  0  0999 V2000
   37.4320   22.1980   34.6340 C   0  0  0  0  0  0  0  0  0  0  0  0
   37.6740   22.8850   33.4510 C   0  0  0  0  0  0  0  0  0  0  0  0
   36.9070   22.6290   32.3190 C   0  0  0  0  0  0  0  0  0  0  0  0
   35.9060   21.6550   32.4680 C   0  0  0  0  0  0  0  0  0  0  0  0
   35.6590   20.9650   33.6460 C   0  0  0  0  0  0  0  0  0  0  0  0
   36.4440   21.2510   34.7420 C   0  0  0  0  0  0  0  0  0  0  0  0
   40.1980   22.2580   37.0750 C   0  0  0  0  0  0  0  0  0  0  0  0
   39.7020   23.1140   38.0680 C   0  0  0  0  0  0  0  0  0  0  0  0
   38.4180   23.6520   37.8700 C   0  0  0  0  0  0  0  0  0  0  0  0
   37.7280   23.3240   36.7450 N   0  0  0  0  0  0  0  0  0  0  0  0
   38.2450   22.4840   35.7960 C   0  0  0  0  0  0  0  0  0  0  0  0
   39.4650   21.9730   35.9850 N   0  0  0  0  0  0  0  0  0  0  0  0
   36.1860   20.5170   36.0080 C   0  0  0  0  0  0  0  0  0  0  0  0
   35.0190   21.1400   36.7700 C   0  0  0  0  0  0  0  0  0  0  0  0
   38.4768   23.6358   33.4092 H   0  0  0  0  0  0  0  0  0  0  0  0
   37.0738   23.1558   31.3679 H   0  0  0  0  0  0  0  0  0  0  0  0
   35.2778   21.4246   31.5949 H   0  0  0  0  0  0  0  0  0  0  0  0
   34.8597   20.2114   33.7035 H   0  0  0  0  0  0  0  0  0  0  0  0
   41.1982   21.8146   37.1890 H   0  0  0  0  0  0  0  0  0  0  0  0
   40.2923   23.3548   38.9644 H   0  0  0  0  0  0  0  0  0  0  0  0
   37.9772   24.3298   38.6159 H   0  0  0  0  0  0  0  0  0  0  0  0
   35.9455   19.4693   35.7744 H   0  0  0  0  0  0  0  0  0  0  0  0
   37.0867   20.5731   36.6369 H   0  0  0  0  0  0  0  0  0  0  0  0
   35.1954   21.0458   37.8517 H   0  0  0  0  0  0  0  0  0  0  0  0
   34.9334   22.2038   36.5037 H   0  0  0  0  0  0  0  0  0  0  0  0
   34.0874   20.6192   36.5037 H   0  0  0  0  0  0  0  0  0  0  0  0
  1  6  1  0
  1 11  1  0
  2  1  2  0
  3  4  2  0
  3  2  1  0
  4  5  1  0
  5  6  2  0
  6 13  1  0
  7  8  2  0
  9  8  1  0
 10  9  2  0
 11 12  2  0
 11 10  1  0
 12  7  1  0
 13 14  1  0
  2 15  1  0
  3 16  1  0
  4 17  1  0
  5 18  1  0
  7 19  1  0
  8 20  1  0
  9 21  1  0
 13 22  1  0
 13 23  1  0
 14 24  1  0
 14 25  1  0
 14 26  1  0
M  ISO  8  15  14  16  14  17  14  18  14  19  14  20  14  21  14  22   8
M  ISO  4  23   8  24   8  25   8  26   8
M  END
>  <minimizedAffinity>  (1) 
-3.73045206

>  <minimizedRMSD>  (1) 
0.805642843

$$$$
