
     RDKit          3D

 27 29  0  0  0  0  0  0  0  0999 V2000
   37.2500   22.0980   33.4850 C   0  0  0  0  0  0  0  0  0  0  0  0
   37.1490   22.4180   32.1350 C   0  0  0  0  0  0  0  0  0  0  0  0
   36.1060   21.8840   31.3720 C   0  0  0  0  0  0  0  0  0  0  0  0
   35.2140   21.0400   32.0540 C   0  0  0  0  0  0  0  0  0  0  0  0
   35.3130   20.7250   33.3830 C   0  0  0  0  0  0  0  0  0  0  0  0
   36.3550   21.2670   34.1100 C   0  0  0  0  0  0  0  0  0  0  0  0
   40.4280   22.5370   35.3060 C   0  0  0  0  0  0  0  0  0  0  0  0
   40.3410   23.8550   35.7450 C   0  0  0  0  0  0  0  0  0  0  0  0
   39.1830   24.5690   35.4030 C   0  0  0  0  0  0  0  0  0  0  0  0
   38.2060   23.9690   34.6730 N   0  0  0  0  0  0  0  0  0  0  0  0
   38.3460   22.6670   34.2670 C   0  0  0  0  0  0  0  0  0  0  0  0
   39.4420   21.9770   34.5860 N   0  0  0  0  0  0  0  0  0  0  0  0
   36.5410   20.9790   35.5550 C   0  0  0  0  0  0  0  0  0  0  0  0
   36.2830   22.0180   36.5810 C   0  0  0  0  0  0  0  0  0  0  0  0
   35.3670   20.8620   36.4800 C   0  0  0  0  0  0  0  0  0  0  0  0
   37.8866   23.0884   31.6696 H   0  0  0  0  0  0  0  0  0  0  0  0
   35.9909   22.1112   30.3019 H   0  0  0  0  0  0  0  0  0  0  0  0
   34.3813   20.6034   31.4830 H   0  0  0  0  0  0  0  0  0  0  0  0
   34.5808   20.0568   33.8599 H   0  0  0  0  0  0  0  0  0  0  0  0
   41.3204   21.9433   35.5532 H   0  0  0  0  0  0  0  0  0  0  0  0
   41.1462   24.3171   36.3351 H   0  0  0  0  0  0  0  0  0  0  0  0
   39.0657   25.6141   35.7255 H   0  0  0  0  0  0  0  0  0  0  0  0
   37.3933   20.3359   35.2904 H   0  0  0  0  0  0  0  0  0  0  0  0
   36.9543   22.1107   37.4474 H   0  0  0  0  0  0  0  0  0  0  0  0
   36.1543   23.1102   36.5596 H   0  0  0  0  0  0  0  0  0  0  0  0
   34.3461   21.0003   36.0944 H   0  0  0  0  0  0  0  0  0  0  0  0
   34.9983   20.0963   37.1785 H   0  0  0  0  0  0  0  0  0  0  0  0
  1  6  1  0
  1 11  1  0
  2  1  2  0
  3  4  2  0
  3  2  1  0
  4  5  1  0
  5  6  2  0
  6 13  1  0
  7  8  2  0
  9  8  1  0
 10  9  2  0
 11 12  2  0
 11 10  1  0
 12  7  1  0
 13 15  1  0
 13 14  1  0
 15 14  1  0
  2 16  1  0
  3 17  1  0
  4 18  1  0
  5 19  1  0
  7 20  1  0
  8 21  1  0
  9 22  1  0
 13 23  1  0
 14 24  1  0
 14 25  1  0
 15 26  1  0
 15 27  1  0
M  ISO  8  16  14  17  14  18  14  19  14  20  14  21  14  22  14  23  13
M  ISO  4  24  13  25  13  26  13  27  13
M  END
>  <minimizedAffinity>  (1) 
-3.61956596

>  <minimizedRMSD>  (1) 
1.96160078

$$$$
