
     RDKit          3D

 39 43  0  0  0  0  0  0  0  0999 V2000
   37.8030   25.2940   33.8100 C   0  0  0  0  0  0  0  0  0  0  0  0
   37.8440   26.6190   34.2600 C   0  0  0  0  0  0  0  0  0  0  0  0
   37.1850   27.6230   33.5750 C   0  0  0  0  0  0  0  0  0  0  0  0
   36.5000   27.2380   32.4410 C   0  0  0  0  0  0  0  0  0  0  0  0
   36.4510   25.9490   31.9900 C   0  0  0  0  0  0  0  0  0  0  0  0
   37.1190   24.9310   32.6840 C   0  0  0  0  0  0  0  0  0  0  0  0
   40.3470   22.8750   34.9080 C   0  0  0  0  0  0  0  0  0  0  0  0
   39.7550   22.3180   36.0530 C   0  0  0  0  0  0  0  0  0  0  0  0
   38.4740   22.7970   36.4210 C   0  0  0  0  0  0  0  0  0  0  0  0
   37.9160   23.7500   35.6520 N   0  0  0  0  0  0  0  0  0  0  0  0
   38.5070   24.2700   34.5560 C   0  0  0  0  0  0  0  0  0  0  0  0
   39.7170   23.8280   34.1940 N   0  0  0  0  0  0  0  0  0  0  0  0
   37.0190   23.5930   32.1420 C   0  0  0  0  0  0  0  0  0  0  0  0
   37.6190   23.1940   31.0050 N   0  0  0  0  0  0  0  0  0  0  0  0
   37.3720   21.9510   30.7410 O   0  0  0  0  0  0  0  0  0  0  0  0
   36.6100   21.4770   31.6730 C   0  0  0  0  0  0  0  0  0  0  0  0
   36.3930   22.4770   32.5280 N   0  0  0  0  0  0  0  0  0  0  0  0
   36.0560   20.1300   31.8290 C   0  0  0  0  0  0  0  0  0  0  0  0
   34.7210   19.7740   31.9900 C   0  0  0  0  0  0  0  0  0  0  0  0
   34.6250   18.4340   32.1000 N   0  0  0  0  0  0  0  0  0  0  0  0
   35.8780   17.9560   32.0110 C   0  0  0  0  0  0  0  0  0  0  0  0
   36.3990   16.6780   32.0540 C   0  0  0  0  0  0  0  0  0  0  0  0
   37.7330   16.3390   31.9470 C   0  0  0  0  0  0  0  0  0  0  0  0
   38.6380   17.3870   31.7770 C   0  0  0  0  0  0  0  0  0  0  0  0
   38.1610   18.6980   31.7270 C   0  0  0  0  0  0  0  0  0  0  0  0
   36.8100   18.9700   31.8410 C   0  0  0  0  0  0  0  0  0  0  0  0
   38.4085   26.8648   35.1715 H   0  0  0  0  0  0  0  0  0  0  0  0
   37.2057   28.6690   33.9147 H   0  0  0  0  0  0  0  0  0  0  0  0
   35.9645   28.0102   31.8692 H   0  0  0  0  0  0  0  0  0  0  0  0
   35.8846   25.7093   31.0780 H   0  0  0  0  0  0  0  0  0  0  0  0
   41.3408   22.5277   34.5890 H   0  0  0  0  0  0  0  0  0  0  0  0
   40.2657   21.5408   36.6406 H   0  0  0  0  0  0  0  0  0  0  0  0
   37.9526   22.4032   37.3059 H   0  0  0  0  0  0  0  0  0  0  0  0
   33.8753   20.4766   32.0225 H   0  0  0  0  0  0  0  0  0  0  0  0
   33.7626   17.8853   32.2270 H   0  0  0  0  0  0  0  0  0  0  0  0
   35.6840   15.8525   32.1859 H   0  0  0  0  0  0  0  0  0  0  0  0
   38.0666   15.2918   31.9936 H   0  0  0  0  0  0  0  0  0  0  0  0
   39.7148   17.1827   31.6835 H   0  0  0  0  0  0  0  0  0  0  0  0
   38.8710   19.5277   31.5948 H   0  0  0  0  0  0  0  0  0  0  0  0
  1  2  2  0
  1 11  1  0
  3  2  1  0
  4  3  2  0
  5  4  1  0
  5  6  2  0
  6  1  1  0
  7  8  2  0
  8  9  1  0
 10  9  2  0
 11 10  1  0
 12 11  2  0
 12  7  1  0
 13 17  1  0
 13  6  1  0
 14 13  2  0
 15 14  1  0
 15 16  1  0
 16 18  1  0
 16 17  2  0
 18 26  1  0
 18 19  2  0
 19 20  1  0
 21 22  2  0
 21 20  1  0
 23 22  1  0
 24 23  2  0
 25 24  1  0
 25 26  2  0
 26 21  1  0
  2 27  1  0
  3 28  1  0
  4 29  1  0
  5 30  1  0
  7 31  1  0
  8 32  1  0
  9 33  1  0
 19 34  1  0
 20 35  1  0
 22 36  1  0
 23 37  1  0
 24 38  1  0
 25 39  1  0
M  ISO  8  27  14  28  14  29  14  30  14  31  14  32  14  33  14  34  14
M  ISO  5  35   9  36  14  37  14  38  14  39  14
M  END
>  <minimizedAffinity>  (1) 
-6.08984566

>  <minimizedRMSD>  (1) 
4.52498722

$$$$
