
     RDKit          3D

 42 46  0  0  0  0  0  0  0  0999 V2000
   36.7310   24.8710   31.7590 C   0  0  0  0  0  0  0  0  0  0  0  0
   35.6450   24.2290   31.1960 C   0  0  0  0  0  0  0  0  0  0  0  0
   34.7040   25.0180   30.5490 C   0  0  0  0  0  0  0  0  0  0  0  0
   34.8840   26.3320   30.4970 N   0  0  0  0  0  0  0  0  0  0  0  0
   35.9300   26.9620   31.0370 C   0  0  0  0  0  0  0  0  0  0  0  0
   36.8600   26.2100   31.6740 N   0  0  0  0  0  0  0  0  0  0  0  0
   36.0750   28.3740   30.9530 N   0  0  0  0  0  0  0  0  0  0  0  0
   35.4900   29.2750   31.7630 C   0  0  0  0  0  0  0  0  0  0  0  0
   35.8860   30.5120   31.3440 N   0  0  0  0  0  0  0  0  0  0  0  0
   36.7130   30.3630   30.2800 C   0  0  0  0  0  0  0  0  0  0  0  0
   37.4100   31.2470   29.4510 C   0  0  0  0  0  0  0  0  0  0  0  0
   37.3210   32.4880   29.6540 O   0  0  0  0  0  0  0  0  0  0  0  0
   38.1600   30.7220   28.4590 N   0  0  0  0  0  0  0  0  0  0  0  0
   38.2630   29.3990   28.2330 C   0  0  0  0  0  0  0  0  0  0  0  0
   39.0500   28.8370   27.1900 N   0  0  0  0  0  0  0  0  0  0  0  0
   37.5890   28.5400   29.0320 N   0  0  0  0  0  0  0  0  0  0  0  0
   36.8270   29.0090   30.0380 C   0  0  0  0  0  0  0  0  0  0  0  0
   38.9420   23.1940   34.0400 C   0  0  0  0  0  0  0  0  0  0  0  0
   39.3380   22.6340   32.8440 C   0  0  0  0  0  0  0  0  0  0  0  0
   38.5470   23.2030   31.8440 C   0  0  0  0  0  0  0  0  0  0  0  0
   37.7140   24.0700   32.4330 N   0  0  0  0  0  0  0  0  0  0  0  0
   37.9490   24.0680   33.7580 N   0  0  0  0  0  0  0  0  0  0  0  0
   41.0990   21.9780   36.7320 C   0  0  0  0  0  0  0  0  0  0  0  0
   40.4110   22.4320   37.8890 C   0  0  0  0  0  0  0  0  0  0  0  0
   39.2450   23.1320   37.7030 C   0  0  0  0  0  0  0  0  0  0  0  0
   38.7820   23.3690   36.4400 N   0  0  0  0  0  0  0  0  0  0  0  0
   39.4790   22.9130   35.3680 C   0  0  0  0  0  0  0  0  0  0  0  0
   40.6220   22.2260   35.5220 N   0  0  0  0  0  0  0  0  0  0  0  0
   38.5790   23.5740   38.9350 C   0  0  0  0  0  0  0  0  0  0  0  0
   37.9080   24.7470   38.7080 F   0  0  0  0  0  0  0  0  0  0  0  0
   39.5620   23.8670   39.8500 F   0  0  0  0  0  0  0  0  0  0  0  0
   37.6750   22.6570   39.4070 F   0  0  0  0  0  0  0  0  0  0  0  0
   35.5306   23.1367   31.2580 H   0  0  0  0  0  0  0  0  0  0  0  0
   33.8187   24.5593   30.0844 H   0  0  0  0  0  0  0  0  0  0  0  0
   34.8179   29.0556   32.6057 H   0  0  0  0  0  0  0  0  0  0  0  0
   38.6791   31.3655   27.8447 H   0  0  0  0  0  0  0  0  0  0  0  0
   39.0887   27.8150   27.0675 H   0  0  0  0  0  0  0  0  0  0  0  0
   39.5812   29.4520   26.5572 H   0  0  0  0  0  0  0  0  0  0  0  0
   40.1278   21.8812   32.7041 H   0  0  0  0  0  0  0  0  0  0  0  0
   38.5988   22.9796   30.7682 H   0  0  0  0  0  0  0  0  0  0  0  0
   42.0374   21.4148   36.8425 H   0  0  0  0  0  0  0  0  0  0  0  0
   40.7989   22.2297   38.8982 H   0  0  0  0  0  0  0  0  0  0  0  0
  1 21  1  0
  2  1  2  0
  3  2  1  0
  4  3  2  0
  4  5  1  0
  5  6  2  0
  6  1  1  0
  7  5  1  0
  7  8  1  0
  9  8  2  0
 10  9  1  0
 11 12  2  0
 11 10  1  0
 13 11  1  0
 14 13  1  0
 14 16  2  0
 15 14  1  0
 16 17  1  0
 17 10  2  0
 17  7  1  0
 18 27  1  0
 19 18  1  0
 20 21  1  0
 20 19  2  0
 21 22  1  0
 22 18  2  0
 23 24  2  0
 25 24  1  0
 25 29  1  0
 26 25  2  0
 27 28  2  0
 27 26  1  0
 28 23  1  0
 29 32  1  0
 29 31  1  0
 30 29  1  0
  2 33  1  0
  3 34  1  0
  8 35  1  0
 13 36  1  0
 15 37  1  0
 15 38  1  0
 19 39  1  0
 20 40  1  0
 23 41  1  0
 24 42  1  0
M  ISO  8  33  14  34  14  35  14  36   9  39  14  40  14  41  14  42  14
M  END
>  <minimizedAffinity>  (1) 
-6.59701014

>  <minimizedRMSD>  (1) 
0.638816714

$$$$
