
     RDKit          3D

 32 35  0  0  0  0  0  0  0  0999 V2000
   39.6040   25.1990   34.7640 C   0  0  0  0  0  0  0  0  0  0  0  0
   40.0770   26.5040   34.8670 C   0  0  0  0  0  0  0  0  0  0  0  0
   40.3720   27.2580   33.7460 C   0  0  0  0  0  0  0  0  0  0  0  0
   40.1680   26.6320   32.5300 C   0  0  0  0  0  0  0  0  0  0  0  0
   39.7050   25.3530   32.4200 C   0  0  0  0  0  0  0  0  0  0  0  0
   39.4060   24.5910   33.5590 C   0  0  0  0  0  0  0  0  0  0  0  0
   38.9200   23.2410   33.3380 C   0  0  0  0  0  0  0  0  0  0  0  0
   39.7100   22.1650   33.2490 N   0  0  0  0  0  0  0  0  0  0  0  0
   39.0240   21.0850   33.0520 O   0  0  0  0  0  0  0  0  0  0  0  0
   37.7710   21.3970   33.0010 C   0  0  0  0  0  0  0  0  0  0  0  0
   37.6960   22.7180   33.1750 N   0  0  0  0  0  0  0  0  0  0  0  0
   36.7380   20.4390   32.7940 N   0  0  0  0  0  0  0  0  0  0  0  0
   37.0050   19.4250   31.9760 N   0  0  0  0  0  0  0  0  0  0  0  0
   35.9260   18.6170   31.8920 C   0  0  0  0  0  0  0  0  0  0  0  0
   34.9480   19.1680   32.7050 C   0  0  0  0  0  0  0  0  0  0  0  0
   35.4670   20.3210   33.2730 C   0  0  0  0  0  0  0  0  0  0  0  0
   39.7840   22.8320   37.5790 C   0  0  0  0  0  0  0  0  0  0  0  0
   38.6030   23.1150   38.2860 C   0  0  0  0  0  0  0  0  0  0  0  0
   37.7730   24.1220   37.7670 C   0  0  0  0  0  0  0  0  0  0  0  0
   38.1630   24.7390   36.6390 N   0  0  0  0  0  0  0  0  0  0  0  0
   39.3090   24.4530   35.9670 C   0  0  0  0  0  0  0  0  0  0  0  0
   40.0980   23.5030   36.4540 N   0  0  0  0  0  0  0  0  0  0  0  0
   40.2196   26.9462   35.8641 H   0  0  0  0  0  0  0  0  0  0  0  0
   40.7453   28.2903   33.8171 H   0  0  0  0  0  0  0  0  0  0  0  0
   40.3892   27.1908   31.6087 H   0  0  0  0  0  0  0  0  0  0  0  0
   39.5640   24.9125   31.4220 H   0  0  0  0  0  0  0  0  0  0  0  0
   35.8399   17.6982   31.2934 H   0  0  0  0  0  0  0  0  0  0  0  0
   33.9390   18.7623   32.8702 H   0  0  0  0  0  0  0  0  0  0  0  0
   34.9567   21.0028   33.9693 H   0  0  0  0  0  0  0  0  0  0  0  0
   40.4628   22.0501   37.9502 H   0  0  0  0  0  0  0  0  0  0  0  0
   38.3402   22.5716   39.2056 H   0  0  0  0  0  0  0  0  0  0  0  0
   36.8332   24.3969   38.2682 H   0  0  0  0  0  0  0  0  0  0  0  0
  1  2  2  0
  1 21  1  0
  3  2  1  0
  4  3  2  0
  5  4  1  0
  5  6  2  0
  6  1  1  0
  7  6  1  0
  8  7  2  0
  9  8  1  0
 10  9  1  0
 10 11  2  0
 11  7  1  0
 12 10  1  0
 12 16  1  0
 13 12  1  0
 14 13  2  0
 14 15  1  0
 15 16  2  0
 17 18  2  0
 19 18  1  0
 20 19  2  0
 21 22  2  0
 21 20  1  0
 22 17  1  0
  2 23  1  0
  3 24  1  0
  4 25  1  0
  5 26  1  0
 14 27  1  0
 15 28  1  0
 16 29  1  0
 17 30  1  0
 18 31  1  0
 19 32  1  0
M  ISO  8  23  14  24  14  25  14  26  14  27  14  28  14  29  14  30  14
M  ISO  2  31  14  32  14
M  END
>  <minimizedAffinity>  (1) 
-5.33326817

>  <minimizedRMSD>  (1) 
3.25518107

$$$$
