
     RDKit          3D

 36 39  0  0  0  0  0  0  0  0999 V2000
   40.6630   25.0960   34.2840 C   0  0  0  0  0  0  0  0  0  0  0  0
   41.0580   26.3660   34.7290 C   0  0  0  0  0  0  0  0  0  0  0  0
   41.0740   27.4500   33.8700 C   0  0  0  0  0  0  0  0  0  0  0  0
   40.6800   27.1900   32.5660 C   0  0  0  0  0  0  0  0  0  0  0  0
   40.2900   25.9490   32.1130 C   0  0  0  0  0  0  0  0  0  0  0  0
   40.2790   24.8590   33.0040 C   0  0  0  0  0  0  0  0  0  0  0  0
   39.8680   23.5790   32.4430 C   0  0  0  0  0  0  0  0  0  0  0  0
   40.6420   22.7980   31.6900 N   0  0  0  0  0  0  0  0  0  0  0  0
   40.0330   21.7140   31.3380 O   0  0  0  0  0  0  0  0  0  0  0  0
   38.8460   21.7290   31.8340 C   0  0  0  0  0  0  0  0  0  0  0  0
   38.7290   22.8730   32.5180 N   0  0  0  0  0  0  0  0  0  0  0  0
   37.6820   20.9080   31.8570 N   0  0  0  0  0  0  0  0  0  0  0  0
   36.5340   21.6280   31.8040 C   0  0  0  0  0  0  0  0  0  0  0  0
   35.2910   20.9940   31.8160 C   0  0  0  0  0  0  0  0  0  0  0  0
   35.3300   19.6040   31.8840 C   0  0  0  0  0  0  0  0  0  0  0  0
   34.1270   18.8530   31.9020 N   0  0  0  0  0  0  0  0  0  0  0  0
   36.4820   18.9350   31.9350 N   0  0  0  0  0  0  0  0  0  0  0  0
   37.6710   19.5650   31.9220 C   0  0  0  0  0  0  0  0  0  0  0  0
   38.8190   19.0510   31.9650 O   0  0  0  0  0  0  0  0  0  0  0  0
   41.6860   22.1470   36.2440 C   0  0  0  0  0  0  0  0  0  0  0  0
   40.5340   21.9320   37.0530 C   0  0  0  0  0  0  0  0  0  0  0  0
   39.4340   22.8190   36.8950 C   0  0  0  0  0  0  0  0  0  0  0  0
   39.5670   23.7980   35.9870 N   0  0  0  0  0  0  0  0  0  0  0  0
   40.6630   23.9950   35.2240 C   0  0  0  0  0  0  0  0  0  0  0  0
   41.6990   23.1630   35.3710 N   0  0  0  0  0  0  0  0  0  0  0  0
   41.3599   26.5022   35.7779 H   0  0  0  0  0  0  0  0  0  0  0  0
   41.3796   28.4538   34.2000 H   0  0  0  0  0  0  0  0  0  0  0  0
   40.6789   28.0252   31.8502 H   0  0  0  0  0  0  0  0  0  0  0  0
   39.9897   25.8108   31.0639 H   0  0  0  0  0  0  0  0  0  0  0  0
   36.5833   22.7256   31.7509 H   0  0  0  0  0  0  0  0  0  0  0  0
   34.3452   21.5541   31.7746 H   0  0  0  0  0  0  0  0  0  0  0  0
   34.1624   17.8248   31.9524 H   0  0  0  0  0  0  0  0  0  0  0  0
   33.2179   19.3358   31.8647 H   0  0  0  0  0  0  0  0  0  0  0  0
   42.5588   21.4837   36.3353 H   0  0  0  0  0  0  0  0  0  0  0  0
   40.4963   21.1053   37.7777 H   0  0  0  0  0  0  0  0  0  0  0  0
   38.5156   22.7077   37.4901 H   0  0  0  0  0  0  0  0  0  0  0  0
  1  2  2  0
  1 24  1  0
  3  2  1  0
  4  3  2  0
  5  4  1  0
  5  6  2  0
  6  1  1  0
  7 11  1  0
  7  6  1  0
  8  7  2  0
  9  8  1  0
  9 10  1  0
 10 12  1  0
 10 11  2  0
 12 18  1  0
 13 14  2  0
 13 12  1  0
 14 15  1  0
 15 16  1  0
 15 17  2  0
 18 17  1  0
 18 19  2  0
 20 21  2  0
 22 21  1  0
 23 22  2  0
 24 25  2  0
 24 23  1  0
 25 20  1  0
  2 26  1  0
  3 27  1  0
  4 28  1  0
  5 29  1  0
 13 30  1  0
 14 31  1  0
 16 32  1  0
 16 33  1  0
 20 34  1  0
 21 35  1  0
 22 36  1  0
M  ISO  8  26  14  27  14  28  14  29  14  30  14  31  14  34  14  35  14
M  ISO  1  36  14
M  END
>  <minimizedAffinity>  (1) 
-5.19868517

>  <minimizedRMSD>  (1) 
4.75401783

$$$$
