
     RDKit          3D

 38 41  0  0  0  0  0  0  0  0999 V2000
   39.2780   25.5180   33.9620 C   0  0  0  0  0  0  0  0  0  0  0  0
   40.3620   26.3430   34.2720 C   0  0  0  0  0  0  0  0  0  0  0  0
   40.8590   27.2450   33.3550 C   0  0  0  0  0  0  0  0  0  0  0  0
   40.2240   27.2790   32.1250 C   0  0  0  0  0  0  0  0  0  0  0  0
   39.1630   26.4780   31.8080 C   0  0  0  0  0  0  0  0  0  0  0  0
   38.6570   25.5590   32.7430 C   0  0  0  0  0  0  0  0  0  0  0  0
   38.6380   22.4460   35.8930 C   0  0  0  0  0  0  0  0  0  0  0  0
   37.7820   22.9210   36.9030 C   0  0  0  0  0  0  0  0  0  0  0  0
   37.4440   24.2900   36.8980 C   0  0  0  0  0  0  0  0  0  0  0  0
   37.9710   25.0400   35.9170 N   0  0  0  0  0  0  0  0  0  0  0  0
   38.7910   24.5920   34.9480 C   0  0  0  0  0  0  0  0  0  0  0  0
   39.1100   23.2860   34.9570 N   0  0  0  0  0  0  0  0  0  0  0  0
   37.5330   24.7550   32.3170 C   0  0  0  0  0  0  0  0  0  0  0  0
   36.3010   25.2250   32.1300 N   0  0  0  0  0  0  0  0  0  0  0  0
   35.4860   24.3040   31.7500 O   0  0  0  0  0  0  0  0  0  0  0  0
   36.1310   23.1760   31.6670 C   0  0  0  0  0  0  0  0  0  0  0  0
   37.3960   23.4570   32.0170 N   0  0  0  0  0  0  0  0  0  0  0  0
   35.6400   21.8230   31.2720 C   0  0  0  0  0  0  0  0  0  0  0  0
   36.7700   20.9180   30.9130 C   0  0  0  0  0  0  0  0  0  0  0  0
   36.5420   19.5750   31.5210 C   0  0  0  0  0  0  0  0  0  0  0  0
   35.2720   19.6670   32.3040 C   0  0  0  0  0  0  0  0  0  0  0  0
   34.9170   21.1310   32.4060 C   0  0  0  0  0  0  0  0  0  0  0  0
   40.8277   26.2717   35.2660 H   0  0  0  0  0  0  0  0  0  0  0  0
   41.7114   27.9002   33.5874 H   0  0  0  0  0  0  0  0  0  0  0  0
   40.5915   27.9852   31.3659 H   0  0  0  0  0  0  0  0  0  0  0  0
   38.7012   26.5533   30.8125 H   0  0  0  0  0  0  0  0  0  0  0  0
   38.9218   21.3835   35.8695 H   0  0  0  0  0  0  0  0  0  0  0  0
   37.3875   22.2438   37.6748 H   0  0  0  0  0  0  0  0  0  0  0  0
   36.7804   24.7227   37.6612 H   0  0  0  0  0  0  0  0  0  0  0  0
   34.9686   21.9971   30.4183 H   0  0  0  0  0  0  0  0  0  0  0  0
   36.8285   20.8203   29.8189 H   0  0  0  0  0  0  0  0  0  0  0  0
   37.7125   21.3384   31.2938 H   0  0  0  0  0  0  0  0  0  0  0  0
   36.4470   18.8135   30.7330 H   0  0  0  0  0  0  0  0  0  0  0  0
   37.3842   19.2851   32.1665 H   0  0  0  0  0  0  0  0  0  0  0  0
   34.4699   19.1196   31.7873 H   0  0  0  0  0  0  0  0  0  0  0  0
   35.3958   19.2241   33.3033 H   0  0  0  0  0  0  0  0  0  0  0  0
   35.2486   21.5369   33.3731 H   0  0  0  0  0  0  0  0  0  0  0  0
   33.8298   21.2844   32.3397 H   0  0  0  0  0  0  0  0  0  0  0  0
  1  2  2  0
  1 11  1  0
  3  2  1  0
  4  3  2  0
  5  4  1  0
  5  6  2  0
  6  1  1  0
  7  8  2  0
  9  8  1  0
 10  9  2  0
 11 12  2  0
 11 10  1  0
 12  7  1  0
 13  6  1  0
 14 13  2  0
 15 14  1  0
 16 15  1  0
 16 17  2  0
 17 13  1  0
 18 16  1  0
 18 22  1  0
 19 18  1  0
 19 20  1  0
 20 21  1  0
 21 22  1  0
  2 23  1  0
  3 24  1  0
  4 25  1  0
  5 26  1  0
  7 27  1  0
  8 28  1  0
  9 29  1  0
 18 30  1  0
 19 31  1  0
 19 32  1  0
 20 33  1  0
 20 34  1  0
 21 35  1  0
 21 36  1  0
 22 37  1  0
 22 38  1  0
M  ISO  8  23  14  24  14  25  14  26  14  27  14  28  14  29  14  30  13
M  ISO  8  31  13  32  13  33  13  34  13  35  13  36  13  37  13  38  13
M  END
>  <minimizedAffinity>  (1) 
-5.46635866

>  <minimizedRMSD>  (1) 
4.10188723

$$$$
