
     RDKit          3D

 30 33  0  0  0  0  0  0  0  0999 V2000
   39.6110   25.2120   34.7480 C   0  0  0  0  0  0  0  0  0  0  0  0
   40.1750   26.4790   34.8550 C   0  0  0  0  0  0  0  0  0  0  0  0
   40.4910   27.2190   33.7400 C   0  0  0  0  0  0  0  0  0  0  0  0
   40.2130   26.6270   32.5260 C   0  0  0  0  0  0  0  0  0  0  0  0
   39.6550   25.3740   32.4030 C   0  0  0  0  0  0  0  0  0  0  0  0
   39.3410   24.6370   33.5440 C   0  0  0  0  0  0  0  0  0  0  0  0
   39.7830   22.8520   37.5750 C   0  0  0  0  0  0  0  0  0  0  0  0
   38.5860   23.1310   38.2680 C   0  0  0  0  0  0  0  0  0  0  0  0
   37.7500   24.1270   37.7420 C   0  0  0  0  0  0  0  0  0  0  0  0
   38.1470   24.7450   36.6150 N   0  0  0  0  0  0  0  0  0  0  0  0
   39.2960   24.4720   35.9570 C   0  0  0  0  0  0  0  0  0  0  0  0
   40.1070   23.5180   36.4510 N   0  0  0  0  0  0  0  0  0  0  0  0
   38.7560   23.3290   33.3240 C   0  0  0  0  0  0  0  0  0  0  0  0
   39.4240   22.1730   33.4020 N   0  0  0  0  0  0  0  0  0  0  0  0
   38.6710   21.1550   33.1630 O   0  0  0  0  0  0  0  0  0  0  0  0
   37.4800   21.5690   32.9180 C   0  0  0  0  0  0  0  0  0  0  0  0
   37.5160   22.9140   33.0140 N   0  0  0  0  0  0  0  0  0  0  0  0
   36.2170   20.8760   32.5850 C   0  0  0  0  0  0  0  0  0  0  0  0
   34.9620   21.2910   32.3270 N   0  0  0  0  0  0  0  0  0  0  0  0
   34.2210   20.2520   32.0890 O   0  0  0  0  0  0  0  0  0  0  0  0
   34.9250   19.1330   32.1750 C   0  0  0  0  0  0  0  0  0  0  0  0
   36.1630   19.5340   32.4820 N   0  0  0  0  0  0  0  0  0  0  0  0
   40.3724   26.8979   35.8528 H   0  0  0  0  0  0  0  0  0  0  0  0
   40.9380   28.2215   33.8120 H   0  0  0  0  0  0  0  0  0  0  0  0
   40.4493   27.1848   31.6078 H   0  0  0  0  0  0  0  0  0  0  0  0
   39.4572   24.9550   31.4053 H   0  0  0  0  0  0  0  0  0  0  0  0
   40.4627   22.0774   37.9597 H   0  0  0  0  0  0  0  0  0  0  0  0
   38.3184   22.5878   39.1863 H   0  0  0  0  0  0  0  0  0  0  0  0
   36.8029   24.3934   38.2339 H   0  0  0  0  0  0  0  0  0  0  0  0
   34.5698   18.1025   32.0267 H   0  0  0  0  0  0  0  0  0  0  0  0
  1  2  2  0
  1 11  1  0
  3  2  1  0
  4  3  2  0
  5  4  1  0
  5  6  2  0
  6  1  1  0
  7  8  2  0
  9  8  1  0
 10  9  2  0
 11 12  2  0
 11 10  1  0
 12  7  1  0
 13 14  2  0
 13  6  1  0
 15 14  1  0
 16 17  2  0
 16 15  1  0
 17 13  1  0
 18 16  1  0
 19 18  2  0
 20 21  1  0
 20 19  1  0
 21 22  2  0
 22 18  1  0
  2 23  1  0
  3 24  1  0
  4 25  1  0
  5 26  1  0
  7 27  1  0
  8 28  1  0
  9 29  1  0
 21 30  1  0
M  ISO  8  23  14  24  14  25  14  26  14  27  14  28  14  29  14  30  14
M  END
>  <minimizedAffinity>  (1) 
-5.23124456

>  <minimizedRMSD>  (1) 
3.3311162

$$$$
