
     RDKit          3D

 32 35  0  0  0  0  0  0  0  0999 V2000
   39.6170   25.2100   34.7370 C   0  0  0  0  0  0  0  0  0  0  0  0
   40.1780   26.4790   34.8580 C   0  0  0  0  0  0  0  0  0  0  0  0
   40.4940   27.2300   33.7270 C   0  0  0  0  0  0  0  0  0  0  0  0
   40.2200   26.6400   32.5170 C   0  0  0  0  0  0  0  0  0  0  0  0
   39.6660   25.3860   32.3920 C   0  0  0  0  0  0  0  0  0  0  0  0
   39.3520   24.6420   33.5320 C   0  0  0  0  0  0  0  0  0  0  0  0
   39.7990   22.8450   37.5590 C   0  0  0  0  0  0  0  0  0  0  0  0
   38.5850   23.1270   38.2480 C   0  0  0  0  0  0  0  0  0  0  0  0
   37.7460   24.1200   37.7200 C   0  0  0  0  0  0  0  0  0  0  0  0
   38.1490   24.7340   36.5980 N   0  0  0  0  0  0  0  0  0  0  0  0
   39.3050   24.4690   35.9390 C   0  0  0  0  0  0  0  0  0  0  0  0
   40.0980   23.5250   36.4470 N   0  0  0  0  0  0  0  0  0  0  0  0
   38.7680   23.3220   33.3110 C   0  0  0  0  0  0  0  0  0  0  0  0
   39.4650   22.1830   33.3820 N   0  0  0  0  0  0  0  0  0  0  0  0
   38.7060   21.1500   33.1450 O   0  0  0  0  0  0  0  0  0  0  0  0
   37.5140   21.5670   32.9150 C   0  0  0  0  0  0  0  0  0  0  0  0
   37.5330   22.8930   33.0130 N   0  0  0  0  0  0  0  0  0  0  0  0
   36.3420   20.7580   32.6030 C   0  0  0  0  0  0  0  0  0  0  0  0
   35.0600   21.1770   32.3150 C   0  0  0  0  0  0  0  0  0  0  0  0
   34.2270   20.1550   32.0750 N   0  0  0  0  0  0  0  0  0  0  0  0
   34.9930   19.0480   32.2110 C   0  0  0  0  0  0  0  0  0  0  0  0
   36.2490   19.4180   32.5260 N   0  0  0  0  0  0  0  0  0  0  0  0
   40.3740   26.8935   35.8579 H   0  0  0  0  0  0  0  0  0  0  0  0
   40.9362   28.2346   33.7990 H   0  0  0  0  0  0  0  0  0  0  0  0
   40.4557   27.1992   31.5995 H   0  0  0  0  0  0  0  0  0  0  0  0
   39.4703   24.9692   31.3930 H   0  0  0  0  0  0  0  0  0  0  0  0
   40.4855   22.0738   37.9385 H   0  0  0  0  0  0  0  0  0  0  0  0
   38.3136   22.5836   39.1651 H   0  0  0  0  0  0  0  0  0  0  0  0
   36.7957   24.3843   38.2069 H   0  0  0  0  0  0  0  0  0  0  0  0
   34.7549   22.2334   32.2855 H   0  0  0  0  0  0  0  0  0  0  0  0
   34.6456   18.0120   32.0846 H   0  0  0  0  0  0  0  0  0  0  0  0
   37.0300   18.7657   32.6858 H   0  0  0  0  0  0  0  0  0  0  0  0
  1  2  2  0
  1 11  1  0
  3  2  1  0
  4  3  2  0
  5  4  1  0
  5  6  2  0
  6  1  1  0
  7  8  2  0
  9  8  1  0
 10  9  2  0
 11 12  2  0
 11 10  1  0
 12  7  1  0
 13 14  2  0
 13  6  1  0
 15 14  1  0
 16 17  2  0
 16 15  1  0
 17 13  1  0
 18 16  1  0
 19 18  2  0
 20 21  2  0
 20 19  1  0
 21 22  1  0
 22 18  1  0
  2 23  1  0
  3 24  1  0
  4 25  1  0
  5 26  1  0
  7 27  1  0
  8 28  1  0
  9 29  1  0
 19 30  1  0
 21 31  1  0
 22 32  1  0
M  ISO  8  23  14  24  14  25  14  26  14  27  14  28  14  29  14  30  14
M  ISO  2  31  14  32   9
M  END
>  <minimizedAffinity>  (1) 
-5.18191099

>  <minimizedRMSD>  (1) 
3.38280368

$$$$
