
     RDKit          3D

 36 40  0  0  0  0  0  0  0  0999 V2000
   40.6680   25.4450   34.1890 C   0  0  0  0  0  0  0  0  0  0  0  0
   41.1630   26.7010   34.5220 C   0  0  0  0  0  0  0  0  0  0  0  0
   41.7410   27.5260   33.5690 C   0  0  0  0  0  0  0  0  0  0  0  0
   41.7890   27.0200   32.2930 C   0  0  0  0  0  0  0  0  0  0  0  0
   41.3070   25.7850   31.9470 C   0  0  0  0  0  0  0  0  0  0  0  0
   40.7230   24.9590   32.9190 C   0  0  0  0  0  0  0  0  0  0  0  0
   40.2370   23.6650   32.4710 C   0  0  0  0  0  0  0  0  0  0  0  0
   41.0180   22.5890   32.3030 N   0  0  0  0  0  0  0  0  0  0  0  0
   40.3410   21.5590   31.8940 O   0  0  0  0  0  0  0  0  0  0  0  0
   39.1110   21.9110   31.7790 C   0  0  0  0  0  0  0  0  0  0  0  0
   39.0280   23.1940   32.1260 N   0  0  0  0  0  0  0  0  0  0  0  0
   38.1000   21.0070   31.3490 N   0  0  0  0  0  0  0  0  0  0  0  0
   38.0330   20.4240   30.1340 C   0  0  0  0  0  0  0  0  0  0  0  0
   36.9570   19.6090   30.0060 N   0  0  0  0  0  0  0  0  0  0  0  0
   36.3200   19.6820   31.1870 C   0  0  0  0  0  0  0  0  0  0  0  0
   35.1640   19.0950   31.7020 C   0  0  0  0  0  0  0  0  0  0  0  0
   34.7840   19.3860   32.9630 N   0  0  0  0  0  0  0  0  0  0  0  0
   35.4990   20.2280   33.7310 C   0  0  0  0  0  0  0  0  0  0  0  0
   36.6350   20.8350   33.2910 N   0  0  0  0  0  0  0  0  0  0  0  0
   37.0120   20.5380   32.0190 C   0  0  0  0  0  0  0  0  0  0  0  0
   40.1510   22.9030   36.8010 C   0  0  0  0  0  0  0  0  0  0  0  0
   38.7970   23.1350   37.1770 C   0  0  0  0  0  0  0  0  0  0  0  0
   38.1080   24.1650   36.5100 C   0  0  0  0  0  0  0  0  0  0  0  0
   38.7910   24.8440   35.5740 N   0  0  0  0  0  0  0  0  0  0  0  0
   40.0750   24.6240   35.2190 C   0  0  0  0  0  0  0  0  0  0  0  0
   40.7200   23.6490   35.8530 N   0  0  0  0  0  0  0  0  0  0  0  0
   41.0946   27.0476   35.5637 H   0  0  0  0  0  0  0  0  0  0  0  0
   42.1358   28.5218   33.8189 H   0  0  0  0  0  0  0  0  0  0  0  0
   42.2396   27.6410   31.5048 H   0  0  0  0  0  0  0  0  0  0  0  0
   41.3781   25.4404   30.9048 H   0  0  0  0  0  0  0  0  0  0  0  0
   38.7703   20.5915   29.3351 H   0  0  0  0  0  0  0  0  0  0  0  0
   34.5696   18.4032   31.0871 H   0  0  0  0  0  0  0  0  0  0  0  0
   35.1520   20.4339   34.7543 H   0  0  0  0  0  0  0  0  0  0  0  0
   40.7287   22.1069   37.2935 H   0  0  0  0  0  0  0  0  0  0  0  0
   38.3092   22.5330   37.9578 H   0  0  0  0  0  0  0  0  0  0  0  0
   37.0598   24.4026   36.7442 H   0  0  0  0  0  0  0  0  0  0  0  0
  1  2  2  0
  1 25  1  0
  3  2  1  0
  4  3  2  0
  5  4  1  0
  5  6  2  0
  6  1  1  0
  7  6  1  0
  8  7  2  0
  9  8  1  0
 10  9  1  0
 10 11  2  0
 11  7  1  0
 12 10  1  0
 12 20  1  0
 13 12  1  0
 14 13  2  0
 14 15  1  0
 15 16  2  0
 15 20  1  0
 16 17  1  0
 17 18  2  0
 19 18  1  0
 20 19  2  0
 21 22  2  0
 23 22  1  0
 24 23  2  0
 25 24  1  0
 25 26  2  0
 26 21  1  0
  2 27  1  0
  3 28  1  0
  4 29  1  0
  5 30  1  0
 13 31  1  0
 16 32  1  0
 18 33  1  0
 21 34  1  0
 22 35  1  0
 23 36  1  0
M  ISO  8  27  14  28  14  29  14  30  14  31  14  32  14  33  14  34  14
M  ISO  2  35  14  36  14
M  END
>  <minimizedAffinity>  (1) 
-4.78441477

>  <minimizedRMSD>  (1) 
4.94477606

$$$$
