
     RDKit          3D

 26 28  0  0  0  0  0  0  0  0999 V2000
   39.2010   23.3610   34.6020 C   0  0  0  0  0  0  0  0  0  0  0  0
   40.2110   24.0550   33.9360 C   0  0  0  0  0  0  0  0  0  0  0  0
   40.3360   23.9960   32.5660 C   0  0  0  0  0  0  0  0  0  0  0  0
   39.3950   23.2030   31.9130 C   0  0  0  0  0  0  0  0  0  0  0  0
   38.4050   22.5210   32.5610 C   0  0  0  0  0  0  0  0  0  0  0  0
   38.2930   22.5930   33.9450 C   0  0  0  0  0  0  0  0  0  0  0  0
   39.7250   22.8450   38.2130 C   0  0  0  0  0  0  0  0  0  0  0  0
   38.8210   23.7640   38.7790 C   0  0  0  0  0  0  0  0  0  0  0  0
   38.0390   24.5510   37.8930 C   0  0  0  0  0  0  0  0  0  0  0  0
   38.2320   24.3500   36.5830 N   0  0  0  0  0  0  0  0  0  0  0  0
   39.1090   23.4600   36.0500 C   0  0  0  0  0  0  0  0  0  0  0  0
   39.8380   22.7250   36.8790 N   0  0  0  0  0  0  0  0  0  0  0  0
   37.2070   21.8280   34.5490 C   0  0  0  0  0  0  0  0  0  0  0  0
   36.3220   21.1070   33.8530 N   0  0  0  0  0  0  0  0  0  0  0  0
   35.4650   20.5260   34.6280 O   0  0  0  0  0  0  0  0  0  0  0  0
   35.7400   20.8320   35.8530 C   0  0  0  0  0  0  0  0  0  0  0  0
   36.8090   21.6320   35.8130 N   0  0  0  0  0  0  0  0  0  0  0  0
   35.1940   20.5240   37.0950 O   0  0  0  0  0  0  0  0  0  0  0  0
   40.9217   24.6614   34.5166 H   0  0  0  0  0  0  0  0  0  0  0  0
   41.1250   24.5380   32.0241 H   0  0  0  0  0  0  0  0  0  0  0  0
   39.4524   23.1219   30.8175 H   0  0  0  0  0  0  0  0  0  0  0  0
   37.6928   21.9118   31.9852 H   0  0  0  0  0  0  0  0  0  0  0  0
   40.3459   22.2181   38.8699 H   0  0  0  0  0  0  0  0  0  0  0  0
   38.7239   23.8687   39.8697 H   0  0  0  0  0  0  0  0  0  0  0  0
   37.3117   25.2883   38.2636 H   0  0  0  0  0  0  0  0  0  0  0  0
   35.5985   20.8944   37.9192 H   0  0  0  0  0  0  0  0  0  0  0  0
  1 11  1  0
  2  1  2  0
  3  2  1  0
  4  5  1  0
  4  3  2  0
  5  6  2  0
  6 13  1  0
  6  1  1  0
  7  8  2  0
  9  8  1  0
 10  9  2  0
 11 10  1  0
 11 12  2  0
 12  7  1  0
 13 17  1  0
 14 13  2  0
 14 15  1  0
 15 16  1  0
 16 18  1  0
 17 16  2  0
  2 19  1  0
  3 20  1  0
  4 21  1  0
  5 22  1  0
  7 23  1  0
  8 24  1  0
  9 25  1  0
 18 26  1  0
M  ISO  8  19  14  20  14  21  14  22  14  23  14  24  14  25  14  26   3
M  END
>  <minimizedAffinity>  (1) 
-4.72166967

>  <minimizedRMSD>  (1) 
0.443922073

$$$$
