
     RDKit          3D

 28 30  0  0  0  0  0  0  0  0999 V2000
   39.4190   25.1600   34.7020 C   0  0  0  0  0  0  0  0  0  0  0  0
   40.0200   26.4190   34.7100 C   0  0  0  0  0  0  0  0  0  0  0  0
   40.2090   27.1250   33.5300 C   0  0  0  0  0  0  0  0  0  0  0  0
   39.7670   26.5030   32.3680 C   0  0  0  0  0  0  0  0  0  0  0  0
   39.1790   25.2690   32.3570 C   0  0  0  0  0  0  0  0  0  0  0  0
   38.9910   24.5610   33.5490 C   0  0  0  0  0  0  0  0  0  0  0  0
   39.8610   22.8520   37.5330 C   0  0  0  0  0  0  0  0  0  0  0  0
   38.7880   23.2110   38.3720 C   0  0  0  0  0  0  0  0  0  0  0  0
   37.9310   24.2500   37.9360 C   0  0  0  0  0  0  0  0  0  0  0  0
   38.2100   24.8130   36.7520 N   0  0  0  0  0  0  0  0  0  0  0  0
   39.2440   24.4640   35.9490 C   0  0  0  0  0  0  0  0  0  0  0  0
   40.0450   23.4840   36.3690 N   0  0  0  0  0  0  0  0  0  0  0  0
   38.3570   23.2550   33.4470 C   0  0  0  0  0  0  0  0  0  0  0  0
   38.9880   22.1480   33.0250 N   0  0  0  0  0  0  0  0  0  0  0  0
   38.2050   21.1280   33.0270 O   0  0  0  0  0  0  0  0  0  0  0  0
   37.0380   21.5010   33.4430 C   0  0  0  0  0  0  0  0  0  0  0  0
   37.1290   22.8100   33.7020 N   0  0  0  0  0  0  0  0  0  0  0  0
   35.7910   20.7510   33.6370 C   0  0  0  0  0  0  0  0  0  0  0  0
   34.9640   20.4920   32.7230 O   0  0  0  0  0  0  0  0  0  0  0  0
   35.4010   20.2470   34.8710 O   0  0  0  0  0  0  0  0  0  0  0  0
   40.3483   26.8578   35.6638 H   0  0  0  0  0  0  0  0  0  0  0  0
   40.6809   28.1185   33.5152 H   0  0  0  0  0  0  0  0  0  0  0  0
   39.8967   27.0294   31.4109 H   0  0  0  0  0  0  0  0  0  0  0  0
   38.8511   24.8292   31.4035 H   0  0  0  0  0  0  0  0  0  0  0  0
   40.5495   22.0495   37.8362 H   0  0  0  0  0  0  0  0  0  0  0  0
   38.6217   22.7017   39.3327 H   0  0  0  0  0  0  0  0  0  0  0  0
   37.0744   24.5805   38.5418 H   0  0  0  0  0  0  0  0  0  0  0  0
   34.5508   19.7467   34.9551 H   0  0  0  0  0  0  0  0  0  0  0  0
  1  2  2  0
  1 11  1  0
  3  2  1  0
  4  3  2  0
  5  4  1  0
  5  6  2  0
  6  1  1  0
  7  8  2  0
  9  8  1  0
 10  9  2  0
 11 12  2  0
 11 10  1  0
 12  7  1  0
 13  6  1  0
 13 17  1  0
 14 15  1  0
 14 13  2  0
 15 16  1  0
 16 18  1  0
 16 17  2  0
 18 20  1  0
 19 18  2  0
  2 21  1  0
  3 22  1  0
  4 23  1  0
  5 24  1  0
  7 25  1  0
  8 26  1  0
  9 27  1  0
 20 28  1  0
M  ISO  8  21  14  22  14  23  14  24  14  25  14  26  14  27  14  28   3
M  END
>  <minimizedAffinity>  (1) 
-4.99012613

>  <minimizedRMSD>  (1) 
2.36085463

$$$$
