
     RDKit          3D

 33 36  0  0  0  0  0  0  0  0999 V2000
   42.2930   25.4340   33.5890 C   0  0  0  0  0  0  0  0  0  0  0  0
   43.0510   26.5940   33.4500 C   0  0  0  0  0  0  0  0  0  0  0  0
   42.5970   27.6540   32.6730 C   0  0  0  0  0  0  0  0  0  0  0  0
   41.3610   27.4730   32.0610 C   0  0  0  0  0  0  0  0  0  0  0  0
   40.6130   26.3390   32.1920 C   0  0  0  0  0  0  0  0  0  0  0  0
   41.0840   25.2790   32.9790 C   0  0  0  0  0  0  0  0  0  0  0  0
   44.0440   22.4070   34.7280 C   0  0  0  0  0  0  0  0  0  0  0  0
   43.6920   22.3590   36.0890 C   0  0  0  0  0  0  0  0  0  0  0  0
   42.8570   23.3730   36.5830 C   0  0  0  0  0  0  0  0  0  0  0  0
   42.4550   24.3180   35.7140 N   0  0  0  0  0  0  0  0  0  0  0  0
   42.7980   24.3610   34.4000 C   0  0  0  0  0  0  0  0  0  0  0  0
   43.5880   23.3960   33.9460 N   0  0  0  0  0  0  0  0  0  0  0  0
   40.2130   24.1100   33.0580 C   0  0  0  0  0  0  0  0  0  0  0  0
   40.3110   23.0370   32.2760 N   0  0  0  0  0  0  0  0  0  0  0  0
   39.4220   22.1470   32.5490 O   0  0  0  0  0  0  0  0  0  0  0  0
   38.6860   22.5830   33.5280 C   0  0  0  0  0  0  0  0  0  0  0  0
   39.1680   23.7900   33.8450 N   0  0  0  0  0  0  0  0  0  0  0  0
   37.5570   21.9050   34.1660 C   0  0  0  0  0  0  0  0  0  0  0  0
   36.6060   21.1730   33.5170 C   0  0  0  0  0  0  0  0  0  0  0  0
   35.5630   20.5560   34.1790 C   0  0  0  0  0  0  0  0  0  0  0  0
   35.5120   20.7030   35.5260 N   0  0  0  0  0  0  0  0  0  0  0  0
   36.4300   21.4160   36.2020 C   0  0  0  0  0  0  0  0  0  0  0  0
   37.4320   22.0020   35.5220 N   0  0  0  0  0  0  0  0  0  0  0  0
   44.0216   26.6727   33.9616 H   0  0  0  0  0  0  0  0  0  0  0  0
   43.1795   28.5789   32.5498 H   0  0  0  0  0  0  0  0  0  0  0  0
   40.9650   28.2882   31.4376 H   0  0  0  0  0  0  0  0  0  0  0  0
   39.6424   26.2570   31.6810 H   0  0  0  0  0  0  0  0  0  0  0  0
   44.6963   21.6297   34.3034 H   0  0  0  0  0  0  0  0  0  0  0  0
   44.0586   21.5545   36.7435 H   0  0  0  0  0  0  0  0  0  0  0  0
   42.5441   23.3942   37.6373 H   0  0  0  0  0  0  0  0  0  0  0  0
   36.6727   21.0703   32.4238 H   0  0  0  0  0  0  0  0  0  0  0  0
   34.8060   19.9704   33.6369 H   0  0  0  0  0  0  0  0  0  0  0  0
   36.3627   21.5186   37.2951 H   0  0  0  0  0  0  0  0  0  0  0  0
  1 11  1  0
  2  1  2  0
  3  2  1  0
  4  5  1  0
  4  3  2  0
  5  6  2  0
  6 13  1  0
  6  1  1  0
  7  8  2  0
  8  9  1  0
 10  9  2  0
 11 10  1  0
 12 11  2  0
 12  7  1  0
 13 17  1  0
 14 15  1  0
 14 13  2  0
 15 16  1  0
 16 17  2  0
 16 18  1  0
 18 23  1  0
 19 18  2  0
 19 20  1  0
 20 21  2  0
 21 22  1  0
 23 22  2  0
  2 24  1  0
  3 25  1  0
  4 26  1  0
  5 27  1  0
  7 28  1  0
  8 29  1  0
  9 30  1  0
 19 31  1  0
 20 32  1  0
 22 33  1  0
M  ISO  8  24  14  25  14  26  14  27  14  28  14  29  14  30  14  31  14
M  ISO  2  32  14  33  14
M  END
>  <minimizedAffinity>  (1) 
-3.77638221

>  <minimizedRMSD>  (1) 
4.35861492

$$$$
