
     RDKit          3D

 31 34  0  0  0  0  0  0  0  0999 V2000
   39.6070   25.2080   34.8000 C   0  0  0  0  0  0  0  0  0  0  0  0
   40.1070   26.5090   34.9070 C   0  0  0  0  0  0  0  0  0  0  0  0
   40.4160   27.2580   33.7790 C   0  0  0  0  0  0  0  0  0  0  0  0
   40.1930   26.6340   32.5770 C   0  0  0  0  0  0  0  0  0  0  0  0
   39.7010   25.3510   32.4510 C   0  0  0  0  0  0  0  0  0  0  0  0
   39.3960   24.6100   33.5970 C   0  0  0  0  0  0  0  0  0  0  0  0
   38.8820   23.2640   33.3800 C   0  0  0  0  0  0  0  0  0  0  0  0
   39.6380   22.1650   33.3710 N   0  0  0  0  0  0  0  0  0  0  0  0
   38.9280   21.1030   33.1570 O   0  0  0  0  0  0  0  0  0  0  0  0
   37.6950   21.4430   33.0180 C   0  0  0  0  0  0  0  0  0  0  0  0
   37.6520   22.7770   33.1530 N   0  0  0  0  0  0  0  0  0  0  0  0
   36.6220   20.5430   32.7690 N   0  0  0  0  0  0  0  0  0  0  0  0
   35.6190   19.9350   33.4280 C   0  0  0  0  0  0  0  0  0  0  0  0
   34.9210   19.1690   32.5670 N   0  0  0  0  0  0  0  0  0  0  0  0
   35.4930   19.3010   31.3610 C   0  0  0  0  0  0  0  0  0  0  0  0
   36.5290   20.1460   31.5090 N   0  0  0  0  0  0  0  0  0  0  0  0
   39.7830   22.8500   37.6250 C   0  0  0  0  0  0  0  0  0  0  0  0
   38.6010   23.1400   38.3270 C   0  0  0  0  0  0  0  0  0  0  0  0
   37.7530   24.1590   37.8040 C   0  0  0  0  0  0  0  0  0  0  0  0
   38.1590   24.7610   36.6770 N   0  0  0  0  0  0  0  0  0  0  0  0
   39.3040   24.4730   36.0050 C   0  0  0  0  0  0  0  0  0  0  0  0
   40.0830   23.5210   36.5040 N   0  0  0  0  0  0  0  0  0  0  0  0
   40.2587   26.9481   35.9041 H   0  0  0  0  0  0  0  0  0  0  0  0
   40.8126   28.2819   33.8445 H   0  0  0  0  0  0  0  0  0  0  0  0
   40.4207   27.1916   31.6565 H   0  0  0  0  0  0  0  0  0  0  0  0
   39.5494   24.9130   31.4534 H   0  0  0  0  0  0  0  0  0  0  0  0
   35.4028   20.0458   34.5008 H   0  0  0  0  0  0  0  0  0  0  0  0
   35.1754   18.8115   30.4285 H   0  0  0  0  0  0  0  0  0  0  0  0
   40.4641   22.0701   37.9963 H   0  0  0  0  0  0  0  0  0  0  0  0
   38.3392   22.5992   39.2484 H   0  0  0  0  0  0  0  0  0  0  0  0
   36.8118   24.4378   38.3005 H   0  0  0  0  0  0  0  0  0  0  0  0
  1  2  2  0
  1 21  1  0
  3  2  1  0
  4  3  2  0
  5  4  1  0
  5  6  2  0
  6  1  1  0
  7  6  1  0
  8  7  2  0
  9  8  1  0
 10 11  2  0
 10  9  1  0
 11  7  1  0
 12 10  1  0
 12 13  1  0
 14 13  2  0
 15 16  2  0
 15 14  1  0
 16 12  1  0
 17 18  2  0
 19 18  1  0
 20 19  2  0
 21 22  2  0
 21 20  1  0
 22 17  1  0
  2 23  1  0
  3 24  1  0
  4 25  1  0
  5 26  1  0
 13 27  1  0
 15 28  1  0
 17 29  1  0
 18 30  1  0
 19 31  1  0
M  ISO  8  23  14  24  14  25  14  26  14  27  14  28  14  29  14  30  14
M  ISO  1  31  14
M  END
>  <minimizedAffinity>  (1) 
-5.17159605

>  <minimizedRMSD>  (1) 
3.33802319

$$$$
