
     RDKit          3D

 34 37  0  0  0  0  0  0  0  0999 V2000
   40.4340   25.2900   34.3430 C   0  0  0  0  0  0  0  0  0  0  0  0
   41.0910   26.5040   34.5220 C   0  0  0  0  0  0  0  0  0  0  0  0
   41.1890   27.4370   33.4930 C   0  0  0  0  0  0  0  0  0  0  0  0
   40.6000   27.0760   32.3130 C   0  0  0  0  0  0  0  0  0  0  0  0
   39.9440   25.8800   32.1160 C   0  0  0  0  0  0  0  0  0  0  0  0
   39.8520   24.9490   33.1560 C   0  0  0  0  0  0  0  0  0  0  0  0
   39.1450   23.7140   32.8660 C   0  0  0  0  0  0  0  0  0  0  0  0
   39.6940   22.6600   32.2420 N   0  0  0  0  0  0  0  0  0  0  0  0
   38.8420   21.7000   32.1140 O   0  0  0  0  0  0  0  0  0  0  0  0
   37.7170   22.0560   32.6300 C   0  0  0  0  0  0  0  0  0  0  0  0
   37.8860   23.3020   33.1010 N   0  0  0  0  0  0  0  0  0  0  0  0
   36.5430   21.2480   32.6710 N   0  0  0  0  0  0  0  0  0  0  0  0
   35.8590   20.4800   33.5330 C   0  0  0  0  0  0  0  0  0  0  0  0
   34.7840   19.9690   32.9290 N   0  0  0  0  0  0  0  0  0  0  0  0
   34.7880   20.4210   31.6590 C   0  0  0  0  0  0  0  0  0  0  0  0
   35.8720   21.2010   31.5250 N   0  0  0  0  0  0  0  0  0  0  0  0
   41.1970   22.5970   36.7210 C   0  0  0  0  0  0  0  0  0  0  0  0
   40.0970   22.6350   37.5800 C   0  0  0  0  0  0  0  0  0  0  0  0
   39.0990   23.6030   37.3180 C   0  0  0  0  0  0  0  0  0  0  0  0
   39.2810   24.4140   36.2640 N   0  0  0  0  0  0  0  0  0  0  0  0
   40.3620   24.3610   35.4380 C   0  0  0  0  0  0  0  0  0  0  0  0
   41.2870   23.4450   35.7010 N   0  0  0  0  0  0  0  0  0  0  0  0
   37.9020   23.6990   38.1920 C   0  0  0  0  0  0  0  0  0  0  0  0
   36.8170   23.9210   37.3580 F   0  0  0  0  0  0  0  0  0  0  0  0
   37.7270   22.6190   39.0070 F   0  0  0  0  0  0  0  0  0  0  0  0
   38.0200   24.8150   39.0010 F   0  0  0  0  0  0  0  0  0  0  0  0
   41.5431   26.7315   35.4986 H   0  0  0  0  0  0  0  0  0  0  0  0
   41.7055   28.3997   33.6208 H   0  0  0  0  0  0  0  0  0  0  0  0
   40.6529   27.7819   31.4711 H   0  0  0  0  0  0  0  0  0  0  0  0
   39.4916   25.6570   31.1384 H   0  0  0  0  0  0  0  0  0  0  0  0
   36.1419   20.2987   34.5804 H   0  0  0  0  0  0  0  0  0  0  0  0
   34.0445   20.1938   30.8808 H   0  0  0  0  0  0  0  0  0  0  0  0
   41.9956   21.8595   36.8895 H   0  0  0  0  0  0  0  0  0  0  0  0
   40.0097   21.9393   38.4276 H   0  0  0  0  0  0  0  0  0  0  0  0
  1  2  2  0
  1 21  1  0
  3  2  1  0
  4  3  2  0
  5  4  1  0
  5  6  2  0
  6  1  1  0
  7 11  1  0
  7  6  1  0
  8  7  2  0
  9  8  1  0
  9 10  1  0
 10 12  1  0
 10 11  2  0
 12 13  1  0
 14 13  2  0
 15 14  1  0
 16 15  2  0
 16 12  1  0
 17 18  2  0
 19 18  1  0
 19 23  1  0
 20 19  2  0
 21 22  2  0
 21 20  1  0
 22 17  1  0
 23 26  1  0
 23 25  1  0
 24 23  1  0
  2 27  1  0
  3 28  1  0
  4 29  1  0
  5 30  1  0
 13 31  1  0
 15 32  1  0
 17 33  1  0
 18 34  1  0
M  ISO  8  27  14  28  14  29  14  30  14  31  14  32  14  33  14  34  14
M  END
>  <minimizedAffinity>  (1) 
-5.80947208

>  <minimizedRMSD>  (1) 
1.21444499

$$$$
