
     RDKit          3D

 42 46  0  0  0  0  0  0  0  0999 V2000
   38.9720   23.1760   34.0100 C   0  0  0  0  0  0  0  0  0  0  0  0
   39.3390   22.5620   32.8260 C   0  0  0  0  0  0  0  0  0  0  0  0
   38.5760   23.1490   31.8220 C   0  0  0  0  0  0  0  0  0  0  0  0
   37.7920   24.0660   32.3700 N   0  0  0  0  0  0  0  0  0  0  0  0
   38.0180   24.0980   33.7100 N   0  0  0  0  0  0  0  0  0  0  0  0
   41.0960   21.9680   36.7400 C   0  0  0  0  0  0  0  0  0  0  0  0
   40.3950   22.4260   37.8830 C   0  0  0  0  0  0  0  0  0  0  0  0
   39.2300   23.1270   37.6780 C   0  0  0  0  0  0  0  0  0  0  0  0
   38.7910   23.3550   36.4050 N   0  0  0  0  0  0  0  0  0  0  0  0
   39.5040   22.8920   35.3380 C   0  0  0  0  0  0  0  0  0  0  0  0
   40.6380   22.2100   35.5110 N   0  0  0  0  0  0  0  0  0  0  0  0
   38.5470   23.5760   38.8970 C   0  0  0  0  0  0  0  0  0  0  0  0
   37.8710   24.7380   38.6590 F   0  0  0  0  0  0  0  0  0  0  0  0
   39.5150   23.8660   39.8240 F   0  0  0  0  0  0  0  0  0  0  0  0
   37.6300   22.6580   39.3620 F   0  0  0  0  0  0  0  0  0  0  0  0
   36.8440   24.9030   31.6760 C   0  0  0  0  0  0  0  0  0  0  0  0
   35.6370   24.3420   31.3380 C   0  0  0  0  0  0  0  0  0  0  0  0
   34.7390   25.1860   30.6630 C   0  0  0  0  0  0  0  0  0  0  0  0
   35.0860   26.4490   30.3900 N   0  0  0  0  0  0  0  0  0  0  0  0
   36.2660   26.9780   30.7270 C   0  0  0  0  0  0  0  0  0  0  0  0
   37.1470   26.1800   31.3790 N   0  0  0  0  0  0  0  0  0  0  0  0
   36.6060   28.3620   30.4090 C   0  0  0  0  0  0  0  0  0  0  0  0
   37.2440   28.7500   29.2530 C   0  0  0  0  0  0  0  0  0  0  0  0
   37.3690   30.1030   29.3500 N   0  0  0  0  0  0  0  0  0  0  0  0
   36.8290   30.5300   30.5230 C   0  0  0  0  0  0  0  0  0  0  0  0
   36.7260   31.8100   31.0520 C   0  0  0  0  0  0  0  0  0  0  0  0
   36.1130   31.9570   32.2960 C   0  0  0  0  0  0  0  0  0  0  0  0
   35.6090   30.8810   33.0140 C   0  0  0  0  0  0  0  0  0  0  0  0
   35.7350   29.6260   32.4460 C   0  0  0  0  0  0  0  0  0  0  0  0
   36.3360   29.4470   31.2180 C   0  0  0  0  0  0  0  0  0  0  0  0
   40.0876   21.7655   32.7026 H   0  0  0  0  0  0  0  0  0  0  0  0
   38.6166   22.8947   30.7526 H   0  0  0  0  0  0  0  0  0  0  0  0
   42.0319   21.4044   36.8682 H   0  0  0  0  0  0  0  0  0  0  0  0
   40.7694   22.2278   38.8982 H   0  0  0  0  0  0  0  0  0  0  0  0
   35.3889   23.2981   31.5803 H   0  0  0  0  0  0  0  0  0  0  0  0
   33.7514   24.8086   30.3592 H   0  0  0  0  0  0  0  0  0  0  0  0
   37.5808   28.1057   28.4276 H   0  0  0  0  0  0  0  0  0  0  0  0
   37.8061   30.7105   28.6424 H   0  0  0  0  0  0  0  0  0  0  0  0
   37.1162   32.6817   30.5062 H   0  0  0  0  0  0  0  0  0  0  0  0
   36.0253   32.9659   32.7255 H   0  0  0  0  0  0  0  0  0  0  0  0
   35.1293   31.0206   33.9940 H   0  0  0  0  0  0  0  0  0  0  0  0
   35.3466   28.7503   32.9867 H   0  0  0  0  0  0  0  0  0  0  0  0
  1 10  1  0
  2  1  1  0
  3  4  1  0
  3  2  2  0
  4  5  1  0
  5  1  2  0
  6  7  2  0
  8  7  1  0
  8 12  1  0
  9  8  2  0
 10 11  2  0
 10  9  1  0
 11  6  1  0
 12 15  1  0
 12 14  1  0
 13 12  1  0
 16  4  1  0
 17 16  2  0
 18 17  1  0
 19 18  2  0
 19 20  1  0
 20 21  2  0
 21 16  1  0
 22 20  1  0
 22 30  1  0
 23 24  1  0
 23 22  2  0
 24 25  1  0
 25 26  1  0
 25 30  2  0
 26 27  2  0
 27 28  1  0
 29 28  2  0
 30 29  1  0
  2 31  1  0
  3 32  1  0
  6 33  1  0
  7 34  1  0
 17 35  1  0
 18 36  1  0
 23 37  1  0
 24 38  1  0
 26 39  1  0
 27 40  1  0
 28 41  1  0
 29 42  1  0
M  ISO  8  31  14  32  14  33  14  34  14  35  14  36  14  37  14  38   9
M  ISO  4  39  14  40  14  41  14  42  14
M  END
>  <minimizedAffinity>  (1) 
-6.38162708

>  <minimizedRMSD>  (1) 
0.824125648

$$$$
