
     RDKit          3D

 37 40  0  0  0  0  0  0  0  0999 V2000
   38.9390   25.9050   34.8920 C   0  0  0  0  0  0  0  0  0  0  0  0
   38.8440   27.0360   35.7120 C   0  0  0  0  0  0  0  0  0  0  0  0
   37.8060   27.9580   35.5460 C   0  0  0  0  0  0  0  0  0  0  0  0
   36.9100   27.6710   34.5420 C   0  0  0  0  0  0  0  0  0  0  0  0
   36.9940   26.5580   33.7280 C   0  0  0  0  0  0  0  0  0  0  0  0
   38.0480   25.6450   33.9130 C   0  0  0  0  0  0  0  0  0  0  0  0
   38.0620   24.4980   33.0120 C   0  0  0  0  0  0  0  0  0  0  0  0
   38.6190   24.4980   31.8000 N   0  0  0  0  0  0  0  0  0  0  0  0
   38.4870   23.3470   31.2160 O   0  0  0  0  0  0  0  0  0  0  0  0
   37.8480   22.5500   32.0050 C   0  0  0  0  0  0  0  0  0  0  0  0
   37.5770   23.2430   33.1170 N   0  0  0  0  0  0  0  0  0  0  0  0
   37.5210   21.2010   31.6940 N   0  0  0  0  0  0  0  0  0  0  0  0
   37.9540   19.9560   31.9640 C   0  0  0  0  0  0  0  0  0  0  0  0
   37.1670   19.0680   31.3280 N   0  0  0  0  0  0  0  0  0  0  0  0
   36.2390   19.7580   30.6580 C   0  0  0  0  0  0  0  0  0  0  0  0
   36.4710   21.0670   30.8950 N   0  0  0  0  0  0  0  0  0  0  0  0
   42.1930   24.2000   34.6470 C   0  0  0  0  0  0  0  0  0  0  0  0
   42.0630   23.1790   35.5870 C   0  0  0  0  0  0  0  0  0  0  0  0
   40.8440   23.0920   36.2980 C   0  0  0  0  0  0  0  0  0  0  0  0
   39.8950   23.9970   36.0210 N   0  0  0  0  0  0  0  0  0  0  0  0
   40.0270   24.9900   35.1050 C   0  0  0  0  0  0  0  0  0  0  0  0
   41.1840   25.0550   34.4430 N   0  0  0  0  0  0  0  0  0  0  0  0
   40.7060   22.0150   37.2890 C   0  0  0  0  0  0  0  0  0  0  0  0
   41.9130   21.1370   37.3800 C   0  0  0  0  0  0  0  0  0  0  0  0
   39.5962   27.2014   36.4974 H   0  0  0  0  0  0  0  0  0  0  0  0
   37.7119   28.8542   36.1768 H   0  0  0  0  0  0  0  0  0  0  0  0
   36.0766   28.3699   34.3776 H   0  0  0  0  0  0  0  0  0  0  0  0
   36.2434   26.3873   32.9422 H   0  0  0  0  0  0  0  0  0  0  0  0
   38.8136   19.7040   32.6024 H   0  0  0  0  0  0  0  0  0  0  0  0
   35.4376   19.3388   30.0318 H   0  0  0  0  0  0  0  0  0  0  0  0
   43.1255   24.3030   34.0726 H   0  0  0  0  0  0  0  0  0  0  0  0
   42.8804   22.4658   35.7693 H   0  0  0  0  0  0  0  0  0  0  0  0
   40.5290   22.4687   38.2753 H   0  0  0  0  0  0  0  0  0  0  0  0
   39.8660   21.3819   36.9674 H   0  0  0  0  0  0  0  0  0  0  0  0
   42.1579   20.9588   38.4375 H   0  0  0  0  0  0  0  0  0  0  0  0
   41.7062   20.1768   36.8847 H   0  0  0  0  0  0  0  0  0  0  0  0
   42.7628   21.6295   36.8847 H   0  0  0  0  0  0  0  0  0  0  0  0
  1 21  1  0
  1  2  2  0
  3  2  1  0
  4  3  2  0
  5  6  2  0
  5  4  1  0
  6  1  1  0
  7 11  1  0
  7  6  1  0
  8  7  2  0
  9  8  1  0
  9 10  1  0
 10 11  2  0
 12 13  1  0
 12 10  1  0
 14 13  2  0
 15 16  2  0
 15 14  1  0
 16 12  1  0
 17 18  2  0
 18 19  1  0
 19 23  1  0
 20 19  2  0
 21 20  1  0
 22 17  1  0
 22 21  2  0
 23 24  1  0
  2 25  1  0
  3 26  1  0
  4 27  1  0
  5 28  1  0
 13 29  1  0
 15 30  1  0
 17 31  1  0
 18 32  1  0
 23 33  1  0
 23 34  1  0
 24 35  1  0
 24 36  1  0
 24 37  1  0
M  ISO  8  25  14  26  14  27  14  28  14  29  14  30  14  31  14  32  14
M  ISO  5  33   8  34   8  35   8  36   8  37   8
M  END
>  <minimizedAffinity>  (1) 
-5.42324495

>  <minimizedRMSD>  (1) 
3.01097751

$$$$
