
     RDKit          3D

 33 36  0  0  0  0  0  0  0  0999 V2000
   39.9210   25.0340   34.5200 C   0  0  0  0  0  0  0  0  0  0  0  0
   40.3600   26.3560   34.6220 C   0  0  0  0  0  0  0  0  0  0  0  0
   40.1830   27.2530   33.5770 C   0  0  0  0  0  0  0  0  0  0  0  0
   39.5550   26.7510   32.4560 C   0  0  0  0  0  0  0  0  0  0  0  0
   39.1190   25.4490   32.3460 C   0  0  0  0  0  0  0  0  0  0  0  0
   39.3050   24.5590   33.4070 C   0  0  0  0  0  0  0  0  0  0  0  0
   38.8130   23.1990   33.2050 C   0  0  0  0  0  0  0  0  0  0  0  0
   39.6080   22.1180   33.1490 N   0  0  0  0  0  0  0  0  0  0  0  0
   38.9190   21.0360   32.9610 O   0  0  0  0  0  0  0  0  0  0  0  0
   37.6680   21.3510   32.8860 C   0  0  0  0  0  0  0  0  0  0  0  0
   37.5970   22.6770   33.0350 N   0  0  0  0  0  0  0  0  0  0  0  0
   36.6130   20.4200   32.6830 N   0  0  0  0  0  0  0  0  0  0  0  0
   35.6680   19.7760   33.3810 C   0  0  0  0  0  0  0  0  0  0  0  0
   34.9530   18.9990   32.5590 N   0  0  0  0  0  0  0  0  0  0  0  0
   35.4460   19.1490   31.3290 C   0  0  0  0  0  0  0  0  0  0  0  0
   36.4660   20.0260   31.4230 N   0  0  0  0  0  0  0  0  0  0  0  0
   41.4480   22.6860   36.9180 C   0  0  0  0  0  0  0  0  0  0  0  0
   40.3840   22.4520   37.8040 C   0  0  0  0  0  0  0  0  0  0  0  0
   39.1530   23.1080   37.5610 C   0  0  0  0  0  0  0  0  0  0  0  0
   39.0870   23.9170   36.4910 N   0  0  0  0  0  0  0  0  0  0  0  0
   40.1280   24.1410   35.6310 C   0  0  0  0  0  0  0  0  0  0  0  0
   41.2730   23.5160   35.8770 N   0  0  0  0  0  0  0  0  0  0  0  0
   38.0050   22.9540   38.3810 N   0  0  0  0  0  0  0  0  0  0  0  0
   40.8541   26.6921   35.5455 H   0  0  0  0  0  0  0  0  0  0  0  0
   40.5220   28.2976   33.6391 H   0  0  0  0  0  0  0  0  0  0  0  0
   39.3936   27.4273   31.6036 H   0  0  0  0  0  0  0  0  0  0  0  0
   38.6248   25.1101   31.4236 H   0  0  0  0  0  0  0  0  0  0  0  0
   35.5048   19.8714   34.4646 H   0  0  0  0  0  0  0  0  0  0  0  0
   35.0894   18.6530   30.4142 H   0  0  0  0  0  0  0  0  0  0  0  0
   42.4184   22.1927   37.0757 H   0  0  0  0  0  0  0  0  0  0  0  0
   40.5037   21.7769   38.6641 H   0  0  0  0  0  0  0  0  0  0  0  0
   37.1370   23.4589   38.1519 H   0  0  0  0  0  0  0  0  0  0  0  0
   38.0398   22.3374   39.2053 H   0  0  0  0  0  0  0  0  0  0  0  0
  1  2  2  0
  1 21  1  0
  3  2  1  0
  4  3  2  0
  5  4  1  0
  5  6  2  0
  6  1  1  0
  7  6  1  0
  8  7  2  0
  9  8  1  0
 10  9  1  0
 10 11  2  0
 11  7  1  0
 12 10  1  0
 12 13  1  0
 14 13  2  0
 15 16  2  0
 15 14  1  0
 16 12  1  0
 17 18  2  0
 19 18  1  0
 19 23  1  0
 20 19  2  0
 21 22  2  0
 21 20  1  0
 22 17  1  0
  2 24  1  0
  3 25  1  0
  4 26  1  0
  5 27  1  0
 13 28  1  0
 15 29  1  0
 17 30  1  0
 18 31  1  0
 23 32  1  0
 23 33  1  0
M  ISO  8  24  14  25  14  26  14  27  14  28  14  29  14  30  14  31  14
M  END
>  <minimizedAffinity>  (1) 
-5.44257307

>  <minimizedRMSD>  (1) 
0.955439866

$$$$
