
     RDKit          3D

 33 36  0  0  0  0  0  0  0  0999 V2000
   39.0410   25.8990   34.7570 C   0  0  0  0  0  0  0  0  0  0  0  0
   38.9670   27.0210   35.5870 C   0  0  0  0  0  0  0  0  0  0  0  0
   37.8900   27.9000   35.5320 C   0  0  0  0  0  0  0  0  0  0  0  0
   36.9230   27.5800   34.6100 C   0  0  0  0  0  0  0  0  0  0  0  0
   36.9760   26.4820   33.7830 C   0  0  0  0  0  0  0  0  0  0  0  0
   38.0630   25.6150   33.8540 C   0  0  0  0  0  0  0  0  0  0  0  0
   38.0390   24.4760   32.9420 C   0  0  0  0  0  0  0  0  0  0  0  0
   38.4840   24.5250   31.6750 N   0  0  0  0  0  0  0  0  0  0  0  0
   38.3470   23.3780   31.0870 O   0  0  0  0  0  0  0  0  0  0  0  0
   37.8260   22.5440   31.9020 C   0  0  0  0  0  0  0  0  0  0  0  0
   37.6270   23.2070   33.0600 N   0  0  0  0  0  0  0  0  0  0  0  0
   37.5230   21.1800   31.6160 N   0  0  0  0  0  0  0  0  0  0  0  0
   38.0240   19.9590   31.8290 C   0  0  0  0  0  0  0  0  0  0  0  0
   37.2130   19.0450   31.2730 N   0  0  0  0  0  0  0  0  0  0  0  0
   36.1980   19.6990   30.7080 C   0  0  0  0  0  0  0  0  0  0  0  0
   36.3980   21.0170   30.9270 N   0  0  0  0  0  0  0  0  0  0  0  0
   42.3240   24.3250   34.2650 C   0  0  0  0  0  0  0  0  0  0  0  0
   42.2720   23.2390   35.1560 C   0  0  0  0  0  0  0  0  0  0  0  0
   41.0880   23.0780   35.9130 C   0  0  0  0  0  0  0  0  0  0  0  0
   40.1110   23.9730   35.7190 N   0  0  0  0  0  0  0  0  0  0  0  0
   40.1760   25.0190   34.8530 C   0  0  0  0  0  0  0  0  0  0  0  0
   41.2850   25.1710   34.1440 N   0  0  0  0  0  0  0  0  0  0  0  0
   40.9830   21.9760   36.8450 C   0  0  0  0  0  0  0  0  0  0  0  0
   40.4730   22.1520   37.9810 O   0  0  0  0  0  0  0  0  0  0  0  0
   39.7807   27.2139   36.3016 H   0  0  0  0  0  0  0  0  0  0  0  0
   37.8180   28.7864   36.1794 H   0  0  0  0  0  0  0  0  0  0  0  0
   36.0503   28.2445   34.5278 H   0  0  0  0  0  0  0  0  0  0  0  0
   36.1624   26.2897   33.0681 H   0  0  0  0  0  0  0  0  0  0  0  0
   38.9538   19.7382   32.3737 H   0  0  0  0  0  0  0  0  0  0  0  0
   35.3542   19.2490   30.1644 H   0  0  0  0  0  0  0  0  0  0  0  0
   43.2272   24.4854   33.6580 H   0  0  0  0  0  0  0  0  0  0  0  0
   43.1174   22.5429   35.2603 H   0  0  0  0  0  0  0  0  0  0  0  0
   41.3510   20.9798   36.5585 H   0  0  0  0  0  0  0  0  0  0  0  0
  1 21  1  0
  1  2  2  0
  3  2  1  0
  4  3  2  0
  5  6  2  0
  5  4  1  0
  6  1  1  0
  7 11  1  0
  7  6  1  0
  8  7  2  0
  9  8  1  0
  9 10  1  0
 10 11  2  0
 12 13  1  0
 12 10  1  0
 14 13  2  0
 15 16  2  0
 15 14  1  0
 16 12  1  0
 17 18  2  0
 18 19  1  0
 19 23  1  0
 20 19  2  0
 21 20  1  0
 22 17  1  0
 22 21  2  0
 23 24  2  0
  2 25  1  0
  3 26  1  0
  4 27  1  0
  5 28  1  0
 13 29  1  0
 15 30  1  0
 17 31  1  0
 18 32  1  0
 23 33  1  0
M  ISO  8  25  14  26  14  27  14  28  14  29  14  30  14  31  14  32  14
M  ISO  1  33   6
M  END
>  <minimizedAffinity>  (1) 
-5.1161561

>  <minimizedRMSD>  (1) 
3.05858827

$$$$
