
     RDKit          3D

 40 44  0  0  0  0  0  0  0  0999 V2000
   38.8080   25.7620   35.0940 C   0  0  0  0  0  0  0  0  0  0  0  0
   38.6760   26.9090   35.8680 C   0  0  0  0  0  0  0  0  0  0  0  0
   37.7320   27.8820   35.5660 C   0  0  0  0  0  0  0  0  0  0  0  0
   36.9470   27.6280   34.4550 C   0  0  0  0  0  0  0  0  0  0  0  0
   37.0640   26.4990   33.6800 C   0  0  0  0  0  0  0  0  0  0  0  0
   38.0270   25.5320   34.0080 C   0  0  0  0  0  0  0  0  0  0  0  0
   38.0820   24.3640   33.1280 C   0  0  0  0  0  0  0  0  0  0  0  0
   38.8070   24.3260   31.9860 N   0  0  0  0  0  0  0  0  0  0  0  0
   38.6850   23.1780   31.3930 O   0  0  0  0  0  0  0  0  0  0  0  0
   37.8950   22.4340   32.1010 C   0  0  0  0  0  0  0  0  0  0  0  0
   37.5260   23.1560   33.1590 N   0  0  0  0  0  0  0  0  0  0  0  0
   37.5300   21.1030   31.7540 N   0  0  0  0  0  0  0  0  0  0  0  0
   37.8420   19.8450   32.0810 C   0  0  0  0  0  0  0  0  0  0  0  0
   37.1020   19.0070   31.3560 N   0  0  0  0  0  0  0  0  0  0  0  0
   36.3120   19.7360   30.5570 C   0  0  0  0  0  0  0  0  0  0  0  0
   36.5880   21.0340   30.8150 N   0  0  0  0  0  0  0  0  0  0  0  0
   41.9210   23.7910   35.2290 C   0  0  0  0  0  0  0  0  0  0  0  0
   41.6040   22.8450   36.2230 C   0  0  0  0  0  0  0  0  0  0  0  0
   40.3350   22.8960   36.8280 C   0  0  0  0  0  0  0  0  0  0  0  0
   39.4940   23.8640   36.4090 N   0  0  0  0  0  0  0  0  0  0  0  0
   39.7970   24.7850   35.4450 C   0  0  0  0  0  0  0  0  0  0  0  0
   41.0020   24.7100   34.8950 N   0  0  0  0  0  0  0  0  0  0  0  0
   39.9190   21.9990   37.8290 N   0  0  0  0  0  0  0  0  0  0  0  0
   42.4930   21.7610   36.7180 C   0  0  0  0  0  0  0  0  0  0  0  0
   42.7330   20.5710   35.7340 C   0  0  0  0  0  0  0  0  0  0  0  0
   43.8290   21.5480   36.0770 C   0  0  0  0  0  0  0  0  0  0  0  0
   39.3335   27.0491   36.7387 H   0  0  0  0  0  0  0  0  0  0  0  0
   37.6160   28.7941   36.1699 H   0  0  0  0  0  0  0  0  0  0  0  0
   36.1862   28.3720   34.1763 H   0  0  0  0  0  0  0  0  0  0  0  0
   36.4078   26.3543   32.8091 H   0  0  0  0  0  0  0  0  0  0  0  0
   38.5911   19.5485   32.8300 H   0  0  0  0  0  0  0  0  0  0  0  0
   35.5799   19.3526   29.8310 H   0  0  0  0  0  0  0  0  0  0  0  0
   42.9040   23.7768   34.7354 H   0  0  0  0  0  0  0  0  0  0  0  0
   38.9771   22.0835   38.2371 H   0  0  0  0  0  0  0  0  0  0  0  0
   40.5564   21.2579   38.1537 H   0  0  0  0  0  0  0  0  0  0  0  0
   42.1581   21.8916   37.7576 H   0  0  0  0  0  0  0  0  0  0  0  0
   42.2767   20.5784   34.7331 H   0  0  0  0  0  0  0  0  0  0  0  0
   42.6107   19.4786   35.7747 H   0  0  0  0  0  0  0  0  0  0  0  0
   44.6788   21.2161   36.6916 H   0  0  0  0  0  0  0  0  0  0  0  0
   44.4968   22.1847   35.4781 H   0  0  0  0  0  0  0  0  0  0  0  0
  1 21  1  0
  1  2  2  0
  3  2  1  0
  4  3  2  0
  5  6  2  0
  5  4  1  0
  6  1  1  0
  7 11  1  0
  7  6  1  0
  8  7  2  0
  9  8  1  0
  9 10  1  0
 10 11  2  0
 12 13  1  0
 12 10  1  0
 14 13  2  0
 15 16  2  0
 15 14  1  0
 16 12  1  0
 17 18  2  0
 18 24  1  0
 18 19  1  0
 19 23  1  0
 20 19  2  0
 21 20  1  0
 22 17  1  0
 22 21  2  0
 25 26  1  0
 25 24  1  0
 26 24  1  0
  2 27  1  0
  3 28  1  0
  4 29  1  0
  5 30  1  0
 13 31  1  0
 15 32  1  0
 17 33  1  0
 23 34  1  0
 23 35  1  0
 24 36  1  0
 25 37  1  0
 25 38  1  0
 26 39  1  0
 26 40  1  0
M  ISO  8  27  14  28  14  29  14  30  14  31  14  32  14  33  14  36  13
M  ISO  4  37  13  38  13  39  13  40  13
M  END
>  <minimizedAffinity>  (1) 
-5.98816204

>  <minimizedRMSD>  (1) 
2.46008992

$$$$
