
     RDKit          3D

 39 42  0  0  0  0  0  0  0  0999 V2000
   38.8270   25.6930   35.0830 C   0  0  0  0  0  0  0  0  0  0  0  0
   38.7130   26.8420   35.8640 C   0  0  0  0  0  0  0  0  0  0  0  0
   37.7810   27.8250   35.5680 C   0  0  0  0  0  0  0  0  0  0  0  0
   36.9850   27.5860   34.4590 C   0  0  0  0  0  0  0  0  0  0  0  0
   37.0880   26.4530   33.6790 C   0  0  0  0  0  0  0  0  0  0  0  0
   38.0410   25.4690   34.0010 C   0  0  0  0  0  0  0  0  0  0  0  0
   38.0750   24.3080   33.1220 C   0  0  0  0  0  0  0  0  0  0  0  0
   38.7690   24.2780   31.9630 N   0  0  0  0  0  0  0  0  0  0  0  0
   38.6340   23.1260   31.3700 O   0  0  0  0  0  0  0  0  0  0  0  0
   37.8630   22.3750   32.1000 C   0  0  0  0  0  0  0  0  0  0  0  0
   37.5190   23.1010   33.1770 N   0  0  0  0  0  0  0  0  0  0  0  0
   37.4970   21.0450   31.7590 N   0  0  0  0  0  0  0  0  0  0  0  0
   37.8230   19.7930   32.0680 C   0  0  0  0  0  0  0  0  0  0  0  0
   37.0730   18.9430   31.3690 N   0  0  0  0  0  0  0  0  0  0  0  0
   36.2460   19.6680   30.5940 C   0  0  0  0  0  0  0  0  0  0  0  0
   36.5270   20.9690   30.8520 N   0  0  0  0  0  0  0  0  0  0  0  0
   41.8960   23.6610   35.1730 C   0  0  0  0  0  0  0  0  0  0  0  0
   41.6070   22.7450   36.2010 C   0  0  0  0  0  0  0  0  0  0  0  0
   40.3520   22.8520   36.8430 C   0  0  0  0  0  0  0  0  0  0  0  0
   39.5120   23.8180   36.4360 N   0  0  0  0  0  0  0  0  0  0  0  0
   39.8070   24.7080   35.4280 C   0  0  0  0  0  0  0  0  0  0  0  0
   40.9900   24.6030   34.8290 N   0  0  0  0  0  0  0  0  0  0  0  0
   39.9430   21.9880   37.8950 N   0  0  0  0  0  0  0  0  0  0  0  0
   42.4930   21.6730   36.6870 C   0  0  0  0  0  0  0  0  0  0  0  0
   43.8480   21.6710   36.0270 C   0  0  0  0  0  0  0  0  0  0  0  0
   39.3756   26.9714   36.7324 H   0  0  0  0  0  0  0  0  0  0  0  0
   37.6798   28.7368   36.1750 H   0  0  0  0  0  0  0  0  0  0  0  0
   36.2314   28.3395   34.1864 H   0  0  0  0  0  0  0  0  0  0  0  0
   36.4281   26.3193   32.8091 H   0  0  0  0  0  0  0  0  0  0  0  0
   38.5973   19.5027   32.7934 H   0  0  0  0  0  0  0  0  0  0  0  0
   35.4925   19.2823   29.8915 H   0  0  0  0  0  0  0  0  0  0  0  0
   42.8614   23.6104   34.6481 H   0  0  0  0  0  0  0  0  0  0  0  0
   39.0171   22.1084   38.3298 H   0  0  0  0  0  0  0  0  0  0  0  0
   40.5726   21.2415   38.2225 H   0  0  0  0  0  0  0  0  0  0  0  0
   42.6331   21.8009   37.7705 H   0  0  0  0  0  0  0  0  0  0  0  0
   42.0102   20.7159   36.4402 H   0  0  0  0  0  0  0  0  0  0  0  0
   44.6318   21.6698   36.7988 H   0  0  0  0  0  0  0  0  0  0  0  0
   43.9492   20.7727   35.4003 H   0  0  0  0  0  0  0  0  0  0  0  0
   43.9519   22.5690   35.4003 H   0  0  0  0  0  0  0  0  0  0  0  0
  1 21  1  0
  1  2  2  0
  3  2  1  0
  4  3  2  0
  5  6  2  0
  5  4  1  0
  6  1  1  0
  7 11  1  0
  7  6  1  0
  8  7  2  0
  9  8  1  0
  9 10  1  0
 10 11  2  0
 12 13  1  0
 12 10  1  0
 14 13  2  0
 15 16  2  0
 15 14  1  0
 16 12  1  0
 17 18  2  0
 18 24  1  0
 18 19  1  0
 19 23  1  0
 20 19  2  0
 21 20  1  0
 22 17  1  0
 22 21  2  0
 25 24  1  0
  2 26  1  0
  3 27  1  0
  4 28  1  0
  5 29  1  0
 13 30  1  0
 15 31  1  0
 17 32  1  0
 23 33  1  0
 23 34  1  0
 24 35  1  0
 24 36  1  0
 25 37  1  0
 25 38  1  0
 25 39  1  0
M  ISO  8  26  14  27  14  28  14  29  14  30  14  31  14  32  14  35   8
M  ISO  4  36   8  37   8  38   8  39   8
M  END
>  <minimizedAffinity>  (1) 
-5.88024855

>  <minimizedRMSD>  (1) 
2.1511786

$$$$
