
     RDKit          3D

 35 38  0  0  0  0  0  0  0  0999 V2000
   37.8340   24.8800   33.7850 C   0  0  0  0  0  0  0  0  0  0  0  0
   37.2120   24.3960   32.6610 C   0  0  0  0  0  0  0  0  0  0  0  0
   36.7340   25.4980   31.9370 C   0  0  0  0  0  0  0  0  0  0  0  0
   37.0710   26.5920   32.6240 N   0  0  0  0  0  0  0  0  0  0  0  0
   37.7350   26.2260   33.7400 N   0  0  0  0  0  0  0  0  0  0  0  0
   36.7780   27.9460   32.2420 C   0  0  0  0  0  0  0  0  0  0  0  0
   36.1220   28.7400   33.1450 C   0  0  0  0  0  0  0  0  0  0  0  0
   35.8400   30.0510   32.7720 C   0  0  0  0  0  0  0  0  0  0  0  0
   36.2150   30.4780   31.5610 N   0  0  0  0  0  0  0  0  0  0  0  0
   36.8550   29.7050   30.6770 C   0  0  0  0  0  0  0  0  0  0  0  0
   37.1310   28.4230   31.0420 N   0  0  0  0  0  0  0  0  0  0  0  0
   37.2530   30.1700   29.3830 N   0  0  0  0  0  0  0  0  0  0  0  0
   36.7650   31.4050   29.0890 C   0  0  0  0  0  0  0  0  0  0  0  0
   37.2280   31.7270   27.8120 C   0  0  0  0  0  0  0  0  0  0  0  0
   37.9700   30.6920   27.3810 N   0  0  0  0  0  0  0  0  0  0  0  0
   37.9840   29.7480   28.3350 C   0  0  0  0  0  0  0  0  0  0  0  0
   40.0130   22.5030   35.5140 C   0  0  0  0  0  0  0  0  0  0  0  0
   39.6220   22.6750   36.8650 C   0  0  0  0  0  0  0  0  0  0  0  0
   38.6310   23.5930   37.1330 C   0  0  0  0  0  0  0  0  0  0  0  0
   38.0750   24.2910   36.1070 N   0  0  0  0  0  0  0  0  0  0  0  0
   38.4800   24.0950   34.8290 C   0  0  0  0  0  0  0  0  0  0  0  0
   39.4450   23.2040   34.5400 N   0  0  0  0  0  0  0  0  0  0  0  0
   38.2610   23.7340   38.5530 C   0  0  0  0  0  0  0  0  0  0  0  0
   37.8030   25.0050   38.7940 F   0  0  0  0  0  0  0  0  0  0  0  0
   39.4230   23.6060   39.2880 F   0  0  0  0  0  0  0  0  0  0  0  0
   37.2820   22.8430   38.9280 F   0  0  0  0  0  0  0  0  0  0  0  0
   37.1076   23.3377   32.3797 H   0  0  0  0  0  0  0  0  0  0  0  0
   36.1855   25.4668   30.9840 H   0  0  0  0  0  0  0  0  0  0  0  0
   35.8278   28.3543   34.1323 H   0  0  0  0  0  0  0  0  0  0  0  0
   35.3158   30.7269   33.4637 H   0  0  0  0  0  0  0  0  0  0  0  0
   36.1284   32.0295   29.7331 H   0  0  0  0  0  0  0  0  0  0  0  0
   37.0234   32.6563   27.2601 H   0  0  0  0  0  0  0  0  0  0  0  0
   38.5091   28.7836   28.2705 H   0  0  0  0  0  0  0  0  0  0  0  0
   40.8009   21.7760   35.2679 H   0  0  0  0  0  0  0  0  0  0  0  0
   40.0938   22.0952   37.6720 H   0  0  0  0  0  0  0  0  0  0  0  0
  1 21  1  0
  2  1  1  0
  3  4  1  0
  3  2  2  0
  4  5  1  0
  5  1  2  0
  6  4  1  0
  6  7  2  0
  8  7  1  0
  9  8  2  0
 10 11  2  0
 10  9  1  0
 11  6  1  0
 12 10  1  0
 13 12  1  0
 14 13  2  0
 15 14  1  0
 15 16  2  0
 16 12  1  0
 17 18  2  0
 18 19  1  0
 19 23  1  0
 20 19  2  0
 21 20  1  0
 22 21  2  0
 22 17  1  0
 23 24  1  0
 23 26  1  0
 23 25  1  0
  2 27  1  0
  3 28  1  0
  7 29  1  0
  8 30  1  0
 13 31  1  0
 14 32  1  0
 16 33  1  0
 17 34  1  0
 18 35  1  0
M  ISO  8  27  14  28  14  29  14  30  14  31  14  32  14  33  14  34  14
M  ISO  1  35  14
M  END
>  <minimizedAffinity>  (1) 
-6.26530218

>  <minimizedRMSD>  (1) 
2.62020874

$$$$
