
     RDKit          3D

 21 22  0  0  0  0  0  0  0  0999 V2000
   37.5460   22.2910   35.6820 C   0  0  0  0  0  0  0  0  0  0  0  0
   36.5210   21.8000   36.5200 C   0  0  0  0  0  0  0  0  0  0  0  0
   35.6060   20.9110   35.9820 C   0  0  0  0  0  0  0  0  0  0  0  0
   35.7450   20.5580   34.6700 N   0  0  0  0  0  0  0  0  0  0  0  0
   36.7350   21.0470   33.8970 C   0  0  0  0  0  0  0  0  0  0  0  0
   37.6280   21.9040   34.3960 N   0  0  0  0  0  0  0  0  0  0  0  0
   36.7580   20.5900   32.5460 N   0  0  0  0  0  0  0  0  0  0  0  0
   37.7030   20.9990   31.6900 C   0  0  0  0  0  0  0  0  0  0  0  0
   37.6380   20.5000   30.4010 C   0  0  0  0  0  0  0  0  0  0  0  0
   36.6170   19.6210   30.0750 C   0  0  0  0  0  0  0  0  0  0  0  0
   36.5070   19.1320   28.9130 O   0  0  0  0  0  0  0  0  0  0  0  0
   35.6780   19.2240   30.9550 N   0  0  0  0  0  0  0  0  0  0  0  0
   35.7620   19.7280   32.2140 C   0  0  0  0  0  0  0  0  0  0  0  0
   34.8900   19.3700   33.0590 O   0  0  0  0  0  0  0  0  0  0  0  0
   38.8060   23.4430   36.2150 S   0  0  0  0  0  0  0  0  0  0  0  0
   36.4514   22.1152   37.5716 H   0  0  0  0  0  0  0  0  0  0  0  0
   34.7897   20.5004   36.5944 H   0  0  0  0  0  0  0  0  0  0  0  0
   38.4940   21.6990   31.9971 H   0  0  0  0  0  0  0  0  0  0  0  0
   38.3835   20.7957   29.6482 H   0  0  0  0  0  0  0  0  0  0  0  0
   34.9305   18.5684   30.6860 H   0  0  0  0  0  0  0  0  0  0  0  0
   38.8436   23.4774   37.5841 H   0  0  0  0  0  0  0  0  0  0  0  0
  1 15  1  0
  1  2  2  0
  3  2  1  0
  4  3  2  0
  5  6  2  0
  5  4  1  0
  6  1  1  0
  7  5  1  0
  8  7  1  0
  9  8  2  0
 10  9  1  0
 10 12  1  0
 11 10  2  0
 12 13  1  0
 13  7  1  0
 13 14  2  0
  2 16  1  0
  3 17  1  0
  8 18  1  0
  9 19  1  0
 12 20  1  0
 15 21  1  0
M  ISO  6  16  14  17  14  18  14  19  14  20   9  21  11
M  END
>  <minimizedAffinity>  (1) 
-3.94389606

>  <minimizedRMSD>  (1) 
2.31418633

$$$$
