
     RDKit          3D

 45 48  0  0  0  0  0  0  0  0999 V2000
   38.9000   25.9240   34.7280 C   0  0  0  0  0  0  0  0  0  0  0  0
   38.8970   27.0210   35.6010 C   0  0  0  0  0  0  0  0  0  0  0  0
   37.8780   27.9490   35.5810 C   0  0  0  0  0  0  0  0  0  0  0  0
   36.8770   27.7290   34.6570 C   0  0  0  0  0  0  0  0  0  0  0  0
   36.8700   26.6550   33.7940 C   0  0  0  0  0  0  0  0  0  0  0  0
   37.9120   25.7210   33.8280 C   0  0  0  0  0  0  0  0  0  0  0  0
   37.8170   24.6140   32.8720 C   0  0  0  0  0  0  0  0  0  0  0  0
   38.0100   24.7610   31.5480 N   0  0  0  0  0  0  0  0  0  0  0  0
   37.8660   23.6240   30.9300 O   0  0  0  0  0  0  0  0  0  0  0  0
   37.5800   22.7140   31.8100 C   0  0  0  0  0  0  0  0  0  0  0  0
   37.5500   23.3190   32.9950 N   0  0  0  0  0  0  0  0  0  0  0  0
   37.3550   21.3440   31.4880 N   0  0  0  0  0  0  0  0  0  0  0  0
   37.9940   20.1730   31.5250 C   0  0  0  0  0  0  0  0  0  0  0  0
   37.2030   19.2070   31.0600 N   0  0  0  0  0  0  0  0  0  0  0  0
   36.0380   19.7710   30.7210 C   0  0  0  0  0  0  0  0  0  0  0  0
   36.1450   21.0950   30.9910 N   0  0  0  0  0  0  0  0  0  0  0  0
   42.0930   24.1920   34.1230 C   0  0  0  0  0  0  0  0  0  0  0  0
   41.9890   23.0910   35.0040 C   0  0  0  0  0  0  0  0  0  0  0  0
   40.8240   22.9770   35.7810 C   0  0  0  0  0  0  0  0  0  0  0  0
   39.8770   23.9140   35.6450 N   0  0  0  0  0  0  0  0  0  0  0  0
   39.9810   24.9850   34.7860 C   0  0  0  0  0  0  0  0  0  0  0  0
   41.0940   25.0800   34.0550 N   0  0  0  0  0  0  0  0  0  0  0  0
   40.6160   21.9200   36.6910 N   0  0  0  0  0  0  0  0  0  0  0  0
   43.0520   22.0590   35.1420 C   0  0  0  0  0  0  0  0  0  0  0  0
   43.6480   22.0100   36.5340 C   0  0  0  0  0  0  0  0  0  0  0  0
   42.5990   20.6830   34.7120 C   0  0  0  0  0  0  0  0  0  0  0  0
   44.1870   22.4550   34.2050 C   0  0  0  0  0  0  0  0  0  0  0  0
   39.7240   27.1435   36.3159 H   0  0  0  0  0  0  0  0  0  0  0  0
   37.8636   28.8134   36.2611 H   0  0  0  0  0  0  0  0  0  0  0  0
   36.0442   28.4459   34.6070 H   0  0  0  0  0  0  0  0  0  0  0  0
   36.0446   26.5314   33.0775 H   0  0  0  0  0  0  0  0  0  0  0  0
   39.0226   20.0268   31.8863 H   0  0  0  0  0  0  0  0  0  0  0  0
   35.1598   19.2575   30.3025 H   0  0  0  0  0  0  0  0  0  0  0  0
   42.9891   24.3179   33.4976 H   0  0  0  0  0  0  0  0  0  0  0  0
   39.7457   21.8770   37.2401 H   0  0  0  0  0  0  0  0  0  0  0  0
   41.3344   21.1910   36.8065 H   0  0  0  0  0  0  0  0  0  0  0  0
   42.8426   22.0762   37.2803 H   0  0  0  0  0  0  0  0  0  0  0  0
   44.1935   21.0640   36.6662 H   0  0  0  0  0  0  0  0  0  0  0  0
   44.3407   22.8542   36.6662 H   0  0  0  0  0  0  0  0  0  0  0  0
   42.3968   20.0688   35.6019 H   0  0  0  0  0  0  0  0  0  0  0  0
   41.6821   20.7701   34.1106 H   0  0  0  0  0  0  0  0  0  0  0  0
   43.3883   20.2084   34.1106 H   0  0  0  0  0  0  0  0  0  0  0  0
   45.0620   22.7603   34.7975 H   0  0  0  0  0  0  0  0  0  0  0  0
   44.4549   21.5972   33.5706 H   0  0  0  0  0  0  0  0  0  0  0  0
   43.8632   23.2933   33.5706 H   0  0  0  0  0  0  0  0  0  0  0  0
  1 21  1  0
  1  2  2  0
  3  2  1  0
  4  3  2  0
  5  6  2  0
  5  4  1  0
  6  1  1  0
  7 11  1  0
  7  6  1  0
  8  7  2  0
  9  8  1  0
  9 10  1  0
 10 11  2  0
 12 13  1  0
 12 10  1  0
 14 13  2  0
 15 16  2  0
 15 14  1  0
 16 12  1  0
 17 18  2  0
 18 24  1  0
 18 19  1  0
 19 23  1  0
 20 19  2  0
 21 20  1  0
 22 17  1  0
 22 21  2  0
 24 25  1  0
 26 24  1  0
 27 24  1  0
  2 28  1  0
  3 29  1  0
  4 30  1  0
  5 31  1  0
 13 32  1  0
 15 33  1  0
 17 34  1  0
 23 35  1  0
 23 36  1  0
 25 37  1  0
 25 38  1  0
 25 39  1  0
 26 40  1  0
 26 41  1  0
 26 42  1  0
 27 43  1  0
 27 44  1  0
 27 45  1  0
M  ISO  8  28  14  29  14  30  14  31  14  32  14  33  14  34  14  37   8
M  ISO  8  38   8  39   8  40   8  41   8  42   8  43   8  44   8  45   8
M  END
>  <minimizedAffinity>  (1) 
-5.17753267

>  <minimizedRMSD>  (1) 
3.03148413

$$$$
