
     RDKit          3D

 22 23  0  0  0  0  0  0  0  0999 V2000
   37.6130   22.3010   35.7400 C   0  0  0  0  0  0  0  0  0  0  0  0
   36.5750   21.8660   36.5930 C   0  0  0  0  0  0  0  0  0  0  0  0
   35.6270   21.0060   36.0580 C   0  0  0  0  0  0  0  0  0  0  0  0
   35.7420   20.6280   34.7540 N   0  0  0  0  0  0  0  0  0  0  0  0
   36.7650   21.0760   33.9690 C   0  0  0  0  0  0  0  0  0  0  0  0
   37.6840   21.9020   34.4660 N   0  0  0  0  0  0  0  0  0  0  0  0
   36.7410   20.5860   32.6310 N   0  0  0  0  0  0  0  0  0  0  0  0
   37.8690   19.9800   32.2340 C   0  0  0  0  0  0  0  0  0  0  0  0
   37.9170   19.4810   30.9490 C   0  0  0  0  0  0  0  0  0  0  0  0
   36.7790   19.6600   30.1890 C   0  0  0  0  0  0  0  0  0  0  0  0
   36.7090   19.1880   28.8480 N   0  0  0  0  0  0  0  0  0  0  0  0
   35.6550   20.2750   30.6140 N   0  0  0  0  0  0  0  0  0  0  0  0
   35.6390   20.7590   31.8900 C   0  0  0  0  0  0  0  0  0  0  0  0
   34.6160   21.3390   32.3310 O   0  0  0  0  0  0  0  0  0  0  0  0
   38.9170   23.4110   36.2700 S   0  0  0  0  0  0  0  0  0  0  0  0
   36.5203   22.1962   37.6408 H   0  0  0  0  0  0  0  0  0  0  0  0
   34.7962   20.6354   36.6763 H   0  0  0  0  0  0  0  0  0  0  0  0
   38.7297   19.8837   32.9121 H   0  0  0  0  0  0  0  0  0  0  0  0
   38.8082   18.9713   30.5540 H   0  0  0  0  0  0  0  0  0  0  0  0
   37.5162   18.7041   28.4296 H   0  0  0  0  0  0  0  0  0  0  0  0
   35.8511   19.3304   28.2960 H   0  0  0  0  0  0  0  0  0  0  0  0
   38.9584   23.4462   37.6389 H   0  0  0  0  0  0  0  0  0  0  0  0
  1 15  1  0
  1  2  2  0
  3  2  1  0
  4  3  2  0
  5  6  2  0
  5  4  1  0
  6  1  1  0
  7  5  1  0
  8  7  1  0
  9  8  2  0
 10 12  2  0
 10  9  1  0
 11 10  1  0
 12 13  1  0
 13 14  2  0
 13  7  1  0
  2 16  1  0
  3 17  1  0
  8 18  1  0
  9 19  1  0
 11 20  1  0
 11 21  1  0
 15 22  1  0
M  ISO  5  16  14  17  14  18  14  19  14  22  11
M  END
>  <minimizedAffinity>  (1) 
-3.56138563

>  <minimizedRMSD>  (1) 
2.32311344

$$$$
