
     RDKit          3D

 22 24  0  0  0  0  0  0  0  0999 V2000
   37.0790   21.5080   34.5510 C   0  0  0  0  0  0  0  0  0  0  0  0
   35.8420   20.8110   34.6600 C   0  0  0  0  0  0  0  0  0  0  0  0
   35.4370   20.0670   33.5600 C   0  0  0  0  0  0  0  0  0  0  0  0
   36.2270   20.0370   32.4450 N   0  0  0  0  0  0  0  0  0  0  0  0
   37.3910   20.7150   32.3910 C   0  0  0  0  0  0  0  0  0  0  0  0
   37.8200   21.4470   33.4300 N   0  0  0  0  0  0  0  0  0  0  0  0
   38.0900   20.5770   31.1600 N   0  0  0  0  0  0  0  0  0  0  0  0
   39.3340   21.1310   31.0690 C   0  0  0  0  0  0  0  0  0  0  0  0
   39.8020   20.8740   29.8120 N   0  0  0  0  0  0  0  0  0  0  0  0
   38.8710   20.1720   29.1270 C   0  0  0  0  0  0  0  0  0  0  0  0
   38.7050   19.6150   27.8690 C   0  0  0  0  0  0  0  0  0  0  0  0
   37.5850   18.9530   27.5290 N   0  0  0  0  0  0  0  0  0  0  0  0
   36.5720   18.8140   28.4230 C   0  0  0  0  0  0  0  0  0  0  0  0
   36.6550   19.3340   29.6810 N   0  0  0  0  0  0  0  0  0  0  0  0
   37.7910   19.9860   29.9810 C   0  0  0  0  0  0  0  0  0  0  0  0
   37.7620   22.5150   35.8600 S   0  0  0  0  0  0  0  0  0  0  0  0
   35.2341   20.8599   35.5755 H   0  0  0  0  0  0  0  0  0  0  0  0
   34.4902   19.5075   33.5855 H   0  0  0  0  0  0  0  0  0  0  0  0
   39.8618   21.6823   31.8612 H   0  0  0  0  0  0  0  0  0  0  0  0
   39.5116   19.7172   27.1281 H   0  0  0  0  0  0  0  0  0  0  0  0
   35.6637   18.2695   28.1255 H   0  0  0  0  0  0  0  0  0  0  0  0
   37.4055   21.9894   37.0739 H   0  0  0  0  0  0  0  0  0  0  0  0
  1  2  2  0
  1 16  1  0
  3  2  1  0
  4  3  2  0
  5  4  1  0
  5  6  2  0
  6  1  1  0
  7  5  1  0
  8  7  1  0
  9  8  2  0
 10  9  1  0
 10 15  2  0
 11 10  1  0
 12 11  2  0
 12 13  1  0
 13 14  2  0
 14 15  1  0
 15  7  1  0
  2 17  1  0
  3 18  1  0
  8 19  1  0
 11 20  1  0
 13 21  1  0
 16 22  1  0
M  ISO  6  17  14  18  14  19  14  20  14  21  14  22  11
M  END
>  <minimizedAffinity>  (1) 
-3.33239698

>  <minimizedRMSD>  (1) 
0.3838633

$$$$
