
     RDKit          3D

 18 19  0  0  0  0  0  0  0  0999 V2000
   37.7120   22.1230   34.7140 C   0  0  0  0  0  0  0  0  0  0  0  0
   37.0910   21.7450   35.9350 C   0  0  0  0  0  0  0  0  0  0  0  0
   35.9390   20.9670   35.8390 C   0  0  0  0  0  0  0  0  0  0  0  0
   35.4730   20.6130   34.6100 N   0  0  0  0  0  0  0  0  0  0  0  0
   36.1050   21.0000   33.4780 C   0  0  0  0  0  0  0  0  0  0  0  0
   37.2110   21.7470   33.5340 N   0  0  0  0  0  0  0  0  0  0  0  0
   35.5510   20.5840   32.1470 C   0  0  0  0  0  0  0  0  0  0  0  0
   36.0870   19.2650   31.5520 C   0  0  0  0  0  0  0  0  0  0  0  0
   34.6870   19.3900   32.0520 C   0  0  0  0  0  0  0  0  0  0  0  0
   39.1890   23.1150   34.6420 S   0  0  0  0  0  0  0  0  0  0  0  0
   37.5000   22.0518   36.9090 H   0  0  0  0  0  0  0  0  0  0  0  0
   35.4112   20.6420   36.7477 H   0  0  0  0  0  0  0  0  0  0  0  0
   35.4518   21.6288   31.8175 H   0  0  0  0  0  0  0  0  0  0  0  0
   36.8229   18.6645   32.1069 H   0  0  0  0  0  0  0  0  0  0  0  0
   36.5625   18.9622   30.6074 H   0  0  0  0  0  0  0  0  0  0  0  0
   33.8522   19.3800   31.3358 H   0  0  0  0  0  0  0  0  0  0  0  0
   34.0842   18.8258   32.7789 H   0  0  0  0  0  0  0  0  0  0  0  0
   39.6111   23.3985   35.9141 H   0  0  0  0  0  0  0  0  0  0  0  0
  1  2  2  0
  3  2  1  0
  4  3  2  0
  5  6  2  0
  5  4  1  0
  6  1  1  0
  7  5  1  0
  8  9  1  0
  8  7  1  0
  9  7  1  0
 10  1  1  0
  2 11  1  0
  3 12  1  0
  7 13  1  0
  8 14  1  0
  8 15  1  0
  9 16  1  0
  9 17  1  0
 10 18  1  0
M  ISO  8  11  14  12  14  13  13  14  13  15  13  16  13  17  13  18  11
M  END
>  <minimizedAffinity>  (1) 
-3.00159526

>  <minimizedRMSD>  (1) 
2.6352973

$$$$
