
     RDKit          3D

 18 19  0  0  0  0  0  0  0  0999 V2000
   37.4930   22.2960   35.9490 C   0  0  0  0  0  0  0  0  0  0  0  0
   36.4280   21.8440   36.7640 C   0  0  0  0  0  0  0  0  0  0  0  0
   35.4800   21.0050   36.2050 C   0  0  0  0  0  0  0  0  0  0  0  0
   35.6140   20.6490   34.8900 N   0  0  0  0  0  0  0  0  0  0  0  0
   36.6470   21.1010   34.1420 C   0  0  0  0  0  0  0  0  0  0  0  0
   37.5770   21.9160   34.6680 N   0  0  0  0  0  0  0  0  0  0  0  0
   36.6120   20.6150   32.7870 C   0  0  0  0  0  0  0  0  0  0  0  0
   37.1610   21.1170   31.6550 C   0  0  0  0  0  0  0  0  0  0  0  0
   36.9830   20.4630   30.4680 C   0  0  0  0  0  0  0  0  0  0  0  0
   36.2210   19.2830   30.5160 C   0  0  0  0  0  0  0  0  0  0  0  0
   35.7590   19.1170   32.2880 S   0  0  0  0  0  0  0  0  0  0  0  0
   38.7910   23.3760   36.5150 S   0  0  0  0  0  0  0  0  0  0  0  0
   36.3554   22.1524   37.8174 H   0  0  0  0  0  0  0  0  0  0  0  0
   34.6366   20.6321   36.8047 H   0  0  0  0  0  0  0  0  0  0  0  0
   37.7475   22.0469   31.6908 H   0  0  0  0  0  0  0  0  0  0  0  0
   37.4122   20.8392   29.5277 H   0  0  0  0  0  0  0  0  0  0  0  0
   35.9606   18.6123   29.6839 H   0  0  0  0  0  0  0  0  0  0  0  0
   38.8083   23.3904   37.8848 H   0  0  0  0  0  0  0  0  0  0  0  0
  1 12  1  0
  1  2  2  0
  3  2  1  0
  4  3  2  0
  5  6  2  0
  5  4  1  0
  6  1  1  0
  7  5  1  0
  8  7  2  0
  9 10  2  0
  9  8  1  0
 10 11  1  0
 11  7  1  0
  2 13  1  0
  3 14  1  0
  8 15  1  0
  9 16  1  0
 10 17  1  0
 12 18  1  0
M  ISO  6  13  14  14  14  15  14  16  14  17  14  18  11
M  END
>  <minimizedAffinity>  (1) 
-3.06514144

>  <minimizedRMSD>  (1) 
2.42342472

$$$$
