
     RDKit          3D

 16 17  0  0  0  0  0  0  0  0999 V2000
   37.0650   21.4820   34.3430 C   0  0  0  0  0  0  0  0  0  0  0  0
   35.8370   20.7910   34.4550 C   0  0  0  0  0  0  0  0  0  0  0  0
   35.3510   20.1500   33.3270 C   0  0  0  0  0  0  0  0  0  0  0  0
   36.0800   20.2190   32.1680 N   0  0  0  0  0  0  0  0  0  0  0  0
   37.2490   20.8910   32.1060 C   0  0  0  0  0  0  0  0  0  0  0  0
   37.7410   21.5170   33.1750 N   0  0  0  0  0  0  0  0  0  0  0  0
   37.9740   20.9220   30.8380 C   0  0  0  0  0  0  0  0  0  0  0  0
   37.9090   20.0260   29.8350 N   0  0  0  0  0  0  0  0  0  0  0  0
   38.7090   20.4040   28.8660 O   0  0  0  0  0  0  0  0  0  0  0  0
   39.3080   21.5230   29.1840 C   0  0  0  0  0  0  0  0  0  0  0  0
   38.8500   21.8560   30.4250 N   0  0  0  0  0  0  0  0  0  0  0  0
   37.8380   22.3620   35.6880 S   0  0  0  0  0  0  0  0  0  0  0  0
   35.2855   20.7631   35.4063 H   0  0  0  0  0  0  0  0  0  0  0  0
   34.4004   19.5975   33.3606 H   0  0  0  0  0  0  0  0  0  0  0  0
   40.0335   22.0817   28.5744 H   0  0  0  0  0  0  0  0  0  0  0  0
   37.3931   21.8555   36.8806 H   0  0  0  0  0  0  0  0  0  0  0  0
  1  2  2  0
  1 12  1  0
  3  2  1  0
  4  3  2  0
  5  4  1  0
  5  6  2  0
  6  1  1  0
  7  5  1  0
  8  7  2  0
  9 10  1  0
  9  8  1  0
 10 11  2  0
 11  7  1  0
  2 13  1  0
  3 14  1  0
 10 15  1  0
 12 16  1  0
M  ISO  4  13  14  14  14  15  14  16  11
M  END
>  <minimizedAffinity>  (1) 
-2.49817944

>  <minimizedRMSD>  (1) 
0.767217219

$$$$
