
     RDKit          3D

 18 19  0  0  0  0  0  0  0  0999 V2000
   37.0610   21.4710   34.3710 C   0  0  0  0  0  0  0  0  0  0  0  0
   35.8300   20.7830   34.5080 C   0  0  0  0  0  0  0  0  0  0  0  0
   35.3400   20.1140   33.3990 C   0  0  0  0  0  0  0  0  0  0  0  0
   36.0440   20.1390   32.2370 N   0  0  0  0  0  0  0  0  0  0  0  0
   37.2160   20.8040   32.1380 C   0  0  0  0  0  0  0  0  0  0  0  0
   37.7220   21.4660   33.1970 N   0  0  0  0  0  0  0  0  0  0  0  0
   37.9380   20.8040   30.8700 C   0  0  0  0  0  0  0  0  0  0  0  0
   37.8040   19.7200   30.0210 C   0  0  0  0  0  0  0  0  0  0  0  0
   38.5950   19.9830   28.8970 C   0  0  0  0  0  0  0  0  0  0  0  0
   39.1690   21.1930   29.1010 N   0  0  0  0  0  0  0  0  0  0  0  0
   38.7820   21.6880   30.2740 N   0  0  0  0  0  0  0  0  0  0  0  0
   37.8490   22.3870   35.6830 S   0  0  0  0  0  0  0  0  0  0  0  0
   35.2826   20.7804   35.4621 H   0  0  0  0  0  0  0  0  0  0  0  0
   34.3879   19.5664   33.4583 H   0  0  0  0  0  0  0  0  0  0  0  0
   37.1924   18.8226   30.1961 H   0  0  0  0  0  0  0  0  0  0  0  0
   38.7253   19.3336   28.0188 H   0  0  0  0  0  0  0  0  0  0  0  0
   39.8104   21.6609   28.4449 H   0  0  0  0  0  0  0  0  0  0  0  0
   37.4311   21.9013   36.8939 H   0  0  0  0  0  0  0  0  0  0  0  0
  1  2  2  0
  1 12  1  0
  3  2  1  0
  4  3  2  0
  5  4  1  0
  5  6  2  0
  6  1  1  0
  7  5  1  0
  8  7  1  0
  9 10  1  0
  9  8  2  0
 10 11  1  0
 11  7  2  0
  2 13  1  0
  3 14  1  0
  8 15  1  0
  9 16  1  0
 10 17  1  0
 12 18  1  0
M  ISO  6  13  14  14  14  15  14  16  14  17   9  18  11
M  END
>  <minimizedAffinity>  (1) 
-2.53228807

>  <minimizedRMSD>  (1) 
0.495719165

$$$$
