
     RDKit          3D

 18 19  0  0  0  0  0  0  0  0999 V2000
   37.1820   21.6090   34.6030 C   0  0  0  0  0  0  0  0  0  0  0  0
   35.9550   20.9270   34.7850 C   0  0  0  0  0  0  0  0  0  0  0  0
   35.4540   20.2210   33.7030 C   0  0  0  0  0  0  0  0  0  0  0  0
   36.1440   20.2100   32.5380 N   0  0  0  0  0  0  0  0  0  0  0  0
   37.3200   20.8790   32.4090 C   0  0  0  0  0  0  0  0  0  0  0  0
   37.8370   21.5710   33.4260 N   0  0  0  0  0  0  0  0  0  0  0  0
   37.9460   20.7880   31.1330 N   0  0  0  0  0  0  0  0  0  0  0  0
   38.8690   21.4700   30.4860 N   0  0  0  0  0  0  0  0  0  0  0  0
   39.0870   20.9290   29.2730 C   0  0  0  0  0  0  0  0  0  0  0  0
   38.2530   19.8420   29.1450 C   0  0  0  0  0  0  0  0  0  0  0  0
   37.5290   19.7610   30.3380 C   0  0  0  0  0  0  0  0  0  0  0  0
   37.9770   22.5700   35.8870 S   0  0  0  0  0  0  0  0  0  0  0  0
   35.4210   20.9563   35.7462 H   0  0  0  0  0  0  0  0  0  0  0  0
   34.5036   19.6740   33.7898 H   0  0  0  0  0  0  0  0  0  0  0  0
   39.8027   21.2905   28.5199 H   0  0  0  0  0  0  0  0  0  0  0  0
   38.1722   19.1709   28.2772 H   0  0  0  0  0  0  0  0  0  0  0  0
   36.7658   19.0096   30.5888 H   0  0  0  0  0  0  0  0  0  0  0  0
   37.5892   22.1013   37.1145 H   0  0  0  0  0  0  0  0  0  0  0  0
  1  2  2  0
  1 12  1  0
  3  2  1  0
  4  3  2  0
  5  4  1  0
  5  6  2  0
  6  1  1  0
  7  5  1  0
  8  7  1  0
  9  8  2  0
 10  9  1  0
 10 11  2  0
 11  7  1  0
  2 13  1  0
  3 14  1  0
  9 15  1  0
 10 16  1  0
 11 17  1  0
 12 18  1  0
M  ISO  6  13  14  14  14  15  14  16  14  17  14  18  11
M  END
>  <minimizedAffinity>  (1) 
-2.67212296

>  <minimizedRMSD>  (1) 
0.147741601

$$$$
