
     RDKit          3D

 17 18  0  0  0  0  0  0  0  0999 V2000
   37.1880   21.6190   34.6030 C   0  0  0  0  0  0  0  0  0  0  0  0
   35.9680   20.9270   34.8030 C   0  0  0  0  0  0  0  0  0  0  0  0
   35.4630   20.2210   33.7210 C   0  0  0  0  0  0  0  0  0  0  0  0
   36.1360   20.2200   32.5460 N   0  0  0  0  0  0  0  0  0  0  0  0
   37.3060   20.9000   32.3990 C   0  0  0  0  0  0  0  0  0  0  0  0
   37.8140   21.5870   33.4220 N   0  0  0  0  0  0  0  0  0  0  0  0
   38.0030   20.8860   31.1470 N   0  0  0  0  0  0  0  0  0  0  0  0
   37.7660   19.9740   30.1610 C   0  0  0  0  0  0  0  0  0  0  0  0
   38.5780   20.2180   29.1010 N   0  0  0  0  0  0  0  0  0  0  0  0
   39.3180   21.2870   29.4400 C   0  0  0  0  0  0  0  0  0  0  0  0
   38.9670   21.6820   30.6670 N   0  0  0  0  0  0  0  0  0  0  0  0
   37.9840   22.5790   35.8850 S   0  0  0  0  0  0  0  0  0  0  0  0
   35.4458   20.9486   35.7709 H   0  0  0  0  0  0  0  0  0  0  0  0
   34.5193   19.6640   33.8171 H   0  0  0  0  0  0  0  0  0  0  0  0
   37.0267   19.1614   30.2165 H   0  0  0  0  0  0  0  0  0  0  0  0
   40.0866   21.7594   28.8106 H   0  0  0  0  0  0  0  0  0  0  0  0
   37.5963   22.1114   37.1130 H   0  0  0  0  0  0  0  0  0  0  0  0
  1  2  2  0
  1 12  1  0
  3  2  1  0
  4  3  2  0
  5  4  1  0
  5  6  2  0
  6  1  1  0
  7  5  1  0
  8  7  1  0
  9 10  1  0
  9  8  2  0
 10 11  2  0
 11  7  1  0
  2 13  1  0
  3 14  1  0
  8 15  1  0
 10 16  1  0
 12 17  1  0
M  ISO  5  13  14  14  14  15  14  16  14  17  11
M  END
>  <minimizedAffinity>  (1) 
-2.61178517

>  <minimizedRMSD>  (1) 
0.151004523

$$$$
