
     RDKit          3D

 18 19  0  0  0  0  0  0  0  0999 V2000
   37.0970   21.5100   34.3040 C   0  0  0  0  0  0  0  0  0  0  0  0
   35.8500   20.8300   34.3790 C   0  0  0  0  0  0  0  0  0  0  0  0
   35.3990   20.2260   33.2080 C   0  0  0  0  0  0  0  0  0  0  0  0
   36.1510   20.3140   32.0890 N   0  0  0  0  0  0  0  0  0  0  0  0
   37.3300   20.9660   32.0480 C   0  0  0  0  0  0  0  0  0  0  0  0
   37.7940   21.5620   33.1680 N   0  0  0  0  0  0  0  0  0  0  0  0
   38.0950   21.0250   30.8070 C   0  0  0  0  0  0  0  0  0  0  0  0
   38.8420   22.1130   30.4120 C   0  0  0  0  0  0  0  0  0  0  0  0
   39.4100   21.7930   29.1990 C   0  0  0  0  0  0  0  0  0  0  0  0
   38.9920   20.5240   28.8940 C   0  0  0  0  0  0  0  0  0  0  0  0
   38.2200   20.1160   29.8720 O   0  0  0  0  0  0  0  0  0  0  0  0
   37.8300   22.3400   35.7020 S   0  0  0  0  0  0  0  0  0  0  0  0
   35.2717   20.7836   35.3136 H   0  0  0  0  0  0  0  0  0  0  0  0
   34.4420   19.6838   33.1943 H   0  0  0  0  0  0  0  0  0  0  0  0
   38.9620   23.0583   30.9615 H   0  0  0  0  0  0  0  0  0  0  0  0
   40.0702   22.4312   28.5933 H   0  0  0  0  0  0  0  0  0  0  0  0
   39.2562   19.9517   27.9925 H   0  0  0  0  0  0  0  0  0  0  0  0
   37.3475   21.7936   36.8620 H   0  0  0  0  0  0  0  0  0  0  0  0
  1  2  2  0
  1 12  1  0
  3  2  1  0
  4  3  2  0
  5  4  1  0
  5  6  2  0
  6  1  1  0
  7  5  1  0
  8  7  2  0
  9  8  1  0
 10  9  2  0
 10 11  1  0
 11  7  1  0
  2 13  1  0
  3 14  1  0
  8 15  1  0
  9 16  1  0
 10 17  1  0
 12 18  1  0
M  ISO  6  13  14  14  14  15  14  16  14  17  14  18  11
M  END
>  <minimizedAffinity>  (1) 
-2.53962445

>  <minimizedRMSD>  (1) 
0.78494668

$$$$
