
     RDKit          3D

 23 24  0  0  0  0  0  0  0  0999 V2000
   37.3370   22.2320   35.9920 C   0  0  0  0  0  0  0  0  0  0  0  0
   36.2180   21.4270   36.3610 C   0  0  0  0  0  0  0  0  0  0  0  0
   35.5870   20.7300   35.3440 C   0  0  0  0  0  0  0  0  0  0  0  0
   36.0480   20.8420   34.0820 N   0  0  0  0  0  0  0  0  0  0  0  0
   37.1120   21.6140   33.7600 C   0  0  0  0  0  0  0  0  0  0  0  0
   37.7490   22.3050   34.7210 N   0  0  0  0  0  0  0  0  0  0  0  0
   37.5700   21.7050   32.4080 N   0  0  0  0  0  0  0  0  0  0  0  0
   37.1250   22.6770   31.4170 C   0  0  0  0  0  0  0  0  0  0  0  0
   38.2590   22.6020   30.4060 C   0  0  0  0  0  0  0  0  0  0  0  0
   38.3440   21.0710   30.3300 C   0  0  0  0  0  0  0  0  0  0  0  0
   38.5720   20.8170   31.8180 C   0  0  0  0  0  0  0  0  0  0  0  0
   38.2720   23.1980   37.1610 S   0  0  0  0  0  0  0  0  0  0  0  0
   35.8730   21.3631   37.4035 H   0  0  0  0  0  0  0  0  0  0  0  0
   34.7186   20.0916   35.5637 H   0  0  0  0  0  0  0  0  0  0  0  0
   36.1640   22.3852   30.9683 H   0  0  0  0  0  0  0  0  0  0  0  0
   36.9432   23.6842   31.8201 H   0  0  0  0  0  0  0  0  0  0  0  0
   37.9923   23.0568   29.4406 H   0  0  0  0  0  0  0  0  0  0  0  0
   39.1861   23.1334   30.6670 H   0  0  0  0  0  0  0  0  0  0  0  0
   37.4114   20.6164   29.9645 H   0  0  0  0  0  0  0  0  0  0  0  0
   39.0943   20.6554   29.6413 H   0  0  0  0  0  0  0  0  0  0  0  0
   38.3857   19.7655   32.0818 H   0  0  0  0  0  0  0  0  0  0  0  0
   39.6012   21.0043   32.1581 H   0  0  0  0  0  0  0  0  0  0  0  0
   37.9222   22.8366   38.4353 H   0  0  0  0  0  0  0  0  0  0  0  0
  1  2  2  0
  1 12  1  0
  3  2  1  0
  4  3  2  0
  5  4  1  0
  5  6  2  0
  6  1  1  0
  7  5  1  0
  8  7  1  0
  9  8  1  0
 10  9  1  0
 10 11  1  0
 11  7  1  0
  2 13  1  0
  3 14  1  0
  8 15  1  0
  8 16  1  0
  9 17  1  0
  9 18  1  0
 10 19  1  0
 10 20  1  0
 11 21  1  0
 11 22  1  0
 12 23  1  0
M  ISO  8  13  14  14  14  15  13  16  13  17  13  18  13  19  13  20  13
M  ISO  3  21  13  22  13  23  11
M  END
>  <minimizedAffinity>  (1) 
-2.89069557

>  <minimizedRMSD>  (1) 
1.54715145

$$$$
