
     RDKit          3D

 30 32  0  0  0  0  0  0  0  0999 V2000
   37.5360   24.5470   32.9330 C   0  0  0  0  0  0  0  0  0  0  0  0
   36.7710   25.5300   32.2290 C   0  0  0  0  0  0  0  0  0  0  0  0
   35.7430   25.0690   31.4240 C   0  0  0  0  0  0  0  0  0  0  0  0
   35.5130   23.7430   31.3400 N   0  0  0  0  0  0  0  0  0  0  0  0
   36.2460   22.8390   32.0120 C   0  0  0  0  0  0  0  0  0  0  0  0
   37.2510   23.2530   32.8030 N   0  0  0  0  0  0  0  0  0  0  0  0
   35.9760   21.4370   31.9010 N   0  0  0  0  0  0  0  0  0  0  0  0
   36.5790   20.5290   30.9200 C   0  0  0  0  0  0  0  0  0  0  0  0
   36.3230   19.1810   31.5850 C   0  0  0  0  0  0  0  0  0  0  0  0
   34.8500   19.4240   31.9560 C   0  0  0  0  0  0  0  0  0  0  0  0
   35.0560   20.7030   32.7510 C   0  0  0  0  0  0  0  0  0  0  0  0
   38.8950   24.9500   34.0080 S   0  0  0  0  0  0  0  0  0  0  0  0
   38.6640   24.3200   35.6570 C   0  0  0  0  0  0  0  0  0  0  0  0
   39.5380   23.3870   36.1820 C   0  0  0  0  0  0  0  0  0  0  0  0
   39.1200   23.0930   37.4380 N   0  0  0  0  0  0  0  0  0  0  0  0
   38.0190   23.8210   37.6900 C   0  0  0  0  0  0  0  0  0  0  0  0
   37.7240   24.5780   36.6090 N   0  0  0  0  0  0  0  0  0  0  0  0
   36.9897   26.6039   32.3230 H   0  0  0  0  0  0  0  0  0  0  0  0
   35.1200   25.7776   30.8585 H   0  0  0  0  0  0  0  0  0  0  0  0
   37.6549   20.7222   30.7971 H   0  0  0  0  0  0  0  0  0  0  0  0
   36.1704   20.6204   29.9028 H   0  0  0  0  0  0  0  0  0  0  0  0
   36.4470   18.3389   30.8882 H   0  0  0  0  0  0  0  0  0  0  0  0
   36.9969   18.9057   32.4097 H   0  0  0  0  0  0  0  0  0  0  0  0
   34.2150   19.5783   31.0712 H   0  0  0  0  0  0  0  0  0  0  0  0
   34.3359   18.6028   32.4769 H   0  0  0  0  0  0  0  0  0  0  0  0
   35.4998   20.4952   33.7358 H   0  0  0  0  0  0  0  0  0  0  0  0
   34.1246   21.2451   32.9713 H   0  0  0  0  0  0  0  0  0  0  0  0
   40.4146   22.9599   35.6728 H   0  0  0  0  0  0  0  0  0  0  0  0
   37.4468   23.8038   38.6293 H   0  0  0  0  0  0  0  0  0  0  0  0
   36.9324   25.2311   36.5212 H   0  0  0  0  0  0  0  0  0  0  0  0
  1 12  1  0
  2  1  2  0
  3  2  1  0
  4  3  2  0
  4  5  1  0
  5  6  2  0
  6  1  1  0
  7  5  1  0
  7 11  1  0
  8  9  1  0
  8  7  1  0
  9 10  1  0
 10 11  1  0
 12 13  1  0
 13 14  2  0
 13 17  1  0
 14 15  1  0
 15 16  2  0
 17 16  1  0
  2 18  1  0
  3 19  1  0
  8 20  1  0
  8 21  1  0
  9 22  1  0
  9 23  1  0
 10 24  1  0
 10 25  1  0
 11 26  1  0
 11 27  1  0
 14 28  1  0
 16 29  1  0
 17 30  1  0
M  ISO  8  18  14  19  14  20  13  21  13  22  13  23  13  24  13  25  13
M  ISO  5  26  13  27  13  28  14  29  14  30   9
M  END
>  <minimizedAffinity>  (1) 
-4.61742258

>  <minimizedRMSD>  (1) 
3.74898911

$$$$
