
     RDKit          3D

 30 32  0  0  0  0  0  0  0  0999 V2000
   37.6840   24.4170   33.1160 C   0  0  0  0  0  0  0  0  0  0  0  0
   36.9840   25.4590   32.4260 C   0  0  0  0  0  0  0  0  0  0  0  0
   35.9550   25.0580   31.5760 C   0  0  0  0  0  0  0  0  0  0  0  0
   35.6800   23.7500   31.4540 N   0  0  0  0  0  0  0  0  0  0  0  0
   36.3630   22.7930   32.1250 C   0  0  0  0  0  0  0  0  0  0  0  0
   37.3580   23.1370   32.9490 N   0  0  0  0  0  0  0  0  0  0  0  0
   36.0270   21.4040   31.9580 N   0  0  0  0  0  0  0  0  0  0  0  0
   36.5960   20.5080   30.9540 C   0  0  0  0  0  0  0  0  0  0  0  0
   36.2640   19.1510   31.5610 C   0  0  0  0  0  0  0  0  0  0  0  0
   34.8190   19.4500   31.9240 C   0  0  0  0  0  0  0  0  0  0  0  0
   35.0610   20.6900   32.7760 C   0  0  0  0  0  0  0  0  0  0  0  0
   39.0200   24.7490   34.2350 S   0  0  0  0  0  0  0  0  0  0  0  0
   38.8270   23.9210   35.8030 C   0  0  0  0  0  0  0  0  0  0  0  0
   40.0180   23.4010   36.3180 C   0  0  0  0  0  0  0  0  0  0  0  0
   39.7360   22.7830   37.5370 C   0  0  0  0  0  0  0  0  0  0  0  0
   38.3960   22.9560   37.7030 N   0  0  0  0  0  0  0  0  0  0  0  0
   37.8690   23.6170   36.6940 N   0  0  0  0  0  0  0  0  0  0  0  0
   37.2448   26.5192   32.5599 H   0  0  0  0  0  0  0  0  0  0  0  0
   35.3756   25.8040   31.0123 H   0  0  0  0  0  0  0  0  0  0  0  0
   37.6819   20.6513   30.8525 H   0  0  0  0  0  0  0  0  0  0  0  0
   36.2069   20.6590   29.9362 H   0  0  0  0  0  0  0  0  0  0  0  0
   36.3526   18.3322   30.8318 H   0  0  0  0  0  0  0  0  0  0  0  0
   36.9137   18.8091   32.3801 H   0  0  0  0  0  0  0  0  0  0  0  0
   34.2042   19.6676   31.0382 H   0  0  0  0  0  0  0  0  0  0  0  0
   34.2665   18.6327   32.4105 H   0  0  0  0  0  0  0  0  0  0  0  0
   35.4789   20.4291   33.7595 H   0  0  0  0  0  0  0  0  0  0  0  0
   34.1523   21.2641   33.0098 H   0  0  0  0  0  0  0  0  0  0  0  0
   41.0082   23.4676   35.8435 H   0  0  0  0  0  0  0  0  0  0  0  0
   40.4382   22.2714   38.2117 H   0  0  0  0  0  0  0  0  0  0  0  0
   37.8625   22.6133   38.5147 H   0  0  0  0  0  0  0  0  0  0  0  0
  1 12  1  0
  2  1  2  0
  3  2  1  0
  4  3  2  0
  4  5  1  0
  5  6  2  0
  6  1  1  0
  7  5  1  0
  7 11  1  0
  8  9  1  0
  8  7  1  0
  9 10  1  0
 10 11  1  0
 12 13  1  0
 13 14  1  0
 13 17  2  0
 14 15  2  0
 15 16  1  0
 17 16  1  0
  2 18  1  0
  3 19  1  0
  8 20  1  0
  8 21  1  0
  9 22  1  0
  9 23  1  0
 10 24  1  0
 10 25  1  0
 11 26  1  0
 11 27  1  0
 14 28  1  0
 15 29  1  0
 16 30  1  0
M  ISO  8  18  14  19  14  20  13  21  13  22  13  23  13  24  13  25  13
M  ISO  5  26  13  27  13  28  14  29  14  30   9
M  END
>  <minimizedAffinity>  (1) 
-4.71846294

>  <minimizedRMSD>  (1) 
3.53263474

$$$$
