
     RDKit          3D

 35 38  0  0  0  0  0  0  0  0999 V2000
   37.8660   24.8550   33.7710 C   0  0  0  0  0  0  0  0  0  0  0  0
   37.2290   24.3700   32.6580 C   0  0  0  0  0  0  0  0  0  0  0  0
   36.7700   25.4680   31.9290 C   0  0  0  0  0  0  0  0  0  0  0  0
   37.1270   26.5740   32.5980 N   0  0  0  0  0  0  0  0  0  0  0  0
   37.7860   26.2090   33.7040 N   0  0  0  0  0  0  0  0  0  0  0  0
   36.8460   27.9280   32.1870 C   0  0  0  0  0  0  0  0  0  0  0  0
   36.1330   28.7180   33.0510 C   0  0  0  0  0  0  0  0  0  0  0  0
   35.8850   30.0210   32.6100 C   0  0  0  0  0  0  0  0  0  0  0  0
   36.3260   30.4340   31.4270 N   0  0  0  0  0  0  0  0  0  0  0  0
   37.0270   29.6510   30.5830 C   0  0  0  0  0  0  0  0  0  0  0  0
   37.2760   28.3840   30.9970 N   0  0  0  0  0  0  0  0  0  0  0  0
   37.5050   30.0830   29.3130 N   0  0  0  0  0  0  0  0  0  0  0  0
   37.1200   31.0130   28.4430 N   0  0  0  0  0  0  0  0  0  0  0  0
   37.9380   31.0050   27.3740 C   0  0  0  0  0  0  0  0  0  0  0  0
   38.8970   30.0080   27.5840 C   0  0  0  0  0  0  0  0  0  0  0  0
   38.5950   29.4390   28.8250 C   0  0  0  0  0  0  0  0  0  0  0  0
   40.0600   22.5250   35.5350 C   0  0  0  0  0  0  0  0  0  0  0  0
   39.6470   22.6910   36.8920 C   0  0  0  0  0  0  0  0  0  0  0  0
   38.6400   23.5920   37.1380 C   0  0  0  0  0  0  0  0  0  0  0  0
   38.0770   24.2850   36.1000 N   0  0  0  0  0  0  0  0  0  0  0  0
   38.5090   24.0850   34.8300 C   0  0  0  0  0  0  0  0  0  0  0  0
   39.4870   23.2150   34.5650 N   0  0  0  0  0  0  0  0  0  0  0  0
   38.2460   23.7310   38.5560 C   0  0  0  0  0  0  0  0  0  0  0  0
   37.7620   24.9860   38.7890 F   0  0  0  0  0  0  0  0  0  0  0  0
   39.4000   23.6210   39.3040 F   0  0  0  0  0  0  0  0  0  0  0  0
   37.2830   22.8170   38.9170 F   0  0  0  0  0  0  0  0  0  0  0  0
   37.1030   23.3108   32.3892 H   0  0  0  0  0  0  0  0  0  0  0  0
   36.2165   25.4326   30.9791 H   0  0  0  0  0  0  0  0  0  0  0  0
   35.7797   28.3512   34.0260 H   0  0  0  0  0  0  0  0  0  0  0  0
   35.3179   30.7127   33.2502 H   0  0  0  0  0  0  0  0  0  0  0  0
   37.8657   31.6626   26.4952 H   0  0  0  0  0  0  0  0  0  0  0  0
   39.7205   29.7288   26.9103 H   0  0  0  0  0  0  0  0  0  0  0  0
   39.1409   28.6197   29.3156 H   0  0  0  0  0  0  0  0  0  0  0  0
   40.8645   21.8144   35.2947 H   0  0  0  0  0  0  0  0  0  0  0  0
   40.1163   22.1205   37.7070 H   0  0  0  0  0  0  0  0  0  0  0  0
  1 21  1  0
  2  1  1  0
  3  4  1  0
  3  2  2  0
  4  5  1  0
  5  1  2  0
  6  4  1  0
  6  7  2  0
  8  7  1  0
  9  8  2  0
 10 11  2  0
 10  9  1  0
 11  6  1  0
 12 10  1  0
 13 12  1  0
 14 15  1  0
 14 13  2  0
 15 16  2  0
 16 12  1  0
 17 18  2  0
 18 19  1  0
 19 23  1  0
 20 19  2  0
 21 20  1  0
 22 21  2  0
 22 17  1  0
 23 24  1  0
 23 26  1  0
 23 25  1  0
  2 27  1  0
  3 28  1  0
  7 29  1  0
  8 30  1  0
 14 31  1  0
 15 32  1  0
 16 33  1  0
 17 34  1  0
 18 35  1  0
M  ISO  8  27  14  28  14  29  14  30  14  31  14  32  14  33  14  34  14
M  ISO  1  35  14
M  END
>  <minimizedAffinity>  (1) 
-6.15864658

>  <minimizedRMSD>  (1) 
2.62390614

$$$$
