
     RDKit          3D

 33 36  0  0  0  0  0  0  0  0999 V2000
   37.9120   24.9270   33.9560 C   0  0  0  0  0  0  0  0  0  0  0  0
   37.4270   24.4690   32.7560 C   0  0  0  0  0  0  0  0  0  0  0  0
   36.9110   25.5700   32.0730 C   0  0  0  0  0  0  0  0  0  0  0  0
   37.0900   26.6390   32.8500 N   0  0  0  0  0  0  0  0  0  0  0  0
   37.6940   26.2540   33.9850 N   0  0  0  0  0  0  0  0  0  0  0  0
   40.0920   22.5500   35.6940 C   0  0  0  0  0  0  0  0  0  0  0  0
   39.6730   22.6900   37.0380 C   0  0  0  0  0  0  0  0  0  0  0  0
   38.6550   23.5980   37.3030 C   0  0  0  0  0  0  0  0  0  0  0  0
   38.1090   24.3050   36.2730 N   0  0  0  0  0  0  0  0  0  0  0  0
   38.5480   24.1310   35.0060 C   0  0  0  0  0  0  0  0  0  0  0  0
   39.5290   23.2620   34.7240 N   0  0  0  0  0  0  0  0  0  0  0  0
   38.2560   23.7070   38.7160 C   0  0  0  0  0  0  0  0  0  0  0  0
   37.7010   24.9390   38.9410 F   0  0  0  0  0  0  0  0  0  0  0  0
   39.4180   23.6680   39.4600 F   0  0  0  0  0  0  0  0  0  0  0  0
   37.3580   22.7480   39.0830 F   0  0  0  0  0  0  0  0  0  0  0  0
   36.6970   27.9930   32.5220 C   0  0  0  0  0  0  0  0  0  0  0  0
   36.0090   28.6990   33.4710 C   0  0  0  0  0  0  0  0  0  0  0  0
   35.6400   30.0010   33.1360 C   0  0  0  0  0  0  0  0  0  0  0  0
   35.9610   30.4920   31.9390 N   0  0  0  0  0  0  0  0  0  0  0  0
   36.6320   29.8050   31.0110 C   0  0  0  0  0  0  0  0  0  0  0  0
   37.0040   28.5240   31.3230 N   0  0  0  0  0  0  0  0  0  0  0  0
   36.9840   30.3450   29.7010 C   0  0  0  0  0  0  0  0  0  0  0  0
   37.5620   29.5680   28.7680 N   0  0  0  0  0  0  0  0  0  0  0  0
   37.7890   30.2430   27.6830 O   0  0  0  0  0  0  0  0  0  0  0  0
   37.3710   31.4600   27.8750 C   0  0  0  0  0  0  0  0  0  0  0  0
   36.8620   31.5560   29.1290 N   0  0  0  0  0  0  0  0  0  0  0  0
   37.4425   23.4283   32.3999 H   0  0  0  0  0  0  0  0  0  0  0  0
   36.4430   25.5588   31.0776 H   0  0  0  0  0  0  0  0  0  0  0  0
   40.8962   21.8408   35.4485 H   0  0  0  0  0  0  0  0  0  0  0  0
   40.1361   22.1016   37.8438 H   0  0  0  0  0  0  0  0  0  0  0  0
   35.7597   28.2613   34.4489 H   0  0  0  0  0  0  0  0  0  0  0  0
   35.0862   30.6207   33.8566 H   0  0  0  0  0  0  0  0  0  0  0  0
   37.4219   32.2775   27.1407 H   0  0  0  0  0  0  0  0  0  0  0  0
  1  5  2  0
  1 10  1  0
  2  1  1  0
  3  2  2  0
  3  4  1  0
  4  5  1  0
  6  7  2  0
  7  8  1  0
  8 12  1  0
  9  8  2  0
 10  9  1  0
 11 10  2  0
 11  6  1  0
 12 13  1  0
 12 15  1  0
 12 14  1  0
 16  4  1  0
 16 17  2  0
 18 17  1  0
 19 18  2  0
 20 21  2  0
 20 19  1  0
 21 16  1  0
 22 20  1  0
 23 22  2  0
 24 25  1  0
 24 23  1  0
 25 26  2  0
 26 22  1  0
  2 27  1  0
  3 28  1  0
  6 29  1  0
  7 30  1  0
 17 31  1  0
 18 32  1  0
 25 33  1  0
M  ISO  7  27  14  28  14  29  14  30  14  31  14  32  14  33  14
M  END
>  <minimizedAffinity>  (1) 
-6.09438372

>  <minimizedRMSD>  (1) 
2.60952568

$$$$
