
     RDKit          3D

 39 41  0  0  0  0  0  0  0  0999 V2000
   37.6030   22.1620   35.7540 C   0  0  0  0  0  0  0  0  0  0  0  0
   36.6400   21.7990   36.7370 C   0  0  0  0  0  0  0  0  0  0  0  0
   35.5560   21.0340   36.3090 C   0  0  0  0  0  0  0  0  0  0  0  0
   35.4770   20.6840   35.0120 N   0  0  0  0  0  0  0  0  0  0  0  0
   36.4010   21.0400   34.1040 C   0  0  0  0  0  0  0  0  0  0  0  0
   37.4550   21.7760   34.4900 N   0  0  0  0  0  0  0  0  0  0  0  0
   36.2890   20.6510   32.7270 N   0  0  0  0  0  0  0  0  0  0  0  0
   35.6040   21.4170   31.6810 C   0  0  0  0  0  0  0  0  0  0  0  0
   36.1980   20.7800   30.4320 C   0  0  0  0  0  0  0  0  0  0  0  0
   36.0520   19.3260   30.8560 C   0  0  0  0  0  0  0  0  0  0  0  0
   36.8420   19.4320   32.1670 C   0  0  0  0  0  0  0  0  0  0  0  0
   39.0470   23.1340   36.1220 S   0  0  0  0  0  0  0  0  0  0  0  0
   40.5800   22.2290   35.9370 C   0  0  0  0  0  0  0  0  0  0  0  0
   41.6460   22.9210   36.7620 C   0  0  0  0  0  0  0  0  0  0  0  0
   42.9370   22.1360   36.6450 C   0  0  0  0  0  0  0  0  0  0  0  0
   43.3450   22.0720   35.1980 C   0  0  0  0  0  0  0  0  0  0  0  0
   42.3110   21.4710   34.3050 C   0  0  0  0  0  0  0  0  0  0  0  0
   40.9800   22.1740   34.5000 C   0  0  0  0  0  0  0  0  0  0  0  0
   36.7462   22.1082   37.7873 H   0  0  0  0  0  0  0  0  0  0  0  0
   34.7774   20.7214   37.0204 H   0  0  0  0  0  0  0  0  0  0  0  0
   34.5135   21.2803   31.7265 H   0  0  0  0  0  0  0  0  0  0  0  0
   35.7412   22.5064   31.7480 H   0  0  0  0  0  0  0  0  0  0  0  0
   37.2485   21.0664   30.2760 H   0  0  0  0  0  0  0  0  0  0  0  0
   35.7295   21.0566   29.4759 H   0  0  0  0  0  0  0  0  0  0  0  0
   35.0028   19.0388   31.0192 H   0  0  0  0  0  0  0  0  0  0  0  0
   36.3929   18.5672   30.1363 H   0  0  0  0  0  0  0  0  0  0  0  0
   36.6570   18.5671   32.8209 H   0  0  0  0  0  0  0  0  0  0  0  0
   37.9343   19.4477   32.0377 H   0  0  0  0  0  0  0  0  0  0  0  0
   40.4515   21.1947   36.2889 H   0  0  0  0  0  0  0  0  0  0  0  0
   41.7992   23.9434   36.3863 H   0  0  0  0  0  0  0  0  0  0  0  0
   41.3316   22.9704   37.8150 H   0  0  0  0  0  0  0  0  0  0  0  0
   43.7253   22.6344   37.2283 H   0  0  0  0  0  0  0  0  0  0  0  0
   42.7880   21.1177   37.0334 H   0  0  0  0  0  0  0  0  0  0  0  0
   43.5507   23.0952   34.8504 H   0  0  0  0  0  0  0  0  0  0  0  0
   44.2308   21.4221   35.1441 H   0  0  0  0  0  0  0  0  0  0  0  0
   42.1975   20.4039   34.5467 H   0  0  0  0  0  0  0  0  0  0  0  0
   42.6288   21.5863   33.2582 H   0  0  0  0  0  0  0  0  0  0  0  0
   41.0615   23.2011   34.1148 H   0  0  0  0  0  0  0  0  0  0  0  0
   40.2125   21.6038   33.9561 H   0  0  0  0  0  0  0  0  0  0  0  0
  1 12  1  0
  1  2  2  0
  3  2  1  0
  4  3  2  0
  5  6  2  0
  5  4  1  0
  6  1  1  0
  7  5  1  0
  8  7  1  0
  9 10  1  0
  9  8  1  0
 10 11  1  0
 11  7  1  0
 13 12  1  0
 13 14  1  0
 15 14  1  0
 16 15  1  0
 17 18  1  0
 17 16  1  0
 18 13  1  0
  2 19  1  0
  3 20  1  0
  8 21  1  0
  8 22  1  0
  9 23  1  0
  9 24  1  0
 10 25  1  0
 10 26  1  0
 11 27  1  0
 11 28  1  0
 13 29  1  0
 14 30  1  0
 14 31  1  0
 15 32  1  0
 15 33  1  0
 16 34  1  0
 16 35  1  0
 17 36  1  0
 17 37  1  0
 18 38  1  0
 18 39  1  0
M  ISO  8  19  14  20  14  21  13  22  13  23  13  24  13  25  13  26  13
M  ISO  8  27  13  28  13  29  13  30  13  31  13  32  13  33  13  34  13
M  ISO  5  35  13  36  13  37  13  38  13  39  13
M  END
>  <minimizedAffinity>  (1) 
-3.97079992

>  <minimizedRMSD>  (1) 
2.05302477

$$$$
