
     RDKit          3D

 30 32  0  0  0  0  0  0  0  0999 V2000
   37.5140   22.2460   35.8550 C   0  0  0  0  0  0  0  0  0  0  0  0
   36.5760   21.8140   36.8330 C   0  0  0  0  0  0  0  0  0  0  0  0
   35.5410   21.0170   36.4020 C   0  0  0  0  0  0  0  0  0  0  0  0
   35.4610   20.6870   35.0970 N   0  0  0  0  0  0  0  0  0  0  0  0
   36.3650   21.1110   34.1900 C   0  0  0  0  0  0  0  0  0  0  0  0
   37.3820   21.8850   34.5760 N   0  0  0  0  0  0  0  0  0  0  0  0
   36.2450   20.7380   32.8070 N   0  0  0  0  0  0  0  0  0  0  0  0
   35.5020   21.4930   31.7950 C   0  0  0  0  0  0  0  0  0  0  0  0
   36.1380   20.9430   30.5170 C   0  0  0  0  0  0  0  0  0  0  0  0
   36.0590   19.4590   30.9060 C   0  0  0  0  0  0  0  0  0  0  0  0
   36.8400   19.5580   32.2080 C   0  0  0  0  0  0  0  0  0  0  0  0
   38.9210   23.2850   36.2280 S   0  0  0  0  0  0  0  0  0  0  0  0
   40.4120   22.3530   36.4110 C   0  0  0  0  0  0  0  0  0  0  0  0
   41.0120   21.7950   37.4710 C   0  0  0  0  0  0  0  0  0  0  0  0
   42.1860   21.1090   37.3550 C   0  0  0  0  0  0  0  0  0  0  0  0
   42.7130   21.0410   36.0240 C   0  0  0  0  0  0  0  0  0  0  0  0
   41.4620   21.9840   34.9980 S   0  0  0  0  0  0  0  0  0  0  0  0
   36.6741   22.1049   37.8893 H   0  0  0  0  0  0  0  0  0  0  0  0
   34.7864   20.6526   37.1146 H   0  0  0  0  0  0  0  0  0  0  0  0
   34.4241   21.2779   31.8376 H   0  0  0  0  0  0  0  0  0  0  0  0
   35.5602   22.5861   31.9031 H   0  0  0  0  0  0  0  0  0  0  0  0
   37.1729   21.2888   30.3773 H   0  0  0  0  0  0  0  0  0  0  0  0
   35.6691   21.2323   29.5649 H   0  0  0  0  0  0  0  0  0  0  0  0
   35.0240   19.1208   31.0623 H   0  0  0  0  0  0  0  0  0  0  0  0
   36.4337   18.7382   30.1643 H   0  0  0  0  0  0  0  0  0  0  0  0
   36.6896   18.6679   32.8365 H   0  0  0  0  0  0  0  0  0  0  0  0
   37.9302   19.6207   32.0758 H   0  0  0  0  0  0  0  0  0  0  0  0
   40.5454   21.8925   38.4623 H   0  0  0  0  0  0  0  0  0  0  0  0
   42.6887   20.6444   38.2161 H   0  0  0  0  0  0  0  0  0  0  0  0
   43.6367   20.5496   35.6844 H   0  0  0  0  0  0  0  0  0  0  0  0
  1 12  1  0
  1  2  2  0
  3  2  1  0
  4  3  2  0
  5  6  2  0
  5  4  1  0
  6  1  1  0
  7  5  1  0
  8  7  1  0
  9 10  1  0
  9  8  1  0
 10 11  1  0
 11  7  1  0
 12 13  1  0
 13 14  2  0
 15 14  1  0
 16 15  2  0
 17 16  1  0
 17 13  1  0
  2 18  1  0
  3 19  1  0
  8 20  1  0
  8 21  1  0
  9 22  1  0
  9 23  1  0
 10 24  1  0
 10 25  1  0
 11 26  1  0
 11 27  1  0
 14 28  1  0
 15 29  1  0
 16 30  1  0
M  ISO  8  18  14  19  14  20  13  21  13  22  13  23  13  24  13  25  13
M  ISO  5  26  13  27  13  28  14  29  14  30  14
M  END
>  <minimizedAffinity>  (1) 
-4.23189783

>  <minimizedRMSD>  (1) 
1.86361229

$$$$
