
     RDKit          3D

 32 34  0  0  0  0  0  0  0  0999 V2000
   37.5040   22.3570   35.8450 C   0  0  0  0  0  0  0  0  0  0  0  0
   36.6260   21.8560   36.8400 C   0  0  0  0  0  0  0  0  0  0  0  0
   35.6320   20.9980   36.4250 C   0  0  0  0  0  0  0  0  0  0  0  0
   35.5390   20.6770   35.1200 N   0  0  0  0  0  0  0  0  0  0  0  0
   36.3950   21.1730   34.1870 C   0  0  0  0  0  0  0  0  0  0  0  0
   37.3670   22.0080   34.5640 N   0  0  0  0  0  0  0  0  0  0  0  0
   36.2660   20.8080   32.8050 N   0  0  0  0  0  0  0  0  0  0  0  0
   35.4850   21.4970   31.8030 C   0  0  0  0  0  0  0  0  0  0  0  0
   36.0880   20.9590   30.5220 C   0  0  0  0  0  0  0  0  0  0  0  0
   36.1510   19.4800   30.9230 C   0  0  0  0  0  0  0  0  0  0  0  0
   36.9390   19.6410   32.2120 C   0  0  0  0  0  0  0  0  0  0  0  0
   38.8550   23.4820   36.1810 S   0  0  0  0  0  0  0  0  0  0  0  0
   40.3290   22.4430   36.2680 C   0  0  0  0  0  0  0  0  0  0  0  0
   40.7710   21.9870   37.5080 C   0  0  0  0  0  0  0  0  0  0  0  0
   41.9190   21.1910   37.4690 C   0  0  0  0  0  0  0  0  0  0  0  0
   42.5490   20.8940   36.2810 C   0  0  0  0  0  0  0  0  0  0  0  0
   42.0250   21.4000   35.1050 C   0  0  0  0  0  0  0  0  0  0  0  0
   40.9210   22.1690   35.1130 N   0  0  0  0  0  0  0  0  0  0  0  0
   36.7344   22.1404   37.8971 H   0  0  0  0  0  0  0  0  0  0  0  0
   34.9209   20.5788   37.1521 H   0  0  0  0  0  0  0  0  0  0  0  0
   34.4176   21.2429   31.8816 H   0  0  0  0  0  0  0  0  0  0  0  0
   35.5178   22.5933   31.8865 H   0  0  0  0  0  0  0  0  0  0  0  0
   37.0845   21.3795   30.3214 H   0  0  0  0  0  0  0  0  0  0  0  0
   35.5387   21.1860   29.5964 H   0  0  0  0  0  0  0  0  0  0  0  0
   35.1523   19.0528   31.0963 H   0  0  0  0  0  0  0  0  0  0  0  0
   36.5823   18.7965   30.1768 H   0  0  0  0  0  0  0  0  0  0  0  0
   36.8494   18.7527   32.8545 H   0  0  0  0  0  0  0  0  0  0  0  0
   38.0228   19.7647   32.0699 H   0  0  0  0  0  0  0  0  0  0  0  0
   40.2551   22.2349   38.4473 H   0  0  0  0  0  0  0  0  0  0  0  0
   42.3288   20.7925   38.4088 H   0  0  0  0  0  0  0  0  0  0  0  0
   43.4521   20.2661   36.2675 H   0  0  0  0  0  0  0  0  0  0  0  0
   42.5183   21.1702   34.1490 H   0  0  0  0  0  0  0  0  0  0  0  0
  1 12  1  0
  1  2  2  0
  3  2  1  0
  4  3  2  0
  5  6  2  0
  5  4  1  0
  6  1  1  0
  7  5  1  0
  8  7  1  0
  9 10  1  0
  9  8  1  0
 10 11  1  0
 11  7  1  0
 12 13  1  0
 13 14  2  0
 15 14  1  0
 16 15  2  0
 17 18  2  0
 17 16  1  0
 18 13  1  0
  2 19  1  0
  3 20  1  0
  8 21  1  0
  8 22  1  0
  9 23  1  0
  9 24  1  0
 10 25  1  0
 10 26  1  0
 11 27  1  0
 11 28  1  0
 14 29  1  0
 15 30  1  0
 16 31  1  0
 17 32  1  0
M  ISO  8  19  14  20  14  21  13  22  13  23  13  24  13  25  13  26  13
M  ISO  6  27  13  28  13  29  14  30  14  31  14  32  14
M  END
>  <minimizedAffinity>  (1) 
-4.40661049

>  <minimizedRMSD>  (1) 
1.79603267

$$$$
