
     RDKit          3D

 31 33  0  0  0  0  0  0  0  0999 V2000
   37.5530   22.2510   35.8350 C   0  0  0  0  0  0  0  0  0  0  0  0
   36.6080   21.8230   36.8260 C   0  0  0  0  0  0  0  0  0  0  0  0
   35.5550   21.0270   36.3890 C   0  0  0  0  0  0  0  0  0  0  0  0
   35.4690   20.6990   35.0850 N   0  0  0  0  0  0  0  0  0  0  0  0
   36.3840   21.1220   34.1710 C   0  0  0  0  0  0  0  0  0  0  0  0
   37.4090   21.8890   34.5630 N   0  0  0  0  0  0  0  0  0  0  0  0
   36.2530   20.7510   32.8030 N   0  0  0  0  0  0  0  0  0  0  0  0
   35.5220   21.5000   31.7790 C   0  0  0  0  0  0  0  0  0  0  0  0
   36.1350   20.9420   30.5120 C   0  0  0  0  0  0  0  0  0  0  0  0
   36.0540   19.4580   30.9040 C   0  0  0  0  0  0  0  0  0  0  0  0
   36.8400   19.5490   32.2100 C   0  0  0  0  0  0  0  0  0  0  0  0
   38.9580   23.2690   36.2100 S   0  0  0  0  0  0  0  0  0  0  0  0
   40.4750   22.3530   36.2570 C   0  0  0  0  0  0  0  0  0  0  0  0
   40.9540   21.8140   37.4310 C   0  0  0  0  0  0  0  0  0  0  0  0
   42.1380   21.0930   37.4940 C   0  0  0  0  0  0  0  0  0  0  0  0
   42.8410   20.9190   36.3550 N   0  0  0  0  0  0  0  0  0  0  0  0
   42.3840   21.4450   35.1840 C   0  0  0  0  0  0  0  0  0  0  0  0
   41.2190   22.1500   35.1410 N   0  0  0  0  0  0  0  0  0  0  0  0
   36.7117   22.1112   37.8825 H   0  0  0  0  0  0  0  0  0  0  0  0
   34.7983   20.6680   37.1021 H   0  0  0  0  0  0  0  0  0  0  0  0
   34.4416   21.2986   31.8266 H   0  0  0  0  0  0  0  0  0  0  0  0
   35.6022   22.5928   31.8758 H   0  0  0  0  0  0  0  0  0  0  0  0
   37.1702   21.2815   30.3603 H   0  0  0  0  0  0  0  0  0  0  0  0
   35.6548   21.2284   29.5647 H   0  0  0  0  0  0  0  0  0  0  0  0
   35.0181   19.1233   31.0620 H   0  0  0  0  0  0  0  0  0  0  0  0
   36.4278   18.7381   30.1611 H   0  0  0  0  0  0  0  0  0  0  0  0
   36.6762   18.6644   32.8430 H   0  0  0  0  0  0  0  0  0  0  0  0
   37.9316   19.5923   32.0814 H   0  0  0  0  0  0  0  0  0  0  0  0
   40.3751   21.9610   38.3547 H   0  0  0  0  0  0  0  0  0  0  0  0
   42.4941   20.6744   38.4469 H   0  0  0  0  0  0  0  0  0  0  0  0
   42.9637   21.2984   34.2607 H   0  0  0  0  0  0  0  0  0  0  0  0
  1 12  1  0
  1  2  2  0
  3  2  1  0
  4  3  2  0
  5  6  2  0
  5  4  1  0
  6  1  1  0
  7  5  1  0
  8  7  1  0
  9 10  1  0
  9  8  1  0
 10 11  1  0
 11  7  1  0
 12 13  1  0
 13 14  2  0
 14 15  1  0
 16 15  2  0
 17 16  1  0
 18 17  2  0
 18 13  1  0
  2 19  1  0
  3 20  1  0
  8 21  1  0
  8 22  1  0
  9 23  1  0
  9 24  1  0
 10 25  1  0
 10 26  1  0
 11 27  1  0
 11 28  1  0
 14 29  1  0
 15 30  1  0
 17 31  1  0
M  ISO  8  19  14  20  14  21  13  22  13  23  13  24  13  25  13  26  13
M  ISO  5  27  13  28  13  29  14  30  14  31  14
M  END
>  <minimizedAffinity>  (1) 
-4.22869873

>  <minimizedRMSD>  (1) 
1.96823859

$$$$
