
     RDKit          3D

 38 40  0  0  0  0  0  0  0  0999 V2000
   37.5650   22.1460   35.7600 C   0  0  0  0  0  0  0  0  0  0  0  0
   36.6020   21.7700   36.7330 C   0  0  0  0  0  0  0  0  0  0  0  0
   35.5380   21.0140   36.2930 C   0  0  0  0  0  0  0  0  0  0  0  0
   35.4730   20.6790   34.9930 N   0  0  0  0  0  0  0  0  0  0  0  0
   36.3940   21.0420   34.0800 C   0  0  0  0  0  0  0  0  0  0  0  0
   37.4400   21.7800   34.4840 N   0  0  0  0  0  0  0  0  0  0  0  0
   36.2760   20.6600   32.7130 N   0  0  0  0  0  0  0  0  0  0  0  0
   35.6160   21.4060   31.6620 C   0  0  0  0  0  0  0  0  0  0  0  0
   36.2310   20.7850   30.4170 C   0  0  0  0  0  0  0  0  0  0  0  0
   36.0670   19.3160   30.8450 C   0  0  0  0  0  0  0  0  0  0  0  0
   36.8290   19.4100   32.1680 C   0  0  0  0  0  0  0  0  0  0  0  0
   39.0140   23.1330   36.1270 S   0  0  0  0  0  0  0  0  0  0  0  0
   42.8740   20.9780   35.8920 N   0  0  0  0  0  0  0  0  0  0  0  0
   42.2520   21.2100   34.6020 C   0  0  0  0  0  0  0  0  0  0  0  0
   40.9880   22.0080   34.7280 C   0  0  0  0  0  0  0  0  0  0  0  0
   40.5200   22.1350   36.1770 C   0  0  0  0  0  0  0  0  0  0  0  0
   41.6250   22.7910   36.9530 C   0  0  0  0  0  0  0  0  0  0  0  0
   42.9840   22.2890   36.5260 C   0  0  0  0  0  0  0  0  0  0  0  0
   36.7008   22.0680   37.7873 H   0  0  0  0  0  0  0  0  0  0  0  0
   34.7546   20.6898   36.9938 H   0  0  0  0  0  0  0  0  0  0  0  0
   34.5262   21.2586   31.6881 H   0  0  0  0  0  0  0  0  0  0  0  0
   35.7505   22.4954   31.7330 H   0  0  0  0  0  0  0  0  0  0  0  0
   37.2849   21.0692   30.2808 H   0  0  0  0  0  0  0  0  0  0  0  0
   35.7873   21.0707   29.4519 H   0  0  0  0  0  0  0  0  0  0  0  0
   35.0128   19.0361   30.9875 H   0  0  0  0  0  0  0  0  0  0  0  0
   36.4195   18.5569   30.1311 H   0  0  0  0  0  0  0  0  0  0  0  0
   36.6131   18.5522   32.8219 H   0  0  0  0  0  0  0  0  0  0  0  0
   37.9242   19.4016   32.0657 H   0  0  0  0  0  0  0  0  0  0  0  0
   43.8074   20.5600   35.7695 H   0  0  0  0  0  0  0  0  0  0  0  0
   42.0159   20.2396   34.1410 H   0  0  0  0  0  0  0  0  0  0  0  0
   42.9568   21.7821   33.9807 H   0  0  0  0  0  0  0  0  0  0  0  0
   41.1651   23.0159   34.3246 H   0  0  0  0  0  0  0  0  0  0  0  0
   40.2020   21.4811   34.1672 H   0  0  0  0  0  0  0  0  0  0  0  0
   40.2982   21.1739   36.6639 H   0  0  0  0  0  0  0  0  0  0  0  0
   41.5790   23.8777   36.7889 H   0  0  0  0  0  0  0  0  0  0  0  0
   41.4884   22.5460   38.0166 H   0  0  0  0  0  0  0  0  0  0  0  0
   43.6337   22.2092   37.4101 H   0  0  0  0  0  0  0  0  0  0  0  0
   43.4112   22.9977   35.8013 H   0  0  0  0  0  0  0  0  0  0  0  0
  1 12  1  0
  1  2  2  0
  3  2  1  0
  4  3  2  0
  5  6  2  0
  5  4  1  0
  6  1  1  0
  7  5  1  0
  8  7  1  0
  9 10  1  0
  9  8  1  0
 10 11  1  0
 11  7  1  0
 12 16  1  0
 13 18  1  0
 14 15  1  0
 14 13  1  0
 15 16  1  0
 16 17  1  0
 18 17  1  0
  2 19  1  0
  3 20  1  0
  8 21  1  0
  8 22  1  0
  9 23  1  0
  9 24  1  0
 10 25  1  0
 10 26  1  0
 11 27  1  0
 11 28  1  0
 13 29  1  0
 14 30  1  0
 14 31  1  0
 15 32  1  0
 15 33  1  0
 16 34  1  0
 17 35  1  0
 17 36  1  0
 18 37  1  0
 18 38  1  0
M  ISO  8  19  14  20  14  21  13  22  13  23  13  24  13  25  13  26  13
M  ISO  8  27  13  28  13  29   5  30  13  31  13  32  13  33  13  34  13
M  ISO  4  35  13  36  13  37  13  38  13
M  END
>  <minimizedAffinity>  (1) 
-3.93220782

>  <minimizedRMSD>  (1) 
1.88783753

$$$$
