
     RDKit          3D

 32 33  0  0  0  0  0  0  0  0999 V2000
   37.5730   22.0360   35.7710 C   0  0  0  0  0  0  0  0  0  0  0  0
   36.5620   21.6730   36.6920 C   0  0  0  0  0  0  0  0  0  0  0  0
   35.4720   20.9590   36.1950 C   0  0  0  0  0  0  0  0  0  0  0  0
   35.4530   20.6620   34.8750 N   0  0  0  0  0  0  0  0  0  0  0  0
   36.4340   21.0230   34.0200 C   0  0  0  0  0  0  0  0  0  0  0  0
   37.4860   21.7100   34.4850 N   0  0  0  0  0  0  0  0  0  0  0  0
   36.3620   20.6800   32.6430 N   0  0  0  0  0  0  0  0  0  0  0  0
   35.7610   21.4580   31.5820 C   0  0  0  0  0  0  0  0  0  0  0  0
   36.3900   20.8610   30.3410 C   0  0  0  0  0  0  0  0  0  0  0  0
   36.2220   19.3920   30.7230 C   0  0  0  0  0  0  0  0  0  0  0  0
   36.9040   19.4390   32.0680 C   0  0  0  0  0  0  0  0  0  0  0  0
   39.0300   22.9360   36.2370 S   0  0  0  0  0  0  0  0  0  0  0  0
   38.6430   24.5840   36.8850 C   0  0  0  0  0  0  0  0  0  0  0  0
   37.6490   25.3010   35.9800 C   0  0  0  0  0  0  0  0  0  0  0  0
   37.9810   24.3970   38.2240 C   0  0  0  0  0  0  0  0  0  0  0  0
   36.6329   21.9428   37.7560 H   0  0  0  0  0  0  0  0  0  0  0  0
   34.6512   20.6462   36.8571 H   0  0  0  0  0  0  0  0  0  0  0  0
   34.6677   21.3373   31.5709 H   0  0  0  0  0  0  0  0  0  0  0  0
   35.9303   22.5403   31.6820 H   0  0  0  0  0  0  0  0  0  0  0  0
   37.4462   21.1465   30.2276 H   0  0  0  0  0  0  0  0  0  0  0  0
   35.9568   21.1680   29.3776 H   0  0  0  0  0  0  0  0  0  0  0  0
   35.1640   19.1018   30.8033 H   0  0  0  0  0  0  0  0  0  0  0  0
   36.6231   18.6603   30.0063 H   0  0  0  0  0  0  0  0  0  0  0  0
   36.6387   18.5652   32.6813 H   0  0  0  0  0  0  0  0  0  0  0  0
   38.0023   19.4203   32.0091 H   0  0  0  0  0  0  0  0  0  0  0  0
   39.5677   25.1762   36.9503 H   0  0  0  0  0  0  0  0  0  0  0  0
   36.9101   25.8340   36.5965 H   0  0  0  0  0  0  0  0  0  0  0  0
   38.1850   26.0218   35.3450 H   0  0  0  0  0  0  0  0  0  0  0  0
   37.1342   24.5649   35.3450 H   0  0  0  0  0  0  0  0  0  0  0  0
   38.7075   24.6022   39.0241 H   0  0  0  0  0  0  0  0  0  0  0  0
   37.1317   25.0904   38.3132 H   0  0  0  0  0  0  0  0  0  0  0  0
   37.6200   23.3617   38.3132 H   0  0  0  0  0  0  0  0  0  0  0  0
  1 12  1  0
  1  2  2  0
  3  2  1  0
  4  3  2  0
  5  6  2  0
  5  4  1  0
  6  1  1  0
  7  5  1  0
  8  7  1  0
  9 10  1  0
  9  8  1  0
 10 11  1  0
 11  7  1  0
 12 13  1  0
 13 15  1  0
 14 13  1  0
  2 16  1  0
  3 17  1  0
  8 18  1  0
  8 19  1  0
  9 20  1  0
  9 21  1  0
 10 22  1  0
 10 23  1  0
 11 24  1  0
 11 25  1  0
 13 26  1  0
 14 27  1  0
 14 28  1  0
 14 29  1  0
 15 30  1  0
 15 31  1  0
 15 32  1  0
M  ISO  8  16  14  17  14  18  13  19  13  20  13  21  13  22  13  23  13
M  ISO  8  24  13  25  13  26   8  27   8  28   8  29   8  30   8  31   8
M  ISO  1  32   8
M  END
>  <minimizedAffinity>  (1) 
-3.7158761

>  <minimizedRMSD>  (1) 
1.50573754

$$$$
