
     RDKit          3D

 28 30  0  0  0  0  0  0  0  0999 V2000
   37.5020   23.3800   32.6640 C   0  0  0  0  0  0  0  0  0  0  0  0
   37.5830   24.7670   32.5380 C   0  0  0  0  0  0  0  0  0  0  0  0
   36.5500   25.4330   31.8930 C   0  0  0  0  0  0  0  0  0  0  0  0
   35.5090   24.6950   31.4150 N   0  0  0  0  0  0  0  0  0  0  0  0
   35.4440   23.3560   31.5440 C   0  0  0  0  0  0  0  0  0  0  0  0
   36.4500   22.7000   32.1740 N   0  0  0  0  0  0  0  0  0  0  0  0
   36.5650   26.8630   31.7340 N   0  0  0  0  0  0  0  0  0  0  0  0
   36.4070   27.6580   32.8240 C   0  0  0  0  0  0  0  0  0  0  0  0
   36.4710   28.9330   32.3150 C   0  0  0  0  0  0  0  0  0  0  0  0
   36.6590   28.8730   30.9780 N   0  0  0  0  0  0  0  0  0  0  0  0
   36.7190   27.5650   30.6100 C   0  0  0  0  0  0  0  0  0  0  0  0
   38.6970   25.4880   33.0560 N   0  0  0  0  0  0  0  0  0  0  0  0
   38.8650   25.9500   34.3130 C   0  0  0  0  0  0  0  0  0  0  0  0
   40.0230   26.6340   34.6340 C   0  0  0  0  0  0  0  0  0  0  0  0
   40.9910   26.8350   33.6670 C   0  0  0  0  0  0  0  0  0  0  0  0
   42.1720   27.5520   34.0550 N   0  0  0  0  0  0  0  0  0  0  0  0
   40.8100   26.3640   32.4020 N   0  0  0  0  0  0  0  0  0  0  0  0
   39.6750   25.7070   32.1340 C   0  0  0  0  0  0  0  0  0  0  0  0
   39.6060   25.3120   30.9290 O   0  0  0  0  0  0  0  0  0  0  0  0
   38.3108   22.8341   33.1718 H   0  0  0  0  0  0  0  0  0  0  0  0
   34.5838   22.8002   31.1425 H   0  0  0  0  0  0  0  0  0  0  0  0
   36.2616   27.3524   33.8706 H   0  0  0  0  0  0  0  0  0  0  0  0
   36.3830   29.8579   32.9039 H   0  0  0  0  0  0  0  0  0  0  0  0
   36.8645   27.1677   29.5946 H   0  0  0  0  0  0  0  0  0  0  0  0
   38.0886   25.7841   35.0743 H   0  0  0  0  0  0  0  0  0  0  0  0
   40.1737   27.0167   35.6542 H   0  0  0  0  0  0  0  0  0  0  0  0
   42.9190   27.7247   33.3671 H   0  0  0  0  0  0  0  0  0  0  0  0
   42.2727   27.8940   35.0213 H   0  0  0  0  0  0  0  0  0  0  0  0
  2  1  2  0
  2 12  1  0
  3  2  1  0
  4  5  1  0
  4  3  2  0
  5  6  2  0
  6  1  1  0
  7  3  1  0
  7  8  1  0
  9  8  2  0
 10  9  1  0
 11 10  2  0
 11  7  1  0
 12 13  1  0
 13 14  2  0
 15 16  1  0
 15 14  1  0
 17 15  2  0
 18 17  1  0
 18 12  1  0
 19 18  2  0
  1 20  1  0
  5 21  1  0
  8 22  1  0
  9 23  1  0
 11 24  1  0
 13 25  1  0
 14 26  1  0
 16 27  1  0
 16 28  1  0
M  ISO  7  20  14  21  14  22  14  23  14  24  14  25  14  26  14
M  END
>  <minimizedAffinity>  (1) 
-4.47618771

>  <minimizedRMSD>  (1) 
6.7357831

$$$$
