
     RDKit          3D

 24 26  0  0  0  0  0  0  0  0999 V2000
   37.5150   21.7670   34.3350 C   0  0  0  0  0  0  0  0  0  0  0  0
   38.0760   22.9180   34.9160 C   0  0  0  0  0  0  0  0  0  0  0  0
   38.0630   24.0960   34.1890 C   0  0  0  0  0  0  0  0  0  0  0  0
   37.5030   24.0650   32.9490 N   0  0  0  0  0  0  0  0  0  0  0  0
   36.9700   22.9480   32.4110 C   0  0  0  0  0  0  0  0  0  0  0  0
   36.9830   21.7960   33.1220 N   0  0  0  0  0  0  0  0  0  0  0  0
   38.6120   25.3090   34.7040 N   0  0  0  0  0  0  0  0  0  0  0  0
   38.0170   25.9640   35.7100 C   0  0  0  0  0  0  0  0  0  0  0  0
   38.8030   27.0620   35.9410 C   0  0  0  0  0  0  0  0  0  0  0  0
   39.8470   27.0570   35.0850 N   0  0  0  0  0  0  0  0  0  0  0  0
   39.7350   25.9470   34.2960 C   0  0  0  0  0  0  0  0  0  0  0  0
   38.6580   22.8760   36.2460 C   0  0  0  0  0  0  0  0  0  0  0  0
   39.9930   22.6210   36.5080 C   0  0  0  0  0  0  0  0  0  0  0  0
   40.2160   22.6540   37.8720 C   0  0  0  0  0  0  0  0  0  0  0  0
   39.0300   22.9260   38.4190 N   0  0  0  0  0  0  0  0  0  0  0  0
   38.1420   23.0510   37.4760 N   0  0  0  0  0  0  0  0  0  0  0  0
   37.5179   20.8228   34.8994 H   0  0  0  0  0  0  0  0  0  0  0  0
   36.5289   22.9733   31.4036 H   0  0  0  0  0  0  0  0  0  0  0  0
   37.0944   25.6806   36.2378 H   0  0  0  0  0  0  0  0  0  0  0  0
   38.6128   27.8293   36.7059 H   0  0  0  0  0  0  0  0  0  0  0  0
   40.4183   25.6349   33.4925 H   0  0  0  0  0  0  0  0  0  0  0  0
   40.7608   22.4221   35.7458 H   0  0  0  0  0  0  0  0  0  0  0  0
   41.1695   22.4906   38.3955 H   0  0  0  0  0  0  0  0  0  0  0  0
   38.8463   23.0219   39.4279 H   0  0  0  0  0  0  0  0  0  0  0  0
  1  2  2  0
  2 12  1  0
  3  7  1  0
  3  2  1  0
  4  3  2  0
  5  4  1  0
  5  6  2  0
  6  1  1  0
  7  8  1  0
  8  9  2  0
 10  9  1  0
 11  7  1  0
 11 10  2  0
 12 13  1  0
 12 16  2  0
 13 14  2  0
 14 15  1  0
 16 15  1  0
  1 17  1  0
  5 18  1  0
  8 19  1  0
  9 20  1  0
 11 21  1  0
 13 22  1  0
 14 23  1  0
 15 24  1  0
M  ISO  8  17  14  18  14  19  14  20  14  21  14  22  14  23  14  24   9
M  END
>  <minimizedAffinity>  (1) 
-4.7704711

>  <minimizedRMSD>  (1) 
3.63512826

$$$$
