
     RDKit          3D

 30 32  0  0  0  0  0  0  0  0999 V2000
   41.9700   24.2690   34.9220 C   0  0  0  0  0  0  0  0  0  0  0  0
   40.6670   24.7690   34.9970 C   0  0  0  0  0  0  0  0  0  0  0  0
   40.4270   26.0920   34.6580 C   0  0  0  0  0  0  0  0  0  0  0  0
   41.4860   26.8530   34.2630 N   0  0  0  0  0  0  0  0  0  0  0  0
   42.7440   26.3490   34.1950 C   0  0  0  0  0  0  0  0  0  0  0  0
   42.9750   25.0460   34.5300 N   0  0  0  0  0  0  0  0  0  0  0  0
   39.1210   26.6630   34.7140 N   0  0  0  0  0  0  0  0  0  0  0  0
   38.1760   26.2790   33.8250 C   0  0  0  0  0  0  0  0  0  0  0  0
   37.0620   27.0150   34.1620 C   0  0  0  0  0  0  0  0  0  0  0  0
   37.3550   27.8050   35.2200 N   0  0  0  0  0  0  0  0  0  0  0  0
   38.6450   27.5820   35.5620 C   0  0  0  0  0  0  0  0  0  0  0  0
   39.5920   23.9360   35.4170 N   0  0  0  0  0  0  0  0  0  0  0  0
   39.0020   23.8970   36.6170 C   0  0  0  0  0  0  0  0  0  0  0  0
   37.9670   23.0250   36.8640 C   0  0  0  0  0  0  0  0  0  0  0  0
   37.3210   22.9880   38.1890 C   0  0  0  0  0  0  0  0  0  0  0  0
   37.5100   22.1650   35.8710 C   0  0  0  0  0  0  0  0  0  0  0  0
   36.5690   21.3690   36.0870 O   0  0  0  0  0  0  0  0  0  0  0  0
   38.1480   22.2520   34.6760 N   0  0  0  0  0  0  0  0  0  0  0  0
   39.1560   23.0990   34.4310 C   0  0  0  0  0  0  0  0  0  0  0  0
   39.6250   23.0350   33.2610 O   0  0  0  0  0  0  0  0  0  0  0  0
   42.1662   23.2205   35.1904 H   0  0  0  0  0  0  0  0  0  0  0  0
   43.5770   26.9899   33.8702 H   0  0  0  0  0  0  0  0  0  0  0  0
   38.2755   25.5428   33.0137 H   0  0  0  0  0  0  0  0  0  0  0  0
   36.0886   26.9679   33.6518 H   0  0  0  0  0  0  0  0  0  0  0  0
   39.1975   28.0646   36.3816 H   0  0  0  0  0  0  0  0  0  0  0  0
   39.3484   24.5698   37.4153 H   0  0  0  0  0  0  0  0  0  0  0  0
   38.0907   23.0321   38.9736 H   0  0  0  0  0  0  0  0  0  0  0  0
   36.6438   23.8488   38.2909 H   0  0  0  0  0  0  0  0  0  0  0  0
   36.7465   22.0555   38.2909 H   0  0  0  0  0  0  0  0  0  0  0  0
   37.8393   21.6312   33.9143 H   0  0  0  0  0  0  0  0  0  0  0  0
  1  2  2  0
  2 12  1  0
  3  7  1  0
  3  2  1  0
  4  3  2  0
  5  4  1  0
  5  6  2  0
  6  1  1  0
  7 11  1  0
  8  9  2  0
  8  7  1  0
  9 10  1  0
 10 11  2  0
 12 13  1  0
 13 14  2  0
 14 15  1  0
 16 17  2  0
 16 14  1  0
 18 16  1  0
 19 18  1  0
 19 12  1  0
 20 19  2  0
  1 21  1  0
  5 22  1  0
  8 23  1  0
  9 24  1  0
 11 25  1  0
 13 26  1  0
 15 27  1  0
 15 28  1  0
 15 29  1  0
 18 30  1  0
M  ISO  8  21  14  22  14  23  14  24  14  25  14  26  14  27   8  28   8
M  ISO  2  29   8  30   9
M  END
>  <minimizedAffinity>  (1) 
-4.49166584

>  <minimizedRMSD>  (1) 
4.29694796

$$$$
