
     RDKit          3D

 24 26  0  0  0  0  0  0  0  0999 V2000
   37.4650   21.8750   34.5660 C   0  0  0  0  0  0  0  0  0  0  0  0
   38.0360   23.0670   35.0780 C   0  0  0  0  0  0  0  0  0  0  0  0
   38.1100   24.1210   34.1930 C   0  0  0  0  0  0  0  0  0  0  0  0
   37.6510   23.9530   32.9360 N   0  0  0  0  0  0  0  0  0  0  0  0
   37.1150   22.8190   32.4630 C   0  0  0  0  0  0  0  0  0  0  0  0
   37.0250   21.7700   33.3010 N   0  0  0  0  0  0  0  0  0  0  0  0
   38.6270   25.3940   34.5930 N   0  0  0  0  0  0  0  0  0  0  0  0
   37.9390   26.2050   35.4510 C   0  0  0  0  0  0  0  0  0  0  0  0
   38.7390   27.3130   35.5920 C   0  0  0  0  0  0  0  0  0  0  0  0
   39.8550   27.1740   34.8510 N   0  0  0  0  0  0  0  0  0  0  0  0
   39.8010   25.9610   34.2100 C   0  0  0  0  0  0  0  0  0  0  0  0
   38.4850   23.0500   36.4390 C   0  0  0  0  0  0  0  0  0  0  0  0
   37.9390   23.3420   37.6570 C   0  0  0  0  0  0  0  0  0  0  0  0
   38.8240   23.2040   38.6500 N   0  0  0  0  0  0  0  0  0  0  0  0
   39.9920   22.8110   38.0860 C   0  0  0  0  0  0  0  0  0  0  0  0
   39.7480   22.7310   36.7670 N   0  0  0  0  0  0  0  0  0  0  0  0
   37.3788   21.0023   35.2300 H   0  0  0  0  0  0  0  0  0  0  0  0
   36.7604   22.7483   31.4241 H   0  0  0  0  0  0  0  0  0  0  0  0
   36.9639   26.0137   35.9227 H   0  0  0  0  0  0  0  0  0  0  0  0
   38.5026   28.1858   36.2184 H   0  0  0  0  0  0  0  0  0  0  0  0
   40.5523   25.5363   33.5279 H   0  0  0  0  0  0  0  0  0  0  0  0
   36.8944   23.6539   37.8035 H   0  0  0  0  0  0  0  0  0  0  0  0
   40.9414   22.6013   38.6005 H   0  0  0  0  0  0  0  0  0  0  0  0
   40.4591   22.4526   36.0758 H   0  0  0  0  0  0  0  0  0  0  0  0
  1  2  2  0
  2 12  1  0
  3  7  1  0
  3  2  1  0
  4  3  2  0
  5  4  1  0
  5  6  2  0
  6  1  1  0
  7  8  1  0
  8  9  2  0
 10  9  1  0
 11  7  1  0
 11 10  2  0
 12 16  1  0
 12 13  2  0
 13 14  1  0
 15 14  2  0
 16 15  1  0
  1 17  1  0
  5 18  1  0
  8 19  1  0
  9 20  1  0
 11 21  1  0
 13 22  1  0
 15 23  1  0
 16 24  1  0
M  ISO  8  17  14  18  14  19  14  20  14  21  14  22  14  23  14  24   9
M  END
>  <minimizedAffinity>  (1) 
-4.33958006

>  <minimizedRMSD>  (1) 
3.62169385

$$$$
