
     RDKit          3D

 27 29  0  0  0  0  0  0  0  0999 V2000
   37.9150   24.8320   37.1070 C   0  0  0  0  0  0  0  0  0  0  0  0
   38.9210   24.4750   36.1840 C   0  0  0  0  0  0  0  0  0  0  0  0
   39.7930   23.4690   36.5640 C   0  0  0  0  0  0  0  0  0  0  0  0
   39.6200   22.9080   37.7720 N   0  0  0  0  0  0  0  0  0  0  0  0
   38.6620   23.2500   38.6470 C   0  0  0  0  0  0  0  0  0  0  0  0
   37.8060   24.2260   38.2960 N   0  0  0  0  0  0  0  0  0  0  0  0
   40.8460   23.0390   35.7040 N   0  0  0  0  0  0  0  0  0  0  0  0
   40.6010   22.3620   34.5660 C   0  0  0  0  0  0  0  0  0  0  0  0
   41.8150   22.1180   34.0050 C   0  0  0  0  0  0  0  0  0  0  0  0
   42.7710   22.6340   34.7810 N   0  0  0  0  0  0  0  0  0  0  0  0
   42.1810   23.2250   35.8710 C   0  0  0  0  0  0  0  0  0  0  0  0
   39.0090   25.1570   34.9010 C   0  0  0  0  0  0  0  0  0  0  0  0
   39.8840   26.2470   34.9960 C   0  0  0  0  0  0  0  0  0  0  0  0
   40.1490   27.0690   33.9070 C   0  0  0  0  0  0  0  0  0  0  0  0
   39.5470   26.8140   32.7120 C   0  0  0  0  0  0  0  0  0  0  0  0
   38.6860   25.7420   32.6170 C   0  0  0  0  0  0  0  0  0  0  0  0
   38.4110   24.9190   33.6830 C   0  0  0  0  0  0  0  0  0  0  0  0
   37.2028   25.6277   36.8432 H   0  0  0  0  0  0  0  0  0  0  0  0
   38.5793   22.7473   39.6219 H   0  0  0  0  0  0  0  0  0  0  0  0
   39.6180   22.0664   34.1706 H   0  0  0  0  0  0  0  0  0  0  0  0
   41.9832   21.5801   33.0604 H   0  0  0  0  0  0  0  0  0  0  0  0
   42.6832   23.7400   36.7032 H   0  0  0  0  0  0  0  0  0  0  0  0
   40.3742   26.4579   35.9579 H   0  0  0  0  0  0  0  0  0  0  0  0
   40.8396   27.9190   34.0094 H   0  0  0  0  0  0  0  0  0  0  0  0
   39.7445   27.4524   31.8382 H   0  0  0  0  0  0  0  0  0  0  0  0
   38.2005   25.5373   31.6514 H   0  0  0  0  0  0  0  0  0  0  0  0
   37.7166   24.0742   33.5641 H   0  0  0  0  0  0  0  0  0  0  0  0
  1  6  2  0
  2  3  2  0
  2  1  1  0
  3  4  1  0
  4  5  2  0
  6  5  1  0
  7 11  1  0
  7  3  1  0
  8  7  1  0
  9  8  2  0
  9 10  1  0
 10 11  2  0
 12 13  2  0
 12  2  1  0
 14 13  1  0
 15 14  2  0
 16 15  1  0
 16 17  2  0
 17 12  1  0
  1 18  1  0
  5 19  1  0
  8 20  1  0
  9 21  1  0
 11 22  1  0
 13 23  1  0
 14 24  1  0
 15 25  1  0
 16 26  1  0
 17 27  1  0
M  ISO  8  18  14  19  14  20  14  21  14  22  14  23  14  24  14  25  14
M  ISO  2  26  14  27  14
M  END
>  <minimizedAffinity>  (1) 
-4.33228588

>  <minimizedRMSD>  (1) 
5.198843

$$$$
