
     RDKit          3D

 25 27  0  0  0  0  0  0  0  0999 V2000
   38.5680   23.7660   37.2760 C   0  0  0  0  0  0  0  0  0  0  0  0
   39.1340   24.4140   36.1700 C   0  0  0  0  0  0  0  0  0  0  0  0
   40.3970   23.9980   35.7880 C   0  0  0  0  0  0  0  0  0  0  0  0
   40.9980   23.0010   36.5020 N   0  0  0  0  0  0  0  0  0  0  0  0
   40.4210   22.4070   37.5560 C   0  0  0  0  0  0  0  0  0  0  0  0
   39.1870   22.8010   37.9410 N   0  0  0  0  0  0  0  0  0  0  0  0
   41.0750   24.5780   34.6730 N   0  0  0  0  0  0  0  0  0  0  0  0
   40.6520   24.3330   33.4090 C   0  0  0  0  0  0  0  0  0  0  0  0
   41.5090   25.0310   32.5970 C   0  0  0  0  0  0  0  0  0  0  0  0
   42.4060   25.6660   33.3550 N   0  0  0  0  0  0  0  0  0  0  0  0
   42.1550   25.3980   34.6720 C   0  0  0  0  0  0  0  0  0  0  0  0
   38.4260   25.4730   35.4690 C   0  0  0  0  0  0  0  0  0  0  0  0
   38.4310   26.7720   35.9260 C   0  0  0  0  0  0  0  0  0  0  0  0
   37.7870   27.8300   35.3190 C   0  0  0  0  0  0  0  0  0  0  0  0
   37.0840   27.5850   34.1740 N   0  0  0  0  0  0  0  0  0  0  0  0
   37.0680   26.3340   33.7140 C   0  0  0  0  0  0  0  0  0  0  0  0
   37.7110   25.3460   34.3410 N   0  0  0  0  0  0  0  0  0  0  0  0
   37.5647   24.0720   37.6072 H   0  0  0  0  0  0  0  0  0  0  0  0
   40.9456   21.6084   38.1010 H   0  0  0  0  0  0  0  0  0  0  0  0
   39.8018   23.7072   33.0999 H   0  0  0  0  0  0  0  0  0  0  0  0
   41.4645   25.0625   31.4984 H   0  0  0  0  0  0  0  0  0  0  0  0
   42.7112   25.7689   35.5455 H   0  0  0  0  0  0  0  0  0  0  0  0
   38.9929   26.9825   36.8479 H   0  0  0  0  0  0  0  0  0  0  0  0
   37.8382   28.8428   35.7452 H   0  0  0  0  0  0  0  0  0  0  0  0
   36.5100   26.1096   32.7930 H   0  0  0  0  0  0  0  0  0  0  0  0
  1  6  2  0
  2  1  1  0
  3  2  2  0
  3  4  1  0
  4  5  2  0
  5  6  1  0
  7  3  1  0
  8  7  1  0
  9 10  1  0
  9  8  2  0
 10 11  2  0
 11  7  1  0
 12 13  2  0
 12  2  1  0
 14 13  1  0
 15 14  2  0
 16 15  1  0
 16 17  2  0
 17 12  1  0
  1 18  1  0
  5 19  1  0
  8 20  1  0
  9 21  1  0
 11 22  1  0
 13 23  1  0
 14 24  1  0
 16 25  1  0
M  ISO  8  18  14  19  14  20  14  21  14  22  14  23  14  24  14  25  14
M  END
>  <minimizedAffinity>  (1) 
-4.13501215

>  <minimizedRMSD>  (1) 
4.62819052

$$$$
