
     RDKit          3D

 29 30  0  0  0  0  0  0  0  0999 V2000
   40.4930   22.2790   37.6690 C   0  0  0  0  0  0  0  0  0  0  0  0
   39.5640   22.7590   36.7010 C   0  0  0  0  0  0  0  0  0  0  0  0
   39.9420   22.5290   35.3720 C   0  0  0  0  0  0  0  0  0  0  0  0
   41.1080   21.9000   35.1100 N   0  0  0  0  0  0  0  0  0  0  0  0
   41.9600   21.4620   36.0550 C   0  0  0  0  0  0  0  0  0  0  0  0
   41.6340   21.6610   37.3500 N   0  0  0  0  0  0  0  0  0  0  0  0
   39.1140   22.9560   34.2920 N   0  0  0  0  0  0  0  0  0  0  0  0
   37.9470   22.3560   34.0390 C   0  0  0  0  0  0  0  0  0  0  0  0
   37.4190   23.0060   32.9590 C   0  0  0  0  0  0  0  0  0  0  0  0
   38.2570   23.9740   32.5760 N   0  0  0  0  0  0  0  0  0  0  0  0
   39.3460   23.9640   33.4090 C   0  0  0  0  0  0  0  0  0  0  0  0
   38.3370   23.4290   37.1230 C   0  0  0  0  0  0  0  0  0  0  0  0
   38.2380   24.8600   36.6130 C   0  0  0  0  0  0  0  0  0  0  0  0
   37.0600   22.6810   36.9630 C   0  0  0  0  0  0  0  0  0  0  0  0
   38.4730   23.6420   38.6570 C   0  0  0  0  0  0  0  0  0  0  0  0
   40.2588   22.4247   38.7339 H   0  0  0  0  0  0  0  0  0  0  0  0
   42.8969   20.9555   35.7798 H   0  0  0  0  0  0  0  0  0  0  0  0
   37.5027   21.5123   34.5874 H   0  0  0  0  0  0  0  0  0  0  0  0
   36.4569   22.7699   32.4808 H   0  0  0  0  0  0  0  0  0  0  0  0
   40.2210   24.6295   33.3712 H   0  0  0  0  0  0  0  0  0  0  0  0
   38.1902   25.5512   37.4673 H   0  0  0  0  0  0  0  0  0  0  0  0
   39.1221   25.0933   36.0016 H   0  0  0  0  0  0  0  0  0  0  0  0
   37.3301   24.9694   36.0016 H   0  0  0  0  0  0  0  0  0  0  0  0
   36.6493   22.4404   37.9547 H   0  0  0  0  0  0  0  0  0  0  0  0
   36.3396   23.2999   36.4080 H   0  0  0  0  0  0  0  0  0  0  0  0
   37.2475   21.7499   36.4080 H   0  0  0  0  0  0  0  0  0  0  0  0
   37.9544   22.8298   39.1874 H   0  0  0  0  0  0  0  0  0  0  0  0
   39.5374   23.6401   38.9345 H   0  0  0  0  0  0  0  0  0  0  0  0
   38.0234   24.6068   38.9345 H   0  0  0  0  0  0  0  0  0  0  0  0
  2 12  1  0
  2  1  2  0
  3  2  1  0
  4  3  2  0
  4  5  1  0
  5  6  2  0
  6  1  1  0
  7  3  1  0
  8  7  1  0
  9  8  2  0
 10  9  1  0
 10 11  2  0
 11  7  1  0
 12 15  1  0
 13 12  1  0
 14 12  1  0
  1 16  1  0
  5 17  1  0
  8 18  1  0
  9 19  1  0
 11 20  1  0
 13 21  1  0
 13 22  1  0
 13 23  1  0
 14 24  1  0
 14 25  1  0
 14 26  1  0
 15 27  1  0
 15 28  1  0
 15 29  1  0
M  ISO  8  16  14  17  14  18  14  19  14  20  14  21   8  22   8  23   8
M  ISO  6  24   8  25   8  26   8  27   8  28   8  29   8
M  END
>  <minimizedAffinity>  (1) 
-4.06370926

>  <minimizedRMSD>  (1) 
2.36317205

$$$$
