
     RDKit          3D

 20 21  0  0  0  0  0  0  0  0999 V2000
   40.3470   22.3650   37.4750 C   0  0  0  0  0  0  0  0  0  0  0  0
   39.4850   23.3500   36.9940 C   0  0  0  0  0  0  0  0  0  0  0  0
   39.9100   24.1580   35.9540 C   0  0  0  0  0  0  0  0  0  0  0  0
   41.1530   23.9410   35.4610 N   0  0  0  0  0  0  0  0  0  0  0  0
   41.9870   22.9910   35.9220 C   0  0  0  0  0  0  0  0  0  0  0  0
   41.5660   22.1960   36.9470 N   0  0  0  0  0  0  0  0  0  0  0  0
   39.0800   25.1820   35.4100 N   0  0  0  0  0  0  0  0  0  0  0  0
   37.9720   24.8670   34.6920 C   0  0  0  0  0  0  0  0  0  0  0  0
   37.4360   26.0820   34.3360 C   0  0  0  0  0  0  0  0  0  0  0  0
   38.1910   27.0720   34.8200 N   0  0  0  0  0  0  0  0  0  0  0  0
   39.2420   26.5240   35.5070 C   0  0  0  0  0  0  0  0  0  0  0  0
   38.1840   23.4990   37.6000 C   0  0  0  0  0  0  0  0  0  0  0  0
   37.8270   24.3930   38.3990 O   0  0  0  0  0  0  0  0  0  0  0  0
   37.1620   22.6040   37.3240 O   0  0  0  0  0  0  0  0  0  0  0  0
   40.0204   21.7165   38.3013 H   0  0  0  0  0  0  0  0  0  0  0  0
   42.9863   22.8585   35.4818 H   0  0  0  0  0  0  0  0  0  0  0  0
   37.5890   23.8648   34.4494 H   0  0  0  0  0  0  0  0  0  0  0  0
   36.5211   26.2186   33.7408 H   0  0  0  0  0  0  0  0  0  0  0  0
   40.0484   27.0608   36.0281 H   0  0  0  0  0  0  0  0  0  0  0  0
   36.2748   22.7197   37.7478 H   0  0  0  0  0  0  0  0  0  0  0  0
  2  1  2  0
  2 12  1  0
  3  2  1  0
  4  5  1  0
  4  3  2  0
  5  6  2  0
  6  1  1  0
  7 11  1  0
  7  3  1  0
  8  7  1  0
  9  8  2  0
  9 10  1  0
 10 11  2  0
 12 13  2  0
 14 12  1  0
  1 15  1  0
  5 16  1  0
  8 17  1  0
  9 18  1  0
 11 19  1  0
 14 20  1  0
M  ISO  6  15  14  16  14  17  14  18  14  19  14  20   3
M  END
>  <minimizedAffinity>  (1) 
-3.97728443

>  <minimizedRMSD>  (1) 
2.07516026

$$$$
