
     RDKit          3D

 38 41  0  0  0  0  0  0  0  0999 V2000
   38.9620   23.1680   34.0220 C   0  0  0  0  0  0  0  0  0  0  0  0
   39.3420   22.5680   32.8300 C   0  0  0  0  0  0  0  0  0  0  0  0
   38.5700   23.1440   31.8160 C   0  0  0  0  0  0  0  0  0  0  0  0
   37.7710   24.0400   32.3760 N   0  0  0  0  0  0  0  0  0  0  0  0
   38.0050   24.0600   33.7120 N   0  0  0  0  0  0  0  0  0  0  0  0
   41.1020   21.9840   36.7430 C   0  0  0  0  0  0  0  0  0  0  0  0
   40.3920   22.4420   37.8890 C   0  0  0  0  0  0  0  0  0  0  0  0
   39.2180   23.1310   37.6840 C   0  0  0  0  0  0  0  0  0  0  0  0
   38.7820   23.3490   36.4110 N   0  0  0  0  0  0  0  0  0  0  0  0
   39.4860   22.8990   35.3520 C   0  0  0  0  0  0  0  0  0  0  0  0
   40.6390   22.2200   35.5170 N   0  0  0  0  0  0  0  0  0  0  0  0
   38.5280   23.5770   38.9060 C   0  0  0  0  0  0  0  0  0  0  0  0
   37.8790   24.7550   38.6650 F   0  0  0  0  0  0  0  0  0  0  0  0
   39.5150   23.8720   39.8330 F   0  0  0  0  0  0  0  0  0  0  0  0
   37.6210   22.6570   39.3610 F   0  0  0  0  0  0  0  0  0  0  0  0
   36.8140   24.8610   31.6940 C   0  0  0  0  0  0  0  0  0  0  0  0
   35.6100   24.2740   31.3270 C   0  0  0  0  0  0  0  0  0  0  0  0
   34.6890   25.0860   30.6690 C   0  0  0  0  0  0  0  0  0  0  0  0
   34.9810   26.3550   30.4200 N   0  0  0  0  0  0  0  0  0  0  0  0
   36.1550   26.9320   30.7770 C   0  0  0  0  0  0  0  0  0  0  0  0
   37.0480   26.1380   31.4160 N   0  0  0  0  0  0  0  0  0  0  0  0
   36.5120   28.3240   30.5210 C   0  0  0  0  0  0  0  0  0  0  0  0
   36.1400   29.3070   31.4140 C   0  0  0  0  0  0  0  0  0  0  0  0
   36.4540   30.6580   31.2210 C   0  0  0  0  0  0  0  0  0  0  0  0
   37.1630   30.9460   30.0750 C   0  0  0  0  0  0  0  0  0  0  0  0
   37.5550   30.0030   29.1570 C   0  0  0  0  0  0  0  0  0  0  0  0
   37.2200   28.7000   29.3980 C   0  0  0  0  0  0  0  0  0  0  0  0
   40.1063   21.7867   32.7060 H   0  0  0  0  0  0  0  0  0  0  0  0
   38.6177   22.8972   30.7451 H   0  0  0  0  0  0  0  0  0  0  0  0
   42.0431   21.4293   36.8718 H   0  0  0  0  0  0  0  0  0  0  0  0
   40.7691   22.2516   38.9046 H   0  0  0  0  0  0  0  0  0  0  0  0
   35.3939   23.2178   31.5456 H   0  0  0  0  0  0  0  0  0  0  0  0
   33.7184   24.6738   30.3557 H   0  0  0  0  0  0  0  0  0  0  0  0
   35.5748   29.0187   32.3126 H   0  0  0  0  0  0  0  0  0  0  0  0
   36.1545   31.4377   31.9368 H   0  0  0  0  0  0  0  0  0  0  0  0
   37.4314   31.9955   29.8839 H   0  0  0  0  0  0  0  0  0  0  0  0
   38.1202   30.2870   28.2570 H   0  0  0  0  0  0  0  0  0  0  0  0
   37.5238   27.9283   28.6753 H   0  0  0  0  0  0  0  0  0  0  0  0
  1 10  1  0
  2  1  1  0
  3  4  1  0
  3  2  2  0
  4  5  1  0
  5  1  2  0
  6  7  2  0
  8  7  1  0
  8 12  1  0
  9  8  2  0
 10 11  2  0
 10  9  1  0
 11  6  1  0
 12 15  1  0
 12 14  1  0
 13 12  1  0
 16  4  1  0
 17 16  2  0
 18 17  1  0
 19 18  2  0
 19 20  1  0
 20 21  2  0
 21 16  1  0
 22 20  1  0
 22 23  2  0
 24 23  1  0
 25 24  2  0
 26 27  2  0
 26 25  1  0
 27 22  1  0
  2 28  1  0
  3 29  1  0
  6 30  1  0
  7 31  1  0
 17 32  1  0
 18 33  1  0
 23 34  1  0
 24 35  1  0
 25 36  1  0
 26 37  1  0
 27 38  1  0
M  ISO  8  28  14  29  14  30  14  31  14  32  14  33  14  34  14  35  14
M  ISO  3  36  14  37  14  38  14
M  END
>  <minimizedAffinity>  (1) 
-5.8365283

>  <minimizedRMSD>  (1) 
0.326239496

$$$$
