
     RDKit          3D

 24 26  0  0  0  0  0  0  0  0999 V2000
   40.0920   22.6200   36.6210 C   0  0  0  0  0  0  0  0  0  0  0  0
   39.1970   23.7100   36.5190 C   0  0  0  0  0  0  0  0  0  0  0  0
   39.5530   24.7000   35.5910 C   0  0  0  0  0  0  0  0  0  0  0  0
   40.6930   24.5810   34.8580 N   0  0  0  0  0  0  0  0  0  0  0  0
   41.5060   23.5090   35.0070 C   0  0  0  0  0  0  0  0  0  0  0  0
   41.1970   22.5310   35.8930 N   0  0  0  0  0  0  0  0  0  0  0  0
   38.7020   25.8510   35.4190 N   0  0  0  0  0  0  0  0  0  0  0  0
   37.5070   25.7610   34.8310 C   0  0  0  0  0  0  0  0  0  0  0  0
   36.9920   27.0190   34.8430 C   0  0  0  0  0  0  0  0  0  0  0  0
   37.8620   27.8490   35.4270 N   0  0  0  0  0  0  0  0  0  0  0  0
   38.9540   27.1290   35.7990 C   0  0  0  0  0  0  0  0  0  0  0  0
   37.9740   23.8230   37.3140 C   0  0  0  0  0  0  0  0  0  0  0  0
   37.9930   23.1030   38.6890 C   0  0  0  0  0  0  0  0  0  0  0  0
   37.8980   24.6190   38.5400 C   0  0  0  0  0  0  0  0  0  0  0  0
   39.8625   21.8134   37.3328 H   0  0  0  0  0  0  0  0  0  0  0  0
   42.4234   23.4311   34.4051 H   0  0  0  0  0  0  0  0  0  0  0  0
   37.0360   24.8554   34.4211 H   0  0  0  0  0  0  0  0  0  0  0  0
   36.0121   27.3088   34.4357 H   0  0  0  0  0  0  0  0  0  0  0  0
   39.8559   27.5052   36.3040 H   0  0  0  0  0  0  0  0  0  0  0  0
   37.3587   23.8209   36.4022 H   0  0  0  0  0  0  0  0  0  0  0  0
   37.1238   22.5191   39.0260 H   0  0  0  0  0  0  0  0  0  0  0  0
   38.6550   22.3938   39.2074 H   0  0  0  0  0  0  0  0  0  0  0  0
   38.7517   25.2479   38.8328 H   0  0  0  0  0  0  0  0  0  0  0  0
   37.1965   25.3797   38.9133 H   0  0  0  0  0  0  0  0  0  0  0  0
  2  1  2  0
  2 12  1  0
  3  2  1  0
  4  5  1  0
  4  3  2  0
  5  6  2  0
  6  1  1  0
  7  3  1  0
  7 11  1  0
  8  9  2  0
  8  7  1  0
  9 10  1  0
 10 11  2  0
 12 14  1  0
 12 13  1  0
 14 13  1  0
  1 15  1  0
  5 16  1  0
  8 17  1  0
  9 18  1  0
 11 19  1  0
 12 20  1  0
 13 21  1  0
 13 22  1  0
 14 23  1  0
 14 24  1  0
M  ISO  8  15  14  16  14  17  14  18  14  19  14  20  13  21  13  22  13
M  ISO  2  23  13  24  13
M  END
>  <minimizedAffinity>  (1) 
-4.12166834

>  <minimizedRMSD>  (1) 
2.55905795

$$$$
