
     RDKit          3D

 30 32  0  0  0  0  0  0  0  0999 V2000
   37.9910   24.7710   36.9280 C   0  0  0  0  0  0  0  0  0  0  0  0
   39.0570   24.3340   36.1250 C   0  0  0  0  0  0  0  0  0  0  0  0
   39.9080   23.3540   36.6270 C   0  0  0  0  0  0  0  0  0  0  0  0
   39.6640   22.8730   37.8610 N   0  0  0  0  0  0  0  0  0  0  0  0
   38.6350   23.2980   38.6260 C   0  0  0  0  0  0  0  0  0  0  0  0
   37.8020   24.2500   38.1510 N   0  0  0  0  0  0  0  0  0  0  0  0
   41.0070   22.8740   35.8530 N   0  0  0  0  0  0  0  0  0  0  0  0
   40.8210   22.1340   34.7530 C   0  0  0  0  0  0  0  0  0  0  0  0
   42.0780   21.8590   34.2780 C   0  0  0  0  0  0  0  0  0  0  0  0
   43.0020   22.4300   35.0870 N   0  0  0  0  0  0  0  0  0  0  0  0
   42.3260   23.0690   36.0790 C   0  0  0  0  0  0  0  0  0  0  0  0
   39.2860   24.8590   34.8340 N   0  0  0  0  0  0  0  0  0  0  0  0
   40.3180   25.8190   34.4370 C   0  0  0  0  0  0  0  0  0  0  0  0
   39.6880   27.0060   33.7650 C   0  0  0  0  0  0  0  0  0  0  0  0
   38.2860   26.8940   33.8030 O   0  0  0  0  0  0  0  0  0  0  0  0
   37.9650   25.7940   32.9930 C   0  0  0  0  0  0  0  0  0  0  0  0
   38.5280   24.5420   33.6300 C   0  0  0  0  0  0  0  0  0  0  0  0
   37.3061   25.5455   36.5525 H   0  0  0  0  0  0  0  0  0  0  0  0
   38.4764   22.8724   39.6279 H   0  0  0  0  0  0  0  0  0  0  0  0
   39.8615   21.8137   34.3208 H   0  0  0  0  0  0  0  0  0  0  0  0
   42.3012   21.2661   33.3787 H   0  0  0  0  0  0  0  0  0  0  0  0
   42.7691   23.6379   36.9097 H   0  0  0  0  0  0  0  0  0  0  0  0
   40.8655   26.1547   35.3301 H   0  0  0  0  0  0  0  0  0  0  0  0
   41.0105   25.3329   33.7341 H   0  0  0  0  0  0  0  0  0  0  0  0
   40.0214   27.0508   32.7177 H   0  0  0  0  0  0  0  0  0  0  0  0
   39.9909   27.9221   34.2931 H   0  0  0  0  0  0  0  0  0  0  0  0
   38.4033   25.9300   31.9933 H   0  0  0  0  0  0  0  0  0  0  0  0
   36.8729   25.7064   32.8954 H   0  0  0  0  0  0  0  0  0  0  0  0
   37.6985   23.8698   33.8947 H   0  0  0  0  0  0  0  0  0  0  0  0
   39.2041   24.0582   32.9097 H   0  0  0  0  0  0  0  0  0  0  0  0
  1  6  2  0
  2  3  2  0
  2  1  1  0
  3  4  1  0
  4  5  2  0
  6  5  1  0
  7 11  1  0
  7  3  1  0
  8  7  1  0
  9  8  2  0
  9 10  1  0
 10 11  2  0
 12  2  1  0
 13 12  1  0
 14 15  1  0
 14 13  1  0
 16 17  1  0
 16 15  1  0
 17 12  1  0
  1 18  1  0
  5 19  1  0
  8 20  1  0
  9 21  1  0
 11 22  1  0
 13 23  1  0
 13 24  1  0
 14 25  1  0
 14 26  1  0
 16 27  1  0
 16 28  1  0
 17 29  1  0
 17 30  1  0
M  ISO  8  18  14  19  14  20  14  21  14  22  14  23  13  24  13  25  13
M  ISO  5  26  13  27  13  28  13  29  13  30  13
M  END
>  <minimizedAffinity>  (1) 
-3.95377779

>  <minimizedRMSD>  (1) 
5.00282383

$$$$
