
     RDKit          3D

 38 41  0  0  0  0  0  0  0  0999 V2000
   38.9840   23.1920   34.0210 C   0  0  0  0  0  0  0  0  0  0  0  0
   39.3970   22.6380   32.8360 C   0  0  0  0  0  0  0  0  0  0  0  0
   38.6120   23.2000   31.8180 C   0  0  0  0  0  0  0  0  0  0  0  0
   37.7610   24.0630   32.3920 N   0  0  0  0  0  0  0  0  0  0  0  0
   37.9900   24.0540   33.7230 N   0  0  0  0  0  0  0  0  0  0  0  0
   41.1080   22.0000   36.7530 C   0  0  0  0  0  0  0  0  0  0  0  0
   40.3980   22.4480   37.8900 C   0  0  0  0  0  0  0  0  0  0  0  0
   39.2160   23.1430   37.6890 C   0  0  0  0  0  0  0  0  0  0  0  0
   38.7920   23.3640   36.4210 N   0  0  0  0  0  0  0  0  0  0  0  0
   39.5100   22.9120   35.3540 C   0  0  0  0  0  0  0  0  0  0  0  0
   40.6480   22.2420   35.5270 N   0  0  0  0  0  0  0  0  0  0  0  0
   38.5270   23.5810   38.9150 C   0  0  0  0  0  0  0  0  0  0  0  0
   37.8660   24.7450   38.6740 F   0  0  0  0  0  0  0  0  0  0  0  0
   39.5040   23.8720   39.8440 F   0  0  0  0  0  0  0  0  0  0  0  0
   37.6280   22.6580   39.3640 F   0  0  0  0  0  0  0  0  0  0  0  0
   36.7810   24.8540   31.6990 C   0  0  0  0  0  0  0  0  0  0  0  0
   35.6130   24.2410   31.3340 C   0  0  0  0  0  0  0  0  0  0  0  0
   34.6860   25.0560   30.6580 C   0  0  0  0  0  0  0  0  0  0  0  0
   34.9690   26.3320   30.4120 N   0  0  0  0  0  0  0  0  0  0  0  0
   36.1090   26.9200   30.7700 C   0  0  0  0  0  0  0  0  0  0  0  0
   37.0050   26.1330   31.4240 N   0  0  0  0  0  0  0  0  0  0  0  0
   36.4960   28.3100   30.5400 C   0  0  0  0  0  0  0  0  0  0  0  0
   36.1300   29.2390   31.4880 C   0  0  0  0  0  0  0  0  0  0  0  0
   36.4530   30.5940   31.3580 C   0  0  0  0  0  0  0  0  0  0  0  0
   37.1670   30.9590   30.2170 C   0  0  0  0  0  0  0  0  0  0  0  0
   37.5470   30.0330   29.2480 C   0  0  0  0  0  0  0  0  0  0  0  0
   37.2130   28.7040   29.4060 C   0  0  0  0  0  0  0  0  0  0  0  0
   40.1951   21.8920   32.7078 H   0  0  0  0  0  0  0  0  0  0  0  0
   38.6819   22.9738   30.7438 H   0  0  0  0  0  0  0  0  0  0  0  0
   42.0496   21.4461   36.8821 H   0  0  0  0  0  0  0  0  0  0  0  0
   40.7728   22.2507   38.9052 H   0  0  0  0  0  0  0  0  0  0  0  0
   35.4123   23.1821   31.5543 H   0  0  0  0  0  0  0  0  0  0  0  0
   33.7232   24.6358   30.3317 H   0  0  0  0  0  0  0  0  0  0  0  0
   35.5676   28.9063   32.3729 H   0  0  0  0  0  0  0  0  0  0  0  0
   36.1588   31.3338   32.1171 H   0  0  0  0  0  0  0  0  0  0  0  0
   37.4398   32.0154   30.0772 H   0  0  0  0  0  0  0  0  0  0  0  0
   38.1104   30.3599   28.3616 H   0  0  0  0  0  0  0  0  0  0  0  0
   37.5073   27.9626   28.6486 H   0  0  0  0  0  0  0  0  0  0  0  0
  1 10  1  0
  2  1  1  0
  3  4  1  0
  3  2  2  0
  4  5  1  0
  5  1  2  0
  6  7  2  0
  8  7  1  0
  8 12  1  0
  9  8  2  0
 10 11  2  0
 10  9  1  0
 11  6  1  0
 12 15  1  0
 12 14  1  0
 13 12  1  0
 16  4  1  0
 17 16  2  0
 18 17  1  0
 19 18  2  0
 19 20  1  0
 20 21  2  0
 21 16  1  0
 22 20  1  0
 22 23  2  0
 24 23  1  0
 25 24  2  0
 26 27  2  0
 26 25  1  0
 27 22  1  0
  2 28  1  0
  3 29  1  0
  6 30  1  0
  7 31  1  0
 17 32  1  0
 18 33  1  0
 23 34  1  0
 24 35  1  0
 25 36  1  0
 26 37  1  0
 27 38  1  0
M  ISO  8  28  14  29  14  30  14  31  14  32  14  33  14  34  14  35  14
M  ISO  3  36  14  37  14  38  14
M  END
>  <minimizedAffinity>  (1) 
-5.81432486

>  <minimizedRMSD>  (1) 
0.231852904

$$$$
