
     RDKit          3D

 18 19  0  0  0  0  0  0  0  0999 V2000
   41.6570   21.2390   37.6300 C   0  0  0  0  0  0  0  0  0  0  0  0
   40.7460   22.2950   37.4030 C   0  0  0  0  0  0  0  0  0  0  0  0
   40.6570   22.7580   36.0810 C   0  0  0  0  0  0  0  0  0  0  0  0
   41.4180   22.1980   35.1160 N   0  0  0  0  0  0  0  0  0  0  0  0
   42.2800   21.1830   35.3930 C   0  0  0  0  0  0  0  0  0  0  0  0
   42.3900   20.7120   36.6590 N   0  0  0  0  0  0  0  0  0  0  0  0
   39.7580   23.8280   35.7470 N   0  0  0  0  0  0  0  0  0  0  0  0
   38.4160   23.6320   35.7630 C   0  0  0  0  0  0  0  0  0  0  0  0
   37.8920   24.8450   35.3990 C   0  0  0  0  0  0  0  0  0  0  0  0
   38.8810   25.7300   35.1740 N   0  0  0  0  0  0  0  0  0  0  0  0
   40.0630   25.0950   35.3920 C   0  0  0  0  0  0  0  0  0  0  0  0
   39.9560   22.8880   38.3660 O   0  0  0  0  0  0  0  0  0  0  0  0
   41.7619   20.8396   38.6495 H   0  0  0  0  0  0  0  0  0  0  0  0
   42.8885   20.7440   34.5886 H   0  0  0  0  0  0  0  0  0  0  0  0
   37.8717   22.7090   36.0117 H   0  0  0  0  0  0  0  0  0  0  0  0
   36.8181   25.0638   35.3044 H   0  0  0  0  0  0  0  0  0  0  0  0
   41.0699   25.5279   35.2978 H   0  0  0  0  0  0  0  0  0  0  0  0
   39.3430   23.6249   38.1185 H   0  0  0  0  0  0  0  0  0  0  0  0
  2  1  2  0
  2 12  1  0
  3  2  1  0
  4  5  1  0
  4  3  2  0
  5  6  2  0
  6  1  1  0
  7  8  1  0
  7  3  1  0
  9  8  2  0
 10 11  2  0
 10  9  1  0
 11  7  1  0
  1 13  1  0
  5 14  1  0
  8 15  1  0
  9 16  1  0
 11 17  1  0
 12 18  1  0
M  ISO  6  13  14  14  14  15  14  16  14  17  14  18   3
M  END
>  <minimizedAffinity>  (1) 
-3.25287437

>  <minimizedRMSD>  (1) 
0.282937258

$$$$
