
     RDKit          3D

 19 20  0  0  0  0  0  0  0  0999 V2000
   39.8860   22.5410   36.9860 C   0  0  0  0  0  0  0  0  0  0  0  0
   39.0490   23.6550   36.7910 C   0  0  0  0  0  0  0  0  0  0  0  0
   39.4620   24.5980   35.8320 C   0  0  0  0  0  0  0  0  0  0  0  0
   40.6120   24.3840   35.1690 N   0  0  0  0  0  0  0  0  0  0  0  0
   41.3990   23.3070   35.3740 C   0  0  0  0  0  0  0  0  0  0  0  0
   41.0300   22.3720   36.2970 N   0  0  0  0  0  0  0  0  0  0  0  0
   38.6730   25.7550   35.5760 N   0  0  0  0  0  0  0  0  0  0  0  0
   37.4850   25.6750   34.9660 C   0  0  0  0  0  0  0  0  0  0  0  0
   37.0110   26.9530   34.8860 C   0  0  0  0  0  0  0  0  0  0  0  0
   37.9040   27.7800   35.4390 N   0  0  0  0  0  0  0  0  0  0  0  0
   38.9690   27.0410   35.8840 C   0  0  0  0  0  0  0  0  0  0  0  0
   37.8360   23.8140   37.5360 C   0  0  0  0  0  0  0  0  0  0  0  0
   37.7320   24.3630   38.6640 O   0  0  0  0  0  0  0  0  0  0  0  0
   39.5955   21.7819   37.7272 H   0  0  0  0  0  0  0  0  0  0  0  0
   42.3303   23.1838   34.8018 H   0  0  0  0  0  0  0  0  0  0  0  0
   36.9896   24.7628   34.6020 H   0  0  0  0  0  0  0  0  0  0  0  0
   36.0514   27.2530   34.4396 H   0  0  0  0  0  0  0  0  0  0  0  0
   39.8741   27.4136   36.3859 H   0  0  0  0  0  0  0  0  0  0  0  0
   36.9139   23.4217   37.0824 H   0  0  0  0  0  0  0  0  0  0  0  0
  2  1  2  0
  2 12  1  0
  3  2  1  0
  4  5  1  0
  4  3  2  0
  5  6  2  0
  6  1  1  0
  7  3  1  0
  7 11  1  0
  8  7  1  0
  9  8  2  0
  9 10  1  0
 10 11  2  0
 12 13  2  0
  1 14  1  0
  5 15  1  0
  8 16  1  0
  9 17  1  0
 11 18  1  0
 12 19  1  0
M  ISO  6  14  14  15  14  16  14  17  14  18  14  19   6
M  END
>  <minimizedAffinity>  (1) 
-3.67623973

>  <minimizedRMSD>  (1) 
2.44478869

$$$$
