
     RDKit          3D

 33 35  0  0  0  0  0  0  0  0999 V2000
   40.2640   22.3740   37.2610 C   0  0  0  0  0  0  0  0  0  0  0  0
   39.7840   23.4050   36.4440 C   0  0  0  0  0  0  0  0  0  0  0  0
   40.6900   24.0810   35.6260 C   0  0  0  0  0  0  0  0  0  0  0  0
   41.9770   23.7000   35.6730 N   0  0  0  0  0  0  0  0  0  0  0  0
   42.4390   22.7080   36.4590 C   0  0  0  0  0  0  0  0  0  0  0  0
   41.5430   22.0420   37.2660 N   0  0  0  0  0  0  0  0  0  0  0  0
   40.2610   25.1320   34.7790 N   0  0  0  0  0  0  0  0  0  0  0  0
   39.5090   24.9000   33.7030 C   0  0  0  0  0  0  0  0  0  0  0  0
   39.2780   26.0960   33.1220 C   0  0  0  0  0  0  0  0  0  0  0  0
   39.8900   27.0570   33.8480 N   0  0  0  0  0  0  0  0  0  0  0  0
   40.5120   26.4510   34.8970 C   0  0  0  0  0  0  0  0  0  0  0  0
   38.3650   23.8160   36.4010 C   0  0  0  0  0  0  0  0  0  0  0  0
   37.4560   22.6790   36.8250 C   0  0  0  0  0  0  0  0  0  0  0  0
   36.9510   21.9160   35.6890 N   0  0  0  0  0  0  0  0  0  0  0  0
   37.4210   21.9430   34.4330 C   0  0  0  0  0  0  0  0  0  0  0  0
   36.8240   21.1580   33.4840 C   0  0  0  0  0  0  0  0  0  0  0  0
   35.7550   20.3270   33.7370 C   0  0  0  0  0  0  0  0  0  0  0  0
   35.2860   19.6530   32.7980 O   0  0  0  0  0  0  0  0  0  0  0  0
   35.3100   20.3300   35.0260 N   0  0  0  0  0  0  0  0  0  0  0  0
   35.9090   21.1090   35.9470 C   0  0  0  0  0  0  0  0  0  0  0  0
   35.3960   21.0140   37.0960 O   0  0  0  0  0  0  0  0  0  0  0  0
   39.5629   21.8301   37.9111 H   0  0  0  0  0  0  0  0  0  0  0  0
   43.5050   22.4367   36.4564 H   0  0  0  0  0  0  0  0  0  0  0  0
   39.1463   23.9214   33.3554 H   0  0  0  0  0  0  0  0  0  0  0  0
   38.6886   26.2611   32.2080 H   0  0  0  0  0  0  0  0  0  0  0  0
   41.1026   26.9412   35.6850 H   0  0  0  0  0  0  0  0  0  0  0  0
   38.2166   24.6677   37.0811 H   0  0  0  0  0  0  0  0  0  0  0  0
   38.1136   24.0987   35.3681 H   0  0  0  0  0  0  0  0  0  0  0  0
   38.0210   22.0016   37.4821 H   0  0  0  0  0  0  0  0  0  0  0  0
   36.5914   23.1175   37.3447 H   0  0  0  0  0  0  0  0  0  0  0  0
   38.2735   22.5864   34.1696 H   0  0  0  0  0  0  0  0  0  0  0  0
   37.2213   21.1928   32.4588 H   0  0  0  0  0  0  0  0  0  0  0  0
   34.5138   19.7350   35.2959 H   0  0  0  0  0  0  0  0  0  0  0  0
  1  6  2  0
  2  1  1  0
  3  4  1  0
  3  2  2  0
  4  5  2  0
  5  6  1  0
  7 11  1  0
  7  3  1  0
  8  7  1  0
  9  8  2  0
  9 10  1  0
 10 11  2  0
 12  2  1  0
 12 13  1  0
 14 20  1  0
 14 13  1  0
 15 14  1  0
 16 17  1  0
 16 15  2  0
 17 19  1  0
 18 17  2  0
 19 20  1  0
 20 21  2  0
  1 22  1  0
  5 23  1  0
  8 24  1  0
  9 25  1  0
 11 26  1  0
 12 27  1  0
 12 28  1  0
 13 29  1  0
 13 30  1  0
 15 31  1  0
 16 32  1  0
 19 33  1  0
M  ISO  8  22  14  23  14  24  14  25  14  26  14  27   8  28   8  29   8
M  ISO  4  30   8  31  14  32  14  33   9
M  END
>  <minimizedAffinity>  (1) 
-5.05985212

>  <minimizedRMSD>  (1) 
4.7162652

$$$$
