
     RDKit          3D

 30 32  0  0  0  0  0  0  0  0999 V2000
   40.8650   24.4140   35.2830 C   0  0  0  0  0  0  0  0  0  0  0  0
   39.6120   24.7440   34.7470 C   0  0  0  0  0  0  0  0  0  0  0  0
   39.5540   25.7610   33.7910 C   0  0  0  0  0  0  0  0  0  0  0  0
   40.6970   26.3600   33.4440 N   0  0  0  0  0  0  0  0  0  0  0  0
   41.9070   26.0400   33.9630 C   0  0  0  0  0  0  0  0  0  0  0  0
   41.9610   25.0410   34.9020 N   0  0  0  0  0  0  0  0  0  0  0  0
   38.3210   26.1380   33.2120 N   0  0  0  0  0  0  0  0  0  0  0  0
   37.6620   25.3150   32.3660 C   0  0  0  0  0  0  0  0  0  0  0  0
   36.5360   25.9600   31.9950 C   0  0  0  0  0  0  0  0  0  0  0  0
   36.5050   27.1650   32.6080 N   0  0  0  0  0  0  0  0  0  0  0  0
   37.6280   27.2770   33.3720 C   0  0  0  0  0  0  0  0  0  0  0  0
   38.3550   24.0760   35.1430 C   0  0  0  0  0  0  0  0  0  0  0  0
   37.7840   24.7300   36.3950 C   0  0  0  0  0  0  0  0  0  0  0  0
   37.6960   23.7620   37.5400 C   0  0  0  0  0  0  0  0  0  0  0  0
   38.0530   24.3870   38.9140 C   0  0  0  0  0  0  0  0  0  0  0  0
   38.8680   23.3200   38.3210 C   0  0  0  0  0  0  0  0  0  0  0  0
   40.9353   23.6159   36.0367 H   0  0  0  0  0  0  0  0  0  0  0  0
   42.8184   26.5652   33.6413 H   0  0  0  0  0  0  0  0  0  0  0  0
   37.9816   24.3134   32.0425 H   0  0  0  0  0  0  0  0  0  0  0  0
   35.7705   25.5702   31.3080 H   0  0  0  0  0  0  0  0  0  0  0  0
   37.9120   28.1351   33.9989 H   0  0  0  0  0  0  0  0  0  0  0  0
   37.6253   24.1598   34.3242 H   0  0  0  0  0  0  0  0  0  0  0  0
   38.5623   23.0165   35.3540 H   0  0  0  0  0  0  0  0  0  0  0  0
   38.4339   25.5682   36.6867 H   0  0  0  0  0  0  0  0  0  0  0  0
   36.7669   25.0796   36.1642 H   0  0  0  0  0  0  0  0  0  0  0  0
   36.8852   23.2018   37.0513 H   0  0  0  0  0  0  0  0  0  0  0  0
   38.4417   25.4144   38.9713 H   0  0  0  0  0  0  0  0  0  0  0  0
   37.5293   24.5382   39.8694 H   0  0  0  0  0  0  0  0  0  0  0  0
   38.8651   22.3203   38.7798 H   0  0  0  0  0  0  0  0  0  0  0  0
   39.9393   23.2269   38.0896 H   0  0  0  0  0  0  0  0  0  0  0  0
  2 12  1  0
  2  1  2  0
  3  2  1  0
  4  3  2  0
  4  5  1  0
  5  6  2  0
  6  1  1  0
  7 11  1  0
  7  3  1  0
  8  7  1  0
  9  8  2  0
  9 10  1  0
 10 11  2  0
 12 13  1  0
 13 14  1  0
 14 16  1  0
 14 15  1  0
 16 15  1  0
  1 17  1  0
  5 18  1  0
  8 19  1  0
  9 20  1  0
 11 21  1  0
 12 22  1  0
 12 23  1  0
 13 24  1  0
 13 25  1  0
 14 26  1  0
 15 27  1  0
 15 28  1  0
 16 29  1  0
 16 30  1  0
M  ISO  8  17  14  18  14  19  14  20  14  21  14  22   8  23   8  24   8
M  ISO  6  25   8  26  13  27  13  28  13  29  13  30  13
M  END
>  <minimizedAffinity>  (1) 
-3.86220384

>  <minimizedRMSD>  (1) 
2.62247419

$$$$
