
     RDKit          3D

 25 26  0  0  0  0  0  0  0  0999 V2000
   39.9860   22.4230   36.3580 C   0  0  0  0  0  0  0  0  0  0  0  0
   39.1080   23.5010   36.2230 C   0  0  0  0  0  0  0  0  0  0  0  0
   39.5680   24.6360   35.5540 C   0  0  0  0  0  0  0  0  0  0  0  0
   40.8200   24.6190   35.0850 N   0  0  0  0  0  0  0  0  0  0  0  0
   41.6640   23.5850   35.2150 C   0  0  0  0  0  0  0  0  0  0  0  0
   41.2280   22.4740   35.8640 N   0  0  0  0  0  0  0  0  0  0  0  0
   38.7240   25.7710   35.3790 N   0  0  0  0  0  0  0  0  0  0  0  0
   37.6580   25.7140   34.5500 C   0  0  0  0  0  0  0  0  0  0  0  0
   37.0790   26.9320   34.6120 C   0  0  0  0  0  0  0  0  0  0  0  0
   37.7820   27.7120   35.4620 N   0  0  0  0  0  0  0  0  0  0  0  0
   38.8080   26.9790   35.9370 C   0  0  0  0  0  0  0  0  0  0  0  0
   37.7390   23.5020   36.7430 C   0  0  0  0  0  0  0  0  0  0  0  0
   37.7220   23.4700   38.2620 C   0  0  0  0  0  0  0  0  0  0  0  0
   38.0010   24.7360   38.8690 N   0  0  0  0  0  0  0  0  0  0  0  0
   39.6498   21.5152   36.8803 H   0  0  0  0  0  0  0  0  0  0  0  0
   42.6840   23.6352   34.8063 H   0  0  0  0  0  0  0  0  0  0  0  0
   37.3300   24.8531   33.9490 H   0  0  0  0  0  0  0  0  0  0  0  0
   36.1792   27.2399   34.0592 H   0  0  0  0  0  0  0  0  0  0  0  0
   39.5730   27.3149   36.6525 H   0  0  0  0  0  0  0  0  0  0  0  0
   37.2262   24.4122   36.3986 H   0  0  0  0  0  0  0  0  0  0  0  0
   37.2276   22.6014   36.3724 H   0  0  0  0  0  0  0  0  0  0  0  0
   36.7257   23.1396   38.5909 H   0  0  0  0  0  0  0  0  0  0  0  0
   38.5191   22.7806   38.5772 H   0  0  0  0  0  0  0  0  0  0  0  0
   37.9793   24.6375   39.8941 H   0  0  0  0  0  0  0  0  0  0  0  0
   38.9335   25.0597   38.5749 H   0  0  0  0  0  0  0  0  0  0  0  0
  2  1  2  0
  2 12  1  0
  3  2  1  0
  4  5  1  0
  4  3  2  0
  5  6  2  0
  6  1  1  0
  7  3  1  0
  7 11  1  0
  8  9  2  0
  8  7  1  0
  9 10  1  0
 10 11  2  0
 12 13  1  0
 13 14  1  0
  1 15  1  0
  5 16  1  0
  8 17  1  0
  9 18  1  0
 11 19  1  0
 12 20  1  0
 12 21  1  0
 13 22  1  0
 13 23  1  0
 14 24  1  0
 14 25  1  0
M  ISO  8  15  14  16  14  17  14  18  14  19  14  20   8  21   8  22   8
M  ISO  3  23   8  24   5  25   5
M  END
>  <minimizedAffinity>  (1) 
-3.83529711

>  <minimizedRMSD>  (1) 
0.448585629

$$$$
