
     RDKit          3D

 30 32  0  0  0  0  0  0  0  0999 V2000
   39.8100   22.8690   37.5010 C   0  0  0  0  0  0  0  0  0  0  0  0
   40.0100   23.6620   36.3690 C   0  0  0  0  0  0  0  0  0  0  0  0
   39.0810   24.6580   36.0780 C   0  0  0  0  0  0  0  0  0  0  0  0
   38.0430   24.7940   36.9090 N   0  0  0  0  0  0  0  0  0  0  0  0
   37.8380   24.0340   38.0050 C   0  0  0  0  0  0  0  0  0  0  0  0
   38.7460   23.0560   38.2940 N   0  0  0  0  0  0  0  0  0  0  0  0
   39.2350   25.4890   34.9470 N   0  0  0  0  0  0  0  0  0  0  0  0
   40.2060   26.4110   34.8820 C   0  0  0  0  0  0  0  0  0  0  0  0
   40.0840   27.0270   33.6890 C   0  0  0  0  0  0  0  0  0  0  0  0
   39.0410   26.4810   33.0280 N   0  0  0  0  0  0  0  0  0  0  0  0
   38.5080   25.5170   33.8120 C   0  0  0  0  0  0  0  0  0  0  0  0
   41.1640   23.4930   35.4670 C   0  0  0  0  0  0  0  0  0  0  0  0
   42.1890   22.5460   36.0550 C   0  0  0  0  0  0  0  0  0  0  0  0
   43.4890   23.0970   36.2350 N   0  0  0  0  0  0  0  0  0  0  0  0
   43.8600   24.2600   36.7660 C   0  0  0  0  0  0  0  0  0  0  0  0
   45.2280   24.4450   36.7660 C   0  0  0  0  0  0  0  0  0  0  0  0
   45.7010   23.3110   36.1960 N   0  0  0  0  0  0  0  0  0  0  0  0
   44.6510   22.5090   35.8810 C   0  0  0  0  0  0  0  0  0  0  0  0
   40.5362   22.0797   37.7452 H   0  0  0  0  0  0  0  0  0  0  0  0
   36.9617   24.1982   38.6493 H   0  0  0  0  0  0  0  0  0  0  0  0
   40.9590   26.6243   35.6550 H   0  0  0  0  0  0  0  0  0  0  0  0
   40.7265   27.8384   33.3166 H   0  0  0  0  0  0  0  0  0  0  0  0
   37.6461   24.8778   33.5701 H   0  0  0  0  0  0  0  0  0  0  0  0
   41.6354   24.4729   35.3011 H   0  0  0  0  0  0  0  0  0  0  0  0
   40.8035   23.0684   34.5184 H   0  0  0  0  0  0  0  0  0  0  0  0
   41.8213   22.2133   37.0369 H   0  0  0  0  0  0  0  0  0  0  0  0
   42.3017   21.7280   35.3282 H   0  0  0  0  0  0  0  0  0  0  0  0
   43.1487   24.9985   37.1643 H   0  0  0  0  0  0  0  0  0  0  0  0
   45.7983   25.3081   37.1400 H   0  0  0  0  0  0  0  0  0  0  0  0
   44.7357   21.5209   35.4051 H   0  0  0  0  0  0  0  0  0  0  0  0
  1  6  2  0
  2  1  1  0
  3  2  2  0
  3  4  1  0
  4  5  2  0
  5  6  1  0
  7  3  1  0
  8  7  1  0
  9  8  2  0
 10  9  1  0
 10 11  2  0
 11  7  1  0
 12 13  1  0
 12  2  1  0
 13 14  1  0
 14 15  1  0
 15 16  2  0
 17 16  1  0
 18 17  2  0
 18 14  1  0
  1 19  1  0
  5 20  1  0
  8 21  1  0
  9 22  1  0
 11 23  1  0
 12 24  1  0
 12 25  1  0
 13 26  1  0
 13 27  1  0
 15 28  1  0
 16 29  1  0
 18 30  1  0
M  ISO  8  19  14  20  14  21  14  22  14  23  14  24   8  25   8  26   8
M  ISO  4  27   8  28  14  29  14  30  14
M  END
>  <minimizedAffinity>  (1) 
-3.95701241

>  <minimizedRMSD>  (1) 
5.78227615

$$$$
