
     RDKit          3D

 44 47  0  0  0  0  0  0  0  0999 V2000
   39.3890   23.6800   33.8960 C   0  0  0  0  0  0  0  0  0  0  0  0
   39.7240   23.0950   32.6890 C   0  0  0  0  0  0  0  0  0  0  0  0
   39.1790   23.8880   31.6800 C   0  0  0  0  0  0  0  0  0  0  0  0
   38.5430   24.9050   32.2600 N   0  0  0  0  0  0  0  0  0  0  0  0
   38.6670   24.7850   33.6060 N   0  0  0  0  0  0  0  0  0  0  0  0
   41.0780   21.9700   36.6540 C   0  0  0  0  0  0  0  0  0  0  0  0
   40.3100   22.3760   37.7690 C   0  0  0  0  0  0  0  0  0  0  0  0
   39.2380   23.2230   37.5390 C   0  0  0  0  0  0  0  0  0  0  0  0
   38.9670   23.6280   36.2690 N   0  0  0  0  0  0  0  0  0  0  0  0
   39.7400   23.2050   35.2280 C   0  0  0  0  0  0  0  0  0  0  0  0
   40.7790   22.3880   35.4290 N   0  0  0  0  0  0  0  0  0  0  0  0
   38.4780   23.6130   38.7280 C   0  0  0  0  0  0  0  0  0  0  0  0
   37.8720   24.8300   38.5140 F   0  0  0  0  0  0  0  0  0  0  0  0
   39.3910   23.8440   39.7420 F   0  0  0  0  0  0  0  0  0  0  0  0
   37.5180   22.7080   39.0730 F   0  0  0  0  0  0  0  0  0  0  0  0
   37.8360   25.9660   31.5780 C   0  0  0  0  0  0  0  0  0  0  0  0
   36.4660   25.9340   31.5870 C   0  0  0  0  0  0  0  0  0  0  0  0
   35.8230   26.9820   30.9130 C   0  0  0  0  0  0  0  0  0  0  0  0
   36.5270   27.9250   30.3180 N   0  0  0  0  0  0  0  0  0  0  0  0
   37.8760   27.9610   30.3060 C   0  0  0  0  0  0  0  0  0  0  0  0
   38.5000   26.9380   30.9640 N   0  0  0  0  0  0  0  0  0  0  0  0
   38.6420   29.0220   29.6360 C   0  0  0  0  0  0  0  0  0  0  0  0
   40.0980   28.7230   29.4990 C   0  0  0  0  0  0  0  0  0  0  0  0
   40.8200   29.9060   28.9380 C   0  0  0  0  0  0  0  0  0  0  0  0
   40.1730   30.5550   27.7630 C   0  0  0  0  0  0  0  0  0  0  0  0
   38.6780   30.5380   27.7580 C   0  0  0  0  0  0  0  0  0  0  0  0
   38.0830   29.2210   28.2220 C   0  0  0  0  0  0  0  0  0  0  0  0
   40.3112   22.1752   32.5505 H   0  0  0  0  0  0  0  0  0  0  0  0
   39.2597   23.7064   30.5981 H   0  0  0  0  0  0  0  0  0  0  0  0
   41.9360   21.2979   36.8028 H   0  0  0  0  0  0  0  0  0  0  0  0
   40.5550   22.0313   38.7845 H   0  0  0  0  0  0  0  0  0  0  0  0
   35.9046   25.1344   32.0925 H   0  0  0  0  0  0  0  0  0  0  0  0
   34.7241   27.0178   30.8804 H   0  0  0  0  0  0  0  0  0  0  0  0
   38.5404   29.9174   30.2668 H   0  0  0  0  0  0  0  0  0  0  0  0
   40.5132   28.4800   30.4882 H   0  0  0  0  0  0  0  0  0  0  0  0
   40.2254   27.8695   28.8169 H   0  0  0  0  0  0  0  0  0  0  0  0
   40.9076   30.6588   29.7352 H   0  0  0  0  0  0  0  0  0  0  0  0
   41.7876   29.5262   28.5781 H   0  0  0  0  0  0  0  0  0  0  0  0
   40.4997   31.6050   27.7338 H   0  0  0  0  0  0  0  0  0  0  0  0
   40.4837   29.9682   26.8860 H   0  0  0  0  0  0  0  0  0  0  0  0
   38.3191   31.3357   28.4249 H   0  0  0  0  0  0  0  0  0  0  0  0
   38.3575   30.6872   26.7163 H   0  0  0  0  0  0  0  0  0  0  0  0
   36.9846   29.2768   28.2428 H   0  0  0  0  0  0  0  0  0  0  0  0
   38.3387   28.3878   27.5508 H   0  0  0  0  0  0  0  0  0  0  0  0
  1 10  1  0
  2  1  1  0
  3  4  1  0
  3  2  2  0
  4  5  1  0
  5  1  2  0
  6  7  2  0
  8  7  1  0
  8 12  1  0
  9  8  2  0
 10 11  2  0
 10  9  1  0
 11  6  1  0
 12 15  1  0
 12 14  1  0
 13 12  1  0
 16 17  2  0
 16  4  1  0
 18 17  1  0
 19 18  2  0
 20 19  1  0
 20 21  2  0
 21 16  1  0
 22 20  1  0
 23 22  1  0
 24 23  1  0
 25 24  1  0
 26 25  1  0
 26 27  1  0
 27 22  1  0
  2 28  1  0
  3 29  1  0
  6 30  1  0
  7 31  1  0
 17 32  1  0
 18 33  1  0
 22 34  1  0
 23 35  1  0
 23 36  1  0
 24 37  1  0
 24 38  1  0
 25 39  1  0
 25 40  1  0
 26 41  1  0
 26 42  1  0
 27 43  1  0
 27 44  1  0
M  ISO  8  28  14  29  14  30  14  31  14  32  14  33  14  34  13  35  13
M  ISO  8  36  13  37  13  38  13  39  13  40  13  41  13  42  13  43  13
M  ISO  1  44  13
M  END
>  <minimizedAffinity>  (1) 
-5.7089529

>  <minimizedRMSD>  (1) 
1.63236785

$$$$
