
     RDKit          3D

 43 46  0  0  0  0  0  0  0  0999 V2000
   38.6150   24.8120   35.4050 C   0  0  0  0  0  0  0  0  0  0  0  0
   37.8950   25.2590   34.2250 N   0  0  0  0  0  0  0  0  0  0  0  0
   37.6540   24.4460   33.1640 C   0  0  0  0  0  0  0  0  0  0  0  0
   36.9400   24.8950   32.0760 C   0  0  0  0  0  0  0  0  0  0  0  0
   36.4490   26.1980   32.0410 C   0  0  0  0  0  0  0  0  0  0  0  0
   35.7880   26.6930   31.0900 O   0  0  0  0  0  0  0  0  0  0  0  0
   36.7020   26.9900   33.1110 N   0  0  0  0  0  0  0  0  0  0  0  0
   37.4030   26.4930   34.1400 C   0  0  0  0  0  0  0  0  0  0  0  0
   37.6090   27.2620   35.1140 O   0  0  0  0  0  0  0  0  0  0  0  0
   36.2300   28.3430   33.1500 C   0  0  0  0  0  0  0  0  0  0  0  0
   35.7240   29.2290   34.0790 C   0  0  0  0  0  0  0  0  0  0  0  0
   35.4720   30.4080   33.3780 C   0  0  0  0  0  0  0  0  0  0  0  0
   35.8220   30.2110   32.0800 N   0  0  0  0  0  0  0  0  0  0  0  0
   36.2710   28.9840   31.9460 N   0  0  0  0  0  0  0  0  0  0  0  0
   36.6660   24.0160   30.9100 C   0  0  0  0  0  0  0  0  0  0  0  0
   40.1000   24.7280   35.1830 C   0  0  0  0  0  0  0  0  0  0  0  0
   40.0030   22.7420   36.6750 C   0  0  0  0  0  0  0  0  0  0  0  0
   40.7260   23.6300   35.9010 C   0  0  0  0  0  0  0  0  0  0  0  0
   42.1020   23.4370   35.8060 C   0  0  0  0  0  0  0  0  0  0  0  0
   42.6400   22.4080   36.4600 N   0  0  0  0  0  0  0  0  0  0  0  0
   41.9360   21.5420   37.2130 C   0  0  0  0  0  0  0  0  0  0  0  0
   40.5800   21.7260   37.3140 N   0  0  0  0  0  0  0  0  0  0  0  0
   42.9020   24.3280   35.0360 N   0  0  0  0  0  0  0  0  0  0  0  0
   43.1380   24.1170   33.7360 C   0  0  0  0  0  0  0  0  0  0  0  0
   43.9160   25.1320   33.3110 C   0  0  0  0  0  0  0  0  0  0  0  0
   44.1530   25.9580   34.3470 N   0  0  0  0  0  0  0  0  0  0  0  0
   43.5170   25.4520   35.4230 C   0  0  0  0  0  0  0  0  0  0  0  0
   38.4214   25.5200   36.2243 H   0  0  0  0  0  0  0  0  0  0  0  0
   38.2581   23.8003   35.6479 H   0  0  0  0  0  0  0  0  0  0  0  0
   38.0348   23.4141   33.1742 H   0  0  0  0  0  0  0  0  0  0  0  0
   35.5546   29.0438   35.1500 H   0  0  0  0  0  0  0  0  0  0  0  0
   35.0613   31.3361   33.8022 H   0  0  0  0  0  0  0  0  0  0  0  0
   35.7475   30.9085   31.3258 H   0  0  0  0  0  0  0  0  0  0  0  0
   36.3562   23.0220   31.2649 H   0  0  0  0  0  0  0  0  0  0  0  0
   35.8620   24.4549   30.3009 H   0  0  0  0  0  0  0  0  0  0  0  0
   37.5769   23.9203   30.3009 H   0  0  0  0  0  0  0  0  0  0  0  0
   40.2854   24.5928   34.1072 H   0  0  0  0  0  0  0  0  0  0  0  0
   40.5405   25.6609   35.5647 H   0  0  0  0  0  0  0  0  0  0  0  0
   38.9154   22.8790   36.7662 H   0  0  0  0  0  0  0  0  0  0  0  0
   42.4339   20.7102   37.7327 H   0  0  0  0  0  0  0  0  0  0  0  0
   42.7680   23.2765   33.1305 H   0  0  0  0  0  0  0  0  0  0  0  0
   44.2948   25.2637   32.2867 H   0  0  0  0  0  0  0  0  0  0  0  0
   43.5057   25.8842   36.4345 H   0  0  0  0  0  0  0  0  0  0  0  0
  2  1  1  0
  3  2  1  0
  4  3  2  0
  5  4  1  0
  5  7  1  0
  6  5  2  0
  7 10  1  0
  7  8  1  0
  8  2  1  0
  8  9  2  0
 10 11  1  0
 12 11  2  0
 13 12  1  0
 14 13  1  0
 14 10  2  0
 15  4  1  0
 16  1  1  0
 16 18  1  0
 17 22  2  0
 18 17  1  0
 19 18  2  0
 19 20  1  0
 20 21  2  0
 21 22  1  0
 23 27  1  0
 23 19  1  0
 24 23  1  0
 25 24  2  0
 25 26  1  0
 26 27  2  0
  1 28  1  0
  1 29  1  0
  3 30  1  0
 11 31  1  0
 12 32  1  0
 13 33  1  0
 15 34  1  0
 15 35  1  0
 15 36  1  0
 16 37  1  0
 16 38  1  0
 17 39  1  0
 21 40  1  0
 24 41  1  0
 25 42  1  0
 27 43  1  0
M  ISO  8  28   8  29   8  30  14  31  14  32  14  33   9  34   8  35   8
M  ISO  8  36   8  37   8  38   8  39  14  40  14  41  14  42  14  43  14
M  END
>  <minimizedAffinity>  (1) 
-5.34513474

>  <minimizedRMSD>  (1) 
1.97734988

$$$$
