
     RDKit          3D

 43 46  0  0  0  0  0  0  0  0999 V2000
   38.6750   25.7690   34.5640 C   0  0  0  0  0  0  0  0  0  0  0  0
   37.7210   25.6300   33.4840 N   0  0  0  0  0  0  0  0  0  0  0  0
   37.4010   24.4520   32.9120 C   0  0  0  0  0  0  0  0  0  0  0  0
   36.4690   24.3850   31.9040 C   0  0  0  0  0  0  0  0  0  0  0  0
   35.8160   25.5020   31.4320 C   0  0  0  0  0  0  0  0  0  0  0  0
   34.9540   25.5470   30.5220 O   0  0  0  0  0  0  0  0  0  0  0  0
   36.1330   26.6600   31.9990 N   0  0  0  0  0  0  0  0  0  0  0  0
   37.0620   26.6900   32.9940 C   0  0  0  0  0  0  0  0  0  0  0  0
   37.3320   27.8130   33.5190 O   0  0  0  0  0  0  0  0  0  0  0  0
   35.3230   30.1830   31.1890 N   0  0  0  0  0  0  0  0  0  0  0  0
   35.3190   29.0730   31.6020 N   0  0  0  0  0  0  0  0  0  0  0  0
   35.7020   27.9590   31.7800 C   0  0  0  0  0  0  0  0  0  0  0  0
   36.7650   28.4790   30.9290 C   0  0  0  0  0  0  0  0  0  0  0  0
   36.5040   29.8360   30.5890 C   0  0  0  0  0  0  0  0  0  0  0  0
   36.1100   23.0720   31.2810 C   0  0  0  0  0  0  0  0  0  0  0  0
   39.8860   24.8870   34.3560 C   0  0  0  0  0  0  0  0  0  0  0  0
   39.1250   23.4830   36.2680 C   0  0  0  0  0  0  0  0  0  0  0  0
   40.1530   24.0110   35.4850 C   0  0  0  0  0  0  0  0  0  0  0  0
   41.4510   23.6580   35.8150 C   0  0  0  0  0  0  0  0  0  0  0  0
   41.6660   22.8420   36.8390 N   0  0  0  0  0  0  0  0  0  0  0  0
   40.6600   22.3330   37.5970 C   0  0  0  0  0  0  0  0  0  0  0  0
   39.3640   22.6700   37.2920 N   0  0  0  0  0  0  0  0  0  0  0  0
   42.5410   24.1860   35.0620 N   0  0  0  0  0  0  0  0  0  0  0  0
   43.0570   23.5020   34.0220 C   0  0  0  0  0  0  0  0  0  0  0  0
   44.0640   24.2720   33.5380 C   0  0  0  0  0  0  0  0  0  0  0  0
   44.1550   25.3990   34.2690 N   0  0  0  0  0  0  0  0  0  0  0  0
   43.2040   25.3440   35.2190 C   0  0  0  0  0  0  0  0  0  0  0  0
   39.0025   26.8177   34.6179 H   0  0  0  0  0  0  0  0  0  0  0  0
   38.1829   25.4619   35.4986 H   0  0  0  0  0  0  0  0  0  0  0  0
   37.8931   23.5307   33.2571 H   0  0  0  0  0  0  0  0  0  0  0  0
   34.7214   31.0167   31.2516 H   0  0  0  0  0  0  0  0  0  0  0  0
   37.6428   27.9050   30.5973 H   0  0  0  0  0  0  0  0  0  0  0  0
   37.1331   30.4847   29.9617 H   0  0  0  0  0  0  0  0  0  0  0  0
   35.9082   22.3341   32.0714 H   0  0  0  0  0  0  0  0  0  0  0  0
   35.2126   23.1954   30.6569 H   0  0  0  0  0  0  0  0  0  0  0  0
   36.9453   22.7217   30.6569 H   0  0  0  0  0  0  0  0  0  0  0  0
   39.7183   24.2666   33.4633 H   0  0  0  0  0  0  0  0  0  0  0  0
   40.7576   25.5479   34.2398 H   0  0  0  0  0  0  0  0  0  0  0  0
   38.0843   23.7481   36.0300 H   0  0  0  0  0  0  0  0  0  0  0  0
   40.8798   21.6623   38.4407 H   0  0  0  0  0  0  0  0  0  0  0  0
   42.7297   22.5223   33.6437 H   0  0  0  0  0  0  0  0  0  0  0  0
   44.7057   24.0155   32.6822 H   0  0  0  0  0  0  0  0  0  0  0  0
   43.0054   26.1081   35.9850 H   0  0  0  0  0  0  0  0  0  0  0  0
  2  1  1  0
  3  2  1  0
  4  3  2  0
  5  4  1  0
  5  7  1  0
  6  5  2  0
  7  8  1  0
  8  2  1  0
  8  9  2  0
 10 11  1  0
 11 12  2  0
 12  7  1  0
 13 12  1  0
 14 13  2  0
 14 10  1  0
 15  4  1  0
 16  1  1  0
 16 18  1  0
 17 22  2  0
 18 19  2  0
 18 17  1  0
 19 20  1  0
 20 21  2  0
 22 21  1  0
 23 27  1  0
 23 19  1  0
 24 23  1  0
 25 24  2  0
 25 26  1  0
 26 27  2  0
  1 28  1  0
  1 29  1  0
  3 30  1  0
 10 31  1  0
 13 32  1  0
 14 33  1  0
 15 34  1  0
 15 35  1  0
 15 36  1  0
 16 37  1  0
 16 38  1  0
 17 39  1  0
 21 40  1  0
 24 41  1  0
 25 42  1  0
 27 43  1  0
M  ISO  8  28   8  29   8  30  14  31   9  32  14  33  14  34   8  35   8
M  ISO  8  36   8  37   8  38   8  39  14  40  14  41  14  42  14  43  14
M  END
>  <minimizedAffinity>  (1) 
-5.51125097

>  <minimizedRMSD>  (1) 
3.16162062

$$$$
