
     RDKit          3D

 46 49  0  0  0  0  0  0  0  0999 V2000
   37.6110   26.0640   33.4310 C   0  0  0  0  0  0  0  0  0  0  0  0
   37.1240   27.3650   32.9990 N   0  0  0  0  0  0  0  0  0  0  0  0
   37.3070   27.8750   31.7610 C   0  0  0  0  0  0  0  0  0  0  0  0
   36.7870   29.0980   31.4250 C   0  0  0  0  0  0  0  0  0  0  0  0
   36.0620   29.8550   32.3320 C   0  0  0  0  0  0  0  0  0  0  0  0
   35.5580   30.9840   32.0910 O   0  0  0  0  0  0  0  0  0  0  0  0
   35.8830   29.3460   33.5600 N   0  0  0  0  0  0  0  0  0  0  0  0
   36.4110   28.1390   33.8440 C   0  0  0  0  0  0  0  0  0  0  0  0
   36.2220   27.6840   35.0090 O   0  0  0  0  0  0  0  0  0  0  0  0
   35.1450   30.0780   34.5330 C   0  0  0  0  0  0  0  0  0  0  0  0
   35.9790   30.9100   35.2900 C   0  0  0  0  0  0  0  0  0  0  0  0
   35.4280   31.6970   36.2880 C   0  0  0  0  0  0  0  0  0  0  0  0
   34.0810   31.6530   36.5170 C   0  0  0  0  0  0  0  0  0  0  0  0
   33.2760   30.8260   35.7590 C   0  0  0  0  0  0  0  0  0  0  0  0
   33.7830   30.0220   34.7530 C   0  0  0  0  0  0  0  0  0  0  0  0
   36.9800   29.6620   30.0610 C   0  0  0  0  0  0  0  0  0  0  0  0
   38.8530   26.1740   34.2750 C   0  0  0  0  0  0  0  0  0  0  0  0
   37.9180   24.8670   36.1710 C   0  0  0  0  0  0  0  0  0  0  0  0
   38.9520   25.1440   35.2930 C   0  0  0  0  0  0  0  0  0  0  0  0
   40.1140   24.3770   35.3970 C   0  0  0  0  0  0  0  0  0  0  0  0
   40.1660   23.4240   36.3260 N   0  0  0  0  0  0  0  0  0  0  0  0
   39.1530   23.1570   37.1780 C   0  0  0  0  0  0  0  0  0  0  0  0
   38.0060   23.9050   37.0880 N   0  0  0  0  0  0  0  0  0  0  0  0
   41.2160   24.6300   34.5320 N   0  0  0  0  0  0  0  0  0  0  0  0
   41.3600   23.9780   33.3730 C   0  0  0  0  0  0  0  0  0  0  0  0
   42.4930   24.4480   32.8040 C   0  0  0  0  0  0  0  0  0  0  0  0
   43.0280   25.3760   33.6110 N   0  0  0  0  0  0  0  0  0  0  0  0
   42.2310   25.4920   34.6930 C   0  0  0  0  0  0  0  0  0  0  0  0
   37.8393   25.4579   32.5419 H   0  0  0  0  0  0  0  0  0  0  0  0
   36.8264   25.5958   34.0436 H   0  0  0  0  0  0  0  0  0  0  0  0
   37.8789   27.3030   31.0155 H   0  0  0  0  0  0  0  0  0  0  0  0
   37.0610   30.9384   35.0941 H   0  0  0  0  0  0  0  0  0  0  0  0
   36.0707   32.3536   36.8928 H   0  0  0  0  0  0  0  0  0  0  0  0
   33.6376   32.2775   37.3065 H   0  0  0  0  0  0  0  0  0  0  0  0
   32.1950   30.8055   35.9616 H   0  0  0  0  0  0  0  0  0  0  0  0
   33.1305   29.3681   34.1558 H   0  0  0  0  0  0  0  0  0  0  0  0
   37.3352   30.7000   30.1403 H   0  0  0  0  0  0  0  0  0  0  0  0
   37.7235   29.0606   29.5174 H   0  0  0  0  0  0  0  0  0  0  0  0
   36.0239   29.6422   29.5174 H   0  0  0  0  0  0  0  0  0  0  0  0
   39.7303   26.0980   33.6158 H   0  0  0  0  0  0  0  0  0  0  0  0
   38.8066   27.1417   34.7960 H   0  0  0  0  0  0  0  0  0  0  0  0
   36.9939   25.4606   36.1093 H   0  0  0  0  0  0  0  0  0  0  0  0
   39.2452   22.3574   37.9278 H   0  0  0  0  0  0  0  0  0  0  0  0
   40.6881   23.2097   32.9629 H   0  0  0  0  0  0  0  0  0  0  0  0
   42.9076   24.1228   31.8384 H   0  0  0  0  0  0  0  0  0  0  0  0
   42.3847   26.1673   35.5476 H   0  0  0  0  0  0  0  0  0  0  0  0
  1 17  1  0
  2  1  1  0
  2  8  1  0
  3  2  1  0
  4  3  2  0
  4  5  1  0
  5  7  1  0
  6  5  2  0
  7  8  1  0
  7 10  1  0
  8  9  2  0
 10 15  1  0
 10 11  2  0
 11 12  1  0
 12 13  2  0
 14 13  1  0
 15 14  2  0
 16  4  1  0
 17 19  1  0
 18 23  2  0
 19 20  2  0
 19 18  1  0
 20 21  1  0
 21 22  2  0
 23 22  1  0
 24 28  1  0
 24 20  1  0
 25 24  1  0
 26 25  2  0
 26 27  1  0
 27 28  2  0
  1 29  1  0
  1 30  1  0
  3 31  1  0
 11 32  1  0
 12 33  1  0
 13 34  1  0
 14 35  1  0
 15 36  1  0
 16 37  1  0
 16 38  1  0
 16 39  1  0
 17 40  1  0
 17 41  1  0
 18 42  1  0
 22 43  1  0
 25 44  1  0
 26 45  1  0
 28 46  1  0
M  ISO  8  29   8  30   8  31  14  32  14  33  14  34  14  35  14  36  14
M  ISO  8  37   8  38   8  39   8  40   8  41   8  42  14  43  14  44  14
M  ISO  2  45  14  46  14
M  END
>  <minimizedAffinity>  (1) 
-5.6056509

>  <minimizedRMSD>  (1) 
3.87915492

$$$$
