
     RDKit          3D

 47 51  0  0  0  0  0  0  0  0999 V2000
   37.5150   26.8360   33.1340 N   0  0  0  0  0  0  0  0  0  0  0  0
   37.7840   27.1650   31.8460 C   0  0  0  0  0  0  0  0  0  0  0  0
   37.2590   28.3030   31.2860 C   0  0  0  0  0  0  0  0  0  0  0  0
   36.4370   29.1540   32.0200 C   0  0  0  0  0  0  0  0  0  0  0  0
   35.9210   30.2160   31.5700 O   0  0  0  0  0  0  0  0  0  0  0  0
   36.1750   28.8210   33.3000 N   0  0  0  0  0  0  0  0  0  0  0  0
   36.7160   27.6860   33.8050 C   0  0  0  0  0  0  0  0  0  0  0  0
   36.4470   27.4100   34.9920 O   0  0  0  0  0  0  0  0  0  0  0  0
   31.9950   30.4280   34.6050 N   0  0  0  0  0  0  0  0  0  0  0  0
   31.8770   29.4840   33.6380 C   0  0  0  0  0  0  0  0  0  0  0  0
   33.1250   29.0630   33.3090 N   0  0  0  0  0  0  0  0  0  0  0  0
   33.9700   29.7530   34.0740 C   0  0  0  0  0  0  0  0  0  0  0  0
   35.3390   29.6620   34.0880 C   0  0  0  0  0  0  0  0  0  0  0  0
   36.0070   30.4710   34.9600 N   0  0  0  0  0  0  0  0  0  0  0  0
   35.3540   31.3250   35.7760 C   0  0  0  0  0  0  0  0  0  0  0  0
   34.0110   31.4030   35.7500 N   0  0  0  0  0  0  0  0  0  0  0  0
   33.3100   30.6260   34.9090 C   0  0  0  0  0  0  0  0  0  0  0  0
   37.5420   28.6660   29.8720 C   0  0  0  0  0  0  0  0  0  0  0  0
   38.0080   25.6310   33.7720 C   0  0  0  0  0  0  0  0  0  0  0  0
   38.3850   24.5780   32.7640 C   0  0  0  0  0  0  0  0  0  0  0  0
   36.3850   23.4970   31.7620 C   0  0  0  0  0  0  0  0  0  0  0  0
   37.4210   23.4980   32.6800 C   0  0  0  0  0  0  0  0  0  0  0  0
   37.5230   22.4030   33.5440 C   0  0  0  0  0  0  0  0  0  0  0  0
   36.6230   21.4240   33.4330 N   0  0  0  0  0  0  0  0  0  0  0  0
   35.6190   21.4280   32.5370 C   0  0  0  0  0  0  0  0  0  0  0  0
   35.5070   22.4960   31.6860 N   0  0  0  0  0  0  0  0  0  0  0  0
   38.5540   22.3590   34.5210 N   0  0  0  0  0  0  0  0  0  0  0  0
   39.8200   22.0710   34.1970 C   0  0  0  0  0  0  0  0  0  0  0  0
   40.5340   22.1160   35.3430 C   0  0  0  0  0  0  0  0  0  0  0  0
   39.7040   22.4290   36.3570 N   0  0  0  0  0  0  0  0  0  0  0  0
   38.4720   22.5800   35.8390 C   0  0  0  0  0  0  0  0  0  0  0  0
   38.4311   26.5116   31.2425 H   0  0  0  0  0  0  0  0  0  0  0  0
   31.2065   30.9231   35.0455 H   0  0  0  0  0  0  0  0  0  0  0  0
   30.9357   29.1231   33.1979 H   0  0  0  0  0  0  0  0  0  0  0  0
   35.9243   31.9623   36.4678 H   0  0  0  0  0  0  0  0  0  0  0  0
   38.2181   29.5332   29.8444 H   0  0  0  0  0  0  0  0  0  0  0  0
   38.0169   27.8144   29.3628 H   0  0  0  0  0  0  0  0  0  0  0  0
   36.6003   28.9189   29.3628 H   0  0  0  0  0  0  0  0  0  0  0  0
   38.8949   25.8832   34.3719 H   0  0  0  0  0  0  0  0  0  0  0  0
   37.2044   25.2261   34.4047 H   0  0  0  0  0  0  0  0  0  0  0  0
   38.4651   25.0531   31.7751 H   0  0  0  0  0  0  0  0  0  0  0  0
   39.3399   24.1399   33.0898 H   0  0  0  0  0  0  0  0  0  0  0  0
   36.2827   24.3487   31.0734 H   0  0  0  0  0  0  0  0  0  0  0  0
   34.9046   20.5930   32.4889 H   0  0  0  0  0  0  0  0  0  0  0  0
   40.2048   21.8420   33.1923 H   0  0  0  0  0  0  0  0  0  0  0  0
   41.6141   21.9282   35.4332 H   0  0  0  0  0  0  0  0  0  0  0  0
   37.5606   22.8387   36.3979 H   0  0  0  0  0  0  0  0  0  0  0  0
  1 19  1  0
  1  7  1  0
  2  1  1  0
  3  2  2  0
  3  4  1  0
  4  6  1  0
  5  4  2  0
  6  7  1  0
  6 13  1  0
  7  8  2  0
  9 17  1  0
 10  9  1  0
 11 10  2  0
 11 12  1  0
 12 13  1  0
 12 17  2  0
 13 14  2  0
 14 15  1  0
 16 15  2  0
 17 16  1  0
 18  3  1  0
 20 19  1  0
 21 22  2  0
 22 20  1  0
 22 23  1  0
 23 27  1  0
 24 23  2  0
 25 24  1  0
 26 21  1  0
 26 25  2  0
 27 31  1  0
 28 27  1  0
 28 29  2  0
 29 30  1  0
 31 30  2  0
  2 32  1  0
  9 33  1  0
 10 34  1  0
 15 35  1  0
 18 36  1  0
 18 37  1  0
 18 38  1  0
 19 39  1  0
 19 40  1  0
 20 41  1  0
 20 42  1  0
 21 43  1  0
 25 44  1  0
 28 45  1  0
 29 46  1  0
 31 47  1  0
M  ISO  8  32  14  33   9  34  14  35  14  36   8  37   8  38   8  39   8
M  ISO  8  40   8  41   8  42   8  43  14  44  14  45  14  46  14  47  14
M  END
>  <minimizedAffinity>  (1) 
-5.73095226

>  <minimizedRMSD>  (1) 
4.94885874

$$$$
