
     RDKit          3D

 36 39  0  0  0  0  0  0  0  0999 V2000
   38.9760   23.1970   34.0170 C   0  0  0  0  0  0  0  0  0  0  0  0
   39.3940   22.6290   32.8300 C   0  0  0  0  0  0  0  0  0  0  0  0
   38.6160   23.1860   31.8110 C   0  0  0  0  0  0  0  0  0  0  0  0
   37.7670   24.0560   32.3810 N   0  0  0  0  0  0  0  0  0  0  0  0
   37.9890   24.0560   33.7070 N   0  0  0  0  0  0  0  0  0  0  0  0
   41.1060   21.9990   36.7500 C   0  0  0  0  0  0  0  0  0  0  0  0
   40.3900   22.4530   37.8930 C   0  0  0  0  0  0  0  0  0  0  0  0
   39.2150   23.1470   37.6790 C   0  0  0  0  0  0  0  0  0  0  0  0
   38.7890   23.3690   36.4130 N   0  0  0  0  0  0  0  0  0  0  0  0
   39.5050   22.9150   35.3520 C   0  0  0  0  0  0  0  0  0  0  0  0
   40.6510   22.2380   35.5210 N   0  0  0  0  0  0  0  0  0  0  0  0
   38.5240   23.5900   38.9020 C   0  0  0  0  0  0  0  0  0  0  0  0
   37.8640   24.7590   38.6560 F   0  0  0  0  0  0  0  0  0  0  0  0
   39.4880   23.8680   39.8340 F   0  0  0  0  0  0  0  0  0  0  0  0
   37.6110   22.6590   39.3450 F   0  0  0  0  0  0  0  0  0  0  0  0
   36.7920   24.8460   31.6920 C   0  0  0  0  0  0  0  0  0  0  0  0
   35.6010   24.2570   31.3590 C   0  0  0  0  0  0  0  0  0  0  0  0
   34.6810   25.0770   30.6840 C   0  0  0  0  0  0  0  0  0  0  0  0
   34.9850   26.3470   30.4010 N   0  0  0  0  0  0  0  0  0  0  0  0
   36.1490   26.9140   30.7300 C   0  0  0  0  0  0  0  0  0  0  0  0
   37.0360   26.1200   31.3820 N   0  0  0  0  0  0  0  0  0  0  0  0
   36.5220   28.2940   30.4430 C   0  0  0  0  0  0  0  0  0  0  0  0
   36.1970   29.2760   31.3730 C   0  0  0  0  0  0  0  0  0  0  0  0
   36.5780   30.5560   31.0370 C   0  0  0  0  0  0  0  0  0  0  0  0
   37.2190   30.8580   29.8950 N   0  0  0  0  0  0  0  0  0  0  0  0
   37.5200   29.8860   29.0150 C   0  0  0  0  0  0  0  0  0  0  0  0
   37.1730   28.6090   29.2860 N   0  0  0  0  0  0  0  0  0  0  0  0
   40.1897   21.8791   32.7090 H   0  0  0  0  0  0  0  0  0  0  0  0
   38.6865   22.9539   30.7381 H   0  0  0  0  0  0  0  0  0  0  0  0
   42.0464   21.4441   36.8829 H   0  0  0  0  0  0  0  0  0  0  0  0
   40.7591   22.2582   38.9107 H   0  0  0  0  0  0  0  0  0  0  0  0
   35.3788   23.2080   31.6046 H   0  0  0  0  0  0  0  0  0  0  0  0
   33.7032   24.6704   30.3863 H   0  0  0  0  0  0  0  0  0  0  0  0
   35.6720   29.0461   32.3119 H   0  0  0  0  0  0  0  0  0  0  0  0
   36.3463   31.3715   31.7379 H   0  0  0  0  0  0  0  0  0  0  0  0
   38.0457   30.1298   28.0800 H   0  0  0  0  0  0  0  0  0  0  0  0
  1 10  1  0
  2  1  1  0
  3  4  1  0
  3  2  2  0
  4  5  1  0
  5  1  2  0
  6  7  2  0
  8  7  1  0
  8 12  1  0
  9  8  2  0
 10 11  2  0
 10  9  1  0
 11  6  1  0
 12 15  1  0
 12 14  1  0
 13 12  1  0
 16  4  1  0
 17 16  2  0
 18 17  1  0
 19 18  2  0
 19 20  1  0
 20 21  2  0
 21 16  1  0
 22 20  1  0
 22 23  2  0
 24 23  1  0
 25 24  2  0
 26 27  2  0
 26 25  1  0
 27 22  1  0
  2 28  1  0
  3 29  1  0
  6 30  1  0
  7 31  1  0
 17 32  1  0
 18 33  1  0
 23 34  1  0
 24 35  1  0
 26 36  1  0
M  ISO  8  28  14  29  14  30  14  31  14  32  14  33  14  34  14  35  14
M  ISO  1  36  14
M  END
>  <minimizedAffinity>  (1) 
-5.65727568

>  <minimizedRMSD>  (1) 
0.552016139

$$$$
