
     RDKit          3D

 44 47  0  0  0  0  0  0  0  0999 V2000
   38.5480   25.6630   35.0440 C   0  0  0  0  0  0  0  0  0  0  0  0
   37.7180   25.6660   33.8540 N   0  0  0  0  0  0  0  0  0  0  0  0
   37.4350   24.5570   33.1250 C   0  0  0  0  0  0  0  0  0  0  0  0
   36.6200   24.6320   32.0200 C   0  0  0  0  0  0  0  0  0  0  0  0
   36.0590   25.8410   31.6110 C   0  0  0  0  0  0  0  0  0  0  0  0
   35.3130   25.9870   30.6170 O   0  0  0  0  0  0  0  0  0  0  0  0
   36.3500   26.9330   32.3460 N   0  0  0  0  0  0  0  0  0  0  0  0
   37.1490   26.8080   33.4160 C   0  0  0  0  0  0  0  0  0  0  0  0
   37.3950   27.8530   34.0810 O   0  0  0  0  0  0  0  0  0  0  0  0
   35.8220   28.2100   32.0050 C   0  0  0  0  0  0  0  0  0  0  0  0
   36.4540   29.0050   31.0710 C   0  0  0  0  0  0  0  0  0  0  0  0
   35.8430   30.2380   30.8180 C   0  0  0  0  0  0  0  0  0  0  0  0
   34.7170   30.6210   31.4420 N   0  0  0  0  0  0  0  0  0  0  0  0
   34.1290   29.8190   32.3460 C   0  0  0  0  0  0  0  0  0  0  0  0
   34.6790   28.6220   32.6240 N   0  0  0  0  0  0  0  0  0  0  0  0
   36.3040   23.4260   31.2170 C   0  0  0  0  0  0  0  0  0  0  0  0
   39.9060   25.0640   34.7960 C   0  0  0  0  0  0  0  0  0  0  0  0
   39.3090   23.3780   36.5210 C   0  0  0  0  0  0  0  0  0  0  0  0
   40.2570   24.0090   35.7330 C   0  0  0  0  0  0  0  0  0  0  0  0
   41.5820   23.5880   35.8460 C   0  0  0  0  0  0  0  0  0  0  0  0
   41.8660   22.6070   36.6970 N   0  0  0  0  0  0  0  0  0  0  0  0
   40.9380   21.9920   37.4650 C   0  0  0  0  0  0  0  0  0  0  0  0
   39.6310   22.4000   37.3610 N   0  0  0  0  0  0  0  0  0  0  0  0
   42.5960   24.2130   35.0660 N   0  0  0  0  0  0  0  0  0  0  0  0
   42.9550   23.7400   33.8670 C   0  0  0  0  0  0  0  0  0  0  0  0
   43.9290   24.5550   33.4050 C   0  0  0  0  0  0  0  0  0  0  0  0
   44.1580   25.5130   34.3150 N   0  0  0  0  0  0  0  0  0  0  0  0
   43.3240   25.3000   35.3550 C   0  0  0  0  0  0  0  0  0  0  0  0
   38.6769   26.7001   35.3872 H   0  0  0  0  0  0  0  0  0  0  0  0
   38.0435   25.0466   35.8026 H   0  0  0  0  0  0  0  0  0  0  0  0
   37.8622   23.5876   33.4212 H   0  0  0  0  0  0  0  0  0  0  0  0
   37.3759   28.6907   30.5598 H   0  0  0  0  0  0  0  0  0  0  0  0
   36.3004   30.9168   30.0831 H   0  0  0  0  0  0  0  0  0  0  0  0
   33.2069   30.1376   32.8541 H   0  0  0  0  0  0  0  0  0  0  0  0
   36.0835   22.5846   31.8903 H   0  0  0  0  0  0  0  0  0  0  0  0
   35.4282   23.6271   30.5825 H   0  0  0  0  0  0  0  0  0  0  0  0
   37.1659   23.1718   30.5825 H   0  0  0  0  0  0  0  0  0  0  0  0
   39.9208   24.6449   33.7791 H   0  0  0  0  0  0  0  0  0  0  0  0
   40.6429   25.8701   34.9272 H   0  0  0  0  0  0  0  0  0  0  0  0
   38.2583   23.6958   36.4494 H   0  0  0  0  0  0  0  0  0  0  0  0
   41.2232   21.1849   38.1559 H   0  0  0  0  0  0  0  0  0  0  0  0
   42.5384   22.8591   33.3566 H   0  0  0  0  0  0  0  0  0  0  0  0
   44.4485   24.4499   32.4411 H   0  0  0  0  0  0  0  0  0  0  0  0
   43.2549   25.9065   36.2701 H   0  0  0  0  0  0  0  0  0  0  0  0
  2  1  1  0
  3  2  1  0
  4  3  2  0
  5  4  1  0
  5  7  1  0
  6  5  2  0
  7  8  1  0
  8  2  1  0
  8  9  2  0
 10  7  1  0
 10 15  1  0
 11 10  2  0
 12 11  1  0
 12 13  2  0
 13 14  1  0
 14 15  2  0
 16  4  1  0
 17  1  1  0
 17 19  1  0
 18 23  2  0
 19 20  2  0
 19 18  1  0
 20 21  1  0
 21 22  2  0
 23 22  1  0
 24 28  1  0
 24 20  1  0
 25 24  1  0
 26 25  2  0
 26 27  1  0
 27 28  2  0
  1 29  1  0
  1 30  1  0
  3 31  1  0
 11 32  1  0
 12 33  1  0
 14 34  1  0
 16 35  1  0
 16 36  1  0
 16 37  1  0
 17 38  1  0
 17 39  1  0
 18 40  1  0
 22 41  1  0
 25 42  1  0
 26 43  1  0
 28 44  1  0
M  ISO  8  29   8  30   8  31  14  32  14  33  14  34  14  35   8  36   8
M  ISO  8  37   8  38   8  39   8  40  14  41  14  42  14  43  14  44  14
M  END
>  <minimizedAffinity>  (1) 
-5.22362423

>  <minimizedRMSD>  (1) 
2.89072275

$$$$
