
     RDKit          3D

 52 55  0  0  0  0  0  0  0  0999 V2000
   37.9680   25.2780   33.6220 C   0  0  0  0  0  0  0  0  0  0  0  0
   37.4650   26.5430   33.1100 N   0  0  0  0  0  0  0  0  0  0  0  0
   37.5810   26.9520   31.8310 C   0  0  0  0  0  0  0  0  0  0  0  0
   37.0510   28.1500   31.4320 C   0  0  0  0  0  0  0  0  0  0  0  0
   36.3770   28.9850   32.3180 C   0  0  0  0  0  0  0  0  0  0  0  0
   35.8750   30.0940   31.9900 O   0  0  0  0  0  0  0  0  0  0  0  0
   36.2660   28.5620   33.5970 N   0  0  0  0  0  0  0  0  0  0  0  0
   36.8040   27.3810   33.9310 C   0  0  0  0  0  0  0  0  0  0  0  0
   36.6690   27.0290   35.1300 O   0  0  0  0  0  0  0  0  0  0  0  0
   35.5740   29.4120   34.5270 C   0  0  0  0  0  0  0  0  0  0  0  0
   36.0280   30.8180   34.5830 C   0  0  0  0  0  0  0  0  0  0  0  0
   35.3870   31.3920   35.8600 C   0  0  0  0  0  0  0  0  0  0  0  0
   33.9310   31.6440   35.5290 C   0  0  0  0  0  0  0  0  0  0  0  0
   33.4910   30.8140   34.3640 C   0  0  0  0  0  0  0  0  0  0  0  0
   34.0820   29.3970   34.3980 C   0  0  0  0  0  0  0  0  0  0  0  0
   37.1710   28.5970   30.0170 C   0  0  0  0  0  0  0  0  0  0  0  0
   39.3010   25.4280   34.3030 C   0  0  0  0  0  0  0  0  0  0  0  0
   38.4660   24.2040   36.2980 C   0  0  0  0  0  0  0  0  0  0  0  0
   39.4880   24.5190   35.4200 C   0  0  0  0  0  0  0  0  0  0  0  0
   40.7280   23.9120   35.6230 C   0  0  0  0  0  0  0  0  0  0  0  0
   40.8620   23.0640   36.6430 N   0  0  0  0  0  0  0  0  0  0  0  0
   39.8610   22.7620   37.4950 C   0  0  0  0  0  0  0  0  0  0  0  0
   38.6370   23.3520   37.3070 N   0  0  0  0  0  0  0  0  0  0  0  0
   41.8200   24.2100   34.7600 N   0  0  0  0  0  0  0  0  0  0  0  0
   42.0630   23.4840   33.6630 C   0  0  0  0  0  0  0  0  0  0  0  0
   43.1530   24.0220   33.0750 C   0  0  0  0  0  0  0  0  0  0  0  0
   43.5680   25.0670   33.8090 N   0  0  0  0  0  0  0  0  0  0  0  0
   42.7330   25.1850   34.8630 C   0  0  0  0  0  0  0  0  0  0  0  0
   38.0763   24.5747   32.7832 H   0  0  0  0  0  0  0  0  0  0  0  0
   37.2491   24.9064   34.3670 H   0  0  0  0  0  0  0  0  0  0  0  0
   38.1060   26.3180   31.1013 H   0  0  0  0  0  0  0  0  0  0  0  0
   35.8577   28.9346   35.4765 H   0  0  0  0  0  0  0  0  0  0  0  0
   37.1251   30.8680   34.6448 H   0  0  0  0  0  0  0  0  0  0  0  0
   35.7376   31.3825   33.6847 H   0  0  0  0  0  0  0  0  0  0  0  0
   35.4704   30.6699   36.6856 H   0  0  0  0  0  0  0  0  0  0  0  0
   35.8902   32.3168   36.1787 H   0  0  0  0  0  0  0  0  0  0  0  0
   33.3147   31.3901   36.4040 H   0  0  0  0  0  0  0  0  0  0  0  0
   33.8115   32.7055   35.2663 H   0  0  0  0  0  0  0  0  0  0  0  0
   33.8132   31.3089   33.4360 H   0  0  0  0  0  0  0  0  0  0  0  0
   32.3959   30.7218   34.4125 H   0  0  0  0  0  0  0  0  0  0  0  0
   33.6572   28.8560   35.2564 H   0  0  0  0  0  0  0  0  0  0  0  0
   33.8289   28.9015   33.4491 H   0  0  0  0  0  0  0  0  0  0  0  0
   37.4561   29.6591   29.9909 H   0  0  0  0  0  0  0  0  0  0  0  0
   37.9402   27.9982   29.5073 H   0  0  0  0  0  0  0  0  0  0  0  0
   36.2053   28.4640   29.5073 H   0  0  0  0  0  0  0  0  0  0  0  0
   40.0928   25.2379   33.5635 H   0  0  0  0  0  0  0  0  0  0  0  0
   39.3436   26.4499   34.7077 H   0  0  0  0  0  0  0  0  0  0  0  0
   37.4806   24.6724   36.1580 H   0  0  0  0  0  0  0  0  0  0  0  0
   40.0228   22.0570   38.3237 H   0  0  0  0  0  0  0  0  0  0  0  0
   41.4865   22.6168   33.3086 H   0  0  0  0  0  0  0  0  0  0  0  0
   43.6234   23.6633   32.1476 H   0  0  0  0  0  0  0  0  0  0  0  0
   42.7914   25.9417   35.6592 H   0  0  0  0  0  0  0  0  0  0  0  0
  1 17  1  0
  2  1  1  0
  2  8  1  0
  3  2  1  0
  4  3  2  0
  4  5  1  0
  5  7  1  0
  6  5  2  0
  7  8  1  0
  7 10  1  0
  8  9  2  0
 10 11  1  0
 11 12  1  0
 13 12  1  0
 14 15  1  0
 14 13  1  0
 15 10  1  0
 16  4  1  0
 17 19  1  0
 18 23  2  0
 19 20  2  0
 19 18  1  0
 20 21  1  0
 21 22  2  0
 23 22  1  0
 24 28  1  0
 24 20  1  0
 25 24  1  0
 26 25  2  0
 26 27  1  0
 27 28  2  0
  1 29  1  0
  1 30  1  0
  3 31  1  0
 10 32  1  0
 11 33  1  0
 11 34  1  0
 12 35  1  0
 12 36  1  0
 13 37  1  0
 13 38  1  0
 14 39  1  0
 14 40  1  0
 15 41  1  0
 15 42  1  0
 16 43  1  0
 16 44  1  0
 16 45  1  0
 17 46  1  0
 17 47  1  0
 18 48  1  0
 22 49  1  0
 25 50  1  0
 26 51  1  0
 28 52  1  0
M  ISO  8  29   8  30   8  31  14  32  13  33  13  34  13  35  13  36  13
M  ISO  8  37  13  38  13  39  13  40  13  41  13  42  13  43   8  44   8
M  ISO  8  45   8  46   8  47   8  48  14  49  14  50  14  51  14  52  14
M  END
>  <minimizedAffinity>  (1) 
-5.25581884

>  <minimizedRMSD>  (1) 
3.18323874

$$$$
