
     RDKit          3D

 44 47  0  0  0  0  0  0  0  0999 V2000
   38.5410   25.6140   35.1280 C   0  0  0  0  0  0  0  0  0  0  0  0
   37.7360   25.6400   33.9200 N   0  0  0  0  0  0  0  0  0  0  0  0
   37.4700   24.5470   33.1720 C   0  0  0  0  0  0  0  0  0  0  0  0
   36.6700   24.6400   32.0630 C   0  0  0  0  0  0  0  0  0  0  0  0
   36.1100   25.8400   31.6680 C   0  0  0  0  0  0  0  0  0  0  0  0
   35.3690   26.0080   30.6660 O   0  0  0  0  0  0  0  0  0  0  0  0
   36.3790   26.9240   32.4160 N   0  0  0  0  0  0  0  0  0  0  0  0
   37.1710   26.7900   33.5020 C   0  0  0  0  0  0  0  0  0  0  0  0
   37.4030   27.8230   34.1870 O   0  0  0  0  0  0  0  0  0  0  0  0
   35.8310   28.1940   32.0620 C   0  0  0  0  0  0  0  0  0  0  0  0
   34.7170   28.8170   32.5380 C   0  0  0  0  0  0  0  0  0  0  0  0
   34.4040   30.0520   32.0250 C   0  0  0  0  0  0  0  0  0  0  0  0
   35.1570   30.6610   31.0770 N   0  0  0  0  0  0  0  0  0  0  0  0
   36.2540   30.0190   30.6260 C   0  0  0  0  0  0  0  0  0  0  0  0
   36.5860   28.8120   31.1070 N   0  0  0  0  0  0  0  0  0  0  0  0
   36.3610   23.4300   31.2410 C   0  0  0  0  0  0  0  0  0  0  0  0
   39.9250   25.0750   34.8850 C   0  0  0  0  0  0  0  0  0  0  0  0
   39.3610   23.3530   36.5890 C   0  0  0  0  0  0  0  0  0  0  0  0
   40.2910   23.9960   35.7900 C   0  0  0  0  0  0  0  0  0  0  0  0
   41.6150   23.5650   35.8590 C   0  0  0  0  0  0  0  0  0  0  0  0
   41.9100   22.5600   36.6850 N   0  0  0  0  0  0  0  0  0  0  0  0
   41.0050   21.9360   37.4590 C   0  0  0  0  0  0  0  0  0  0  0  0
   39.6990   22.3520   37.4010 N   0  0  0  0  0  0  0  0  0  0  0  0
   42.6150   24.2010   35.0680 N   0  0  0  0  0  0  0  0  0  0  0  0
   42.9320   23.7540   33.8480 C   0  0  0  0  0  0  0  0  0  0  0  0
   43.9010   24.5670   33.3770 C   0  0  0  0  0  0  0  0  0  0  0  0
   44.1690   25.5010   34.3060 N   0  0  0  0  0  0  0  0  0  0  0  0
   43.3620   25.2710   35.3630 C   0  0  0  0  0  0  0  0  0  0  0  0
   38.6248   26.6389   35.5185 H   0  0  0  0  0  0  0  0  0  0  0  0
   38.0435   24.9472   35.8477 H   0  0  0  0  0  0  0  0  0  0  0  0
   37.8989   23.5745   33.4553 H   0  0  0  0  0  0  0  0  0  0  0  0
   34.0885   28.3462   33.3083 H   0  0  0  0  0  0  0  0  0  0  0  0
   33.5067   30.5672   32.3984 H   0  0  0  0  0  0  0  0  0  0  0  0
   36.8826   30.4901   29.8560 H   0  0  0  0  0  0  0  0  0  0  0  0
   36.1441   22.5808   31.9057 H   0  0  0  0  0  0  0  0  0  0  0  0
   35.4855   23.6317   30.6063 H   0  0  0  0  0  0  0  0  0  0  0  0
   37.2260   23.1873   30.6063 H   0  0  0  0  0  0  0  0  0  0  0  0
   39.9761   24.6973   33.8531 H   0  0  0  0  0  0  0  0  0  0  0  0
   40.6308   25.9002   35.0606 H   0  0  0  0  0  0  0  0  0  0  0  0
   38.3109   23.6784   36.5524 H   0  0  0  0  0  0  0  0  0  0  0  0
   41.3045   21.1117   38.1229 H   0  0  0  0  0  0  0  0  0  0  0  0
   42.4890   22.8912   33.3291 H   0  0  0  0  0  0  0  0  0  0  0  0
   44.3903   24.4798   32.3957 H   0  0  0  0  0  0  0  0  0  0  0  0
   43.3252   25.8550   36.2944 H   0  0  0  0  0  0  0  0  0  0  0  0
  2  1  1  0
  3  2  1  0
  4  3  2  0
  5  4  1  0
  5  7  1  0
  6  5  2  0
  7  8  1  0
  8  2  1  0
  8  9  2  0
 10  7  1  0
 10 11  2  0
 12 11  1  0
 13 12  2  0
 14 13  1  0
 14 15  2  0
 15 10  1  0
 16  4  1  0
 17  1  1  0
 17 19  1  0
 18 23  2  0
 19 20  2  0
 19 18  1  0
 20 21  1  0
 21 22  2  0
 23 22  1  0
 24 28  1  0
 24 20  1  0
 25 24  1  0
 26 25  2  0
 26 27  1  0
 27 28  2  0
  1 29  1  0
  1 30  1  0
  3 31  1  0
 11 32  1  0
 12 33  1  0
 14 34  1  0
 16 35  1  0
 16 36  1  0
 16 37  1  0
 17 38  1  0
 17 39  1  0
 18 40  1  0
 22 41  1  0
 25 42  1  0
 26 43  1  0
 28 44  1  0
M  ISO  8  29   8  30   8  31  14  32  14  33  14  34  14  35   8  36   8
M  ISO  8  37   8  38   8  39   8  40  14  41  14  42  14  43  14  44  14
M  END
>  <minimizedAffinity>  (1) 
-5.16969681

>  <minimizedRMSD>  (1) 
2.82701612

$$$$
