
     RDKit          3D

 43 46  0  0  0  0  0  0  0  0999 V2000
   39.9580   24.9500   35.1450 C   0  0  0  0  0  0  0  0  0  0  0  0
   39.6710   23.0610   36.7320 C   0  0  0  0  0  0  0  0  0  0  0  0
   40.4780   23.8340   35.9150 C   0  0  0  0  0  0  0  0  0  0  0  0
   41.8270   23.5020   35.8300 C   0  0  0  0  0  0  0  0  0  0  0  0
   42.2710   22.4610   36.5320 N   0  0  0  0  0  0  0  0  0  0  0  0
   41.4840   21.7070   37.3280 C   0  0  0  0  0  0  0  0  0  0  0  0
   40.1520   22.0270   37.4210 N   0  0  0  0  0  0  0  0  0  0  0  0
   42.7050   24.2730   35.0150 N   0  0  0  0  0  0  0  0  0  0  0  0
   42.9490   23.9400   33.7420 C   0  0  0  0  0  0  0  0  0  0  0  0
   43.8110   24.8640   33.2600 C   0  0  0  0  0  0  0  0  0  0  0  0
   44.0870   25.7480   34.2310 N   0  0  0  0  0  0  0  0  0  0  0  0
   43.3950   25.3780   35.3300 C   0  0  0  0  0  0  0  0  0  0  0  0
   38.5010   25.2340   35.4010 C   0  0  0  0  0  0  0  0  0  0  0  0
   37.7980   25.6430   34.2060 N   0  0  0  0  0  0  0  0  0  0  0  0
   37.5100   24.8070   33.1760 C   0  0  0  0  0  0  0  0  0  0  0  0
   36.8090   25.2480   32.0800 C   0  0  0  0  0  0  0  0  0  0  0  0
   36.3710   26.5660   31.9920 C   0  0  0  0  0  0  0  0  0  0  0  0
   35.7220   27.0450   31.0200 O   0  0  0  0  0  0  0  0  0  0  0  0
   36.6640   27.3870   33.0240 N   0  0  0  0  0  0  0  0  0  0  0  0
   37.3480   26.8970   34.0610 C   0  0  0  0  0  0  0  0  0  0  0  0
   37.5920   27.7010   35.0060 O   0  0  0  0  0  0  0  0  0  0  0  0
   36.4920   24.3380   30.9540 C   0  0  0  0  0  0  0  0  0  0  0  0
   36.2240   28.7660   32.9640 C   0  0  0  0  0  0  0  0  0  0  0  0
   35.5670   29.4580   34.0740 C   0  0  0  0  0  0  0  0  0  0  0  0
   34.6970   28.9300   32.9230 C   0  0  0  0  0  0  0  0  0  0  0  0
   40.0854   24.7240   34.0760 H   0  0  0  0  0  0  0  0  0  0  0  0
   40.5195   25.8440   35.4541 H   0  0  0  0  0  0  0  0  0  0  0  0
   38.6022   23.3074   36.8147 H   0  0  0  0  0  0  0  0  0  0  0  0
   41.8996   20.8567   37.8887 H   0  0  0  0  0  0  0  0  0  0  0  0
   42.5304   23.0825   33.1947 H   0  0  0  0  0  0  0  0  0  0  0  0
   44.2192   24.8871   32.2388 H   0  0  0  0  0  0  0  0  0  0  0  0
   43.3972   25.8892   36.3040 H   0  0  0  0  0  0  0  0  0  0  0  0
   38.0277   24.3221   35.7939 H   0  0  0  0  0  0  0  0  0  0  0  0
   38.4439   26.0626   36.1222 H   0  0  0  0  0  0  0  0  0  0  0  0
   37.8433   23.7596   33.2197 H   0  0  0  0  0  0  0  0  0  0  0  0
   36.1544   23.3688   31.3497 H   0  0  0  0  0  0  0  0  0  0  0  0
   35.6950   24.7804   30.3383 H   0  0  0  0  0  0  0  0  0  0  0  0
   37.3913   24.1894   30.3383 H   0  0  0  0  0  0  0  0  0  0  0  0
   37.1026   29.0532   32.3677 H   0  0  0  0  0  0  0  0  0  0  0  0
   35.5148   28.9776   35.0622 H   0  0  0  0  0  0  0  0  0  0  0  0
   35.6962   30.4405   34.5516 H   0  0  0  0  0  0  0  0  0  0  0  0
   34.2291   29.6266   32.2118 H   0  0  0  0  0  0  0  0  0  0  0  0
   33.8276   28.2634   32.8240 H   0  0  0  0  0  0  0  0  0  0  0  0
  1 13  1  0
  1  3  1  0
  2  7  2  0
  3  2  1  0
  4  3  2  0
  4  5  1  0
  5  6  2  0
  6  7  1  0
  8 12  1  0
  8  4  1  0
  9  8  1  0
 10  9  2  0
 10 11  1  0
 11 12  2  0
 14 13  1  0
 15 14  1  0
 16 15  2  0
 17 16  1  0
 17 19  1  0
 18 17  2  0
 19 20  1  0
 20 14  1  0
 20 21  2  0
 22 16  1  0
 23 19  1  0
 23 24  1  0
 25 23  1  0
 25 24  1  0
  1 26  1  0
  1 27  1  0
  2 28  1  0
  6 29  1  0
  9 30  1  0
 10 31  1  0
 12 32  1  0
 13 33  1  0
 13 34  1  0
 15 35  1  0
 22 36  1  0
 22 37  1  0
 22 38  1  0
 23 39  1  0
 24 40  1  0
 24 41  1  0
 25 42  1  0
 25 43  1  0
M  ISO  8  26   8  27   8  28  14  29  14  30  14  31  14  32  14  33   8
M  ISO  8  34   8  35  14  36   8  37   8  38   8  39  13  40  13  41  13
M  ISO  2  42  13  43  13
M  END
>  <minimizedAffinity>  (1) 
-4.76779842

>  <minimizedRMSD>  (1) 
2.18863678

$$$$
