
     RDKit          3D

 42 45  0  0  0  0  0  0  0  0999 V2000
   38.5140   25.6610   35.0770 C   0  0  0  0  0  0  0  0  0  0  0  0
   37.7000   25.6960   33.8670 N   0  0  0  0  0  0  0  0  0  0  0  0
   37.4200   24.5920   33.1310 C   0  0  0  0  0  0  0  0  0  0  0  0
   36.6220   24.6820   32.0150 C   0  0  0  0  0  0  0  0  0  0  0  0
   36.0810   25.8970   31.6050 C   0  0  0  0  0  0  0  0  0  0  0  0
   35.3450   26.0630   30.6000 O   0  0  0  0  0  0  0  0  0  0  0  0
   36.3840   26.9780   32.3640 N   0  0  0  0  0  0  0  0  0  0  0  0
   37.1610   26.8500   33.4420 C   0  0  0  0  0  0  0  0  0  0  0  0
   37.4060   27.8760   34.1120 O   0  0  0  0  0  0  0  0  0  0  0  0
   35.8710   28.2850   32.0190 C   0  0  0  0  0  0  0  0  0  0  0  0
   36.4840   29.1630   31.1080 C   0  0  0  0  0  0  0  0  0  0  0  0
   35.2820   30.5840   31.1890 S   0  0  0  0  0  0  0  0  0  0  0  0
   34.1850   29.6850   32.4550 C   0  0  0  0  0  0  0  0  0  0  0  0
   34.7510   28.5500   32.6680 N   0  0  0  0  0  0  0  0  0  0  0  0
   36.3100   23.4850   31.1940 C   0  0  0  0  0  0  0  0  0  0  0  0
   39.8830   25.0870   34.8290 C   0  0  0  0  0  0  0  0  0  0  0  0
   39.3020   23.3960   36.5570 C   0  0  0  0  0  0  0  0  0  0  0  0
   40.2360   24.0250   35.7560 C   0  0  0  0  0  0  0  0  0  0  0  0
   41.5610   23.5940   35.8390 C   0  0  0  0  0  0  0  0  0  0  0  0
   41.8550   22.6060   36.6760 N   0  0  0  0  0  0  0  0  0  0  0  0
   40.9370   21.9920   37.4580 C   0  0  0  0  0  0  0  0  0  0  0  0
   39.6320   22.4090   37.3850 N   0  0  0  0  0  0  0  0  0  0  0  0
   42.5700   24.2160   35.0500 N   0  0  0  0  0  0  0  0  0  0  0  0
   42.8980   23.7500   33.8410 C   0  0  0  0  0  0  0  0  0  0  0  0
   43.8730   24.5550   33.3670 C   0  0  0  0  0  0  0  0  0  0  0  0
   44.1350   25.5060   34.2820 N   0  0  0  0  0  0  0  0  0  0  0  0
   43.3210   25.2930   35.3330 C   0  0  0  0  0  0  0  0  0  0  0  0
   38.6245   26.6867   35.4586 H   0  0  0  0  0  0  0  0  0  0  0  0
   38.0049   25.0134   35.8060 H   0  0  0  0  0  0  0  0  0  0  0  0
   37.8343   23.6175   33.4290 H   0  0  0  0  0  0  0  0  0  0  0  0
   37.4054   29.0452   30.5188 H   0  0  0  0  0  0  0  0  0  0  0  0
   33.2567   30.0589   32.9116 H   0  0  0  0  0  0  0  0  0  0  0  0
   36.0883   22.6344   31.8553 H   0  0  0  0  0  0  0  0  0  0  0  0
   35.4362   23.6934   30.5592 H   0  0  0  0  0  0  0  0  0  0  0  0
   37.1744   23.2403   30.5592 H   0  0  0  0  0  0  0  0  0  0  0  0
   39.9123   24.6824   33.8065 H   0  0  0  0  0  0  0  0  0  0  0  0
   40.6091   25.9007   34.9729 H   0  0  0  0  0  0  0  0  0  0  0  0
   38.2525   23.7219   36.5082 H   0  0  0  0  0  0  0  0  0  0  0  0
   41.2303   21.1774   38.1365 H   0  0  0  0  0  0  0  0  0  0  0  0
   42.4590   22.8798   33.3312 H   0  0  0  0  0  0  0  0  0  0  0  0
   44.3716   24.4504   32.3921 H   0  0  0  0  0  0  0  0  0  0  0  0
   43.2787   25.8916   36.2549 H   0  0  0  0  0  0  0  0  0  0  0  0
  2  1  1  0
  3  2  1  0
  4  3  2  0
  5  4  1  0
  5  7  1  0
  6  5  2  0
  7  8  1  0
  8  2  1  0
  8  9  2  0
 10  7  1  0
 10 14  1  0
 11 12  1  0
 11 10  2  0
 12 13  1  0
 13 14  2  0
 15  4  1  0
 16  1  1  0
 16 18  1  0
 17 22  2  0
 18 19  2  0
 18 17  1  0
 19 20  1  0
 20 21  2  0
 22 21  1  0
 23 27  1  0
 23 19  1  0
 24 23  1  0
 25 24  2  0
 25 26  1  0
 26 27  2  0
  1 28  1  0
  1 29  1  0
  3 30  1  0
 11 31  1  0
 13 32  1  0
 15 33  1  0
 15 34  1  0
 15 35  1  0
 16 36  1  0
 16 37  1  0
 17 38  1  0
 21 39  1  0
 24 40  1  0
 25 41  1  0
 27 42  1  0
M  ISO  8  28   8  29   8  30  14  31  14  32  14  33   8  34   8  35   8
M  ISO  7  36   8  37   8  38  14  39  14  40  14  41  14  42  14
M  END
>  <minimizedAffinity>  (1) 
-4.94521523

>  <minimizedRMSD>  (1) 
2.79791188

$$$$
