
     RDKit          3D

 39 41  0  0  0  0  0  0  0  0999 V2000
   41.2930   24.0650   35.7130 C   0  0  0  0  0  0  0  0  0  0  0  0
   41.6060   21.6160   35.9950 C   0  0  0  0  0  0  0  0  0  0  0  0
   42.1310   22.8930   35.9000 C   0  0  0  0  0  0  0  0  0  0  0  0
   43.5200   23.0340   35.9690 C   0  0  0  0  0  0  0  0  0  0  0  0
   44.2610   21.9420   36.1180 N   0  0  0  0  0  0  0  0  0  0  0  0
   43.7430   20.6930   36.2090 C   0  0  0  0  0  0  0  0  0  0  0  0
   42.3870   20.5380   36.1450 N   0  0  0  0  0  0  0  0  0  0  0  0
   44.1080   24.3250   35.8950 N   0  0  0  0  0  0  0  0  0  0  0  0
   44.3250   24.9300   34.7220 C   0  0  0  0  0  0  0  0  0  0  0  0
   44.8890   26.1260   35.0020 C   0  0  0  0  0  0  0  0  0  0  0  0
   45.0130   26.2460   36.3360 N   0  0  0  0  0  0  0  0  0  0  0  0
   44.5250   25.1190   36.8930 C   0  0  0  0  0  0  0  0  0  0  0  0
   39.8350   23.8080   35.9890 C   0  0  0  0  0  0  0  0  0  0  0  0
   38.9700   24.3550   34.9610 N   0  0  0  0  0  0  0  0  0  0  0  0
   38.7330   23.7430   33.7740 C   0  0  0  0  0  0  0  0  0  0  0  0
   37.8750   24.2950   32.8570 C   0  0  0  0  0  0  0  0  0  0  0  0
   37.2260   25.4960   33.1150 C   0  0  0  0  0  0  0  0  0  0  0  0
   36.4250   26.0690   32.3270 O   0  0  0  0  0  0  0  0  0  0  0  0
   37.4710   26.0980   34.3060 N   0  0  0  0  0  0  0  0  0  0  0  0
   38.3210   25.5120   35.1700 C   0  0  0  0  0  0  0  0  0  0  0  0
   38.5150   26.0980   36.2550 O   0  0  0  0  0  0  0  0  0  0  0  0
   37.6030   23.6230   31.5620 C   0  0  0  0  0  0  0  0  0  0  0  0
   36.8140   27.3570   34.6190 C   0  0  0  0  0  0  0  0  0  0  0  0
   41.6425   24.8557   36.3932 H   0  0  0  0  0  0  0  0  0  0  0  0
   41.3766   24.3587   34.6562 H   0  0  0  0  0  0  0  0  0  0  0  0
   40.5153   21.4823   35.9459 H   0  0  0  0  0  0  0  0  0  0  0  0
   44.4017   19.8206   36.3320 H   0  0  0  0  0  0  0  0  0  0  0  0
   44.0902   24.5318   33.7239 H   0  0  0  0  0  0  0  0  0  0  0  0
   45.1963   26.8781   34.2604 H   0  0  0  0  0  0  0  0  0  0  0  0
   44.4775   24.8922   37.9683 H   0  0  0  0  0  0  0  0  0  0  0  0
   39.6728   22.7215   36.0451 H   0  0  0  0  0  0  0  0  0  0  0  0
   39.5819   24.3043   36.9375 H   0  0  0  0  0  0  0  0  0  0  0  0
   39.2352   22.7918   33.5437 H   0  0  0  0  0  0  0  0  0  0  0  0
   37.1963   22.6181   31.7487 H   0  0  0  0  0  0  0  0  0  0  0  0
   36.8730   24.2134   30.9888 H   0  0  0  0  0  0  0  0  0  0  0  0
   38.5381   23.5394   30.9888 H   0  0  0  0  0  0  0  0  0  0  0  0
   36.7516   27.4765   35.7107 H   0  0  0  0  0  0  0  0  0  0  0  0
   37.3930   28.1889   34.1915 H   0  0  0  0  0  0  0  0  0  0  0  0
   35.8005   27.3579   34.1915 H   0  0  0  0  0  0  0  0  0  0  0  0
  1  3  1  0
  1 13  1  0
  2  7  2  0
  3  4  2  0
  3  2  1  0
  4  5  1  0
  5  6  2  0
  7  6  1  0
  8  4  1  0
  8 12  1  0
  9 10  2  0
  9  8  1  0
 10 11  1  0
 11 12  2  0
 14 20  1  0
 14 13  1  0
 15 14  1  0
 16 17  1  0
 16 15  2  0
 17 19  1  0
 18 17  2  0
 19 23  1  0
 19 20  1  0
 20 21  2  0
 22 16  1  0
  1 24  1  0
  1 25  1  0
  2 26  1  0
  6 27  1  0
  9 28  1  0
 10 29  1  0
 12 30  1  0
 13 31  1  0
 13 32  1  0
 15 33  1  0
 22 34  1  0
 22 35  1  0
 22 36  1  0
 23 37  1  0
 23 38  1  0
 23 39  1  0
M  ISO  8  24   8  25   8  26  14  27  14  28  14  29  14  30  14  31   8
M  ISO  8  32   8  33  14  34   8  35   8  36   8  37   8  38   8  39   8
M  END
>  <minimizedAffinity>  (1) 
-3.96132827

>  <minimizedRMSD>  (1) 
0.381709874

$$$$
