
     RDKit          3D

 34 37  0  0  0  0  0  0  0  0999 V2000
   39.0030   24.4820   33.8330 C   0  0  0  0  0  0  0  0  0  0  0  0
   39.1410   24.0050   32.5500 C   0  0  0  0  0  0  0  0  0  0  0  0
   38.6160   24.9660   31.6860 C   0  0  0  0  0  0  0  0  0  0  0  0
   38.1790   25.9850   32.4400 N   0  0  0  0  0  0  0  0  0  0  0  0
   38.4140   25.6870   33.7300 N   0  0  0  0  0  0  0  0  0  0  0  0
   40.7870   22.3780   36.2400 C   0  0  0  0  0  0  0  0  0  0  0  0
   40.0780   22.6330   37.4400 C   0  0  0  0  0  0  0  0  0  0  0  0
   39.0170   23.5130   37.3820 C   0  0  0  0  0  0  0  0  0  0  0  0
   38.6990   24.0930   36.1900 N   0  0  0  0  0  0  0  0  0  0  0  0
   39.4110   23.8160   35.0650 C   0  0  0  0  0  0  0  0  0  0  0  0
   40.4380   22.9700   35.0980 N   0  0  0  0  0  0  0  0  0  0  0  0
   38.3210   23.7410   38.6470 C   0  0  0  0  0  0  0  0  0  0  0  0
   37.7220   24.9710   38.6410 F   0  0  0  0  0  0  0  0  0  0  0  0
   39.2810   23.7960   39.6370 F   0  0  0  0  0  0  0  0  0  0  0  0
   37.3610   22.8030   38.9060 F   0  0  0  0  0  0  0  0  0  0  0  0
   37.5640   27.1860   31.9480 C   0  0  0  0  0  0  0  0  0  0  0  0
   36.4210   27.6220   32.5710 C   0  0  0  0  0  0  0  0  0  0  0  0
   35.8340   28.7880   32.0860 C   0  0  0  0  0  0  0  0  0  0  0  0
   36.3890   29.4170   31.0630 N   0  0  0  0  0  0  0  0  0  0  0  0
   37.5050   28.9990   30.4470 C   0  0  0  0  0  0  0  0  0  0  0  0
   38.0870   27.8560   30.9180 N   0  0  0  0  0  0  0  0  0  0  0  0
   38.1440   29.6850   29.3030 C   0  0  0  0  0  0  0  0  0  0  0  0
   39.5200   29.6530   29.0870 C   0  0  0  0  0  0  0  0  0  0  0  0
   39.7100   30.6610   27.5520 S   0  0  0  0  0  0  0  0  0  0  0  0
   37.8310   30.9430   27.4910 C   0  0  0  0  0  0  0  0  0  0  0  0
   37.4620   30.3810   28.3970 N   0  0  0  0  0  0  0  0  0  0  0  0
   39.5845   23.0415   32.2586 H   0  0  0  0  0  0  0  0  0  0  0  0
   38.5692   24.9001   30.5890 H   0  0  0  0  0  0  0  0  0  0  0  0
   41.6380   21.6811   36.2511 H   0  0  0  0  0  0  0  0  0  0  0  0
   40.3634   22.1466   38.3844 H   0  0  0  0  0  0  0  0  0  0  0  0
   35.9864   27.0725   33.4190 H   0  0  0  0  0  0  0  0  0  0  0  0
   34.9175   29.1823   32.5492 H   0  0  0  0  0  0  0  0  0  0  0  0
   40.2982   29.1526   29.6820 H   0  0  0  0  0  0  0  0  0  0  0  0
   37.2472   31.5137   26.7538 H   0  0  0  0  0  0  0  0  0  0  0  0
  1 10  1  0
  2  1  1  0
  3  4  1  0
  3  2  2  0
  4  5  1  0
  5  1  2  0
  6  7  2  0
  8  7  1  0
  8 12  1  0
  9  8  2  0
 10 11  2  0
 10  9  1  0
 11  6  1  0
 12 15  1  0
 12 14  1  0
 13 12  1  0
 16  4  1  0
 16 17  2  0
 18 17  1  0
 19 18  2  0
 20 21  2  0
 20 19  1  0
 21 16  1  0
 22 20  1  0
 23 22  2  0
 24 23  1  0
 25 24  1  0
 25 26  2  0
 26 22  1  0
  2 27  1  0
  3 28  1  0
  6 29  1  0
  7 30  1  0
 17 31  1  0
 18 32  1  0
 23 33  1  0
 25 34  1  0
M  ISO  8  27  14  28  14  29  14  30  14  31  14  32  14  33  14  34  14
M  END
>  <minimizedAffinity>  (1) 
-5.60221195

>  <minimizedRMSD>  (1) 
2.11295462

$$$$
