
     RDKit          3D

 32 35  0  0  0  0  0  0  0  0999 V2000
   38.5560   22.5660   34.8480 C   0  0  0  0  0  0  0  0  0  0  0  0
   39.8150   22.2220   34.3710 C   0  0  0  0  0  0  0  0  0  0  0  0
   39.8980   21.4900   33.2150 C   0  0  0  0  0  0  0  0  0  0  0  0
   38.7640   21.1180   32.5650 N   0  0  0  0  0  0  0  0  0  0  0  0
   37.5330   21.4560   33.0340 C   0  0  0  0  0  0  0  0  0  0  0  0
   37.4470   22.1870   34.1860 N   0  0  0  0  0  0  0  0  0  0  0  0
   40.9600   22.6450   35.1040 N   0  0  0  0  0  0  0  0  0  0  0  0
   41.7350   22.0180   36.0370 C   0  0  0  0  0  0  0  0  0  0  0  0
   42.6960   22.8670   36.4150 N   0  0  0  0  0  0  0  0  0  0  0  0
   42.5720   24.0300   35.7570 C   0  0  0  0  0  0  0  0  0  0  0  0
   43.3590   25.1750   35.8510 C   0  0  0  0  0  0  0  0  0  0  0  0
   44.3420   25.2530   36.6170 O   0  0  0  0  0  0  0  0  0  0  0  0
   42.9470   26.1820   35.0320 N   0  0  0  0  0  0  0  0  0  0  0  0
   41.8920   26.0960   34.2110 C   0  0  0  0  0  0  0  0  0  0  0  0
   41.4970   27.1780   33.3700 N   0  0  0  0  0  0  0  0  0  0  0  0
   41.1600   24.9600   34.1560 N   0  0  0  0  0  0  0  0  0  0  0  0
   41.4770   23.8850   34.9320 C   0  0  0  0  0  0  0  0  0  0  0  0
   38.0380   25.3320   37.2220 C   0  0  0  0  0  0  0  0  0  0  0  0
   38.1210   24.6850   38.4560 C   0  0  0  0  0  0  0  0  0  0  0  0
   38.3560   23.2900   38.4560 C   0  0  0  0  0  0  0  0  0  0  0  0
   38.4860   22.6750   37.2450 N   0  0  0  0  0  0  0  0  0  0  0  0
   38.3990   23.3440   36.0710 C   0  0  0  0  0  0  0  0  0  0  0  0
   38.1770   24.6600   36.0610 N   0  0  0  0  0  0  0  0  0  0  0  0
   40.8815   21.2040   32.8139 H   0  0  0  0  0  0  0  0  0  0  0  0
   36.6241   21.1472   32.4968 H   0  0  0  0  0  0  0  0  0  0  0  0
   41.5934   20.9936   36.4120 H   0  0  0  0  0  0  0  0  0  0  0  0
   43.4792   27.0638   35.0446 H   0  0  0  0  0  0  0  0  0  0  0  0
   40.6802   27.0773   32.7507 H   0  0  0  0  0  0  0  0  0  0  0  0
   42.0286   28.0602   33.3819 H   0  0  0  0  0  0  0  0  0  0  0  0
   37.8548   26.4163   37.1958 H   0  0  0  0  0  0  0  0  0  0  0  0
   38.0074   25.2417   39.3979 H   0  0  0  0  0  0  0  0  0  0  0  0
   38.4310   22.7232   39.3957 H   0  0  0  0  0  0  0  0  0  0  0  0
  1 22  1  0
  2  1  1  0
  2  7  1  0
  3  2  2  0
  4  5  2  0
  4  3  1  0
  5  6  1  0
  6  1  2  0
  7  8  1  0
  8  9  2  0
 10 11  1  0
 10  9  1  0
 11 12  2  0
 13 11  1  0
 14 13  1  0
 15 14  1  0
 16 14  2  0
 16 17  1  0
 17  7  1  0
 17 10  2  0
 18 19  2  0
 20 19  1  0
 21 20  2  0
 22 21  1  0
 23 22  2  0
 23 18  1  0
  3 24  1  0
  5 25  1  0
  8 26  1  0
 13 27  1  0
 15 28  1  0
 15 29  1  0
 18 30  1  0
 19 31  1  0
 20 32  1  0
M  ISO  7  24  14  25  14  26  14  27   9  30  14  31  14  32  14
M  END
>  <minimizedAffinity>  (1) 
-4.78029203

>  <minimizedRMSD>  (1) 
6.5886898

$$$$
