
     RDKit          3D

 25 27  0  0  0  0  0  0  0  0999 V2000
   37.9180   22.9780   34.7260 C   0  0  0  0  0  0  0  0  0  0  0  0
   37.8970   24.0820   33.9030 C   0  0  0  0  0  0  0  0  0  0  0  0
   37.5570   23.9500   32.5860 C   0  0  0  0  0  0  0  0  0  0  0  0
   37.2400   22.7110   32.1020 N   0  0  0  0  0  0  0  0  0  0  0  0
   37.2580   21.6130   32.9100 C   0  0  0  0  0  0  0  0  0  0  0  0
   37.6010   21.7810   34.2160 N   0  0  0  0  0  0  0  0  0  0  0  0
   37.7760   23.4770   38.3580 C   0  0  0  0  0  0  0  0  0  0  0  0
   39.0880   23.2080   38.7440 C   0  0  0  0  0  0  0  0  0  0  0  0
   40.0140   22.8570   37.7470 C   0  0  0  0  0  0  0  0  0  0  0  0
   39.5690   22.7990   36.4480 N   0  0  0  0  0  0  0  0  0  0  0  0
   38.2730   23.0710   36.1270 C   0  0  0  0  0  0  0  0  0  0  0  0
   37.4000   23.4030   37.0740 N   0  0  0  0  0  0  0  0  0  0  0  0
   38.2490   25.3730   34.4920 C   0  0  0  0  0  0  0  0  0  0  0  0
   37.3600   26.4100   34.7910 C   0  0  0  0  0  0  0  0  0  0  0  0
   38.0580   27.4420   35.3250 N   0  0  0  0  0  0  0  0  0  0  0  0
   39.3660   27.0650   35.3620 C   0  0  0  0  0  0  0  0  0  0  0  0
   39.4800   25.8150   34.8590 N   0  0  0  0  0  0  0  0  0  0  0  0
   37.5386   24.8285   31.9242 H   0  0  0  0  0  0  0  0  0  0  0  0
   37.0021   20.6181   32.5167 H   0  0  0  0  0  0  0  0  0  0  0  0
   37.0351   23.7553   39.1220 H   0  0  0  0  0  0  0  0  0  0  0  0
   39.3902   23.2688   39.7999 H   0  0  0  0  0  0  0  0  0  0  0  0
   41.0618   22.6357   37.9983 H   0  0  0  0  0  0  0  0  0  0  0  0
   36.2734   26.3914   34.6209 H   0  0  0  0  0  0  0  0  0  0  0  0
   40.1966   27.6789   35.7404 H   0  0  0  0  0  0  0  0  0  0  0  0
   40.3580   25.2840   34.7687 H   0  0  0  0  0  0  0  0  0  0  0  0
  1 11  1  0
  2 13  1  0
  2  1  1  0
  3  2  2  0
  4  3  1  0
  4  5  2  0
  5  6  1  0
  6  1  2  0
  7  8  2  0
  9  8  1  0
 10  9  2  0
 11 10  1  0
 11 12  2  0
 12  7  1  0
 13 14  2  0
 13 17  1  0
 14 15  1  0
 15 16  2  0
 17 16  1  0
  3 18  1  0
  5 19  1  0
  7 20  1  0
  8 21  1  0
  9 22  1  0
 14 23  1  0
 16 24  1  0
 17 25  1  0
M  ISO  8  18  14  19  14  20  14  21  14  22  14  23  14  24  14  25   9
M  END
>  <minimizedAffinity>  (1) 
-4.49778461

>  <minimizedRMSD>  (1) 
4.54039145

$$$$
