
     RDKit          3D

 28 30  0  0  0  0  0  0  0  0999 V2000
   38.5390   23.5690   33.7310 C   0  0  0  0  0  0  0  0  0  0  0  0
   38.0540   22.8310   34.7880 C   0  0  0  0  0  0  0  0  0  0  0  0
   37.2290   21.7710   34.5440 C   0  0  0  0  0  0  0  0  0  0  0  0
   36.8970   21.4580   33.2720 N   0  0  0  0  0  0  0  0  0  0  0  0
   37.3710   22.1820   32.2160 C   0  0  0  0  0  0  0  0  0  0  0  0
   38.1960   23.2410   32.4760 N   0  0  0  0  0  0  0  0  0  0  0  0
   41.5150   25.6850   34.1560 C   0  0  0  0  0  0  0  0  0  0  0  0
   40.9490   26.9560   34.3210 C   0  0  0  0  0  0  0  0  0  0  0  0
   39.5520   27.0670   34.2890 C   0  0  0  0  0  0  0  0  0  0  0  0
   38.8300   25.9200   34.0950 N   0  0  0  0  0  0  0  0  0  0  0  0
   39.4090   24.7070   33.9390 C   0  0  0  0  0  0  0  0  0  0  0  0
   40.7540   24.5910   33.9690 N   0  0  0  0  0  0  0  0  0  0  0  0
   38.3810   23.1170   36.1810 C   0  0  0  0  0  0  0  0  0  0  0  0
   37.5770   23.9120   36.9830 C   0  0  0  0  0  0  0  0  0  0  0  0
   37.8920   24.1690   38.3130 C   0  0  0  0  0  0  0  0  0  0  0  0
   39.0480   23.6220   38.8820 C   0  0  0  0  0  0  0  0  0  0  0  0
   39.8470   22.8270   38.0690 C   0  0  0  0  0  0  0  0  0  0  0  0
   39.5410   22.5600   36.7290 C   0  0  0  0  0  0  0  0  0  0  0  0
   36.8359   21.1738   35.3799 H   0  0  0  0  0  0  0  0  0  0  0  0
   37.0965   21.9203   31.1834 H   0  0  0  0  0  0  0  0  0  0  0  0
   42.6096   25.5786   34.1799 H   0  0  0  0  0  0  0  0  0  0  0  0
   41.5832   27.8421   34.4715 H   0  0  0  0  0  0  0  0  0  0  0  0
   39.0542   28.0398   34.4151 H   0  0  0  0  0  0  0  0  0  0  0  0
   36.6640   24.3520   36.5553 H   0  0  0  0  0  0  0  0  0  0  0  0
   37.2303   24.8044   38.9200 H   0  0  0  0  0  0  0  0  0  0  0  0
   39.3137   23.8140   39.9320 H   0  0  0  0  0  0  0  0  0  0  0  0
   40.7602   22.3881   38.4972 H   0  0  0  0  0  0  0  0  0  0  0  0
   40.2001   21.9246   36.1192 H   0  0  0  0  0  0  0  0  0  0  0  0
  1 11  1  0
  1  2  1  0
  2 13  1  0
  3  2  2  0
  4  3  1  0
  5  6  1  0
  5  4  2  0
  6  1  2  0
  7  8  2  0
  9  8  1  0
 10  9  2  0
 11 12  2  0
 11 10  1  0
 12  7  1  0
 13 18  1  0
 13 14  2  0
 14 15  1  0
 15 16  2  0
 17 16  1  0
 18 17  2  0
  3 19  1  0
  5 20  1  0
  7 21  1  0
  8 22  1  0
  9 23  1  0
 14 24  1  0
 15 25  1  0
 16 26  1  0
 17 27  1  0
 18 28  1  0
M  ISO  8  19  14  20  14  21  14  22  14  23  14  24  14  25  14  26  14
M  ISO  2  27  14  28  14
M  END
>  <minimizedAffinity>  (1) 
-4.70564413

>  <minimizedRMSD>  (1) 
4.05779886

$$$$
