
     RDKit          3D

 28 30  0  0  0  0  0  0  0  0999 V2000
   40.1570   24.3540   35.4320 C   0  0  0  0  0  0  0  0  0  0  0  0
   38.8060   24.5620   35.6320 C   0  0  0  0  0  0  0  0  0  0  0  0
   38.1510   23.8260   36.5730 C   0  0  0  0  0  0  0  0  0  0  0  0
   38.8200   22.8980   37.3060 N   0  0  0  0  0  0  0  0  0  0  0  0
   40.1520   22.6910   37.1120 C   0  0  0  0  0  0  0  0  0  0  0  0
   40.8110   23.4290   36.1680 N   0  0  0  0  0  0  0  0  0  0  0  0
   42.0910   26.9610   33.7180 C   0  0  0  0  0  0  0  0  0  0  0  0
   42.3350   26.3830   32.4730 C   0  0  0  0  0  0  0  0  0  0  0  0
   41.8220   25.0820   32.2360 C   0  0  0  0  0  0  0  0  0  0  0  0
   41.1210   24.4850   33.2520 N   0  0  0  0  0  0  0  0  0  0  0  0
   40.9170   25.1040   34.4460 C   0  0  0  0  0  0  0  0  0  0  0  0
   41.3970   26.3240   34.6730 N   0  0  0  0  0  0  0  0  0  0  0  0
   38.1030   25.5330   34.8650 N   0  0  0  0  0  0  0  0  0  0  0  0
   37.6420   25.0880   33.6720 C   0  0  0  0  0  0  0  0  0  0  0  0
   36.9470   25.9860   32.8720 C   0  0  0  0  0  0  0  0  0  0  0  0
   36.7440   27.2980   33.3130 C   0  0  0  0  0  0  0  0  0  0  0  0
   36.1160   28.1340   32.6050 O   0  0  0  0  0  0  0  0  0  0  0  0
   37.2440   27.6500   34.5220 N   0  0  0  0  0  0  0  0  0  0  0  0
   37.9210   26.7920   35.3090 C   0  0  0  0  0  0  0  0  0  0  0  0
   38.3790   27.1360   36.4350 O   0  0  0  0  0  0  0  0  0  0  0  0
   37.0753   23.9838   36.7401 H   0  0  0  0  0  0  0  0  0  0  0  0
   40.6912   21.9394   37.7073 H   0  0  0  0  0  0  0  0  0  0  0  0
   42.4792   27.9695   33.9233 H   0  0  0  0  0  0  0  0  0  0  0  0
   42.9063   26.9181   31.7002 H   0  0  0  0  0  0  0  0  0  0  0  0
   41.9804   24.5718   31.2744 H   0  0  0  0  0  0  0  0  0  0  0  0
   37.8121   24.0508   33.3475 H   0  0  0  0  0  0  0  0  0  0  0  0
   36.5573   25.6663   31.8943 H   0  0  0  0  0  0  0  0  0  0  0  0
   37.1003   28.6146   34.8533 H   0  0  0  0  0  0  0  0  0  0  0  0
  1  2  1  0
  1  6  2  0
  2  3  2  0
  3  4  1  0
  5  4  2  0
  6  5  1  0
  7 12  2  0
  8  7  1  0
  9  8  2  0
  9 10  1  0
 10 11  2  0
 11 12  1  0
 11  1  1  0
 13 19  1  0
 13  2  1  0
 14 13  1  0
 15 16  1  0
 15 14  2  0
 16 18  1  0
 17 16  2  0
 18 19  1  0
 19 20  2  0
  3 21  1  0
  5 22  1  0
  7 23  1  0
  8 24  1  0
  9 25  1  0
 14 26  1  0
 15 27  1  0
 18 28  1  0
M  ISO  8  21  14  22  14  23  14  24  14  25  14  26  14  27  14  28   9
M  END
>  <minimizedAffinity>  (1) 
-4.38819885

>  <minimizedRMSD>  (1) 
6.73578882

$$$$
