
     RDKit          3D

 30 31  0  0  0  0  0  0  0  0999 V2000
   38.2940   23.9140   34.6330 C   0  0  0  0  0  0  0  0  0  0  0  0
   38.7470   25.0280   33.9710 C   0  0  0  0  0  0  0  0  0  0  0  0
   38.4950   25.0350   32.6060 C   0  0  0  0  0  0  0  0  0  0  0  0
   37.8550   24.0340   31.9680 N   0  0  0  0  0  0  0  0  0  0  0  0
   37.4180   22.9480   32.6490 C   0  0  0  0  0  0  0  0  0  0  0  0
   37.6500   22.9110   33.9870 N   0  0  0  0  0  0  0  0  0  0  0  0
   37.8470   24.0600   38.2970 C   0  0  0  0  0  0  0  0  0  0  0  0
   38.9650   23.3400   38.7460 C   0  0  0  0  0  0  0  0  0  0  0  0
   39.8650   22.8170   37.7800 C   0  0  0  0  0  0  0  0  0  0  0  0
   39.5270   23.0820   36.4990 N   0  0  0  0  0  0  0  0  0  0  0  0
   38.4730   23.7610   36.0660 C   0  0  0  0  0  0  0  0  0  0  0  0
   37.6120   24.2610   36.9820 N   0  0  0  0  0  0  0  0  0  0  0  0
   39.4720   26.1910   34.4760 C   0  0  0  0  0  0  0  0  0  0  0  0
   38.8710   26.9660   35.5940 C   0  0  0  0  0  0  0  0  0  0  0  0
   40.8720   25.8060   34.9160 C   0  0  0  0  0  0  0  0  0  0  0  0
   39.7530   27.1900   33.3150 C   0  0  0  0  0  0  0  0  0  0  0  0
   38.8339   25.8992   32.0159 H   0  0  0  0  0  0  0  0  0  0  0  0
   36.8947   22.1265   32.1378 H   0  0  0  0  0  0  0  0  0  0  0  0
   37.1434   24.4716   39.0356 H   0  0  0  0  0  0  0  0  0  0  0  0
   39.1400   23.1845   39.8208 H   0  0  0  0  0  0  0  0  0  0  0  0
   40.7633   22.2434   38.0522 H   0  0  0  0  0  0  0  0  0  0  0  0
   39.2006   26.5410   36.5535 H   0  0  0  0  0  0  0  0  0  0  0  0
   39.1937   28.0155   35.5277 H   0  0  0  0  0  0  0  0  0  0  0  0
   37.7742   26.9147   35.5277 H   0  0  0  0  0  0  0  0  0  0  0  0
   40.9203   25.7927   36.0149 H   0  0  0  0  0  0  0  0  0  0  0  0
   41.1172   24.8071   34.5261 H   0  0  0  0  0  0  0  0  0  0  0  0
   41.5935   26.5391   34.5261 H   0  0  0  0  0  0  0  0  0  0  0  0
   40.0285   28.1696   33.7328 H   0  0  0  0  0  0  0  0  0  0  0  0
   40.5791   26.8099   32.6960 H   0  0  0  0  0  0  0  0  0  0  0  0
   38.8499   27.2963   32.6960 H   0  0  0  0  0  0  0  0  0  0  0  0
  1 11  1  0
  2 13  1  0
  2  1  2  0
  3  2  1  0
  4  3  2  0
  4  5  1  0
  5  6  2  0
  6  1  1  0
  7  8  2  0
  9  8  1  0
 10  9  2  0
 11 10  1  0
 11 12  2  0
 12  7  1  0
 13 15  1  0
 13 14  1  0
 16 13  1  0
  3 17  1  0
  5 18  1  0
  7 19  1  0
  8 20  1  0
  9 21  1  0
 14 22  1  0
 14 23  1  0
 14 24  1  0
 15 25  1  0
 15 26  1  0
 15 27  1  0
 16 28  1  0
 16 29  1  0
 16 30  1  0
M  ISO  8  17  14  18  14  19  14  20  14  21  14  22   8  23   8  24   8
M  ISO  6  25   8  26   8  27   8  28   8  29   8  30   8
M  END
>  <minimizedAffinity>  (1) 
-4.46458817

>  <minimizedRMSD>  (1) 
4.8169632

$$$$
