
     RDKit          3D

 35 38  0  0  0  0  0  0  0  0999 V2000
   38.9390   24.3610   33.8180 C   0  0  0  0  0  0  0  0  0  0  0  0
   39.0840   23.8410   32.5480 C   0  0  0  0  0  0  0  0  0  0  0  0
   38.5240   24.7670   31.6610 C   0  0  0  0  0  0  0  0  0  0  0  0
   38.0660   25.7950   32.3860 N   0  0  0  0  0  0  0  0  0  0  0  0
   38.3160   25.5500   33.6870 N   0  0  0  0  0  0  0  0  0  0  0  0
   40.7880   22.3580   36.2560 C   0  0  0  0  0  0  0  0  0  0  0  0
   40.0840   22.6330   37.4630 C   0  0  0  0  0  0  0  0  0  0  0  0
   39.0080   23.4930   37.3870 C   0  0  0  0  0  0  0  0  0  0  0  0
   38.6620   24.0400   36.1770 N   0  0  0  0  0  0  0  0  0  0  0  0
   39.3780   23.7350   35.0560 C   0  0  0  0  0  0  0  0  0  0  0  0
   40.4180   22.9080   35.1120 N   0  0  0  0  0  0  0  0  0  0  0  0
   38.3200   23.7420   38.6540 C   0  0  0  0  0  0  0  0  0  0  0  0
   37.7140   24.9640   38.6310 F   0  0  0  0  0  0  0  0  0  0  0  0
   39.2690   23.7980   39.6410 F   0  0  0  0  0  0  0  0  0  0  0  0
   37.3340   22.8090   38.9130 F   0  0  0  0  0  0  0  0  0  0  0  0
   37.4140   26.9680   31.8580 C   0  0  0  0  0  0  0  0  0  0  0  0
   36.4650   27.5850   32.6300 C   0  0  0  0  0  0  0  0  0  0  0  0
   35.8550   28.7150   32.0900 C   0  0  0  0  0  0  0  0  0  0  0  0
   36.2050   29.1420   30.8780 N   0  0  0  0  0  0  0  0  0  0  0  0
   37.1330   28.5380   30.1250 C   0  0  0  0  0  0  0  0  0  0  0  0
   37.7380   27.4330   30.6370 N   0  0  0  0  0  0  0  0  0  0  0  0
   37.5760   28.9530   28.7680 C   0  0  0  0  0  0  0  0  0  0  0  0
   38.8960   29.6750   28.6180 C   0  0  0  0  0  0  0  0  0  0  0  0
   37.5850   30.4660   28.5350 C   0  0  0  0  0  0  0  0  0  0  0  0
   39.5511   22.8809   32.2833 H   0  0  0  0  0  0  0  0  0  0  0  0
   38.4699   24.6682   30.5668 H   0  0  0  0  0  0  0  0  0  0  0  0
   41.6524   21.6780   36.2758 H   0  0  0  0  0  0  0  0  0  0  0  0
   40.3861   22.1779   38.4178 H   0  0  0  0  0  0  0  0  0  0  0  0
   36.1978   27.2065   33.6277 H   0  0  0  0  0  0  0  0  0  0  0  0
   35.0860   29.2534   32.6633 H   0  0  0  0  0  0  0  0  0  0  0  0
   37.1435   28.0695   28.2756 H   0  0  0  0  0  0  0  0  0  0  0  0
   39.5569   29.7974   29.4888 H   0  0  0  0  0  0  0  0  0  0  0  0
   39.7743   29.5584   27.9661 H   0  0  0  0  0  0  0  0  0  0  0  0
   37.3012   31.1516   29.3470 H   0  0  0  0  0  0  0  0  0  0  0  0
   37.1272   31.1482   27.8035 H   0  0  0  0  0  0  0  0  0  0  0  0
  1 10  1  0
  2  1  1  0
  3  4  1  0
  3  2  2  0
  4  5  1  0
  5  1  2  0
  6  7  2  0
  8  7  1  0
  8 12  1  0
  9  8  2  0
 10 11  2  0
 10  9  1  0
 11  6  1  0
 12 15  1  0
 12 14  1  0
 13 12  1  0
 16  4  1  0
 16 17  2  0
 18 17  1  0
 19 18  2  0
 20 21  2  0
 20 19  1  0
 21 16  1  0
 22 20  1  0
 23 22  1  0
 24 23  1  0
 24 22  1  0
  2 25  1  0
  3 26  1  0
  6 27  1  0
  7 28  1  0
 17 29  1  0
 18 30  1  0
 22 31  1  0
 23 32  1  0
 23 33  1  0
 24 34  1  0
 24 35  1  0
M  ISO  8  25  14  26  14  27  14  28  14  29  14  30  14  31  13  32  13
M  ISO  3  33  13  34  13  35  13
M  END
>  <minimizedAffinity>  (1) 
-5.57630777

>  <minimizedRMSD>  (1) 
1.89783359

$$$$
