
     RDKit          3D

 24 26  0  0  0  0  0  0  0  0999 V2000
   37.8680   22.8360   34.7200 C   0  0  0  0  0  0  0  0  0  0  0  0
   37.9120   23.8970   33.8390 C   0  0  0  0  0  0  0  0  0  0  0  0
   37.5330   23.7080   32.5440 C   0  0  0  0  0  0  0  0  0  0  0  0
   37.1160   22.4890   32.1300 N   0  0  0  0  0  0  0  0  0  0  0  0
   37.0700   21.4360   32.9960 C   0  0  0  0  0  0  0  0  0  0  0  0
   37.4510   21.6280   34.2920 N   0  0  0  0  0  0  0  0  0  0  0  0
   37.8220   23.5440   38.3280 C   0  0  0  0  0  0  0  0  0  0  0  0
   39.1300   23.2100   38.7070 C   0  0  0  0  0  0  0  0  0  0  0  0
   40.0060   22.7440   37.7120 C   0  0  0  0  0  0  0  0  0  0  0  0
   39.5380   22.6430   36.4280 N   0  0  0  0  0  0  0  0  0  0  0  0
   38.2640   22.9820   36.1200 C   0  0  0  0  0  0  0  0  0  0  0  0
   37.4210   23.4230   37.0500 N   0  0  0  0  0  0  0  0  0  0  0  0
   38.3850   25.1700   34.4260 C   0  0  0  0  0  0  0  0  0  0  0  0
   37.4410   26.0720   34.8740 C   0  0  0  0  0  0  0  0  0  0  0  0
   38.4630   27.4710   35.5070 S   0  0  0  0  0  0  0  0  0  0  0  0
   40.0590   26.5240   35.0230 C   0  0  0  0  0  0  0  0  0  0  0  0
   39.6300   25.5680   34.5840 N   0  0  0  0  0  0  0  0  0  0  0  0
   37.5660   24.5475   31.8340 H   0  0  0  0  0  0  0  0  0  0  0  0
   36.7308   20.4469   32.6546 H   0  0  0  0  0  0  0  0  0  0  0  0
   37.1142   23.9100   39.0863 H   0  0  0  0  0  0  0  0  0  0  0  0
   39.4603   23.3097   39.7515 H   0  0  0  0  0  0  0  0  0  0  0  0
   41.0418   22.4671   37.9577 H   0  0  0  0  0  0  0  0  0  0  0  0
   36.3451   25.9790   34.8575 H   0  0  0  0  0  0  0  0  0  0  0  0
   41.1103   26.8261   35.1395 H   0  0  0  0  0  0  0  0  0  0  0  0
  1 11  1  0
  2 13  1  0
  2  1  1  0
  3  2  2  0
  4  3  1  0
  4  5  2  0
  5  6  1  0
  6  1  2  0
  7  8  2  0
  9  8  1  0
 10  9  2  0
 11 10  1  0
 11 12  2  0
 12  7  1  0
 13 17  1  0
 13 14  2  0
 14 15  1  0
 16 15  1  0
 17 16  2  0
  3 18  1  0
  5 19  1  0
  7 20  1  0
  8 21  1  0
  9 22  1  0
 14 23  1  0
 16 24  1  0
M  ISO  7  18  14  19  14  20  14  21  14  22  14  23  14  24  14
M  END
>  <minimizedAffinity>  (1) 
-4.45854521

>  <minimizedRMSD>  (1) 
4.48732901

$$$$
