
     RDKit          3D

 31 33  0  0  0  0  0  0  0  0999 V2000
   37.7640   23.8690   33.3940 C   0  0  0  0  0  0  0  0  0  0  0  0
   37.7200   22.6020   33.9390 C   0  0  0  0  0  0  0  0  0  0  0  0
   37.1940   21.5700   33.2070 C   0  0  0  0  0  0  0  0  0  0  0  0
   36.7230   21.8070   31.9600 N   0  0  0  0  0  0  0  0  0  0  0  0
   36.7590   23.0570   31.4090 C   0  0  0  0  0  0  0  0  0  0  0  0
   37.2850   24.0800   32.1440 N   0  0  0  0  0  0  0  0  0  0  0  0
   40.0520   26.3360   34.8720 C   0  0  0  0  0  0  0  0  0  0  0  0
   39.1590   27.2080   35.5250 C   0  0  0  0  0  0  0  0  0  0  0  0
   37.7770   26.9270   35.4420 C   0  0  0  0  0  0  0  0  0  0  0  0
   37.4200   25.8230   34.7290 N   0  0  0  0  0  0  0  0  0  0  0  0
   38.3090   25.0070   34.1150 C   0  0  0  0  0  0  0  0  0  0  0  0
   39.6150   25.2550   34.1820 N   0  0  0  0  0  0  0  0  0  0  0  0
   38.2270   22.3970   35.2530 N   0  0  0  0  0  0  0  0  0  0  0  0
   37.2910   22.3210   36.3730 C   0  0  0  0  0  0  0  0  0  0  0  0
   37.6770   23.5260   37.2400 C   0  0  0  0  0  0  0  0  0  0  0  0
   38.8680   23.1920   37.8250 O   0  0  0  0  0  0  0  0  0  0  0  0
   39.9050   22.8730   36.9940 C   0  0  0  0  0  0  0  0  0  0  0  0
   39.5850   22.2410   35.7000 C   0  0  0  0  0  0  0  0  0  0  0  0
   37.1547   20.5553   33.6299 H   0  0  0  0  0  0  0  0  0  0  0  0
   36.3723   23.2351   30.3947 H   0  0  0  0  0  0  0  0  0  0  0  0
   41.1321   26.5379   34.9236 H   0  0  0  0  0  0  0  0  0  0  0  0
   39.5268   28.0817   36.0829 H   0  0  0  0  0  0  0  0  0  0  0  0
   37.0270   27.5677   35.9288 H   0  0  0  0  0  0  0  0  0  0  0  0
   36.2513   22.4042   36.0236 H   0  0  0  0  0  0  0  0  0  0  0  0
   37.3466   21.3657   36.9155 H   0  0  0  0  0  0  0  0  0  0  0  0
   37.7939   24.4253   36.6174 H   0  0  0  0  0  0  0  0  0  0  0  0
   36.9045   23.7521   37.9898 H   0  0  0  0  0  0  0  0  0  0  0  0
   40.4495   23.8040   36.7778 H   0  0  0  0  0  0  0  0  0  0  0  0
   40.4712   22.1058   37.5425 H   0  0  0  0  0  0  0  0  0  0  0  0
   39.7908   21.1641   35.7889 H   0  0  0  0  0  0  0  0  0  0  0  0
   40.2093   22.7519   34.9522 H   0  0  0  0  0  0  0  0  0  0  0  0
  1  2  1  0
  1 11  1  0
  2 13  1  0
  3  2  2  0
  4  3  1  0
  5  4  2  0
  5  6  1  0
  6  1  2  0
  7  8  2  0
  9  8  1  0
 10  9  2  0
 11 12  2  0
 11 10  1  0
 12  7  1  0
 13 18  1  0
 13 14  1  0
 14 15  1  0
 15 16  1  0
 17 16  1  0
 18 17  1  0
  3 19  1  0
  5 20  1  0
  7 21  1  0
  8 22  1  0
  9 23  1  0
 14 24  1  0
 14 25  1  0
 15 26  1  0
 15 27  1  0
 17 28  1  0
 17 29  1  0
 18 30  1  0
 18 31  1  0
M  ISO  8  19  14  20  14  21  14  22  14  23  14  24  13  25  13  26  13
M  ISO  5  27  13  28  13  29  13  30  13  31  13
M  END
>  <minimizedAffinity>  (1) 
-4.41884565

>  <minimizedRMSD>  (1) 
3.54001331

$$$$
