
     RDKit          3D

 33 35  0  0  0  0  0  0  0  0999 V2000
   37.4130   24.3280   33.0050 C   0  0  0  0  0  0  0  0  0  0  0  0
   37.5620   22.9760   33.2210 C   0  0  0  0  0  0  0  0  0  0  0  0
   36.9720   22.0860   32.3750 C   0  0  0  0  0  0  0  0  0  0  0  0
   36.2450   22.5340   31.3280 N   0  0  0  0  0  0  0  0  0  0  0  0
   36.0890   23.8760   31.1000 C   0  0  0  0  0  0  0  0  0  0  0  0
   36.6830   24.7680   31.9520 N   0  0  0  0  0  0  0  0  0  0  0  0
   38.0400   26.6480   35.7800 C   0  0  0  0  0  0  0  0  0  0  0  0
   39.2890   27.1970   35.4310 C   0  0  0  0  0  0  0  0  0  0  0  0
   39.8930   26.7470   34.2300 C   0  0  0  0  0  0  0  0  0  0  0  0
   39.2250   25.8090   33.4860 N   0  0  0  0  0  0  0  0  0  0  0  0
   38.0170   25.3160   33.8760 C   0  0  0  0  0  0  0  0  0  0  0  0
   37.4470   25.7350   35.0020 N   0  0  0  0  0  0  0  0  0  0  0  0
   38.3360   22.4930   34.3380 N   0  0  0  0  0  0  0  0  0  0  0  0
   37.8880   22.3290   35.6980 C   0  0  0  0  0  0  0  0  0  0  0  0
   38.7320   23.0080   36.7180 C   0  0  0  0  0  0  0  0  0  0  0  0
   40.1730   23.1440   36.3980 C   0  0  0  0  0  0  0  0  0  0  0  0
   40.5270   23.1040   34.9570 C   0  0  0  0  0  0  0  0  0  0  0  0
   39.7140   22.1090   34.1600 C   0  0  0  0  0  0  0  0  0  0  0  0
   37.0872   21.0052   32.5439 H   0  0  0  0  0  0  0  0  0  0  0  0
   35.4952   24.2315   30.2450 H   0  0  0  0  0  0  0  0  0  0  0  0
   37.5444   26.9746   36.7061 H   0  0  0  0  0  0  0  0  0  0  0  0
   39.7787   27.9485   36.0678 H   0  0  0  0  0  0  0  0  0  0  0  0
   40.8682   27.1386   33.9049 H   0  0  0  0  0  0  0  0  0  0  0  0
   36.8678   22.7333   35.7736 H   0  0  0  0  0  0  0  0  0  0  0  0
   37.9447   21.2522   35.9155 H   0  0  0  0  0  0  0  0  0  0  0  0
   38.3260   24.0192   36.8687 H   0  0  0  0  0  0  0  0  0  0  0  0
   38.6904   22.3625   37.6077 H   0  0  0  0  0  0  0  0  0  0  0  0
   40.5180   24.1070   36.8025 H   0  0  0  0  0  0  0  0  0  0  0  0
   40.6603   22.2660   36.8472 H   0  0  0  0  0  0  0  0  0  0  0  0
   40.3650   24.1053   34.5314 H   0  0  0  0  0  0  0  0  0  0  0  0
   41.5781   22.7862   34.8924 H   0  0  0  0  0  0  0  0  0  0  0  0
   39.8791   21.0894   34.5383 H   0  0  0  0  0  0  0  0  0  0  0  0
   40.0003   22.1116   33.0979 H   0  0  0  0  0  0  0  0  0  0  0  0
  1  2  1  0
  1 11  1  0
  2 13  1  0
  3  2  2  0
  4  3  1  0
  5  4  2  0
  5  6  1  0
  6  1  2  0
  8  7  2  0
  9  8  1  0
 10 11  1  0
 10  9  2  0
 11 12  2  0
 12  7  1  0
 13 14  1  0
 14 15  1  0
 16 15  1  0
 17 16  1  0
 18 13  1  0
 18 17  1  0
  3 19  1  0
  5 20  1  0
  7 21  1  0
  8 22  1  0
  9 23  1  0
 14 24  1  0
 14 25  1  0
 15 26  1  0
 15 27  1  0
 16 28  1  0
 16 29  1  0
 17 30  1  0
 17 31  1  0
 18 32  1  0
 18 33  1  0
M  ISO  8  19  14  20  14  21  14  22  14  23  14  24  13  25  13  26  13
M  ISO  7  27  13  28  13  29  13  30  13  31  13  32  13  33  13
M  END
>  <minimizedAffinity>  (1) 
-4.22952223

>  <minimizedRMSD>  (1) 
4.28533602

$$$$
