
     RDKit          3D

 26 28  0  0  0  0  0  0  0  0999 V2000
   38.0540   23.5810   33.5910 C   0  0  0  0  0  0  0  0  0  0  0  0
   37.8570   22.6330   34.5900 C   0  0  0  0  0  0  0  0  0  0  0  0
   37.0540   21.5660   34.3220 C   0  0  0  0  0  0  0  0  0  0  0  0
   36.4610   21.4390   33.0980 N   0  0  0  0  0  0  0  0  0  0  0  0
   36.6570   22.3700   32.1240 C   0  0  0  0  0  0  0  0  0  0  0  0
   37.4610   23.4340   32.4000 N   0  0  0  0  0  0  0  0  0  0  0  0
   40.9630   25.8310   33.7520 C   0  0  0  0  0  0  0  0  0  0  0  0
   40.3910   27.0090   34.2570 C   0  0  0  0  0  0  0  0  0  0  0  0
   39.0170   27.0030   34.5320 C   0  0  0  0  0  0  0  0  0  0  0  0
   38.3060   25.8540   34.2970 N   0  0  0  0  0  0  0  0  0  0  0  0
   38.9000   24.7420   33.8090 C   0  0  0  0  0  0  0  0  0  0  0  0
   40.2200   24.7300   33.5390 N   0  0  0  0  0  0  0  0  0  0  0  0
   38.4740   22.7510   35.9120 C   0  0  0  0  0  0  0  0  0  0  0  0
   37.7880   23.3680   36.9460 C   0  0  0  0  0  0  0  0  0  0  0  0
   38.4530   23.4390   38.1520 C   0  0  0  0  0  0  0  0  0  0  0  0
   39.7030   22.9530   38.3780 N   0  0  0  0  0  0  0  0  0  0  0  0
   40.3210   22.3650   37.3430 C   0  0  0  0  0  0  0  0  0  0  0  0
   39.7310   22.2610   36.1350 N   0  0  0  0  0  0  0  0  0  0  0  0
   36.8821   20.8027   35.0951 H   0  0  0  0  0  0  0  0  0  0  0  0
   36.1781   22.2654   31.1392 H   0  0  0  0  0  0  0  0  0  0  0  0
   42.0393   25.8076   33.5261 H   0  0  0  0  0  0  0  0  0  0  0  0
   41.0013   27.9075   34.4312 H   0  0  0  0  0  0  0  0  0  0  0  0
   38.5194   27.9006   34.9279 H   0  0  0  0  0  0  0  0  0  0  0  0
   36.7752   23.7761   36.8129 H   0  0  0  0  0  0  0  0  0  0  0  0
   37.9348   23.9240   38.9924 H   0  0  0  0  0  0  0  0  0  0  0  0
   41.3333   21.9579   37.4829 H   0  0  0  0  0  0  0  0  0  0  0  0
  1 11  1  0
  1  2  1  0
  2 13  1  0
  3  2  2  0
  4  3  1  0
  5  6  1  0
  5  4  2  0
  6  1  2  0
  7  8  2  0
  8  9  1  0
 10  9  2  0
 11 10  1  0
 12  7  1  0
 12 11  2  0
 13 18  1  0
 13 14  2  0
 14 15  1  0
 15 16  2  0
 17 16  1  0
 18 17  2  0
  3 19  1  0
  5 20  1  0
  7 21  1  0
  8 22  1  0
  9 23  1  0
 14 24  1  0
 15 25  1  0
 17 26  1  0
M  ISO  8  19  14  20  14  21  14  22  14  23  14  24  14  25  14  26  14
M  END
>  <minimizedAffinity>  (1) 
-4.35610867

>  <minimizedRMSD>  (1) 
3.98815036

$$$$
