
     RDKit          3D

 32 34  0  0  0  0  0  0  0  0999 V2000
   38.3290   25.4660   35.3280 C   0  0  0  0  0  0  0  0  0  0  0  0
   37.8040   25.1890   34.0880 C   0  0  0  0  0  0  0  0  0  0  0  0
   37.1390   26.1610   33.3890 C   0  0  0  0  0  0  0  0  0  0  0  0
   37.0060   27.4020   33.9390 N   0  0  0  0  0  0  0  0  0  0  0  0
   37.5220   27.6720   35.1560 C   0  0  0  0  0  0  0  0  0  0  0  0
   38.1830   26.6940   35.8410 N   0  0  0  0  0  0  0  0  0  0  0  0
   40.8660   23.0520   36.4400 C   0  0  0  0  0  0  0  0  0  0  0  0
   40.3080   22.5680   37.6330 C   0  0  0  0  0  0  0  0  0  0  0  0
   39.0490   23.0870   38.0390 C   0  0  0  0  0  0  0  0  0  0  0  0
   38.4830   24.0210   37.2310 N   0  0  0  0  0  0  0  0  0  0  0  0
   39.0420   24.4650   36.0930 C   0  0  0  0  0  0  0  0  0  0  0  0
   40.2380   23.9790   35.6960 N   0  0  0  0  0  0  0  0  0  0  0  0
   37.8900   23.9320   33.4450 N   0  0  0  0  0  0  0  0  0  0  0  0
   37.5020   22.5760   33.6460 C   0  0  0  0  0  0  0  0  0  0  0  0
   36.8670   21.9450   32.4290 C   0  0  0  0  0  0  0  0  0  0  0  0
   37.7000   22.0280   31.2570 N   0  0  0  0  0  0  0  0  0  0  0  0
   38.8870   22.8270   31.4690 C   0  0  0  0  0  0  0  0  0  0  0  0
   38.6130   24.1100   32.1780 C   0  0  0  0  0  0  0  0  0  0  0  0
   36.7175   25.9436   32.3965 H   0  0  0  0  0  0  0  0  0  0  0  0
   37.4105   28.6750   35.5938 H   0  0  0  0  0  0  0  0  0  0  0  0
   41.8396   22.6640   36.1059 H   0  0  0  0  0  0  0  0  0  0  0  0
   40.8294   21.8098   38.2357 H   0  0  0  0  0  0  0  0  0  0  0  0
   38.5566   22.7489   38.9627 H   0  0  0  0  0  0  0  0  0  0  0  0
   38.3961   21.9939   33.9137 H   0  0  0  0  0  0  0  0  0  0  0  0
   36.7463   22.5704   34.4453 H   0  0  0  0  0  0  0  0  0  0  0  0
   36.6701   20.8847   32.6455 H   0  0  0  0  0  0  0  0  0  0  0  0
   35.9401   22.4976   32.2157 H   0  0  0  0  0  0  0  0  0  0  0  0
   37.1522   22.4487   30.4929 H   0  0  0  0  0  0  0  0  0  0  0  0
   39.5999   22.2417   32.0684 H   0  0  0  0  0  0  0  0  0  0  0  0
   39.2911   23.0812   30.4780 H   0  0  0  0  0  0  0  0  0  0  0  0
   39.5730   24.6033   32.3903 H   0  0  0  0  0  0  0  0  0  0  0  0
   37.9722   24.7151   31.5198 H   0  0  0  0  0  0  0  0  0  0  0  0
  1  6  1  0
  1 11  1  0
  2  1  2  0
  3  4  2  0
  3  2  1  0
  4  5  1  0
  5  6  2  0
  7  8  2  0
  8  9  1  0
 10  9  2  0
 11 10  1  0
 12 11  2  0
 12  7  1  0
 13 14  1  0
 13  2  1  0
 15 14  1  0
 16 17  1  0
 16 15  1  0
 17 18  1  0
 18 13  1  0
  3 19  1  0
  5 20  1  0
  7 21  1  0
  8 22  1  0
  9 23  1  0
 14 24  1  0
 14 25  1  0
 15 26  1  0
 15 27  1  0
 16 28  1  0
 17 29  1  0
 17 30  1  0
 18 31  1  0
 18 32  1  0
M  ISO  8  19  14  20  14  21  14  22  14  23  14  24  13  25  13  26  13
M  ISO  6  27  13  28   5  29  13  30  13  31  13  32  13
M  END
>  <minimizedAffinity>  (1) 
-4.20306635

>  <minimizedRMSD>  (1) 
5.12433863

$$$$
