
     RDKit          3D

 23 25  0  0  0  0  0  0  0  0999 V2000
   38.8900   23.7840   34.4960 C   0  0  0  0  0  0  0  0  0  0  0  0
   38.0580   23.0270   33.7020 C   0  0  0  0  0  0  0  0  0  0  0  0
   38.0940   23.1860   32.3450 C   0  0  0  0  0  0  0  0  0  0  0  0
   38.9560   24.0940   31.7930 N   0  0  0  0  0  0  0  0  0  0  0  0
   39.7740   24.8390   32.5680 C   0  0  0  0  0  0  0  0  0  0  0  0
   39.7310   24.6750   33.9130 N   0  0  0  0  0  0  0  0  0  0  0  0
   39.7460   22.7700   37.9170 C   0  0  0  0  0  0  0  0  0  0  0  0
   38.8250   23.5030   38.6780 C   0  0  0  0  0  0  0  0  0  0  0  0
   37.9190   24.3360   37.9950 C   0  0  0  0  0  0  0  0  0  0  0  0
   37.9930   24.3810   36.6250 N   0  0  0  0  0  0  0  0  0  0  0  0
   38.8940   23.6600   35.9380 C   0  0  0  0  0  0  0  0  0  0  0  0
   39.7700   22.8560   36.5720 N   0  0  0  0  0  0  0  0  0  0  0  0
   37.1320   22.0460   34.2490 C   0  0  0  0  0  0  0  0  0  0  0  0
   36.2970   21.3260   33.4780 N   0  0  0  0  0  0  0  0  0  0  0  0
   35.5730   20.5140   34.2010 O   0  0  0  0  0  0  0  0  0  0  0  0
   35.8770   20.6480   35.4490 C   0  0  0  0  0  0  0  0  0  0  0  0
   36.8280   21.5830   35.4700 N   0  0  0  0  0  0  0  0  0  0  0  0
   37.4337   22.5874   31.7003 H   0  0  0  0  0  0  0  0  0  0  0  0
   40.4636   25.5667   32.1152 H   0  0  0  0  0  0  0  0  0  0  0  0
   40.4638   22.1112   38.4277 H   0  0  0  0  0  0  0  0  0  0  0  0
   38.8107   23.4295   39.7754 H   0  0  0  0  0  0  0  0  0  0  0  0
   37.1744   24.9327   38.5423 H   0  0  0  0  0  0  0  0  0  0  0  0
   35.4464   20.1095   36.3061 H   0  0  0  0  0  0  0  0  0  0  0  0
  1 11  1  0
  2 13  1  0
  2  1  1  0
  3  2  2  0
  4  3  1  0
  4  5  2  0
  5  6  1  0
  6  1  2  0
  7  8  2  0
  9  8  1  0
 10  9  2  0
 11 12  2  0
 11 10  1  0
 12  7  1  0
 13 17  1  0
 14 15  1  0
 14 13  2  0
 15 16  1  0
 16 17  2  0
  3 18  1  0
  5 19  1  0
  7 20  1  0
  8 21  1  0
  9 22  1  0
 16 23  1  0
M  ISO  6  18  14  19  14  20  14  21  14  22  14  23  14
M  END
>  <minimizedAffinity>  (1) 
-4.0564971

>  <minimizedRMSD>  (1) 
2.90478086

$$$$
