
     RDKit          3D

 26 28  0  0  0  0  0  0  0  0999 V2000
   39.3300   22.5140   35.3960 C   0  0  0  0  0  0  0  0  0  0  0  0
   39.6340   23.8320   35.0890 C   0  0  0  0  0  0  0  0  0  0  0  0
   40.8480   24.3350   35.4720 C   0  0  0  0  0  0  0  0  0  0  0  0
   41.7380   23.5420   36.1470 N   0  0  0  0  0  0  0  0  0  0  0  0
   41.4330   22.2600   36.4420 C   0  0  0  0  0  0  0  0  0  0  0  0
   40.2310   21.7590   36.0640 N   0  0  0  0  0  0  0  0  0  0  0  0
   36.6110   21.0280   33.4260 C   0  0  0  0  0  0  0  0  0  0  0  0
   35.6240   20.8140   34.4090 C   0  0  0  0  0  0  0  0  0  0  0  0
   35.9240   21.1910   35.7270 C   0  0  0  0  0  0  0  0  0  0  0  0
   37.1440   21.7390   35.9960 N   0  0  0  0  0  0  0  0  0  0  0  0
   38.0630   21.9240   35.0160 C   0  0  0  0  0  0  0  0  0  0  0  0
   37.7940   21.5710   33.7490 N   0  0  0  0  0  0  0  0  0  0  0  0
   38.6930   24.6820   34.3710 C   0  0  0  0  0  0  0  0  0  0  0  0
   38.0590   25.5860   35.1970 C   0  0  0  0  0  0  0  0  0  0  0  0
   37.1320   26.4800   34.7200 C   0  0  0  0  0  0  0  0  0  0  0  0
   36.8390   26.4630   33.3870 N   0  0  0  0  0  0  0  0  0  0  0  0
   37.4660   25.5720   32.5840 C   0  0  0  0  0  0  0  0  0  0  0  0
   38.3900   24.6770   33.0420 N   0  0  0  0  0  0  0  0  0  0  0  0
   41.1093   25.3774   35.2375 H   0  0  0  0  0  0  0  0  0  0  0  0
   42.1525   21.6284   36.9836 H   0  0  0  0  0  0  0  0  0  0  0  0
   36.4088   20.7465   32.3820 H   0  0  0  0  0  0  0  0  0  0  0  0
   34.6523   20.3670   34.1520 H   0  0  0  0  0  0  0  0  0  0  0  0
   35.1869   21.0469   36.5307 H   0  0  0  0  0  0  0  0  0  0  0  0
   38.3029   25.5912   36.2696 H   0  0  0  0  0  0  0  0  0  0  0  0
   36.6374   27.1928   35.3962 H   0  0  0  0  0  0  0  0  0  0  0  0
   37.2196   25.5687   31.5119 H   0  0  0  0  0  0  0  0  0  0  0  0
  1  6  2  0
  2  1  1  0
  2  3  2  0
  3  4  1  0
  4  5  2  0
  6  5  1  0
  7 12  2  0
  7  8  1  0
  8  9  2  0
  9 10  1  0
 11  1  1  0
 11 10  2  0
 12 11  1  0
 13  2  1  0
 13 14  2  0
 15 14  1  0
 16 15  2  0
 17 18  2  0
 17 16  1  0
 18 13  1  0
  3 19  1  0
  5 20  1  0
  7 21  1  0
  8 22  1  0
  9 23  1  0
 14 24  1  0
 15 25  1  0
 17 26  1  0
M  ISO  8  19  14  20  14  21  14  22  14  23  14  24  14  25  14  26  14
M  END
>  <minimizedAffinity>  (1) 
-3.92908835

>  <minimizedRMSD>  (1) 
5.63812065

$$$$
