
     RDKit          3D

 27 28  0  0  0  0  0  0  0  0999 V2000
   38.7650   24.0560   34.6630 C   0  0  0  0  0  0  0  0  0  0  0  0
   39.5740   24.9840   34.0500 C   0  0  0  0  0  0  0  0  0  0  0  0
   39.5010   25.1750   32.7030 C   0  0  0  0  0  0  0  0  0  0  0  0
   38.6280   24.4450   31.9830 N   0  0  0  0  0  0  0  0  0  0  0  0
   37.8120   23.5160   32.5720 C   0  0  0  0  0  0  0  0  0  0  0  0
   37.8930   23.3320   33.9210 N   0  0  0  0  0  0  0  0  0  0  0  0
   39.7410   22.7960   37.9730 C   0  0  0  0  0  0  0  0  0  0  0  0
   38.8410   23.4690   38.8190 C   0  0  0  0  0  0  0  0  0  0  0  0
   37.9130   24.3410   38.2280 C   0  0  0  0  0  0  0  0  0  0  0  0
   37.9340   24.4900   36.8700 N   0  0  0  0  0  0  0  0  0  0  0  0
   38.8250   23.8180   36.0870 C   0  0  0  0  0  0  0  0  0  0  0  0
   39.7240   22.9750   36.6340 N   0  0  0  0  0  0  0  0  0  0  0  0
   40.5530   25.8300   34.7730 C   0  0  0  0  0  0  0  0  0  0  0  0
   40.7190   27.1820   34.0710 C   0  0  0  0  0  0  0  0  0  0  0  0
   41.9280   25.1850   34.7530 C   0  0  0  0  0  0  0  0  0  0  0  0
   40.1470   25.9162   32.2098 H   0  0  0  0  0  0  0  0  0  0  0  0
   37.1043   22.9290   31.9682 H   0  0  0  0  0  0  0  0  0  0  0  0
   40.4770   22.1068   38.4126 H   0  0  0  0  0  0  0  0  0  0  0  0
   38.8636   23.3170   39.9082 H   0  0  0  0  0  0  0  0  0  0  0  0
   37.1862   24.8912   38.8436 H   0  0  0  0  0  0  0  0  0  0  0  0
   40.1753   25.9511   35.7990 H   0  0  0  0  0  0  0  0  0  0  0  0
   40.8166   27.9771   34.8249 H   0  0  0  0  0  0  0  0  0  0  0  0
   41.6212   27.1603   33.4421 H   0  0  0  0  0  0  0  0  0  0  0  0
   39.8383   27.3792   33.4421 H   0  0  0  0  0  0  0  0  0  0  0  0
   42.2723   25.0235   35.7852 H   0  0  0  0  0  0  0  0  0  0  0  0
   41.8723   24.2191   34.2297 H   0  0  0  0  0  0  0  0  0  0  0  0
   42.6352   25.8453   34.2297 H   0  0  0  0  0  0  0  0  0  0  0  0
  1 11  1  0
  2  1  2  0
  2 13  1  0
  3  2  1  0
  4  5  1  0
  4  3  2  0
  5  6  2  0
  6  1  1  0
  7  8  2  0
  9  8  1  0
 10  9  2  0
 11 12  2  0
 11 10  1  0
 12  7  1  0
 14 13  1  0
 15 13  1  0
  3 16  1  0
  5 17  1  0
  7 18  1  0
  8 19  1  0
  9 20  1  0
 13 21  1  0
 14 22  1  0
 14 23  1  0
 14 24  1  0
 15 25  1  0
 15 26  1  0
 15 27  1  0
M  ISO  8  16  14  17  14  18  14  19  14  20  14  21   8  22   8  23   8
M  ISO  4  24   8  25   8  26   8  27   8
M  END
>  <minimizedAffinity>  (1) 
-3.91449022

>  <minimizedRMSD>  (1) 
4.69997501

$$$$
