
     RDKit          3D

 20 21  0  0  0  0  0  0  0  0999 V2000
   37.4380   22.1170   34.8550 C   0  0  0  0  0  0  0  0  0  0  0  0
   36.3560   21.2640   34.8910 C   0  0  0  0  0  0  0  0  0  0  0  0
   35.7650   20.9060   33.7070 C   0  0  0  0  0  0  0  0  0  0  0  0
   36.2310   21.3780   32.5320 N   0  0  0  0  0  0  0  0  0  0  0  0
   37.2970   22.2210   32.4930 C   0  0  0  0  0  0  0  0  0  0  0  0
   37.8790   22.5700   33.6780 N   0  0  0  0  0  0  0  0  0  0  0  0
   39.9160   22.5400   37.5260 C   0  0  0  0  0  0  0  0  0  0  0  0
   39.2740   23.3940   38.4190 C   0  0  0  0  0  0  0  0  0  0  0  0
   37.9800   23.8140   38.0760 C   0  0  0  0  0  0  0  0  0  0  0  0
   37.4430   23.3610   36.9030 N   0  0  0  0  0  0  0  0  0  0  0  0
   38.1110   22.5350   36.0770 C   0  0  0  0  0  0  0  0  0  0  0  0
   39.3570   22.1060   36.3670 N   0  0  0  0  0  0  0  0  0  0  0  0
   35.8360   20.7420   36.1260 C   0  0  0  0  0  0  0  0  0  0  0  0
   34.8640   21.1730   36.8000 O   0  0  0  0  0  0  0  0  0  0  0  0
   34.9005   20.2258   33.7150 H   0  0  0  0  0  0  0  0  0  0  0  0
   37.6785   22.6096   31.5372 H   0  0  0  0  0  0  0  0  0  0  0  0
   40.9319   22.1981   37.7730 H   0  0  0  0  0  0  0  0  0  0  0  0
   39.7586   23.7239   39.3497 H   0  0  0  0  0  0  0  0  0  0  0  0
   37.4127   24.4896   38.7331 H   0  0  0  0  0  0  0  0  0  0  0  0
   36.3504   19.8582   36.5312 H   0  0  0  0  0  0  0  0  0  0  0  0
  1  2  2  0
  1 11  1  0
  2 13  1  0
  3  2  1  0
  4  3  2  0
  5  4  1  0
  5  6  2  0
  6  1  1  0
  7  8  2  0
  9  8  1  0
 10  9  2  0
 11 12  2  0
 11 10  1  0
 12  7  1  0
 13 14  2  0
  3 15  1  0
  5 16  1  0
  7 17  1  0
  8 18  1  0
  9 19  1  0
 13 20  1  0
M  ISO  6  15  14  16  14  17  14  18  14  19  14  20   6
M  END
>  <minimizedAffinity>  (1) 
-4.01461458

>  <minimizedRMSD>  (1) 
0.563905001

$$$$
