
     RDKit          3D

 25 27  0  0  0  0  0  0  0  0999 V2000
   39.6340   25.1740   34.7300 C   0  0  0  0  0  0  0  0  0  0  0  0
   39.3860   24.6380   33.4870 C   0  0  0  0  0  0  0  0  0  0  0  0
   39.6810   25.3480   32.3620 C   0  0  0  0  0  0  0  0  0  0  0  0
   40.2240   26.5940   32.4860 N   0  0  0  0  0  0  0  0  0  0  0  0
   40.4700   27.1260   33.7100 C   0  0  0  0  0  0  0  0  0  0  0  0
   40.1680   26.3990   34.8300 N   0  0  0  0  0  0  0  0  0  0  0  0
   39.8250   22.8350   37.5620 C   0  0  0  0  0  0  0  0  0  0  0  0
   38.6570   23.1240   38.2740 C   0  0  0  0  0  0  0  0  0  0  0  0
   37.8110   24.1390   37.7550 C   0  0  0  0  0  0  0  0  0  0  0  0
   38.1810   24.7710   36.5970 N   0  0  0  0  0  0  0  0  0  0  0  0
   39.3320   24.4430   35.9480 C   0  0  0  0  0  0  0  0  0  0  0  0
   40.1500   23.4850   36.4230 N   0  0  0  0  0  0  0  0  0  0  0  0
   38.8210   23.3410   33.3380 N   0  0  0  0  0  0  0  0  0  0  0  0
   37.4840   23.0630   33.3390 C   0  0  0  0  0  0  0  0  0  0  0  0
   37.3210   21.7020   33.1720 C   0  0  0  0  0  0  0  0  0  0  0  0
   38.5540   21.1440   33.0670 N   0  0  0  0  0  0  0  0  0  0  0  0
   39.4350   22.1530   33.1710 C   0  0  0  0  0  0  0  0  0  0  0  0
   39.4841   24.9225   31.3669 H   0  0  0  0  0  0  0  0  0  0  0  0
   40.9076   28.1311   33.8012 H   0  0  0  0  0  0  0  0  0  0  0  0
   40.5005   22.0540   37.9410 H   0  0  0  0  0  0  0  0  0  0  0  0
   38.4036   22.5863   39.1996 H   0  0  0  0  0  0  0  0  0  0  0  0
   36.8788   24.4121   38.2712 H   0  0  0  0  0  0  0  0  0  0  0  0
   36.6742   23.7986   33.4534 H   0  0  0  0  0  0  0  0  0  0  0  0
   36.3618   21.1651   33.1313 H   0  0  0  0  0  0  0  0  0  0  0  0
   40.5266   22.0248   33.1253 H   0  0  0  0  0  0  0  0  0  0  0  0
  1  6  1  0
  1 11  1  0
  2  1  2  0
  3  4  2  0
  3  2  1  0
  4  5  1  0
  5  6  2  0
  7  8  2  0
  9  8  1  0
 10  9  2  0
 11 12  2  0
 11 10  1  0
 12  7  1  0
 13 14  1  0
 13  2  1  0
 15 14  2  0
 16 17  2  0
 16 15  1  0
 17 13  1  0
  3 18  1  0
  5 19  1  0
  7 20  1  0
  8 21  1  0
  9 22  1  0
 14 23  1  0
 15 24  1  0
 17 25  1  0
M  ISO  8  18  14  19  14  20  14  21  14  22  14  23  14  24  14  25  14
M  END
>  <minimizedAffinity>  (1) 
-3.72325754

>  <minimizedRMSD>  (1) 
4.71677923

$$$$
