
     RDKit          3D

 25 27  0  0  0  0  0  0  0  0999 V2000
   37.9790   25.6360   33.7260 C   0  0  0  0  0  0  0  0  0  0  0  0
   39.0690   26.3470   33.2820 C   0  0  0  0  0  0  0  0  0  0  0  0
   39.7870   27.0900   34.1700 C   0  0  0  0  0  0  0  0  0  0  0  0
   39.4150   27.1170   35.4850 N   0  0  0  0  0  0  0  0  0  0  0  0
   38.3440   26.4190   35.9210 C   0  0  0  0  0  0  0  0  0  0  0  0
   37.6160   25.6700   35.0330 N   0  0  0  0  0  0  0  0  0  0  0  0
   36.6040   22.7920   31.8400 C   0  0  0  0  0  0  0  0  0  0  0  0
   35.6090   23.3960   31.0780 C   0  0  0  0  0  0  0  0  0  0  0  0
   35.4270   24.7780   31.2250 C   0  0  0  0  0  0  0  0  0  0  0  0
   36.2320   25.4590   32.1030 N   0  0  0  0  0  0  0  0  0  0  0  0
   37.1820   24.8290   32.8200 C   0  0  0  0  0  0  0  0  0  0  0  0
   37.3660   23.4990   32.6860 N   0  0  0  0  0  0  0  0  0  0  0  0
   39.5110   26.3560   31.8760 C   0  0  0  0  0  0  0  0  0  0  0  0
   40.3580   25.4860   31.2530 C   0  0  0  0  0  0  0  0  0  0  0  0
   40.6710   25.6420   29.9470 C   0  0  0  0  0  0  0  0  0  0  0  0
   40.0830   26.7220   29.3140 C   0  0  0  0  0  0  0  0  0  0  0  0
   39.0440   27.5200   30.6860 S   0  0  0  0  0  0  0  0  0  0  0  0
   40.6612   27.6650   33.8306 H   0  0  0  0  0  0  0  0  0  0  0  0
   38.0575   26.4513   36.9825 H   0  0  0  0  0  0  0  0  0  0  0  0
   36.7692   21.7086   31.7459 H   0  0  0  0  0  0  0  0  0  0  0  0
   34.9874   22.8100   30.3850 H   0  0  0  0  0  0  0  0  0  0  0  0
   34.6539   25.3063   30.6478 H   0  0  0  0  0  0  0  0  0  0  0  0
   40.7909   24.6485   31.8197 H   0  0  0  0  0  0  0  0  0  0  0  0
   41.3498   24.9541   29.4216 H   0  0  0  0  0  0  0  0  0  0  0  0
   40.1917   27.0414   28.2670 H   0  0  0  0  0  0  0  0  0  0  0  0
  1  6  2  0
  2  1  1  0
  2  3  2  0
  3  4  1  0
  4  5  2  0
  6  5  1  0
  7 12  2  0
  8  9  2  0
  8  7  1  0
  9 10  1  0
 10 11  2  0
 11  1  1  0
 12 11  1  0
 13  2  1  0
 14 13  2  0
 15 14  1  0
 16 15  2  0
 16 17  1  0
 17 13  1  0
  3 18  1  0
  5 19  1  0
  7 20  1  0
  8 21  1  0
  9 22  1  0
 14 23  1  0
 15 24  1  0
 16 25  1  0
M  ISO  8  18  14  19  14  20  14  21  14  22  14  23  14  24  14  25  14
M  END
>  <minimizedAffinity>  (1) 
-3.73300624

>  <minimizedRMSD>  (1) 
7.76576471

$$$$
