
     RDKit          3D

 39 43  0  0  1  0  0  0  0  0999 V2000
   35.8620   23.7280   31.6060 C   0  0  0  0  0  0  0  0  0  0  0  0
   36.8570   24.3540   32.3100 C   0  0  0  0  0  0  0  0  0  0  0  0
   36.9220   25.7240   32.2720 C   0  0  0  0  0  0  0  0  0  0  0  0
   36.0190   26.4240   31.5550 N   0  0  0  0  0  0  0  0  0  0  0  0
   35.0460   25.7990   30.8690 C   0  0  0  0  0  0  0  0  0  0  0  0
   34.9590   24.4340   30.8880 N   0  0  0  0  0  0  0  0  0  0  0  0
   34.8570   20.2480   32.2710 C   0  0  0  0  0  0  0  0  0  0  0  0
   35.6500   19.5360   31.3920 C   0  0  0  0  0  0  0  0  0  0  0  0
   36.5360   20.2510   30.5670 C   0  0  0  0  0  0  0  0  0  0  0  0
   36.5470   21.6060   30.6950 N   0  0  0  0  0  0  0  0  0  0  0  0
   35.7480   22.2640   31.5750 C   0  0  0  0  0  0  0  0  0  0  0  0
   34.9180   21.5930   32.3480 N   0  0  0  0  0  0  0  0  0  0  0  0
   37.7510   23.4670   33.1230 C   0  0  1  0  0  0  0  0  0  0  0  0
   39.2080   23.4320   32.6900 C   0  0  0  0  0  0  0  0  0  0  0  0
   38.7750   24.0310   34.0170 C   0  0  2  0  0  0  0  0  0  0  0  0
   39.2980   23.3050   35.1800 C   0  0  0  0  0  0  0  0  0  0  0  0
   38.5740   22.5900   36.1390 C   0  0  0  0  0  0  0  0  0  0  0  0
   39.4080   22.0560   37.0590 N   0  0  0  0  0  0  0  0  0  0  0  0
   40.6570   22.4110   36.7180 C   0  0  0  0  0  0  0  0  0  0  0  0
   41.8680   22.1310   37.3170 C   0  0  0  0  0  0  0  0  0  0  0  0
   42.9960   22.6460   36.7170 C   0  0  0  0  0  0  0  0  0  0  0  0
   43.0270   23.4240   35.5610 C   0  0  0  0  0  0  0  0  0  0  0  0
   41.7770   23.6640   35.0150 C   0  0  0  0  0  0  0  0  0  0  0  0
   40.6300   23.1660   35.5850 C   0  0  0  0  0  0  0  0  0  0  0  0
   37.7114   26.2521   32.8269 H   0  0  0  0  0  0  0  0  0  0  0  0
   34.3179   26.3870   30.2909 H   0  0  0  0  0  0  0  0  0  0  0  0
   34.1586   19.7044   32.9242 H   0  0  0  0  0  0  0  0  0  0  0  0
   35.5899   18.4389   31.3389 H   0  0  0  0  0  0  0  0  0  0  0  0
   37.1921   19.7373   29.8489 H   0  0  0  0  0  0  0  0  0  0  0  0
   36.9430   22.7398   33.2908 H   0  0  0  0  0  0  0  0  0  0  0  0
   39.7570   22.4792   32.6632 H   0  0  0  0  0  0  0  0  0  0  0  0
   39.7810   23.7776   31.8169 H   0  0  0  0  0  0  0  0  0  0  0  0
   38.8163   24.9978   34.5401 H   0  0  0  0  0  0  0  0  0  0  0  0
   37.4797   22.4779   36.1441 H   0  0  0  0  0  0  0  0  0  0  0  0
   39.1359   21.4833   37.8707 H   0  0  0  0  0  0  0  0  0  0  0  0
   41.9299   21.5240   38.2323 H   0  0  0  0  0  0  0  0  0  0  0  0
   43.9615   22.4226   37.1944 H   0  0  0  0  0  0  0  0  0  0  0  0
   43.9584   23.8117   35.1227 H   0  0  0  0  0  0  0  0  0  0  0  0
   41.7002   24.2698   34.1001 H   0  0  0  0  0  0  0  0  0  0  0  0
  1  2  1  0
  2 13  1  0
  3  2  2  0
  4  3  1  0
  5  6  1  0
  5  4  2  0
  6  1  2  0
  7 12  2  0
  8  7  1  0
  9 10  1  0
  9  8  2  0
 10 11  2  0
 11  1  1  0
 11 12  1  0
 13 15  1  0
 14 13  1  0
 14 15  1  0
 15 16  1  0
 16 24  1  0
 16 17  2  0
 17 18  1  0
 19 18  1  0
 19 20  2  0
 21 20  1  0
 22 21  2  0
 23 22  1  0
 23 24  2  0
 24 19  1  0
  3 25  1  0
  5 26  1  0
  7 27  1  0
  8 28  1  0
  9 29  1  0
 13 30  1  1
 14 31  1  0
 14 32  1  0
 15 33  1  1
 17 34  1  0
 18 35  1  0
 20 36  1  0
 21 37  1  0
 22 38  1  0
 23 39  1  0
M  ISO  8  25  14  26  14  27  14  28  14  29  14  30  13  31  13  32  13
M  ISO  7  33  13  34  14  35   9  36  14  37  14  38  14  39  14
M  END
>  <minimizedAffinity>  (1) 
-5.64929628

>  <minimizedRMSD>  (1) 
5.7638936

$$$$
