
     RDKit          3D

 35 38  0  0  1  0  0  0  0  0999 V2000
   37.3760   23.6060   32.8800 C   0  0  0  0  0  0  0  0  0  0  0  0
   36.4540   22.8100   32.2520 C   0  0  0  0  0  0  0  0  0  0  0  0
   35.6000   23.3810   31.3430 C   0  0  0  0  0  0  0  0  0  0  0  0
   35.6740   24.6980   31.0810 N   0  0  0  0  0  0  0  0  0  0  0  0
   36.5890   25.4750   31.7080 C   0  0  0  0  0  0  0  0  0  0  0  0
   37.4480   24.9310   32.6150 N   0  0  0  0  0  0  0  0  0  0  0  0
   40.2840   22.1140   34.5730 C   0  0  0  0  0  0  0  0  0  0  0  0
   39.9010   22.1120   35.8990 C   0  0  0  0  0  0  0  0  0  0  0  0
   38.6290   22.6270   36.2070 C   0  0  0  0  0  0  0  0  0  0  0  0
   37.8790   23.0890   35.1730 N   0  0  0  0  0  0  0  0  0  0  0  0
   38.2950   23.0710   33.8870 C   0  0  0  0  0  0  0  0  0  0  0  0
   39.4860   22.5890   33.5920 N   0  0  0  0  0  0  0  0  0  0  0  0
   36.5300   21.3420   32.5580 C   0  0  1  0  0  0  0  0  0  0  0  0
   35.5070   20.8280   33.5640 C   0  0  0  0  0  0  0  0  0  0  0  0
   35.4660   20.4230   32.1070 C   0  0  2  0  0  0  0  0  0  0  0  0
   35.7640   19.0540   31.7500 N   0  0  0  0  0  0  0  0  0  0  0  0
   35.5680   18.0170   32.5840 C   0  0  0  0  0  0  0  0  0  0  0  0
   35.8520   16.7110   32.2450 C   0  0  0  0  0  0  0  0  0  0  0  0
   36.3660   16.4270   30.9910 C   0  0  0  0  0  0  0  0  0  0  0  0
   36.6400   15.2440   30.6380 O   0  0  0  0  0  0  0  0  0  0  0  0
   36.5590   17.4650   30.1620 N   0  0  0  0  0  0  0  0  0  0  0  0
   36.2640   18.7160   30.5470 C   0  0  0  0  0  0  0  0  0  0  0  0
   36.4610   19.6810   29.7340 O   0  0  0  0  0  0  0  0  0  0  0  0
   34.8528   22.7601   30.8271 H   0  0  0  0  0  0  0  0  0  0  0  0
   36.6390   26.5508   31.4839 H   0  0  0  0  0  0  0  0  0  0  0  0
   41.2736   21.7149   34.3057 H   0  0  0  0  0  0  0  0  0  0  0  0
   40.5651   21.7226   36.6847 H   0  0  0  0  0  0  0  0  0  0  0  0
   38.2571   22.6545   37.2419 H   0  0  0  0  0  0  0  0  0  0  0  0
   37.6240   21.3283   32.4436 H   0  0  0  0  0  0  0  0  0  0  0  0
   35.8031   20.1005   34.3341 H   0  0  0  0  0  0  0  0  0  0  0  0
   34.8030   21.2842   34.2755 H   0  0  0  0  0  0  0  0  0  0  0  0
   34.7159   20.4676   31.3036 H   0  0  0  0  0  0  0  0  0  0  0  0
   35.1612   18.2208   33.5855 H   0  0  0  0  0  0  0  0  0  0  0  0
   35.6714   15.9001   32.9660 H   0  0  0  0  0  0  0  0  0  0  0  0
   36.9382   17.2991   29.2188 H   0  0  0  0  0  0  0  0  0  0  0  0
  1 11  1  0
  2 13  1  0
  2  1  1  0
  3  2  2  0
  4  3  1  0
  4  5  2  0
  5  6  1  0
  6  1  2  0
  7  8  2  0
  8  9  1  0
 10  9  2  0
 11 10  1  0
 12 11  2  0
 12  7  1  0
 13 14  1  0
 15 13  1  0
 15 14  1  0
 16 15  1  0
 16 17  1  0
 18 17  2  0
 19 18  1  0
 20 19  2  0
 21 22  1  0
 21 19  1  0
 22 16  1  0
 23 22  2  0
  3 24  1  0
  5 25  1  0
  7 26  1  0
  8 27  1  0
  9 28  1  0
 13 29  1  1
 14 30  1  0
 14 31  1  0
 15 32  1  6
 17 33  1  0
 18 34  1  0
 21 35  1  0
M  ISO  8  24  14  25  14  26  14  27  14  28  14  29  13  30  13  31  13
M  ISO  4  32  13  33  14  34  14  35   9
M  END
>  <minimizedAffinity>  (1) 
-5.04491425

>  <minimizedRMSD>  (1) 
1.5255326

$$$$
