
     RDKit          3D

 33 36  0  0  1  0  0  0  0  0999 V2000
   38.4140   23.2100   34.6570 C   0  0  0  0  0  0  0  0  0  0  0  0
   39.1440   23.9620   33.7850 C   0  0  0  0  0  0  0  0  0  0  0  0
   38.9980   23.7590   32.4380 C   0  0  0  0  0  0  0  0  0  0  0  0
   38.1500   22.8340   31.9780 N   0  0  0  0  0  0  0  0  0  0  0  0
   37.4190   22.0800   32.8530 C   0  0  0  0  0  0  0  0  0  0  0  0
   37.5470   22.2650   34.2030 N   0  0  0  0  0  0  0  0  0  0  0  0
   37.8670   24.2310   38.1440 C   0  0  0  0  0  0  0  0  0  0  0  0
   38.8920   23.5860   38.8060 C   0  0  0  0  0  0  0  0  0  0  0  0
   39.7760   22.7970   38.0500 C   0  0  0  0  0  0  0  0  0  0  0  0
   39.5520   22.7280   36.7090 N   0  0  0  0  0  0  0  0  0  0  0  0
   38.5350   23.3770   36.1020 C   0  0  0  0  0  0  0  0  0  0  0  0
   37.7060   24.1180   36.8140 N   0  0  0  0  0  0  0  0  0  0  0  0
   40.0180   25.0040   34.3520 C   0  0  1  0  0  0  0  0  0  0  0  0
   40.6390   26.0080   33.3890 C   0  0  0  0  0  0  0  0  0  0  0  0
   39.6730   26.4280   34.4650 C   0  0  1  0  0  0  0  0  0  0  0  0
   38.4760   27.1200   34.0630 C   0  0  0  0  0  0  0  0  0  0  0  0
   37.4980   27.5260   34.9910 C   0  0  0  0  0  0  0  0  0  0  0  0
   36.3880   28.1820   34.4480 C   0  0  0  0  0  0  0  0  0  0  0  0
   36.2670   28.4130   33.1080 N   0  0  0  0  0  0  0  0  0  0  0  0
   37.2290   28.0040   32.2660 C   0  0  0  0  0  0  0  0  0  0  0  0
   38.3410   27.3570   32.7220 N   0  0  0  0  0  0  0  0  0  0  0  0
   39.5837   24.3625   31.7290 H   0  0  0  0  0  0  0  0  0  0  0  0
   36.7231   21.3193   32.4695 H   0  0  0  0  0  0  0  0  0  0  0  0
   37.1646   24.8527   38.7186 H   0  0  0  0  0  0  0  0  0  0  0  0
   39.0137   23.6866   39.8946 H   0  0  0  0  0  0  0  0  0  0  0  0
   40.6119   22.2591   38.5211 H   0  0  0  0  0  0  0  0  0  0  0  0
   40.3527   24.2707   35.1005 H   0  0  0  0  0  0  0  0  0  0  0  0
   41.7052   26.2670   33.4679 H   0  0  0  0  0  0  0  0  0  0  0  0
   40.7006   26.1194   32.2964 H   0  0  0  0  0  0  0  0  0  0  0  0
   39.6355   27.0684   35.3586 H   0  0  0  0  0  0  0  0  0  0  0  0
   37.5998   27.3399   36.0704 H   0  0  0  0  0  0  0  0  0  0  0  0
   35.5878   28.5222   35.1218 H   0  0  0  0  0  0  0  0  0  0  0  0
   37.1191   28.1938   31.1881 H   0  0  0  0  0  0  0  0  0  0  0  0
  1 11  1  0
  2 13  1  0
  2  1  1  0
  3  2  2  0
  4  3  1  0
  4  5  2  0
  5  6  1  0
  6  1  2  0
  7  8  2  0
  9  8  1  0
 10  9  2  0
 11 10  1  0
 11 12  2  0
 12  7  1  0
 13 15  1  0
 14 13  1  0
 14 15  1  0
 16 15  1  0
 16 17  2  0
 18 17  1  0
 19 18  2  0
 20 21  2  0
 20 19  1  0
 21 16  1  0
  3 22  1  0
  5 23  1  0
  7 24  1  0
  8 25  1  0
  9 26  1  0
 13 27  1  1
 14 28  1  0
 14 29  1  0
 15 30  1  1
 17 31  1  0
 18 32  1  0
 20 33  1  0
M  ISO  8  22  14  23  14  24  14  25  14  26  14  27  13  28  13  29  13
M  ISO  4  30  13  31  14  32  14  33  14
M  END
>  <minimizedAffinity>  (1) 
-4.99014997

>  <minimizedRMSD>  (1) 
5.97213221

$$$$
