
     RDKit          3D

 37 39  0  0  0  0  0  0  0  0999 V2000
   39.2760   23.8380   33.7960 C   0  0  0  0  0  0  0  0  0  0  0  0
   39.5500   23.2440   32.5780 C   0  0  0  0  0  0  0  0  0  0  0  0
   39.0330   24.0820   31.5920 C   0  0  0  0  0  0  0  0  0  0  0  0
   38.4740   25.1340   32.2070 N   0  0  0  0  0  0  0  0  0  0  0  0
   38.6200   24.9880   33.5370 N   0  0  0  0  0  0  0  0  0  0  0  0
   40.9500   22.0130   36.4910 C   0  0  0  0  0  0  0  0  0  0  0  0
   40.1990   22.4110   37.6310 C   0  0  0  0  0  0  0  0  0  0  0  0
   39.1480   23.2910   37.4220 C   0  0  0  0  0  0  0  0  0  0  0  0
   38.8830   23.7290   36.1600 N   0  0  0  0  0  0  0  0  0  0  0  0
   39.6300   23.3200   35.1080 C   0  0  0  0  0  0  0  0  0  0  0  0
   40.6520   22.4690   35.2810 N   0  0  0  0  0  0  0  0  0  0  0  0
   38.4080   23.6680   38.6280 C   0  0  0  0  0  0  0  0  0  0  0  0
   37.8300   24.8930   38.4560 F   0  0  0  0  0  0  0  0  0  0  0  0
   39.3410   23.8180   39.6420 F   0  0  0  0  0  0  0  0  0  0  0  0
   37.4160   22.7750   38.9360 F   0  0  0  0  0  0  0  0  0  0  0  0
   37.8230   26.2410   31.5510 C   0  0  0  0  0  0  0  0  0  0  0  0
   36.5170   26.5010   31.8710 C   0  0  0  0  0  0  0  0  0  0  0  0
   35.9240   27.5730   31.2170 C   0  0  0  0  0  0  0  0  0  0  0  0
   36.6100   28.2860   30.3400 N   0  0  0  0  0  0  0  0  0  0  0  0
   37.8980   28.0440   30.0130 C   0  0  0  0  0  0  0  0  0  0  0  0
   38.4780   26.9860   30.6580 N   0  0  0  0  0  0  0  0  0  0  0  0
   38.6620   28.8540   29.0210 C   0  0  0  0  0  0  0  0  0  0  0  0
   39.2020   27.9510   27.9040 C   0  0  0  0  0  0  0  0  0  0  0  0
   37.8100   29.8980   28.3390 C   0  0  0  0  0  0  0  0  0  0  0  0
   40.0760   22.2913   32.4178 H   0  0  0  0  0  0  0  0  0  0  0  0
   39.0758   23.9113   30.5062 H   0  0  0  0  0  0  0  0  0  0  0  0
   41.7918   21.3157   36.6142 H   0  0  0  0  0  0  0  0  0  0  0  0
   40.4416   22.0365   38.6364 H   0  0  0  0  0  0  0  0  0  0  0  0
   35.9678   25.8940   32.6058 H   0  0  0  0  0  0  0  0  0  0  0  0
   34.8761   27.8308   31.4301 H   0  0  0  0  0  0  0  0  0  0  0  0
   39.4657   29.3425   29.5915 H   0  0  0  0  0  0  0  0  0  0  0  0
   39.7185   27.0873   28.3482 H   0  0  0  0  0  0  0  0  0  0  0  0
   38.3665   27.5982   27.2815 H   0  0  0  0  0  0  0  0  0  0  0  0
   39.9081   28.5201   27.2815 H   0  0  0  0  0  0  0  0  0  0  0  0
   37.3071   30.5143   29.0988 H   0  0  0  0  0  0  0  0  0  0  0  0
   38.4470   30.5379   27.7108 H   0  0  0  0  0  0  0  0  0  0  0  0
   37.0554   29.4022   27.7108 H   0  0  0  0  0  0  0  0  0  0  0  0
  1 10  1  0
  2  1  1  0
  3  4  1  0
  3  2  2  0
  4  5  1  0
  5  1  2  0
  6  7  2  0
  8  7  1  0
  8 12  1  0
  9  8  2  0
 10 11  2  0
 10  9  1  0
 11  6  1  0
 12 15  1  0
 12 14  1  0
 13 12  1  0
 16 17  2  0
 16  4  1  0
 18 17  1  0
 19 18  2  0
 20 19  1  0
 20 21  2  0
 21 16  1  0
 22 20  1  0
 23 22  1  0
 24 22  1  0
  2 25  1  0
  3 26  1  0
  6 27  1  0
  7 28  1  0
 17 29  1  0
 18 30  1  0
 22 31  1  0
 23 32  1  0
 23 33  1  0
 23 34  1  0
 24 35  1  0
 24 36  1  0
 24 37  1  0
M  ISO  8  25  14  26  14  27  14  28  14  29  14  30  14  31   8  32   8
M  ISO  5  33   8  34   8  35   8  36   8  37   8
M  END
>  <minimizedAffinity>  (1) 
-5.38910389

>  <minimizedRMSD>  (1) 
1.72404814

$$$$
