
     RDKit          3D

 36 39  0  0  1  0  0  0  0  0999 V2000
   37.3710   23.6250   32.8960 C   0  0  0  0  0  0  0  0  0  0  0  0
   36.4900   22.8170   32.2330 C   0  0  0  0  0  0  0  0  0  0  0  0
   35.6590   23.3860   31.2990 C   0  0  0  0  0  0  0  0  0  0  0  0
   35.7150   24.7010   31.0460 N   0  0  0  0  0  0  0  0  0  0  0  0
   36.5890   25.4950   31.7050 C   0  0  0  0  0  0  0  0  0  0  0  0
   37.4270   24.9560   32.6400 N   0  0  0  0  0  0  0  0  0  0  0  0
   40.2560   22.1580   34.6390 C   0  0  0  0  0  0  0  0  0  0  0  0
   39.8550   22.1550   35.9590 C   0  0  0  0  0  0  0  0  0  0  0  0
   38.5750   22.6630   36.2430 C   0  0  0  0  0  0  0  0  0  0  0  0
   37.8330   23.1180   35.1980 N   0  0  0  0  0  0  0  0  0  0  0  0
   38.2740   23.0990   33.9190 C   0  0  0  0  0  0  0  0  0  0  0  0
   39.4730   22.6240   33.6440 N   0  0  0  0  0  0  0  0  0  0  0  0
   36.5630   21.3520   32.5430 C   0  0  1  0  0  0  0  0  0  0  0  0
   35.4720   20.8350   33.4800 C   0  0  0  0  0  0  0  0  0  0  0  0
   35.5500   20.4180   32.0260 C   0  0  2  0  0  0  0  0  0  0  0  0
   35.8470   19.0290   31.7530 N   0  0  0  0  0  0  0  0  0  0  0  0
   35.6140   17.9700   32.5490 C   0  0  0  0  0  0  0  0  0  0  0  0
   35.9480   16.6960   32.1630 C   0  0  0  0  0  0  0  0  0  0  0  0
   36.5360   16.4520   30.9440 C   0  0  0  0  0  0  0  0  0  0  0  0
   36.8870   15.1550   30.5270 N   0  0  0  0  0  0  0  0  0  0  0  0
   36.7620   17.5330   30.1560 N   0  0  0  0  0  0  0  0  0  0  0  0
   36.4310   18.7850   30.5420 C   0  0  0  0  0  0  0  0  0  0  0  0
   36.7180   19.6590   29.6790 O   0  0  0  0  0  0  0  0  0  0  0  0
   34.9407   22.7564   30.7534 H   0  0  0  0  0  0  0  0  0  0  0  0
   36.6253   26.5729   31.4887 H   0  0  0  0  0  0  0  0  0  0  0  0
   41.2524   21.7654   34.3881 H   0  0  0  0  0  0  0  0  0  0  0  0
   40.5091   21.7713   36.7558 H   0  0  0  0  0  0  0  0  0  0  0  0
   38.1881   22.6913   37.2723 H   0  0  0  0  0  0  0  0  0  0  0  0
   37.6622   21.3488   32.5013 H   0  0  0  0  0  0  0  0  0  0  0  0
   35.7179   20.1186   34.2777 H   0  0  0  0  0  0  0  0  0  0  0  0
   34.7109   21.2877   34.1325 H   0  0  0  0  0  0  0  0  0  0  0  0
   34.8903   20.4574   31.1467 H   0  0  0  0  0  0  0  0  0  0  0  0
   35.1452   18.1286   33.5314 H   0  0  0  0  0  0  0  0  0  0  0  0
   35.7416   15.8548   32.8410 H   0  0  0  0  0  0  0  0  0  0  0  0
   37.3261   15.0112   29.6064 H   0  0  0  0  0  0  0  0  0  0  0  0
   36.7049   14.3493   31.1423 H   0  0  0  0  0  0  0  0  0  0  0  0
  1 11  1  0
  2 13  1  0
  2  1  1  0
  3  2  2  0
  4  3  1  0
  4  5  2  0
  5  6  1  0
  6  1  2  0
  7  8  2  0
  8  9  1  0
 10  9  2  0
 11 10  1  0
 12 11  2  0
 12  7  1  0
 13 14  1  0
 15 13  1  0
 15 14  1  0
 16 15  1  0
 16 17  1  0
 18 17  2  0
 19 18  1  0
 20 19  1  0
 21 22  1  0
 21 19  2  0
 22 16  1  0
 23 22  2  0
  3 24  1  0
  5 25  1  0
  7 26  1  0
  8 27  1  0
  9 28  1  0
 13 29  1  1
 14 30  1  0
 14 31  1  0
 15 32  1  6
 17 33  1  0
 18 34  1  0
 20 35  1  0
 20 36  1  0
M  ISO  8  24  14  25  14  26  14  27  14  28  14  29  13  30  13  31  13
M  ISO  3  32  13  33  14  34  14
M  END
>  <minimizedAffinity>  (1) 
-4.89475965

>  <minimizedRMSD>  (1) 
1.27991295

$$$$
