
     RDKit          3D

 31 34  0  0  1  0  0  0  0  0999 V2000
   36.6790   25.6630   31.8870 C   0  0  0  0  0  0  0  0  0  0  0  0
   37.5350   25.1920   32.8410 C   0  0  0  0  0  0  0  0  0  0  0  0
   37.6060   23.8480   33.0700 C   0  0  0  0  0  0  0  0  0  0  0  0
   36.8440   23.0010   32.3730 N   0  0  0  0  0  0  0  0  0  0  0  0
   35.9870   23.4660   31.4230 C   0  0  0  0  0  0  0  0  0  0  0  0
   35.8970   24.8090   31.1720 N   0  0  0  0  0  0  0  0  0  0  0  0
   37.2240   29.0440   30.5620 C   0  0  0  0  0  0  0  0  0  0  0  0
   36.2150   29.7750   31.1560 C   0  0  0  0  0  0  0  0  0  0  0  0
   35.3430   29.0880   32.0200 C   0  0  0  0  0  0  0  0  0  0  0  0
   35.5570   27.7560   32.2070 N   0  0  0  0  0  0  0  0  0  0  0  0
   36.5590   27.0850   31.6020 C   0  0  0  0  0  0  0  0  0  0  0  0
   37.3790   27.7280   30.7900 N   0  0  0  0  0  0  0  0  0  0  0  0
   38.3890   26.1710   33.5330 C   0  0  1  0  0  0  0  0  0  0  0  0
   37.8580   26.8770   34.7630 C   0  0  0  0  0  0  0  0  0  0  0  0
   39.0640   25.9580   34.8140 C   0  0  1  0  0  0  0  0  0  0  0  0
   38.8760   24.8280   35.7420 C   0  0  0  0  0  0  0  0  0  0  0  0
   39.9850   23.8440   35.7610 C   0  0  0  0  0  0  0  0  0  0  0  0
   39.5350   22.6770   36.9400 S   0  0  0  0  0  0  0  0  0  0  0  0
   37.9020   23.5690   37.3340 C   0  0  0  0  0  0  0  0  0  0  0  0
   37.8810   24.5840   36.5780 N   0  0  0  0  0  0  0  0  0  0  0  0
   38.2957   23.4599   33.8340 H   0  0  0  0  0  0  0  0  0  0  0  0
   35.3641   22.7597   30.8545 H   0  0  0  0  0  0  0  0  0  0  0  0
   37.9223   29.5534   29.8816 H   0  0  0  0  0  0  0  0  0  0  0  0
   36.0975   30.8513   30.9616 H   0  0  0  0  0  0  0  0  0  0  0  0
   34.5171   29.6084   32.5269 H   0  0  0  0  0  0  0  0  0  0  0  0
   38.7718   26.4518   32.5407 H   0  0  0  0  0  0  0  0  0  0  0  0
   37.9819   27.9640   34.8773 H   0  0  0  0  0  0  0  0  0  0  0  0
   36.8903   26.9414   35.2820 H   0  0  0  0  0  0  0  0  0  0  0  0
   40.1422   25.9698   35.0317 H   0  0  0  0  0  0  0  0  0  0  0  0
   40.9002   23.8579   35.1509 H   0  0  0  0  0  0  0  0  0  0  0  0
   37.1373   23.2666   38.0646 H   0  0  0  0  0  0  0  0  0  0  0  0
  1  2  1  0
  2  3  2  0
  2 13  1  0
  4  3  1  0
  5  4  2  0
  6  5  1  0
  6  1  2  0
  7 12  2  0
  7  8  1  0
  8  9  2  0
  9 10  1  0
 11  1  1  0
 11 10  2  0
 12 11  1  0
 13 14  1  0
 13 15  1  0
 14 15  1  0
 15 16  1  0
 16 17  2  0
 16 20  1  0
 17 18  1  0
 18 19  1  0
 20 19  2  0
  3 21  1  0
  5 22  1  0
  7 23  1  0
  8 24  1  0
  9 25  1  0
 13 26  1  6
 14 27  1  0
 14 28  1  0
 15 29  1  6
 17 30  1  0
 19 31  1  0
M  ISO  8  21  14  22  14  23  14  24  14  25  14  26  13  27  13  28  13
M  ISO  3  29  13  30  14  31  14
M  END
>  <minimizedAffinity>  (1) 
-4.6870513

>  <minimizedRMSD>  (1) 
6.60702229

$$$$
