
     RDKit          3D

 31 33  0  0  0  0  0  0  0  0999 V2000
   38.9580   23.1840   34.0040 C   0  0  0  0  0  0  0  0  0  0  0  0
   39.3290   22.5800   32.8240 C   0  0  0  0  0  0  0  0  0  0  0  0
   38.5630   23.1630   31.8090 C   0  0  0  0  0  0  0  0  0  0  0  0
   37.7670   24.0820   32.3880 N   0  0  0  0  0  0  0  0  0  0  0  0
   38.0040   24.0940   33.7050 N   0  0  0  0  0  0  0  0  0  0  0  0
   41.0860   21.9830   36.7280 C   0  0  0  0  0  0  0  0  0  0  0  0
   40.3890   22.4410   37.8810 C   0  0  0  0  0  0  0  0  0  0  0  0
   39.2230   23.1390   37.6760 C   0  0  0  0  0  0  0  0  0  0  0  0
   38.7860   23.3630   36.4040 N   0  0  0  0  0  0  0  0  0  0  0  0
   39.4810   22.9100   35.3430 C   0  0  0  0  0  0  0  0  0  0  0  0
   40.6240   22.2250   35.5180 N   0  0  0  0  0  0  0  0  0  0  0  0
   38.5380   23.5910   38.8980 C   0  0  0  0  0  0  0  0  0  0  0  0
   37.8620   24.7580   38.6610 F   0  0  0  0  0  0  0  0  0  0  0  0
   39.4990   23.8640   39.8300 F   0  0  0  0  0  0  0  0  0  0  0  0
   37.6120   22.6640   39.3460 F   0  0  0  0  0  0  0  0  0  0  0  0
   36.8180   24.9100   31.6890 C   0  0  0  0  0  0  0  0  0  0  0  0
   35.6010   24.3340   31.3480 C   0  0  0  0  0  0  0  0  0  0  0  0
   34.7050   25.1640   30.6710 C   0  0  0  0  0  0  0  0  0  0  0  0
   35.0400   26.4160   30.3940 N   0  0  0  0  0  0  0  0  0  0  0  0
   36.2110   26.9690   30.7230 C   0  0  0  0  0  0  0  0  0  0  0  0
   37.1080   26.1800   31.3860 N   0  0  0  0  0  0  0  0  0  0  0  0
   36.6360   28.3670   30.4350 C   0  0  0  0  0  0  0  0  0  0  0  0
   36.9560   28.4780   29.1060 F   0  0  0  0  0  0  0  0  0  0  0  0
   37.7210   28.7210   31.2170 F   0  0  0  0  0  0  0  0  0  0  0  0
   35.6360   29.2760   30.7620 F   0  0  0  0  0  0  0  0  0  0  0  0
   40.0841   21.7894   32.7023 H   0  0  0  0  0  0  0  0  0  0  0  0
   38.6034   22.9167   30.7377 H   0  0  0  0  0  0  0  0  0  0  0  0
   42.0229   21.4194   36.8485 H   0  0  0  0  0  0  0  0  0  0  0  0
   40.7679   22.2444   38.8948 H   0  0  0  0  0  0  0  0  0  0  0  0
   35.3583   23.2901   31.5956 H   0  0  0  0  0  0  0  0  0  0  0  0
   33.7205   24.7784   30.3674 H   0  0  0  0  0  0  0  0  0  0  0  0
  1 10  1  0
  2  1  1  0
  3  4  1  0
  3  2  2  0
  4  5  1  0
  5  1  2  0
  6  7  2  0
  8  7  1  0
  8 12  1  0
  9  8  2  0
 10 11  2  0
 10  9  1  0
 11  6  1  0
 12 15  1  0
 12 14  1  0
 13 12  1  0
 16  4  1  0
 17 16  2  0
 18 17  1  0
 19 18  2  0
 19 20  1  0
 20 21  2  0
 21 16  1  0
 22 20  1  0
 22 25  1  0
 22 24  1  0
 23 22  1  0
  2 26  1  0
  3 27  1  0
  6 28  1  0
  7 29  1  0
 17 30  1  0
 18 31  1  0
M  ISO  6  26  14  27  14  28  14  29  14  30  14  31  14
M  END
>  <minimizedAffinity>  (1) 
-5.37370968

>  <minimizedRMSD>  (1) 
0.13994503

$$$$
