
     RDKit          3D

 37 39  0  0  1  0  0  0  0  0999 V2000
   38.2170   24.0860   34.2950 C   0  0  0  0  0  0  0  0  0  0  0  0
   37.7710   23.1370   33.4100 C   0  0  0  0  0  0  0  0  0  0  0  0
   37.5100   23.5110   32.1370 C   0  0  0  0  0  0  0  0  0  0  0  0
   37.6740   24.7690   31.7330 N   0  0  0  0  0  0  0  0  0  0  0  0
   38.1140   25.7180   32.6060 C   0  0  0  0  0  0  0  0  0  0  0  0
   38.3910   25.3810   33.9040 N   0  0  0  0  0  0  0  0  0  0  0  0
   39.8750   22.8520   37.3270 C   0  0  0  0  0  0  0  0  0  0  0  0
   38.9810   23.1870   38.3310 C   0  0  0  0  0  0  0  0  0  0  0  0
   37.7980   23.8410   37.9430 C   0  0  0  0  0  0  0  0  0  0  0  0
   37.6210   24.0940   36.6180 N   0  0  0  0  0  0  0  0  0  0  0  0
   38.5240   23.7460   35.6810 C   0  0  0  0  0  0  0  0  0  0  0  0
   39.6410   23.1310   36.0270 N   0  0  0  0  0  0  0  0  0  0  0  0
   37.6770   21.7520   33.8900 C   0  0  1  0  0  0  0  0  0  0  0  0
   36.3760   21.2970   34.5350 C   0  0  0  0  0  0  0  0  0  0  0  0
   36.9120   20.6750   33.2960 C   0  0  1  0  0  0  0  0  0  0  0  0
   36.0430   20.4280   32.2050 C   0  0  0  0  0  0  0  0  0  0  0  0
   34.8350   21.4140   32.3680 C   0  0  0  0  0  0  0  0  0  0  0  0
   36.4350   20.6380   30.7990 C   0  0  0  0  0  0  0  0  0  0  0  0
   35.2580   19.1030   32.2980 C   0  0  0  0  0  0  0  0  0  0  0  0
   37.1538   22.7582   31.4184 H   0  0  0  0  0  0  0  0  0  0  0  0
   38.2469   26.7562   32.2677 H   0  0  0  0  0  0  0  0  0  0  0  0
   40.8097   22.3399   37.5991 H   0  0  0  0  0  0  0  0  0  0  0  0
   39.1875   22.9517   39.3855 H   0  0  0  0  0  0  0  0  0  0  0  0
   37.0421   24.1377   38.6850 H   0  0  0  0  0  0  0  0  0  0  0  0
   38.7444   21.8326   34.1433 H   0  0  0  0  0  0  0  0  0  0  0  0
   36.3897   20.7445   35.4861 H   0  0  0  0  0  0  0  0  0  0  0  0
   35.4323   21.7748   34.8369 H   0  0  0  0  0  0  0  0  0  0  0  0
   37.3268   19.7563   32.8556 H   0  0  0  0  0  0  0  0  0  0  0  0
   34.6360   21.5764   33.4376 H   0  0  0  0  0  0  0  0  0  0  0  0
   35.0786   22.3745   31.8904 H   0  0  0  0  0  0  0  0  0  0  0  0
   33.9428   20.9829   31.8904 H   0  0  0  0  0  0  0  0  0  0  0  0
   37.4041   21.1572   30.7622 H   0  0  0  0  0  0  0  0  0  0  0  0
   36.5208   19.6651   30.2930 H   0  0  0  0  0  0  0  0  0  0  0  0
   35.6725   21.2484   30.2930 H   0  0  0  0  0  0  0  0  0  0  0  0
   35.1033   18.8419   33.3553 H   0  0  0  0  0  0  0  0  0  0  0  0
   34.2828   19.2190   31.8025 H   0  0  0  0  0  0  0  0  0  0  0  0
   35.8282   18.3034   31.8025 H   0  0  0  0  0  0  0  0  0  0  0  0
  1 11  1  0
  2 13  1  0
  2  1  1  0
  3  2  2  0
  4  3  1  0
  4  5  2  0
  5  6  1  0
  6  1  2  0
  7  8  2  0
  9  8  1  0
 10  9  2  0
 11 12  2  0
 11 10  1  0
 12  7  1  0
 13 14  1  0
 15 13  1  0
 15 14  1  0
 16 19  1  0
 16 17  1  0
 16 15  1  0
 18 16  1  0
  3 20  1  0
  5 21  1  0
  7 22  1  0
  8 23  1  0
  9 24  1  0
 13 25  1  1
 14 26  1  0
 14 27  1  0
 15 28  1  1
 17 29  1  0
 17 30  1  0
 17 31  1  0
 18 32  1  0
 18 33  1  0
 18 34  1  0
 19 35  1  0
 19 36  1  0
 19 37  1  0
M  ISO  8  20  14  21  14  22  14  23  14  24  14  25  13  26  13  27  13
M  ISO  8  28  13  29   8  30   8  31   8  32   8  33   8  34   8  35   8
M  ISO  2  36   8  37   8
M  END
>  <minimizedAffinity>  (1) 
-4.64801264

>  <minimizedRMSD>  (1) 
1.87904

$$$$
