
     RDKit          3D

 33 36  0  0  1  0  0  0  0  0999 V2000
   40.1340   26.1350   34.0490 C   0  0  0  0  0  0  0  0  0  0  0  0
   40.2340   24.7850   33.8820 C   0  0  0  0  0  0  0  0  0  0  0  0
   41.4610   24.1850   34.0240 C   0  0  0  0  0  0  0  0  0  0  0  0
   42.5360   24.9220   34.3190 N   0  0  0  0  0  0  0  0  0  0  0  0
   42.4340   26.2660   34.4820 C   0  0  0  0  0  0  0  0  0  0  0  0
   41.2210   26.8860   34.3480 N   0  0  0  0  0  0  0  0  0  0  0  0
   36.9210   27.7970   34.7140 C   0  0  0  0  0  0  0  0  0  0  0  0
   36.4750   28.1280   33.4510 C   0  0  0  0  0  0  0  0  0  0  0  0
   37.2930   27.7690   32.3650 C   0  0  0  0  0  0  0  0  0  0  0  0
   38.4590   27.1270   32.6440 N   0  0  0  0  0  0  0  0  0  0  0  0
   38.8550   26.8250   33.8990 C   0  0  0  0  0  0  0  0  0  0  0  0
   38.0890   27.1590   34.9180 N   0  0  0  0  0  0  0  0  0  0  0  0
   38.9930   24.0280   33.6350 C   0  0  1  0  0  0  0  0  0  0  0  0
   38.9520   22.5660   34.0540 C   0  0  0  0  0  0  0  0  0  0  0  0
   38.0480   23.6080   34.6830 C   0  0  1  0  0  0  0  0  0  0  0  0
   38.2590   23.6430   36.1370 C   0  0  0  0  0  0  0  0  0  0  0  0
   39.3210   22.8390   36.5770 C   0  0  0  0  0  0  0  0  0  0  0  0
   39.7020   22.7610   37.9010 C   0  0  0  0  0  0  0  0  0  0  0  0
   38.9950   23.5070   38.7690 N   0  0  0  0  0  0  0  0  0  0  0  0
   37.9720   24.2870   38.3720 C   0  0  0  0  0  0  0  0  0  0  0  0
   37.5870   24.3740   37.0860 N   0  0  0  0  0  0  0  0  0  0  0  0
   41.5591   23.0970   33.8948 H   0  0  0  0  0  0  0  0  0  0  0  0
   43.3290   26.8586   34.7225 H   0  0  0  0  0  0  0  0  0  0  0  0
   36.3017   28.0632   35.5833 H   0  0  0  0  0  0  0  0  0  0  0  0
   35.5192   28.6510   33.2999 H   0  0  0  0  0  0  0  0  0  0  0  0
   37.0010   27.9986   31.3296 H   0  0  0  0  0  0  0  0  0  0  0  0
   38.8551   24.6128   32.7136 H   0  0  0  0  0  0  0  0  0  0  0  0
   38.5359   21.8055   33.3768 H   0  0  0  0  0  0  0  0  0  0  0  0
   39.6817   21.8291   34.4207 H   0  0  0  0  0  0  0  0  0  0  0  0
   36.9919   23.8971   34.7880 H   0  0  0  0  0  0  0  0  0  0  0  0
   39.8740   22.2450   35.8345 H   0  0  0  0  0  0  0  0  0  0  0  0
   40.5372   22.1244   38.2284 H   0  0  0  0  0  0  0  0  0  0  0  0
   37.4307   24.8752   39.1276 H   0  0  0  0  0  0  0  0  0  0  0  0
  1  6  2  0
  2  3  2  0
  2  1  1  0
  3  4  1  0
  4  5  2  0
  6  5  1  0
  7 12  2  0
  8  7  1  0
  9 10  1  0
  9  8  2  0
 10 11  2  0
 11  1  1  0
 11 12  1  0
 13  2  1  0
 13 14  1  0
 13 15  1  0
 14 15  1  0
 15 16  1  0
 16 17  2  0
 16 21  1  0
 17 18  1  0
 18 19  2  0
 20 19  1  0
 21 20  2  0
  3 22  1  0
  5 23  1  0
  7 24  1  0
  8 25  1  0
  9 26  1  0
 13 27  1  6
 14 28  1  0
 14 29  1  0
 15 30  1  1
 17 31  1  0
 18 32  1  0
 20 33  1  0
M  ISO  8  22  14  23  14  24  14  25  14  26  14  27  13  28  13  29  13
M  ISO  4  30  13  31  14  32  14  33  14
M  END
>  <minimizedAffinity>  (1) 
-4.74744844

>  <minimizedRMSD>  (1) 
6.66806793

$$$$
