
     RDKit          3D

 32 34  0  0  1  0  0  0  0  0999 V2000
   37.5290   23.2770   33.1520 C   0  0  0  0  0  0  0  0  0  0  0  0
   36.5650   22.4140   32.6990 C   0  0  0  0  0  0  0  0  0  0  0  0
   35.7220   22.8310   31.7030 C   0  0  0  0  0  0  0  0  0  0  0  0
   35.8500   24.0720   31.1860 N   0  0  0  0  0  0  0  0  0  0  0  0
   36.8030   24.9130   31.6400 C   0  0  0  0  0  0  0  0  0  0  0  0
   37.6530   24.5190   32.6300 N   0  0  0  0  0  0  0  0  0  0  0  0
   40.4030   22.0020   35.0630 C   0  0  0  0  0  0  0  0  0  0  0  0
   40.0510   22.2760   36.3690 C   0  0  0  0  0  0  0  0  0  0  0  0
   38.8140   22.9040   36.5870 C   0  0  0  0  0  0  0  0  0  0  0  0
   38.0570   23.1960   35.4960 N   0  0  0  0  0  0  0  0  0  0  0  0
   38.4450   22.9070   34.2290 C   0  0  0  0  0  0  0  0  0  0  0  0
   39.6060   22.3160   34.0190 N   0  0  0  0  0  0  0  0  0  0  0  0
   36.5690   21.0410   33.3040 C   0  0  1  0  0  0  0  0  0  0  0  0
   35.6470   20.8520   34.4990 C   0  0  0  0  0  0  0  0  0  0  0  0
   35.4050   20.1460   33.1790 C   0  0  2  0  0  0  0  0  0  0  0  0
   35.5190   18.7170   33.2460 N   0  0  0  0  0  0  0  0  0  0  0  0
   35.4130   17.9190   32.0780 C   0  0  0  0  0  0  0  0  0  0  0  0
   35.8410   18.4320   30.9620 N   0  0  0  0  0  0  0  0  0  0  0  0
   34.8510   16.6010   32.1620 N   0  0  0  0  0  0  0  0  0  0  0  0
   35.7490   17.8160   30.1150 H   0  0  0  0  0  0  0  0  0  0  0  0
   34.9410   22.1552   31.3244 H   0  0  0  0  0  0  0  0  0  0  0  0
   36.8941   25.9210   31.2091 H   0  0  0  0  0  0  0  0  0  0  0  0
   41.3670   21.5104   34.8654 H   0  0  0  0  0  0  0  0  0  0  0  0
   40.7136   22.0127   37.2066 H   0  0  0  0  0  0  0  0  0  0  0  0
   38.4703   23.1505   37.6025 H   0  0  0  0  0  0  0  0  0  0  0  0
   37.6362   20.9010   33.0770 H   0  0  0  0  0  0  0  0  0  0  0  0
   35.9865   20.2847   35.3781 H   0  0  0  0  0  0  0  0  0  0  0  0
   35.0653   21.5122   35.1591 H   0  0  0  0  0  0  0  0  0  0  0  0
   34.6181   20.0870   32.4127 H   0  0  0  0  0  0  0  0  0  0  0  0
   35.6804   18.2636   34.1567 H   0  0  0  0  0  0  0  0  0  0  0  0
   34.7729   16.0195   31.3154 H   0  0  0  0  0  0  0  0  0  0  0  0
   34.5258   16.2366   33.0689 H   0  0  0  0  0  0  0  0  0  0  0  0
  1 11  1  0
  2  1  1  0
  2 13  1  0
  3  2  2  0
  4  5  2  0
  4  3  1  0
  5  6  1  0
  6  1  2  0
  7  8  2  0
  8  9  1  0
 10  9  2  0
 11 10  1  0
 12 11  2  0
 12  7  1  0
 13 14  1  0
 15 16  1  0
 15 13  1  0
 15 14  1  0
 17 19  1  0
 17 16  1  0
 18 17  2  0
 20 18  1  0
  3 21  1  0
  5 22  1  0
  7 23  1  0
  8 24  1  0
  9 25  1  0
 13 26  1  1
 14 27  1  0
 14 28  1  0
 15 29  1  6
 16 30  1  0
 19 31  1  0
 19 32  1  0
M  ISO  8  21  14  22  14  23  14  24  14  25  14  26  13  27  13  28  13
M  ISO  1  29  13
M  END
>  <minimizedAffinity>  (1) 
-4.8435235

>  <minimizedRMSD>  (1) 
0.378583699

$$$$
