
     RDKit          3D

 28 30  0  0  1  0  0  0  0  0999 V2000
   37.5320   23.2490   33.1320 C   0  0  0  0  0  0  0  0  0  0  0  0
   36.6810   22.3090   32.6220 C   0  0  0  0  0  0  0  0  0  0  0  0
   35.8790   22.6450   31.5590 C   0  0  0  0  0  0  0  0  0  0  0  0
   35.9370   23.8840   31.0400 N   0  0  0  0  0  0  0  0  0  0  0  0
   36.7730   24.8050   31.5450 C   0  0  0  0  0  0  0  0  0  0  0  0
   37.5840   24.4950   32.6020 N   0  0  0  0  0  0  0  0  0  0  0  0
   40.3850   22.1950   35.1890 C   0  0  0  0  0  0  0  0  0  0  0  0
   39.9490   22.4360   36.4770 C   0  0  0  0  0  0  0  0  0  0  0  0
   38.6540   22.9680   36.6210 C   0  0  0  0  0  0  0  0  0  0  0  0
   37.9340   23.2040   35.4910 N   0  0  0  0  0  0  0  0  0  0  0  0
   38.4090   22.9490   34.2550 C   0  0  0  0  0  0  0  0  0  0  0  0
   39.6240   22.4490   34.1050 N   0  0  0  0  0  0  0  0  0  0  0  0
   36.7210   20.9540   33.2190 C   0  0  1  0  0  0  0  0  0  0  0  0
   35.6110   20.5960   34.1990 C   0  0  0  0  0  0  0  0  0  0  0  0
   35.8180   19.8620   32.8800 C   0  0  1  0  0  0  0  0  0  0  0  0
   34.5920   19.8590   32.0680 C   0  0  0  0  0  0  0  0  0  0  0  0
   35.1898   21.9012   31.1326 H   0  0  0  0  0  0  0  0  0  0  0  0
   36.8060   25.8134   31.1068 H   0  0  0  0  0  0  0  0  0  0  0  0
   41.3927   21.7795   35.0414 H   0  0  0  0  0  0  0  0  0  0  0  0
   40.5840   22.2222   37.3494 H   0  0  0  0  0  0  0  0  0  0  0  0
   38.2373   23.1860   37.6154 H   0  0  0  0  0  0  0  0  0  0  0  0
   37.8196   21.0097   33.2129 H   0  0  0  0  0  0  0  0  0  0  0  0
   35.8474   20.1042   35.1541 H   0  0  0  0  0  0  0  0  0  0  0  0
   34.7832   21.1282   34.6904 H   0  0  0  0  0  0  0  0  0  0  0  0
   36.0949   18.8891   32.4477 H   0  0  0  0  0  0  0  0  0  0  0  0
   33.7136   19.8569   32.7302 H   0  0  0  0  0  0  0  0  0  0  0  0
   34.5704   20.7571   31.4332 H   0  0  0  0  0  0  0  0  0  0  0  0
   34.5748   18.9608   31.4332 H   0  0  0  0  0  0  0  0  0  0  0  0
  1 11  1  0
  2  1  1  0
  2 13  1  0
  3  2  2  0
  4  5  2  0
  4  3  1  0
  5  6  1  0
  6  1  2  0
  7  8  2  0
  8  9  1  0
 10  9  2  0
 11 10  1  0
 12 11  2  0
 12  7  1  0
 13 14  1  0
 15 13  1  0
 15 14  1  0
 16 15  1  0
  3 17  1  0
  5 18  1  0
  7 19  1  0
  8 20  1  0
  9 21  1  0
 13 22  1  1
 14 23  1  0
 14 24  1  0
 15 25  1  1
 16 26  1  0
 16 27  1  0
 16 28  1  0
M  ISO  8  17  14  18  14  19  14  20  14  21  14  22  13  23  13  24  13
M  ISO  4  25  13  26   8  27   8  28   8
M  END
>  <minimizedAffinity>  (1) 
-4.31245947

>  <minimizedRMSD>  (1) 
0.160340622

$$$$
