
     RDKit          3D

 39 42  0  0  1  0  0  0  0  0999 V2000
   37.4750   23.4010   33.1430 C   0  0  0  0  0  0  0  0  0  0  0  0
   36.6390   22.4910   32.5500 C   0  0  0  0  0  0  0  0  0  0  0  0
   35.7840   22.9360   31.5700 C   0  0  0  0  0  0  0  0  0  0  0  0
   35.7760   24.2290   31.2080 N   0  0  0  0  0  0  0  0  0  0  0  0
   36.6060   25.1160   31.8010 C   0  0  0  0  0  0  0  0  0  0  0  0
   37.4680   24.7040   32.7790 N   0  0  0  0  0  0  0  0  0  0  0  0
   40.4230   22.2380   35.0180 C   0  0  0  0  0  0  0  0  0  0  0  0
   39.9920   22.3180   36.3280 C   0  0  0  0  0  0  0  0  0  0  0  0
   38.6840   22.7740   36.5720 C   0  0  0  0  0  0  0  0  0  0  0  0
   37.9340   23.1040   35.4880 N   0  0  0  0  0  0  0  0  0  0  0  0
   38.3950   23.0110   34.2160 C   0  0  0  0  0  0  0  0  0  0  0  0
   39.6230   22.5820   33.9900 N   0  0  0  0  0  0  0  0  0  0  0  0
   36.7940   21.0660   32.9820 C   0  0  1  0  0  0  0  0  0  0  0  0
   35.6470   20.5040   33.8100 C   0  0  0  0  0  0  0  0  0  0  0  0
   35.9460   20.0020   32.4100 C   0  0  2  0  0  0  0  0  0  0  0  0
   36.3970   18.6280   32.3750 N   0  0  0  0  0  0  0  0  0  0  0  0
   35.2060   17.7980   32.3770 C   0  0  0  0  0  0  0  0  0  0  0  0
   35.6310   16.3500   32.3990 C   0  0  0  0  0  0  0  0  0  0  0  0
   36.4670   16.0220   31.2800 N   0  0  0  0  0  0  0  0  0  0  0  0
   36.8230   17.1430   30.4590 C   0  0  0  0  0  0  0  0  0  0  0  0
   37.2290   18.3580   31.2230 C   0  0  0  0  0  0  0  0  0  0  0  0
   35.1011   22.2274   31.0785 H   0  0  0  0  0  0  0  0  0  0  0  0
   36.5878   26.1726   31.4957 H   0  0  0  0  0  0  0  0  0  0  0  0
   41.4437   21.8850   34.8092 H   0  0  0  0  0  0  0  0  0  0  0  0
   40.6544   22.0326   37.1585 H   0  0  0  0  0  0  0  0  0  0  0  0
   38.2862   22.8596   37.5940 H   0  0  0  0  0  0  0  0  0  0  0  0
   37.8843   21.1713   33.0826 H   0  0  0  0  0  0  0  0  0  0  0  0
   35.8525   19.8679   34.6836 H   0  0  0  0  0  0  0  0  0  0  0  0
   34.7705   20.9201   34.3283 H   0  0  0  0  0  0  0  0  0  0  0  0
   35.4277   19.9253   31.4428 H   0  0  0  0  0  0  0  0  0  0  0  0
   34.6003   18.0204   33.2679 H   0  0  0  0  0  0  0  0  0  0  0  0
   34.6042   18.0004   31.4787 H   0  0  0  0  0  0  0  0  0  0  0  0
   36.1876   16.1566   33.3278 H   0  0  0  0  0  0  0  0  0  0  0  0
   34.7258   15.7275   32.3430 H   0  0  0  0  0  0  0  0  0  0  0  0
   37.3339   15.5971   31.6389 H   0  0  0  0  0  0  0  0  0  0  0  0
   35.9552   17.4024   29.8348 H   0  0  0  0  0  0  0  0  0  0  0  0
   37.6979   16.8354   29.8675 H   0  0  0  0  0  0  0  0  0  0  0  0
   38.2646   18.2211   31.5675 H   0  0  0  0  0  0  0  0  0  0  0  0
   37.1218   19.2153   30.5422 H   0  0  0  0  0  0  0  0  0  0  0  0
  1 11  1  0
  2 13  1  0
  2  1  1  0
  3  2  2  0
  4  3  1  0
  4  5  2  0
  5  6  1  0
  6  1  2  0
  7  8  2  0
  8  9  1  0
 10  9  2  0
 11 10  1  0
 12 11  2  0
 12  7  1  0
 13 14  1  0
 15 13  1  0
 15 14  1  0
 16 17  1  0
 16 15  1  0
 17 18  1  0
 19 18  1  0
 20 21  1  0
 20 19  1  0
 21 16  1  0
  3 22  1  0
  5 23  1  0
  7 24  1  0
  8 25  1  0
  9 26  1  0
 13 27  1  1
 14 28  1  0
 14 29  1  0
 15 30  1  6
 17 31  1  0
 17 32  1  0
 18 33  1  0
 18 34  1  0
 19 35  1  0
 20 36  1  0
 20 37  1  0
 21 38  1  0
 21 39  1  0
M  ISO  8  22  14  23  14  24  14  25  14  26  14  27  13  28  13  29  13
M  ISO  8  30  13  31  13  32  13  33  13  34  13  35   5  36  13  37  13
M  ISO  2  38  13  39  13
M  END
>  <minimizedAffinity>  (1) 
-4.47709703

>  <minimizedRMSD>  (1) 
0.976904452

$$$$
