
     RDKit          3D

 32 35  0  0  1  0  0  0  0  0999 V2000
   37.3310   23.8280   32.7870 C   0  0  0  0  0  0  0  0  0  0  0  0
   36.3970   23.0480   32.1600 C   0  0  0  0  0  0  0  0  0  0  0  0
   35.4700   23.6420   31.3440 C   0  0  0  0  0  0  0  0  0  0  0  0
   35.4900   24.9790   31.1670 N   0  0  0  0  0  0  0  0  0  0  0  0
   36.4050   25.7470   31.7810 C   0  0  0  0  0  0  0  0  0  0  0  0
   37.3440   25.1760   32.6050 N   0  0  0  0  0  0  0  0  0  0  0  0
   40.3750   22.3110   34.1830 C   0  0  0  0  0  0  0  0  0  0  0  0
   40.0770   22.2490   35.5310 C   0  0  0  0  0  0  0  0  0  0  0  0
   38.8300   22.7270   35.9690 C   0  0  0  0  0  0  0  0  0  0  0  0
   38.0010   23.2210   35.0120 N   0  0  0  0  0  0  0  0  0  0  0  0
   38.3270   23.2660   33.7000 C   0  0  0  0  0  0  0  0  0  0  0  0
   39.4960   22.8170   33.2930 N   0  0  0  0  0  0  0  0  0  0  0  0
   36.5350   21.5680   32.3650 C   0  0  1  0  0  0  0  0  0  0  0  0
   35.6770   20.9680   33.4650 C   0  0  0  0  0  0  0  0  0  0  0  0
   35.4360   20.6480   32.0110 C   0  0  2  0  0  0  0  0  0  0  0  0
   35.7230   19.2830   31.4550 C   0  0  0  0  0  0  0  0  0  0  0  0
   35.2100   18.1390   32.3310 C   0  0  0  0  0  0  0  0  0  0  0  0
   36.6760   18.3520   32.0500 C   0  0  0  0  0  0  0  0  0  0  0  0
   34.7113   23.0298   30.8345 H   0  0  0  0  0  0  0  0  0  0  0  0
   36.4024   26.8357   31.6236 H   0  0  0  0  0  0  0  0  0  0  0  0
   41.3482   21.9405   33.8285 H   0  0  0  0  0  0  0  0  0  0  0  0
   40.8015   21.8337   36.2470 H   0  0  0  0  0  0  0  0  0  0  0  0
   38.5404   22.7026   37.0299 H   0  0  0  0  0  0  0  0  0  0  0  0
   37.6023   21.5923   32.1000 H   0  0  0  0  0  0  0  0  0  0  0  0
   36.0934   20.2049   34.1390 H   0  0  0  0  0  0  0  0  0  0  0  0
   35.0722   21.3621   34.2950 H   0  0  0  0  0  0  0  0  0  0  0  0
   34.5619   20.7068   31.3458 H   0  0  0  0  0  0  0  0  0  0  0  0
   35.6262   19.6478   30.4218 H   0  0  0  0  0  0  0  0  0  0  0  0
   34.7989   18.3440   33.3305 H   0  0  0  0  0  0  0  0  0  0  0  0
   34.4927   17.3130   32.2162 H   0  0  0  0  0  0  0  0  0  0  0  0
   37.2159   17.6410   31.4074 H   0  0  0  0  0  0  0  0  0  0  0  0
   37.5678   18.4696   32.6832 H   0  0  0  0  0  0  0  0  0  0  0  0
  1 11  1  0
  2 13  1  0
  2  1  1  0
  3  2  2  0
  4  3  1  0
  4  5  2  0
  5  6  1  0
  6  1  2  0
  7  8  2  0
  8  9  1  0
 10  9  2  0
 11 10  1  0
 12 11  2  0
 12  7  1  0
 13 14  1  0
 15 13  1  0
 15 14  1  0
 16 15  1  0
 16 18  1  0
 16 17  1  0
 18 17  1  0
  3 19  1  0
  5 20  1  0
  7 21  1  0
  8 22  1  0
  9 23  1  0
 13 24  1  1
 14 25  1  0
 14 26  1  0
 15 27  1  6
 16 28  1  0
 17 29  1  0
 17 30  1  0
 18 31  1  0
 18 32  1  0
M  ISO  8  19  14  20  14  21  14  22  14  23  14  24  13  25  13  26  13
M  ISO  6  27  13  28  13  29  13  30  13  31  13  32  13
M  END
>  <minimizedAffinity>  (1) 
-4.29839087

>  <minimizedRMSD>  (1) 
1.16427052

$$$$
