
     RDKit          3D

 31 33  0  0  1  0  0  0  0  0999 V2000
   37.3830   23.5470   32.9600 C   0  0  0  0  0  0  0  0  0  0  0  0
   36.5550   22.6750   32.3050 C   0  0  0  0  0  0  0  0  0  0  0  0
   35.7220   23.1650   31.3280 C   0  0  0  0  0  0  0  0  0  0  0  0
   35.7330   24.4800   31.0340 N   0  0  0  0  0  0  0  0  0  0  0  0
   36.5480   25.3290   31.6830 C   0  0  0  0  0  0  0  0  0  0  0  0
   37.3870   24.8660   32.6590 N   0  0  0  0  0  0  0  0  0  0  0  0
   40.2840   22.2410   34.8080 C   0  0  0  0  0  0  0  0  0  0  0  0
   39.8500   22.2840   36.1190 C   0  0  0  0  0  0  0  0  0  0  0  0
   38.5510   22.7650   36.3670 C   0  0  0  0  0  0  0  0  0  0  0  0
   37.8170   23.1550   35.2890 N   0  0  0  0  0  0  0  0  0  0  0  0
   38.2850   23.0940   34.0220 C   0  0  0  0  0  0  0  0  0  0  0  0
   39.5030   22.6420   33.7840 N   0  0  0  0  0  0  0  0  0  0  0  0
   36.6810   21.2300   32.6760 C   0  0  1  0  0  0  0  0  0  0  0  0
   35.5780   20.6830   33.5750 C   0  0  0  0  0  0  0  0  0  0  0  0
   35.7560   20.2090   32.1430 C   0  0  2  0  0  0  0  0  0  0  0  0
   36.2740   18.7920   32.0510 C   0  0  0  0  0  0  0  0  0  0  0  0
   35.2960   17.7860   32.5980 C   0  0  0  0  0  0  0  0  0  0  0  0
   35.0475   22.4850   30.7870 H   0  0  0  0  0  0  0  0  0  0  0  0
   36.5403   26.3991   31.4286 H   0  0  0  0  0  0  0  0  0  0  0  0
   41.2965   21.8687   34.5930 H   0  0  0  0  0  0  0  0  0  0  0  0
   40.4993   21.9527   36.9428 H   0  0  0  0  0  0  0  0  0  0  0  0
   38.1461   22.8233   37.3881 H   0  0  0  0  0  0  0  0  0  0  0  0
   37.7790   21.2950   32.6905 H   0  0  0  0  0  0  0  0  0  0  0  0
   35.8254   20.0173   34.4150 H   0  0  0  0  0  0  0  0  0  0  0  0
   34.7570   21.1132   34.1673 H   0  0  0  0  0  0  0  0  0  0  0  0
   35.1347   20.1610   31.2365 H   0  0  0  0  0  0  0  0  0  0  0  0
   36.4702   18.5556   30.9948 H   0  0  0  0  0  0  0  0  0  0  0  0
   37.1912   18.7306   32.6552 H   0  0  0  0  0  0  0  0  0  0  0  0
   35.3205   17.8112   33.6974 H   0  0  0  0  0  0  0  0  0  0  0  0
   34.2826   18.0321   32.2481 H   0  0  0  0  0  0  0  0  0  0  0  0
   35.5706   16.7799   32.2481 H   0  0  0  0  0  0  0  0  0  0  0  0
  1 11  1  0
  2 13  1  0
  2  1  1  0
  3  2  2  0
  4  3  1  0
  4  5  2  0
  5  6  1  0
  6  1  2  0
  7  8  2  0
  8  9  1  0
 10  9  2  0
 11 10  1  0
 12 11  2  0
 12  7  1  0
 13 14  1  0
 15 13  1  0
 15 14  1  0
 16 15  1  0
 16 17  1  0
  3 18  1  0
  5 19  1  0
  7 20  1  0
  8 21  1  0
  9 22  1  0
 13 23  1  1
 14 24  1  0
 14 25  1  0
 15 26  1  6
 16 27  1  0
 16 28  1  0
 17 29  1  0
 17 30  1  0
 17 31  1  0
M  ISO  8  18  14  19  14  20  14  21  14  22  14  23  13  24  13  25  13
M  ISO  6  26  13  27   8  28   8  29   8  30   8  31   8
M  END
>  <minimizedAffinity>  (1) 
-4.16838551

>  <minimizedRMSD>  (1) 
0.644602597

$$$$
