
     RDKit          3D

 26 28  0  0  1  0  0  0  0  0999 V2000
   37.5650   23.3170   33.1720 C   0  0  0  0  0  0  0  0  0  0  0  0
   36.7260   22.3620   32.6780 C   0  0  0  0  0  0  0  0  0  0  0  0
   35.9240   22.6640   31.6090 C   0  0  0  0  0  0  0  0  0  0  0  0
   35.9700   23.8870   31.0630 N   0  0  0  0  0  0  0  0  0  0  0  0
   36.7990   24.8330   31.5530 C   0  0  0  0  0  0  0  0  0  0  0  0
   37.6090   24.5520   32.6190 N   0  0  0  0  0  0  0  0  0  0  0  0
   40.4250   22.3640   35.2740 C   0  0  0  0  0  0  0  0  0  0  0  0
   39.9550   22.6230   36.5460 C   0  0  0  0  0  0  0  0  0  0  0  0
   38.6500   23.1250   36.6840 C   0  0  0  0  0  0  0  0  0  0  0  0
   37.9380   23.3200   35.5410 N   0  0  0  0  0  0  0  0  0  0  0  0
   38.4360   23.0540   34.3150 C   0  0  0  0  0  0  0  0  0  0  0  0
   39.6630   22.5820   34.1890 N   0  0  0  0  0  0  0  0  0  0  0  0
   36.7830   21.0190   33.2970 C   0  0  1  0  0  0  0  0  0  0  0  0
   35.6710   20.6520   34.2730 C   0  0  0  0  0  0  0  0  0  0  0  0
   35.8840   19.9070   32.9590 C   0  0  1  0  0  0  0  0  0  0  0  0
   34.4300   19.9710   31.9400 S   0  0  0  0  0  0  0  0  0  0  0  0
   35.2431   21.9034   31.1993 H   0  0  0  0  0  0  0  0  0  0  0  0
   36.8233   25.8323   31.0940 H   0  0  0  0  0  0  0  0  0  0  0  0
   41.4444   21.9710   35.1461 H   0  0  0  0  0  0  0  0  0  0  0  0
   40.5859   22.4411   37.4286 H   0  0  0  0  0  0  0  0  0  0  0  0
   38.2228   23.3504   37.6723 H   0  0  0  0  0  0  0  0  0  0  0  0
   37.8806   21.0906   33.3034 H   0  0  0  0  0  0  0  0  0  0  0  0
   35.9093   20.1684   35.2319 H   0  0  0  0  0  0  0  0  0  0  0  0
   34.8365   21.1803   34.7572 H   0  0  0  0  0  0  0  0  0  0  0  0
   36.1513   18.9177   32.5591 H   0  0  0  0  0  0  0  0  0  0  0  0
   33.3162   20.0200   32.7362 H   0  0  0  0  0  0  0  0  0  0  0  0
  1 11  1  0
  2  1  1  0
  2 13  1  0
  3  2  2  0
  4  5  2  0
  4  3  1  0
  5  6  1  0
  6  1  2  0
  7  8  2  0
  8  9  1  0
 10  9  2  0
 11 10  1  0
 12 11  2  0
 12  7  1  0
 13 14  1  0
 15 13  1  0
 15 14  1  0
 16 15  1  0
  3 17  1  0
  5 18  1  0
  7 19  1  0
  8 20  1  0
  9 21  1  0
 13 22  1  1
 14 23  1  0
 14 24  1  0
 15 25  1  1
 16 26  1  0
M  ISO  8  17  14  18  14  19  14  20  14  21  14  22  13  23  13  24  13
M  ISO  2  25  13  26  11
M  END
>  <minimizedAffinity>  (1) 
-3.88803434

>  <minimizedRMSD>  (1) 
0.219613552

$$$$
