
     RDKit          3D

 28 30  0  0  1  0  0  0  0  0999 V2000
   37.3610   23.6990   32.9710 C   0  0  0  0  0  0  0  0  0  0  0  0
   36.4860   22.9000   32.2940 C   0  0  0  0  0  0  0  0  0  0  0  0
   35.6420   23.4650   31.3770 C   0  0  0  0  0  0  0  0  0  0  0  0
   35.6880   24.7980   31.1570 N   0  0  0  0  0  0  0  0  0  0  0  0
   36.5490   25.5840   31.8230 C   0  0  0  0  0  0  0  0  0  0  0  0
   37.4030   25.0340   32.7480 N   0  0  0  0  0  0  0  0  0  0  0  0
   40.2620   22.1770   34.6600 C   0  0  0  0  0  0  0  0  0  0  0  0
   39.8620   22.2100   35.9960 C   0  0  0  0  0  0  0  0  0  0  0  0
   38.6020   22.7510   36.3130 C   0  0  0  0  0  0  0  0  0  0  0  0
   37.8590   23.2080   35.2720 N   0  0  0  0  0  0  0  0  0  0  0  0
   38.2780   23.1610   33.9870 C   0  0  0  0  0  0  0  0  0  0  0  0
   39.4600   22.6530   33.6860 N   0  0  0  0  0  0  0  0  0  0  0  0
   36.5930   21.4280   32.5660 C   0  0  1  0  0  0  0  0  0  0  0  0
   35.5720   20.8690   33.5490 C   0  0  0  0  0  0  0  0  0  0  0  0
   35.5640   20.4830   32.0820 C   0  0  2  0  0  0  0  0  0  0  0  0
   35.9320   19.0700   31.7050 C   0  0  0  0  0  0  0  0  0  0  0  0
   34.8930   18.2480   32.0940 F   0  0  0  0  0  0  0  0  0  0  0  0
   35.9770   18.9790   30.3090 F   0  0  0  0  0  0  0  0  0  0  0  0
   37.1030   18.6310   32.2590 F   0  0  0  0  0  0  0  0  0  0  0  0
   34.9295   22.8375   30.8215 H   0  0  0  0  0  0  0  0  0  0  0  0
   36.5706   26.6664   31.6284 H   0  0  0  0  0  0  0  0  0  0  0  0
   41.2443   21.7573   34.3976 H   0  0  0  0  0  0  0  0  0  0  0  0
   40.5193   21.8203   36.7872 H   0  0  0  0  0  0  0  0  0  0  0  0
   38.2380   22.8011   37.3498 H   0  0  0  0  0  0  0  0  0  0  0  0
   37.6879   21.4472   32.4619 H   0  0  0  0  0  0  0  0  0  0  0  0
   35.8789   20.1396   34.3131 H   0  0  0  0  0  0  0  0  0  0  0  0
   34.8444   21.2935   34.2564 H   0  0  0  0  0  0  0  0  0  0  0  0
   34.8262   20.5169   31.2668 H   0  0  0  0  0  0  0  0  0  0  0  0
  1 11  1  0
  2 13  1  0
  2  1  1  0
  3  2  2  0
  4  3  1  0
  4  5  2  0
  5  6  1  0
  6  1  2  0
  7  8  2  0
  8  9  1  0
 10  9  2  0
 11 10  1  0
 12 11  2  0
 12  7  1  0
 13 14  1  0
 15 13  1  0
 15 14  1  0
 16 15  1  0
 16 17  1  0
 16 19  1  0
 18 16  1  0
  3 20  1  0
  5 21  1  0
  7 22  1  0
  8 23  1  0
  9 24  1  0
 13 25  1  1
 14 26  1  0
 14 27  1  0
 15 28  1  6
M  ISO  8  20  14  21  14  22  14  23  14  24  14  25  13  26  13  27  13
M  ISO  1  28  13
M  END
>  <minimizedAffinity>  (1) 
-4.45481062

>  <minimizedRMSD>  (1) 
1.04452407

$$$$
