
     RDKit          3D

 43 46  0  0  1  0  0  0  0  0999 V2000
   38.2060   22.6470   34.6920 C   0  0  0  0  0  0  0  0  0  0  0  0
   39.0150   23.0720   33.6970 C   0  0  0  0  0  0  0  0  0  0  0  0
   38.7970   22.6310   32.4150 C   0  0  0  0  0  0  0  0  0  0  0  0
   37.7830   21.7830   32.1630 N   0  0  0  0  0  0  0  0  0  0  0  0
   36.9740   21.3600   33.1590 C   0  0  0  0  0  0  0  0  0  0  0  0
   37.1840   21.7940   34.4420 N   0  0  0  0  0  0  0  0  0  0  0  0
   37.9010   24.2260   37.9950 C   0  0  0  0  0  0  0  0  0  0  0  0
   38.9660   23.6770   38.6860 C   0  0  0  0  0  0  0  0  0  0  0  0
   39.7910   22.7680   38.0240 C   0  0  0  0  0  0  0  0  0  0  0  0
   39.4670   22.5040   36.7390 N   0  0  0  0  0  0  0  0  0  0  0  0
   38.4160   23.0550   36.0820 C   0  0  0  0  0  0  0  0  0  0  0  0
   37.6460   23.9060   36.7050 N   0  0  0  0  0  0  0  0  0  0  0  0
   40.0560   24.0970   34.0450 C   0  0  1  0  0  0  0  0  0  0  0  0
   40.7630   24.7320   32.8210 C   0  0  0  0  0  0  0  0  0  0  0  0
   39.8820   25.5210   33.7820 C   0  0  1  0  0  0  0  0  0  0  0  0
   38.7890   26.1040   33.0290 N   0  0  0  0  0  0  0  0  0  0  0  0
   39.1080   26.6680   31.7870 C   0  0  0  0  0  0  0  0  0  0  0  0
   38.3050   27.8030   31.2700 C   0  0  0  0  0  0  0  0  0  0  0  0
   36.9650   28.0280   31.8710 C   0  0  0  0  0  0  0  0  0  0  0  0
   36.5620   26.8800   32.7250 C   0  0  0  0  0  0  0  0  0  0  0  0
   37.7000   26.6360   33.7000 C   0  0  0  0  0  0  0  0  0  0  0  0
   40.5180   26.5560   34.6800 C   0  0  0  0  0  0  0  0  0  0  0  0
   40.7910   27.6800   33.8970 F   0  0  0  0  0  0  0  0  0  0  0  0
   39.6300   26.9450   35.6550 F   0  0  0  0  0  0  0  0  0  0  0  0
   41.7120   26.1380   35.2230 F   0  0  0  0  0  0  0  0  0  0  0  0
   39.4492   22.9699   31.5966 H   0  0  0  0  0  0  0  0  0  0  0  0
   36.1475   20.6679   32.9404 H   0  0  0  0  0  0  0  0  0  0  0  0
   37.2430   24.9426   38.5083 H   0  0  0  0  0  0  0  0  0  0  0  0
   39.1579   23.9511   39.7339 H   0  0  0  0  0  0  0  0  0  0  0  0
   40.6527   22.2949   38.5177 H   0  0  0  0  0  0  0  0  0  0  0  0
   40.3286   23.5586   34.9647 H   0  0  0  0  0  0  0  0  0  0  0  0
   40.4186   24.5114   31.7999 H   0  0  0  0  0  0  0  0  0  0  0  0
   41.7941   24.8028   32.4444 H   0  0  0  0  0  0  0  0  0  0  0  0
   40.1492   27.0169   31.8525 H   0  0  0  0  0  0  0  0  0  0  0  0
   38.8964   25.8573   31.0743 H   0  0  0  0  0  0  0  0  0  0  0  0
   38.8931   28.7196   31.4247 H   0  0  0  0  0  0  0  0  0  0  0  0
   38.1005   27.5451   30.2204 H   0  0  0  0  0  0  0  0  0  0  0  0
   36.9954   28.9398   32.4856 H   0  0  0  0  0  0  0  0  0  0  0  0
   36.2310   28.1338   31.0586 H   0  0  0  0  0  0  0  0  0  0  0  0
   35.6393   27.1216   33.2730 H   0  0  0  0  0  0  0  0  0  0  0  0
   36.3662   25.9852   32.1158 H   0  0  0  0  0  0  0  0  0  0  0  0
   37.3700   25.9307   34.4769 H   0  0  0  0  0  0  0  0  0  0  0  0
   37.9908   27.5901   34.1638 H   0  0  0  0  0  0  0  0  0  0  0  0
  1 11  1  0
  2 13  1  0
  2  1  1  0
  3  2  2  0
  4  3  1  0
  4  5  2  0
  5  6  1  0
  6  1  2  0
  7  8  2  0
  9  8  1  0
 10  9  2  0
 11 12  2  0
 11 10  1  0
 12  7  1  0
 14 15  1  0
 14 13  1  0
 15 13  1  0
 15 22  1  1
 16 21  1  0
 16 15  1  0
 17 16  1  0
 18 17  1  0
 18 19  1  0
 19 20  1  0
 20 21  1  0
 22 25  1  0
 22 24  1  0
 23 22  1  0
  3 26  1  0
  5 27  1  0
  7 28  1  0
  8 29  1  0
  9 30  1  0
 13 31  1  1
 14 32  1  0
 14 33  1  0
 17 34  1  0
 17 35  1  0
 18 36  1  0
 18 37  1  0
 19 38  1  0
 19 39  1  0
 20 40  1  0
 20 41  1  0
 21 42  1  0
 21 43  1  0
M  ISO  8  26  14  27  14  28  14  29  14  30  14  31  13  32  13  33  13
M  ISO  8  34  13  35  13  36  13  37  13  38  13  39  13  40  13  41  13
M  ISO  2  42  13  43  13
M  END
>  <minimizedAffinity>  (1) 
-5.45444202

>  <minimizedRMSD>  (1) 
6.51269388

$$$$
