
     RDKit          3D

 36 39  0  0  1  0  0  0  0  0999 V2000
   36.9040   25.3840   32.4680 C   0  0  0  0  0  0  0  0  0  0  0  0
   37.0240   24.0810   32.1290 C   0  0  0  0  0  0  0  0  0  0  0  0
   36.1440   23.5330   31.2370 C   0  0  0  0  0  0  0  0  0  0  0  0
   35.1690   24.2990   30.7080 N   0  0  0  0  0  0  0  0  0  0  0  0
   35.0450   25.6050   31.0460 C   0  0  0  0  0  0  0  0  0  0  0  0
   35.9230   26.1590   31.9390 N   0  0  0  0  0  0  0  0  0  0  0  0
   39.7530   27.0330   34.1010 C   0  0  0  0  0  0  0  0  0  0  0  0
   39.3170   27.1610   35.4070 C   0  0  0  0  0  0  0  0  0  0  0  0
   38.0470   26.6810   35.7290 C   0  0  0  0  0  0  0  0  0  0  0  0
   37.3500   26.1270   34.7170 N   0  0  0  0  0  0  0  0  0  0  0  0
   37.7970   26.0110   33.4440 C   0  0  0  0  0  0  0  0  0  0  0  0
   38.9860   26.4610   33.1440 N   0  0  0  0  0  0  0  0  0  0  0  0
   38.1920   23.3260   32.6740 C   0  0  1  0  0  0  0  0  0  0  0  0
   37.9350   22.6410   34.0460 C   0  0  0  0  0  0  0  0  0  0  0  0
   38.2460   21.8750   32.7880 C   0  0  1  0  0  0  0  0  0  0  0  0
   37.1940   20.9090   32.3560 C   0  0  0  0  0  0  0  0  0  0  0  0
   37.1200   20.4180   31.0610 C   0  0  0  0  0  0  0  0  0  0  0  0
   36.0630   19.5530   30.7520 C   0  0  0  0  0  0  0  0  0  0  0  0
   35.1550   19.2250   31.7150 N   0  0  0  0  0  0  0  0  0  0  0  0
   35.2470   19.7130   32.9580 C   0  0  0  0  0  0  0  0  0  0  0  0
   36.2630   20.5590   33.3030 N   0  0  0  0  0  0  0  0  0  0  0  0
   39.5810   21.1510   32.6850 C   0  0  0  0  0  0  0  0  0  0  0  0
   39.2850   19.7990   32.5310 F   0  0  0  0  0  0  0  0  0  0  0  0
   40.1510   21.5160   31.4510 F   0  0  0  0  0  0  0  0  0  0  0  0
   40.4030   21.3440   33.7230 F   0  0  0  0  0  0  0  0  0  0  0  0
   36.2312   22.4739   30.9530 H   0  0  0  0  0  0  0  0  0  0  0  0
   34.2438   26.2168   30.6057 H   0  0  0  0  0  0  0  0  0  0  0  0
   40.7520   27.4069   33.8323 H   0  0  0  0  0  0  0  0  0  0  0  0
   39.9544   27.6288   36.1718 H   0  0  0  0  0  0  0  0  0  0  0  0
   37.6389   26.7506   36.7481 H   0  0  0  0  0  0  0  0  0  0  0  0
   38.8911   24.0414   32.2163 H   0  0  0  0  0  0  0  0  0  0  0  0
   38.6777   22.7131   34.8542 H   0  0  0  0  0  0  0  0  0  0  0  0
   37.1332   22.6431   34.7990 H   0  0  0  0  0  0  0  0  0  0  0  0
   37.8659   20.6984   30.3027 H   0  0  0  0  0  0  0  0  0  0  0  0
   35.9656   19.1400   29.7371 H   0  0  0  0  0  0  0  0  0  0  0  0
   34.4961   19.4297   33.7103 H   0  0  0  0  0  0  0  0  0  0  0  0
  1 11  1  0
  2  1  1  0
  2 13  1  0
  3  2  2  0
  4  5  2  0
  4  3  1  0
  5  6  1  0
  6  1  2  0
  7  8  2  0
  8  9  1  0
 10  9  2  0
 11 10  1  0
 12 11  2  0
 12  7  1  0
 13 15  1  0
 13 14  1  0
 15 22  1  1
 15 14  1  0
 16 15  1  0
 16 21  1  0
 17 16  2  0
 18 17  1  0
 18 19  2  0
 19 20  1  0
 20 21  2  0
 22 25  1  0
 23 22  1  0
 24 22  1  0
  3 26  1  0
  5 27  1  0
  7 28  1  0
  8 29  1  0
  9 30  1  0
 13 31  1  1
 14 32  1  0
 14 33  1  0
 17 34  1  0
 18 35  1  0
 20 36  1  0
M  ISO  8  26  14  27  14  28  14  29  14  30  14  31  13  32  13  33  13
M  ISO  3  34  14  35  14  36  14
M  END
>  <minimizedAffinity>  (1) 
-4.85392761

>  <minimizedRMSD>  (1) 
3.45528579

$$$$
