
     RDKit          3D

 41 44  0  0  1  0  0  0  0  0999 V2000
   37.9260   24.0510   33.1380 C   0  0  0  0  0  0  0  0  0  0  0  0
   39.1170   23.6140   33.6140 C   0  0  0  0  0  0  0  0  0  0  0  0
   39.3770   22.2770   33.6220 C   0  0  0  0  0  0  0  0  0  0  0  0
   38.4620   21.4060   33.1630 N   0  0  0  0  0  0  0  0  0  0  0  0
   37.2710   21.8410   32.6870 C   0  0  0  0  0  0  0  0  0  0  0  0
   36.9940   23.1840   32.6720 N   0  0  0  0  0  0  0  0  0  0  0  0
   37.3140   27.5300   32.1340 C   0  0  0  0  0  0  0  0  0  0  0  0
   36.8660   28.1030   33.3090 C   0  0  0  0  0  0  0  0  0  0  0  0
   36.7770   27.3040   34.4480 C   0  0  0  0  0  0  0  0  0  0  0  0
   37.1450   26.0190   34.2880 N   0  0  0  0  0  0  0  0  0  0  0  0
   37.5800   25.4740   33.1330 C   0  0  0  0  0  0  0  0  0  0  0  0
   37.6630   26.2250   32.0710 N   0  0  0  0  0  0  0  0  0  0  0  0
   40.1310   24.6300   34.0090 C   0  0  1  0  0  0  0  0  0  0  0  0
   40.1030   25.0370   35.5080 C   0  0  0  0  0  0  0  0  0  0  0  0
   41.2770   24.3590   34.8910 C   0  0  1  0  0  0  0  0  0  0  0  0
   41.5980   23.0840   35.5760 C   0  0  0  0  0  0  0  0  0  0  0  0
   40.8090   22.9420   36.9320 C   0  0  0  0  0  0  0  0  0  0  0  0
   41.2040   21.4600   37.1660 C   0  0  0  0  0  0  0  0  0  0  0  0
   42.7020   21.4970   36.8170 C   0  0  0  0  0  0  0  0  0  0  0  0
   42.9160   22.9350   36.2820 C   0  0  0  0  0  0  0  0  0  0  0  0
   42.5690   25.1420   34.6380 C   0  0  0  0  0  0  0  0  0  0  0  0
   43.1150   25.4020   35.8900 F   0  0  0  0  0  0  0  0  0  0  0  0
   43.4840   24.3470   33.9660 F   0  0  0  0  0  0  0  0  0  0  0  0
   42.3900   26.3350   34.0310 F   0  0  0  0  0  0  0  0  0  0  0  0
   40.3398   21.9085   34.0057 H   0  0  0  0  0  0  0  0  0  0  0  0
   36.5288   21.1199   32.3139 H   0  0  0  0  0  0  0  0  0  0  0  0
   37.3885   28.1501   31.2285 H   0  0  0  0  0  0  0  0  0  0  0  0
   36.5858   29.1661   33.3448 H   0  0  0  0  0  0  0  0  0  0  0  0
   36.4288   27.6978   35.4143 H   0  0  0  0  0  0  0  0  0  0  0  0
   40.0698   25.0935   33.0133 H   0  0  0  0  0  0  0  0  0  0  0  0
   40.1617   26.0965   35.7977 H   0  0  0  0  0  0  0  0  0  0  0  0
   39.4417   24.8477   36.3664 H   0  0  0  0  0  0  0  0  0  0  0  0
   41.4395   22.4187   34.7144 H   0  0  0  0  0  0  0  0  0  0  0  0
   41.1828   23.6146   37.7180 H   0  0  0  0  0  0  0  0  0  0  0  0
   39.7374   23.1901   36.9275 H   0  0  0  0  0  0  0  0  0  0  0  0
   41.0400   21.1584   38.2110 H   0  0  0  0  0  0  0  0  0  0  0  0
   40.6193   20.7367   36.5788 H   0  0  0  0  0  0  0  0  0  0  0  0
   43.3179   21.3145   37.7099 H   0  0  0  0  0  0  0  0  0  0  0  0
   42.9908   20.7233   36.0904 H   0  0  0  0  0  0  0  0  0  0  0  0
   43.7699   23.0016   35.5918 H   0  0  0  0  0  0  0  0  0  0  0  0
   43.1547   23.7025   37.0330 H   0  0  0  0  0  0  0  0  0  0  0  0
  1  2  1  0
  2  3  2  0
  2 13  1  0
  4  3  1  0
  5  4  2  0
  6  5  1  0
  6  1  2  0
  7  8  2  0
  8  9  1  0
 10  9  2  0
 11  1  1  0
 11 10  1  0
 12  7  1  0
 12 11  2  0
 13 15  1  0
 13 14  1  0
 15 21  1  6
 15 14  1  0
 15 16  1  0
 16 20  1  0
 16 17  1  0
 17 18  1  0
 19 18  1  0
 20 19  1  0
 21 22  1  0
 23 21  1  0
 24 21  1  0
  3 25  1  0
  5 26  1  0
  7 27  1  0
  8 28  1  0
  9 29  1  0
 13 30  1  6
 14 31  1  0
 14 32  1  0
 16 33  1  0
 17 34  1  0
 17 35  1  0
 18 36  1  0
 18 37  1  0
 19 38  1  0
 19 39  1  0
 20 40  1  0
 20 41  1  0
M  ISO  8  25  14  26  14  27  14  28  14  29  14  30  13  31  13  32  13
M  ISO  8  33  13  34  13  35  13  36  13  37  13  38  13  39  13  40  13
M  ISO  1  41  13
M  END
>  <minimizedAffinity>  (1) 
-4.48814297

>  <minimizedRMSD>  (1) 
7.43319702

$$$$
