
     RDKit          3D

 30 32  0  0  1  0  0  0  0  0999 V2000
   37.3970   23.4050   33.0000 C   0  0  0  0  0  0  0  0  0  0  0  0
   36.5340   22.5340   32.4330 C   0  0  0  0  0  0  0  0  0  0  0  0
   35.6460   22.9810   31.4850 C   0  0  0  0  0  0  0  0  0  0  0  0
   35.6490   24.2850   31.1320 N   0  0  0  0  0  0  0  0  0  0  0  0
   36.5140   25.1520   31.7010 C   0  0  0  0  0  0  0  0  0  0  0  0
   37.4040   24.7160   32.6470 N   0  0  0  0  0  0  0  0  0  0  0  0
   40.3320   22.1380   34.8210 C   0  0  0  0  0  0  0  0  0  0  0  0
   39.9430   22.2840   36.1400 C   0  0  0  0  0  0  0  0  0  0  0  0
   38.6810   22.8130   36.4110 C   0  0  0  0  0  0  0  0  0  0  0  0
   37.9340   23.1420   35.3360 N   0  0  0  0  0  0  0  0  0  0  0  0
   38.3380   22.9900   34.0450 C   0  0  0  0  0  0  0  0  0  0  0  0
   39.5180   22.4960   33.7980 N   0  0  0  0  0  0  0  0  0  0  0  0
   36.6760   21.0870   32.8060 C   0  0  1  0  0  0  0  0  0  0  0  0
   35.7380   20.6420   33.9670 C   0  0  0  0  0  0  0  0  0  0  0  0
   35.6390   20.0920   32.5500 C   0  0  2  0  0  0  0  0  0  0  0  0
   35.9940   18.6480   32.2890 C   0  0  0  0  0  0  0  0  0  0  0  0
   35.1970   17.8700   33.1240 F   0  0  0  0  0  0  0  0  0  0  0  0
   35.5750   18.3350   30.9890 F   0  0  0  0  0  0  0  0  0  0  0  0
   37.2930   18.3570   32.5050 F   0  0  0  0  0  0  0  0  0  0  0  0
   34.3400   20.4320   31.9710 N   0  0  0  0  0  0  0  0  0  0  0  0
   34.9374   22.2820   31.0166 H   0  0  0  0  0  0  0  0  0  0  0  0
   36.5040   26.2111   31.4042 H   0  0  0  0  0  0  0  0  0  0  0  0
   41.3252   21.7216   34.5968 H   0  0  0  0  0  0  0  0  0  0  0  0
   40.6153   21.9889   36.9591 H   0  0  0  0  0  0  0  0  0  0  0  0
   38.3164   22.9536   37.4393 H   0  0  0  0  0  0  0  0  0  0  0  0
   37.7484   21.0895   32.5610 H   0  0  0  0  0  0  0  0  0  0  0  0
   36.1201   20.0140   34.7853 H   0  0  0  0  0  0  0  0  0  0  0  0
   35.0614   21.1363   34.6797 H   0  0  0  0  0  0  0  0  0  0  0  0
   33.6630   20.6092   32.7268 H   0  0  0  0  0  0  0  0  0  0  0  0
   34.4339   21.2767   31.3892 H   0  0  0  0  0  0  0  0  0  0  0  0
  1 11  1  0
  2 13  1  0
  2  1  1  0
  3  2  2  0
  4  3  1  0
  4  5  2  0
  5  6  1  0
  6  1  2  0
  7  8  2  0
  8  9  1  0
 10  9  2  0
 11 10  1  0
 12 11  2  0
 12  7  1  0
 13 14  1  0
 15 20  1  6
 15 13  1  0
 15 14  1  0
 16 19  1  0
 16 15  1  0
 16 17  1  0
 18 16  1  0
  3 21  1  0
  5 22  1  0
  7 23  1  0
  8 24  1  0
  9 25  1  0
 13 26  1  1
 14 27  1  0
 14 28  1  0
 20 29  1  0
 20 30  1  0
M  ISO  8  21  14  22  14  23  14  24  14  25  14  26  13  27  13  28  13
M  ISO  2  29   5  30   5
M  END
>  <minimizedAffinity>  (1) 
-4.5470891

>  <minimizedRMSD>  (1) 
0.528433323

$$$$
