
     RDKit          3D

 29 31  0  0  1  0  0  0  0  0999 V2000
   37.3710   23.4150   32.9920 C   0  0  0  0  0  0  0  0  0  0  0  0
   36.5000   22.5490   32.4240 C   0  0  0  0  0  0  0  0  0  0  0  0
   35.6140   22.9960   31.4790 C   0  0  0  0  0  0  0  0  0  0  0  0
   35.6250   24.2990   31.1270 N   0  0  0  0  0  0  0  0  0  0  0  0
   36.4930   25.1670   31.6910 C   0  0  0  0  0  0  0  0  0  0  0  0
   37.3860   24.7260   32.6410 N   0  0  0  0  0  0  0  0  0  0  0  0
   40.3190   22.1310   34.7690 C   0  0  0  0  0  0  0  0  0  0  0  0
   39.9510   22.2750   36.0950 C   0  0  0  0  0  0  0  0  0  0  0  0
   38.6950   22.8090   36.3820 C   0  0  0  0  0  0  0  0  0  0  0  0
   37.9360   23.1440   35.3170 N   0  0  0  0  0  0  0  0  0  0  0  0
   38.3190   22.9950   34.0270 C   0  0  0  0  0  0  0  0  0  0  0  0
   39.4960   22.4940   33.7580 N   0  0  0  0  0  0  0  0  0  0  0  0
   36.6280   21.0990   32.8160 C   0  0  1  0  0  0  0  0  0  0  0  0
   35.6900   20.6800   33.9810 C   0  0  0  0  0  0  0  0  0  0  0  0
   35.5810   20.1160   32.5670 C   0  0  2  0  0  0  0  0  0  0  0  0
   35.9070   18.6690   32.3170 C   0  0  0  0  0  0  0  0  0  0  0  0
   35.0770   17.9040   33.1090 F   0  0  0  0  0  0  0  0  0  0  0  0
   35.5130   18.3690   30.9970 F   0  0  0  0  0  0  0  0  0  0  0  0
   37.2020   18.3530   32.5490 F   0  0  0  0  0  0  0  0  0  0  0  0
   34.3360   20.4480   31.9890 O   0  0  0  0  0  0  0  0  0  0  0  0
   34.9013   22.3002   31.0122 H   0  0  0  0  0  0  0  0  0  0  0  0
   36.4861   26.2254   31.3913 H   0  0  0  0  0  0  0  0  0  0  0  0
   41.3069   21.7102   34.5303 H   0  0  0  0  0  0  0  0  0  0  0  0
   40.6333   21.9752   36.9041 H   0  0  0  0  0  0  0  0  0  0  0  0
   38.3436   22.9489   37.4149 H   0  0  0  0  0  0  0  0  0  0  0  0
   37.7007   21.0855   32.5727 H   0  0  0  0  0  0  0  0  0  0  0  0
   36.0658   20.0556   34.8049 H   0  0  0  0  0  0  0  0  0  0  0  0
   35.0216   21.1903   34.6901 H   0  0  0  0  0  0  0  0  0  0  0  0
   33.6760   20.6240   32.7056 H   0  0  0  0  0  0  0  0  0  0  0  0
  1 11  1  0
  2 13  1  0
  2  1  1  0
  3  2  2  0
  4  3  1  0
  4  5  2  0
  5  6  1  0
  6  1  2  0
  7  8  2  0
  8  9  1  0
 10  9  2  0
 11 10  1  0
 12 11  2  0
 12  7  1  0
 13 14  1  0
 15 20  1  6
 15 13  1  0
 15 14  1  0
 16 19  1  0
 16 15  1  0
 16 17  1  0
 18 16  1  0
  3 21  1  0
  5 22  1  0
  7 23  1  0
  8 24  1  0
  9 25  1  0
 13 26  1  1
 14 27  1  0
 14 28  1  0
 20 29  1  0
M  ISO  8  21  14  22  14  23  14  24  14  25  14  26  13  27  13  28  13
M  ISO  1  29   3
M  END
>  <minimizedAffinity>  (1) 
-4.59465551

>  <minimizedRMSD>  (1) 
0.519533694

$$$$
