
     RDKit          3D

 34 36  0  0  1  0  0  0  0  0999 V2000
   37.8170   24.3060   33.8540 C   0  0  0  0  0  0  0  0  0  0  0  0
   37.3420   23.4780   32.8920 C   0  0  0  0  0  0  0  0  0  0  0  0
   36.6560   24.0020   31.8380 C   0  0  0  0  0  0  0  0  0  0  0  0
   36.4560   25.3300   31.7610 N   0  0  0  0  0  0  0  0  0  0  0  0
   36.9300   26.1610   32.7190 C   0  0  0  0  0  0  0  0  0  0  0  0
   37.6210   25.6450   33.7840 N   0  0  0  0  0  0  0  0  0  0  0  0
   40.4040   23.0310   36.1270 C   0  0  0  0  0  0  0  0  0  0  0  0
   39.7070   22.8720   37.3120 C   0  0  0  0  0  0  0  0  0  0  0  0
   38.3510   23.1980   37.3350 C   0  0  0  0  0  0  0  0  0  0  0  0
   37.8400   23.6460   36.1720 N   0  0  0  0  0  0  0  0  0  0  0  0
   38.5350   23.7950   35.0230 C   0  0  0  0  0  0  0  0  0  0  0  0
   39.8040   23.4880   35.0070 N   0  0  0  0  0  0  0  0  0  0  0  0
   37.6910   22.0270   32.9920 C   0  0  1  0  0  0  0  0  0  0  0  0
   36.6430   21.1650   33.7580 C   0  0  0  0  0  0  0  0  0  0  0  0
   36.9630   20.9580   32.3100 C   0  0  2  0  0  0  0  0  0  0  0  0
   37.7100   19.7070   31.8640 C   0  0  0  0  0  0  0  0  0  0  0  0
   37.0270   18.6250   32.3480 F   0  0  0  0  0  0  0  0  0  0  0  0
   37.5870   19.6040   30.4590 F   0  0  0  0  0  0  0  0  0  0  0  0
   38.9980   19.6550   32.2610 F   0  0  0  0  0  0  0  0  0  0  0  0
   35.7760   21.1700   31.4170 C   0  0  0  0  0  0  0  0  0  0  0  0
   34.4860   20.5490   31.9950 C   0  0  0  0  0  0  0  0  0  0  0  0
   36.2661   23.3399   31.0509 H   0  0  0  0  0  0  0  0  0  0  0  0
   36.7612   27.2453   32.6428 H   0  0  0  0  0  0  0  0  0  0  0  0
   41.4742   22.7786   36.0968 H   0  0  0  0  0  0  0  0  0  0  0  0
   40.2109   22.4971   38.2151 H   0  0  0  0  0  0  0  0  0  0  0  0
   37.7390   23.0959   38.2433 H   0  0  0  0  0  0  0  0  0  0  0  0
   38.7640   22.2672   33.0239 H   0  0  0  0  0  0  0  0  0  0  0  0
   36.9673   20.4319   34.5112 H   0  0  0  0  0  0  0  0  0  0  0  0
   35.7372   21.3579   34.3515 H   0  0  0  0  0  0  0  0  0  0  0  0
   35.6202   22.2512   31.2873 H   0  0  0  0  0  0  0  0  0  0  0  0
   35.9857   20.6749   30.4574 H   0  0  0  0  0  0  0  0  0  0  0  0
   34.5295   20.5699   33.0939 H   0  0  0  0  0  0  0  0  0  0  0  0
   33.6152   21.1266   31.6514 H   0  0  0  0  0  0  0  0  0  0  0  0
   34.3943   19.5081   31.6514 H   0  0  0  0  0  0  0  0  0  0  0  0
  1 11  1  0
  2 13  1  0
  2  1  1  0
  3  2  2  0
  4  3  1  0
  4  5  2  0
  5  6  1  0
  6  1  2  0
  7  8  2  0
  8  9  1  0
 10  9  2  0
 11 10  1  0
 12 11  2  0
 12  7  1  0
 13 14  1  0
 15 20  1  6
 15 13  1  0
 15 14  1  0
 16 19  1  0
 16 15  1  0
 16 17  1  0
 18 16  1  0
 20 21  1  0
  3 22  1  0
  5 23  1  0
  7 24  1  0
  8 25  1  0
  9 26  1  0
 13 27  1  1
 14 28  1  0
 14 29  1  0
 20 30  1  0
 20 31  1  0
 21 32  1  0
 21 33  1  0
 21 34  1  0
M  ISO  8  22  14  23  14  24  14  25  14  26  14  27  13  28  13  29  13
M  ISO  5  30   8  31   8  32   8  33   8  34   8
M  END
>  <minimizedAffinity>  (1) 
-4.44569635

>  <minimizedRMSD>  (1) 
1.47285533

$$$$
