
     RDKit          3D

 34 37  0  0  1  0  0  0  0  0999 V2000
   41.4180   24.8850   34.6020 C   0  0  0  0  0  0  0  0  0  0  0  0
   40.3570   25.2400   33.8410 C   0  0  0  0  0  0  0  0  0  0  0  0
   40.3740   26.4320   33.1840 C   0  0  0  0  0  0  0  0  0  0  0  0
   41.4400   27.2470   33.2940 N   0  0  0  0  0  0  0  0  0  0  0  0
   42.5040   26.8960   34.0540 C   0  0  0  0  0  0  0  0  0  0  0  0
   42.4960   25.6980   34.7200 N   0  0  0  0  0  0  0  0  0  0  0  0
   42.0230   21.4290   35.6890 C   0  0  0  0  0  0  0  0  0  0  0  0
   41.3920   21.3850   36.9190 C   0  0  0  0  0  0  0  0  0  0  0  0
   40.7550   22.5390   37.3760 C   0  0  0  0  0  0  0  0  0  0  0  0
   40.8170   23.6100   36.5580 N   0  0  0  0  0  0  0  0  0  0  0  0
   41.4410   23.6290   35.3590 C   0  0  0  0  0  0  0  0  0  0  0  0
   42.0370   22.5490   34.9320 N   0  0  0  0  0  0  0  0  0  0  0  0
   39.2570   24.2390   33.6830 C   0  0  1  0  0  0  0  0  0  0  0  0
   38.0450   24.4580   34.6300 C   0  0  0  0  0  0  0  0  0  0  0  0
   37.9410   24.5500   33.1320 C   0  0  1  0  0  0  0  0  0  0  0  0
   37.5010   25.9080   32.6480 C   0  0  0  0  0  0  0  0  0  0  0  0
   36.8530   26.8990   33.5430 C   0  0  0  0  0  0  0  0  0  0  0  0
   36.5000   28.2760   32.4460 S   0  0  0  0  0  0  0  0  0  0  0  0
   37.2500   27.3710   30.9530 C   0  0  0  0  0  0  0  0  0  0  0  0
   37.6400   26.2730   31.3590 N   0  0  0  0  0  0  0  0  0  0  0  0
   37.1630   23.4850   32.3690 C   0  0  0  0  0  0  0  0  0  0  0  0
   35.9410   24.0630   32.0380 F   0  0  0  0  0  0  0  0  0  0  0  0
   37.8100   23.2870   31.1340 F   0  0  0  0  0  0  0  0  0  0  0  0
   36.9730   22.3460   33.0490 F   0  0  0  0  0  0  0  0  0  0  0  0
   39.5163   26.7296   32.5628 H   0  0  0  0  0  0  0  0  0  0  0  0
   43.3704   27.5687   34.1366 H   0  0  0  0  0  0  0  0  0  0  0  0
   42.5283   20.5261   35.3157 H   0  0  0  0  0  0  0  0  0  0  0  0
   41.3924   20.4644   37.5210 H   0  0  0  0  0  0  0  0  0  0  0  0
   40.2340   22.5735   38.3442 H   0  0  0  0  0  0  0  0  0  0  0  0
   39.9827   23.4540   33.4238 H   0  0  0  0  0  0  0  0  0  0  0  0
   37.5979   23.6100   35.1694 H   0  0  0  0  0  0  0  0  0  0  0  0
   37.8116   25.1101   35.4846 H   0  0  0  0  0  0  0  0  0  0  0  0
   36.6403   26.8111   34.6187 H   0  0  0  0  0  0  0  0  0  0  0  0
   37.3226   27.7528   29.9239 H   0  0  0  0  0  0  0  0  0  0  0  0
  1  6  1  0
  1 11  1  0
  2  1  2  0
  3  4  2  0
  3  2  1  0
  4  5  1  0
  5  6  2  0
  7  8  2  0
  8  9  1  0
 10  9  2  0
 11 10  1  0
 12 11  2  0
 12  7  1  0
 13  2  1  0
 13 14  1  0
 15 21  1  6
 15 13  1  0
 15 14  1  0
 16 15  1  0
 16 17  2  0
 18 17  1  0
 19 20  2  0
 19 18  1  0
 20 16  1  0
 21 24  1  0
 22 21  1  0
 23 21  1  0
  3 25  1  0
  5 26  1  0
  7 27  1  0
  8 28  1  0
  9 29  1  0
 13 30  1  6
 14 31  1  0
 14 32  1  0
 17 33  1  0
 19 34  1  0
M  ISO  8  25  14  26  14  27  14  28  14  29  14  30  13  31  13  32  13
M  ISO  2  33  14  34  14
M  END
>  <minimizedAffinity>  (1) 
-4.11444283

>  <minimizedRMSD>  (1) 
5.21248865

$$$$
