
     RDKit          3D

 38 41  0  0  1  0  0  0  0  0999 V2000
   39.0070   23.8070   33.3940 C   0  0  1  0  0  0  0  0  0  0  0  0
   38.0550   22.5740   33.3450 C   0  0  0  0  0  0  0  0  0  0  0  0
   38.3080   23.4740   32.1640 C   0  0  1  0  0  0  0  0  0  0  0  0
   37.0600   24.1130   31.6460 C   0  0  0  0  0  0  0  0  0  0  0  0
   35.7620   23.5650   31.6820 C   0  0  0  0  0  0  0  0  0  0  0  0
   34.6190   24.1750   31.2270 C   0  0  0  0  0  0  0  0  0  0  0  0
   34.7540   25.4340   30.6870 C   0  0  0  0  0  0  0  0  0  0  0  0
   35.9780   26.0610   30.6030 C   0  0  0  0  0  0  0  0  0  0  0  0
   37.0720   25.3800   31.0830 C   0  0  0  0  0  0  0  0  0  0  0  0
   39.2270   24.9440   35.5330 C   0  0  0  0  0  0  0  0  0  0  0  0
   38.5900   24.8730   34.3420 C   0  0  0  0  0  0  0  0  0  0  0  0
   37.6650   25.8230   34.0150 C   0  0  0  0  0  0  0  0  0  0  0  0
   37.3980   26.8240   34.8840 N   0  0  0  0  0  0  0  0  0  0  0  0
   38.0350   26.8950   36.0760 C   0  0  0  0  0  0  0  0  0  0  0  0
   38.9620   25.9440   36.4070 N   0  0  0  0  0  0  0  0  0  0  0  0
   42.2970   22.9830   36.0030 C   0  0  0  0  0  0  0  0  0  0  0  0
   41.8780   21.9600   36.8350 C   0  0  0  0  0  0  0  0  0  0  0  0
   40.5410   21.9420   37.2320 C   0  0  0  0  0  0  0  0  0  0  0  0
   39.7680   22.9430   36.7590 N   0  0  0  0  0  0  0  0  0  0  0  0
   40.2020   23.9320   35.9480 C   0  0  0  0  0  0  0  0  0  0  0  0
   41.4540   23.9500   35.5750 N   0  0  0  0  0  0  0  0  0  0  0  0
   39.0760   22.9390   30.9570 C   0  0  0  0  0  0  0  0  0  0  0  0
   39.8680   21.8920   31.4350 F   0  0  0  0  0  0  0  0  0  0  0  0
   38.1810   22.3650   30.0660 F   0  0  0  0  0  0  0  0  0  0  0  0
   39.8630   23.8570   30.3620 F   0  0  0  0  0  0  0  0  0  0  0  0
   40.0658   24.0408   33.5791 H   0  0  0  0  0  0  0  0  0  0  0  0
   38.4618   21.5522   33.3667 H   0  0  0  0  0  0  0  0  0  0  0  0
   37.1764   22.2223   33.9056 H   0  0  0  0  0  0  0  0  0  0  0  0
   35.6550   22.5587   32.1131 H   0  0  0  0  0  0  0  0  0  0  0  0
   33.6390   23.6796   31.2912 H   0  0  0  0  0  0  0  0  0  0  0  0
   33.8600   25.9538   30.3122 H   0  0  0  0  0  0  0  0  0  0  0  0
   36.0762   27.0670   30.1690 H   0  0  0  0  0  0  0  0  0  0  0  0
   38.0458   25.8869   31.0140 H   0  0  0  0  0  0  0  0  0  0  0  0
   37.1399   25.7741   33.0497 H   0  0  0  0  0  0  0  0  0  0  0  0
   37.8088   27.7132   36.7755 H   0  0  0  0  0  0  0  0  0  0  0  0
   43.3481   23.0106   35.6797 H   0  0  0  0  0  0  0  0  0  0  0  0
   42.5792   21.1831   37.1737 H   0  0  0  0  0  0  0  0  0  0  0  0
   40.1399   21.1584   37.8916 H   0  0  0  0  0  0  0  0  0  0  0  0
  1 11  1  0
  2  1  1  0
  3 22  1  6
  3  2  1  0
  3  1  1  0
  4  5  2  0
  4  3  1  0
  6  5  1  0
  7  6  2  0
  8  7  1  0
  8  9  2  0
  9  4  1  0
 10 20  1  0
 10 15  2  0
 11 10  1  0
 12 11  2  0
 12 13  1  0
 13 14  2  0
 14 15  1  0
 16 17  2  0
 17 18  1  0
 19 18  2  0
 20 19  1  0
 21 20  2  0
 21 16  1  0
 22 23  1  0
 24 22  1  0
 25 22  1  0
  1 26  1  6
  2 27  1  0
  2 28  1  0
  5 29  1  0
  6 30  1  0
  7 31  1  0
  8 32  1  0
  9 33  1  0
 12 34  1  0
 14 35  1  0
 16 36  1  0
 17 37  1  0
 18 38  1  0
M  ISO  8  26  13  27  13  28  13  29  14  30  14  31  14  32  14  33  14
M  ISO  5  34  14  35  14  36  14  37  14  38  14
M  END
>  <minimizedAffinity>  (1) 
-4.23450518

>  <minimizedRMSD>  (1) 
4.15370417

$$$$
