
     RDKit          3D

 39 43  0  0  1  0  0  0  0  0999 V2000
   40.5470   22.0590   34.4180 C   0  0  1  0  0  0  0  0  0  0  0  0
   40.7540   23.5730   34.1680 C   0  0  0  0  0  0  0  0  0  0  0  0
   39.4100   22.9660   34.4960 C   0  0  1  0  0  0  0  0  0  0  0  0
   38.3900   23.1720   33.4720 N   0  0  0  0  0  0  0  0  0  0  0  0
   38.3200   24.1240   32.4890 C   0  0  0  0  0  0  0  0  0  0  0  0
   37.2390   23.9360   31.7170 N   0  0  0  0  0  0  0  0  0  0  0  0
   36.5800   22.8650   32.1740 C   0  0  0  0  0  0  0  0  0  0  0  0
   35.4170   22.3170   31.6790 C   0  0  0  0  0  0  0  0  0  0  0  0
   34.9500   21.2220   32.3270 N   0  0  0  0  0  0  0  0  0  0  0  0
   35.6230   20.7400   33.3870 C   0  0  0  0  0  0  0  0  0  0  0  0
   36.7550   21.3120   33.8330 N   0  0  0  0  0  0  0  0  0  0  0  0
   37.2860   22.3880   33.2580 C   0  0  0  0  0  0  0  0  0  0  0  0
   42.0290   20.5610   33.2010 C   0  0  0  0  0  0  0  0  0  0  0  0
   40.8220   21.1700   33.2510 C   0  0  0  0  0  0  0  0  0  0  0  0
   39.8880   20.8890   32.3060 C   0  0  0  0  0  0  0  0  0  0  0  0
   40.1700   20.0030   31.3230 N   0  0  0  0  0  0  0  0  0  0  0  0
   41.3760   19.3910   31.2700 C   0  0  0  0  0  0  0  0  0  0  0  0
   42.3160   19.6730   32.2200 N   0  0  0  0  0  0  0  0  0  0  0  0
   44.2420   20.4810   36.1330 C   0  0  0  0  0  0  0  0  0  0  0  0
   45.1170   21.5200   35.8700 C   0  0  0  0  0  0  0  0  0  0  0  0
   44.9530   22.2510   34.6930 C   0  0  0  0  0  0  0  0  0  0  0  0
   43.9280   21.8660   33.9000 N   0  0  0  0  0  0  0  0  0  0  0  0
   43.0840   20.8460   34.1780 C   0  0  0  0  0  0  0  0  0  0  0  0
   43.2430   20.1660   35.2820 N   0  0  0  0  0  0  0  0  0  0  0  0
   38.7970   23.3030   35.8550 C   0  0  0  0  0  0  0  0  0  0  0  0
   37.7670   24.2150   35.6080 F   0  0  0  0  0  0  0  0  0  0  0  0
   38.1680   22.1630   36.3410 F   0  0  0  0  0  0  0  0  0  0  0  0
   39.6560   23.8260   36.7450 F   0  0  0  0  0  0  0  0  0  0  0  0
   40.9055   21.2804   35.1074 H   0  0  0  0  0  0  0  0  0  0  0  0
   41.2816   24.1941   34.9068 H   0  0  0  0  0  0  0  0  0  0  0  0
   41.1704   24.1972   33.3636 H   0  0  0  0  0  0  0  0  0  0  0  0
   39.0518   24.9336   32.3513 H   0  0  0  0  0  0  0  0  0  0  0  0
   34.8975   22.7435   30.8082 H   0  0  0  0  0  0  0  0  0  0  0  0
   35.2353   19.8504   33.9050 H   0  0  0  0  0  0  0  0  0  0  0  0
   38.9045   21.3805   32.3396 H   0  0  0  0  0  0  0  0  0  0  0  0
   41.5975   18.6718   30.4677 H   0  0  0  0  0  0  0  0  0  0  0  0
   44.3635   19.8978   37.0577 H   0  0  0  0  0  0  0  0  0  0  0  0
   45.9255   21.7647   36.5746 H   0  0  0  0  0  0  0  0  0  0  0  0
   45.6158   23.0877   34.4271 H   0  0  0  0  0  0  0  0  0  0  0  0
  1  3  1  0
  2  1  1  0
  2  3  1  0
  3 25  1  1
  4  3  1  0
  5  4  1  0
  6  7  1  0
  6  5  2  0
  7 12  2  0
  8  7  1  0
  8  9  2  0
  9 10  1  0
 10 11  2  0
 12  4  1  0
 12 11  1  0
 13 14  1  0
 13 23  1  0
 14  1  1  0
 15 14  2  0
 16 15  1  0
 17 16  2  0
 17 18  1  0
 18 13  2  0
 20 19  2  0
 21 20  1  0
 22 23  1  0
 22 21  2  0
 23 24  2  0
 24 19  1  0
 25 27  1  0
 25 28  1  0
 26 25  1  0
  1 29  1  1
  2 30  1  0
  2 31  1  0
  5 32  1  0
  8 33  1  0
 10 34  1  0
 15 35  1  0
 17 36  1  0
 19 37  1  0
 20 38  1  0
 21 39  1  0
M  ISO  8  29  13  30  13  31  13  32  14  33  14  34  14  35  14  36  14
M  ISO  3  37  14  38  14  39  14
M  END
>  <minimizedAffinity>  (1) 
-3.97310591

>  <minimizedRMSD>  (1) 
5.7544241

$$$$
