
     RDKit          3D

 49 54  0  0  1  0  0  0  0  0999 V2000
   38.3450   23.1800   32.7720 C   0  0  1  0  0  0  0  0  0  0  0  0
   37.9600   22.2920   34.0330 C   0  0  0  0  0  0  0  0  0  0  0  0
   38.5590   21.7530   32.7580 C   0  0  1  0  0  0  0  0  0  0  0  0
   36.9980   25.1920   32.4700 C   0  0  0  0  0  0  0  0  0  0  0  0
   37.1720   23.8900   32.1800 C   0  0  0  0  0  0  0  0  0  0  0  0
   36.3420   23.2920   31.2840 C   0  0  0  0  0  0  0  0  0  0  0  0
   35.3620   23.9890   30.6970 N   0  0  0  0  0  0  0  0  0  0  0  0
   35.1850   25.3060   30.9880 C   0  0  0  0  0  0  0  0  0  0  0  0
   36.0120   25.9150   31.8850 N   0  0  0  0  0  0  0  0  0  0  0  0
   39.6760   27.0540   34.1730 C   0  0  0  0  0  0  0  0  0  0  0  0
   39.2310   27.1100   35.4690 C   0  0  0  0  0  0  0  0  0  0  0  0
   38.0210   26.5140   35.7730 C   0  0  0  0  0  0  0  0  0  0  0  0
   37.3830   25.9240   34.7450 N   0  0  0  0  0  0  0  0  0  0  0  0
   37.8420   25.8790   33.4600 C   0  0  0  0  0  0  0  0  0  0  0  0
   38.9730   26.4400   33.1940 N   0  0  0  0  0  0  0  0  0  0  0  0
   37.6050   20.7530   32.1450 C   0  0  0  0  0  0  0  0  0  0  0  0
   36.3540   20.2910   32.6500 C   0  0  0  0  0  0  0  0  0  0  0  0
   35.8120   19.3850   31.7680 C   0  0  0  0  0  0  0  0  0  0  0  0
   36.7310   19.3120   30.7570 C   0  0  0  0  0  0  0  0  0  0  0  0
   37.7200   20.0790   30.9880 O   0  0  0  0  0  0  0  0  0  0  0  0
   36.6590   18.5110   29.5780 N   0  0  0  0  0  0  0  0  0  0  0  0
   36.6110   19.0140   28.3080 C   0  0  0  0  0  0  0  0  0  0  0  0
   36.5480   18.0600   27.3870 N   0  0  0  0  0  0  0  0  0  0  0  0
   36.5520   16.8870   28.0420 C   0  0  0  0  0  0  0  0  0  0  0  0
   36.5040   15.5480   27.6410 C   0  0  0  0  0  0  0  0  0  0  0  0
   36.4420   15.2550   26.4230 O   0  0  0  0  0  0  0  0  0  0  0  0
   36.5270   14.6160   28.6120 N   0  0  0  0  0  0  0  0  0  0  0  0
   36.5950   14.9330   29.9280 C   0  0  0  0  0  0  0  0  0  0  0  0
   36.6100   13.7960   30.8160 N   0  0  0  0  0  0  0  0  0  0  0  0
   36.6430   16.2290   30.3520 N   0  0  0  0  0  0  0  0  0  0  0  0
   36.6210   17.1680   29.3990 C   0  0  0  0  0  0  0  0  0  0  0  0
   39.9530   21.1710   32.7270 C   0  0  0  0  0  0  0  0  0  0  0  0
   39.8050   19.7880   32.6380 F   0  0  0  0  0  0  0  0  0  0  0  0
   40.5600   21.5600   31.5250 F   0  0  0  0  0  0  0  0  0  0  0  0
   40.6860   21.4650   33.8140 F   0  0  0  0  0  0  0  0  0  0  0  0
   39.0169   23.9992   32.4762 H   0  0  0  0  0  0  0  0  0  0  0  0
   38.5547   22.3401   34.9571 H   0  0  0  0  0  0  0  0  0  0  0  0
   37.0622   22.1056   34.6406 H   0  0  0  0  0  0  0  0  0  0  0  0
   36.4771   22.2279   31.0401 H   0  0  0  0  0  0  0  0  0  0  0  0
   34.3794   25.8764   30.5025 H   0  0  0  0  0  0  0  0  0  0  0  0
   40.6378   27.5246   33.9209 H   0  0  0  0  0  0  0  0  0  0  0  0
   39.8216   27.6162   36.2468 H   0  0  0  0  0  0  0  0  0  0  0  0
   37.6056   26.5215   36.7915 H   0  0  0  0  0  0  0  0  0  0  0  0
   35.8941   20.6094   33.5971 H   0  0  0  0  0  0  0  0  0  0  0  0
   34.8585   18.8435   31.8555 H   0  0  0  0  0  0  0  0  0  0  0  0
   36.6232   20.0890   28.0751 H   0  0  0  0  0  0  0  0  0  0  0  0
   36.4915   13.6221   28.3441 H   0  0  0  0  0  0  0  0  0  0  0  0
   36.6603   13.9389   31.8348 H   0  0  0  0  0  0  0  0  0  0  0  0
   36.5704   12.8414   30.4312 H   0  0  0  0  0  0  0  0  0  0  0  0
  1  2  1  0
  3 32  1  1
  3  1  1  0
  3  2  1  0
  4 14  1  0
  5  4  1  0
  5  1  1  0
  6  5  2  0
  7  8  2  0
  7  6  1  0
  8  9  1  0
  9  4  2  0
 10 11  2  0
 11 12  1  0
 13 12  2  0
 14 13  1  0
 15 14  2  0
 15 10  1  0
 16 17  2  0
 16  3  1  0
 18 17  1  0
 19 20  1  0
 19 18  2  0
 20 16  1  0
 21 19  1  0
 22 21  1  0
 23 24  1  0
 23 22  2  0
 24 31  2  0
 25 24  1  0
 25 27  1  0
 26 25  2  0
 27 28  1  0
 28 30  2  0
 28 29  1  0
 31 21  1  0
 31 30  1  0
 32 35  1  0
 33 32  1  0
 34 32  1  0
  1 36  1  1
  2 37  1  0
  2 38  1  0
  6 39  1  0
  8 40  1  0
 10 41  1  0
 11 42  1  0
 12 43  1  0
 17 44  1  0
 18 45  1  0
 22 46  1  0
 27 47  1  0
 29 48  1  0
 29 49  1  0
M  ISO  8  36  13  37  13  38  13  39  14  40  14  41  14  42  14  43  14
M  ISO  4  44  14  45  14  46  14  47   9
M  END
>  <minimizedAffinity>  (1) 
-5.30649519

>  <minimizedRMSD>  (1) 
1.3670603

$$$$
