
     RDKit          3D

 35 38  0  0  1  0  0  0  0  0999 V2000
   36.8820   25.3870   32.4590 C   0  0  0  0  0  0  0  0  0  0  0  0
   36.9470   24.0760   32.1280 C   0  0  0  0  0  0  0  0  0  0  0  0
   36.0470   23.5630   31.2440 C   0  0  0  0  0  0  0  0  0  0  0  0
   35.1030   24.3610   30.7070 N   0  0  0  0  0  0  0  0  0  0  0  0
   35.0370   25.6730   31.0350 C   0  0  0  0  0  0  0  0  0  0  0  0
   35.9350   26.1980   31.9220 N   0  0  0  0  0  0  0  0  0  0  0  0
   39.7710   26.9910   34.0660 C   0  0  0  0  0  0  0  0  0  0  0  0
   39.3670   27.0810   35.3850 C   0  0  0  0  0  0  0  0  0  0  0  0
   38.1060   26.5910   35.7290 C   0  0  0  0  0  0  0  0  0  0  0  0
   37.3840   26.0640   34.7190 N   0  0  0  0  0  0  0  0  0  0  0  0
   37.8010   25.9870   33.4320 C   0  0  0  0  0  0  0  0  0  0  0  0
   38.9820   26.4450   33.1140 N   0  0  0  0  0  0  0  0  0  0  0  0
   38.0840   23.2820   32.6860 C   0  0  1  0  0  0  0  0  0  0  0  0
   37.7690   22.5380   34.0110 C   0  0  0  0  0  0  0  0  0  0  0  0
   38.1160   21.8230   32.7370 C   0  0  1  0  0  0  0  0  0  0  0  0
   37.0010   20.9180   32.2990 C   0  0  0  0  0  0  0  0  0  0  0  0
   35.9270   20.4260   33.0700 C   0  0  0  0  0  0  0  0  0  0  0  0
   35.1190   19.6260   32.2880 C   0  0  0  0  0  0  0  0  0  0  0  0
   35.7320   19.6560   31.0540 C   0  0  0  0  0  0  0  0  0  0  0  0
   36.7870   20.3890   31.0910 O   0  0  0  0  0  0  0  0  0  0  0  0
   39.4430   21.0830   32.6070 C   0  0  0  0  0  0  0  0  0  0  0  0
   39.1130   19.7290   32.5090 F   0  0  0  0  0  0  0  0  0  0  0  0
   40.0280   21.4160   31.3870 F   0  0  0  0  0  0  0  0  0  0  0  0
   40.2680   21.2600   33.6540 F   0  0  0  0  0  0  0  0  0  0  0  0
   36.0905   22.4989   30.9687 H   0  0  0  0  0  0  0  0  0  0  0  0
   34.2629   26.3147   30.5889 H   0  0  0  0  0  0  0  0  0  0  0  0
   40.7625   27.3745   33.7833 H   0  0  0  0  0  0  0  0  0  0  0  0
   40.0238   27.5283   36.1456 H   0  0  0  0  0  0  0  0  0  0  0  0
   37.7247   26.6321   36.7600 H   0  0  0  0  0  0  0  0  0  0  0  0
   38.8075   24.0099   32.2900 H   0  0  0  0  0  0  0  0  0  0  0  0
   38.4820   22.5637   34.8483 H   0  0  0  0  0  0  0  0  0  0  0  0
   36.9391   22.5176   34.7327 H   0  0  0  0  0  0  0  0  0  0  0  0
   35.7589   20.6468   34.1344 H   0  0  0  0  0  0  0  0  0  0  0  0
   34.2032   19.0913   32.5802 H   0  0  0  0  0  0  0  0  0  0  0  0
   35.3686   19.1260   30.1612 H   0  0  0  0  0  0  0  0  0  0  0  0
  1 11  1  0
  2  1  1  0
  2 13  1  0
  3  2  2  0
  4  5  2  0
  4  3  1  0
  5  6  1  0
  6  1  2  0
  7  8  2  0
  8  9  1  0
 10  9  2  0
 11 10  1  0
 12 11  2  0
 12  7  1  0
 13 15  1  0
 13 14  1  0
 15 21  1  1
 15 14  1  0
 16 15  1  0
 16 17  2  0
 18 17  1  0
 19 20  1  0
 19 18  2  0
 20 16  1  0
 21 24  1  0
 22 21  1  0
 23 21  1  0
  3 25  1  0
  5 26  1  0
  7 27  1  0
  8 28  1  0
  9 29  1  0
 13 30  1  1
 14 31  1  0
 14 32  1  0
 17 33  1  0
 18 34  1  0
 19 35  1  0
M  ISO  8  25  14  26  14  27  14  28  14  29  14  30  13  31  13  32  13
M  ISO  3  33  14  34  14  35  14
M  END
>  <minimizedAffinity>  (1) 
-4.84749889

>  <minimizedRMSD>  (1) 
3.31889772

$$$$
