
     RDKit          3D

 43 47  0  0  1  0  0  0  0  0999 V2000
   38.3190   23.1410   32.8000 C   0  0  1  0  0  0  0  0  0  0  0  0
   37.9280   22.2260   34.0380 C   0  0  0  0  0  0  0  0  0  0  0  0
   38.5600   21.7200   32.7650 C   0  0  1  0  0  0  0  0  0  0  0  0
   36.9670   25.1460   32.4690 C   0  0  0  0  0  0  0  0  0  0  0  0
   37.1440   23.8400   32.1960 C   0  0  0  0  0  0  0  0  0  0  0  0
   36.3140   23.2260   31.3120 C   0  0  0  0  0  0  0  0  0  0  0  0
   35.3300   23.9090   30.7160 N   0  0  0  0  0  0  0  0  0  0  0  0
   35.1480   25.2300   30.9880 C   0  0  0  0  0  0  0  0  0  0  0  0
   35.9760   25.8550   31.8740 N   0  0  0  0  0  0  0  0  0  0  0  0
   39.6350   27.0620   34.1220 C   0  0  0  0  0  0  0  0  0  0  0  0
   39.2100   27.1140   35.4250 C   0  0  0  0  0  0  0  0  0  0  0  0
   38.0150   26.4970   35.7500 C   0  0  0  0  0  0  0  0  0  0  0  0
   37.3750   25.8930   34.7320 N   0  0  0  0  0  0  0  0  0  0  0  0
   37.8160   25.8500   33.4420 C   0  0  0  0  0  0  0  0  0  0  0  0
   38.9310   26.4300   33.1530 N   0  0  0  0  0  0  0  0  0  0  0  0
   37.6350   20.7120   32.1190 C   0  0  0  0  0  0  0  0  0  0  0  0
   36.4120   20.1770   32.6190 C   0  0  0  0  0  0  0  0  0  0  0  0
   35.8890   19.2920   31.7030 C   0  0  0  0  0  0  0  0  0  0  0  0
   36.7940   19.3060   30.6750 C   0  0  0  0  0  0  0  0  0  0  0  0
   37.7560   20.1010   30.9310 O   0  0  0  0  0  0  0  0  0  0  0  0
   36.6770   18.5170   29.4470 C   0  0  0  0  0  0  0  0  0  0  0  0
   36.8020   17.1420   29.4760 C   0  0  0  0  0  0  0  0  0  0  0  0
   36.6920   16.3820   28.3070 C   0  0  0  0  0  0  0  0  0  0  0  0
   36.4580   16.9850   27.1110 N   0  0  0  0  0  0  0  0  0  0  0  0
   36.3420   18.3250   27.1200 C   0  0  0  0  0  0  0  0  0  0  0  0
   36.4460   19.0870   28.2490 N   0  0  0  0  0  0  0  0  0  0  0  0
   39.9640   21.1630   32.7500 C   0  0  0  0  0  0  0  0  0  0  0  0
   39.8440   19.7790   32.6310 F   0  0  0  0  0  0  0  0  0  0  0  0
   40.5870   21.5830   31.5680 F   0  0  0  0  0  0  0  0  0  0  0  0
   40.6690   21.4500   33.8590 F   0  0  0  0  0  0  0  0  0  0  0  0
   38.9807   23.9777   32.5315 H   0  0  0  0  0  0  0  0  0  0  0  0
   38.5049   22.2693   34.9736 H   0  0  0  0  0  0  0  0  0  0  0  0
   37.0230   22.0130   34.6259 H   0  0  0  0  0  0  0  0  0  0  0  0
   36.4524   22.1587   31.0847 H   0  0  0  0  0  0  0  0  0  0  0  0
   34.3387   25.7901   30.4967 H   0  0  0  0  0  0  0  0  0  0  0  0
   40.5828   27.5518   33.8541 H   0  0  0  0  0  0  0  0  0  0  0  0
   39.8039   27.6329   36.1919 H   0  0  0  0  0  0  0  0  0  0  0  0
   37.6140   26.5000   36.7743 H   0  0  0  0  0  0  0  0  0  0  0  0
   35.9564   20.4319   33.5872 H   0  0  0  0  0  0  0  0  0  0  0  0
   34.9595   18.7087   31.7792 H   0  0  0  0  0  0  0  0  0  0  0  0
   36.9912   16.6361   30.4343 H   0  0  0  0  0  0  0  0  0  0  0  0
   36.7956   15.2880   28.3556 H   0  0  0  0  0  0  0  0  0  0  0  0
   36.1527   18.8360   26.1645 H   0  0  0  0  0  0  0  0  0  0  0  0
  1  2  1  0
  3 27  1  1
  3  1  1  0
  3  2  1  0
  4 14  1  0
  5  4  1  0
  5  1  1  0
  6  5  2  0
  7  8  2  0
  7  6  1  0
  8  9  1  0
  9  4  2  0
 10 11  2  0
 11 12  1  0
 13 12  2  0
 14 13  1  0
 15 14  2  0
 15 10  1  0
 16 17  2  0
 16  3  1  0
 18 17  1  0
 19 20  1  0
 19 18  2  0
 20 16  1  0
 21 22  2  0
 21 19  1  0
 23 22  1  0
 24 25  1  0
 24 23  2  0
 25 26  2  0
 26 21  1  0
 27 30  1  0
 28 27  1  0
 29 27  1  0
  1 31  1  1
  2 32  1  0
  2 33  1  0
  6 34  1  0
  8 35  1  0
 10 36  1  0
 11 37  1  0
 12 38  1  0
 17 39  1  0
 18 40  1  0
 22 41  1  0
 23 42  1  0
 25 43  1  0
M  ISO  8  31  13  32  13  33  13  34  14  35  14  36  14  37  14  38  14
M  ISO  5  39  14  40  14  41  14  42  14  43  14
M  END
>  <minimizedAffinity>  (1) 
-5.0646534

>  <minimizedRMSD>  (1) 
0.982869387

$$$$
