
     RDKit          3D

 44 48  0  0  1  0  0  0  0  0999 V2000
   38.3490   23.1530   32.7860 C   0  0  1  0  0  0  0  0  0  0  0  0
   37.9800   22.2610   34.0450 C   0  0  0  0  0  0  0  0  0  0  0  0
   38.5860   21.7310   32.7650 C   0  0  1  0  0  0  0  0  0  0  0  0
   36.9810   25.1480   32.4680 C   0  0  0  0  0  0  0  0  0  0  0  0
   37.1650   23.8430   32.1890 C   0  0  0  0  0  0  0  0  0  0  0  0
   36.3380   23.2270   31.3050 C   0  0  0  0  0  0  0  0  0  0  0  0
   35.3480   23.9110   30.7150 N   0  0  0  0  0  0  0  0  0  0  0  0
   35.1590   25.2280   30.9930 C   0  0  0  0  0  0  0  0  0  0  0  0
   35.9820   25.8550   31.8780 N   0  0  0  0  0  0  0  0  0  0  0  0
   39.6390   27.0640   34.1370 C   0  0  0  0  0  0  0  0  0  0  0  0
   39.2060   27.1190   35.4360 C   0  0  0  0  0  0  0  0  0  0  0  0
   38.0100   26.5020   35.7540 C   0  0  0  0  0  0  0  0  0  0  0  0
   37.3740   25.8960   34.7340 N   0  0  0  0  0  0  0  0  0  0  0  0
   37.8230   25.8540   33.4450 C   0  0  0  0  0  0  0  0  0  0  0  0
   38.9400   26.4320   33.1630 N   0  0  0  0  0  0  0  0  0  0  0  0
   37.6470   20.7140   32.1560 C   0  0  0  0  0  0  0  0  0  0  0  0
   36.4140   20.2230   32.6720 C   0  0  0  0  0  0  0  0  0  0  0  0
   35.8810   19.3070   31.7930 C   0  0  0  0  0  0  0  0  0  0  0  0
   36.7910   19.2600   30.7720 C   0  0  0  0  0  0  0  0  0  0  0  0
   37.7650   20.0500   30.9960 O   0  0  0  0  0  0  0  0  0  0  0  0
   36.6830   18.4260   29.5770 C   0  0  0  0  0  0  0  0  0  0  0  0
   36.5520   19.0400   28.3480 C   0  0  0  0  0  0  0  0  0  0  0  0
   36.4430   18.3070   27.1610 C   0  0  0  0  0  0  0  0  0  0  0  0
   36.4810   16.9330   27.3400 C   0  0  0  0  0  0  0  0  0  0  0  0
   36.6120   16.3000   28.5600 C   0  0  0  0  0  0  0  0  0  0  0  0
   36.7120   17.0860   29.6730 N   0  0  0  0  0  0  0  0  0  0  0  0
   39.9890   21.1700   32.7400 C   0  0  0  0  0  0  0  0  0  0  0  0
   39.8650   19.7860   32.6460 F   0  0  0  0  0  0  0  0  0  0  0  0
   40.5920   21.5690   31.5380 F   0  0  0  0  0  0  0  0  0  0  0  0
   40.7160   21.4740   33.8260 F   0  0  0  0  0  0  0  0  0  0  0  0
   39.0074   23.9849   32.4955 H   0  0  0  0  0  0  0  0  0  0  0  0
   38.5757   22.3173   34.9680 H   0  0  0  0  0  0  0  0  0  0  0  0
   37.0863   22.0610   34.6543 H   0  0  0  0  0  0  0  0  0  0  0  0
   36.4815   22.1615   31.0722 H   0  0  0  0  0  0  0  0  0  0  0  0
   34.3451   25.7845   30.5053 H   0  0  0  0  0  0  0  0  0  0  0  0
   40.5898   27.5512   33.8750 H   0  0  0  0  0  0  0  0  0  0  0  0
   39.7943   27.6402   36.2055 H   0  0  0  0  0  0  0  0  0  0  0  0
   37.6038   26.5061   36.7763 H   0  0  0  0  0  0  0  0  0  0  0  0
   35.9579   20.5283   33.6253 H   0  0  0  0  0  0  0  0  0  0  0  0
   34.9412   18.7434   31.8892 H   0  0  0  0  0  0  0  0  0  0  0  0
   36.5327   20.1388   28.3001 H   0  0  0  0  0  0  0  0  0  0  0  0
   36.3366   18.7794   26.1733 H   0  0  0  0  0  0  0  0  0  0  0  0
   36.4009   16.3002   26.4438 H   0  0  0  0  0  0  0  0  0  0  0  0
   36.6350   15.2027   28.6332 H   0  0  0  0  0  0  0  0  0  0  0  0
  1  2  1  0
  3 27  1  1
  3  1  1  0
  3  2  1  0
  4 14  1  0
  5  4  1  0
  5  1  1  0
  6  5  2  0
  7  8  2  0
  7  6  1  0
  8  9  1  0
  9  4  2  0
 10 11  2  0
 11 12  1  0
 13 12  2  0
 14 13  1  0
 15 14  2  0
 15 10  1  0
 16 17  2  0
 16  3  1  0
 18 17  1  0
 19 20  1  0
 19 18  2  0
 20 16  1  0
 21 26  1  0
 21 19  1  0
 22 21  2  0
 23 24  2  0
 23 22  1  0
 24 25  1  0
 25 26  2  0
 27 30  1  0
 28 27  1  0
 29 27  1  0
  1 31  1  1
  2 32  1  0
  2 33  1  0
  6 34  1  0
  8 35  1  0
 10 36  1  0
 11 37  1  0
 12 38  1  0
 17 39  1  0
 18 40  1  0
 22 41  1  0
 23 42  1  0
 24 43  1  0
 25 44  1  0
M  ISO  8  31  13  32  13  33  13  34  14  35  14  36  14  37  14  38  14
M  ISO  6  39  14  40  14  41  14  42  14  43  14  44  14
M  END
>  <minimizedAffinity>  (1) 
-5.14108372

>  <minimizedRMSD>  (1) 
0.990846336

$$$$
