
     RDKit          3D

 38 41  0  0  1  0  0  0  0  0999 V2000
   38.6850   22.6640   34.1320 C   0  0  1  0  0  0  0  0  0  0  0  0
   38.2530   22.0770   35.5440 C   0  0  0  0  0  0  0  0  0  0  0  0
   39.1120   23.3040   35.3520 C   0  0  1  0  0  0  0  0  0  0  0  0
   38.8780   20.9860   32.3730 C   0  0  0  0  0  0  0  0  0  0  0  0
   39.4990   21.7020   33.3250 C   0  0  0  0  0  0  0  0  0  0  0  0
   40.8470   21.6070   33.4600 C   0  0  0  0  0  0  0  0  0  0  0  0
   41.5550   20.8070   32.6530 N   0  0  0  0  0  0  0  0  0  0  0  0
   40.9310   20.0800   31.6870 C   0  0  0  0  0  0  0  0  0  0  0  0
   39.5780   20.1700   31.5460 N   0  0  0  0  0  0  0  0  0  0  0  0
   35.4410   21.7910   31.3420 C   0  0  0  0  0  0  0  0  0  0  0  0
   34.6890   20.8940   32.0540 C   0  0  0  0  0  0  0  0  0  0  0  0
   35.3460   20.0120   32.8930 C   0  0  0  0  0  0  0  0  0  0  0  0
   36.6880   20.1220   32.9270 N   0  0  0  0  0  0  0  0  0  0  0  0
   37.4170   21.0240   32.2070 C   0  0  0  0  0  0  0  0  0  0  0  0
   36.7920   21.8410   31.4290 N   0  0  0  0  0  0  0  0  0  0  0  0
   40.4540   23.0820   36.0120 C   0  0  0  0  0  0  0  0  0  0  0  0
   40.8190   22.0930   36.9720 C   0  0  0  0  0  0  0  0  0  0  0  0
   42.1470   22.2430   37.3030 C   0  0  0  0  0  0  0  0  0  0  0  0
   42.5580   23.3060   36.5480 C   0  0  0  0  0  0  0  0  0  0  0  0
   41.6020   23.7590   35.8390 O   0  0  0  0  0  0  0  0  0  0  0  0
   43.9430   23.8650   36.5530 C   0  0  0  0  0  0  0  0  0  0  0  0
   44.8540   22.8530   36.4500 F   0  0  0  0  0  0  0  0  0  0  0  0
   44.1470   24.6910   35.4400 F   0  0  0  0  0  0  0  0  0  0  0  0
   44.1470   24.6830   37.6540 F   0  0  0  0  0  0  0  0  0  0  0  0
   38.6120   24.6790   35.7310 C   0  0  0  0  0  0  0  0  0  0  0  0
   38.5300   24.7060   37.1220 F   0  0  0  0  0  0  0  0  0  0  0  0
   39.6090   25.6090   35.4030 F   0  0  0  0  0  0  0  0  0  0  0  0
   37.4110   24.9820   35.2130 F   0  0  0  0  0  0  0  0  0  0  0  0
   38.2511   23.0982   33.2192 H   0  0  0  0  0  0  0  0  0  0  0  0
   37.2149   22.1669   35.8966 H   0  0  0  0  0  0  0  0  0  0  0  0
   38.3313   21.1157   36.0729 H   0  0  0  0  0  0  0  0  0  0  0  0
   41.3606   22.1913   34.2377 H   0  0  0  0  0  0  0  0  0  0  0  0
   41.5143   19.4240   31.0242 H   0  0  0  0  0  0  0  0  0  0  0  0
   34.9278   22.4981   30.6737 H   0  0  0  0  0  0  0  0  0  0  0  0
   33.5931   20.8757   31.9610 H   0  0  0  0  0  0  0  0  0  0  0  0
   34.8058   19.2667   33.4953 H   0  0  0  0  0  0  0  0  0  0  0  0
   40.1441   21.3285   37.3843 H   0  0  0  0  0  0  0  0  0  0  0  0
   42.7401   21.6457   38.0111 H   0  0  0  0  0  0  0  0  0  0  0  0
  1  3  1  0
  1  2  1  0
  3  2  1  0
  3 25  1  6
  3 16  1  0
  4  5  1  0
  5  6  2  0
  5  1  1  0
  7  6  1  0
  8  7  2  0
  9  8  1  0
  9  4  2  0
 10 15  2  0
 10 11  1  0
 11 12  2  0
 12 13  1  0
 14  4  1  0
 14 13  2  0
 15 14  1  0
 16 17  2  0
 17 18  1  0
 19 21  1  0
 19 18  2  0
 20 16  1  0
 20 19  1  0
 21 24  1  0
 22 21  1  0
 23 21  1  0
 25 26  1  0
 27 25  1  0
 28 25  1  0
  1 29  1  6
  2 30  1  0
  2 31  1  0
  6 32  1  0
  8 33  1  0
 10 34  1  0
 11 35  1  0
 12 36  1  0
 17 37  1  0
 18 38  1  0
M  ISO  8  29  13  30  13  31  13  32  14  33  14  34  14  35  14  36  14
M  ISO  2  37  14  38  14
M  END
>  <minimizedAffinity>  (1) 
-5.08964109

>  <minimizedRMSD>  (1) 
7.59395885

$$$$
