
     RDKit          3D

 41 45  0  0  1  0  0  0  0  0999 V2000
   38.4700   23.2770   32.6780 C   0  0  1  0  0  0  0  0  0  0  0  0
   38.3030   22.7510   34.1670 C   0  0  0  0  0  0  0  0  0  0  0  0
   38.6530   21.8800   32.9840 C   0  0  1  0  0  0  0  0  0  0  0  0
   36.9400   25.1640   32.4520 C   0  0  0  0  0  0  0  0  0  0  0  0
   37.2210   23.8870   32.1330 C   0  0  0  0  0  0  0  0  0  0  0  0
   36.4190   23.2300   31.2520 C   0  0  0  0  0  0  0  0  0  0  0  0
   35.3610   23.8450   30.7080 N   0  0  0  0  0  0  0  0  0  0  0  0
   35.0760   25.1360   31.0300 C   0  0  0  0  0  0  0  0  0  0  0  0
   35.8730   25.8030   31.9110 N   0  0  0  0  0  0  0  0  0  0  0  0
   39.5680   27.1160   34.1290 C   0  0  0  0  0  0  0  0  0  0  0  0
   39.0750   27.2660   35.3980 C   0  0  0  0  0  0  0  0  0  0  0  0
   37.8460   26.7030   35.6930 C   0  0  0  0  0  0  0  0  0  0  0  0
   37.2420   26.0480   34.6830 N   0  0  0  0  0  0  0  0  0  0  0  0
   37.7520   25.9100   33.4250 C   0  0  0  0  0  0  0  0  0  0  0  0
   38.8990   26.4400   33.1650 N   0  0  0  0  0  0  0  0  0  0  0  0
   37.5900   20.8200   32.8210 C   0  0  0  0  0  0  0  0  0  0  0  0
   36.2890   20.7610   33.3910 C   0  0  0  0  0  0  0  0  0  0  0  0
   35.6470   19.6220   32.9760 C   0  0  0  0  0  0  0  0  0  0  0  0
   36.5680   19.0020   32.1590 C   0  0  0  0  0  0  0  0  0  0  0  0
   37.6360   19.6900   32.0940 O   0  0  0  0  0  0  0  0  0  0  0  0
   36.3630   17.7170   31.4490 C   0  0  0  0  0  0  0  0  0  0  0  0
   36.9000   17.5700   30.1820 C   0  0  0  0  0  0  0  0  0  0  0  0
   36.3790   15.8130   29.7180 S   0  0  0  0  0  0  0  0  0  0  0  0
   35.5170   15.6440   31.3870 C   0  0  0  0  0  0  0  0  0  0  0  0
   35.7260   16.6500   31.8430 N   0  0  0  0  0  0  0  0  0  0  0  0
   40.0110   21.2250   32.8700 C   0  0  0  0  0  0  0  0  0  0  0  0
   39.7860   19.8700   32.6490 F   0  0  0  0  0  0  0  0  0  0  0  0
   40.6190   21.6940   31.6950 F   0  0  0  0  0  0  0  0  0  0  0  0
   40.7770   21.3720   33.9630 F   0  0  0  0  0  0  0  0  0  0  0  0
   39.0922   23.9579   32.0786 H   0  0  0  0  0  0  0  0  0  0  0  0
   39.0554   22.9863   34.9342 H   0  0  0  0  0  0  0  0  0  0  0  0
   37.5264   22.7751   34.9456 H   0  0  0  0  0  0  0  0  0  0  0  0
   36.6411   22.1864   30.9847 H   0  0  0  0  0  0  0  0  0  0  0  0
   34.2065   25.6386   30.5813 H   0  0  0  0  0  0  0  0  0  0  0  0
   40.5436   27.5612   33.8838 H   0  0  0  0  0  0  0  0  0  0  0  0
   39.6409   27.8192   36.1621 H   0  0  0  0  0  0  0  0  0  0  0  0
   37.3904   26.7853   36.6908 H   0  0  0  0  0  0  0  0  0  0  0  0
   35.8604   21.5171   34.0653 H   0  0  0  0  0  0  0  0  0  0  0  0
   34.6333   19.2825   33.2349 H   0  0  0  0  0  0  0  0  0  0  0  0
   37.4831   18.2934   29.5932 H   0  0  0  0  0  0  0  0  0  0  0  0
   34.9600   14.7911   31.8022 H   0  0  0  0  0  0  0  0  0  0  0  0
  1  3  1  0
  1  2  1  0
  3 26  1  1
  3  2  1  0
  4 14  1  0
  5  4  1  0
  5  1  1  0
  6  5  2  0
  7  8  2  0
  7  6  1  0
  8  9  1  0
  9  4  2  0
 10 11  2  0
 11 12  1  0
 13 12  2  0
 14 13  1  0
 15 14  2  0
 15 10  1  0
 16  3  1  0
 16 17  2  0
 18 17  1  0
 19 18  2  0
 20 19  1  0
 20 16  1  0
 21 25  1  0
 21 19  1  0
 22 21  2  0
 23 22  1  0
 23 24  1  0
 24 25  2  0
 26 29  1  0
 27 26  1  0
 28 26  1  0
  1 30  1  1
  2 31  1  0
  2 32  1  0
  6 33  1  0
  8 34  1  0
 10 35  1  0
 11 36  1  0
 12 37  1  0
 17 38  1  0
 18 39  1  0
 22 40  1  0
 24 41  1  0
M  ISO  8  30  13  31  13  32  13  33  14  34  14  35  14  36  14  37  14
M  ISO  4  38  14  39  14  40  14  41  14
M  END
>  <minimizedAffinity>  (1) 
-4.87600183

>  <minimizedRMSD>  (1) 
1.39316285

$$$$
