
     RDKit          3D

 44 47  0  0  1  0  0  0  0  0999 V2000
   38.1840   23.1540   32.8760 C   0  0  1  0  0  0  0  0  0  0  0  0
   37.7020   22.1410   34.0030 C   0  0  0  0  0  0  0  0  0  0  0  0
   38.4350   21.7380   32.7460 C   0  0  1  0  0  0  0  0  0  0  0  0
   36.9420   25.2160   32.4840 C   0  0  0  0  0  0  0  0  0  0  0  0
   37.0580   23.8970   32.2420 C   0  0  0  0  0  0  0  0  0  0  0  0
   36.2100   23.3100   31.3550 C   0  0  0  0  0  0  0  0  0  0  0  0
   35.2720   24.0320   30.7300 N   0  0  0  0  0  0  0  0  0  0  0  0
   35.1540   25.3650   30.9740 C   0  0  0  0  0  0  0  0  0  0  0  0
   35.9990   25.9650   31.8610 N   0  0  0  0  0  0  0  0  0  0  0  0
   39.6800   27.0290   34.1470 C   0  0  0  0  0  0  0  0  0  0  0  0
   39.2390   27.1220   35.4420 C   0  0  0  0  0  0  0  0  0  0  0  0
   38.0110   26.5680   35.7600 C   0  0  0  0  0  0  0  0  0  0  0  0
   37.3560   25.9800   34.7440 N   0  0  0  0  0  0  0  0  0  0  0  0
   37.8100   25.8980   33.4600 C   0  0  0  0  0  0  0  0  0  0  0  0
   38.9570   26.4190   33.1790 N   0  0  0  0  0  0  0  0  0  0  0  0
   37.5690   20.7880   31.9510 C   0  0  0  0  0  0  0  0  0  0  0  0
   36.3840   20.1120   32.3600 C   0  0  0  0  0  0  0  0  0  0  0  0
   35.9080   19.3450   31.3210 C   0  0  0  0  0  0  0  0  0  0  0  0
   36.8020   19.5670   30.3100 C   0  0  0  0  0  0  0  0  0  0  0  0
   37.7190   20.3690   30.6820 O   0  0  0  0  0  0  0  0  0  0  0  0
   36.7060   18.9430   28.9560 C   0  0  0  0  0  0  0  0  0  0  0  0
   36.7390   17.4150   29.0750 C   0  0  0  0  0  0  0  0  0  0  0  0
   37.8820   19.3390   28.0870 C   0  0  0  0  0  0  0  0  0  0  0  0
   39.8390   21.1850   32.7960 C   0  0  0  0  0  0  0  0  0  0  0  0
   39.7340   19.8090   32.6100 F   0  0  0  0  0  0  0  0  0  0  0  0
   40.5340   21.6560   31.6740 F   0  0  0  0  0  0  0  0  0  0  0  0
   40.4740   21.4250   33.9570 F   0  0  0  0  0  0  0  0  0  0  0  0
   38.8599   24.0091   32.7283 H   0  0  0  0  0  0  0  0  0  0  0  0
   38.2037   22.1082   34.9814 H   0  0  0  0  0  0  0  0  0  0  0  0
   36.7549   21.8820   34.4990 H   0  0  0  0  0  0  0  0  0  0  0  0
   36.2958   22.2328   31.1496 H   0  0  0  0  0  0  0  0  0  0  0  0
   34.3819   25.9555   30.4592 H   0  0  0  0  0  0  0  0  0  0  0  0
   40.6554   27.4654   33.8857 H   0  0  0  0  0  0  0  0  0  0  0  0
   39.8462   27.6245   36.2093 H   0  0  0  0  0  0  0  0  0  0  0  0
   37.5977   26.6064   36.7787 H   0  0  0  0  0  0  0  0  0  0  0  0
   35.9201   20.1908   33.3543 H   0  0  0  0  0  0  0  0  0  0  0  0
   35.0154   18.7023   31.3070 H   0  0  0  0  0  0  0  0  0  0  0  0
   35.7636   19.2903   28.5074 H   0  0  0  0  0  0  0  0  0  0  0  0
   36.7452   17.1300   30.1374 H   0  0  0  0  0  0  0  0  0  0  0  0
   35.8498   16.9899   28.5865 H   0  0  0  0  0  0  0  0  0  0  0  0
   37.6457   17.0287   28.5865 H   0  0  0  0  0  0  0  0  0  0  0  0
   38.7304   19.6247   28.7262 H   0  0  0  0  0  0  0  0  0  0  0  0
   38.1714   18.4887   27.4519 H   0  0  0  0  0  0  0  0  0  0  0  0
   37.5981   20.1911   27.4519 H   0  0  0  0  0  0  0  0  0  0  0  0
  1  2  1  0
  3 24  1  1
  3  1  1  0
  3  2  1  0
  4 14  1  0
  5  4  1  0
  5  1  1  0
  6  5  2  0
  7  8  2  0
  7  6  1  0
  8  9  1  0
  9  4  2  0
 10 11  2  0
 11 12  1  0
 13 12  2  0
 14 13  1  0
 15 14  2  0
 15 10  1  0
 16 17  2  0
 16  3  1  0
 18 17  1  0
 19 20  1  0
 19 18  2  0
 20 16  1  0
 21 22  1  0
 21 19  1  0
 23 21  1  0
 24 27  1  0
 25 24  1  0
 26 24  1  0
  1 28  1  1
  2 29  1  0
  2 30  1  0
  6 31  1  0
  8 32  1  0
 10 33  1  0
 11 34  1  0
 12 35  1  0
 17 36  1  0
 18 37  1  0
 21 38  1  0
 22 39  1  0
 22 40  1  0
 22 41  1  0
 23 42  1  0
 23 43  1  0
 23 44  1  0
M  ISO  8  28  13  29  13  30  13  31  14  32  14  33  14  34  14  35  14
M  ISO  8  36  14  37  14  38   8  39   8  40   8  41   8  42   8  43   8
M  ISO  1  44   8
M  END
>  <minimizedAffinity>  (1) 
-4.89347935

>  <minimizedRMSD>  (1) 
0.81784147

$$$$
