
     RDKit          3D

 42 46  0  0  1  0  0  0  0  0999 V2000
   39.1740   26.2540   30.9820 C   0  0  1  0  0  0  0  0  0  0  0  0
   37.8740   27.1650   31.0350 C   0  0  0  0  0  0  0  0  0  0  0  0
   38.1500   26.0060   31.9660 C   0  0  1  0  0  0  0  0  0  0  0  0
   39.8030   26.2090   28.6250 C   0  0  0  0  0  0  0  0  0  0  0  0
   39.3250   25.5290   29.6870 C   0  0  0  0  0  0  0  0  0  0  0  0
   39.0900   24.1950   29.5700 C   0  0  0  0  0  0  0  0  0  0  0  0
   39.3310   23.5610   28.4160 N   0  0  0  0  0  0  0  0  0  0  0  0
   39.8150   24.2430   27.3440 C   0  0  0  0  0  0  0  0  0  0  0  0
   40.0530   25.5810   27.4480 N   0  0  0  0  0  0  0  0  0  0  0  0
   41.1840   29.5570   29.2650 C   0  0  0  0  0  0  0  0  0  0  0  0
   40.2810   30.3830   28.6480 C   0  0  0  0  0  0  0  0  0  0  0  0
   39.1950   29.8060   28.0140 C   0  0  0  0  0  0  0  0  0  0  0  0
   39.1290   28.4620   28.0630 N   0  0  0  0  0  0  0  0  0  0  0  0
   40.0420   27.6590   28.6830 C   0  0  0  0  0  0  0  0  0  0  0  0
   41.0490   28.2100   29.2710 N   0  0  0  0  0  0  0  0  0  0  0  0
   37.0500   24.9800   31.8180 C   0  0  0  0  0  0  0  0  0  0  0  0
   35.7810   25.1230   31.1860 C   0  0  0  0  0  0  0  0  0  0  0  0
   35.0880   23.9360   31.2750 C   0  0  0  0  0  0  0  0  0  0  0  0
   35.9390   23.1050   31.9500 C   0  0  0  0  0  0  0  0  0  0  0  0
   37.0230   23.7050   32.2440 O   0  0  0  0  0  0  0  0  0  0  0  0
   35.6790   21.7380   32.2990 N   0  0  0  0  0  0  0  0  0  0  0  0
   35.9860   21.0960   33.4400 C   0  0  0  0  0  0  0  0  0  0  0  0
   35.5460   19.7920   33.3340 C   0  0  0  0  0  0  0  0  0  0  0  0
   34.9660   19.6260   32.1270 N   0  0  0  0  0  0  0  0  0  0  0  0
   35.0630   20.8310   31.5180 C   0  0  0  0  0  0  0  0  0  0  0  0
   38.4090   26.2280   33.4390 C   0  0  0  0  0  0  0  0  0  0  0  0
   37.1700   26.1660   34.0760 F   0  0  0  0  0  0  0  0  0  0  0  0
   39.1260   25.1250   33.9240 F   0  0  0  0  0  0  0  0  0  0  0  0
   38.9880   27.4070   33.7170 F   0  0  0  0  0  0  0  0  0  0  0  0
   40.2659   26.3186   31.0984 H   0  0  0  0  0  0  0  0  0  0  0  0
   37.9285   28.2024   31.3968 H   0  0  0  0  0  0  0  0  0  0  0  0
   37.0750   27.4670   30.3419 H   0  0  0  0  0  0  0  0  0  0  0  0
   38.6988   23.6323   30.4304 H   0  0  0  0  0  0  0  0  0  0  0  0
   40.0134   23.7179   26.3980 H   0  0  0  0  0  0  0  0  0  0  0  0
   42.0502   30.0050   29.7740 H   0  0  0  0  0  0  0  0  0  0  0  0
   40.4160   31.4747   28.6566 H   0  0  0  0  0  0  0  0  0  0  0  0
   38.4314   30.4090   27.5008 H   0  0  0  0  0  0  0  0  0  0  0  0
   35.4120   26.0393   30.7020 H   0  0  0  0  0  0  0  0  0  0  0  0
   34.0823   23.7089   30.8917 H   0  0  0  0  0  0  0  0  0  0  0  0
   36.4994   21.5346   34.3084 H   0  0  0  0  0  0  0  0  0  0  0  0
   35.6509   19.0158   34.1064 H   0  0  0  0  0  0  0  0  0  0  0  0
   34.6843   21.0433   30.5073 H   0  0  0  0  0  0  0  0  0  0  0  0
  1  2  1  0
  1  3  1  0
  2  3  1  0
  3 26  1  1
  4 14  1  0
  4  5  1  0
  5  1  1  0
  6  5  2  0
  7  6  1  0
  8  9  1  0
  8  7  2  0
  9  4  2  0
 10 15  2  0
 11 10  1  0
 12 13  1  0
 12 11  2  0
 13 14  2  0
 14 15  1  0
 16  3  1  0
 16 20  1  0
 17 18  1  0
 17 16  2  0
 18 19  2  0
 19 20  1  0
 19 21  1  0
 21 22  1  0
 23 22  2  0
 24 23  1  0
 25 24  2  0
 25 21  1  0
 26 29  1  0
 26 28  1  0
 26 27  1  0
  1 30  1  1
  2 31  1  0
  2 32  1  0
  6 33  1  0
  8 34  1  0
 10 35  1  0
 11 36  1  0
 12 37  1  0
 17 38  1  0
 18 39  1  0
 22 40  1  0
 23 41  1  0
 25 42  1  0
M  ISO  8  30  13  31  13  32  13  33  14  34  14  35  14  36  14  37  14
M  ISO  5  38  14  39  14  40  14  41  14  42  14
M  END
>  <minimizedAffinity>  (1) 
-4.9617281

>  <minimizedRMSD>  (1) 
5.25399065

$$$$
