
     RDKit          3D

 33 36  0  0  0  0  0  0  0  0999 V2000
   37.4130   21.8820   35.1680 C   0  0  0  0  0  0  0  0  0  0  0  0
   36.2500   21.1260   35.2410 C   0  0  0  0  0  0  0  0  0  0  0  0
   35.7100   20.6490   34.0540 C   0  0  0  0  0  0  0  0  0  0  0  0
   36.3580   20.9530   32.8980 C   0  0  0  0  0  0  0  0  0  0  0  0
   37.4980   21.6930   32.8170 C   0  0  0  0  0  0  0  0  0  0  0  0
   37.9880   22.1350   33.9790 N   0  0  0  0  0  0  0  0  0  0  0  0
   38.0540   21.9240   31.5410 N   0  0  0  0  0  0  0  0  0  0  0  0
   38.4230   20.8980   30.7490 C   0  0  0  0  0  0  0  0  0  0  0  0
   38.9170   21.3900   29.6020 N   0  0  0  0  0  0  0  0  0  0  0  0
   38.8440   22.7370   29.7030 C   0  0  0  0  0  0  0  0  0  0  0  0
   39.1900   23.7790   28.8640 C   0  0  0  0  0  0  0  0  0  0  0  0
   39.6960   23.5210   27.7260 O   0  0  0  0  0  0  0  0  0  0  0  0
   39.0030   25.0670   29.2320 N   0  0  0  0  0  0  0  0  0  0  0  0
   38.4640   25.3410   30.4430 C   0  0  0  0  0  0  0  0  0  0  0  0
   38.2740   26.6990   30.8130 N   0  0  0  0  0  0  0  0  0  0  0  0
   38.1100   24.3590   31.2960 N   0  0  0  0  0  0  0  0  0  0  0  0
   38.3080   23.0970   30.9080 C   0  0  0  0  0  0  0  0  0  0  0  0
   39.9090   22.7520   37.6960 C   0  0  0  0  0  0  0  0  0  0  0  0
   39.1660   23.4680   38.6560 C   0  0  0  0  0  0  0  0  0  0  0  0
   37.7980   23.6340   38.4030 C   0  0  0  0  0  0  0  0  0  0  0  0
   37.3040   23.0890   37.2470 N   0  0  0  0  0  0  0  0  0  0  0  0
   38.0410   22.4180   36.3610 C   0  0  0  0  0  0  0  0  0  0  0  0
   39.3650   22.2410   36.5780 N   0  0  0  0  0  0  0  0  0  0  0  0
   35.7720   20.9120   36.2083 H   0  0  0  0  0  0  0  0  0  0  0  0
   34.7899   20.0461   34.0491 H   0  0  0  0  0  0  0  0  0  0  0  0
   35.9296   20.5730   31.9588 H   0  0  0  0  0  0  0  0  0  0  0  0
   38.3339   19.8311   31.0014 H   0  0  0  0  0  0  0  0  0  0  0  0
   39.2684   25.8327   28.5963 H   0  0  0  0  0  0  0  0  0  0  0  0
   37.8655   26.9307   31.7297 H   0  0  0  0  0  0  0  0  0  0  0  0
   38.5447   27.4521   30.1646 H   0  0  0  0  0  0  0  0  0  0  0  0
   40.9851   22.6043   37.8698 H   0  0  0  0  0  0  0  0  0  0  0  0
   39.6380   23.8773   39.5614 H   0  0  0  0  0  0  0  0  0  0  0  0
   37.1478   24.1790   39.1031 H   0  0  0  0  0  0  0  0  0  0  0  0
  1  2  2  0
  1 22  1  0
  3  2  1  0
  4  3  2  0
  5  4  1  0
  5  6  2  0
  6  1  1  0
  7  5  1  0
  8  7  1  0
  9 10  1  0
  9  8  2  0
 10 17  2  0
 11 13  1  0
 11 10  1  0
 12 11  2  0
 13 14  1  0
 14 15  1  0
 14 16  2  0
 17 16  1  0
 17  7  1  0
 18 19  2  0
 20 19  1  0
 21 20  2  0
 22 23  2  0
 22 21  1  0
 23 18  1  0
  2 24  1  0
  3 25  1  0
  4 26  1  0
  8 27  1  0
 13 28  1  0
 15 29  1  0
 15 30  1  0
 18 31  1  0
 19 32  1  0
 20 33  1  0
M  ISO  8  24  14  25  14  26  14  27  14  28   9  31  14  32  14  33  14
M  END
>  <minimizedAffinity>  (1) 
-5.53887939

>  <minimizedRMSD>  (1) 
1.0710758

$$$$
