
     RDKit          3D

 33 36  0  0  0  0  0  0  0  0999 V2000
   37.3020   21.6870   35.0740 C   0  0  0  0  0  0  0  0  0  0  0  0
   36.0830   21.0830   35.1660 C   0  0  0  0  0  0  0  0  0  0  0  0
   35.5550   20.5500   33.9890 C   0  0  0  0  0  0  0  0  0  0  0  0
   36.3010   20.6750   32.8370 C   0  0  0  0  0  0  0  0  0  0  0  0
   37.5210   21.2790   32.7320 C   0  0  0  0  0  0  0  0  0  0  0  0
   37.9180   21.7430   33.9000 N   0  0  0  0  0  0  0  0  0  0  0  0
   38.1090   21.2890   31.4250 C   0  0  0  0  0  0  0  0  0  0  0  0
   38.3240   20.1490   30.7450 N   0  0  0  0  0  0  0  0  0  0  0  0
   38.8660   20.0800   29.5230 C   0  0  0  0  0  0  0  0  0  0  0  0
   39.2510   21.1830   28.8600 N   0  0  0  0  0  0  0  0  0  0  0  0
   39.0740   22.3910   29.4660 C   0  0  0  0  0  0  0  0  0  0  0  0
   39.4620   23.5340   28.7990 C   0  0  0  0  0  0  0  0  0  0  0  0
   39.2970   24.7720   29.3820 C   0  0  0  0  0  0  0  0  0  0  0  0
   38.7260   24.8010   30.6590 C   0  0  0  0  0  0  0  0  0  0  0  0
   38.3600   23.6240   31.2700 C   0  0  0  0  0  0  0  0  0  0  0  0
   38.5150   22.3950   30.7110 C   0  0  0  0  0  0  0  0  0  0  0  0
   39.8440   22.7600   37.4970 C   0  0  0  0  0  0  0  0  0  0  0  0
   39.0920   23.4440   38.4720 C   0  0  0  0  0  0  0  0  0  0  0  0
   37.7100   23.5210   38.2600 C   0  0  0  0  0  0  0  0  0  0  0  0
   37.2020   22.9310   37.1350 N   0  0  0  0  0  0  0  0  0  0  0  0
   37.9680   22.2840   36.2280 C   0  0  0  0  0  0  0  0  0  0  0  0
   39.3030   22.1910   36.3980 N   0  0  0  0  0  0  0  0  0  0  0  0
   35.5419   21.0189   36.1216 H   0  0  0  0  0  0  0  0  0  0  0  0
   34.5766   20.0472   33.9812 H   0  0  0  0  0  0  0  0  0  0  0  0
   35.8741   20.2488   31.9171 H   0  0  0  0  0  0  0  0  0  0  0  0
   38.9994   19.0958   29.0501 H   0  0  0  0  0  0  0  0  0  0  0  0
   39.9059   23.4572   27.7955 H   0  0  0  0  0  0  0  0  0  0  0  0
   39.6004   25.6953   28.8667 H   0  0  0  0  0  0  0  0  0  0  0  0
   38.5703   25.7613   31.1725 H   0  0  0  0  0  0  0  0  0  0  0  0
   37.9140   23.6812   32.2739 H   0  0  0  0  0  0  0  0  0  0  0  0
   40.9323   22.6851   37.6385 H   0  0  0  0  0  0  0  0  0  0  0  0
   39.5667   23.8952   39.3558 H   0  0  0  0  0  0  0  0  0  0  0  0
   37.0540   24.0392   38.9749 H   0  0  0  0  0  0  0  0  0  0  0  0
  1  2  2  0
  1 21  1  0
  3  2  1  0
  4  3  2  0
  5  4  1  0
  5  6  2  0
  6  1  1  0
  7  5  1  0
  8  7  2  0
  9  8  1  0
 10 11  1  0
 10  9  2  0
 11 16  2  0
 12 13  2  0
 12 11  1  0
 13 14  1  0
 14 15  2  0
 16 15  1  0
 16  7  1  0
 17 18  2  0
 19 18  1  0
 20 19  2  0
 21 22  2  0
 21 20  1  0
 22 17  1  0
  2 23  1  0
  3 24  1  0
  4 25  1  0
  9 26  1  0
 12 27  1  0
 13 28  1  0
 14 29  1  0
 15 30  1  0
 17 31  1  0
 18 32  1  0
 19 33  1  0
M  ISO  8  23  14  24  14  25  14  26  14  27  14  28  14  29  14  30  14
M  ISO  3  31  14  32  14  33  14
M  END
>  <minimizedAffinity>  (1) 
-4.9837141

>  <minimizedRMSD>  (1) 
1.25904918

$$$$
