
     RDKit          3D

 32 35  0  0  0  0  0  0  0  0999 V2000
   37.9560   22.9000   34.6670 C   0  0  0  0  0  0  0  0  0  0  0  0
   37.3090   21.7840   34.2060 C   0  0  0  0  0  0  0  0  0  0  0  0
   36.9530   21.7340   32.8700 C   0  0  0  0  0  0  0  0  0  0  0  0
   37.2700   22.8040   32.0930 C   0  0  0  0  0  0  0  0  0  0  0  0
   37.9060   23.9100   32.5300 C   0  0  0  0  0  0  0  0  0  0  0  0
   38.2450   23.9390   33.8380 N   0  0  0  0  0  0  0  0  0  0  0  0
   38.2220   25.0140   31.6830 N   0  0  0  0  0  0  0  0  0  0  0  0
   39.3120   25.1280   30.9080 C   0  0  0  0  0  0  0  0  0  0  0  0
   39.2360   26.3220   30.2630 N   0  0  0  0  0  0  0  0  0  0  0  0
   38.0830   26.9070   30.6750 C   0  0  0  0  0  0  0  0  0  0  0  0
   37.5470   28.1150   30.3230 C   0  0  0  0  0  0  0  0  0  0  0  0
   36.3750   28.4810   30.8740 N   0  0  0  0  0  0  0  0  0  0  0  0
   35.7170   27.7050   31.7530 C   0  0  0  0  0  0  0  0  0  0  0  0
   36.2490   26.4980   32.1070 N   0  0  0  0  0  0  0  0  0  0  0  0
   37.4150   26.0840   31.5880 C   0  0  0  0  0  0  0  0  0  0  0  0
   39.9390   22.7240   37.7480 C   0  0  0  0  0  0  0  0  0  0  0  0
   39.0910   23.2980   38.7090 C   0  0  0  0  0  0  0  0  0  0  0  0
   37.8370   23.7380   38.2680 C   0  0  0  0  0  0  0  0  0  0  0  0
   37.5170   23.5840   36.9310 N   0  0  0  0  0  0  0  0  0  0  0  0
   38.3650   23.0300   36.0650 C   0  0  0  0  0  0  0  0  0  0  0  0
   39.5870   22.5950   36.4690 N   0  0  0  0  0  0  0  0  0  0  0  0
   38.2250   28.9450   29.4010 N   0  0  0  0  0  0  0  0  0  0  0  0
   37.0780   20.9475   34.8820 H   0  0  0  0  0  0  0  0  0  0  0  0
   36.4323   20.8602   32.4514 H   0  0  0  0  0  0  0  0  0  0  0  0
   36.9871   22.7646   31.0307 H   0  0  0  0  0  0  0  0  0  0  0  0
   40.1208   24.3886   30.8122 H   0  0  0  0  0  0  0  0  0  0  0  0
   34.7607   28.0386   32.1823 H   0  0  0  0  0  0  0  0  0  0  0  0
   40.9309   22.3675   38.0626 H   0  0  0  0  0  0  0  0  0  0  0  0
   39.3980   23.3975   39.7606 H   0  0  0  0  0  0  0  0  0  0  0  0
   37.1229   24.1955   38.9685 H   0  0  0  0  0  0  0  0  0  0  0  0
   37.8228   29.8551   29.1348 H   0  0  0  0  0  0  0  0  0  0  0  0
   39.1212   28.6396   28.9955 H   0  0  0  0  0  0  0  0  0  0  0  0
  1 20  1  0
  2  1  2  0
  3  2  1  0
  4  5  1  0
  4  3  2  0
  5  6  2  0
  6  1  1  0
  7  5  1  0
  8  7  1  0
  9 10  1  0
  9  8  2  0
 10 15  2  0
 11 10  1  0
 11 12  2  0
 12 13  1  0
 13 14  2  0
 15  7  1  0
 15 14  1  0
 16 17  2  0
 18 17  1  0
 19 18  2  0
 20 21  2  0
 20 19  1  0
 21 16  1  0
 22 11  1  0
  2 23  1  0
  3 24  1  0
  4 25  1  0
  8 26  1  0
 13 27  1  0
 16 28  1  0
 17 29  1  0
 18 30  1  0
 22 31  1  0
 22 32  1  0
M  ISO  8  23  14  24  14  25  14  26  14  27  14  28  14  29  14  30  14
M  END
>  <minimizedAffinity>  (1) 
-5.42741728

>  <minimizedRMSD>  (1) 
2.41566396

$$$$
