
     RDKit          3D

 34 36  0  0  0  0  0  0  0  0999 V2000
   37.3380   21.9210   35.2030 C   0  0  0  0  0  0  0  0  0  0  0  0
   36.2460   21.0830   35.3110 C   0  0  0  0  0  0  0  0  0  0  0  0
   35.6640   20.6380   34.1230 C   0  0  0  0  0  0  0  0  0  0  0  0
   36.2180   21.0640   32.9470 C   0  0  0  0  0  0  0  0  0  0  0  0
   37.2840   21.8820   32.8430 C   0  0  0  0  0  0  0  0  0  0  0  0
   37.8370   22.3040   33.9930 N   0  0  0  0  0  0  0  0  0  0  0  0
   37.8370   22.3080   31.6230 N   0  0  0  0  0  0  0  0  0  0  0  0
   37.2360   23.3040   30.7730 C   0  0  0  0  0  0  0  0  0  0  0  0
   38.2840   24.1960   30.1160 C   0  0  0  0  0  0  0  0  0  0  0  0
   39.1740   23.3580   29.2140 C   0  0  0  0  0  0  0  0  0  0  0  0
   39.1350   21.8970   29.6030 C   0  0  0  0  0  0  0  0  0  0  0  0
   39.0780   21.7630   31.1190 C   0  0  0  0  0  0  0  0  0  0  0  0
   39.9260   22.7420   37.6680 C   0  0  0  0  0  0  0  0  0  0  0  0
   39.2100   23.4570   38.6580 C   0  0  0  0  0  0  0  0  0  0  0  0
   37.8360   23.6360   38.4420 C   0  0  0  0  0  0  0  0  0  0  0  0
   37.2910   23.1120   37.2980 N   0  0  0  0  0  0  0  0  0  0  0  0
   38.0170   22.4390   36.3880 C   0  0  0  0  0  0  0  0  0  0  0  0
   39.3290   22.2580   36.5780 N   0  0  0  0  0  0  0  0  0  0  0  0
   35.8514   20.7790   36.2918 H   0  0  0  0  0  0  0  0  0  0  0  0
   34.7911   19.9687   34.1320 H   0  0  0  0  0  0  0  0  0  0  0  0
   35.7571   20.7111   32.0126 H   0  0  0  0  0  0  0  0  0  0  0  0
   36.6560   22.7981   29.9871 H   0  0  0  0  0  0  0  0  0  0  0  0
   36.5888   23.9391   31.3958 H   0  0  0  0  0  0  0  0  0  0  0  0
   37.7821   24.9706   29.5176 H   0  0  0  0  0  0  0  0  0  0  0  0
   38.8981   24.6721   30.8946 H   0  0  0  0  0  0  0  0  0  0  0  0
   40.2089   23.7221   29.2941 H   0  0  0  0  0  0  0  0  0  0  0  0
   38.8061   23.4512   28.1815 H   0  0  0  0  0  0  0  0  0  0  0  0
   38.2440   21.4263   29.1619 H   0  0  0  0  0  0  0  0  0  0  0  0
   40.0427   21.3998   29.2304 H   0  0  0  0  0  0  0  0  0  0  0  0
   39.1453   20.6996   31.3924 H   0  0  0  0  0  0  0  0  0  0  0  0
   39.9188   22.3185   31.5599 H   0  0  0  0  0  0  0  0  0  0  0  0
   41.0059   22.5810   37.8016 H   0  0  0  0  0  0  0  0  0  0  0  0
   39.7082   23.8537   39.5549 H   0  0  0  0  0  0  0  0  0  0  0  0
   37.2143   24.1802   39.1682 H   0  0  0  0  0  0  0  0  0  0  0  0
  1  2  2  0
  1 17  1  0
  3  2  1  0
  4  3  2  0
  5  4  1  0
  5  6  2  0
  6  1  1  0
  7  5  1  0
  8  7  1  0
  9  8  1  0
 10 11  1  0
 10  9  1  0
 11 12  1  0
 12  7  1  0
 13 14  2  0
 15 14  1  0
 16 15  2  0
 17 18  2  0
 17 16  1  0
 18 13  1  0
  2 19  1  0
  3 20  1  0
  4 21  1  0
  8 22  1  0
  8 23  1  0
  9 24  1  0
  9 25  1  0
 10 26  1  0
 10 27  1  0
 11 28  1  0
 11 29  1  0
 12 30  1  0
 12 31  1  0
 13 32  1  0
 14 33  1  0
 15 34  1  0
M  ISO  8  19  14  20  14  21  14  22  13  23  13  24  13  25  13  26  13
M  ISO  8  27  13  28  13  29  13  30  13  31  13  32  14  33  14  34  14
M  END
>  <minimizedAffinity>  (1) 
-4.84408474

>  <minimizedRMSD>  (1) 
0.531859577

$$$$
