
     RDKit          3D

 31 33  0  0  0  0  0  0  0  0999 V2000
   37.2000   21.8580   35.0720 C   0  0  0  0  0  0  0  0  0  0  0  0
   36.1630   20.9510   35.2290 C   0  0  0  0  0  0  0  0  0  0  0  0
   35.5080   20.5150   34.0840 C   0  0  0  0  0  0  0  0  0  0  0  0
   35.9300   21.0080   32.8770 C   0  0  0  0  0  0  0  0  0  0  0  0
   36.9400   21.8900   32.7290 C   0  0  0  0  0  0  0  0  0  0  0  0
   37.5610   22.3020   33.8340 N   0  0  0  0  0  0  0  0  0  0  0  0
   37.3460   22.3780   31.4560 N   0  0  0  0  0  0  0  0  0  0  0  0
   37.0850   23.6890   30.8920 C   0  0  0  0  0  0  0  0  0  0  0  0
   38.3800   24.0150   30.1760 C   0  0  0  0  0  0  0  0  0  0  0  0
   39.0540   22.6900   29.8620 C   0  0  0  0  0  0  0  0  0  0  0  0
   38.1100   21.6640   30.4490 C   0  0  0  0  0  0  0  0  0  0  0  0
   39.9390   22.6680   37.3720 C   0  0  0  0  0  0  0  0  0  0  0  0
   39.2800   23.3660   38.4080 C   0  0  0  0  0  0  0  0  0  0  0  0
   37.8950   23.5420   38.2860 C   0  0  0  0  0  0  0  0  0  0  0  0
   37.2820   23.0240   37.1730 N   0  0  0  0  0  0  0  0  0  0  0  0
   37.9420   22.3690   36.2140 C   0  0  0  0  0  0  0  0  0  0  0  0
   39.2750   22.1880   36.3090 N   0  0  0  0  0  0  0  0  0  0  0  0
   35.8692   20.5893   36.2254 H   0  0  0  0  0  0  0  0  0  0  0  0
   34.6770   19.7968   34.1444 H   0  0  0  0  0  0  0  0  0  0  0  0
   35.4118   20.6623   31.9704 H   0  0  0  0  0  0  0  0  0  0  0  0
   36.2410   23.6555   30.1873 H   0  0  0  0  0  0  0  0  0  0  0  0
   36.8063   24.4386   31.6473 H   0  0  0  0  0  0  0  0  0  0  0  0
   38.1706   24.5631   29.2456 H   0  0  0  0  0  0  0  0  0  0  0  0
   39.0272   24.6487   30.8001 H   0  0  0  0  0  0  0  0  0  0  0  0
   39.1598   22.5506   28.7760 H   0  0  0  0  0  0  0  0  0  0  0  0
   40.0718   22.6197   30.2733 H   0  0  0  0  0  0  0  0  0  0  0  0
   37.4430   21.2644   29.6709 H   0  0  0  0  0  0  0  0  0  0  0  0
   38.6506   20.8064   30.8761 H   0  0  0  0  0  0  0  0  0  0  0  0
   41.0261   22.5136   37.4382 H   0  0  0  0  0  0  0  0  0  0  0  0
   39.8318   23.7559   39.2760 H   0  0  0  0  0  0  0  0  0  0  0  0
   37.3193   24.0768   39.0558 H   0  0  0  0  0  0  0  0  0  0  0  0
  1  2  2  0
  1 16  1  0
  3  2  1  0
  4  3  2  0
  5  4  1  0
  5  6  2  0
  6  1  1  0
  7  5  1  0
  8  7  1  0
  9  8  1  0
 10  9  1  0
 10 11  1  0
 11  7  1  0
 12 13  2  0
 14 13  1  0
 15 14  2  0
 16 17  2  0
 16 15  1  0
 17 12  1  0
  2 18  1  0
  3 19  1  0
  4 20  1  0
  8 21  1  0
  8 22  1  0
  9 23  1  0
  9 24  1  0
 10 25  1  0
 10 26  1  0
 11 27  1  0
 11 28  1  0
 12 29  1  0
 13 30  1  0
 14 31  1  0
M  ISO  8  18  14  19  14  20  14  21  13  22  13  23  13  24  13  25  13
M  ISO  6  26  13  27  13  28  13  29  14  30  14  31  14
M  END
>  <minimizedAffinity>  (1) 
-4.96929646

>  <minimizedRMSD>  (1) 
0.148395509

$$$$
