
     RDKit          3D

 32 34  0  0  0  0  0  0  0  0999 V2000
   37.3160   21.9100   35.0360 C   0  0  0  0  0  0  0  0  0  0  0  0
   36.2470   21.0530   35.1130 C   0  0  0  0  0  0  0  0  0  0  0  0
   35.6610   20.6390   33.9130 C   0  0  0  0  0  0  0  0  0  0  0  0
   36.2060   21.1260   32.7510 C   0  0  0  0  0  0  0  0  0  0  0  0
   37.2570   21.9690   32.6640 C   0  0  0  0  0  0  0  0  0  0  0  0
   37.7980   22.3480   33.8430 N   0  0  0  0  0  0  0  0  0  0  0  0
   37.8250   22.4760   31.4700 N   0  0  0  0  0  0  0  0  0  0  0  0
   37.3490   23.7300   30.8710 C   0  0  0  0  0  0  0  0  0  0  0  0
   38.6010   24.2860   30.1790 C   0  0  0  0  0  0  0  0  0  0  0  0
   38.8180   23.4230   29.1110 O   0  0  0  0  0  0  0  0  0  0  0  0
   39.2490   22.1800   29.4760 C   0  0  0  0  0  0  0  0  0  0  0  0
   38.8960   21.7240   30.8500 C   0  0  0  0  0  0  0  0  0  0  0  0
   39.8840   22.7090   37.5300 C   0  0  0  0  0  0  0  0  0  0  0  0
   39.1690   23.3680   38.5410 C   0  0  0  0  0  0  0  0  0  0  0  0
   37.7920   23.5230   38.3300 C   0  0  0  0  0  0  0  0  0  0  0  0
   37.2540   23.0270   37.1720 N   0  0  0  0  0  0  0  0  0  0  0  0
   37.9950   22.3990   36.2330 C   0  0  0  0  0  0  0  0  0  0  0  0
   39.3210   22.2340   36.4060 N   0  0  0  0  0  0  0  0  0  0  0  0
   35.8649   20.7043   36.0838 H   0  0  0  0  0  0  0  0  0  0  0  0
   34.8011   19.9532   33.9006 H   0  0  0  0  0  0  0  0  0  0  0  0
   35.7454   20.8004   31.8066 H   0  0  0  0  0  0  0  0  0  0  0  0
   36.5473   23.5396   30.1423 H   0  0  0  0  0  0  0  0  0  0  0  0
   36.9196   24.4243   31.6083 H   0  0  0  0  0  0  0  0  0  0  0  0
   38.4251   25.3113   29.8214 H   0  0  0  0  0  0  0  0  0  0  0  0
   39.4656   24.3398   30.8569 H   0  0  0  0  0  0  0  0  0  0  0  0
   38.8215   21.4574   28.7653 H   0  0  0  0  0  0  0  0  0  0  0  0
   40.3472   22.2413   29.4659 H   0  0  0  0  0  0  0  0  0  0  0  0
   38.5893   20.6691   30.7948 H   0  0  0  0  0  0  0  0  0  0  0  0
   39.7900   21.8770   31.4724 H   0  0  0  0  0  0  0  0  0  0  0  0
   40.9672   22.5733   37.6649 H   0  0  0  0  0  0  0  0  0  0  0  0
   39.6622   23.7428   39.4500 H   0  0  0  0  0  0  0  0  0  0  0  0
   37.1602   24.0295   39.0745 H   0  0  0  0  0  0  0  0  0  0  0  0
  1  2  2  0
  1 17  1  0
  3  2  1  0
  4  3  2  0
  5  4  1  0
  5  6  2  0
  6  1  1  0
  7  5  1  0
  8  7  1  0
  9  8  1  0
 10 11  1  0
 10  9  1  0
 11 12  1  0
 12  7  1  0
 13 14  2  0
 15 14  1  0
 16 15  2  0
 17 18  2  0
 17 16  1  0
 18 13  1  0
  2 19  1  0
  3 20  1  0
  4 21  1  0
  8 22  1  0
  8 23  1  0
  9 24  1  0
  9 25  1  0
 11 26  1  0
 11 27  1  0
 12 28  1  0
 12 29  1  0
 13 30  1  0
 14 31  1  0
 15 32  1  0
M  ISO  8  19  14  20  14  21  14  22  13  23  13  24  13  25  13  26  13
M  ISO  6  27  13  28  13  29  13  30  14  31  14  32  14
M  END
>  <minimizedAffinity>  (1) 
-4.83694267

>  <minimizedRMSD>  (1) 
0.40485999

$$$$
