
     RDKit          3D

 32 34  0  0  0  0  0  0  0  0999 V2000
   37.4110   21.9290   34.8430 C   0  0  0  0  0  0  0  0  0  0  0  0
   36.2990   21.0970   34.8730 C   0  0  0  0  0  0  0  0  0  0  0  0
   35.7540   20.7020   33.6520 C   0  0  0  0  0  0  0  0  0  0  0  0
   36.3590   21.1670   32.5160 C   0  0  0  0  0  0  0  0  0  0  0  0
   37.4380   21.9750   32.4790 C   0  0  0  0  0  0  0  0  0  0  0  0
   37.9460   22.3410   33.6650 N   0  0  0  0  0  0  0  0  0  0  0  0
   39.9310   22.6450   37.3980 C   0  0  0  0  0  0  0  0  0  0  0  0
   39.1790   23.2710   38.4240 C   0  0  0  0  0  0  0  0  0  0  0  0
   37.8060   23.4270   38.1940 C   0  0  0  0  0  0  0  0  0  0  0  0
   37.2920   22.9700   37.0100 N   0  0  0  0  0  0  0  0  0  0  0  0
   38.0380   22.3850   36.0700 C   0  0  0  0  0  0  0  0  0  0  0  0
   39.3580   22.2250   36.2690 N   0  0  0  0  0  0  0  0  0  0  0  0
   39.2420   23.4710   28.9380 C   0  0  0  0  0  0  0  0  0  0  0  0
   38.5830   24.3090   29.8090 C   0  0  0  0  0  0  0  0  0  0  0  0
   37.9960   23.8140   30.9640 C   0  0  0  0  0  0  0  0  0  0  0  0
   38.0670   22.4590   31.2550 C   0  0  0  0  0  0  0  0  0  0  0  0
   38.7230   21.6560   30.3760 C   0  0  0  0  0  0  0  0  0  0  0  0
   39.3250   22.1060   29.2110 C   0  0  0  0  0  0  0  0  0  0  0  0
   40.0160   24.0070   27.4490 S   0  0  0  0  0  0  0  0  0  0  0  0
   39.2710   23.3630   26.2930 O   0  0  0  0  0  0  0  0  0  0  0  0
   39.8340   25.4750   27.3460 O   0  0  0  0  0  0  0  0  0  0  0  0
   35.8640   20.7618   35.8261 H   0  0  0  0  0  0  0  0  0  0  0  0
   34.8740   20.0437   33.6038 H   0  0  0  0  0  0  0  0  0  0  0  0
   35.9292   20.8556   31.5525 H   0  0  0  0  0  0  0  0  0  0  0  0
   41.0129   22.5022   37.5363 H   0  0  0  0  0  0  0  0  0  0  0  0
   39.6508   23.6174   39.3554 H   0  0  0  0  0  0  0  0  0  0  0  0
   37.1582   23.9038   38.9444 H   0  0  0  0  0  0  0  0  0  0  0  0
   38.5212   25.3844   29.5862 H   0  0  0  0  0  0  0  0  0  0  0  0
   37.4734   24.4965   31.6504 H   0  0  0  0  0  0  0  0  0  0  0  0
   38.7798   20.5813   30.6034 H   0  0  0  0  0  0  0  0  0  0  0  0
   39.8459   21.4158   28.5311 H   0  0  0  0  0  0  0  0  0  0  0  0
   41.3454   23.6765   27.4307 H   0  0  0  0  0  0  0  0  0  0  0  0
  1  2  2  0
  1 11  1  0
  3  2  1  0
  4  3  2  0
  5  4  1  0
  5  6  2  0
  6  1  1  0
  7  8  2  0
  9  8  1  0
 10  9  2  0
 11 12  2  0
 11 10  1  0
 12  7  1  0
 13 18  2  0
 13 14  1  0
 14 15  2  0
 15 16  1  0
 16  5  1  0
 17 16  2  0
 18 17  1  0
 19 13  1  0
 20 19  2  0
 21 19  2  0
  2 22  1  0
  3 23  1  0
  4 24  1  0
  7 25  1  0
  8 26  1  0
  9 27  1  0
 14 28  1  0
 15 29  1  0
 17 30  1  0
 18 31  1  0
 19 32  1  0
M  ISO  8  22  14  23  14  24  14  25  14  26  14  27  14  28  14  29  14
M  ISO  3  30  14  31  14  32  11
M  END
>  <minimizedAffinity>  (1) 
-4.8584013

>  <minimizedRMSD>  (1) 
0.809503853

$$$$
