
     RDKit          3D

 32 34  0  0  0  0  0  0  0  0999 V2000
   37.1400   21.8780   34.8290 C   0  0  0  0  0  0  0  0  0  0  0  0
   36.2320   20.8360   34.9680 C   0  0  0  0  0  0  0  0  0  0  0  0
   35.4770   20.4530   33.8760 C   0  0  0  0  0  0  0  0  0  0  0  0
   35.6900   21.1500   32.7060 C   0  0  0  0  0  0  0  0  0  0  0  0
   36.5790   22.1750   32.5510 C   0  0  0  0  0  0  0  0  0  0  0  0
   37.2820   22.5020   33.6470 N   0  0  0  0  0  0  0  0  0  0  0  0
   40.0270   22.4870   36.9970 C   0  0  0  0  0  0  0  0  0  0  0  0
   39.4770   23.1700   38.0890 C   0  0  0  0  0  0  0  0  0  0  0  0
   38.0980   23.4070   38.0490 C   0  0  0  0  0  0  0  0  0  0  0  0
   37.3820   22.9630   36.9610 N   0  0  0  0  0  0  0  0  0  0  0  0
   37.9560   22.3180   35.9460 C   0  0  0  0  0  0  0  0  0  0  0  0
   39.2910   22.0710   35.9530 N   0  0  0  0  0  0  0  0  0  0  0  0
   36.7420   22.8770   31.2340 C   0  0  0  0  0  0  0  0  0  0  0  0
   35.5740   23.8050   30.9790 C   0  0  0  0  0  0  0  0  0  0  0  0
   36.0750   25.2090   31.2380 C   0  0  0  0  0  0  0  0  0  0  0  0
   37.5750   25.1430   31.2990 C   0  0  0  0  0  0  0  0  0  0  0  0
   37.9860   23.6970   31.1630 C   0  0  0  0  0  0  0  0  0  0  0  0
   36.1156   20.3229   35.9340 H   0  0  0  0  0  0  0  0  0  0  0  0
   34.7444   19.6348   33.9371 H   0  0  0  0  0  0  0  0  0  0  0  0
   35.0967   20.8573   31.8272 H   0  0  0  0  0  0  0  0  0  0  0  0
   41.1078   22.2824   36.9940 H   0  0  0  0  0  0  0  0  0  0  0  0
   40.0968   23.5030   38.9346 H   0  0  0  0  0  0  0  0  0  0  0  0
   37.5964   23.9379   38.8715 H   0  0  0  0  0  0  0  0  0  0  0  0
   36.7951   22.0808   30.4769 H   0  0  0  0  0  0  0  0  0  0  0  0
   35.2333   23.7094   29.9375 H   0  0  0  0  0  0  0  0  0  0  0  0
   34.7224   23.5604   31.6309 H   0  0  0  0  0  0  0  0  0  0  0  0
   35.7603   25.8775   30.4231 H   0  0  0  0  0  0  0  0  0  0  0  0
   35.6635   25.6023   32.1793 H   0  0  0  0  0  0  0  0  0  0  0  0
   38.0080   25.7327   30.4775 H   0  0  0  0  0  0  0  0  0  0  0  0
   37.9363   25.5541   32.2532 H   0  0  0  0  0  0  0  0  0  0  0  0
   38.6672   23.4202   31.9811 H   0  0  0  0  0  0  0  0  0  0  0  0
   38.5116   23.5280   30.2116 H   0  0  0  0  0  0  0  0  0  0  0  0
  1  2  2  0
  1 11  1  0
  3  2  1  0
  4  3  2  0
  5  4  1  0
  5  6  2  0
  6  1  1  0
  7  8  2  0
  9  8  1  0
 10  9  2  0
 11 12  2  0
 11 10  1  0
 12  7  1  0
 13  5  1  0
 14 13  1  0
 14 15  1  0
 15 16  1  0
 17 13  1  0
 17 16  1  0
  2 18  1  0
  3 19  1  0
  4 20  1  0
  7 21  1  0
  8 22  1  0
  9 23  1  0
 13 24  1  0
 14 25  1  0
 14 26  1  0
 15 27  1  0
 15 28  1  0
 16 29  1  0
 16 30  1  0
 17 31  1  0
 17 32  1  0
M  ISO  8  18  14  19  14  20  14  21  14  22  14  23  14  24  13  25  13
M  ISO  7  26  13  27  13  28  13  29  13  30  13  31  13  32  13
M  END
>  <minimizedAffinity>  (1) 
-4.95358562

>  <minimizedRMSD>  (1) 
1.24552047

$$$$
