
     RDKit          3D

 26 27  0  0  0  0  0  0  0  0999 V2000
   37.1340   21.8370   34.9120 C   0  0  0  0  0  0  0  0  0  0  0  0
   36.1440   20.8750   35.0720 C   0  0  0  0  0  0  0  0  0  0  0  0
   35.4900   20.4730   33.9000 C   0  0  0  0  0  0  0  0  0  0  0  0
   35.8570   21.0360   32.7170 C   0  0  0  0  0  0  0  0  0  0  0  0
   36.8210   21.9690   32.5770 C   0  0  0  0  0  0  0  0  0  0  0  0
   37.4590   22.3660   33.6970 N   0  0  0  0  0  0  0  0  0  0  0  0
   37.2290   22.5780   31.3550 N   0  0  0  0  0  0  0  0  0  0  0  0
   38.0200   23.7610   31.2720 C   0  0  0  0  0  0  0  0  0  0  0  0
   38.8910   23.8850   32.2410 N   0  0  0  0  0  0  0  0  0  0  0  0
   37.7320   24.6170   30.1470 N   0  0  0  0  0  0  0  0  0  0  0  0
   39.5130   24.7310   32.2500 H   0  0  0  0  0  0  0  0  0  0  0  0
   39.8800   22.6370   37.2040 C   0  0  0  0  0  0  0  0  0  0  0  0
   39.2500   23.2740   38.2790 C   0  0  0  0  0  0  0  0  0  0  0  0
   37.8610   23.4130   38.1780 C   0  0  0  0  0  0  0  0  0  0  0  0
   37.2120   22.9280   37.0600 N   0  0  0  0  0  0  0  0  0  0  0  0
   37.8900   22.3300   36.0730 C   0  0  0  0  0  0  0  0  0  0  0  0
   39.2380   22.1680   36.1160 N   0  0  0  0  0  0  0  0  0  0  0  0
   35.8899   20.4556   36.0567 H   0  0  0  0  0  0  0  0  0  0  0  0
   34.6935   19.7152   33.9357 H   0  0  0  0  0  0  0  0  0  0  0  0
   35.3297   20.7066   31.8096 H   0  0  0  0  0  0  0  0  0  0  0  0
   36.9329   22.1343   30.4739 H   0  0  0  0  0  0  0  0  0  0  0  0
   38.2607   25.4913   30.0165 H   0  0  0  0  0  0  0  0  0  0  0  0
   36.9977   24.3539   29.4743 H   0  0  0  0  0  0  0  0  0  0  0  0
   40.9718   22.5107   37.2502 H   0  0  0  0  0  0  0  0  0  0  0  0
   39.8119   23.6428   39.1498 H   0  0  0  0  0  0  0  0  0  0  0  0
   37.2920   23.9038   38.9814 H   0  0  0  0  0  0  0  0  0  0  0  0
  1  2  2  0
  1 16  1  0
  3  2  1  0
  4  3  2  0
  5  4  1  0
  5  6  2  0
  6  1  1  0
  7  5  1  0
  8  7  1  0
  8  9  2  0
  9 11  1  0
 10  8  1  0
 12 13  2  0
 14 13  1  0
 15 14  2  0
 16 17  2  0
 16 15  1  0
 17 12  1  0
  2 18  1  0
  3 19  1  0
  4 20  1  0
  7 21  1  0
 10 22  1  0
 10 23  1  0
 12 24  1  0
 13 25  1  0
 14 26  1  0
M  ISO  6  18  14  19  14  20  14  24  14  25  14  26  14
M  END
>  <minimizedAffinity>  (1) 
-4.85418415

>  <minimizedRMSD>  (1) 
0.10517855

$$$$
