
     RDKit          3D

 28 29  0  0  0  0  0  0  0  0999 V2000
   37.5610   21.6330   34.8050 C   0  0  0  0  0  0  0  0  0  0  0  0
   37.5750   22.0550   33.4530 C   0  0  0  0  0  0  0  0  0  0  0  0
   37.9210   23.3770   33.2230 C   0  0  0  0  0  0  0  0  0  0  0  0
   38.2190   24.1820   34.2670 N   0  0  0  0  0  0  0  0  0  0  0  0
   38.2010   23.7650   35.5330 C   0  0  0  0  0  0  0  0  0  0  0  0
   37.8700   22.4790   35.8180 N   0  0  0  0  0  0  0  0  0  0  0  0
   38.5070   24.5720   36.6650 N   0  0  0  0  0  0  0  0  0  0  0  0
   38.4440   23.9740   37.9530 C   0  0  0  0  0  0  0  0  0  0  0  0
   38.8700   22.7800   38.1760 N   0  0  0  0  0  0  0  0  0  0  0  0
   37.8940   24.7010   39.0750 N   0  0  0  0  0  0  0  0  0  0  0  0
   39.2750   22.2070   37.4280 H   0  0  0  0  0  0  0  0  0  0  0  0
   37.2390   21.0910   32.5020 N   0  0  0  0  0  0  0  0  0  0  0  0
   38.2340   20.3080   32.0480 C   0  0  0  0  0  0  0  0  0  0  0  0
   37.9240   19.3540   31.1130 C   0  0  0  0  0  0  0  0  0  0  0  0
   36.6270   19.2530   30.6950 C   0  0  0  0  0  0  0  0  0  0  0  0
   36.2510   18.2900   29.7360 N   0  0  0  0  0  0  0  0  0  0  0  0
   35.6580   20.0570   31.1740 N   0  0  0  0  0  0  0  0  0  0  0  0
   35.9540   21.0010   32.0980 C   0  0  0  0  0  0  0  0  0  0  0  0
   35.0270   21.7420   32.5310 O   0  0  0  0  0  0  0  0  0  0  0  0
   37.2925   20.5922   35.0389 H   0  0  0  0  0  0  0  0  0  0  0  0
   37.9530   23.7693   32.1958 H   0  0  0  0  0  0  0  0  0  0  0  0
   38.7670   25.5624   36.5538 H   0  0  0  0  0  0  0  0  0  0  0  0
   37.8526   24.2592   40.0045 H   0  0  0  0  0  0  0  0  0  0  0  0
   37.5435   25.6608   38.9449 H   0  0  0  0  0  0  0  0  0  0  0  0
   39.2638   20.4291   32.4151 H   0  0  0  0  0  0  0  0  0  0  0  0
   38.7000   18.6868   30.7096 H   0  0  0  0  0  0  0  0  0  0  0  0
   35.2699   18.2243   29.4294 H   0  0  0  0  0  0  0  0  0  0  0  0
   36.9575   17.6523   29.3421 H   0  0  0  0  0  0  0  0  0  0  0  0
  1  6  2  0
  2  1  1  0
  3  2  2  0
  3  4  1  0
  4  5  2  0
  5  6  1  0
  5  7  1  0
  7  8  1  0
  8  9  2  0
  8 10  1  0
 11  9  1  0
 12  2  1  0
 13 12  1  0
 14 13  2  0
 15 14  1  0
 15 17  2  0
 16 15  1  0
 17 18  1  0
 18 12  1  0
 18 19  2  0
  1 20  1  0
  3 21  1  0
  7 22  1  0
 10 23  1  0
 10 24  1  0
 13 25  1  0
 14 26  1  0
 16 27  1  0
 16 28  1  0
M  ISO  4  20  14  21  14  25  14  26  14
M  END
>  <minimizedAffinity>  (1) 
-4.9192009

>  <minimizedRMSD>  (1) 
3.21237612

$$$$
