
     RDKit          3D

 26 28  0  0  0  0  0  0  0  0999 V2000
   37.1110   21.8750   34.8900 C   0  0  0  0  0  0  0  0  0  0  0  0
   36.2050   20.8380   35.0030 C   0  0  0  0  0  0  0  0  0  0  0  0
   35.4770   20.4460   33.8910 C   0  0  0  0  0  0  0  0  0  0  0  0
   35.7140   21.1290   32.7360 C   0  0  0  0  0  0  0  0  0  0  0  0
   36.5970   22.1490   32.6030 C   0  0  0  0  0  0  0  0  0  0  0  0
   37.2860   22.5030   33.7070 N   0  0  0  0  0  0  0  0  0  0  0  0
   39.9400   22.5640   37.1100 C   0  0  0  0  0  0  0  0  0  0  0  0
   39.3310   23.2220   38.2040 C   0  0  0  0  0  0  0  0  0  0  0  0
   37.9430   23.4120   38.1440 C   0  0  0  0  0  0  0  0  0  0  0  0
   37.2620   22.9510   37.0370 N   0  0  0  0  0  0  0  0  0  0  0  0
   37.9010   22.3300   36.0210 C   0  0  0  0  0  0  0  0  0  0  0  0
   39.2290   22.1410   36.0650 N   0  0  0  0  0  0  0  0  0  0  0  0
   36.8510   22.8960   31.3310 C   0  0  0  0  0  0  0  0  0  0  0  0
   37.2680   24.3200   31.3910 C   0  0  0  0  0  0  0  0  0  0  0  0
   35.8520   23.9520   31.0300 C   0  0  0  0  0  0  0  0  0  0  0  0
   36.0628   20.3280   35.9672 H   0  0  0  0  0  0  0  0  0  0  0  0
   34.7455   19.6258   33.9382 H   0  0  0  0  0  0  0  0  0  0  0  0
   35.1453   20.8298   31.8432 H   0  0  0  0  0  0  0  0  0  0  0  0
   41.0272   22.3973   37.1219 H   0  0  0  0  0  0  0  0  0  0  0  0
   39.9209   23.5697   39.0649 H   0  0  0  0  0  0  0  0  0  0  0  0
   37.4091   23.9177   38.9620 H   0  0  0  0  0  0  0  0  0  0  0  0
   37.2715   22.0194   30.8165 H   0  0  0  0  0  0  0  0  0  0  0  0
   37.4852   24.7906   32.3613 H   0  0  0  0  0  0  0  0  0  0  0  0
   38.0617   24.9215   30.9239 H   0  0  0  0  0  0  0  0  0  0  0  0
   35.4913   24.0923   30.0003 H   0  0  0  0  0  0  0  0  0  0  0  0
   34.8551   24.2155   31.4131 H   0  0  0  0  0  0  0  0  0  0  0  0
  1  2  2  0
  1 11  1  0
  3  2  1  0
  4  3  2  0
  5  4  1  0
  5  6  2  0
  6  1  1  0
  7  8  2  0
  9  8  1  0
 10  9  2  0
 11 12  2  0
 11 10  1  0
 12  7  1  0
 13 14  1  0
 13  5  1  0
 15 13  1  0
 15 14  1  0
  2 16  1  0
  3 17  1  0
  4 18  1  0
  7 19  1  0
  8 20  1  0
  9 21  1  0
 13 22  1  0
 14 23  1  0
 14 24  1  0
 15 25  1  0
 15 26  1  0
M  ISO  8  16  14  17  14  18  14  19  14  20  14  21  14  22  13  23  13
M  ISO  3  24  13  25  13  26  13
M  END
>  <minimizedAffinity>  (1) 
-4.50697756

>  <minimizedRMSD>  (1) 
0.372579843

$$$$
