
     RDKit          3D

 29 31  0  0  0  0  0  0  0  0999 V2000
   37.3050   21.8250   35.0150 C   0  0  0  0  0  0  0  0  0  0  0  0
   36.1750   21.0510   35.0890 C   0  0  0  0  0  0  0  0  0  0  0  0
   35.6150   20.5850   33.8990 C   0  0  0  0  0  0  0  0  0  0  0  0
   36.2460   20.9410   32.7390 C   0  0  0  0  0  0  0  0  0  0  0  0
   37.3570   21.7000   32.6410 C   0  0  0  0  0  0  0  0  0  0  0  0
   37.8740   22.1360   33.8130 N   0  0  0  0  0  0  0  0  0  0  0  0
   39.8630   22.7290   37.4900 C   0  0  0  0  0  0  0  0  0  0  0  0
   39.1200   23.3720   38.4910 C   0  0  0  0  0  0  0  0  0  0  0  0
   37.7380   23.4790   38.2850 C   0  0  0  0  0  0  0  0  0  0  0  0
   37.2040   22.9570   37.1340 N   0  0  0  0  0  0  0  0  0  0  0  0
   37.9530   22.3510   36.2070 C   0  0  0  0  0  0  0  0  0  0  0  0
   39.2860   22.2360   36.3830 N   0  0  0  0  0  0  0  0  0  0  0  0
   38.0230   22.0750   31.3970 C   0  0  0  0  0  0  0  0  0  0  0  0
   37.9910   23.4120   31.0570 C   0  0  0  0  0  0  0  0  0  0  0  0
   38.5930   23.8880   29.8930 C   0  0  0  0  0  0  0  0  0  0  0  0
   39.2210   22.9440   29.1060 C   0  0  0  0  0  0  0  0  0  0  0  0
   39.2630   21.6040   29.4290 C   0  0  0  0  0  0  0  0  0  0  0  0
   38.6490   21.1630   30.6030 C   0  0  0  0  0  0  0  0  0  0  0  0
   35.7223   20.8042   36.0607 H   0  0  0  0  0  0  0  0  0  0  0  0
   34.7091   19.9610   33.8941 H   0  0  0  0  0  0  0  0  0  0  0  0
   35.8071   20.5747   31.7992 H   0  0  0  0  0  0  0  0  0  0  0  0
   40.9509   22.6257   37.6160 H   0  0  0  0  0  0  0  0  0  0  0  0
   39.5998   23.7736   39.3957 H   0  0  0  0  0  0  0  0  0  0  0  0
   37.0952   23.9708   39.0300 H   0  0  0  0  0  0  0  0  0  0  0  0
   37.4767   24.1213   31.7222 H   0  0  0  0  0  0  0  0  0  0  0  0
   38.5689   24.9528   29.6182 H   0  0  0  0  0  0  0  0  0  0  0  0
   39.7105   23.2758   28.1785 H   0  0  0  0  0  0  0  0  0  0  0  0
   39.7753   20.8893   28.7681 H   0  0  0  0  0  0  0  0  0  0  0  0
   38.6706   20.0990   30.8812 H   0  0  0  0  0  0  0  0  0  0  0  0
  1  2  2  0
  1 11  1  0
  3  2  1  0
  4  3  2  0
  5  4  1  0
  5  6  2  0
  6  1  1  0
  7  8  2  0
  9  8  1  0
 10  9  2  0
 11 12  2  0
 11 10  1  0
 12  7  1  0
 13  5  1  0
 14 13  2  0
 15 14  1  0
 16 17  1  0
 16 15  2  0
 17 18  2  0
 18 13  1  0
  2 19  1  0
  3 20  1  0
  4 21  1  0
  7 22  1  0
  8 23  1  0
  9 24  1  0
 14 25  1  0
 15 26  1  0
 16 27  1  0
 17 28  1  0
 18 29  1  0
M  ISO  8  19  14  20  14  21  14  22  14  23  14  24  14  25  14  26  14
M  ISO  3  27  14  28  14  29  14
M  END
>  <minimizedAffinity>  (1) 
-4.66639423

>  <minimizedRMSD>  (1) 
0.662342906

$$$$
