
     RDKit          3D

 26 28  0  0  0  0  0  0  0  0999 V2000
   37.3740   21.9100   34.9840 C   0  0  0  0  0  0  0  0  0  0  0  0
   36.2630   21.1110   35.0180 C   0  0  0  0  0  0  0  0  0  0  0  0
   35.6970   20.6800   33.8350 C   0  0  0  0  0  0  0  0  0  0  0  0
   36.3060   21.0930   32.6900 C   0  0  0  0  0  0  0  0  0  0  0  0
   37.4090   21.8840   32.6290 C   0  0  0  0  0  0  0  0  0  0  0  0
   37.9230   22.2780   33.8080 N   0  0  0  0  0  0  0  0  0  0  0  0
   39.9110   22.7110   37.5080 C   0  0  0  0  0  0  0  0  0  0  0  0
   39.1740   23.3390   38.5200 C   0  0  0  0  0  0  0  0  0  0  0  0
   37.7750   23.4800   38.3120 C   0  0  0  0  0  0  0  0  0  0  0  0
   37.2500   22.9930   37.1380 N   0  0  0  0  0  0  0  0  0  0  0  0
   38.0170   22.3980   36.2020 C   0  0  0  0  0  0  0  0  0  0  0  0
   39.3350   22.2620   36.3930 N   0  0  0  0  0  0  0  0  0  0  0  0
   38.0240   22.3000   31.4290 C   0  0  0  0  0  0  0  0  0  0  0  0
   38.8200   21.6320   30.5630 C   0  0  0  0  0  0  0  0  0  0  0  0
   39.3150   22.2410   29.4400 C   0  0  0  0  0  0  0  0  0  0  0  0
   38.9510   23.5740   29.2480 C   0  0  0  0  0  0  0  0  0  0  0  0
   37.8720   23.9710   30.7130 S   0  0  0  0  0  0  0  0  0  0  0  0
   35.8240   20.8142   35.9820 H   0  0  0  0  0  0  0  0  0  0  0  0
   34.8036   20.0385   33.8186 H   0  0  0  0  0  0  0  0  0  0  0  0
   35.8699   20.7594   31.7368 H   0  0  0  0  0  0  0  0  0  0  0  0
   40.9961   22.5847   37.6371 H   0  0  0  0  0  0  0  0  0  0  0  0
   39.6573   23.7075   39.4369 H   0  0  0  0  0  0  0  0  0  0  0  0
   37.1340   23.9623   39.0646 H   0  0  0  0  0  0  0  0  0  0  0  0
   39.0745   20.5809   30.7640 H   0  0  0  0  0  0  0  0  0  0  0  0
   39.9636   21.7083   28.7290 H   0  0  0  0  0  0  0  0  0  0  0  0
   39.2364   24.2392   28.4197 H   0  0  0  0  0  0  0  0  0  0  0  0
  1  2  2  0
  1 11  1  0
  3  2  1  0
  4  3  2  0
  5  4  1  0
  5  6  2  0
  6  1  1  0
  7  8  2  0
  9  8  1  0
 10  9  2  0
 11 12  2  0
 11 10  1  0
 12  7  1  0
 13  5  1  0
 14 13  2  0
 15 14  1  0
 16 15  2  0
 16 17  1  0
 17 13  1  0
  2 18  1  0
  3 19  1  0
  4 20  1  0
  7 21  1  0
  8 22  1  0
  9 23  1  0
 14 24  1  0
 15 25  1  0
 16 26  1  0
M  ISO  8  18  14  19  14  20  14  21  14  22  14  23  14  24  14  25  14
M  ISO  1  26  14
M  END
>  <minimizedAffinity>  (1) 
-4.43227386

>  <minimizedRMSD>  (1) 
0.572331846

$$$$
