
     RDKit          3D

 31 33  0  0  0  0  0  0  0  0999 V2000
   39.6730   23.6320   32.7650 C   0  0  0  0  0  0  0  0  0  0  0  0
   39.1830   24.8480   33.2810 C   0  0  0  0  0  0  0  0  0  0  0  0
   39.4670   25.1300   34.6080 C   0  0  0  0  0  0  0  0  0  0  0  0
   40.1840   24.2530   35.3460 N   0  0  0  0  0  0  0  0  0  0  0  0
   40.6420   23.0930   34.8230 C   0  0  0  0  0  0  0  0  0  0  0  0
   40.3890   22.7810   33.5390 N   0  0  0  0  0  0  0  0  0  0  0  0
   41.4020   22.1340   35.5540 N   0  0  0  0  0  0  0  0  0  0  0  0
   42.5140   21.6430   34.9350 C   0  0  0  0  0  0  0  0  0  0  0  0
   43.3200   20.7020   35.5700 C   0  0  0  0  0  0  0  0  0  0  0  0
   42.9760   20.2740   36.8340 C   0  0  0  0  0  0  0  0  0  0  0  0
   43.6950   19.4200   37.4280 O   0  0  0  0  0  0  0  0  0  0  0  0
   41.8630   20.7850   37.4200 N   0  0  0  0  0  0  0  0  0  0  0  0
   41.0910   21.6980   36.7890 C   0  0  0  0  0  0  0  0  0  0  0  0
   40.0490   22.1990   37.2940 O   0  0  0  0  0  0  0  0  0  0  0  0
   38.4500   25.6600   32.3920 N   0  0  0  0  0  0  0  0  0  0  0  0
   39.0870   26.7840   31.9700 C   0  0  0  0  0  0  0  0  0  0  0  0
   38.4170   27.6130   31.1020 C   0  0  0  0  0  0  0  0  0  0  0  0
   37.1460   27.2430   30.7200 C   0  0  0  0  0  0  0  0  0  0  0  0
   36.4220   28.0570   29.8340 N   0  0  0  0  0  0  0  0  0  0  0  0
   36.5660   26.1110   31.1760 N   0  0  0  0  0  0  0  0  0  0  0  0
   37.2250   25.3030   32.0260 C   0  0  0  0  0  0  0  0  0  0  0  0
   36.6620   24.2600   32.4310 O   0  0  0  0  0  0  0  0  0  0  0  0
   39.4709   23.3691   31.7162 H   0  0  0  0  0  0  0  0  0  0  0  0
   39.1093   26.0667   35.0604 H   0  0  0  0  0  0  0  0  0  0  0  0
   42.7761   21.9934   33.9258 H   0  0  0  0  0  0  0  0  0  0  0  0
   44.2169   20.3065   35.0709 H   0  0  0  0  0  0  0  0  0  0  0  0
   41.6013   20.4705   38.3652 H   0  0  0  0  0  0  0  0  0  0  0  0
   40.1050   27.0224   32.3117 H   0  0  0  0  0  0  0  0  0  0  0  0
   38.8787   28.5380   30.7261 H   0  0  0  0  0  0  0  0  0  0  0  0
   35.4714   27.7854   29.5450 H   0  0  0  0  0  0  0  0  0  0  0  0
   36.8415   28.9257   29.4731 H   0  0  0  0  0  0  0  0  0  0  0  0
  1  2  2  0
  1  6  1  0
  2  3  1  0
  3  4  2  0
  5  4  1  0
  5  7  1  0
  6  5  2  0
  7 13  1  0
  8  7  1  0
  8  9  2  0
  9 10  1  0
 10 12  1  0
 10 11  2  0
 13 14  2  0
 13 12  1  0
 15  2  1  0
 16 15  1  0
 17 16  2  0
 18 17  1  0
 18 20  2  0
 19 18  1  0
 20 21  1  0
 21 15  1  0
 21 22  2  0
  1 23  1  0
  3 24  1  0
  8 25  1  0
  9 26  1  0
 12 27  1  0
 16 28  1  0
 17 29  1  0
 19 30  1  0
 19 31  1  0
M  ISO  7  23  14  24  14  25  14  26  14  27   9  28  14  29  14
M  END
>  <minimizedAffinity>  (1) 
-4.89427328

>  <minimizedRMSD>  (1) 
5.60297489

$$$$
