
     RDKit          3D

 32 35  0  0  0  0  0  0  0  0999 V2000
   37.8430   26.2370   32.4320 C   0  0  0  0  0  0  0  0  0  0  0  0
   38.9320   26.2100   31.5330 C   0  0  0  0  0  0  0  0  0  0  0  0
   39.9870   25.3590   31.8290 C   0  0  0  0  0  0  0  0  0  0  0  0
   39.9120   24.6040   32.9610 N   0  0  0  0  0  0  0  0  0  0  0  0
   38.8620   24.6480   33.8000 C   0  0  0  0  0  0  0  0  0  0  0  0
   37.8130   25.4690   33.5430 N   0  0  0  0  0  0  0  0  0  0  0  0
   38.8350   23.8350   34.9740 N   0  0  0  0  0  0  0  0  0  0  0  0
   37.8190   23.2660   35.6490 C   0  0  0  0  0  0  0  0  0  0  0  0
   38.3240   22.5810   36.7140 N   0  0  0  0  0  0  0  0  0  0  0  0
   39.6740   22.7440   36.6740 C   0  0  0  0  0  0  0  0  0  0  0  0
   40.6650   22.2680   37.5090 C   0  0  0  0  0  0  0  0  0  0  0  0
   41.9460   22.5920   37.2300 N   0  0  0  0  0  0  0  0  0  0  0  0
   42.2790   23.3530   36.1770 C   0  0  0  0  0  0  0  0  0  0  0  0
   41.3090   23.8090   35.3740 N   0  0  0  0  0  0  0  0  0  0  0  0
   40.0010   23.5360   35.5780 C   0  0  0  0  0  0  0  0  0  0  0  0
   38.8460   27.0530   30.4150 N   0  0  0  0  0  0  0  0  0  0  0  0
   39.4740   26.6160   29.2860 C   0  0  0  0  0  0  0  0  0  0  0  0
   39.4100   27.4200   28.1690 C   0  0  0  0  0  0  0  0  0  0  0  0
   38.7290   28.5940   28.2560 C   0  0  0  0  0  0  0  0  0  0  0  0
   38.6250   29.4610   27.1530 N   0  0  0  0  0  0  0  0  0  0  0  0
   38.1210   28.9880   29.3970 N   0  0  0  0  0  0  0  0  0  0  0  0
   38.1800   28.2010   30.5000 C   0  0  0  0  0  0  0  0  0  0  0  0
   37.6100   28.5860   31.5400 O   0  0  0  0  0  0  0  0  0  0  0  0
   36.9937   26.9035   32.2212 H   0  0  0  0  0  0  0  0  0  0  0  0
   40.8626   25.2953   31.1662 H   0  0  0  0  0  0  0  0  0  0  0  0
   36.7540   23.3415   35.3843 H   0  0  0  0  0  0  0  0  0  0  0  0
   40.4177   21.6414   38.3786 H   0  0  0  0  0  0  0  0  0  0  0  0
   43.3322   23.5987   35.9761 H   0  0  0  0  0  0  0  0  0  0  0  0
   40.0120   25.6567   29.2679 H   0  0  0  0  0  0  0  0  0  0  0  0
   39.8977   27.1197   27.2299 H   0  0  0  0  0  0  0  0  0  0  0  0
   38.1045   30.3455   27.2405 H   0  0  0  0  0  0  0  0  0  0  0  0
   39.0694   29.2113   26.2580 H   0  0  0  0  0  0  0  0  0  0  0  0
  1  6  2  0
  2  3  2  0
  2  1  1  0
  3  4  1  0
  4  5  2  0
  5  7  1  0
  6  5  1  0
  7 15  1  0
  7  8  1  0
  8  9  2  0
 10  9  1  0
 10 11  2  0
 12 11  1  0
 13 12  2  0
 14 15  2  0
 14 13  1  0
 15 10  1  0
 16 22  1  0
 16  2  1  0
 17 16  1  0
 18 19  1  0
 18 17  2  0
 19 21  2  0
 20 19  1  0
 21 22  1  0
 22 23  2  0
  1 24  1  0
  3 25  1  0
  8 26  1  0
 11 27  1  0
 13 28  1  0
 17 29  1  0
 18 30  1  0
 20 31  1  0
 20 32  1  0
M  ISO  7  24  14  25  14  26  14  27  14  28  14  29  14  30  14
M  END
>  <minimizedAffinity>  (1) 
-4.66640902

>  <minimizedRMSD>  (1) 
6.30921793

$$$$
