
     RDKit          3D

 34 36  0  0  0  0  0  0  0  0999 V2000
   37.1390   21.8920   34.9580 C   0  0  0  0  0  0  0  0  0  0  0  0
   36.2640   20.8490   35.0300 C   0  0  0  0  0  0  0  0  0  0  0  0
   35.5530   20.5020   33.8930 C   0  0  0  0  0  0  0  0  0  0  0  0
   35.7830   21.2380   32.7690 C   0  0  0  0  0  0  0  0  0  0  0  0
   36.6590   22.2950   32.6660 C   0  0  0  0  0  0  0  0  0  0  0  0
   37.3180   22.5850   33.7940 N   0  0  0  0  0  0  0  0  0  0  0  0
   39.9410   22.5810   37.2270 C   0  0  0  0  0  0  0  0  0  0  0  0
   39.3280   23.2270   38.2950 C   0  0  0  0  0  0  0  0  0  0  0  0
   37.9220   23.4270   38.2270 C   0  0  0  0  0  0  0  0  0  0  0  0
   37.3050   22.9590   37.1070 N   0  0  0  0  0  0  0  0  0  0  0  0
   37.9380   22.3380   36.0960 C   0  0  0  0  0  0  0  0  0  0  0  0
   39.2590   22.1480   36.1550 N   0  0  0  0  0  0  0  0  0  0  0  0
   36.8570   23.0420   31.4260 C   0  0  0  0  0  0  0  0  0  0  0  0
   35.7940   24.0990   31.2090 C   0  0  0  0  0  0  0  0  0  0  0  0
   36.2440   25.4350   31.6560 C   0  0  0  0  0  0  0  0  0  0  0  0
   35.7410   26.5360   30.9530 C   0  0  0  0  0  0  0  0  0  0  0  0
   36.1300   27.8060   31.3310 C   0  0  0  0  0  0  0  0  0  0  0  0
   37.0030   28.0380   32.3850 C   0  0  0  0  0  0  0  0  0  0  0  0
   37.4690   26.9040   33.0430 C   0  0  0  0  0  0  0  0  0  0  0  0
   37.0880   25.6680   32.6730 N   0  0  0  0  0  0  0  0  0  0  0  0
   36.1257   20.2952   35.9703 H   0  0  0  0  0  0  0  0  0  0  0  0
   34.8344   19.6692   33.8970 H   0  0  0  0  0  0  0  0  0  0  0  0
   35.2194   20.9634   31.8652 H   0  0  0  0  0  0  0  0  0  0  0  0
   41.0283   22.4183   37.2621 H   0  0  0  0  0  0  0  0  0  0  0  0
   39.9106   23.5713   39.1622 H   0  0  0  0  0  0  0  0  0  0  0  0
   37.3656   23.9300   39.0316 H   0  0  0  0  0  0  0  0  0  0  0  0
   37.8405   23.5333   31.4635 H   0  0  0  0  0  0  0  0  0  0  0  0
   36.7930   22.3277   30.5919 H   0  0  0  0  0  0  0  0  0  0  0  0
   35.5527   24.1456   30.1368 H   0  0  0  0  0  0  0  0  0  0  0  0
   34.9110   23.8208   31.8030 H   0  0  0  0  0  0  0  0  0  0  0  0
   35.0465   26.3918   30.1123 H   0  0  0  0  0  0  0  0  0  0  0  0
   35.7324   28.6678   30.7749 H   0  0  0  0  0  0  0  0  0  0  0  0
   37.3068   29.0529   32.6810 H   0  0  0  0  0  0  0  0  0  0  0  0
   38.1658   27.0210   33.8861 H   0  0  0  0  0  0  0  0  0  0  0  0
  1  2  2  0
  1 11  1  0
  3  2  1  0
  4  3  2  0
  5  4  1  0
  5  6  2  0
  6  1  1  0
  7  8  2  0
  9  8  1  0
 10  9  2  0
 11 12  2  0
 11 10  1  0
 12  7  1  0
 13  5  1  0
 14 13  1  0
 14 15  1  0
 15 20  2  0
 16 17  2  0
 16 15  1  0
 17 18  1  0
 18 19  2  0
 20 19  1  0
  2 21  1  0
  3 22  1  0
  4 23  1  0
  7 24  1  0
  8 25  1  0
  9 26  1  0
 13 27  1  0
 13 28  1  0
 14 29  1  0
 14 30  1  0
 16 31  1  0
 17 32  1  0
 18 33  1  0
 19 34  1  0
M  ISO  8  21  14  22  14  23  14  24  14  25  14  26  14  27   8  28   8
M  ISO  6  29   8  30   8  31  14  32  14  33  14  34  14
M  END
>  <minimizedAffinity>  (1) 
-5.26389694

>  <minimizedRMSD>  (1) 
0.832486928

$$$$
