
     RDKit          3D

 36 38  0  0  0  0  0  0  0  0999 V2000
   37.2360   21.8990   35.1230 C   0  0  0  0  0  0  0  0  0  0  0  0
   36.2230   20.9890   35.2390 C   0  0  0  0  0  0  0  0  0  0  0  0
   35.5750   20.5620   34.0870 C   0  0  0  0  0  0  0  0  0  0  0  0
   36.0010   21.0880   32.9100 C   0  0  0  0  0  0  0  0  0  0  0  0
   37.0200   22.0070   32.7650 C   0  0  0  0  0  0  0  0  0  0  0  0
   37.6020   22.3760   33.9120 N   0  0  0  0  0  0  0  0  0  0  0  0
   39.9150   22.6900   37.4900 C   0  0  0  0  0  0  0  0  0  0  0  0
   39.2610   23.3930   38.4970 C   0  0  0  0  0  0  0  0  0  0  0  0
   37.8730   23.5880   38.3410 C   0  0  0  0  0  0  0  0  0  0  0  0
   37.2760   23.0760   37.2180 N   0  0  0  0  0  0  0  0  0  0  0  0
   37.9720   22.4020   36.2780 C   0  0  0  0  0  0  0  0  0  0  0  0
   39.2970   22.2030   36.4070 N   0  0  0  0  0  0  0  0  0  0  0  0
   37.4400   22.5430   31.4670 C   0  0  0  0  0  0  0  0  0  0  0  0
   36.4720   23.5130   30.8810 C   0  0  0  0  0  0  0  0  0  0  0  0
   36.6020   24.8640   31.3350 N   0  0  0  0  0  0  0  0  0  0  0  0
   37.6940   25.4040   31.9070 C   0  0  0  0  0  0  0  0  0  0  0  0
   37.7090   26.7050   32.3030 C   0  0  0  0  0  0  0  0  0  0  0  0
   36.6110   27.5260   32.1360 C   0  0  0  0  0  0  0  0  0  0  0  0
   36.5230   28.9070   32.5160 N   0  0  0  0  0  0  0  0  0  0  0  0
   35.5140   26.9700   31.5560 N   0  0  0  0  0  0  0  0  0  0  0  0
   35.5240   25.6630   31.1680 C   0  0  0  0  0  0  0  0  0  0  0  0
   34.4510   25.2670   30.6460 O   0  0  0  0  0  0  0  0  0  0  0  0
   35.9267   20.6023   36.2252 H   0  0  0  0  0  0  0  0  0  0  0  0
   34.7540   19.8309   34.1265 H   0  0  0  0  0  0  0  0  0  0  0  0
   35.4907   20.7533   31.9948 H   0  0  0  0  0  0  0  0  0  0  0  0
   40.9981   22.5256   37.5892 H   0  0  0  0  0  0  0  0  0  0  0  0
   39.8014   23.7787   39.3740 H   0  0  0  0  0  0  0  0  0  0  0  0
   37.2881   24.1335   39.0962 H   0  0  0  0  0  0  0  0  0  0  0  0
   38.4066   23.0517   31.5970 H   0  0  0  0  0  0  0  0  0  0  0  0
   37.5052   21.6925   30.7724 H   0  0  0  0  0  0  0  0  0  0  0  0
   35.4566   23.1690   31.1272 H   0  0  0  0  0  0  0  0  0  0  0  0
   36.6832   23.5356   29.8017 H   0  0  0  0  0  0  0  0  0  0  0  0
   38.5893   24.7827   32.0567 H   0  0  0  0  0  0  0  0  0  0  0  0
   38.6183   27.1136   32.7679 H   0  0  0  0  0  0  0  0  0  0  0  0
   35.6539   29.4333   32.3469 H   0  0  0  0  0  0  0  0  0  0  0  0
   37.3289   29.3719   32.9579 H   0  0  0  0  0  0  0  0  0  0  0  0
  1  2  2  0
  1 11  1  0
  3  2  1  0
  4  3  2  0
  5  4  1  0
  5  6  2  0
  6  1  1  0
  7  8  2  0
  9  8  1  0
 10  9  2  0
 11 12  2  0
 11 10  1  0
 12  7  1  0
 13  5  1  0
 14 15  1  0
 14 13  1  0
 15 16  1  0
 16 17  2  0
 18 17  1  0
 18 19  1  0
 20 18  2  0
 21 15  1  0
 21 20  1  0
 22 21  2  0
  2 23  1  0
  3 24  1  0
  4 25  1  0
  7 26  1  0
  8 27  1  0
  9 28  1  0
 13 29  1  0
 13 30  1  0
 14 31  1  0
 14 32  1  0
 16 33  1  0
 17 34  1  0
 19 35  1  0
 19 36  1  0
M  ISO  8  23  14  24  14  25  14  26  14  27  14  28  14  29   8  30   8
M  ISO  4  31   8  32   8  33  14  34  14
M  END
>  <minimizedAffinity>  (1) 
-5.5570159

>  <minimizedRMSD>  (1) 
0.870284855

$$$$
