
     RDKit          3D

 37 39  0  0  0  0  0  0  0  0999 V2000
   37.1320   21.8720   34.7870 C   0  0  0  0  0  0  0  0  0  0  0  0
   36.2290   20.8480   34.8800 C   0  0  0  0  0  0  0  0  0  0  0  0
   35.4940   20.5140   33.7560 C   0  0  0  0  0  0  0  0  0  0  0  0
   35.7240   21.2380   32.6210 C   0  0  0  0  0  0  0  0  0  0  0  0
   36.6220   22.2640   32.5050 C   0  0  0  0  0  0  0  0  0  0  0  0
   37.3080   22.5490   33.6180 N   0  0  0  0  0  0  0  0  0  0  0  0
   39.9920   22.4880   37.0000 C   0  0  0  0  0  0  0  0  0  0  0  0
   39.4120   23.1550   38.0960 C   0  0  0  0  0  0  0  0  0  0  0  0
   38.0140   23.3780   38.0380 C   0  0  0  0  0  0  0  0  0  0  0  0
   37.3280   22.9340   36.9330 N   0  0  0  0  0  0  0  0  0  0  0  0
   37.9520   22.2990   35.9140 C   0  0  0  0  0  0  0  0  0  0  0  0
   39.2700   22.0830   35.9570 N   0  0  0  0  0  0  0  0  0  0  0  0
   36.8430   23.0230   31.2600 C   0  0  0  0  0  0  0  0  0  0  0  0
   35.9290   24.2130   31.1360 C   0  0  0  0  0  0  0  0  0  0  0  0
   36.5800   25.4680   31.0890 N   0  0  0  0  0  0  0  0  0  0  0  0
   37.7950   25.5900   31.8110 C   0  0  0  0  0  0  0  0  0  0  0  0
   38.0270   27.0870   31.8540 C   0  0  0  0  0  0  0  0  0  0  0  0
   36.6230   27.5780   32.1700 C   0  0  0  0  0  0  0  0  0  0  0  0
   35.7640   26.5980   31.3760 C   0  0  0  0  0  0  0  0  0  0  0  0
   36.0907   20.3033   35.8256 H   0  0  0  0  0  0  0  0  0  0  0  0
   34.7552   19.6992   33.7759 H   0  0  0  0  0  0  0  0  0  0  0  0
   35.1396   20.9748   31.7270 H   0  0  0  0  0  0  0  0  0  0  0  0
   41.0750   22.2955   37.0055 H   0  0  0  0  0  0  0  0  0  0  0  0
   40.0143   23.4865   38.9547 H   0  0  0  0  0  0  0  0  0  0  0  0
   37.4909   23.8936   38.8568 H   0  0  0  0  0  0  0  0  0  0  0  0
   37.8847   23.3759   31.2430 H   0  0  0  0  0  0  0  0  0  0  0  0
   36.6283   22.3494   30.4172 H   0  0  0  0  0  0  0  0  0  0  0  0
   35.3436   24.0981   30.2118 H   0  0  0  0  0  0  0  0  0  0  0  0
   35.3127   24.2218   32.0471 H   0  0  0  0  0  0  0  0  0  0  0  0
   37.6933   25.1778   32.8258 H   0  0  0  0  0  0  0  0  0  0  0  0
   38.6272   25.0388   31.3489 H   0  0  0  0  0  0  0  0  0  0  0  0
   38.7412   27.3644   32.6433 H   0  0  0  0  0  0  0  0  0  0  0  0
   38.4638   27.5090   30.9368 H   0  0  0  0  0  0  0  0  0  0  0  0
   36.4099   27.5157   33.2474 H   0  0  0  0  0  0  0  0  0  0  0  0
   36.4509   28.6330   31.9105 H   0  0  0  0  0  0  0  0  0  0  0  0
   35.4239   27.0658   30.4404 H   0  0  0  0  0  0  0  0  0  0  0  0
   34.8726   26.3033   31.9493 H   0  0  0  0  0  0  0  0  0  0  0  0
  1  2  2  0
  1 11  1  0
  3  2  1  0
  4  3  2  0
  5  4  1  0
  5  6  2  0
  6  1  1  0
  7  8  2  0
  9  8  1  0
 10  9  2  0
 11 12  2  0
 11 10  1  0
 12  7  1  0
 13  5  1  0
 14 13  1  0
 15 14  1  0
 15 19  1  0
 15 16  1  0
 16 17  1  0
 17 18  1  0
 19 18  1  0
  2 20  1  0
  3 21  1  0
  4 22  1  0
  7 23  1  0
  8 24  1  0
  9 25  1  0
 13 26  1  0
 13 27  1  0
 14 28  1  0
 14 29  1  0
 16 30  1  0
 16 31  1  0
 17 32  1  0
 17 33  1  0
 18 34  1  0
 18 35  1  0
 19 36  1  0
 19 37  1  0
M  ISO  8  20  14  21  14  22  14  23  14  24  14  25  14  26   8  27   8
M  ISO  8  28   8  29   8  30  13  31  13  32  13  33  13  34  13  35  13
M  ISO  2  36  13  37  13
M  END
>  <minimizedAffinity>  (1) 
-4.91202974

>  <minimizedRMSD>  (1) 
1.42179799

$$$$
