
     RDKit          3D

 32 33  0  0  0  0  0  0  0  0999 V2000
   37.1570   21.8560   35.0490 C   0  0  0  0  0  0  0  0  0  0  0  0
   36.2060   20.8800   35.2150 C   0  0  0  0  0  0  0  0  0  0  0  0
   35.4960   20.4730   34.1000 C   0  0  0  0  0  0  0  0  0  0  0  0
   35.7880   21.0680   32.9160 C   0  0  0  0  0  0  0  0  0  0  0  0
   36.7340   22.0470   32.7250 C   0  0  0  0  0  0  0  0  0  0  0  0
   37.3990   22.4120   33.8310 N   0  0  0  0  0  0  0  0  0  0  0  0
   39.9610   22.6360   37.2750 C   0  0  0  0  0  0  0  0  0  0  0  0
   39.3590   23.3210   38.3360 C   0  0  0  0  0  0  0  0  0  0  0  0
   37.9600   23.5050   38.2600 C   0  0  0  0  0  0  0  0  0  0  0  0
   37.3010   23.0060   37.1660 N   0  0  0  0  0  0  0  0  0  0  0  0
   37.9580   22.3500   36.1740 C   0  0  0  0  0  0  0  0  0  0  0  0
   39.2830   22.1630   36.2220 N   0  0  0  0  0  0  0  0  0  0  0  0
   37.0210   22.6640   31.4340 C   0  0  0  0  0  0  0  0  0  0  0  0
   36.0050   23.7240   31.0600 C   0  0  0  0  0  0  0  0  0  0  0  0
   36.7920   24.8230   30.4800 N   0  0  0  0  0  0  0  0  0  0  0  0
   36.6530   26.1100   31.0690 C   0  0  0  0  0  0  0  0  0  0  0  0
   36.4190   26.2580   32.3100 N   0  0  0  0  0  0  0  0  0  0  0  0
   36.7750   27.3080   30.2730 N   0  0  0  0  0  0  0  0  0  0  0  0
   36.3160   25.4630   32.9570 H   0  0  0  0  0  0  0  0  0  0  0  0
   36.0148   20.4359   36.2030 H   0  0  0  0  0  0  0  0  0  0  0  0
   34.7220   19.6945   34.1706 H   0  0  0  0  0  0  0  0  0  0  0  0
   35.2193   20.7389   32.0338 H   0  0  0  0  0  0  0  0  0  0  0  0
   41.0491   22.4777   37.3077 H   0  0  0  0  0  0  0  0  0  0  0  0
   39.9455   23.6976   39.1870 H   0  0  0  0  0  0  0  0  0  0  0  0
   37.4150   24.0336   39.0560 H   0  0  0  0  0  0  0  0  0  0  0  0
   38.0166   23.1296   31.4789 H   0  0  0  0  0  0  0  0  0  0  0  0
   36.9783   21.8748   30.6690 H   0  0  0  0  0  0  0  0  0  0  0  0
   35.2900   23.3302   30.3226 H   0  0  0  0  0  0  0  0  0  0  0  0
   35.4152   24.0535   31.9281 H   0  0  0  0  0  0  0  0  0  0  0  0
   37.4195   24.6665   29.6783 H   0  0  0  0  0  0  0  0  0  0  0  0
   36.6716   28.2327   30.7149 H   0  0  0  0  0  0  0  0  0  0  0  0
   36.9654   27.2382   29.2632 H   0  0  0  0  0  0  0  0  0  0  0  0
  1  2  2  0
  1 11  1  0
  3  2  1  0
  4  3  2  0
  5  4  1  0
  5  6  2  0
  6  1  1  0
  7  8  2  0
  9  8  1  0
 10  9  2  0
 11 12  2  0
 11 10  1  0
 12  7  1  0
 13  5  1  0
 14 13  1  0
 15 14  1  0
 15 16  1  0
 16 17  2  0
 17 19  1  0
 18 16  1  0
  2 20  1  0
  3 21  1  0
  4 22  1  0
  7 23  1  0
  8 24  1  0
  9 25  1  0
 13 26  1  0
 13 27  1  0
 14 28  1  0
 14 29  1  0
 15 30  1  0
 18 31  1  0
 18 32  1  0
M  ISO  8  20  14  21  14  22  14  23  14  24  14  25  14  26   8  27   8
M  ISO  2  28   8  29   8
M  END
>  <minimizedAffinity>  (1) 
-4.97854042

>  <minimizedRMSD>  (1) 
1.14987898

$$$$
