
     RDKit          3D

 26 27  0  0  0  0  0  0  0  0999 V2000
   37.1080   21.7950   34.7920 C   0  0  0  0  0  0  0  0  0  0  0  0
   36.1310   20.8600   34.9220 C   0  0  0  0  0  0  0  0  0  0  0  0
   35.4350   20.4660   33.7920 C   0  0  0  0  0  0  0  0  0  0  0  0
   35.7800   21.0480   32.6140 C   0  0  0  0  0  0  0  0  0  0  0  0
   36.7580   21.9910   32.4470 C   0  0  0  0  0  0  0  0  0  0  0  0
   37.4080   22.3440   33.5720 N   0  0  0  0  0  0  0  0  0  0  0  0
   39.8860   22.5920   37.0460 C   0  0  0  0  0  0  0  0  0  0  0  0
   39.2670   23.2380   38.1100 C   0  0  0  0  0  0  0  0  0  0  0  0
   37.8670   23.3980   38.0400 C   0  0  0  0  0  0  0  0  0  0  0  0
   37.2340   22.9020   36.9290 N   0  0  0  0  0  0  0  0  0  0  0  0
   37.9020   22.2800   35.9250 C   0  0  0  0  0  0  0  0  0  0  0  0
   39.2310   22.1160   35.9670 N   0  0  0  0  0  0  0  0  0  0  0  0
   37.1040   22.5990   31.1570 C   0  0  0  0  0  0  0  0  0  0  0  0
   36.6870   24.0480   31.0630 C   0  0  0  0  0  0  0  0  0  0  0  0
   35.3260   24.1960   30.9830 O   0  0  0  0  0  0  0  0  0  0  0  0
   35.8977   20.4249   35.9050 H   0  0  0  0  0  0  0  0  0  0  0  0
   34.6354   19.7125   33.8458 H   0  0  0  0  0  0  0  0  0  0  0  0
   35.2257   20.7345   31.7171 H   0  0  0  0  0  0  0  0  0  0  0  0
   40.9774   22.4609   37.0864 H   0  0  0  0  0  0  0  0  0  0  0  0
   39.8442   23.6087   38.9699 H   0  0  0  0  0  0  0  0  0  0  0  0
   37.3067   23.8995   38.8428 H   0  0  0  0  0  0  0  0  0  0  0  0
   38.1937   22.5371   31.0201 H   0  0  0  0  0  0  0  0  0  0  0  0
   36.5629   22.0469   30.3745 H   0  0  0  0  0  0  0  0  0  0  0  0
   37.0481   24.5782   31.9566 H   0  0  0  0  0  0  0  0  0  0  0  0
   37.1243   24.4640   30.1434 H   0  0  0  0  0  0  0  0  0  0  0  0
   34.9444   24.2375   31.8955 H   0  0  0  0  0  0  0  0  0  0  0  0
  1  2  2  0
  1 11  1  0
  3  2  1  0
  4  3  2  0
  5  4  1  0
  5  6  2  0
  6  1  1  0
  7  8  2  0
  9  8  1  0
 10  9  2  0
 11 12  2  0
 11 10  1  0
 12  7  1  0
 13  5  1  0
 14 13  1  0
 15 14  1  0
  2 16  1  0
  3 17  1  0
  4 18  1  0
  7 19  1  0
  8 20  1  0
  9 21  1  0
 13 22  1  0
 13 23  1  0
 14 24  1  0
 14 25  1  0
 15 26  1  0
M  ISO  8  16  14  17  14  18  14  19  14  20  14  21  14  22   8  23   8
M  ISO  3  24   8  25   8  26   3
M  END
>  <minimizedAffinity>  (1) 
-4.31588697

>  <minimizedRMSD>  (1) 
0.219032183

$$$$
