
     RDKit          3D

 26 27  0  0  0  0  0  0  0  0999 V2000
   37.1440   21.8270   34.8880 C   0  0  0  0  0  0  0  0  0  0  0  0
   36.1510   20.8850   35.0160 C   0  0  0  0  0  0  0  0  0  0  0  0
   35.4690   20.4710   33.8820 C   0  0  0  0  0  0  0  0  0  0  0  0
   35.8390   21.0350   32.7060 C   0  0  0  0  0  0  0  0  0  0  0  0
   36.8260   21.9780   32.5420 C   0  0  0  0  0  0  0  0  0  0  0  0
   37.4520   22.3420   33.6730 N   0  0  0  0  0  0  0  0  0  0  0  0
   39.8920   22.6250   37.1620 C   0  0  0  0  0  0  0  0  0  0  0  0
   39.2480   23.2680   38.2320 C   0  0  0  0  0  0  0  0  0  0  0  0
   37.8350   23.4180   38.1480 C   0  0  0  0  0  0  0  0  0  0  0  0
   37.2280   22.9210   37.0270 N   0  0  0  0  0  0  0  0  0  0  0  0
   37.9060   22.3130   36.0310 C   0  0  0  0  0  0  0  0  0  0  0  0
   39.2360   22.1630   36.0930 N   0  0  0  0  0  0  0  0  0  0  0  0
   37.1850   22.5540   31.2480 C   0  0  0  0  0  0  0  0  0  0  0  0
   36.5460   23.9070   31.0130 C   0  0  0  0  0  0  0  0  0  0  0  0
   37.9250   25.1130   30.9810 S   0  0  0  0  0  0  0  0  0  0  0  0
   35.9015   20.4664   36.0022 H   0  0  0  0  0  0  0  0  0  0  0  0
   34.6662   19.7208   33.9340 H   0  0  0  0  0  0  0  0  0  0  0  0
   35.3019   20.7093   31.8030 H   0  0  0  0  0  0  0  0  0  0  0  0
   40.9835   22.4961   37.2057 H   0  0  0  0  0  0  0  0  0  0  0  0
   39.8126   23.6404   39.0995 H   0  0  0  0  0  0  0  0  0  0  0  0
   37.2589   23.9097   38.9457 H   0  0  0  0  0  0  0  0  0  0  0  0
   38.2781   22.6688   31.2050 H   0  0  0  0  0  0  0  0  0  0  0  0
   36.8166   21.8724   30.4672 H   0  0  0  0  0  0  0  0  0  0  0  0
   36.0081   23.9149   30.0535 H   0  0  0  0  0  0  0  0  0  0  0  0
   35.8141   24.1503   31.7973 H   0  0  0  0  0  0  0  0  0  0  0  0
   38.2857   25.4284   32.2645 H   0  0  0  0  0  0  0  0  0  0  0  0
  1  2  2  0
  1 11  1  0
  3  2  1  0
  4  3  2  0
  5  4  1  0
  5  6  2  0
  6  1  1  0
  7  8  2  0
  9  8  1  0
 10  9  2  0
 11 12  2  0
 11 10  1  0
 12  7  1  0
 13  5  1  0
 14 13  1  0
 15 14  1  0
  2 16  1  0
  3 17  1  0
  4 18  1  0
  7 19  1  0
  8 20  1  0
  9 21  1  0
 13 22  1  0
 13 23  1  0
 14 24  1  0
 14 25  1  0
 15 26  1  0
M  ISO  8  16  14  17  14  18  14  19  14  20  14  21  14  22   8  23   8
M  ISO  3  24   8  25   8  26  11
M  END
>  <minimizedAffinity>  (1) 
-4.22776699

>  <minimizedRMSD>  (1) 
0.529474735

$$$$
