
     RDKit          3D

 28 30  0  0  0  0  0  0  0  0999 V2000
   36.5290   20.9200   34.0960 C   0  0  0  0  0  0  0  0  0  0  0  0
   37.5200   20.9190   33.0810 C   0  0  0  0  0  0  0  0  0  0  0  0
   38.6850   21.6270   33.3410 C   0  0  0  0  0  0  0  0  0  0  0  0
   38.8310   22.2800   34.5300 N   0  0  0  0  0  0  0  0  0  0  0  0
   37.8690   22.2560   35.4630 C   0  0  0  0  0  0  0  0  0  0  0  0
   36.7180   21.5860   35.2680 N   0  0  0  0  0  0  0  0  0  0  0  0
   37.2260   20.2050   31.9180 N   0  0  0  0  0  0  0  0  0  0  0  0
   37.7100   18.9400   31.8520 C   0  0  0  0  0  0  0  0  0  0  0  0
   37.4440   18.2050   30.7280 C   0  0  0  0  0  0  0  0  0  0  0  0
   36.7030   18.7940   29.7350 C   0  0  0  0  0  0  0  0  0  0  0  0
   36.3860   18.1080   28.5470 N   0  0  0  0  0  0  0  0  0  0  0  0
   36.2380   20.0630   29.8410 N   0  0  0  0  0  0  0  0  0  0  0  0
   36.5040   20.7830   30.9530 C   0  0  0  0  0  0  0  0  0  0  0  0
   36.0610   21.9590   31.0280 O   0  0  0  0  0  0  0  0  0  0  0  0
   38.0720   22.9700   36.7200 C   0  0  0  0  0  0  0  0  0  0  0  0
   37.5470   24.1650   37.1280 C   0  0  0  0  0  0  0  0  0  0  0  0
   37.9840   24.4700   38.3500 N   0  0  0  0  0  0  0  0  0  0  0  0
   38.8080   23.4740   38.7660 C   0  0  0  0  0  0  0  0  0  0  0  0
   38.8380   22.5820   37.7550 N   0  0  0  0  0  0  0  0  0  0  0  0
   35.5894   20.3718   33.9328 H   0  0  0  0  0  0  0  0  0  0  0  0
   39.4885   21.6616   32.5905 H   0  0  0  0  0  0  0  0  0  0  0  0
   38.2997   18.5163   32.6783 H   0  0  0  0  0  0  0  0  0  0  0  0
   37.8131   17.1740   30.6243 H   0  0  0  0  0  0  0  0  0  0  0  0
   36.7114   17.1406   28.4084 H   0  0  0  0  0  0  0  0  0  0  0  0
   35.8287   18.5735   27.8165 H   0  0  0  0  0  0  0  0  0  0  0  0
   36.8617   24.7862   36.5326 H   0  0  0  0  0  0  0  0  0  0  0  0
   39.3398   23.4085   39.7267 H   0  0  0  0  0  0  0  0  0  0  0  0
   39.3826   21.7079   37.7734 H   0  0  0  0  0  0  0  0  0  0  0  0
  1  6  2  0
  2  3  2  0
  2  1  1  0
  3  4  1  0
  4  5  2  0
  5 15  1  0
  6  5  1  0
  7  2  1  0
  8  7  1  0
  9  8  2  0
 10 12  2  0
 10  9  1  0
 11 10  1  0
 12 13  1  0
 13 14  2  0
 13  7  1  0
 15 16  2  0
 15 19  1  0
 16 17  1  0
 17 18  2  0
 19 18  1  0
  1 20  1  0
  3 21  1  0
  8 22  1  0
  9 23  1  0
 11 24  1  0
 11 25  1  0
 16 26  1  0
 18 27  1  0
 19 28  1  0
M  ISO  7  20  14  21  14  22  14  23  14  26  14  27  14  28   9
M  END
>  <minimizedAffinity>  (1) 
-4.51224852

>  <minimizedRMSD>  (1) 
3.77511215

$$$$
