
     RDKit          3D

 51 54  0  0  1  0  0  0  0  0999 V2000
   36.8540   23.9890   30.9280 C   0  0  0  0  0  0  0  0  0  0  0  0
   37.3370   22.2180   34.1700 C   0  0  0  0  0  0  0  0  0  0  0  0
   36.4330   21.2000   34.1150 C   0  0  0  0  0  0  0  0  0  0  0  0
   35.6360   21.0670   33.0020 C   0  0  0  0  0  0  0  0  0  0  0  0
   35.7980   21.9730   32.0090 C   0  0  0  0  0  0  0  0  0  0  0  0
   36.6910   23.0090   32.0190 C   0  0  0  0  0  0  0  0  0  0  0  0
   37.4230   23.0680   33.1280 N   0  0  0  0  0  0  0  0  0  0  0  0
   40.2110   22.2360   36.4110 C   0  0  0  0  0  0  0  0  0  0  0  0
   39.7750   22.9200   37.5380 C   0  0  0  0  0  0  0  0  0  0  0  0
   38.4470   23.3750   37.4850 C   0  0  0  0  0  0  0  0  0  0  0  0
   37.7010   23.1190   36.3630 N   0  0  0  0  0  0  0  0  0  0  0  0
   38.2140   22.4350   35.2990 C   0  0  0  0  0  0  0  0  0  0  0  0
   39.4730   21.9890   35.3160 N   0  0  0  0  0  0  0  0  0  0  0  0
   36.1450   25.2550   31.1550 C   0  0  0  0  0  0  0  0  0  0  0  0
   37.0690   26.4100   31.5330 C   0  0  1  0  0  0  0  0  0  0  0  0
   36.8210   27.5300   30.5710 C   0  0  0  0  0  0  0  0  0  0  0  0
   36.9960   28.7600   31.4300 C   0  0  0  0  0  0  0  0  0  0  0  0
   36.1940   28.3320   32.6340 C   0  0  0  0  0  0  0  0  0  0  0  0
   36.7080   26.8880   32.9000 C   0  0  2  0  0  0  0  0  0  0  0  0
   37.9250   27.1740   33.7670 C   0  0  0  0  0  0  0  0  0  0  0  0
   38.9460   26.0830   33.8190 C   0  0  0  0  0  0  0  0  0  0  0  0
   39.8000   26.5830   35.0000 C   0  0  0  0  0  0  0  0  0  0  0  0
   38.7920   27.1850   35.9620 C   0  0  0  0  0  0  0  0  0  0  0  0
   37.4720   27.2540   35.2110 C   0  0  0  0  0  0  0  0  0  0  0  0
   36.4724   23.5400   29.9991 H   0  0  0  0  0  0  0  0  0  0  0  0
   37.9260   24.2289   30.8715 H   0  0  0  0  0  0  0  0  0  0  0  0
   36.3416   20.4920   34.9519 H   0  0  0  0  0  0  0  0  0  0  0  0
   34.8964   20.2568   32.9218 H   0  0  0  0  0  0  0  0  0  0  0  0
   35.1583   21.8671   31.1204 H   0  0  0  0  0  0  0  0  0  0  0  0
   41.2468   21.8656   36.4152 H   0  0  0  0  0  0  0  0  0  0  0  0
   40.4230   23.0932   38.4098 H   0  0  0  0  0  0  0  0  0  0  0  0
   38.0121   23.9282   38.3305 H   0  0  0  0  0  0  0  0  0  0  0  0
   35.6096   25.5247   30.2327 H   0  0  0  0  0  0  0  0  0  0  0  0
   35.4616   25.0962   32.0022 H   0  0  0  0  0  0  0  0  0  0  0  0
   38.1200   26.0864   31.5063 H   0  0  0  0  0  0  0  0  0  0  0  0
   35.8030   27.4780   30.1575 H   0  0  0  0  0  0  0  0  0  0  0  0
   37.4925   27.5102   29.6999 H   0  0  0  0  0  0  0  0  0  0  0  0
   38.0518   28.9391   31.6816 H   0  0  0  0  0  0  0  0  0  0  0  0
   36.6800   29.7062   30.9665 H   0  0  0  0  0  0  0  0  0  0  0  0
   36.3925   28.9874   33.4949 H   0  0  0  0  0  0  0  0  0  0  0  0
   35.1072   28.3828   32.4719 H   0  0  0  0  0  0  0  0  0  0  0  0
   36.0483   26.1499   33.3795 H   0  0  0  0  0  0  0  0  0  0  0  0
   38.3621   28.0829   33.3280 H   0  0  0  0  0  0  0  0  0  0  0  0
   38.4894   25.1045   34.0291 H   0  0  0  0  0  0  0  0  0  0  0  0
   39.4979   25.9158   32.8823 H   0  0  0  0  0  0  0  0  0  0  0  0
   40.3391   25.7484   35.4721 H   0  0  0  0  0  0  0  0  0  0  0  0
   40.5674   27.3065   34.6876 H   0  0  0  0  0  0  0  0  0  0  0  0
   38.6899   26.5489   36.8536 H   0  0  0  0  0  0  0  0  0  0  0  0
   39.1104   28.1815   36.3021 H   0  0  0  0  0  0  0  0  0  0  0  0
   36.9464   28.1990   35.4130 H   0  0  0  0  0  0  0  0  0  0  0  0
   36.7586   26.4666   35.4958 H   0  0  0  0  0  0  0  0  0  0  0  0
  1 14  1  0
  1  6  1  0
  2 12  1  0
  3  2  2  0
  4  3  1  0
  5  6  1  0
  5  4  2  0
  6  7  2  0
  7  2  1  0
  8  9  2  0
 10  9  1  0
 11 10  2  0
 12 13  2  0
 12 11  1  0
 13  8  1  0
 14 15  1  0
 15 19  1  0
 16 17  1  0
 16 15  1  0
 17 18  1  0
 18 19  1  0
 19 20  1  0
 20 21  1  0
 20 24  1  0
 21 22  1  0
 22 23  1  0
 24 23  1  0
  1 25  1  0
  1 26  1  0
  3 27  1  0
  4 28  1  0
  5 29  1  0
  8 30  1  0
  9 31  1  0
 10 32  1  0
 14 33  1  0
 14 34  1  0
 15 35  1  1
 16 36  1  0
 16 37  1  0
 17 38  1  0
 17 39  1  0
 18 40  1  0
 18 41  1  0
 19 42  1  1
 20 43  1  0
 21 44  1  0
 21 45  1  0
 22 46  1  0
 22 47  1  0
 23 48  1  0
 23 49  1  0
 24 50  1  0
 24 51  1  0
M  ISO  8  25   8  26   8  27  14  28  14  29  14  30  14  31  14  32  14
M  ISO  8  33   8  34   8  35  13  36  13  37  13  38  13  39  13  40  13
M  ISO  8  41  13  42  13  43  13  44  13  45  13  46  13  47  13  48  13
M  ISO  3  49  13  50  13  51  13
M  END
>  <minimizedAffinity>  (1) 
-6.07547379

>  <minimizedRMSD>  (1) 
2.04084897

$$$$
