
     RDKit          3D

 52 56  0  0  1  0  0  0  0  0999 V2000
   35.8310   25.1920   31.1640 C   0  0  0  0  0  0  0  0  0  0  0  0
   36.7690   26.3270   31.4880 C   0  0  1  0  0  0  0  0  0  0  0  0
   36.4520   27.5050   30.6410 C   0  0  0  0  0  0  0  0  0  0  0  0
   36.6810   28.6980   31.5240 C   0  0  0  0  0  0  0  0  0  0  0  0
   36.1410   28.2110   32.8510 C   0  0  0  0  0  0  0  0  0  0  0  0
   36.5270   26.7410   32.9200 C   0  0  2  0  0  0  0  0  0  0  0  0
   37.7370   26.5470   33.7580 C   0  0  0  0  0  0  0  0  0  0  0  0
   37.5430   26.0950   35.0490 C   0  0  0  0  0  0  0  0  0  0  0  0
   38.7440   26.0140   35.6980 N   0  0  0  0  0  0  0  0  0  0  0  0
   39.7310   26.4060   34.8520 C   0  0  0  0  0  0  0  0  0  0  0  0
   41.1100   26.5470   34.8690 C   0  0  0  0  0  0  0  0  0  0  0  0
   41.8180   26.9840   33.7690 C   0  0  0  0  0  0  0  0  0  0  0  0
   41.1400   27.2890   32.6220 C   0  0  0  0  0  0  0  0  0  0  0  0
   39.7710   27.1590   32.5750 C   0  0  0  0  0  0  0  0  0  0  0  0
   39.1010   26.7210   33.6920 C   0  0  0  0  0  0  0  0  0  0  0  0
   36.5390   23.9160   30.8790 C   0  0  0  0  0  0  0  0  0  0  0  0
   37.2130   22.1670   34.0920 C   0  0  0  0  0  0  0  0  0  0  0  0
   36.3200   21.1310   34.0920 C   0  0  0  0  0  0  0  0  0  0  0  0
   35.4620   20.9870   33.0130 C   0  0  0  0  0  0  0  0  0  0  0  0
   35.5570   21.8930   32.0050 C   0  0  0  0  0  0  0  0  0  0  0  0
   36.4320   22.9360   31.9680 C   0  0  0  0  0  0  0  0  0  0  0  0
   37.2200   23.0050   33.0400 N   0  0  0  0  0  0  0  0  0  0  0  0
   40.2930   22.4240   36.0230 C   0  0  0  0  0  0  0  0  0  0  0  0
   39.8660   22.8550   37.2850 C   0  0  0  0  0  0  0  0  0  0  0  0
   38.4820   23.0480   37.4300 C   0  0  0  0  0  0  0  0  0  0  0  0
   37.6590   22.8100   36.3550 N   0  0  0  0  0  0  0  0  0  0  0  0
   38.1510   22.3970   35.1740 C   0  0  0  0  0  0  0  0  0  0  0  0
   39.4760   22.1960   34.9890 N   0  0  0  0  0  0  0  0  0  0  0  0
   35.1598   25.0364   32.0215 H   0  0  0  0  0  0  0  0  0  0  0  0
   35.2782   25.4715   30.2550 H   0  0  0  0  0  0  0  0  0  0  0  0
   37.8054   25.9997   31.3183 H   0  0  0  0  0  0  0  0  0  0  0  0
   37.1164   27.5402   29.7650 H   0  0  0  0  0  0  0  0  0  0  0  0
   35.4219   27.4697   30.2566 H   0  0  0  0  0  0  0  0  0  0  0  0
   37.7506   28.9451   31.5935 H   0  0  0  0  0  0  0  0  0  0  0  0
   36.2026   29.6192   31.1601 H   0  0  0  0  0  0  0  0  0  0  0  0
   36.5968   28.7695   33.6819 H   0  0  0  0  0  0  0  0  0  0  0  0
   35.0536   28.3560   32.9319 H   0  0  0  0  0  0  0  0  0  0  0  0
   35.7411   26.1295   33.3874 H   0  0  0  0  0  0  0  0  0  0  0  0
   36.5681   25.8386   35.4892 H   0  0  0  0  0  0  0  0  0  0  0  0
   38.8782   25.7054   36.6715 H   0  0  0  0  0  0  0  0  0  0  0  0
   41.6580   26.3021   35.7908 H   0  0  0  0  0  0  0  0  0  0  0  0
   42.9124   27.0856   33.8141 H   0  0  0  0  0  0  0  0  0  0  0  0
   41.6894   27.6388   31.7355 H   0  0  0  0  0  0  0  0  0  0  0  0
   39.2198   27.4026   31.6548 H   0  0  0  0  0  0  0  0  0  0  0  0
   36.1089   23.4740   29.9681 H   0  0  0  0  0  0  0  0  0  0  0  0
   37.6060   24.1552   30.7598 H   0  0  0  0  0  0  0  0  0  0  0  0
   36.2834   20.4241   34.9340 H   0  0  0  0  0  0  0  0  0  0  0  0
   34.7294   20.1674   32.9741 H   0  0  0  0  0  0  0  0  0  0  0  0
   34.8733   21.7748   31.1515 H   0  0  0  0  0  0  0  0  0  0  0  0
   41.3706   22.2624   35.8723 H   0  0  0  0  0  0  0  0  0  0  0  0
   40.5703   23.0315   38.1113 H   0  0  0  0  0  0  0  0  0  0  0  0
   38.0631   23.3847   38.3898 H   0  0  0  0  0  0  0  0  0  0  0  0
  1  2  1  0
  2  6  1  0
  3  2  1  0
  3  4  1  0
  4  5  1  0
  5  6  1  0
  6  7  1  0
  7  8  2  0
  8  9  1  0
 10 11  2  0
 10  9  1  0
 12 11  1  0
 13 12  2  0
 14 13  1  0
 14 15  2  0
 15  7  1  0
 15 10  1  0
 16  1  1  0
 16 21  1  0
 17 18  2  0
 17 27  1  0
 19 18  1  0
 20 19  2  0
 21 20  1  0
 21 22  2  0
 22 17  1  0
 23 24  2  0
 24 25  1  0
 26 25  2  0
 27 26  1  0
 28 27  2  0
 28 23  1  0
  1 29  1  0
  1 30  1  0
  2 31  1  1
  3 32  1  0
  3 33  1  0
  4 34  1  0
  4 35  1  0
  5 36  1  0
  5 37  1  0
  6 38  1  1
  8 39  1  0
  9 40  1  0
 11 41  1  0
 12 42  1  0
 13 43  1  0
 14 44  1  0
 16 45  1  0
 16 46  1  0
 18 47  1  0
 19 48  1  0
 20 49  1  0
 23 50  1  0
 24 51  1  0
 25 52  1  0
M  ISO  8  29   8  30   8  31  13  32  13  33  13  34  13  35  13  36  13
M  ISO  8  37  13  38  13  39  14  40   9  41  14  42  14  43  14  44  14
M  ISO  8  45   8  46   8  47  14  48  14  49  14  50  14  51  14  52  14
M  END
>  <minimizedAffinity>  (1) 
-6.41703653

>  <minimizedRMSD>  (1) 
2.7445035

$$$$
