
     RDKit          3D

 24 25  0  0  0  0  0  0  0  0999 V2000
   38.7410   23.9890   32.7530 N   0  0  0  0  0  0  0  0  0  0  0  0
   37.6290   23.6500   32.0430 C   0  0  0  0  0  0  0  0  0  0  0  0
   37.6760   23.7700   30.6780 C   0  0  0  0  0  0  0  0  0  0  0  0
   38.8290   24.2190   30.1130 C   0  0  0  0  0  0  0  0  0  0  0  0
   38.9630   24.3720   28.7160 N   0  0  0  0  0  0  0  0  0  0  0  0
   39.9150   24.5460   30.8550 N   0  0  0  0  0  0  0  0  0  0  0  0
   39.8670   24.4280   32.1980 C   0  0  0  0  0  0  0  0  0  0  0  0
   40.8880   24.7380   32.8640 O   0  0  0  0  0  0  0  0  0  0  0  0
   38.1770   24.9640   34.8650 C   0  0  0  0  0  0  0  0  0  0  0  0
   38.6440   23.8490   34.1460 C   0  0  0  0  0  0  0  0  0  0  0  0
   38.9740   22.6870   34.8650 C   0  0  0  0  0  0  0  0  0  0  0  0
   38.8280   22.6980   36.2190 N   0  0  0  0  0  0  0  0  0  0  0  0
   38.3830   23.7760   36.8710 C   0  0  0  0  0  0  0  0  0  0  0  0
   38.0560   24.9050   36.2150 N   0  0  0  0  0  0  0  0  0  0  0  0
   38.2470   23.7300   38.3210 C   0  0  0  0  0  0  0  0  0  0  0  0
   37.9460   24.7640   38.9760 O   0  0  0  0  0  0  0  0  0  0  0  0
   38.4450   22.5480   39.0170 O   0  0  0  0  0  0  0  0  0  0  0  0
   36.7209   23.2909   32.5494 H   0  0  0  0  0  0  0  0  0  0  0  0
   36.8058   23.5105   30.0572 H   0  0  0  0  0  0  0  0  0  0  0  0
   39.8492   24.7144   28.3181 H   0  0  0  0  0  0  0  0  0  0  0  0
   38.1746   24.1413   28.0947 H   0  0  0  0  0  0  0  0  0  0  0  0
   37.9089   25.8874   34.3307 H   0  0  0  0  0  0  0  0  0  0  0  0
   39.3417   21.7895   34.3460 H   0  0  0  0  0  0  0  0  0  0  0  0
   38.3492   22.5317   40.0022 H   0  0  0  0  0  0  0  0  0  0  0  0
  1 10  1  0
  2  1  1  0
  3  2  2  0
  4  3  1  0
  4  6  2  0
  5  4  1  0
  6  7  1  0
  7  1  1  0
  7  8  2  0
  9 14  2  0
 10  9  1  0
 10 11  2  0
 11 12  1  0
 12 13  2  0
 13 15  1  0
 14 13  1  0
 15 16  2  0
 15 17  1  0
  2 18  1  0
  3 19  1  0
  5 20  1  0
  5 21  1  0
  9 22  1  0
 11 23  1  0
 17 24  1  0
M  ISO  5  18  14  19  14  22  14  23  14  24   3
M  END
>  <minimizedAffinity>  (1) 
-4.48226309

>  <minimizedRMSD>  (1) 
3.55882859

$$$$
