
     RDKit          3D

 45 48  0  0  1  0  0  0  0  0999 V2000
   36.4230   24.6110   31.4020 C   0  0  0  0  0  0  0  0  0  0  0  0
   37.4840   25.5900   31.8840 C   0  0  1  0  0  0  0  0  0  0  0  0
   38.0390   26.3420   30.7050 C   0  0  0  0  0  0  0  0  0  0  0  0
   38.3780   27.6850   31.3330 C   0  0  0  0  0  0  0  0  0  0  0  0
   37.1160   27.9450   32.1250 C   0  0  0  0  0  0  0  0  0  0  0  0
   36.8480   26.5860   32.7890 C   0  0  2  0  0  0  0  0  0  0  0  0
   37.5920   26.5250   34.0960 C   0  0  0  0  0  0  0  0  0  0  0  0
   37.5090   27.4450   35.1200 C   0  0  0  0  0  0  0  0  0  0  0  0
   38.3600   26.9670   36.0950 C   0  0  0  0  0  0  0  0  0  0  0  0
   38.9240   25.8130   35.6670 N   0  0  0  0  0  0  0  0  0  0  0  0
   38.4500   25.5500   34.4470 N   0  0  0  0  0  0  0  0  0  0  0  0
   36.9390   23.2150   31.2800 C   0  0  0  0  0  0  0  0  0  0  0  0
   37.2020   21.9460   34.7570 C   0  0  0  0  0  0  0  0  0  0  0  0
   36.2930   20.9260   34.8080 C   0  0  0  0  0  0  0  0  0  0  0  0
   35.5620   20.6320   33.6750 C   0  0  0  0  0  0  0  0  0  0  0  0
   35.7910   21.3800   32.5650 C   0  0  0  0  0  0  0  0  0  0  0  0
   36.6890   22.4040   32.4780 C   0  0  0  0  0  0  0  0  0  0  0  0
   37.3610   22.6340   33.6080 N   0  0  0  0  0  0  0  0  0  0  0  0
   40.0010   22.4530   37.0460 C   0  0  0  0  0  0  0  0  0  0  0  0
   39.4580   23.1190   38.1250 C   0  0  0  0  0  0  0  0  0  0  0  0
   38.0820   23.3900   38.0370 C   0  0  0  0  0  0  0  0  0  0  0  0
   37.4140   22.9770   36.9100 N   0  0  0  0  0  0  0  0  0  0  0  0
   38.0170   22.3310   35.8970 C   0  0  0  0  0  0  0  0  0  0  0  0
   39.3260   22.0620   35.9580 N   0  0  0  0  0  0  0  0  0  0  0  0
   35.5882   24.6162   32.1183 H   0  0  0  0  0  0  0  0  0  0  0  0
   36.1025   24.9351   30.4009 H   0  0  0  0  0  0  0  0  0  0  0  0
   38.2802   25.0360   32.4028 H   0  0  0  0  0  0  0  0  0  0  0  0
   37.2888   26.4493   29.9077 H   0  0  0  0  0  0  0  0  0  0  0  0
   38.8923   25.8465   30.2188 H   0  0  0  0  0  0  0  0  0  0  0  0
   39.2605   27.6168   31.9861 H   0  0  0  0  0  0  0  0  0  0  0  0
   38.6386   28.4750   30.6133 H   0  0  0  0  0  0  0  0  0  0  0  0
   37.2754   28.7302   32.8787 H   0  0  0  0  0  0  0  0  0  0  0  0
   36.2787   28.3017   31.5072 H   0  0  0  0  0  0  0  0  0  0  0  0
   35.7746   26.4146   32.9574 H   0  0  0  0  0  0  0  0  0  0  0  0
   36.8983   28.3593   35.1523 H   0  0  0  0  0  0  0  0  0  0  0  0
   38.5501   27.4473   37.0662 H   0  0  0  0  0  0  0  0  0  0  0  0
   39.6000   25.2388   36.1907 H   0  0  0  0  0  0  0  0  0  0  0  0
   36.4474   22.7334   30.4219 H   0  0  0  0  0  0  0  0  0  0  0  0
   38.0291   23.2777   31.1469 H   0  0  0  0  0  0  0  0  0  0  0  0
   36.1471   20.3508   35.7342 H   0  0  0  0  0  0  0  0  0  0  0  0
   34.8198   19.8201   33.6712 H   0  0  0  0  0  0  0  0  0  0  0  0
   35.2062   21.1416   31.6644 H   0  0  0  0  0  0  0  0  0  0  0  0
   41.0764   22.2245   37.0825 H   0  0  0  0  0  0  0  0  0  0  0  0
   40.0611   23.4176   38.9951 H   0  0  0  0  0  0  0  0  0  0  0  0
   37.5555   23.9171   38.8463 H   0  0  0  0  0  0  0  0  0  0  0  0
  1  2  1  0
  2  6  1  0
  3  4  1  0
  3  2  1  0
  4  5  1  0
  5  6  1  0
  6  7  1  0
  7 11  2  0
  7  8  1  0
  8  9  2  0
 10  9  1  0
 11 10  1  0
 12  1  1  0
 12 17  1  0
 13 14  2  0
 13 23  1  0
 15 14  1  0
 16 15  2  0
 17 16  1  0
 17 18  2  0
 18 13  1  0
 19 20  2  0
 21 20  1  0
 22 21  2  0
 23 24  2  0
 23 22  1  0
 24 19  1  0
  1 25  1  0
  1 26  1  0
  2 27  1  1
  3 28  1  0
  3 29  1  0
  4 30  1  0
  4 31  1  0
  5 32  1  0
  5 33  1  0
  6 34  1  1
  8 35  1  0
  9 36  1  0
 10 37  1  0
 12 38  1  0
 12 39  1  0
 14 40  1  0
 15 41  1  0
 16 42  1  0
 19 43  1  0
 20 44  1  0
 21 45  1  0
M  ISO  8  25   8  26   8  27  13  28  13  29  13  30  13  31  13  32  13
M  ISO  8  33  13  34  13  35  14  36  14  37   9  38   8  39   8  40  14
M  ISO  5  41  14  42  14  43  14  44  14  45  14
M  END
>  <minimizedAffinity>  (1) 
-5.83823395

>  <minimizedRMSD>  (1) 
2.38958859

$$$$
