
     RDKit          3D

 51 54  0  0  1  0  0  0  0  0999 V2000
   35.8510   24.5750   31.3690 C   0  0  0  0  0  0  0  0  0  0  0  0
   36.8250   25.7610   31.3740 C   0  0  1  0  0  0  0  0  0  0  0  0
   36.0910   26.9480   30.7810 C   0  0  0  0  0  0  0  0  0  0  0  0
   36.7520   28.0990   31.5210 C   0  0  0  0  0  0  0  0  0  0  0  0
   36.6670   27.5760   32.9540 C   0  0  0  0  0  0  0  0  0  0  0  0
   37.0710   26.1170   32.7760 C   0  0  2  0  0  0  0  0  0  0  0  0
   38.3860   26.0000   33.3110 N   0  0  0  0  0  0  0  0  0  0  0  0
   39.5530   26.0220   32.6880 C   0  0  0  0  0  0  0  0  0  0  0  0
   40.7820   25.8990   33.2990 C   0  0  0  0  0  0  0  0  0  0  0  0
   42.0330   25.9400   32.4870 C   0  0  0  0  0  0  0  0  0  0  0  0
   40.7900   25.7440   34.6560 C   0  0  0  0  0  0  0  0  0  0  0  0
   41.9240   25.6340   35.2030 O   0  0  0  0  0  0  0  0  0  0  0  0
   39.6230   25.7220   35.2810 N   0  0  0  0  0  0  0  0  0  0  0  0
   38.4550   25.8420   34.6670 C   0  0  0  0  0  0  0  0  0  0  0  0
   37.3950   25.8040   35.3810 O   0  0  0  0  0  0  0  0  0  0  0  0
   36.5730   23.2740   31.2100 C   0  0  0  0  0  0  0  0  0  0  0  0
   37.1010   21.8780   34.6160 C   0  0  0  0  0  0  0  0  0  0  0  0
   36.2530   20.8110   34.6790 C   0  0  0  0  0  0  0  0  0  0  0  0
   35.4640   20.5120   33.5750 C   0  0  0  0  0  0  0  0  0  0  0  0
   35.5960   21.3200   32.4880 C   0  0  0  0  0  0  0  0  0  0  0  0
   36.4350   22.4020   32.3840 C   0  0  0  0  0  0  0  0  0  0  0  0
   37.1520   22.6150   33.4860 N   0  0  0  0  0  0  0  0  0  0  0  0
   40.0180   22.4450   36.7420 C   0  0  0  0  0  0  0  0  0  0  0  0
   39.5020   23.0500   37.8760 C   0  0  0  0  0  0  0  0  0  0  0  0
   38.0950   23.2630   37.8900 C   0  0  0  0  0  0  0  0  0  0  0  0
   37.3690   22.8570   36.7910 N   0  0  0  0  0  0  0  0  0  0  0  0
   37.9610   22.2690   35.7190 C   0  0  0  0  0  0  0  0  0  0  0  0
   39.2800   22.0620   35.6910 N   0  0  0  0  0  0  0  0  0  0  0  0
   35.2974   24.5629   32.3195 H   0  0  0  0  0  0  0  0  0  0  0  0
   35.1645   24.6954   30.5180 H   0  0  0  0  0  0  0  0  0  0  0  0
   37.7485   25.5157   30.8291 H   0  0  0  0  0  0  0  0  0  0  0  0
   36.2518   27.0207   29.6952 H   0  0  0  0  0  0  0  0  0  0  0  0
   34.9975   26.9062   30.8929 H   0  0  0  0  0  0  0  0  0  0  0  0
   37.7942   28.2454   31.2009 H   0  0  0  0  0  0  0  0  0  0  0  0
   36.2872   29.0826   31.3582 H   0  0  0  0  0  0  0  0  0  0  0  0
   37.3658   28.1074   33.6167 H   0  0  0  0  0  0  0  0  0  0  0  0
   35.6803   27.7120   33.4208 H   0  0  0  0  0  0  0  0  0  0  0  0
   36.4875   25.3647   33.3270 H   0  0  0  0  0  0  0  0  0  0  0  0
   39.5413   26.1485   31.5954 H   0  0  0  0  0  0  0  0  0  0  0  0
   42.9046   25.9686   33.1575 H   0  0  0  0  0  0  0  0  0  0  0  0
   42.0878   25.0432   31.8524 H   0  0  0  0  0  0  0  0  0  0  0  0
   42.0290   26.8385   31.8524 H   0  0  0  0  0  0  0  0  0  0  0  0
   39.6231   25.6048   36.3043 H   0  0  0  0  0  0  0  0  0  0  0  0
   36.1654   22.7503   30.3327 H   0  0  0  0  0  0  0  0  0  0  0  0
   37.6425   23.5003   31.0880 H   0  0  0  0  0  0  0  0  0  0  0  0
   36.1948   20.1969   35.5898 H   0  0  0  0  0  0  0  0  0  0  0  0
   34.7656   19.6622   33.5795 H   0  0  0  0  0  0  0  0  0  0  0  0
   34.9734   21.0847   31.6122 H   0  0  0  0  0  0  0  0  0  0  0  0
   41.1028   22.2675   36.7014 H   0  0  0  0  0  0  0  0  0  0  0  0
   40.1434   23.3489   38.7181 H   0  0  0  0  0  0  0  0  0  0  0  0
   37.6020   23.7371   38.7515 H   0  0  0  0  0  0  0  0  0  0  0  0
  1  2  1  0
  2  6  1  0
  3  2  1  0
  3  4  1  0
  4  5  1  0
  6  5  1  0
  6  7  1  0
  7 14  1  0
  8  9  2  0
  8  7  1  0
  9 11  1  0
 10  9  1  0
 11 12  2  0
 11 13  1  0
 14 13  1  0
 14 15  2  0
 16  1  1  0
 16 21  1  0
 17 18  2  0
 17 27  1  0
 19 18  1  0
 20 19  2  0
 21 20  1  0
 21 22  2  0
 22 17  1  0
 23 24  2  0
 24 25  1  0
 26 25  2  0
 27 26  1  0
 28 27  2  0
 28 23  1  0
  1 29  1  0
  1 30  1  0
  2 31  1  6
  3 32  1  0
  3 33  1  0
  4 34  1  0
  4 35  1  0
  5 36  1  0
  5 37  1  0
  6 38  1  1
  8 39  1  0
 10 40  1  0
 10 41  1  0
 10 42  1  0
 13 43  1  0
 16 44  1  0
 16 45  1  0
 18 46  1  0
 19 47  1  0
 20 48  1  0
 23 49  1  0
 24 50  1  0
 25 51  1  0
M  ISO  8  29   8  30   8  31  13  32  13  33  13  34  13  35  13  36  13
M  ISO  8  37  13  38  13  39  14  40   8  41   8  42   8  43   9  44   8
M  ISO  7  45   8  46  14  47  14  48  14  49  14  50  14  51  14
M  END
>  <minimizedAffinity>  (1) 
-5.99546671

>  <minimizedRMSD>  (1) 
1.5156244

$$$$
