
     RDKit          3D

 48 51  0  0  1  0  0  0  0  0999 V2000
   35.9170   24.6200   31.2860 C   0  0  0  0  0  0  0  0  0  0  0  0
   36.8350   25.8320   31.3900 C   0  0  1  0  0  0  0  0  0  0  0  0
   36.2160   27.0020   30.6950 C   0  0  0  0  0  0  0  0  0  0  0  0
   36.7480   28.1630   31.5030 C   0  0  0  0  0  0  0  0  0  0  0  0
   36.4670   27.6580   32.9130 C   0  0  0  0  0  0  0  0  0  0  0  0
   36.9330   26.2050   32.8400 C   0  0  2  0  0  0  0  0  0  0  0  0
   38.2460   26.0400   33.4140 N   0  0  0  0  0  0  0  0  0  0  0  0
   39.3870   26.0050   32.7150 C   0  0  0  0  0  0  0  0  0  0  0  0
   40.6400   25.8480   33.2690 C   0  0  0  0  0  0  0  0  0  0  0  0
   40.7310   25.7160   34.6560 C   0  0  0  0  0  0  0  0  0  0  0  0
   41.8910   25.5720   35.1380 O   0  0  0  0  0  0  0  0  0  0  0  0
   39.6030   25.7480   35.3620 N   0  0  0  0  0  0  0  0  0  0  0  0
   38.4110   25.9050   34.7630 C   0  0  0  0  0  0  0  0  0  0  0  0
   37.4100   25.9230   35.5270 O   0  0  0  0  0  0  0  0  0  0  0  0
   36.6910   23.3400   31.1530 C   0  0  0  0  0  0  0  0  0  0  0  0
   37.1410   21.9340   34.5740 C   0  0  0  0  0  0  0  0  0  0  0  0
   36.2580   20.8820   34.6210 C   0  0  0  0  0  0  0  0  0  0  0  0
   35.4840   20.6110   33.5060 C   0  0  0  0  0  0  0  0  0  0  0  0
   35.6490   21.4120   32.4220 C   0  0  0  0  0  0  0  0  0  0  0  0
   36.5160   22.4690   32.3330 C   0  0  0  0  0  0  0  0  0  0  0  0
   37.2260   22.6680   33.4450 N   0  0  0  0  0  0  0  0  0  0  0  0
   40.0300   22.4340   36.7460 C   0  0  0  0  0  0  0  0  0  0  0  0
   39.4960   23.0340   37.8910 C   0  0  0  0  0  0  0  0  0  0  0  0
   38.1090   23.2540   37.8780 C   0  0  0  0  0  0  0  0  0  0  0  0
   37.3870   22.8750   36.7630 N   0  0  0  0  0  0  0  0  0  0  0  0
   37.9910   22.2960   35.6900 C   0  0  0  0  0  0  0  0  0  0  0  0
   39.3080   22.0740   35.6750 N   0  0  0  0  0  0  0  0  0  0  0  0
   35.2947   24.5667   32.1915 H   0  0  0  0  0  0  0  0  0  0  0  0
   35.2974   24.7385   30.3849 H   0  0  0  0  0  0  0  0  0  0  0  0
   37.8115   25.5898   30.9452 H   0  0  0  0  0  0  0  0  0  0  0  0
   36.5417   27.0622   29.6460 H   0  0  0  0  0  0  0  0  0  0  0  0
   35.1178   26.9602   30.6475 H   0  0  0  0  0  0  0  0  0  0  0  0
   37.8234   28.3197   31.3327 H   0  0  0  0  0  0  0  0  0  0  0  0
   36.2987   29.1379   31.2629 H   0  0  0  0  0  0  0  0  0  0  0  0
   37.0428   28.2235   33.6604 H   0  0  0  0  0  0  0  0  0  0  0  0
   35.4158   27.7676   33.2177 H   0  0  0  0  0  0  0  0  0  0  0  0
   36.3099   25.5262   33.4409 H   0  0  0  0  0  0  0  0  0  0  0  0
   39.3205   26.1088   31.6219 H   0  0  0  0  0  0  0  0  0  0  0  0
   41.5404   25.8274   32.6374 H   0  0  0  0  0  0  0  0  0  0  0  0
   39.6450   25.6506   36.3865 H   0  0  0  0  0  0  0  0  0  0  0  0
   36.3408   22.8032   30.2590 H   0  0  0  0  0  0  0  0  0  0  0  0
   37.7583   23.5925   31.0693 H   0  0  0  0  0  0  0  0  0  0  0  0
   36.1680   20.2665   35.5282 H   0  0  0  0  0  0  0  0  0  0  0  0
   34.7637   19.7797   33.4983 H   0  0  0  0  0  0  0  0  0  0  0  0
   35.0324   21.1930   31.5378 H   0  0  0  0  0  0  0  0  0  0  0  0
   41.1134   22.2450   36.7226 H   0  0  0  0  0  0  0  0  0  0  0  0
   40.1238   23.3162   38.7490 H   0  0  0  0  0  0  0  0  0  0  0  0
   37.6072   23.7192   38.7392 H   0  0  0  0  0  0  0  0  0  0  0  0
  1  2  1  0
  2  6  1  0
  3  2  1  0
  3  4  1  0
  4  5  1  0
  6  5  1  0
  6  7  1  0
  7 13  1  0
  8  9  2  0
  8  7  1  0
  9 10  1  0
 10 11  2  0
 10 12  1  0
 13 12  1  0
 13 14  2  0
 15  1  1  0
 15 20  1  0
 16 17  2  0
 16 26  1  0
 18 17  1  0
 19 18  2  0
 20 19  1  0
 20 21  2  0
 21 16  1  0
 22 23  2  0
 24 23  1  0
 25 24  2  0
 26 25  1  0
 27 26  2  0
 27 22  1  0
  1 28  1  0
  1 29  1  0
  2 30  1  6
  3 31  1  0
  3 32  1  0
  4 33  1  0
  4 34  1  0
  5 35  1  0
  5 36  1  0
  6 37  1  1
  8 38  1  0
  9 39  1  0
 12 40  1  0
 15 41  1  0
 15 42  1  0
 17 43  1  0
 18 44  1  0
 19 45  1  0
 22 46  1  0
 23 47  1  0
 24 48  1  0
M  ISO  8  28   8  29   8  30  13  31  13  32  13  33  13  34  13  35  13
M  ISO  8  36  13  37  13  38  14  39  14  40   9  41   8  42   8  43  14
M  ISO  5  44  14  45  14  46  14  47  14  48  14
M  END
>  <minimizedAffinity>  (1) 
-5.94058514

>  <minimizedRMSD>  (1) 
1.92075861

$$$$
