
     RDKit          3D

 47 50  0  0  1  0  0  0  0  0999 V2000
   35.9350   24.7000   31.2780 C   0  0  0  0  0  0  0  0  0  0  0  0
   36.8670   25.8830   31.4920 C   0  0  1  0  0  0  0  0  0  0  0  0
   36.3960   27.0490   30.6880 C   0  0  0  0  0  0  0  0  0  0  0  0
   36.8050   28.2260   31.5610 C   0  0  0  0  0  0  0  0  0  0  0  0
   36.3570   27.7430   32.9180 C   0  0  0  0  0  0  0  0  0  0  0  0
   36.8110   26.2780   32.9300 C   0  0  2  0  0  0  0  0  0  0  0  0
   38.1790   26.2180   33.5590 C   0  0  0  0  0  0  0  0  0  0  0  0
   38.3450   26.9250   34.7500 C   0  0  0  0  0  0  0  0  0  0  0  0
   39.5650   26.9290   35.3980 C   0  0  0  0  0  0  0  0  0  0  0  0
   40.6330   26.2160   34.8470 C   0  0  0  0  0  0  0  0  0  0  0  0
   40.4160   25.5230   33.6510 C   0  0  0  0  0  0  0  0  0  0  0  0
   39.2120   25.5390   33.0410 N   0  0  0  0  0  0  0  0  0  0  0  0
   36.6860   23.4090   31.1200 C   0  0  0  0  0  0  0  0  0  0  0  0
   37.1460   21.9690   34.5180 C   0  0  0  0  0  0  0  0  0  0  0  0
   36.2740   20.9150   34.5590 C   0  0  0  0  0  0  0  0  0  0  0  0
   35.5040   20.6550   33.4440 C   0  0  0  0  0  0  0  0  0  0  0  0
   35.6530   21.4580   32.3680 C   0  0  0  0  0  0  0  0  0  0  0  0
   36.5140   22.5210   32.2890 C   0  0  0  0  0  0  0  0  0  0  0  0
   37.2280   22.7180   33.4010 N   0  0  0  0  0  0  0  0  0  0  0  0
   40.0180   22.4510   36.7190 C   0  0  0  0  0  0  0  0  0  0  0  0
   39.5010   23.0500   37.8490 C   0  0  0  0  0  0  0  0  0  0  0  0
   38.1150   23.2840   37.8270 C   0  0  0  0  0  0  0  0  0  0  0  0
   37.4120   22.9060   36.7040 N   0  0  0  0  0  0  0  0  0  0  0  0
   37.9970   22.3240   35.6400 C   0  0  0  0  0  0  0  0  0  0  0  0
   39.3130   22.0920   35.6420 N   0  0  0  0  0  0  0  0  0  0  0  0
   35.2640   24.6159   32.1456 H   0  0  0  0  0  0  0  0  0  0  0  0
   35.3697   24.8781   30.3513 H   0  0  0  0  0  0  0  0  0  0  0  0
   37.8867   25.5998   31.1919 H   0  0  0  0  0  0  0  0  0  0  0  0
   36.8953   27.0861   29.7086 H   0  0  0  0  0  0  0  0  0  0  0  0
   35.3207   27.0219   30.4580 H   0  0  0  0  0  0  0  0  0  0  0  0
   37.8916   28.3943   31.5300 H   0  0  0  0  0  0  0  0  0  0  0  0
   36.3725   29.1903   31.2560 H   0  0  0  0  0  0  0  0  0  0  0  0
   36.8442   28.3145   33.7217 H   0  0  0  0  0  0  0  0  0  0  0  0
   35.2766   27.8634   33.0860 H   0  0  0  0  0  0  0  0  0  0  0  0
   36.1455   25.6112   33.4978 H   0  0  0  0  0  0  0  0  0  0  0  0
   37.4984   27.4833   35.1762 H   0  0  0  0  0  0  0  0  0  0  0  0
   39.6943   27.4871   36.3370 H   0  0  0  0  0  0  0  0  0  0  0  0
   41.6164   26.2000   35.3395 H   0  0  0  0  0  0  0  0  0  0  0  0
   41.2422   24.9544   33.1993 H   0  0  0  0  0  0  0  0  0  0  0  0
   36.3162   22.8907   30.2230 H   0  0  0  0  0  0  0  0  0  0  0  0
   37.7560   23.6476   31.0294 H   0  0  0  0  0  0  0  0  0  0  0  0
   36.1890   20.2896   35.4599 H   0  0  0  0  0  0  0  0  0  0  0  0
   34.7898   19.8185   33.4316 H   0  0  0  0  0  0  0  0  0  0  0  0
   35.0339   21.2413   31.4850 H   0  0  0  0  0  0  0  0  0  0  0  0
   41.0998   22.2525   36.7032 H   0  0  0  0  0  0  0  0  0  0  0  0
   40.1301   23.3256   38.7083 H   0  0  0  0  0  0  0  0  0  0  0  0
   37.6067   23.7550   38.6813 H   0  0  0  0  0  0  0  0  0  0  0  0
  1  2  1  0
  2  6  1  0
  3  2  1  0
  3  4  1  0
  4  5  1  0
  5  6  1  0
  6  7  1  0
  7  8  2  0
  8  9  1  0
 10  9  2  0
 11 10  1  0
 12  7  1  0
 12 11  2  0
 13  1  1  0
 13 18  1  0
 14 15  2  0
 14 24  1  0
 16 15  1  0
 17 16  2  0
 18 17  1  0
 18 19  2  0
 19 14  1  0
 20 21  2  0
 22 21  1  0
 23 22  2  0
 24 25  2  0
 24 23  1  0
 25 20  1  0
  1 26  1  0
  1 27  1  0
  2 28  1  6
  3 29  1  0
  3 30  1  0
  4 31  1  0
  4 32  1  0
  5 33  1  0
  5 34  1  0
  6 35  1  1
  8 36  1  0
  9 37  1  0
 10 38  1  0
 11 39  1  0
 13 40  1  0
 13 41  1  0
 15 42  1  0
 16 43  1  0
 17 44  1  0
 20 45  1  0
 21 46  1  0
 22 47  1  0
M  ISO  8  26   8  27   8  28  13  29  13  30  13  31  13  32  13  33  13
M  ISO  8  34  13  35  13  36  14  37  14  38  14  39  14  40   8  41   8
M  ISO  6  42  14  43  14  44  14  45  14  46  14  47  14
M  END
>  <minimizedAffinity>  (1) 
-5.96911192

>  <minimizedRMSD>  (1) 
1.77429128

$$$$
