
     RDKit          3D

 51 54  0  0  1  0  0  0  0  0999 V2000
   36.3020   28.7960   32.7990 C   0  0  0  0  0  0  0  0  0  0  0  0
   36.7240   27.6220   32.2400 C   0  0  0  0  0  0  0  0  0  0  0  0
   37.1800   26.6120   33.0880 C   0  0  0  0  0  0  0  0  0  0  0  0
   37.1980   26.8070   34.4430 C   0  0  0  0  0  0  0  0  0  0  0  0
   36.7760   27.9820   35.0110 C   0  0  0  0  0  0  0  0  0  0  0  0
   36.3240   28.9840   34.1850 C   0  0  0  0  0  0  0  0  0  0  0  0
   37.7160   25.6220   35.1780 C   0  0  0  0  0  0  0  0  0  0  0  0
   39.1370   25.3070   34.8770 C   0  0  2  0  0  0  0  0  0  0  0  0
   41.5200   22.9270   36.3250 C   0  0  0  0  0  0  0  0  0  0  0  0
   40.8170   22.3850   37.4360 C   0  0  0  0  0  0  0  0  0  0  0  0
   39.5120   22.8460   37.6800 C   0  0  0  0  0  0  0  0  0  0  0  0
   39.0010   23.7930   36.8270 N   0  0  0  0  0  0  0  0  0  0  0  0
   39.7000   24.2860   35.7780 C   0  0  0  0  0  0  0  0  0  0  0  0
   40.9660   23.8620   35.5130 N   0  0  0  0  0  0  0  0  0  0  0  0
   39.9650   26.5900   35.0650 C   0  0  0  0  0  0  0  0  0  0  0  0
   35.7280   30.0710   31.7450 S   0  0  0  0  0  0  0  0  0  0  0  0
   36.0010   29.6350   30.3150 O   0  0  0  0  0  0  0  0  0  0  0  0
   36.4430   31.3540   31.9970 O   0  0  0  0  0  0  0  0  0  0  0  0
   34.0030   30.3110   31.9550 C   0  0  0  0  0  0  0  0  0  0  0  0
   33.0890   29.8160   32.7980 N   0  0  0  0  0  0  0  0  0  0  0  0
   31.9180   30.3240   32.5350 O   0  0  0  0  0  0  0  0  0  0  0  0
   32.0230   31.1610   31.5200 C   0  0  0  0  0  0  0  0  0  0  0  0
   33.3000   31.1440   31.1760 N   0  0  0  0  0  0  0  0  0  0  0  0
   31.0730   31.9790   30.8300 N   0  0  0  0  0  0  0  0  0  0  0  0
   31.1610   32.3530   29.4280 C   0  0  0  0  0  0  0  0  0  0  0  0
   29.8480   31.9200   28.8060 C   0  0  0  0  0  0  0  0  0  0  0  0
   29.0420   31.1210   29.6890 N   0  0  0  0  0  0  0  0  0  0  0  0
   28.7270   31.7300   30.9440 C   0  0  0  0  0  0  0  0  0  0  0  0
   29.8990   32.5230   31.4920 C   0  0  0  0  0  0  0  0  0  0  0  0
   36.7046   27.4772   31.1497 H   0  0  0  0  0  0  0  0  0  0  0  0
   37.5259   25.6566   32.6667 H   0  0  0  0  0  0  0  0  0  0  0  0
   36.7986   28.1195   36.1021 H   0  0  0  0  0  0  0  0  0  0  0  0
   35.9789   29.9358   34.6151 H   0  0  0  0  0  0  0  0  0  0  0  0
   37.6240   25.8150   36.2570 H   0  0  0  0  0  0  0  0  0  0  0  0
   37.1192   24.7566   34.8543 H   0  0  0  0  0  0  0  0  0  0  0  0
   39.1763   24.9192   33.8484 H   0  0  0  0  0  0  0  0  0  0  0  0
   42.5425   22.5781   36.1180 H   0  0  0  0  0  0  0  0  0  0  0  0
   41.2808   21.6276   38.0850 H   0  0  0  0  0  0  0  0  0  0  0  0
   38.9209   22.4618   38.5244 H   0  0  0  0  0  0  0  0  0  0  0  0
   40.0936   26.7893   36.1391 H   0  0  0  0  0  0  0  0  0  0  0  0
   40.9513   26.4620   34.5951 H   0  0  0  0  0  0  0  0  0  0  0  0
   39.4421   27.4360   34.5951 H   0  0  0  0  0  0  0  0  0  0  0  0
   31.2926   33.4406   29.3285 H   0  0  0  0  0  0  0  0  0  0  0  0
   32.0212   31.8778   28.9338 H   0  0  0  0  0  0  0  0  0  0  0  0
   29.2782   32.8194   28.5295 H   0  0  0  0  0  0  0  0  0  0  0  0
   30.0888   31.2996   27.9301 H   0  0  0  0  0  0  0  0  0  0  0  0
   28.1569   30.9078   29.2072 H   0  0  0  0  0  0  0  0  0  0  0  0
   27.8711   32.4072   30.8069 H   0  0  0  0  0  0  0  0  0  0  0  0
   28.4867   30.9321   31.6620 H   0  0  0  0  0  0  0  0  0  0  0  0
   29.9762   32.3932   32.5816 H   0  0  0  0  0  0  0  0  0  0  0  0
   29.7867   33.6015   31.3071 H   0  0  0  0  0  0  0  0  0  0  0  0
  1  6  1  0
  2  1  2  0
  2  3  1  0
  3  4  2  0
  4  5  1  0
  4  7  1  0
  6  5  2  0
  8 15  1  0
  8  7  1  0
  8 13  1  0
  9 10  2  0
 10 11  1  0
 12 11  2  0
 13 12  1  0
 14 13  2  0
 14  9  1  0
 16 19  1  0
 16 18  2  0
 16  1  1  0
 17 16  2  0
 19 20  2  0
 21 20  1  0
 22 21  1  0
 23 22  2  0
 23 19  1  0
 24 29  1  0
 24 22  1  0
 25 24  1  0
 26 25  1  0
 26 27  1  0
 27 28  1  0
 28 29  1  0
  2 30  1  0
  3 31  1  0
  5 32  1  0
  6 33  1  0
  7 34  1  0
  7 35  1  0
  8 36  1  6
  9 37  1  0
 10 38  1  0
 11 39  1  0
 15 40  1  0
 15 41  1  0
 15 42  1  0
 25 43  1  0
 25 44  1  0
 26 45  1  0
 26 46  1  0
 27 47  1  0
 28 48  1  0
 28 49  1  0
 29 50  1  0
 29 51  1  0
M  ISO  8  30  14  31  14  32  14  33  14  34   8  35   8  36   8  37  14
M  ISO  8  38  14  39  14  40   8  41   8  42   8  43  13  44  13  45  13
M  ISO  6  46  13  47   5  48  13  49  13  50  13  51  13
M  END
>  <minimizedAffinity>  (1) 
-5.92148352

>  <minimizedRMSD>  (1) 
1.48810494

$$$$
