
     RDKit          3D

 52 55  0  0  1  0  0  0  0  0999 V2000
   35.8850   25.0780   31.3510 C   0  0  0  0  0  0  0  0  0  0  0  0
   36.8370   26.2620   31.5070 C   0  0  1  0  0  0  0  0  0  0  0  0
   36.4540   27.3120   30.4960 C   0  0  0  0  0  0  0  0  0  0  0  0
   36.6950   28.6080   31.2090 C   0  0  0  0  0  0  0  0  0  0  0  0
   36.2150   28.3060   32.6030 C   0  0  0  0  0  0  0  0  0  0  0  0
   36.6060   26.8620   32.8590 C   0  0  2  0  0  0  0  0  0  0  0  0
   37.7740   26.7180   33.6540 N   0  0  0  0  0  0  0  0  0  0  0  0
   38.8930   26.1210   32.9510 C   0  0  0  0  0  0  0  0  0  0  0  0
   40.1090   26.8670   33.4600 C   0  0  0  0  0  0  0  0  0  0  0  0
   39.9060   27.0540   34.8820 N   0  0  0  0  0  0  0  0  0  0  0  0
   39.0970   25.9650   35.4460 C   0  0  0  0  0  0  0  0  0  0  0  0
   37.6620   26.0130   34.8930 C   0  0  0  0  0  0  0  0  0  0  0  0
   36.6250   23.8040   31.0620 C   0  0  0  0  0  0  0  0  0  0  0  0
   37.1790   22.0750   34.3090 C   0  0  0  0  0  0  0  0  0  0  0  0
   36.3310   21.0040   34.2630 C   0  0  0  0  0  0  0  0  0  0  0  0
   35.5470   20.8290   33.1360 C   0  0  0  0  0  0  0  0  0  0  0  0
   35.6650   21.7400   32.1320 C   0  0  0  0  0  0  0  0  0  0  0  0
   36.5020   22.8200   32.1480 C   0  0  0  0  0  0  0  0  0  0  0  0
   37.2240   22.9220   33.2640 N   0  0  0  0  0  0  0  0  0  0  0  0
   40.0780   22.3790   36.5030 C   0  0  0  0  0  0  0  0  0  0  0  0
   39.5750   22.8930   37.6830 C   0  0  0  0  0  0  0  0  0  0  0  0
   38.1910   23.1320   37.6890 C   0  0  0  0  0  0  0  0  0  0  0  0
   37.4600   22.8480   36.5630 N   0  0  0  0  0  0  0  0  0  0  0  0
   38.0350   22.3420   35.4410 C   0  0  0  0  0  0  0  0  0  0  0  0
   39.3500   22.1070   35.4110 N   0  0  0  0  0  0  0  0  0  0  0  0
   35.3138   24.9548   32.2830 H   0  0  0  0  0  0  0  0  0  0  0  0
   35.2161   25.2856   30.5028 H   0  0  0  0  0  0  0  0  0  0  0  0
   37.8795   25.9364   31.3755 H   0  0  0  0  0  0  0  0  0  0  0  0
   35.3960   27.2132   30.2116 H   0  0  0  0  0  0  0  0  0  0  0  0
   37.0292   27.2297   29.5620 H   0  0  0  0  0  0  0  0  0  0  0  0
   37.7629   28.8717   31.2045 H   0  0  0  0  0  0  0  0  0  0  0  0
   36.1851   29.4654   30.7454 H   0  0  0  0  0  0  0  0  0  0  0  0
   36.7023   28.9716   33.3306 H   0  0  0  0  0  0  0  0  0  0  0  0
   35.1308   28.4609   32.7052 H   0  0  0  0  0  0  0  0  0  0  0  0
   35.8074   26.3631   33.4276 H   0  0  0  0  0  0  0  0  0  0  0  0
   38.7836   26.2531   31.8645 H   0  0  0  0  0  0  0  0  0  0  0  0
   38.9653   25.0377   33.1275 H   0  0  0  0  0  0  0  0  0  0  0  0
   41.0203   26.2779   33.2797 H   0  0  0  0  0  0  0  0  0  0  0  0
   40.2318   27.8305   32.9437 H   0  0  0  0  0  0  0  0  0  0  0  0
   40.8216   27.0724   35.3534 H   0  0  0  0  0  0  0  0  0  0  0  0
   39.5544   25.0004   35.1808 H   0  0  0  0  0  0  0  0  0  0  0  0
   39.0595   26.0811   36.5392 H   0  0  0  0  0  0  0  0  0  0  0  0
   36.9970   26.5494   35.5858 H   0  0  0  0  0  0  0  0  0  0  0  0
   37.2322   25.0088   34.7631 H   0  0  0  0  0  0  0  0  0  0  0  0
   36.2200   23.3629   30.1393 H   0  0  0  0  0  0  0  0  0  0  0  0
   37.6911   24.0541   30.9580 H   0  0  0  0  0  0  0  0  0  0  0  0
   36.2729   20.2966   35.1034 H   0  0  0  0  0  0  0  0  0  0  0  0
   34.8511   19.9810   33.0545 H   0  0  0  0  0  0  0  0  0  0  0  0
   35.0387   21.5960   31.2393 H   0  0  0  0  0  0  0  0  0  0  0  0
   41.1584   22.1777   36.4563 H   0  0  0  0  0  0  0  0  0  0  0  0
   40.2128   23.1001   38.5550 H   0  0  0  0  0  0  0  0  0  0  0  0
   37.6998   23.5413   38.5841 H   0  0  0  0  0  0  0  0  0  0  0  0
  1  2  1  0
  2  6  1  0
  3  4  1  0
  3  2  1  0
  4  5  1  0
  5  6  1  0
  6  7  1  0
  7 12  1  0
  8  9  1  0
  8  7  1  0
  9 10  1  0
 10 11  1  0
 12 11  1  0
 13  1  1  0
 13 18  1  0
 14 24  1  0
 15 14  2  0
 16 15  1  0
 17 18  1  0
 17 16  2  0
 18 19  2  0
 19 14  1  0
 20 21  2  0
 21 22  1  0
 23 22  2  0
 24 23  1  0
 25 24  2  0
 25 20  1  0
  1 26  1  0
  1 27  1  0
  2 28  1  1
  3 29  1  0
  3 30  1  0
  4 31  1  0
  4 32  1  0
  5 33  1  0
  5 34  1  0
  6 35  1  1
  8 36  1  0
  8 37  1  0
  9 38  1  0
  9 39  1  0
 10 40  1  0
 11 41  1  0
 11 42  1  0
 12 43  1  0
 12 44  1  0
 13 45  1  0
 13 46  1  0
 15 47  1  0
 16 48  1  0
 17 49  1  0
 20 50  1  0
 21 51  1  0
 22 52  1  0
M  ISO  8  26   8  27   8  28  13  29  13  30  13  31  13  32  13  33  13
M  ISO  8  34  13  35  13  36  13  37  13  38  13  39  13  40   5  41  13
M  ISO  8  42  13  43  13  44  13  45   8  46   8  47  14  48  14  49  14
M  ISO  3  50  14  51  14  52  14
M  END
>  <minimizedAffinity>  (1) 
-5.5341711

>  <minimizedRMSD>  (1) 
2.05019259

$$$$
