
     RDKit          3D

 45 48  0  0  1  0  0  0  0  0999 V2000
   37.2340   22.6170   31.4740 C   0  0  0  0  0  0  0  0  0  0  0  0
   37.1690   21.8630   35.1030 C   0  0  0  0  0  0  0  0  0  0  0  0
   36.1790   20.9330   35.2400 C   0  0  0  0  0  0  0  0  0  0  0  0
   35.4940   20.5220   34.1200 C   0  0  0  0  0  0  0  0  0  0  0  0
   35.8400   21.0660   32.9290 C   0  0  0  0  0  0  0  0  0  0  0  0
   36.8200   21.9950   32.7600 C   0  0  0  0  0  0  0  0  0  0  0  0
   37.4500   22.3550   33.8800 N   0  0  0  0  0  0  0  0  0  0  0  0
   39.9300   22.6490   37.3680 C   0  0  0  0  0  0  0  0  0  0  0  0
   39.3190   23.3520   38.4120 C   0  0  0  0  0  0  0  0  0  0  0  0
   37.9330   23.5370   38.2940 C   0  0  0  0  0  0  0  0  0  0  0  0
   37.3020   23.0290   37.1960 N   0  0  0  0  0  0  0  0  0  0  0  0
   37.9470   22.3600   36.2230 C   0  0  0  0  0  0  0  0  0  0  0  0
   39.2710   22.1630   36.2990 N   0  0  0  0  0  0  0  0  0  0  0  0
   36.3480   23.6770   30.9940 C   0  0  0  0  0  0  0  0  0  0  0  0
   36.2410   24.9820   31.5650 C   0  0  2  0  0  0  0  0  0  0  0  0
   35.6320   26.0800   30.9690 C   0  0  0  0  0  0  0  0  0  0  0  0
   35.9140   27.2130   31.9110 C   0  0  0  0  0  0  0  0  0  0  0  0
   36.8570   26.6150   32.9310 C   0  0  0  0  0  0  0  0  0  0  0  0
   37.5280   25.4790   32.1580 C   0  0  2  0  0  0  0  0  0  0  0  0
   38.5040   26.0330   31.3020 C   0  0  0  0  0  0  0  0  0  0  0  0
   39.1070   27.2470   31.4240 C   0  0  0  0  0  0  0  0  0  0  0  0
   40.0410   27.6780   30.5350 C   0  0  0  0  0  0  0  0  0  0  0  0
   40.3540   26.7300   29.4220 C   0  0  0  0  0  0  0  0  0  0  0  0
   39.2040   25.2980   29.8450 S   0  0  0  0  0  0  0  0  0  0  0  0
   38.2385   23.0448   31.6081 H   0  0  0  0  0  0  0  0  0  0  0  0
   37.2007   21.8186   30.7181 H   0  0  0  0  0  0  0  0  0  0  0  0
   35.9332   20.5193   36.2292 H   0  0  0  0  0  0  0  0  0  0  0  0
   34.6900   19.7745   34.1897 H   0  0  0  0  0  0  0  0  0  0  0  0
   35.2905   20.7337   32.0359 H   0  0  0  0  0  0  0  0  0  0  0  0
   41.0160   22.4830   37.4239 H   0  0  0  0  0  0  0  0  0  0  0  0
   39.8891   23.7355   39.2710 H   0  0  0  0  0  0  0  0  0  0  0  0
   37.3690   24.0784   39.0678 H   0  0  0  0  0  0  0  0  0  0  0  0
   36.6296   23.8399   29.9432 H   0  0  0  0  0  0  0  0  0  0  0  0
   35.3706   23.2586   31.2763 H   0  0  0  0  0  0  0  0  0  0  0  0
   35.4528   24.6509   32.2572 H   0  0  0  0  0  0  0  0  0  0  0  0
   36.0679   26.2782   29.9787 H   0  0  0  0  0  0  0  0  0  0  0  0
   34.5552   25.9269   30.8042 H   0  0  0  0  0  0  0  0  0  0  0  0
   36.3907   28.0516   31.3823 H   0  0  0  0  0  0  0  0  0  0  0  0
   35.0003   27.6213   32.3675 H   0  0  0  0  0  0  0  0  0  0  0  0
   37.5976   27.3560   33.2663 H   0  0  0  0  0  0  0  0  0  0  0  0
   36.3471   26.2747   33.8443 H   0  0  0  0  0  0  0  0  0  0  0  0
   38.1207   24.6901   32.6442 H   0  0  0  0  0  0  0  0  0  0  0  0
   38.8307   27.8983   32.2663 H   0  0  0  0  0  0  0  0  0  0  0  0
   40.5329   28.6575   30.6282 H   0  0  0  0  0  0  0  0  0  0  0  0
   41.0609   26.8385   28.5863 H   0  0  0  0  0  0  0  0  0  0  0  0
  1  6  1  0
  2  3  2  0
  2 12  1  0
  4  3  1  0
  5  4  2  0
  6  5  1  0
  6  7  2  0
  7  2  1  0
  8  9  2  0
 10  9  1  0
 11 10  2  0
 12 13  2  0
 12 11  1  0
 13  8  1  0
 14  1  1  0
 14 15  1  0
 15 19  1  0
 16 15  1  0
 16 17  1  0
 17 18  1  0
 19 18  1  0
 20 21  2  0
 20 19  1  0
 22 21  1  0
 23 24  1  0
 23 22  2  0
 24 20  1  0
  1 25  1  0
  1 26  1  0
  3 27  1  0
  4 28  1  0
  5 29  1  0
  8 30  1  0
  9 31  1  0
 10 32  1  0
 14 33  1  0
 14 34  1  0
 15 35  1  1
 16 36  1  0
 16 37  1  0
 17 38  1  0
 17 39  1  0
 18 40  1  0
 18 41  1  0
 19 42  1  1
 21 43  1  0
 22 44  1  0
 23 45  1  0
M  ISO  8  25   8  26   8  27  14  28  14  29  14  30  14  31  14  32  14
M  ISO  8  33   8  34   8  35  13  36  13  37  13  38  13  39  13  40  13
M  ISO  5  41  13  42  13  43  14  44  14  45  14
M  END
>  <minimizedAffinity>  (1) 
-5.55925465

>  <minimizedRMSD>  (1) 
0.758735776

$$$$
