
     RDKit          3D

 40 42  0  0  1  0  0  0  0  0999 V2000
   36.6800   23.1400   31.2630 C   0  0  0  0  0  0  0  0  0  0  0  0
   37.1130   21.8710   34.7320 C   0  0  0  0  0  0  0  0  0  0  0  0
   36.2500   20.8140   34.8160 C   0  0  0  0  0  0  0  0  0  0  0  0
   35.4890   20.4860   33.7080 C   0  0  0  0  0  0  0  0  0  0  0  0
   35.6460   21.2420   32.5920 C   0  0  0  0  0  0  0  0  0  0  0  0
   36.5030   22.3120   32.4690 C   0  0  0  0  0  0  0  0  0  0  0  0
   37.2020   22.5660   33.5800 N   0  0  0  0  0  0  0  0  0  0  0  0
   39.9630   22.4770   36.9300 C   0  0  0  0  0  0  0  0  0  0  0  0
   39.4340   23.1310   38.0220 C   0  0  0  0  0  0  0  0  0  0  0  0
   38.0480   23.3560   37.9730 C   0  0  0  0  0  0  0  0  0  0  0  0
   37.3540   22.9220   36.8730 N   0  0  0  0  0  0  0  0  0  0  0  0
   37.9500   22.2880   35.8430 C   0  0  0  0  0  0  0  0  0  0  0  0
   39.2660   22.0610   35.8650 N   0  0  0  0  0  0  0  0  0  0  0  0
   35.9270   24.4380   31.3550 C   0  0  0  0  0  0  0  0  0  0  0  0
   36.8340   25.6430   31.2550 C   0  0  1  0  0  0  0  0  0  0  0  0
   36.0420   26.8610   30.9060 C   0  0  0  0  0  0  0  0  0  0  0  0
   36.8170   27.9600   31.6130 C   0  0  0  0  0  0  0  0  0  0  0  0
   37.0450   27.3170   32.9580 C   0  0  0  0  0  0  0  0  0  0  0  0
   37.4380   25.8890   32.6000 C   0  0  2  0  0  0  0  0  0  0  0  0
   38.8850   25.7330   32.5970 N   0  0  0  0  0  0  0  0  0  0  0  0
   36.3148   22.5788   30.3903 H   0  0  0  0  0  0  0  0  0  0  0  0
   37.7503   23.3745   31.1662 H   0  0  0  0  0  0  0  0  0  0  0  0
   36.1623   20.2350   35.7472 H   0  0  0  0  0  0  0  0  0  0  0  0
   34.7825   19.6432   33.7309 H   0  0  0  0  0  0  0  0  0  0  0  0
   35.0386   20.9780   31.7137 H   0  0  0  0  0  0  0  0  0  0  0  0
   41.0454   22.2809   36.9337 H   0  0  0  0  0  0  0  0  0  0  0  0
   40.0533   23.4540   38.8718 H   0  0  0  0  0  0  0  0  0  0  0  0
   37.5316   23.8685   38.7980 H   0  0  0  0  0  0  0  0  0  0  0  0
   35.1942   24.4793   30.5356 H   0  0  0  0  0  0  0  0  0  0  0  0
   35.4365   24.4702   32.3391 H   0  0  0  0  0  0  0  0  0  0  0  0
   37.5966   25.4513   30.4858 H   0  0  0  0  0  0  0  0  0  0  0  0
   36.0200   27.0246   29.8184 H   0  0  0  0  0  0  0  0  0  0  0  0
   34.9854   26.8021   31.2061 H   0  0  0  0  0  0  0  0  0  0  0  0
   37.7661   28.1801   31.1024 H   0  0  0  0  0  0  0  0  0  0  0  0
   36.3017   28.9311   31.6516 H   0  0  0  0  0  0  0  0  0  0  0  0
   37.8540   27.8233   33.5050 H   0  0  0  0  0  0  0  0  0  0  0  0
   36.1649   27.3699   33.6158 H   0  0  0  0  0  0  0  0  0  0  0  0
   37.0721   25.1563   33.3344 H   0  0  0  0  0  0  0  0  0  0  0  0
   39.2283   25.6960   33.5674 H   0  0  0  0  0  0  0  0  0  0  0  0
   39.1352   24.8602   32.1107 H   0  0  0  0  0  0  0  0  0  0  0  0
  1 14  1  0
  1  6  1  0
  2  3  2  0
  2 12  1  0
  4  3  1  0
  5  4  2  0
  6  5  1  0
  6  7  2  0
  7  2  1  0
  8  9  2  0
 10  9  1  0
 11 10  2  0
 12 13  2  0
 12 11  1  0
 13  8  1  0
 15 14  1  0
 15 19  1  0
 16 15  1  0
 16 17  1  0
 17 18  1  0
 19 18  1  0
 20 19  1  0
  1 21  1  0
  1 22  1  0
  3 23  1  0
  4 24  1  0
  5 25  1  0
  8 26  1  0
  9 27  1  0
 10 28  1  0
 14 29  1  0
 14 30  1  0
 15 31  1  6
 16 32  1  0
 16 33  1  0
 17 34  1  0
 17 35  1  0
 18 36  1  0
 18 37  1  0
 19 38  1  1
 20 39  1  0
 20 40  1  0
M  ISO  8  21   8  22   8  23  14  24  14  25  14  26  14  27  14  28  14
M  ISO  8  29   8  30   8  31  13  32  13  33  13  34  13  35  13  36  13
M  ISO  4  37  13  38  13  39   5  40   5
M  END
>  <minimizedAffinity>  (1) 
-5.0989728

>  <minimizedRMSD>  (1) 
0.323014319

$$$$
