
     RDKit          3D

 35 38  0  0  0  0  0  0  0  0999 V2000
   39.0360   23.4980   34.7060 C   0  0  0  0  0  0  0  0  0  0  0  0
   39.0630   22.3270   33.9260 C   0  0  0  0  0  0  0  0  0  0  0  0
   40.2970   21.7270   33.7260 C   0  0  0  0  0  0  0  0  0  0  0  0
   41.4040   22.2750   34.2760 N   0  0  0  0  0  0  0  0  0  0  0  0
   41.3530   23.3930   35.0180 C   0  0  0  0  0  0  0  0  0  0  0  0
   40.1650   24.0110   35.2360 N   0  0  0  0  0  0  0  0  0  0  0  0
   37.8330   21.8760   33.4210 N   0  0  0  0  0  0  0  0  0  0  0  0
   37.0120   21.2720   34.3270 C   0  0  0  0  0  0  0  0  0  0  0  0
   35.7930   20.8110   33.8880 C   0  0  0  0  0  0  0  0  0  0  0  0
   35.4830   20.9890   32.5700 C   0  0  0  0  0  0  0  0  0  0  0  0
   34.2490   20.5420   32.0490 N   0  0  0  0  0  0  0  0  0  0  0  0
   36.3300   21.5930   31.7190 N   0  0  0  0  0  0  0  0  0  0  0  0
   37.5300   22.0480   32.1390 C   0  0  0  0  0  0  0  0  0  0  0  0
   38.2960   22.6050   31.3280 O   0  0  0  0  0  0  0  0  0  0  0  0
   42.5480   23.9870   35.6110 C   0  0  0  0  0  0  0  0  0  0  0  0
   43.2220   23.5800   36.7440 C   0  0  0  0  0  0  0  0  0  0  0  0
   44.2850   24.3980   36.9610 N   0  0  0  0  0  0  0  0  0  0  0  0
   44.3110   25.3230   35.9930 C   0  0  0  0  0  0  0  0  0  0  0  0
   45.2180   26.3460   35.8290 C   0  0  0  0  0  0  0  0  0  0  0  0
   45.0660   27.1930   34.7610 C   0  0  0  0  0  0  0  0  0  0  0  0
   43.9950   26.9650   33.9020 C   0  0  0  0  0  0  0  0  0  0  0  0
   43.0840   25.9390   34.0660 C   0  0  0  0  0  0  0  0  0  0  0  0
   43.2510   25.0830   35.1580 C   0  0  0  0  0  0  0  0  0  0  0  0
   38.0763   24.0042   34.8867 H   0  0  0  0  0  0  0  0  0  0  0  0
   40.3749   20.8102   33.1232 H   0  0  0  0  0  0  0  0  0  0  0  0
   37.3158   21.1569   35.3779 H   0  0  0  0  0  0  0  0  0  0  0  0
   35.0914   20.3156   34.5753 H   0  0  0  0  0  0  0  0  0  0  0  0
   34.0291   20.6833   31.0527 H   0  0  0  0  0  0  0  0  0  0  0  0
   33.5688   20.0747   32.6653 H   0  0  0  0  0  0  0  0  0  0  0  0
   42.9416   22.7239   37.3753 H   0  0  0  0  0  0  0  0  0  0  0  0
   44.9567   24.3199   37.7380 H   0  0  0  0  0  0  0  0  0  0  0  0
   46.0469   26.4810   36.5395 H   0  0  0  0  0  0  0  0  0  0  0  0
   45.7663   28.0237   34.5893 H   0  0  0  0  0  0  0  0  0  0  0  0
   43.8663   27.6403   33.0432 H   0  0  0  0  0  0  0  0  0  0  0  0
   42.2530   25.8003   33.3588 H   0  0  0  0  0  0  0  0  0  0  0  0
  1  6  2  0
  2  1  1  0
  3  2  2  0
  3  4  1  0
  4  5  2  0
  5  6  1  0
  5 15  1  0
  7  2  1  0
  7  8  1  0
  9  8  2  0
 10  9  1  0
 11 10  1  0
 12 13  1  0
 12 10  2  0
 13  7  1  0
 14 13  2  0
 15 16  2  0
 16 17  1  0
 18 17  1  0
 19 18  2  0
 20 19  1  0
 21 22  1  0
 21 20  2  0
 22 23  2  0
 23 15  1  0
 23 18  1  0
  1 24  1  0
  3 25  1  0
  8 26  1  0
  9 27  1  0
 11 28  1  0
 11 29  1  0
 16 30  1  0
 17 31  1  0
 19 32  1  0
 20 33  1  0
 21 34  1  0
 22 35  1  0
M  ISO  8  24  14  25  14  26  14  27  14  30  14  31   9  32  14  33  14
M  ISO  2  34  14  35  14
M  END
>  <minimizedAffinity>  (1) 
-4.45405769

>  <minimizedRMSD>  (1) 
4.03011322

$$$$
