
     RDKit          3D

 45 47  0  0  1  0  0  0  0  0999 V2000
   35.9350   24.6260   31.3960 C   0  0  0  0  0  0  0  0  0  0  0  0
   36.8480   25.8550   31.2870 C   0  0  1  0  0  0  0  0  0  0  0  0
   36.0520   26.9870   30.7410 C   0  0  0  0  0  0  0  0  0  0  0  0
   36.5300   28.2060   31.4470 C   0  0  0  0  0  0  0  0  0  0  0  0
   36.8920   27.6820   32.8320 C   0  0  0  0  0  0  0  0  0  0  0  0
   37.1580   26.2610   32.7020 C   0  0  2  0  0  0  0  0  0  0  0  0
   38.3300   25.6980   33.2710 N   0  0  0  0  0  0  0  0  0  0  0  0
   38.6610   25.6420   34.6470 C   0  0  0  0  0  0  0  0  0  0  0  0
   37.7930   25.8900   35.5550 N   0  0  0  0  0  0  0  0  0  0  0  0
   39.9230   25.3260   35.2230 N   0  0  0  0  0  0  0  0  0  0  0  0
   36.8280   26.1360   35.2870 H   0  0  0  0  0  0  0  0  0  0  0  0
   36.7050   23.3500   31.2880 C   0  0  0  0  0  0  0  0  0  0  0  0
   37.1450   21.9170   34.6860 C   0  0  0  0  0  0  0  0  0  0  0  0
   36.3010   20.8450   34.7130 C   0  0  0  0  0  0  0  0  0  0  0  0
   35.5460   20.5540   33.5900 C   0  0  0  0  0  0  0  0  0  0  0  0
   35.6990   21.3730   32.5120 C   0  0  0  0  0  0  0  0  0  0  0  0
   36.5360   22.4600   32.4440 C   0  0  0  0  0  0  0  0  0  0  0  0
   37.2250   22.6670   33.5690 N   0  0  0  0  0  0  0  0  0  0  0  0
   39.9860   22.4140   36.9220 C   0  0  0  0  0  0  0  0  0  0  0  0
   39.4340   23.0620   38.0330 C   0  0  0  0  0  0  0  0  0  0  0  0
   38.0380   23.3200   37.9770 C   0  0  0  0  0  0  0  0  0  0  0  0
   37.3530   22.9210   36.8610 N   0  0  0  0  0  0  0  0  0  0  0  0
   37.9710   22.2920   35.8180 C   0  0  0  0  0  0  0  0  0  0  0  0
   39.2830   22.0390   35.8470 N   0  0  0  0  0  0  0  0  0  0  0  0
   35.4205   24.6500   32.3680 H   0  0  0  0  0  0  0  0  0  0  0  0
   35.2144   24.6613   30.5656 H   0  0  0  0  0  0  0  0  0  0  0  0
   37.7319   25.6349   30.6703 H   0  0  0  0  0  0  0  0  0  0  0  0
   36.2183   27.0832   29.6579 H   0  0  0  0  0  0  0  0  0  0  0  0
   34.9740   26.8308   30.8940 H   0  0  0  0  0  0  0  0  0  0  0  0
   37.4096   28.6344   30.9443 H   0  0  0  0  0  0  0  0  0  0  0  0
   35.7832   29.0133   31.4711 H   0  0  0  0  0  0  0  0  0  0  0  0
   37.7871   28.1993   33.2077 H   0  0  0  0  0  0  0  0  0  0  0  0
   36.0708   27.8603   33.5418 H   0  0  0  0  0  0  0  0  0  0  0  0
   36.4726   25.7704   33.4088 H   0  0  0  0  0  0  0  0  0  0  0  0
   39.0103   25.2877   32.6154 H   0  0  0  0  0  0  0  0  0  0  0  0
   40.0346   25.3194   36.2469 H   0  0  0  0  0  0  0  0  0  0  0  0
   40.7250   25.1038   34.6161 H   0  0  0  0  0  0  0  0  0  0  0  0
   36.3688   22.8165   30.3867 H   0  0  0  0  0  0  0  0  0  0  0  0
   37.7704   23.6198   31.2425 H   0  0  0  0  0  0  0  0  0  0  0  0
   36.2218   20.2206   35.6151 H   0  0  0  0  0  0  0  0  0  0  0  0
   34.8534   19.6997   33.5688 H   0  0  0  0  0  0  0  0  0  0  0  0
   35.1001   21.1438   31.6183 H   0  0  0  0  0  0  0  0  0  0  0  0
   41.0649   22.1997   36.9333 H   0  0  0  0  0  0  0  0  0  0  0  0
   40.0455   23.3546   38.8993 H   0  0  0  0  0  0  0  0  0  0  0  0
   37.5224   23.8259   38.8066 H   0  0  0  0  0  0  0  0  0  0  0  0
  2  1  1  0
  2  6  1  0
  3  2  1  0
  3  4  1  0
  4  5  1  0
  6  5  1  0
  6  7  1  0
  7  8  1  0
  8 10  1  0
  8  9  2  0
 11  9  1  0
 12  1  1  0
 12 17  1  0
 13 14  2  0
 13 23  1  0
 15 14  1  0
 16 15  2  0
 17 16  1  0
 17 18  2  0
 18 13  1  0
 19 20  2  0
 21 20  1  0
 22 21  2  0
 23 24  2  0
 23 22  1  0
 24 19  1  0
  1 25  1  0
  1 26  1  0
  2 27  1  6
  3 28  1  0
  3 29  1  0
  4 30  1  0
  4 31  1  0
  5 32  1  0
  5 33  1  0
  6 34  1  1
  7 35  1  0
 10 36  1  0
 10 37  1  0
 12 38  1  0
 12 39  1  0
 14 40  1  0
 15 41  1  0
 16 42  1  0
 19 43  1  0
 20 44  1  0
 21 45  1  0
M  ISO  8  25   8  26   8  27  13  28  13  29  13  30  13  31  13  32  13
M  ISO  8  33  13  34  13  38   8  39   8  40  14  41  14  42  14  43  14
M  ISO  2  44  14  45  14
M  END
>  <minimizedAffinity>  (1) 
-5.30753326

>  <minimizedRMSD>  (1) 
1.2172488

$$$$
