
     RDKit          3D

 45 48  0  0  1  0  0  0  0  0999 V2000
   36.9110   23.5010   31.2540 C   0  0  0  0  0  0  0  0  0  0  0  0
   37.2000   22.0090   34.6520 C   0  0  0  0  0  0  0  0  0  0  0  0
   36.3240   20.9540   34.6290 C   0  0  0  0  0  0  0  0  0  0  0  0
   35.6070   20.7030   33.4720 C   0  0  0  0  0  0  0  0  0  0  0  0
   35.8180   21.5300   32.4200 C   0  0  0  0  0  0  0  0  0  0  0  0
   36.6810   22.5990   32.3950 C   0  0  0  0  0  0  0  0  0  0  0  0
   37.3330   22.7710   33.5480 N   0  0  0  0  0  0  0  0  0  0  0  0
   39.9710   22.5200   36.9680 C   0  0  0  0  0  0  0  0  0  0  0  0
   39.3750   23.0530   38.0970 C   0  0  0  0  0  0  0  0  0  0  0  0
   37.9790   23.2340   38.0390 C   0  0  0  0  0  0  0  0  0  0  0  0
   37.3210   22.8740   36.8830 N   0  0  0  0  0  0  0  0  0  0  0  0
   37.9940   22.3540   35.8150 C   0  0  0  0  0  0  0  0  0  0  0  0
   39.3180   22.1740   35.8510 N   0  0  0  0  0  0  0  0  0  0  0  0
   36.1010   24.7640   31.3420 C   0  0  0  0  0  0  0  0  0  0  0  0
   36.9650   25.9890   31.5330 C   0  0  1  0  0  0  0  0  0  0  0  0
   36.4930   27.0880   30.6210 C   0  0  0  0  0  0  0  0  0  0  0  0
   36.8090   28.3290   31.4120 C   0  0  0  0  0  0  0  0  0  0  0  0
   36.3030   27.9390   32.8020 C   0  0  0  0  0  0  0  0  0  0  0  0
   36.6560   26.5070   32.9160 C   0  0  2  0  0  0  0  0  0  0  0  0
   37.6940   26.2210   33.8690 N   0  0  0  0  0  0  0  0  0  0  0  0
   38.9990   25.9000   33.6820 C   0  0  0  0  0  0  0  0  0  0  0  0
   39.6240   25.7090   34.8990 C   0  0  0  0  0  0  0  0  0  0  0  0
   38.7040   25.9110   35.8450 N   0  0  0  0  0  0  0  0  0  0  0  0
   37.5690   26.2130   35.2190 C   0  0  0  0  0  0  0  0  0  0  0  0
   36.6405   22.9730   30.3277 H   0  0  0  0  0  0  0  0  0  0  0  0
   37.9735   23.7857   31.2638 H   0  0  0  0  0  0  0  0  0  0  0  0
   36.1932   20.3172   35.5163 H   0  0  0  0  0  0  0  0  0  0  0  0
   34.8953   19.8666   33.4093 H   0  0  0  0  0  0  0  0  0  0  0  0
   35.2465   21.3273   31.5023 H   0  0  0  0  0  0  0  0  0  0  0  0
   41.0604   22.3694   36.9893 H   0  0  0  0  0  0  0  0  0  0  0  0
   39.9586   23.3206   38.9902 H   0  0  0  0  0  0  0  0  0  0  0  0
   37.4284   23.6520   38.8946 H   0  0  0  0  0  0  0  0  0  0  0  0
   35.5244   24.8796   30.4124 H   0  0  0  0  0  0  0  0  0  0  0  0
   35.4404   24.6791   32.2175 H   0  0  0  0  0  0  0  0  0  0  0  0
   38.0202   25.7341   31.3550 H   0  0  0  0  0  0  0  0  0  0  0  0
   35.4136   27.0057   30.4255 H   0  0  0  0  0  0  0  0  0  0  0  0
   36.9685   27.0682   29.6293 H   0  0  0  0  0  0  0  0  0  0  0  0
   37.8893   28.5362   31.4207 H   0  0  0  0  0  0  0  0  0  0  0  0
   36.3546   29.2463   31.0094 H   0  0  0  0  0  0  0  0  0  0  0  0
   36.8053   28.5299   33.5821 H   0  0  0  0  0  0  0  0  0  0  0  0
   35.2262   28.1236   32.9304 H   0  0  0  0  0  0  0  0  0  0  0  0
   35.7902   25.9712   33.3324 H   0  0  0  0  0  0  0  0  0  0  0  0
   39.4891   25.8054   32.7017 H   0  0  0  0  0  0  0  0  0  0  0  0
   40.6790   25.4414   35.0583 H   0  0  0  0  0  0  0  0  0  0  0  0
   36.6271   26.4333   35.7427 H   0  0  0  0  0  0  0  0  0  0  0  0
  1 14  1  0
  1  6  1  0
  2 12  1  0
  3  2  2  0
  4  3  1  0
  5  4  2  0
  6  5  1  0
  6  7  2  0
  7  2  1  0
  8  9  2  0
 10  9  1  0
 11 10  2  0
 12 13  2  0
 12 11  1  0
 13  8  1  0
 14 15  1  0
 15 19  1  0
 16 17  1  0
 16 15  1  0
 17 18  1  0
 18 19  1  0
 19 20  1  0
 20 24  1  0
 21 20  1  0
 21 22  2  0
 22 23  1  0
 24 23  2  0
  1 25  1  0
  1 26  1  0
  3 27  1  0
  4 28  1  0
  5 29  1  0
  8 30  1  0
  9 31  1  0
 10 32  1  0
 14 33  1  0
 14 34  1  0
 15 35  1  1
 16 36  1  0
 16 37  1  0
 17 38  1  0
 17 39  1  0
 18 40  1  0
 18 41  1  0
 19 42  1  1
 21 43  1  0
 22 44  1  0
 24 45  1  0
M  ISO  8  25   8  26   8  27  14  28  14  29  14  30  14  31  14  32  14
M  ISO  8  33   8  34   8  35  13  36  13  37  13  38  13  39  13  40  13
M  ISO  5  41  13  42  13  43  14  44  14  45  14
M  END
>  <minimizedAffinity>  (1) 
-5.41474056

>  <minimizedRMSD>  (1) 
1.84241569

$$$$
