
     RDKit          3D

 40 42  0  0  1  0  0  0  0  0999 V2000
   36.7370   23.3360   31.2300 C   0  0  0  0  0  0  0  0  0  0  0  0
   37.1530   21.9470   34.6460 C   0  0  0  0  0  0  0  0  0  0  0  0
   36.2910   20.8840   34.6800 C   0  0  0  0  0  0  0  0  0  0  0  0
   35.5400   20.6010   33.5490 C   0  0  0  0  0  0  0  0  0  0  0  0
   35.7060   21.3970   32.4740 C   0  0  0  0  0  0  0  0  0  0  0  0
   36.5570   22.4680   32.4000 C   0  0  0  0  0  0  0  0  0  0  0  0
   37.2460   22.6830   33.5210 N   0  0  0  0  0  0  0  0  0  0  0  0
   39.9890   22.4430   36.8880 C   0  0  0  0  0  0  0  0  0  0  0  0
   39.4520   23.0750   37.9960 C   0  0  0  0  0  0  0  0  0  0  0  0
   38.0720   23.3210   37.9370 C   0  0  0  0  0  0  0  0  0  0  0  0
   37.3840   22.9300   36.8220 N   0  0  0  0  0  0  0  0  0  0  0  0
   37.9790   22.3200   35.7820 C   0  0  0  0  0  0  0  0  0  0  0  0
   39.2910   22.0700   35.8060 N   0  0  0  0  0  0  0  0  0  0  0  0
   35.9640   24.6180   31.3350 C   0  0  0  0  0  0  0  0  0  0  0  0
   36.8680   25.8400   31.3970 C   0  0  1  0  0  0  0  0  0  0  0  0
   36.1530   27.0280   30.8230 C   0  0  0  0  0  0  0  0  0  0  0  0
   36.7450   28.1710   31.6430 C   0  0  0  0  0  0  0  0  0  0  0  0
   36.6530   27.5800   33.0290 C   0  0  0  0  0  0  0  0  0  0  0  0
   37.1660   26.1470   32.8240 C   0  0  2  0  0  0  0  0  0  0  0  0
   38.6450   26.1150   33.1110 C   0  0  0  0  0  0  0  0  0  0  0  0
   39.2020   26.9280   33.8050 O   0  0  0  0  0  0  0  0  0  0  0  0
   36.3993   22.7939   30.3344 H   0  0  0  0  0  0  0  0  0  0  0  0
   37.8042   23.5957   31.1703 H   0  0  0  0  0  0  0  0  0  0  0  0
   36.1960   20.2671   35.5857 H   0  0  0  0  0  0  0  0  0  0  0  0
   34.8343   19.7574   33.5299 H   0  0  0  0  0  0  0  0  0  0  0  0
   35.1073   21.1671   31.5803 H   0  0  0  0  0  0  0  0  0  0  0  0
   41.0684   22.2311   36.8958 H   0  0  0  0  0  0  0  0  0  0  0  0
   40.0646   23.3643   38.8626 H   0  0  0  0  0  0  0  0  0  0  0  0
   37.5543   23.8182   38.7705 H   0  0  0  0  0  0  0  0  0  0  0  0
   35.3090   24.7080   30.4559 H   0  0  0  0  0  0  0  0  0  0  0  0
   35.3845   24.5833   32.2693 H   0  0  0  0  0  0  0  0  0  0  0  0
   37.7889   25.6343   30.8315 H   0  0  0  0  0  0  0  0  0  0  0  0
   36.3712   27.1482   29.7516 H   0  0  0  0  0  0  0  0  0  0  0  0
   35.0566   26.9593   30.8790 H   0  0  0  0  0  0  0  0  0  0  0  0
   37.7865   28.3805   31.3576 H   0  0  0  0  0  0  0  0  0  0  0  0
   36.2376   29.1391   31.5193 H   0  0  0  0  0  0  0  0  0  0  0  0
   37.2892   28.1308   33.7374 H   0  0  0  0  0  0  0  0  0  0  0  0
   35.6391   27.6225   33.4536 H   0  0  0  0  0  0  0  0  0  0  0  0
   36.6968   25.4068   33.4888 H   0  0  0  0  0  0  0  0  0  0  0  0
   39.2464   25.3093   32.6648 H   0  0  0  0  0  0  0  0  0  0  0  0
  1 14  1  0
  1  6  1  0
  2  3  2  0
  2 12  1  0
  4  3  1  0
  5  4  2  0
  6  5  1  0
  6  7  2  0
  7  2  1  0
  8  9  2  0
 10  9  1  0
 11 10  2  0
 12 13  2  0
 12 11  1  0
 13  8  1  0
 14 15  1  0
 15 19  1  0
 16 15  1  0
 16 17  1  0
 17 18  1  0
 19 18  1  0
 19 20  1  0
 20 21  2  0
  1 22  1  0
  1 23  1  0
  3 24  1  0
  4 25  1  0
  5 26  1  0
  8 27  1  0
  9 28  1  0
 10 29  1  0
 14 30  1  0
 14 31  1  0
 15 32  1  6
 16 33  1  0
 16 34  1  0
 17 35  1  0
 17 36  1  0
 18 37  1  0
 18 38  1  0
 19 39  1  1
 20 40  1  0
M  ISO  8  22   8  23   8  24  14  25  14  26  14  27  14  28  14  29  14
M  ISO  8  30   8  31   8  32  13  33  13  34  13  35  13  36  13  37  13
M  ISO  3  38  13  39  13  40   6
M  END
>  <minimizedAffinity>  (1) 
-5.01315165

>  <minimizedRMSD>  (1) 
0.802577436

$$$$
