
     RDKit          3D

 31 34  0  0  0  0  0  0  0  0999 V2000
   37.8190   24.2230   32.7290 C   0  0  0  0  0  0  0  0  0  0  0  0
   38.4400   23.1020   32.2400 C   0  0  0  0  0  0  0  0  0  0  0  0
   39.4260   22.5310   32.9750 C   0  0  0  0  0  0  0  0  0  0  0  0
   39.7680   23.0720   34.1460 C   0  0  0  0  0  0  0  0  0  0  0  0
   38.6130   24.5070   34.2460 S   0  0  0  0  0  0  0  0  0  0  0  0
   40.6360   22.8900   35.2890 C   0  0  0  0  0  0  0  0  0  0  0  0
   40.3730   21.9320   36.2210 N   0  0  0  0  0  0  0  0  0  0  0  0
   41.1830   21.6520   37.2360 C   0  0  0  0  0  0  0  0  0  0  0  0
   42.3280   22.2870   37.4290 N   0  0  0  0  0  0  0  0  0  0  0  0
   42.6950   23.2610   36.5680 C   0  0  0  0  0  0  0  0  0  0  0  0
   43.8660   23.9540   36.7690 C   0  0  0  0  0  0  0  0  0  0  0  0
   44.2340   24.9700   35.9220 C   0  0  0  0  0  0  0  0  0  0  0  0
   43.3570   25.2450   34.8660 C   0  0  0  0  0  0  0  0  0  0  0  0
   42.2020   24.5240   34.7120 C   0  0  0  0  0  0  0  0  0  0  0  0
   41.8160   23.5060   35.5410 C   0  0  0  0  0  0  0  0  0  0  0  0
   36.7440   25.0000   32.1270 C   0  0  0  0  0  0  0  0  0  0  0  0
   35.7240   24.3870   31.4020 C   0  0  0  0  0  0  0  0  0  0  0  0
   34.7380   25.2390   30.8570 C   0  0  0  0  0  0  0  0  0  0  0  0
   34.8480   26.5840   31.0730 N   0  0  0  0  0  0  0  0  0  0  0  0
   35.8560   27.1310   31.7840 C   0  0  0  0  0  0  0  0  0  0  0  0
   36.8100   26.3310   32.3140 N   0  0  0  0  0  0  0  0  0  0  0  0
   38.1439   22.6746   31.2706 H   0  0  0  0  0  0  0  0  0  0  0  0
   39.9396   21.6296   32.6092 H   0  0  0  0  0  0  0  0  0  0  0  0
   40.8908   20.8619   37.9433 H   0  0  0  0  0  0  0  0  0  0  0  0
   44.5147   23.6914   37.6176 H   0  0  0  0  0  0  0  0  0  0  0  0
   45.1660   25.5364   36.0652 H   0  0  0  0  0  0  0  0  0  0  0  0
   43.5974   26.0475   34.1531 H   0  0  0  0  0  0  0  0  0  0  0  0
   41.5435   24.7797   33.8688 H   0  0  0  0  0  0  0  0  0  0  0  0
   35.6885   23.2966   31.2615 H   0  0  0  0  0  0  0  0  0  0  0  0
   33.9011   24.8295   30.2723 H   0  0  0  0  0  0  0  0  0  0  0  0
   35.9019   28.2201   31.9318 H   0  0  0  0  0  0  0  0  0  0  0  0
  1  5  1  0
  2  1  2  0
  2  3  1  0
  3  4  2  0
  4  5  1  0
  4  6  1  0
  6 15  1  0
  6  7  2  0
  7  8  1  0
  8  9  2  0
 10 11  2  0
 10  9  1  0
 12 11  1  0
 13 12  2  0
 14 13  1  0
 14 15  2  0
 15 10  1  0
 16 21  1  0
 16  1  1  0
 17 16  2  0
 18 19  2  0
 18 17  1  0
 19 20  1  0
 20 21  2  0
  2 22  1  0
  3 23  1  0
  8 24  1  0
 11 25  1  0
 12 26  1  0
 13 27  1  0
 14 28  1  0
 17 29  1  0
 18 30  1  0
 20 31  1  0
M  ISO  8  22  14  23  14  24  14  25  14  26  14  27  14  28  14  29  14
M  ISO  2  30  14  31  14
M  END
>  <minimizedAffinity>  (1) 
-4.28925705

>  <minimizedRMSD>  (1) 
3.87832761

$$$$
