
     RDKit          3D

 26 28  0  0  0  0  0  0  0  0999 V2000
   36.9120   21.4250   32.6010 C   0  0  0  0  0  0  0  0  0  0  0  0
   36.5840   22.4880   31.7960 C   0  0  0  0  0  0  0  0  0  0  0  0
   36.9540   23.7390   32.1870 C   0  0  0  0  0  0  0  0  0  0  0  0
   37.6290   23.8700   33.3520 C   0  0  0  0  0  0  0  0  0  0  0  0
   37.7610   22.1280   33.9530 S   0  0  0  0  0  0  0  0  0  0  0  0
   36.6210   20.0100   32.3710 C   0  0  0  0  0  0  0  0  0  0  0  0
   35.4600   19.4240   32.9160 C   0  0  0  0  0  0  0  0  0  0  0  0
   35.2720   18.0510   32.6400 C   0  0  0  0  0  0  0  0  0  0  0  0
   36.2100   17.4040   31.8840 N   0  0  0  0  0  0  0  0  0  0  0  0
   37.3030   18.0170   31.3890 C   0  0  0  0  0  0  0  0  0  0  0  0
   37.4940   19.3270   31.6450 N   0  0  0  0  0  0  0  0  0  0  0  0
   38.1560   25.0370   34.0370 C   0  0  0  0  0  0  0  0  0  0  0  0
   37.3390   26.0930   34.3790 C   0  0  0  0  0  0  0  0  0  0  0  0
   37.9230   27.1580   35.0260 C   0  0  0  0  0  0  0  0  0  0  0  0
   39.2840   27.1990   35.3370 C   0  0  0  0  0  0  0  0  0  0  0  0
   40.0320   26.1030   34.9600 C   0  0  0  0  0  0  0  0  0  0  0  0
   39.4870   25.0330   34.3190 N   0  0  0  0  0  0  0  0  0  0  0  0
   36.0344   22.3325   30.8559 H   0  0  0  0  0  0  0  0  0  0  0  0
   36.7108   24.6184   31.5726 H   0  0  0  0  0  0  0  0  0  0  0  0
   34.7439   20.0009   33.5196 H   0  0  0  0  0  0  0  0  0  0  0  0
   34.3916   17.5151   33.0243 H   0  0  0  0  0  0  0  0  0  0  0  0
   38.0302   17.4559   30.7838 H   0  0  0  0  0  0  0  0  0  0  0  0
   36.2643   26.0849   34.1444 H   0  0  0  0  0  0  0  0  0  0  0  0
   37.2915   28.0127   35.3101 H   0  0  0  0  0  0  0  0  0  0  0  0
   39.7349   28.0586   35.8545 H   0  0  0  0  0  0  0  0  0  0  0  0
   41.1086   26.0934   35.1857 H   0  0  0  0  0  0  0  0  0  0  0  0
  1  5  1  0
  2  3  1  0
  2  1  2  0
  3  4  2  0
  4  5  1  0
  4 12  1  0
  6  1  1  0
  6  7  2  0
  8  7  1  0
  9  8  2  0
 10 11  2  0
 10  9  1  0
 11  6  1  0
 12 17  1  0
 12 13  2  0
 13 14  1  0
 14 15  2  0
 16 15  1  0
 17 16  2  0
  2 18  1  0
  3 19  1  0
  7 20  1  0
  8 21  1  0
 10 22  1  0
 13 23  1  0
 14 24  1  0
 15 25  1  0
 16 26  1  0
M  ISO  8  18  14  19  14  20  14  21  14  22  14  23  14  24  14  25  14
M  ISO  1  26  14
M  END
>  <minimizedAffinity>  (1) 
-4.24732685

>  <minimizedRMSD>  (1) 
4.47538805

$$$$
