
     RDKit          3D

 30 32  0  0  0  0  0  0  0  0999 V2000
   38.1020   21.4870   33.1500 C   0  0  0  0  0  0  0  0  0  0  0  0
   39.3440   22.0740   33.1420 C   0  0  0  0  0  0  0  0  0  0  0  0
   39.7400   22.8050   34.2080 C   0  0  0  0  0  0  0  0  0  0  0  0
   38.8840   22.9220   35.2460 C   0  0  0  0  0  0  0  0  0  0  0  0
   37.4120   21.9420   34.6960 S   0  0  0  0  0  0  0  0  0  0  0  0
   37.4800   20.6610   32.1080 C   0  0  0  0  0  0  0  0  0  0  0  0
   36.3350   19.9120   32.3850 C   0  0  0  0  0  0  0  0  0  0  0  0
   35.8210   19.1500   31.3030 C   0  0  0  0  0  0  0  0  0  0  0  0
   36.4520   19.1940   30.1130 N   0  0  0  0  0  0  0  0  0  0  0  0
   37.5630   19.9370   29.9020 C   0  0  0  0  0  0  0  0  0  0  0  0
   38.0870   20.6820   30.9070 N   0  0  0  0  0  0  0  0  0  0  0  0
   38.9710   23.6240   36.5460 C   0  0  0  0  0  0  0  0  0  0  0  0
   39.5640   22.8120   37.6510 C   0  0  0  0  0  0  0  0  0  0  0  0
   39.1070   23.5520   38.9120 C   0  0  0  0  0  0  0  0  0  0  0  0
   37.8950   24.3520   38.4970 C   0  0  0  0  0  0  0  0  0  0  0  0
   37.5930   23.9250   37.0750 C   0  0  0  0  0  0  0  0  0  0  0  0
   40.0105   21.9503   32.2757 H   0  0  0  0  0  0  0  0  0  0  0  0
   40.7276   23.2889   34.2293 H   0  0  0  0  0  0  0  0  0  0  0  0
   35.8614   19.9122   33.3778 H   0  0  0  0  0  0  0  0  0  0  0  0
   34.9203   18.5323   31.4341 H   0  0  0  0  0  0  0  0  0  0  0  0
   38.0428   19.9368   28.9121 H   0  0  0  0  0  0  0  0  0  0  0  0
   39.5909   24.5035   36.3176 H   0  0  0  0  0  0  0  0  0  0  0  0
   39.1770   21.7824   37.6356 H   0  0  0  0  0  0  0  0  0  0  0  0
   40.6575   22.7174   37.5784 H   0  0  0  0  0  0  0  0  0  0  0  0
   38.8414   22.8351   39.7029 H   0  0  0  0  0  0  0  0  0  0  0  0
   39.9014   24.1968   39.3158 H   0  0  0  0  0  0  0  0  0  0  0  0
   37.0426   24.1269   39.1548 H   0  0  0  0  0  0  0  0  0  0  0  0
   38.0780   25.4344   38.5670 H   0  0  0  0  0  0  0  0  0  0  0  0
   37.1136   24.7355   36.5064 H   0  0  0  0  0  0  0  0  0  0  0  0
   36.8928   23.0797   37.0023 H   0  0  0  0  0  0  0  0  0  0  0  0
  1  5  1  0
  2  1  2  0
  2  3  1  0
  3  4  2  0
  4 12  1  0
  5  4  1  0
  6  7  2  0
  6  1  1  0
  8  7  1  0
  9  8  2  0
 10  9  1  0
 10 11  2  0
 11  6  1  0
 12 16  1  0
 12 13  1  0
 13 14  1  0
 15 14  1  0
 16 15  1  0
  2 17  1  0
  3 18  1  0
  7 19  1  0
  8 20  1  0
 10 21  1  0
 12 22  1  0
 13 23  1  0
 13 24  1  0
 14 25  1  0
 14 26  1  0
 15 27  1  0
 15 28  1  0
 16 29  1  0
 16 30  1  0
M  ISO  8  17  14  18  14  19  14  20  14  21  14  22  13  23  13  24  13
M  ISO  6  25  13  26  13  27  13  28  13  29  13  30  13
M  END
>  <minimizedAffinity>  (1) 
-4.1282773

>  <minimizedRMSD>  (1) 
2.12981629

$$$$
