
     RDKit          3D

 24 26  0  0  0  0  0  0  0  0999 V2000
   37.6260   21.8100   35.0940 C   0  0  0  0  0  0  0  0  0  0  0  0
   36.3660   21.2940   34.9090 C   0  0  0  0  0  0  0  0  0  0  0  0
   36.0660   20.7530   33.6920 C   0  0  0  0  0  0  0  0  0  0  0  0
   37.0140   20.7510   32.7300 C   0  0  0  0  0  0  0  0  0  0  0  0
   38.4520   21.5630   33.5680 S   0  0  0  0  0  0  0  0  0  0  0  0
   38.1700   22.4310   36.3050 C   0  0  0  0  0  0  0  0  0  0  0  0
   39.5210   22.3040   36.6310 C   0  0  0  0  0  0  0  0  0  0  0  0
   39.9570   22.9320   37.8120 C   0  0  0  0  0  0  0  0  0  0  0  0
   39.0500   23.6100   38.5460 N   0  0  0  0  0  0  0  0  0  0  0  0
   37.7550   23.7090   38.1940 C   0  0  0  0  0  0  0  0  0  0  0  0
   37.3020   23.1080   37.0520 N   0  0  0  0  0  0  0  0  0  0  0  0
   37.0080   20.2770   31.4030 N   0  0  0  0  0  0  0  0  0  0  0  0
   38.0700   20.5170   30.5810 C   0  0  0  0  0  0  0  0  0  0  0  0
   37.7800   19.9410   29.3630 C   0  0  0  0  0  0  0  0  0  0  0  0
   36.5590   19.3650   29.4640 N   0  0  0  0  0  0  0  0  0  0  0  0
   36.0840   19.5680   30.7090 C   0  0  0  0  0  0  0  0  0  0  0  0
   35.6208   21.3162   35.7178 H   0  0  0  0  0  0  0  0  0  0  0  0
   35.0706   20.3266   33.4985 H   0  0  0  0  0  0  0  0  0  0  0  0
   40.2147   21.7375   35.9924 H   0  0  0  0  0  0  0  0  0  0  0  0
   41.0088   22.8720   38.1285 H   0  0  0  0  0  0  0  0  0  0  0  0
   37.0573   24.2761   38.8278 H   0  0  0  0  0  0  0  0  0  0  0  0
   38.9862   21.0672   30.8416 H   0  0  0  0  0  0  0  0  0  0  0  0
   38.4236   19.9480   28.4710 H   0  0  0  0  0  0  0  0  0  0  0  0
   35.1149   19.2190   31.0950 H   0  0  0  0  0  0  0  0  0  0  0  0
  1  6  1  0
  2  1  2  0
  3  2  1  0
  4  5  1  0
  4  3  2  0
  5  1  1  0
  6  7  2  0
  6 11  1  0
  7  8  1  0
  8  9  2  0
 10  9  1  0
 11 10  2  0
 12  4  1  0
 13 12  1  0
 14 15  1  0
 14 13  2  0
 15 16  2  0
 16 12  1  0
  2 17  1  0
  3 18  1  0
  7 19  1  0
  8 20  1  0
 10 21  1  0
 13 22  1  0
 14 23  1  0
 16 24  1  0
M  ISO  8  17  14  18  14  19  14  20  14  21  14  22  14  23  14  24  14
M  END
>  <minimizedAffinity>  (1) 
-3.87038612

>  <minimizedRMSD>  (1) 
7.1820097

$$$$
