
     RDKit          3D

 24 26  0  0  0  0  0  0  0  0999 V2000
   38.1060   21.3410   33.2120 C   0  0  0  0  0  0  0  0  0  0  0  0
   39.3860   21.8000   33.4260 C   0  0  0  0  0  0  0  0  0  0  0  0
   39.6530   22.4020   34.6190 C   0  0  0  0  0  0  0  0  0  0  0  0
   38.6660   22.5230   35.5320 C   0  0  0  0  0  0  0  0  0  0  0  0
   37.2150   21.7310   34.6730 S   0  0  0  0  0  0  0  0  0  0  0  0
   37.5900   20.6620   32.0170 C   0  0  0  0  0  0  0  0  0  0  0  0
   36.3850   19.9590   32.0620 C   0  0  0  0  0  0  0  0  0  0  0  0
   35.9640   19.3330   30.8730 C   0  0  0  0  0  0  0  0  0  0  0  0
   36.7480   19.4570   29.7830 N   0  0  0  0  0  0  0  0  0  0  0  0
   37.9140   20.1510   29.7810 C   0  0  0  0  0  0  0  0  0  0  0  0
   38.3200   20.7500   30.9160 N   0  0  0  0  0  0  0  0  0  0  0  0
   38.6340   23.0840   36.8260 N   0  0  0  0  0  0  0  0  0  0  0  0
   37.6700   23.9000   37.1700 N   0  0  0  0  0  0  0  0  0  0  0  0
   37.8710   24.2940   38.4540 C   0  0  0  0  0  0  0  0  0  0  0  0
   39.0390   23.6460   38.8630 C   0  0  0  0  0  0  0  0  0  0  0  0
   39.5280   22.8750   37.8310 C   0  0  0  0  0  0  0  0  0  0  0  0
   40.1669   21.6847   32.6599 H   0  0  0  0  0  0  0  0  0  0  0  0
   40.6612   22.7850   34.8356 H   0  0  0  0  0  0  0  0  0  0  0  0
   35.7905   19.8968   32.9854 H   0  0  0  0  0  0  0  0  0  0  0  0
   35.0252   18.7609   30.8346 H   0  0  0  0  0  0  0  0  0  0  0  0
   38.5188   20.2231   28.8650 H   0  0  0  0  0  0  0  0  0  0  0  0
   37.2463   24.9785   39.0466 H   0  0  0  0  0  0  0  0  0  0  0  0
   39.4987   23.7374   39.8581 H   0  0  0  0  0  0  0  0  0  0  0  0
   40.4271   22.2413   37.8215 H   0  0  0  0  0  0  0  0  0  0  0  0
  1  2  2  0
  1  5  1  0
  2  3  1  0
  3  4  2  0
  4 12  1  0
  5  4  1  0
  6  7  2  0
  6  1  1  0
  8  7  1  0
  9  8  2  0
 10  9  1  0
 10 11  2  0
 11  6  1  0
 12 13  1  0
 12 16  1  0
 13 14  2  0
 14 15  1  0
 16 15  2  0
  2 17  1  0
  3 18  1  0
  7 19  1  0
  8 20  1  0
 10 21  1  0
 14 22  1  0
 15 23  1  0
 16 24  1  0
M  ISO  8  17  14  18  14  19  14  20  14  21  14  22  14  23  14  24  14
M  END
>  <minimizedAffinity>  (1) 
-3.81719685

>  <minimizedRMSD>  (1) 
2.23989201

$$$$
