
     RDKit          3D

 26 27  0  0  0  0  0  0  0  0999 V2000
   37.3720   22.1090   33.9980 C   0  0  0  0  0  0  0  0  0  0  0  0
   38.0570   23.2740   33.7640 C   0  0  0  0  0  0  0  0  0  0  0  0
   38.6340   23.9270   34.7990 C   0  0  0  0  0  0  0  0  0  0  0  0
   38.5070   23.3940   36.0330 C   0  0  0  0  0  0  0  0  0  0  0  0
   37.5030   21.8590   35.7280 S   0  0  0  0  0  0  0  0  0  0  0  0
   36.6840   21.2590   33.0280 C   0  0  0  0  0  0  0  0  0  0  0  0
   35.6500   20.4120   33.4280 C   0  0  0  0  0  0  0  0  0  0  0  0
   35.0450   19.6260   32.4160 C   0  0  0  0  0  0  0  0  0  0  0  0
   35.5050   19.7520   31.1530 N   0  0  0  0  0  0  0  0  0  0  0  0
   36.5140   20.5900   30.8070 C   0  0  0  0  0  0  0  0  0  0  0  0
   37.0950   21.3390   31.7640 N   0  0  0  0  0  0  0  0  0  0  0  0
   38.9840   23.8050   37.3730 C   0  0  0  0  0  0  0  0  0  0  0  0
   39.9950   22.7660   37.8330 C   0  0  0  0  0  0  0  0  0  0  0  0
   37.8040   23.8950   38.2700 C   0  0  0  0  0  0  0  0  0  0  0  0
   38.1367   23.6744   32.7426 H   0  0  0  0  0  0  0  0  0  0  0  0
   39.1894   24.8631   34.6401 H   0  0  0  0  0  0  0  0  0  0  0  0
   35.3210   20.3571   34.4762 H   0  0  0  0  0  0  0  0  0  0  0  0
   34.2241   18.9331   32.6527 H   0  0  0  0  0  0  0  0  0  0  0  0
   36.8521   20.6568   29.7624 H   0  0  0  0  0  0  0  0  0  0  0  0
   39.4777   24.7880   37.3714 H   0  0  0  0  0  0  0  0  0  0  0  0
   40.0200   22.7403   38.9324 H   0  0  0  0  0  0  0  0  0  0  0  0
   39.7044   21.7768   37.4496 H   0  0  0  0  0  0  0  0  0  0  0  0
   40.9918   23.0295   37.4496 H   0  0  0  0  0  0  0  0  0  0  0  0
   38.1373   23.8696   39.3180 H   0  0  0  0  0  0  0  0  0  0  0  0
   37.2686   24.8366   38.0782 H   0  0  0  0  0  0  0  0  0  0  0  0
   37.1320   23.0455   38.0782 H   0  0  0  0  0  0  0  0  0  0  0  0
  1  5  1  0
  2  1  2  0
  2  3  1  0
  3  4  2  0
  4 12  1  0
  5  4  1  0
  6  7  2  0
  6  1  1  0
  8  7  1  0
  9  8  2  0
 10  9  1  0
 10 11  2  0
 11  6  1  0
 12 13  1  0
 12 14  1  0
  2 15  1  0
  3 16  1  0
  7 17  1  0
  8 18  1  0
 10 19  1  0
 12 20  1  0
 13 21  1  0
 13 22  1  0
 13 23  1  0
 14 24  1  0
 14 25  1  0
 14 26  1  0
M  ISO  8  15  14  16  14  17  14  18  14  19  14  20   8  21   8  22   8
M  ISO  4  23   8  24   8  25   8  26   8
M  END
>  <minimizedAffinity>  (1) 
-3.85188818

>  <minimizedRMSD>  (1) 
1.57557404

$$$$
