
     RDKit          3D

 19 20  0  0  0  0  0  0  0  0999 V2000
   37.9820   22.1210   34.6410 C   0  0  0  0  0  0  0  0  0  0  0  0
   39.3540   22.1140   34.5950 C   0  0  0  0  0  0  0  0  0  0  0  0
   40.0460   22.3080   35.7520 C   0  0  0  0  0  0  0  0  0  0  0  0
   39.3420   22.4980   36.8900 C   0  0  0  0  0  0  0  0  0  0  0  0
   37.5860   22.4030   36.3270 S   0  0  0  0  0  0  0  0  0  0  0  0
   37.0440   21.9300   33.5260 C   0  0  0  0  0  0  0  0  0  0  0  0
   36.0430   20.9480   33.5990 C   0  0  0  0  0  0  0  0  0  0  0  0
   35.1920   20.8400   32.4710 C   0  0  0  0  0  0  0  0  0  0  0  0
   35.4140   21.6910   31.4220 N   0  0  0  0  0  0  0  0  0  0  0  0
   36.3840   22.6080   31.4090 C   0  0  0  0  0  0  0  0  0  0  0  0
   37.2060   22.7250   32.4770 N   0  0  0  0  0  0  0  0  0  0  0  0
   39.7630   22.7220   38.2240 N   0  0  0  0  0  0  0  0  0  0  0  0
   39.8833   21.9551   33.6439 H   0  0  0  0  0  0  0  0  0  0  0  0
   41.1460   22.3100   35.7600 H   0  0  0  0  0  0  0  0  0  0  0  0
   35.9262   20.3003   34.4804 H   0  0  0  0  0  0  0  0  0  0  0  0
   34.3808   20.0977   32.4394 H   0  0  0  0  0  0  0  0  0  0  0  0
   36.5140   23.2641   30.5357 H   0  0  0  0  0  0  0  0  0  0  0  0
   39.0643   22.8464   38.9705 H   0  0  0  0  0  0  0  0  0  0  0  0
   40.7678   22.7605   38.4474 H   0  0  0  0  0  0  0  0  0  0  0  0
  1  5  1  0
  2  1  2  0
  2  3  1  0
  3  4  2  0
  4 12  1  0
  5  4  1  0
  6  7  2  0
  6  1  1  0
  8  7  1  0
  9  8  2  0
 10  9  1  0
 10 11  2  0
 11  6  1  0
  2 13  1  0
  3 14  1  0
  7 15  1  0
  8 16  1  0
 10 17  1  0
 12 18  1  0
 12 19  1  0
M  ISO  5  13  14  14  14  15  14  16  14  17  14
M  END
>  <minimizedAffinity>  (1) 
-3.60149384

>  <minimizedRMSD>  (1) 
0.316983968

$$$$
