
     RDKit          3D

 24 26  0  0  0  0  0  0  0  0999 V2000
   37.9450   21.8060   34.6310 C   0  0  0  0  0  0  0  0  0  0  0  0
   36.6810   21.4600   34.2260 C   0  0  0  0  0  0  0  0  0  0  0  0
   36.4800   20.9830   32.9760 C   0  0  0  0  0  0  0  0  0  0  0  0
   37.5510   20.8680   32.1680 C   0  0  0  0  0  0  0  0  0  0  0  0
   38.9340   21.4670   33.2270 S   0  0  0  0  0  0  0  0  0  0  0  0
   38.3700   22.3330   35.9270 C   0  0  0  0  0  0  0  0  0  0  0  0
   39.7070   22.2300   36.3370 C   0  0  0  0  0  0  0  0  0  0  0  0
   39.9970   22.7740   37.6090 C   0  0  0  0  0  0  0  0  0  0  0  0
   39.0050   23.3380   38.3260 N   0  0  0  0  0  0  0  0  0  0  0  0
   37.7340   23.4110   37.8850 C   0  0  0  0  0  0  0  0  0  0  0  0
   37.4270   22.8970   36.6660 N   0  0  0  0  0  0  0  0  0  0  0  0
   37.7810   20.4340   30.8450 C   0  0  0  0  0  0  0  0  0  0  0  0
   38.7930   20.7910   29.9870 C   0  0  0  0  0  0  0  0  0  0  0  0
   38.8590   20.2720   28.7380 C   0  0  0  0  0  0  0  0  0  0  0  0
   37.7920   19.3120   28.3610 C   0  0  0  0  0  0  0  0  0  0  0  0
   36.7490   19.2590   29.9360 S   0  0  0  0  0  0  0  0  0  0  0  0
   35.8319   21.5702   34.9166 H   0  0  0  0  0  0  0  0  0  0  0  0
   35.4749   20.6985   32.6312 H   0  0  0  0  0  0  0  0  0  0  0  0
   40.4783   21.7576   35.7109 H   0  0  0  0  0  0  0  0  0  0  0  0
   41.0210   22.7374   38.0092 H   0  0  0  0  0  0  0  0  0  0  0  0
   36.9554   23.8806   38.5040 H   0  0  0  0  0  0  0  0  0  0  0  0
   39.5591   21.5073   30.3188 H   0  0  0  0  0  0  0  0  0  0  0  0
   39.6622   20.5478   28.0388 H   0  0  0  0  0  0  0  0  0  0  0  0
   37.6464   18.7727   27.4134 H   0  0  0  0  0  0  0  0  0  0  0  0
  1  6  1  0
  2  1  2  0
  3  2  1  0
  4  3  2  0
  4  5  1  0
  5  1  1  0
  6  7  2  0
  6 11  1  0
  7  8  1  0
  8  9  2  0
 10  9  1  0
 11 10  2  0
 12  4  1  0
 13 12  2  0
 14 13  1  0
 15 14  2  0
 15 16  1  0
 16 12  1  0
  2 17  1  0
  3 18  1  0
  7 19  1  0
  8 20  1  0
 10 21  1  0
 13 22  1  0
 14 23  1  0
 15 24  1  0
M  ISO  8  17  14  18  14  19  14  20  14  21  14  22  14  23  14  24  14
M  END
>  <minimizedAffinity>  (1) 
-3.83600569

>  <minimizedRMSD>  (1) 
7.42248058

$$$$
