
     RDKit          3D

 29 30  0  0  0  0  0  0  0  0999 V2000
   38.4340   21.8260   33.8560 C   0  0  0  0  0  0  0  0  0  0  0  0
   39.7310   21.7220   33.4170 C   0  0  0  0  0  0  0  0  0  0  0  0
   40.7390   21.9000   34.3130 C   0  0  0  0  0  0  0  0  0  0  0  0
   40.4200   22.1700   35.5970 C   0  0  0  0  0  0  0  0  0  0  0  0
   38.5710   22.1810   35.5680 S   0  0  0  0  0  0  0  0  0  0  0  0
   37.2060   21.6720   33.0770 C   0  0  0  0  0  0  0  0  0  0  0  0
   36.1960   20.7880   33.4960 C   0  0  0  0  0  0  0  0  0  0  0  0
   35.0540   20.7220   32.6630 C   0  0  0  0  0  0  0  0  0  0  0  0
   35.0120   21.4890   31.5550 N   0  0  0  0  0  0  0  0  0  0  0  0
   36.0040   22.3210   31.1970 C   0  0  0  0  0  0  0  0  0  0  0  0
   37.1140   22.4060   31.9770 N   0  0  0  0  0  0  0  0  0  0  0  0
   41.2060   22.4130   36.8140 C   0  0  0  0  0  0  0  0  0  0  0  0
   41.8970   21.1290   37.2190 C   0  0  0  0  0  0  0  0  0  0  0  0
   42.2970   23.4380   36.5500 C   0  0  0  0  0  0  0  0  0  0  0  0
   40.3140   22.8820   37.9180 C   0  0  0  0  0  0  0  0  0  0  0  0
   39.9504   21.4993   32.3624 H   0  0  0  0  0  0  0  0  0  0  0  0
   41.7905   21.8256   33.9986 H   0  0  0  0  0  0  0  0  0  0  0  0
   36.2877   20.1864   34.4124 H   0  0  0  0  0  0  0  0  0  0  0  0
   34.2152   20.0565   32.9151 H   0  0  0  0  0  0  0  0  0  0  0  0
   35.9190   22.9268   30.2828 H   0  0  0  0  0  0  0  0  0  0  0  0
   41.9329   21.0623   38.3164 H   0  0  0  0  0  0  0  0  0  0  0  0
   41.3393   20.2701   36.8175 H   0  0  0  0  0  0  0  0  0  0  0  0
   42.9211   21.1213   36.8175 H   0  0  0  0  0  0  0  0  0  0  0  0
   42.6914   23.8086   37.5076 H   0  0  0  0  0  0  0  0  0  0  0  0
   43.1095   22.9690   35.9757 H   0  0  0  0  0  0  0  0  0  0  0  0
   41.8796   24.2782   35.9757 H   0  0  0  0  0  0  0  0  0  0  0  0
   40.7732   22.6406   38.8880 H   0  0  0  0  0  0  0  0  0  0  0  0
   40.1742   23.9702   37.8392 H   0  0  0  0  0  0  0  0  0  0  0  0
   39.3382   22.3803   37.8392 H   0  0  0  0  0  0  0  0  0  0  0  0
  1  5  1  0
  2  1  2  0
  2  3  1  0
  3  4  2  0
  4 12  1  0
  5  4  1  0
  6  7  2  0
  6  1  1  0
  8  7  1  0
  9  8  2  0
 10  9  1  0
 10 11  2  0
 11  6  1  0
 12 13  1  0
 12 15  1  0
 14 12  1  0
  2 16  1  0
  3 17  1  0
  7 18  1  0
  8 19  1  0
 10 20  1  0
 13 21  1  0
 13 22  1  0
 13 23  1  0
 14 24  1  0
 14 25  1  0
 14 26  1  0
 15 27  1  0
 15 28  1  0
 15 29  1  0
M  ISO  8  16  14  17  14  18  14  19  14  20  14  21   8  22   8  23   8
M  ISO  6  24   8  25   8  26   8  27   8  28   8  29   8
M  END
>  <minimizedAffinity>  (1) 
-3.68887973

>  <minimizedRMSD>  (1) 
1.56095922

$$$$
