
     RDKit          3D

 30 32  0  0  0  0  0  0  0  0999 V2000
   37.8630   20.3250   32.1130 C   0  0  0  0  0  0  0  0  0  0  0  0
   39.1440   20.7250   32.4080 C   0  0  0  0  0  0  0  0  0  0  0  0
   39.3250   21.6530   33.3820 C   0  0  0  0  0  0  0  0  0  0  0  0
   38.2360   22.1420   34.0140 C   0  0  0  0  0  0  0  0  0  0  0  0
   36.8590   21.2430   33.1930 S   0  0  0  0  0  0  0  0  0  0  0  0
   37.4360   19.3370   31.1110 C   0  0  0  0  0  0  0  0  0  0  0  0
   37.3540   17.9670   31.4550 C   0  0  0  0  0  0  0  0  0  0  0  0
   36.9320   17.1140   30.4010 C   0  0  0  0  0  0  0  0  0  0  0  0
   36.6460   17.6470   29.1810 N   0  0  0  0  0  0  0  0  0  0  0  0
   36.7470   18.9580   28.9320 C   0  0  0  0  0  0  0  0  0  0  0  0
   37.1460   19.8140   29.9080 N   0  0  0  0  0  0  0  0  0  0  0  0
   38.0090   23.0910   35.0500 N   0  0  0  0  0  0  0  0  0  0  0  0
   38.1810   24.5100   34.7960 C   0  0  0  0  0  0  0  0  0  0  0  0
   38.6110   25.1070   36.1260 C   0  0  0  0  0  0  0  0  0  0  0  0
   37.7310   24.7310   37.1490 O   0  0  0  0  0  0  0  0  0  0  0  0
   37.9650   23.3960   37.4670 C   0  0  0  0  0  0  0  0  0  0  0  0
   37.6180   22.4850   36.2810 C   0  0  0  0  0  0  0  0  0  0  0  0
   40.0036   20.3027   31.8670 H   0  0  0  0  0  0  0  0  0  0  0  0
   40.3343   21.9985   33.6502 H   0  0  0  0  0  0  0  0  0  0  0  0
   37.5980   17.5921   32.4599 H   0  0  0  0  0  0  0  0  0  0  0  0
   36.8369   16.0310   30.5688 H   0  0  0  0  0  0  0  0  0  0  0  0
   36.5054   19.3446   27.9309 H   0  0  0  0  0  0  0  0  0  0  0  0
   38.9554   24.6735   34.0321 H   0  0  0  0  0  0  0  0  0  0  0  0
   37.2578   24.9735   34.4181 H   0  0  0  0  0  0  0  0  0  0  0  0
   39.6222   24.7501   36.3712 H   0  0  0  0  0  0  0  0  0  0  0  0
   38.6019   26.2035   36.0391 H   0  0  0  0  0  0  0  0  0  0  0  0
   39.0271   23.2668   37.7225 H   0  0  0  0  0  0  0  0  0  0  0  0
   37.3297   23.1202   38.3216 H   0  0  0  0  0  0  0  0  0  0  0  0
   36.5326   22.3071   36.2675 H   0  0  0  0  0  0  0  0  0  0  0  0
   38.1585   21.5338   36.3950 H   0  0  0  0  0  0  0  0  0  0  0  0
  1  2  2  0
  1  5  1  0
  2  3  1  0
  3  4  2  0
  4 12  1  0
  5  4  1  0
  6  7  2  0
  6  1  1  0
  8  7  1  0
  9  8  2  0
 10  9  1  0
 10 11  2  0
 11  6  1  0
 12 17  1  0
 13 12  1  0
 13 14  1  0
 14 15  1  0
 15 16  1  0
 17 16  1  0
  2 18  1  0
  3 19  1  0
  7 20  1  0
  8 21  1  0
 10 22  1  0
 13 23  1  0
 13 24  1  0
 14 25  1  0
 14 26  1  0
 16 27  1  0
 16 28  1  0
 17 29  1  0
 17 30  1  0
M  ISO  8  18  14  19  14  20  14  21  14  22  14  23  13  24  13  25  13
M  ISO  5  26  13  27  13  28  13  29  13  30  13
M  END
>  <minimizedAffinity>  (1) 
-3.59300089

>  <minimizedRMSD>  (1) 
3.92771173

$$$$
