
     RDKit          3D

 20 21  0  0  0  0  0  0  0  0999 V2000
   36.9170   21.7080   33.4260 C   0  0  0  0  0  0  0  0  0  0  0  0
   35.9090   20.7660   33.6300 C   0  0  0  0  0  0  0  0  0  0  0  0
   35.0230   20.4910   32.5820 C   0  0  0  0  0  0  0  0  0  0  0  0
   35.2200   21.1830   31.4190 N   0  0  0  0  0  0  0  0  0  0  0  0
   36.2010   22.0860   31.2540 C   0  0  0  0  0  0  0  0  0  0  0  0
   37.0550   22.3470   32.2730 N   0  0  0  0  0  0  0  0  0  0  0  0
   37.8730   22.0390   34.4810 C   0  0  0  0  0  0  0  0  0  0  0  0
   39.2400   22.1440   34.3720 C   0  0  0  0  0  0  0  0  0  0  0  0
   39.9470   22.4640   35.4920 C   0  0  0  0  0  0  0  0  0  0  0  0
   39.2690   22.6610   36.6440 C   0  0  0  0  0  0  0  0  0  0  0  0
   37.5020   22.3840   36.1620 S   0  0  0  0  0  0  0  0  0  0  0  0
   39.7320   23.0110   38.0000 C   0  0  0  0  0  0  0  0  0  0  0  0
   35.8121   20.2490   34.5961 H   0  0  0  0  0  0  0  0  0  0  0  0
   34.2108   19.7568   32.6882 H   0  0  0  0  0  0  0  0  0  0  0  0
   36.3106   22.6120   30.2942 H   0  0  0  0  0  0  0  0  0  0  0  0
   39.7468   21.9749   33.4105 H   0  0  0  0  0  0  0  0  0  0  0  0
   41.0423   22.5596   35.4591 H   0  0  0  0  0  0  0  0  0  0  0  0
   39.0865   22.5231   38.7452 H   0  0  0  0  0  0  0  0  0  0  0  0
   40.7690   22.6690   38.1330 H   0  0  0  0  0  0  0  0  0  0  0  0
   39.6858   24.1019   38.1330 H   0  0  0  0  0  0  0  0  0  0  0  0
  1  2  2  0
  1  7  1  0
  3  2  1  0
  4  3  2  0
  5  4  1  0
  5  6  2  0
  6  1  1  0
  7 11  1  0
  8  7  2  0
  8  9  1  0
  9 10  2  0
 10 12  1  0
 11 10  1  0
  2 13  1  0
  3 14  1  0
  5 15  1  0
  8 16  1  0
  9 17  1  0
 12 18  1  0
 12 19  1  0
 12 20  1  0
M  ISO  8  13  14  14  14  15  14  16  14  17  14  18   8  19   8  20   8
M  END
>  <minimizedAffinity>  (1) 
-3.37808585

>  <minimizedRMSD>  (1) 
0.358745217

$$$$
