
     RDKit          3D

 32 34  0  0  1  0  0  0  0  0999 V2000
   36.3330   22.0100   32.0220 C   0  0  0  0  0  0  0  0  0  0  0  0
   35.4320   22.7990   31.3590 C   0  0  0  0  0  0  0  0  0  0  0  0
   35.6160   24.1580   31.4400 C   0  0  0  0  0  0  0  0  0  0  0  0
   36.6510   24.6330   32.1500 C   0  0  0  0  0  0  0  0  0  0  0  0
   37.4730   23.1070   32.7820 S   0  0  0  0  0  0  0  0  0  0  0  0
   36.3480   20.5390   32.0900 C   0  0  0  0  0  0  0  0  0  0  0  0
   35.2820   19.8430   32.6920 C   0  0  0  0  0  0  0  0  0  0  0  0
   35.3700   18.4420   32.7150 C   0  0  0  0  0  0  0  0  0  0  0  0
   36.4700   17.8670   32.1580 N   0  0  0  0  0  0  0  0  0  0  0  0
   37.4610   18.5790   31.5940 C   0  0  0  0  0  0  0  0  0  0  0  0
   37.3820   19.9230   31.5700 N   0  0  0  0  0  0  0  0  0  0  0  0
   37.0770   25.9950   32.3950 C   0  0  0  0  0  0  0  0  0  0  0  0
   36.7380   26.9200   31.6050 O   0  0  0  0  0  0  0  0  0  0  0  0
   37.8630   26.2270   33.5210 O   0  0  0  0  0  0  0  0  0  0  0  0
   37.6510   25.4000   35.6570 N   0  0  0  0  0  0  0  0  0  0  0  0
   39.0910   25.5350   35.5220 C   0  0  0  0  0  0  0  0  0  0  0  0
   39.3030   27.0370   35.4960 C   0  0  0  0  0  0  0  0  0  0  0  0
   37.8970   27.6400   35.3720 C   0  0  0  0  0  0  0  0  0  0  0  0
   37.1880   26.4270   34.7530 C   0  0  1  0  0  0  0  0  0  0  0  0
   34.5986   22.3646   30.7874 H   0  0  0  0  0  0  0  0  0  0  0  0
   34.9255   24.8463   30.9307 H   0  0  0  0  0  0  0  0  0  0  0  0
   34.4202   20.3726   33.1242 H   0  0  0  0  0  0  0  0  0  0  0  0
   34.5763   17.8299   33.1681 H   0  0  0  0  0  0  0  0  0  0  0  0
   38.3303   18.0673   31.1552 H   0  0  0  0  0  0  0  0  0  0  0  0
   37.3301   24.4662   35.3638 H   0  0  0  0  0  0  0  0  0  0  0  0
   39.6109   25.0790   36.3774 H   0  0  0  0  0  0  0  0  0  0  0  0
   39.4876   25.0300   34.6288 H   0  0  0  0  0  0  0  0  0  0  0  0
   39.7868   27.3744   36.4245 H   0  0  0  0  0  0  0  0  0  0  0  0
   39.9571   27.3455   34.6672 H   0  0  0  0  0  0  0  0  0  0  0  0
   37.4746   27.9132   36.3503 H   0  0  0  0  0  0  0  0  0  0  0  0
   37.8264   28.5785   34.8027 H   0  0  0  0  0  0  0  0  0  0  0  0
   36.0982   26.4806   34.6137 H   0  0  0  0  0  0  0  0  0  0  0  0
  1  6  1  0
  1  5  1  0
  2  3  1  0
  2  1  2  0
  3  4  2  0
  4 12  1  0
  4  5  1  0
  6  7  2  0
  7  8  1  0
  9  8  2  0
 10  9  1  0
 11 10  2  0
 11  6  1  0
 12 14  1  0
 13 12  2  0
 16 15  1  0
 17 16  1  0
 18 17  1  0
 19 14  1  0
 19 18  1  0
 19 15  1  0
  2 20  1  0
  3 21  1  0
  7 22  1  0
  8 23  1  0
 10 24  1  0
 15 25  1  0
 16 26  1  0
 16 27  1  0
 17 28  1  0
 17 29  1  0
 18 30  1  0
 18 31  1  0
 19 32  1  6
M  ISO  8  20  14  21  14  22  14  23  14  24  14  25   5  26  13  27  13
M  ISO  5  28  13  29  13  30  13  31  13  32  13
M  END
>  <minimizedAffinity>  (1) 
-4.72036505

>  <minimizedRMSD>  (1) 
4.86313581

$$$$
