
     RDKit          3D

 23 24  0  0  0  0  0  0  0  0999 V2000
   37.1680   21.9180   33.4180 C   0  0  0  0  0  0  0  0  0  0  0  0
   37.4890   23.1470   32.9110 C   0  0  0  0  0  0  0  0  0  0  0  0
   38.0010   24.0770   33.7770 C   0  0  0  0  0  0  0  0  0  0  0  0
   38.1650   23.7400   35.0720 C   0  0  0  0  0  0  0  0  0  0  0  0
   37.5650   21.9930   35.1260 S   0  0  0  0  0  0  0  0  0  0  0  0
   36.6110   20.7700   32.6900 C   0  0  0  0  0  0  0  0  0  0  0  0
   35.6520   19.9360   33.3190 C   0  0  0  0  0  0  0  0  0  0  0  0
   35.1860   18.8530   32.5280 C   0  0  0  0  0  0  0  0  0  0  0  0
   35.6800   18.7100   31.2770 N   0  0  0  0  0  0  0  0  0  0  0  0
   36.5890   19.5380   30.7380 C   0  0  0  0  0  0  0  0  0  0  0  0
   37.0440   20.5700   31.4680 N   0  0  0  0  0  0  0  0  0  0  0  0
   38.6840   24.5080   36.1850 C   0  0  0  0  0  0  0  0  0  0  0  0
   38.6780   25.7710   36.1290 O   0  0  0  0  0  0  0  0  0  0  0  0
   39.1700   23.7840   37.2760 O   0  0  0  0  0  0  0  0  0  0  0  0
   38.4200   23.8980   38.4970 C   0  0  0  0  0  0  0  0  0  0  0  0
   37.9200   25.2000   38.5280 F   0  0  0  0  0  0  0  0  0  0  0  0
   39.2140   23.7230   39.6060 F   0  0  0  0  0  0  0  0  0  0  0  0
   37.4030   22.9740   38.4320 F   0  0  0  0  0  0  0  0  0  0  0  0
   37.3414   23.3804   31.8462 H   0  0  0  0  0  0  0  0  0  0  0  0
   38.2737   25.0817   33.4217 H   0  0  0  0  0  0  0  0  0  0  0  0
   35.2955   20.1149   34.3441 H   0  0  0  0  0  0  0  0  0  0  0  0
   34.4408   18.1469   32.9232 H   0  0  0  0  0  0  0  0  0  0  0  0
   36.9558   19.3739   29.7140 H   0  0  0  0  0  0  0  0  0  0  0  0
  1  5  1  0
  2  1  2  0
  2  3  1  0
  3  4  2  0
  4  5  1  0
  4 12  1  0
  6  7  2  0
  6  1  1  0
  8  7  1  0
  9  8  2  0
 10  9  1  0
 10 11  2  0
 11  6  1  0
 12 14  1  0
 13 12  2  0
 14 15  1  0
 15 16  1  0
 15 17  1  0
 18 15  1  0
  2 19  1  0
  3 20  1  0
  7 21  1  0
  8 22  1  0
 10 23  1  0
M  ISO  5  19  14  20  14  21  14  22  14  23  14
M  END
>  <minimizedAffinity>  (1) 
-4.61626244

>  <minimizedRMSD>  (1) 
1.72509563

$$$$
