
     RDKit          3D

 27 29  0  0  0  0  0  0  0  0999 V2000
   36.8110   21.3680   32.5140 C   0  0  0  0  0  0  0  0  0  0  0  0
   36.5210   22.4580   31.7400 C   0  0  0  0  0  0  0  0  0  0  0  0
   36.9390   23.6830   32.2100 C   0  0  0  0  0  0  0  0  0  0  0  0
   37.5960   23.7430   33.3790 C   0  0  0  0  0  0  0  0  0  0  0  0
   37.6690   21.9660   33.9220 S   0  0  0  0  0  0  0  0  0  0  0  0
   36.4750   19.9590   32.2360 C   0  0  0  0  0  0  0  0  0  0  0  0
   35.5030   19.2870   32.9960 C   0  0  0  0  0  0  0  0  0  0  0  0
   35.2710   17.9410   32.6320 C   0  0  0  0  0  0  0  0  0  0  0  0
   35.9820   17.4000   31.6060 N   0  0  0  0  0  0  0  0  0  0  0  0
   36.9010   18.0940   30.9160 C   0  0  0  0  0  0  0  0  0  0  0  0
   37.1220   19.3730   31.2590 N   0  0  0  0  0  0  0  0  0  0  0  0
   38.1470   24.8720   34.1000 C   0  0  0  0  0  0  0  0  0  0  0  0
   37.6380   26.0210   33.9370 O   0  0  0  0  0  0  0  0  0  0  0  0
   39.2280   24.6220   34.9480 O   0  0  0  0  0  0  0  0  0  0  0  0
   38.9180   24.2430   36.2570 C   0  0  0  0  0  0  0  0  0  0  0  0
   37.9350   24.6350   37.1200 C   0  0  0  0  0  0  0  0  0  0  0  0
   38.1270   23.9120   38.2890 C   0  0  0  0  0  0  0  0  0  0  0  0
   39.2420   23.1070   38.0580 C   0  0  0  0  0  0  0  0  0  0  0  0
   39.6880   23.3310   36.8330 O   0  0  0  0  0  0  0  0  0  0  0  0
   35.9796   22.3606   30.7874 H   0  0  0  0  0  0  0  0  0  0  0  0
   36.7374   24.5993   31.6357 H   0  0  0  0  0  0  0  0  0  0  0  0
   34.9595   19.7751   33.8184 H   0  0  0  0  0  0  0  0  0  0  0  0
   34.5252   17.3387   33.1714 H   0  0  0  0  0  0  0  0  0  0  0  0
   37.4585   17.6267   30.0909 H   0  0  0  0  0  0  0  0  0  0  0  0
   37.1466   25.3773   36.9268 H   0  0  0  0  0  0  0  0  0  0  0  0
   37.5243   23.9633   39.2078 H   0  0  0  0  0  0  0  0  0  0  0  0
   39.6798   22.4000   38.7781 H   0  0  0  0  0  0  0  0  0  0  0  0
  1  5  1  0
  2  3  1  0
  2  1  2  0
  3  4  2  0
  4  5  1  0
  4 12  1  0
  6  1  1  0
  6  7  2  0
  8  7  1  0
  9  8  2  0
 10 11  2  0
 10  9  1  0
 11  6  1  0
 12 14  1  0
 13 12  2  0
 14 15  1  0
 15 19  1  0
 15 16  2  0
 16 17  1  0
 18 17  2  0
 19 18  1  0
  2 20  1  0
  3 21  1  0
  7 22  1  0
  8 23  1  0
 10 24  1  0
 16 25  1  0
 17 26  1  0
 18 27  1  0
M  ISO  8  20  14  21  14  22  14  23  14  24  14  25  14  26  14  27  14
M  END
>  <minimizedAffinity>  (1) 
-4.46306133

>  <minimizedRMSD>  (1) 
3.37155652

$$$$
