
     RDKit          3D

 31 34  0  0  0  0  0  0  0  0999 V2000
   38.6160   22.8570   33.3780 C   0  0  0  0  0  0  0  0  0  0  0  0
   39.6580   23.1280   32.5330 C   0  0  0  0  0  0  0  0  0  0  0  0
   40.7770   23.7040   33.0810 C   0  0  0  0  0  0  0  0  0  0  0  0
   40.7970   23.9710   34.3970 C   0  0  0  0  0  0  0  0  0  0  0  0
   39.1400   23.3880   34.9590 S   0  0  0  0  0  0  0  0  0  0  0  0
   37.3220   22.2500   33.0320 C   0  0  0  0  0  0  0  0  0  0  0  0
   36.7400   21.2800   33.8760 C   0  0  0  0  0  0  0  0  0  0  0  0
   35.5100   20.7510   33.4670 C   0  0  0  0  0  0  0  0  0  0  0  0
   34.9710   21.2030   32.3040 N   0  0  0  0  0  0  0  0  0  0  0  0
   35.5690   22.1320   31.5320 C   0  0  0  0  0  0  0  0  0  0  0  0
   36.7520   22.6460   31.9190 N   0  0  0  0  0  0  0  0  0  0  0  0
   41.8270   24.5590   35.2290 C   0  0  0  0  0  0  0  0  0  0  0  0
   42.2280   25.7360   34.9910 O   0  0  0  0  0  0  0  0  0  0  0  0
   42.3290   23.7760   36.2690 O   0  0  0  0  0  0  0  0  0  0  0  0
   46.4280   22.0050   35.3480 N   0  0  0  0  0  0  0  0  0  0  0  0
   45.4370   21.3460   34.7320 C   0  0  0  0  0  0  0  0  0  0  0  0
   44.2800   21.9580   35.0780 N   0  0  0  0  0  0  0  0  0  0  0  0
   44.5520   22.9740   35.8910 C   0  0  0  0  0  0  0  0  0  0  0  0
   43.7060   23.8860   36.5030 C   0  0  0  0  0  0  0  0  0  0  0  0
   44.2720   24.8300   37.2920 N   0  0  0  0  0  0  0  0  0  0  0  0
   45.6130   24.8380   37.4440 C   0  0  0  0  0  0  0  0  0  0  0  0
   46.4620   23.9690   36.8660 N   0  0  0  0  0  0  0  0  0  0  0  0
   45.9260   23.0120   36.0690 C   0  0  0  0  0  0  0  0  0  0  0  0
   39.6011   22.8940   31.4597 H   0  0  0  0  0  0  0  0  0  0  0  0
   41.6459   23.9437   32.4505 H   0  0  0  0  0  0  0  0  0  0  0  0
   37.2278   20.9563   34.8073 H   0  0  0  0  0  0  0  0  0  0  0  0
   34.9937   19.9900   34.0706 H   0  0  0  0  0  0  0  0  0  0  0  0
   35.0962   22.4664   30.5968 H   0  0  0  0  0  0  0  0  0  0  0  0
   47.4283   21.7702   35.2764 H   0  0  0  0  0  0  0  0  0  0  0  0
   45.5434   20.4734   34.0707 H   0  0  0  0  0  0  0  0  0  0  0  0
   46.0455   25.6155   38.0908 H   0  0  0  0  0  0  0  0  0  0  0  0
  1  5  1  0
  2  3  1  0
  2  1  2  0
  3  4  2  0
  4  5  1  0
  4 12  1  0
  6  1  1  0
  6  7  2  0
  8  7  1  0
  9  8  2  0
 10 11  2  0
 10  9  1  0
 11  6  1  0
 12 14  1  0
 13 12  2  0
 14 19  1  0
 15 23  1  0
 16 17  2  0
 16 15  1  0
 17 18  1  0
 18 23  2  0
 18 19  1  0
 19 20  2  0
 20 21  1  0
 22 21  2  0
 23 22  1  0
  2 24  1  0
  3 25  1  0
  7 26  1  0
  8 27  1  0
 10 28  1  0
 15 29  1  0
 16 30  1  0
 21 31  1  0
M  ISO  8  24  14  25  14  26  14  27  14  28  14  29   9  30  14  31  14
M  END
>  <minimizedAffinity>  (1) 
-3.84602189

>  <minimizedRMSD>  (1) 
5.17963839

$$$$
