
     RDKit          3D

 39 43  0  0  0  0  0  0  0  0999 V2000
   35.6290   18.7270   31.5250 O   0  0  0  0  0  0  0  0  0  0  0  0
   36.2370   17.4840   31.8260 C   0  0  0  0  0  0  0  0  0  0  0  0
   35.5760   16.2950   31.9110 C   0  0  0  0  0  0  0  0  0  0  0  0
   36.9160   15.1210   32.3190 S   0  0  0  0  0  0  0  0  0  0  0  0
   38.2040   16.5380   32.2980 C   0  0  0  0  0  0  0  0  0  0  0  0
   37.5460   17.4970   32.0350 N   0  0  0  0  0  0  0  0  0  0  0  0
   39.5850   16.2920   32.5610 N   0  0  0  0  0  0  0  0  0  0  0  0
   40.5100   17.1600   32.1860 C   0  0  0  0  0  0  0  0  0  0  0  0
   41.7220   16.6640   32.5680 N   0  0  0  0  0  0  0  0  0  0  0  0
   41.5020   15.4810   33.1780 C   0  0  0  0  0  0  0  0  0  0  0  0
   42.2620   14.4930   33.7790 C   0  0  0  0  0  0  0  0  0  0  0  0
   41.6970   13.3830   34.3180 N   0  0  0  0  0  0  0  0  0  0  0  0
   40.3600   13.2020   34.2870 C   0  0  0  0  0  0  0  0  0  0  0  0
   39.5480   14.1260   33.7150 N   0  0  0  0  0  0  0  0  0  0  0  0
   40.1400   15.2200   33.1870 C   0  0  0  0  0  0  0  0  0  0  0  0
   43.6730   14.6690   33.8210 N   0  0  0  0  0  0  0  0  0  0  0  0
   36.2630   19.4240   30.4800 C   0  0  0  0  0  0  0  0  0  0  0  0
   36.4940   18.9340   29.3510 O   0  0  0  0  0  0  0  0  0  0  0  0
   36.8140   23.3500   31.4460 C   0  0  0  0  0  0  0  0  0  0  0  0
   37.9470   22.7200   31.0310 C   0  0  0  0  0  0  0  0  0  0  0  0
   37.8470   21.4030   30.6880 C   0  0  0  0  0  0  0  0  0  0  0  0
   36.6590   20.7980   30.7740 C   0  0  0  0  0  0  0  0  0  0  0  0
   35.5250   22.1410   31.3860 S   0  0  0  0  0  0  0  0  0  0  0  0
   36.6580   24.7610   31.8630 C   0  0  0  0  0  0  0  0  0  0  0  0
   35.8450   25.6380   31.1170 C   0  0  0  0  0  0  0  0  0  0  0  0
   35.7710   26.9630   31.6040 C   0  0  0  0  0  0  0  0  0  0  0  0
   36.4740   27.2800   32.7290 N   0  0  0  0  0  0  0  0  0  0  0  0
   37.2390   26.3890   33.4020 C   0  0  0  0  0  0  0  0  0  0  0  0
   37.3160   25.1250   32.9470 N   0  0  0  0  0  0  0  0  0  0  0  0
   34.5041   16.0926   31.7694 H   0  0  0  0  0  0  0  0  0  0  0  0
   40.3337   18.1103   31.6609 H   0  0  0  0  0  0  0  0  0  0  0  0
   39.9237   12.2949   34.7306 H   0  0  0  0  0  0  0  0  0  0  0  0
   44.2684   13.9529   34.2609 H   0  0  0  0  0  0  0  0  0  0  0  0
   44.0992   15.5125   33.4115 H   0  0  0  0  0  0  0  0  0  0  0  0
   38.9077   23.2528   30.9742 H   0  0  0  0  0  0  0  0  0  0  0  0
   38.7323   20.8472   30.3454 H   0  0  0  0  0  0  0  0  0  0  0  0
   35.3042   25.3131   30.2159 H   0  0  0  0  0  0  0  0  0  0  0  0
   35.1615   27.7197   31.0884 H   0  0  0  0  0  0  0  0  0  0  0  0
   37.7883   26.6929   34.3053 H   0  0  0  0  0  0  0  0  0  0  0  0
  1  2  1  0
  2  3  2  0
  2  6  1  0
  3  4  1  0
  5  4  1  0
  5  7  1  0
  6  5  2  0
  7 15  1  0
  8  7  1  0
  8  9  2  0
  9 10  1  0
 10 15  2  0
 10 11  1  0
 11 16  1  0
 11 12  2  0
 13 12  1  0
 14 13  2  0
 15 14  1  0
 17 22  1  0
 17  1  1  0
 18 17  2  0
 19 24  1  0
 20 19  2  0
 21 22  2  0
 21 20  1  0
 22 23  1  0
 23 19  1  0
 24 29  2  0
 25 26  2  0
 25 24  1  0
 26 27  1  0
 27 28  2  0
 29 28  1  0
  3 30  1  0
  8 31  1  0
 13 32  1  0
 16 33  1  0
 16 34  1  0
 20 35  1  0
 21 36  1  0
 25 37  1  0
 26 38  1  0
 28 39  1  0
M  ISO  8  30  14  31  14  32  14  35  14  36  14  37  14  38  14  39  14
M  END
>  <minimizedAffinity>  (1) 
-4.19501019

>  <minimizedRMSD>  (1) 
0.846779227

$$$$
