
     RDKit          3D

 39 42  0  0  0  0  0  0  0  0999 V2000
   36.7770   23.3700   31.4780 C   0  0  0  0  0  0  0  0  0  0  0  0
   37.8890   22.7500   31.0000 C   0  0  0  0  0  0  0  0  0  0  0  0
   37.7950   21.4080   30.7020 C   0  0  0  0  0  0  0  0  0  0  0  0
   36.6240   20.7960   30.8950 C   0  0  0  0  0  0  0  0  0  0  0  0
   35.5100   22.1390   31.5500 S   0  0  0  0  0  0  0  0  0  0  0  0
   36.6230   24.7840   31.8680 C   0  0  0  0  0  0  0  0  0  0  0  0
   35.8110   25.6530   31.1110 C   0  0  0  0  0  0  0  0  0  0  0  0
   35.7560   26.9820   31.6020 C   0  0  0  0  0  0  0  0  0  0  0  0
   36.4590   27.3180   32.7180 N   0  0  0  0  0  0  0  0  0  0  0  0
   37.2160   26.4310   33.3910 C   0  0  0  0  0  0  0  0  0  0  0  0
   37.2840   25.1650   32.9460 N   0  0  0  0  0  0  0  0  0  0  0  0
   36.2320   19.4080   30.6710 C   0  0  0  0  0  0  0  0  0  0  0  0
   36.3770   18.9030   29.5210 O   0  0  0  0  0  0  0  0  0  0  0  0
   35.7130   18.7140   31.7520 O   0  0  0  0  0  0  0  0  0  0  0  0
   36.3320   17.4570   31.9810 C   0  0  0  0  0  0  0  0  0  0  0  0
   35.6430   16.3000   32.2200 C   0  0  0  0  0  0  0  0  0  0  0  0
   37.0270   15.0940   32.4240 S   0  0  0  0  0  0  0  0  0  0  0  0
   38.3190   16.4610   32.1340 C   0  0  0  0  0  0  0  0  0  0  0  0
   37.6590   17.4360   31.9590 N   0  0  0  0  0  0  0  0  0  0  0  0
   39.7670   16.1330   32.1670 C   0  0  0  0  0  0  0  0  0  0  0  0
   40.1540   15.4060   33.4340 C   0  0  0  0  0  0  0  0  0  0  0  0
   41.6670   15.4590   33.3490 C   0  0  0  0  0  0  0  0  0  0  0  0
   41.9840   16.7620   32.6200 C   0  0  0  0  0  0  0  0  0  0  0  0
   40.6460   17.3580   32.2340 C   0  0  0  0  0  0  0  0  0  0  0  0
   38.8304   23.3005   30.8563 H   0  0  0  0  0  0  0  0  0  0  0  0
   38.6631   20.8545   30.3147 H   0  0  0  0  0  0  0  0  0  0  0  0
   35.2651   25.3269   30.2134 H   0  0  0  0  0  0  0  0  0  0  0  0
   35.1480   27.7380   31.0834 H   0  0  0  0  0  0  0  0  0  0  0  0
   37.7698   26.7378   34.2905 H   0  0  0  0  0  0  0  0  0  0  0  0
   34.5572   16.1327   32.2757 H   0  0  0  0  0  0  0  0  0  0  0  0
   39.9126   15.5448   31.2490 H   0  0  0  0  0  0  0  0  0  0  0  0
   39.7814   15.9270   34.3283 H   0  0  0  0  0  0  0  0  0  0  0  0
   39.7404   14.3902   33.5177 H   0  0  0  0  0  0  0  0  0  0  0  0
   42.1096   15.4634   34.3560 H   0  0  0  0  0  0  0  0  0  0  0  0
   42.0792   14.5846   32.8240 H   0  0  0  0  0  0  0  0  0  0  0  0
   42.5314   17.4480   33.2831 H   0  0  0  0  0  0  0  0  0  0  0  0
   42.6178   16.5874   31.7381 H   0  0  0  0  0  0  0  0  0  0  0  0
   40.7002   17.8653   31.2595 H   0  0  0  0  0  0  0  0  0  0  0  0
   40.2840   18.1270   32.9323 H   0  0  0  0  0  0  0  0  0  0  0  0
  1  5  1  0
  1  6  1  0
  2  1  2  0
  3  4  2  0
  3  2  1  0
  4  5  1  0
  6 11  2  0
  7  8  2  0
  7  6  1  0
  8  9  1  0
  9 10  2  0
 11 10  1  0
 12  4  1  0
 12 14  1  0
 13 12  2  0
 14 15  1  0
 15 16  2  0
 16 17  1  0
 18 20  1  0
 18 17  1  0
 19 15  1  0
 19 18  2  0
 20 24  1  0
 20 21  1  0
 22 21  1  0
 23 22  1  0
 24 23  1  0
  2 25  1  0
  3 26  1  0
  7 27  1  0
  8 28  1  0
 10 29  1  0
 16 30  1  0
 20 31  1  0
 21 32  1  0
 21 33  1  0
 22 34  1  0
 22 35  1  0
 23 36  1  0
 23 37  1  0
 24 38  1  0
 24 39  1  0
M  ISO  8  25  14  26  14  27  14  28  14  29  14  30  14  31  13  32  13
M  ISO  7  33  13  34  13  35  13  36  13  37  13  38  13  39  13
M  END
>  <minimizedAffinity>  (1) 
-4.09816027

>  <minimizedRMSD>  (1) 
0.855457306

$$$$
