
     RDKit          3D

 32 35  0  0  0  0  0  0  0  0999 V2000
   36.8120   23.3990   31.4580 C   0  0  0  0  0  0  0  0  0  0  0  0
   37.9370   22.7710   31.0190 C   0  0  0  0  0  0  0  0  0  0  0  0
   37.8340   21.4420   30.7060 C   0  0  0  0  0  0  0  0  0  0  0  0
   36.6530   20.8330   30.8420 C   0  0  0  0  0  0  0  0  0  0  0  0
   35.5330   22.1790   31.4640 S   0  0  0  0  0  0  0  0  0  0  0  0
   36.6420   24.8130   31.8610 C   0  0  0  0  0  0  0  0  0  0  0  0
   35.8290   25.6850   31.1090 C   0  0  0  0  0  0  0  0  0  0  0  0
   35.7520   27.0080   31.6020 C   0  0  0  0  0  0  0  0  0  0  0  0
   36.4470   27.3270   32.7280 N   0  0  0  0  0  0  0  0  0  0  0  0
   37.2020   26.4470   33.3950 C   0  0  0  0  0  0  0  0  0  0  0  0
   37.2960   25.1770   32.9490 N   0  0  0  0  0  0  0  0  0  0  0  0
   36.2570   19.4510   30.5880 C   0  0  0  0  0  0  0  0  0  0  0  0
   36.4100   18.9560   29.4480 O   0  0  0  0  0  0  0  0  0  0  0  0
   35.7150   18.7500   31.6800 O   0  0  0  0  0  0  0  0  0  0  0  0
   36.3710   17.5160   31.9380 C   0  0  0  0  0  0  0  0  0  0  0  0
   35.7110   16.3370   32.1530 C   0  0  0  0  0  0  0  0  0  0  0  0
   37.1190   15.1750   32.4150 S   0  0  0  0  0  0  0  0  0  0  0  0
   38.3720   16.5800   32.1680 C   0  0  0  0  0  0  0  0  0  0  0  0
   37.7000   17.5400   31.9650 N   0  0  0  0  0  0  0  0  0  0  0  0
   39.8000   16.3650   32.2440 N   0  0  0  0  0  0  0  0  0  0  0  0
   40.8080   16.6660   31.4340 C   0  0  0  0  0  0  0  0  0  0  0  0
   41.9670   16.2360   31.9830 N   0  0  0  0  0  0  0  0  0  0  0  0
   41.6430   15.6530   33.1720 C   0  0  0  0  0  0  0  0  0  0  0  0
   40.3120   15.7400   33.3160 N   0  0  0  0  0  0  0  0  0  0  0  0
   38.8909   23.3097   30.9196 H   0  0  0  0  0  0  0  0  0  0  0  0
   38.7114   20.8837   30.3476 H   0  0  0  0  0  0  0  0  0  0  0  0
   35.2936   25.3600   30.2047 H   0  0  0  0  0  0  0  0  0  0  0  0
   35.1425   27.7644   31.0858 H   0  0  0  0  0  0  0  0  0  0  0  0
   37.7428   26.7567   34.3014 H   0  0  0  0  0  0  0  0  0  0  0  0
   34.6296   16.1359   32.1661 H   0  0  0  0  0  0  0  0  0  0  0  0
   40.7152   17.1838   30.4680 H   0  0  0  0  0  0  0  0  0  0  0  0
   42.3452   15.1946   33.8839 H   0  0  0  0  0  0  0  0  0  0  0  0
  1  5  1  0
  1  6  1  0
  2  1  2  0
  3  4  2  0
  3  2  1  0
  4  5  1  0
  6 11  2  0
  7  8  2  0
  7  6  1  0
  8  9  1  0
  9 10  2  0
 11 10  1  0
 12  4  1  0
 12 14  1  0
 13 12  2  0
 14 15  1  0
 15 19  1  0
 15 16  2  0
 16 17  1  0
 18 20  1  0
 18 17  1  0
 19 18  2  0
 20 24  1  0
 21 22  2  0
 21 20  1  0
 22 23  1  0
 23 24  2  0
  2 25  1  0
  3 26  1  0
  7 27  1  0
  8 28  1  0
 10 29  1  0
 16 30  1  0
 21 31  1  0
 23 32  1  0
M  ISO  8  25  14  26  14  27  14  28  14  29  14  30  14  31  14  32  14
M  END
>  <minimizedAffinity>  (1) 
-4.08123493

>  <minimizedRMSD>  (1) 
0.579995215

$$$$
