
     RDKit          3D

 40 44  0  0  0  0  0  0  0  0999 V2000
   36.1670   19.6440   30.7330 C   0  0  0  0  0  0  0  0  0  0  0  0
   36.4040   19.2680   29.5620 O   0  0  0  0  0  0  0  0  0  0  0  0
   36.7980   23.5170   31.8610 C   0  0  0  0  0  0  0  0  0  0  0  0
   37.9040   22.7180   31.9610 C   0  0  0  0  0  0  0  0  0  0  0  0
   37.7750   21.4090   31.6010 C   0  0  0  0  0  0  0  0  0  0  0  0
   36.5890   20.9700   31.1710 C   0  0  0  0  0  0  0  0  0  0  0  0
   35.5160   22.4810   31.2570 S   0  0  0  0  0  0  0  0  0  0  0  0
   36.6880   24.9540   32.1800 C   0  0  0  0  0  0  0  0  0  0  0  0
   35.9250   25.8060   31.3400 C   0  0  0  0  0  0  0  0  0  0  0  0
   35.8950   27.1650   31.7410 C   0  0  0  0  0  0  0  0  0  0  0  0
   36.5790   27.5360   32.8630 N   0  0  0  0  0  0  0  0  0  0  0  0
   37.2820   26.6620   33.6090 C   0  0  0  0  0  0  0  0  0  0  0  0
   37.3320   25.3630   33.2580 N   0  0  0  0  0  0  0  0  0  0  0  0
   35.5000   18.8590   31.6890 O   0  0  0  0  0  0  0  0  0  0  0  0
   36.1100   17.6070   31.9250 C   0  0  0  0  0  0  0  0  0  0  0  0
   35.4230   16.4350   32.0790 C   0  0  0  0  0  0  0  0  0  0  0  0
   36.8000   15.2350   32.3470 S   0  0  0  0  0  0  0  0  0  0  0  0
   38.0790   16.6240   32.1880 C   0  0  0  0  0  0  0  0  0  0  0  0
   37.4380   17.6040   31.9950 N   0  0  0  0  0  0  0  0  0  0  0  0
   39.4880   16.1880   32.3330 C   0  0  0  0  0  0  0  0  0  0  0  0
   40.0280   14.9500   32.5970 C   0  0  0  0  0  0  0  0  0  0  0  0
   41.3770   15.0630   32.6310 N   0  0  0  0  0  0  0  0  0  0  0  0
   41.6630   16.3540   32.3920 C   0  0  0  0  0  0  0  0  0  0  0  0
   42.9050   16.9500   32.3280 C   0  0  0  0  0  0  0  0  0  0  0  0
   42.9740   18.3150   32.0650 C   0  0  0  0  0  0  0  0  0  0  0  0
   41.8110   19.0630   31.8710 C   0  0  0  0  0  0  0  0  0  0  0  0
   40.5920   18.4140   31.9460 C   0  0  0  0  0  0  0  0  0  0  0  0
   40.5090   17.0830   32.2020 C   0  0  0  0  0  0  0  0  0  0  0  0
   38.8641   23.1176   32.3194 H   0  0  0  0  0  0  0  0  0  0  0  0
   38.6344   20.7252   31.6638 H   0  0  0  0  0  0  0  0  0  0  0  0
   35.3976   25.4400   30.4467 H   0  0  0  0  0  0  0  0  0  0  0  0
   35.3305   27.9080   31.1585 H   0  0  0  0  0  0  0  0  0  0  0  0
   37.8157   27.0098   34.5058 H   0  0  0  0  0  0  0  0  0  0  0  0
   34.3382   16.2550   32.0507 H   0  0  0  0  0  0  0  0  0  0  0  0
   39.4582   14.0223   32.7543 H   0  0  0  0  0  0  0  0  0  0  0  0
   42.0530   14.3059   32.8062 H   0  0  0  0  0  0  0  0  0  0  0  0
   43.8205   16.3599   32.4814 H   0  0  0  0  0  0  0  0  0  0  0  0
   43.9549   18.8097   32.0094 H   0  0  0  0  0  0  0  0  0  0  0  0
   41.8631   20.1420   31.6636 H   0  0  0  0  0  0  0  0  0  0  0  0
   39.6672   18.9900   31.7946 H   0  0  0  0  0  0  0  0  0  0  0  0
  1  6  1  0
  1 14  1  0
  2  1  2  0
  3  4  2  0
  3  8  1  0
  5  4  1  0
  6  7  1  0
  6  5  2  0
  7  3  1  0
  8 13  2  0
  9 10  2  0
  9  8  1  0
 10 11  1  0
 11 12  2  0
 13 12  1  0
 14 15  1  0
 15 19  1  0
 15 16  2  0
 16 17  1  0
 18 20  1  0
 18 17  1  0
 19 18  2  0
 20 21  2  0
 21 22  1  0
 23 22  1  0
 24 23  2  0
 25 24  1  0
 26 27  1  0
 26 25  2  0
 27 28  2  0
 28 20  1  0
 28 23  1  0
  4 29  1  0
  5 30  1  0
  9 31  1  0
 10 32  1  0
 12 33  1  0
 16 34  1  0
 21 35  1  0
 22 36  1  0
 24 37  1  0
 25 38  1  0
 26 39  1  0
 27 40  1  0
M  ISO  8  29  14  30  14  31  14  32  14  33  14  34  14  35  14  36   9
M  ISO  4  37  14  38  14  39  14  40  14
M  END
>  <minimizedAffinity>  (1) 
-4.0156846

>  <minimizedRMSD>  (1) 
0.764796495

$$$$
