
     RDKit          3D

 38 40  0  0  0  0  0  0  0  0999 V2000
   36.7650   23.7210   31.6850 C   0  0  0  0  0  0  0  0  0  0  0  0
   37.9040   23.0640   31.3390 C   0  0  0  0  0  0  0  0  0  0  0  0
   37.7980   21.7320   31.0120 C   0  0  0  0  0  0  0  0  0  0  0  0
   36.5910   21.1620   31.0520 C   0  0  0  0  0  0  0  0  0  0  0  0
   35.4610   22.5350   31.5800 S   0  0  0  0  0  0  0  0  0  0  0  0
   36.6290   25.1330   32.0700 C   0  0  0  0  0  0  0  0  0  0  0  0
   35.8580   26.0110   31.2810 C   0  0  0  0  0  0  0  0  0  0  0  0
   35.7970   27.3490   31.7450 C   0  0  0  0  0  0  0  0  0  0  0  0
   36.4740   27.6750   32.8960 N   0  0  0  0  0  0  0  0  0  0  0  0
   37.1870   26.7870   33.5920 C   0  0  0  0  0  0  0  0  0  0  0  0
   37.2580   25.5110   33.1690 N   0  0  0  0  0  0  0  0  0  0  0  0
   36.1810   19.7910   30.7600 C   0  0  0  0  0  0  0  0  0  0  0  0
   36.3400   19.3320   29.5940 O   0  0  0  0  0  0  0  0  0  0  0  0
   35.6300   19.0580   31.7980 O   0  0  0  0  0  0  0  0  0  0  0  0
   36.2290   17.7810   31.9790 C   0  0  0  0  0  0  0  0  0  0  0  0
   35.5160   16.6390   32.2280 C   0  0  0  0  0  0  0  0  0  0  0  0
   36.8680   15.3890   32.3530 S   0  0  0  0  0  0  0  0  0  0  0  0
   38.1810   16.7240   32.0290 C   0  0  0  0  0  0  0  0  0  0  0  0
   37.5530   17.7220   31.8980 N   0  0  0  0  0  0  0  0  0  0  0  0
   39.6380   16.3780   31.9890 C   0  0  0  0  0  0  0  0  0  0  0  0
   39.9430   15.4570   33.1650 C   0  0  0  0  0  0  0  0  0  0  0  0
   40.4950   17.6250   32.0480 C   0  0  0  0  0  0  0  0  0  0  0  0
   39.8450   15.6500   30.7050 C   0  0  0  0  0  0  0  0  0  0  0  0
   38.8757   23.5793   31.3212 H   0  0  0  0  0  0  0  0  0  0  0  0
   38.6862   21.1503   30.7244 H   0  0  0  0  0  0  0  0  0  0  0  0
   35.3398   25.6806   30.3687 H   0  0  0  0  0  0  0  0  0  0  0  0
   35.2211   28.1090   31.1966 H   0  0  0  0  0  0  0  0  0  0  0  0
   37.7140   27.0962   34.5067 H   0  0  0  0  0  0  0  0  0  0  0  0
   34.4289   16.5030   32.3270 H   0  0  0  0  0  0  0  0  0  0  0  0
   39.7649   15.9949   34.1078 H   0  0  0  0  0  0  0  0  0  0  0  0
   39.2895   14.5734   33.1178 H   0  0  0  0  0  0  0  0  0  0  0  0
   40.9947   15.1381   33.1178 H   0  0  0  0  0  0  0  0  0  0  0  0
   40.6796   17.8936   33.0986 H   0  0  0  0  0  0  0  0  0  0  0  0
   41.4542   17.4349   31.5441 H   0  0  0  0  0  0  0  0  0  0  0  0
   39.9738   18.4523   31.5441 H   0  0  0  0  0  0  0  0  0  0  0  0
   40.1403   14.6115   30.9158 H   0  0  0  0  0  0  0  0  0  0  0  0
   38.9098   15.6549   30.1258 H   0  0  0  0  0  0  0  0  0  0  0  0
   40.6376   16.1462   30.1258 H   0  0  0  0  0  0  0  0  0  0  0  0
  1  6  1  0
  2  1  2  0
  3  4  2  0
  3  2  1  0
  4  5  1  0
  5  1  1  0
  6 11  2  0
  7  8  2  0
  7  6  1  0
  8  9  1  0
  9 10  2  0
 11 10  1  0
 12  4  1  0
 12 14  1  0
 13 12  2  0
 14 15  1  0
 15 16  2  0
 16 17  1  0
 18 17  1  0
 19 15  1  0
 19 18  2  0
 20 18  1  0
 20 22  1  0
 20 21  1  0
 23 20  1  0
  2 24  1  0
  3 25  1  0
  7 26  1  0
  8 27  1  0
 10 28  1  0
 16 29  1  0
 21 30  1  0
 21 31  1  0
 21 32  1  0
 22 33  1  0
 22 34  1  0
 22 35  1  0
 23 36  1  0
 23 37  1  0
 23 38  1  0
M  ISO  8  24  14  25  14  26  14  27  14  28  14  29  14  30   8  31   8
M  ISO  7  32   8  33   8  34   8  35   8  36   8  37   8  38   8
M  END
>  <minimizedAffinity>  (1) 
-4.04421806

>  <minimizedRMSD>  (1) 
0.612311721

$$$$
