
     RDKit          3D

 35 37  0  0  0  0  0  0  0  0999 V2000
   36.7890   23.3690   31.4860 C   0  0  0  0  0  0  0  0  0  0  0  0
   37.8960   22.7440   31.0030 C   0  0  0  0  0  0  0  0  0  0  0  0
   37.7950   21.4130   30.7010 C   0  0  0  0  0  0  0  0  0  0  0  0
   36.6250   20.7980   30.8940 C   0  0  0  0  0  0  0  0  0  0  0  0
   35.5280   22.1410   31.5530 S   0  0  0  0  0  0  0  0  0  0  0  0
   36.6350   24.7850   31.8800 C   0  0  0  0  0  0  0  0  0  0  0  0
   35.8240   25.6550   31.1230 C   0  0  0  0  0  0  0  0  0  0  0  0
   35.7540   26.9850   31.5960 C   0  0  0  0  0  0  0  0  0  0  0  0
   36.4560   27.3180   32.7180 N   0  0  0  0  0  0  0  0  0  0  0  0
   37.2070   26.4330   33.3860 C   0  0  0  0  0  0  0  0  0  0  0  0
   37.2950   25.1580   32.9610 N   0  0  0  0  0  0  0  0  0  0  0  0
   36.2310   19.4100   30.6680 C   0  0  0  0  0  0  0  0  0  0  0  0
   36.3730   18.8930   29.5340 O   0  0  0  0  0  0  0  0  0  0  0  0
   35.7000   18.7260   31.7760 O   0  0  0  0  0  0  0  0  0  0  0  0
   36.2910   17.4560   31.9980 C   0  0  0  0  0  0  0  0  0  0  0  0
   35.5860   16.3080   32.2250 C   0  0  0  0  0  0  0  0  0  0  0  0
   36.9290   15.0740   32.4240 S   0  0  0  0  0  0  0  0  0  0  0  0
   38.2440   16.4160   32.1490 C   0  0  0  0  0  0  0  0  0  0  0  0
   37.6180   17.4120   31.9780 N   0  0  0  0  0  0  0  0  0  0  0  0
   39.7280   16.0910   32.1780 C   0  0  0  0  0  0  0  0  0  0  0  0
   40.0380   15.2330   33.3890 C   0  0  0  0  0  0  0  0  0  0  0  0
   40.5460   17.3740   32.1570 C   0  0  0  0  0  0  0  0  0  0  0  0
   38.8404   23.2896   30.8599 H   0  0  0  0  0  0  0  0  0  0  0  0
   38.6606   20.8603   30.3069 H   0  0  0  0  0  0  0  0  0  0  0  0
   35.2826   25.3214   30.2254 H   0  0  0  0  0  0  0  0  0  0  0  0
   35.1462   27.7363   31.0706 H   0  0  0  0  0  0  0  0  0  0  0  0
   37.7546   26.7489   34.2862 H   0  0  0  0  0  0  0  0  0  0  0  0
   34.4969   16.1617   32.2753 H   0  0  0  0  0  0  0  0  0  0  0  0
   40.0027   15.5160   31.2814 H   0  0  0  0  0  0  0  0  0  0  0  0
   39.8315   15.8046   34.3059 H   0  0  0  0  0  0  0  0  0  0  0  0
   39.4090   14.3308   33.3699 H   0  0  0  0  0  0  0  0  0  0  0  0
   41.0984   14.9412   33.3699 H   0  0  0  0  0  0  0  0  0  0  0  0
   40.7508   17.6952   33.1889 H   0  0  0  0  0  0  0  0  0  0  0  0
   41.4966   17.1943   31.6334 H   0  0  0  0  0  0  0  0  0  0  0  0
   39.9819   18.1600   31.6334 H   0  0  0  0  0  0  0  0  0  0  0  0
  1  5  1  0
  1  6  1  0
  2  1  2  0
  3  4  2  0
  3  2  1  0
  4  5  1  0
  6 11  2  0
  7  8  2  0
  7  6  1  0
  8  9  1  0
  9 10  2  0
 11 10  1  0
 12  4  1  0
 12 14  1  0
 13 12  2  0
 14 15  1  0
 15 16  2  0
 16 17  1  0
 18 20  1  0
 18 17  1  0
 19 15  1  0
 19 18  2  0
 20 21  1  0
 22 20  1  0
  2 23  1  0
  3 24  1  0
  7 25  1  0
  8 26  1  0
 10 27  1  0
 16 28  1  0
 20 29  1  0
 21 30  1  0
 21 31  1  0
 21 32  1  0
 22 33  1  0
 22 34  1  0
 22 35  1  0
M  ISO  8  23  14  24  14  25  14  26  14  27  14  28  14  29   8  30   8
M  ISO  5  31   8  32   8  33   8  34   8  35   8
M  END
>  <minimizedAffinity>  (1) 
-4.02536488

>  <minimizedRMSD>  (1) 
0.645243466

$$$$
