
     RDKit          3D

 33 35  0  0  0  0  0  0  0  0999 V2000
   36.1050   19.8030   30.9350 C   0  0  0  0  0  0  0  0  0  0  0  0
   36.3300   19.4370   29.7410 O   0  0  0  0  0  0  0  0  0  0  0  0
   36.7180   23.7050   31.9520 C   0  0  0  0  0  0  0  0  0  0  0  0
   37.7510   22.8790   32.2710 C   0  0  0  0  0  0  0  0  0  0  0  0
   37.6260   21.5560   31.9630 C   0  0  0  0  0  0  0  0  0  0  0  0
   36.5050   21.1400   31.3690 C   0  0  0  0  0  0  0  0  0  0  0  0
   35.4950   22.6840   31.1960 S   0  0  0  0  0  0  0  0  0  0  0  0
   36.6190   25.1610   32.1740 C   0  0  0  0  0  0  0  0  0  0  0  0
   35.8740   25.9690   31.2710 C   0  0  0  0  0  0  0  0  0  0  0  0
   35.8550   27.3450   31.5780 C   0  0  0  0  0  0  0  0  0  0  0  0
   36.5320   27.7820   32.6840 N   0  0  0  0  0  0  0  0  0  0  0  0
   37.2220   26.9540   33.5010 C   0  0  0  0  0  0  0  0  0  0  0  0
   37.2410   25.6440   33.2100 N   0  0  0  0  0  0  0  0  0  0  0  0
   35.4790   18.9980   31.9070 O   0  0  0  0  0  0  0  0  0  0  0  0
   36.1000   17.7260   32.0470 C   0  0  0  0  0  0  0  0  0  0  0  0
   35.4190   16.5810   32.3440 C   0  0  0  0  0  0  0  0  0  0  0  0
   36.7710   15.3390   32.3750 S   0  0  0  0  0  0  0  0  0  0  0  0
   38.0540   16.6770   31.9610 C   0  0  0  0  0  0  0  0  0  0  0  0
   37.4130   17.6790   31.8730 N   0  0  0  0  0  0  0  0  0  0  0  0
   39.4870   16.4300   31.8050 N   0  0  0  0  0  0  0  0  0  0  0  0
   40.4220   17.4790   32.1350 C   0  0  0  0  0  0  0  0  0  0  0  0
   39.9030   18.6530   31.9170 N   0  0  0  0  0  0  0  0  0  0  0  0
   41.6830   16.9740   32.6150 N   0  0  0  0  0  0  0  0  0  0  0  0
   40.3860   19.5520   32.0790 H   0  0  0  0  0  0  0  0  0  0  0  0
   38.6569   23.2652   32.7610 H   0  0  0  0  0  0  0  0  0  0  0  0
   38.4325   20.8462   32.1993 H   0  0  0  0  0  0  0  0  0  0  0  0
   35.3514   25.5513   30.3978 H   0  0  0  0  0  0  0  0  0  0  0  0
   35.3063   28.0539   30.9405 H   0  0  0  0  0  0  0  0  0  0  0  0
   37.7539   27.3442   34.3813 H   0  0  0  0  0  0  0  0  0  0  0  0
   34.3423   16.4394   32.5190 H   0  0  0  0  0  0  0  0  0  0  0  0
   39.8249   15.5188   31.4639 H   0  0  0  0  0  0  0  0  0  0  0  0
   42.4317   17.6287   32.8826 H   0  0  0  0  0  0  0  0  0  0  0  0
   41.8358   15.9582   32.6905 H   0  0  0  0  0  0  0  0  0  0  0  0
  1  6  1  0
  1 14  1  0
  2  1  2  0
  3  8  1  0
  3  4  2  0
  5  4  1  0
  6  5  2  0
  7  6  1  0
  7  3  1  0
  8 13  2  0
  9 10  2  0
  9  8  1  0
 10 11  1  0
 11 12  2  0
 13 12  1  0
 14 15  1  0
 15 16  2  0
 16 17  1  0
 18 17  1  0
 19 18  2  0
 19 15  1  0
 20 18  1  0
 20 21  1  0
 21 23  1  0
 22 24  1  0
 22 21  2  0
  4 25  1  0
  5 26  1  0
  9 27  1  0
 10 28  1  0
 12 29  1  0
 16 30  1  0
 20 31  1  0
 23 32  1  0
 23 33  1  0
M  ISO  6  25  14  26  14  27  14  28  14  29  14  30  14
M  END
>  <minimizedAffinity>  (1) 
-4.07161522

>  <minimizedRMSD>  (1) 
0.187955648

$$$$
