
     RDKit          3D

 34 37  0  0  0  0  0  0  0  0999 V2000
   36.8200   23.6240   31.5880 C   0  0  0  0  0  0  0  0  0  0  0  0
   37.9420   23.0100   31.1300 C   0  0  0  0  0  0  0  0  0  0  0  0
   37.8430   21.6830   30.7950 C   0  0  0  0  0  0  0  0  0  0  0  0
   36.6650   21.0730   30.9370 C   0  0  0  0  0  0  0  0  0  0  0  0
   35.5440   22.4020   31.5900 S   0  0  0  0  0  0  0  0  0  0  0  0
   36.6650   25.0330   32.0120 C   0  0  0  0  0  0  0  0  0  0  0  0
   35.8910   25.9260   31.2450 C   0  0  0  0  0  0  0  0  0  0  0  0
   35.8080   27.2430   31.7360 C   0  0  0  0  0  0  0  0  0  0  0  0
   36.4710   27.5410   32.8930 N   0  0  0  0  0  0  0  0  0  0  0  0
   37.1920   26.6450   33.5770 C   0  0  0  0  0  0  0  0  0  0  0  0
   37.2850   25.3790   33.1270 N   0  0  0  0  0  0  0  0  0  0  0  0
   36.2710   19.6940   30.6640 C   0  0  0  0  0  0  0  0  0  0  0  0
   36.4140   19.2180   29.5080 O   0  0  0  0  0  0  0  0  0  0  0  0
   35.7480   18.9640   31.7210 O   0  0  0  0  0  0  0  0  0  0  0  0
   36.3680   17.7070   31.9260 C   0  0  0  0  0  0  0  0  0  0  0  0
   35.6940   16.5380   32.1110 C   0  0  0  0  0  0  0  0  0  0  0  0
   37.0740   15.3300   32.3100 S   0  0  0  0  0  0  0  0  0  0  0  0
   38.3480   16.7190   32.0920 C   0  0  0  0  0  0  0  0  0  0  0  0
   37.6950   17.6980   31.9320 N   0  0  0  0  0  0  0  0  0  0  0  0
   39.7920   16.4110   32.1480 C   0  0  0  0  0  0  0  0  0  0  0  0
   40.3630   15.7920   33.2220 C   0  0  0  0  0  0  0  0  0  0  0  0
   41.7170   15.5330   33.2100 C   0  0  0  0  0  0  0  0  0  0  0  0
   42.4950   15.8750   32.1670 N   0  0  0  0  0  0  0  0  0  0  0  0
   41.9160   16.4870   31.1100 C   0  0  0  0  0  0  0  0  0  0  0  0
   40.5980   16.7490   31.0990 N   0  0  0  0  0  0  0  0  0  0  0  0
   38.8924   23.5551   31.0316 H   0  0  0  0  0  0  0  0  0  0  0  0
   38.7175   21.1331   30.4169 H   0  0  0  0  0  0  0  0  0  0  0  0
   35.3833   25.6139   30.3204 H   0  0  0  0  0  0  0  0  0  0  0  0
   35.2262   28.0098   31.2036 H   0  0  0  0  0  0  0  0  0  0  0  0
   37.7066   26.9412   34.5030 H   0  0  0  0  0  0  0  0  0  0  0  0
   34.6087   16.3603   32.1354 H   0  0  0  0  0  0  0  0  0  0  0  0
   39.7494   15.5028   34.0880 H   0  0  0  0  0  0  0  0  0  0  0  0
   42.1738   15.0331   34.0769 H   0  0  0  0  0  0  0  0  0  0  0  0
   42.5329   16.7749   30.2459 H   0  0  0  0  0  0  0  0  0  0  0  0
  1  5  1  0
  1  6  1  0
  2  1  2  0
  3  4  2  0
  3  2  1  0
  4  5  1  0
  6 11  2  0
  7  8  2  0
  7  6  1  0
  8  9  1  0
  9 10  2  0
 11 10  1  0
 12  4  1  0
 12 14  1  0
 13 12  2  0
 14 15  1  0
 15 19  1  0
 15 16  2  0
 16 17  1  0
 18 20  1  0
 18 17  1  0
 19 18  2  0
 20 21  2  0
 22 21  1  0
 23 22  2  0
 24 23  1  0
 25 24  2  0
 25 20  1  0
  2 26  1  0
  3 27  1  0
  7 28  1  0
  8 29  1  0
 10 30  1  0
 16 31  1  0
 21 32  1  0
 22 33  1  0
 24 34  1  0
M  ISO  8  26  14  27  14  28  14  29  14  30  14  31  14  32  14  33  14
M  ISO  1  34  14
M  END
>  <minimizedAffinity>  (1) 
-3.94925046

>  <minimizedRMSD>  (1) 
0.620840847

$$$$
