
     RDKit          3D

 31 34  0  0  0  0  0  0  0  0999 V2000
   36.7830   23.3710   31.4840 C   0  0  0  0  0  0  0  0  0  0  0  0
   37.8930   22.7590   30.9880 C   0  0  0  0  0  0  0  0  0  0  0  0
   37.7950   21.4200   30.6850 C   0  0  0  0  0  0  0  0  0  0  0  0
   36.6280   20.8040   30.8920 C   0  0  0  0  0  0  0  0  0  0  0  0
   35.5190   22.1400   31.5690 S   0  0  0  0  0  0  0  0  0  0  0  0
   36.6340   24.7880   31.8830 C   0  0  0  0  0  0  0  0  0  0  0  0
   35.8250   25.6580   31.1240 C   0  0  0  0  0  0  0  0  0  0  0  0
   35.7620   26.9830   31.6020 C   0  0  0  0  0  0  0  0  0  0  0  0
   36.4590   27.3190   32.7220 N   0  0  0  0  0  0  0  0  0  0  0  0
   37.2160   26.4350   33.4030 C   0  0  0  0  0  0  0  0  0  0  0  0
   37.2870   25.1660   32.9580 N   0  0  0  0  0  0  0  0  0  0  0  0
   36.2330   19.4170   30.6690 C   0  0  0  0  0  0  0  0  0  0  0  0
   36.3840   18.9010   29.5310 O   0  0  0  0  0  0  0  0  0  0  0  0
   35.7010   18.7260   31.7450 O   0  0  0  0  0  0  0  0  0  0  0  0
   36.2920   17.4520   31.9680 C   0  0  0  0  0  0  0  0  0  0  0  0
   35.5780   16.2980   32.1470 C   0  0  0  0  0  0  0  0  0  0  0  0
   36.9300   15.0660   32.3770 S   0  0  0  0  0  0  0  0  0  0  0  0
   38.2470   16.4160   32.1760 C   0  0  0  0  0  0  0  0  0  0  0  0
   37.6190   17.4170   31.9980 N   0  0  0  0  0  0  0  0  0  0  0  0
   39.6940   16.1170   32.2520 C   0  0  0  0  0  0  0  0  0  0  0  0
   40.3630   15.7710   33.3670 N   0  0  0  0  0  0  0  0  0  0  0  0
   41.6270   15.5800   33.0750 O   0  0  0  0  0  0  0  0  0  0  0  0
   41.8230   15.7910   31.7880 C   0  0  0  0  0  0  0  0  0  0  0  0
   40.6240   16.1250   31.2770 N   0  0  0  0  0  0  0  0  0  0  0  0
   38.8312   23.3126   30.8354 H   0  0  0  0  0  0  0  0  0  0  0  0
   38.6579   20.8698   30.2816 H   0  0  0  0  0  0  0  0  0  0  0  0
   35.2831   25.3277   30.2255 H   0  0  0  0  0  0  0  0  0  0  0  0
   35.1569   27.7362   31.0762 H   0  0  0  0  0  0  0  0  0  0  0  0
   37.7649   26.7445   34.3046 H   0  0  0  0  0  0  0  0  0  0  0  0
   34.4885   16.1463   32.1522 H   0  0  0  0  0  0  0  0  0  0  0  0
   42.7747   15.7102   31.2424 H   0  0  0  0  0  0  0  0  0  0  0  0
  1  5  1  0
  1  6  1  0
  2  1  2  0
  3  4  2  0
  3  2  1  0
  4  5  1  0
  6 11  2  0
  7  8  2  0
  7  6  1  0
  8  9  1  0
  9 10  2  0
 11 10  1  0
 12  4  1  0
 12 14  1  0
 13 12  2  0
 14 15  1  0
 15 19  1  0
 15 16  2  0
 16 17  1  0
 18 20  1  0
 18 17  1  0
 19 18  2  0
 20 21  2  0
 22 21  1  0
 23 22  1  0
 24 23  2  0
 24 20  1  0
  2 25  1  0
  3 26  1  0
  7 27  1  0
  8 28  1  0
 10 29  1  0
 16 30  1  0
 23 31  1  0
M  ISO  7  25  14  26  14  27  14  28  14  29  14  30  14  31  14
M  END
>  <minimizedAffinity>  (1) 
-3.92340899

>  <minimizedRMSD>  (1) 
0.601723433

$$$$
