
     RDKit          3D

 28 30  0  0  0  0  0  0  0  0999 V2000
   36.6210   20.8680   34.2070 C   0  0  0  0  0  0  0  0  0  0  0  0
   37.3600   21.1740   33.0280 C   0  0  0  0  0  0  0  0  0  0  0  0
   38.2470   22.2490   33.0610 C   0  0  0  0  0  0  0  0  0  0  0  0
   38.3560   22.9490   34.2310 N   0  0  0  0  0  0  0  0  0  0  0  0
   37.6570   22.6530   35.3300 C   0  0  0  0  0  0  0  0  0  0  0  0
   36.7940   21.6190   35.3210 N   0  0  0  0  0  0  0  0  0  0  0  0
   37.7870   23.3980   36.5370 N   0  0  0  0  0  0  0  0  0  0  0  0
   37.5970   23.1510   37.8490 C   0  0  0  0  0  0  0  0  0  0  0  0
   37.9070   24.3260   38.5430 C   0  0  0  0  0  0  0  0  0  0  0  0
   38.2820   25.2770   37.6660 N   0  0  0  0  0  0  0  0  0  0  0  0
   38.2020   24.6900   36.4520 C   0  0  0  0  0  0  0  0  0  0  0  0
   37.1190   20.3400   31.9120 N   0  0  0  0  0  0  0  0  0  0  0  0
   37.8540   19.1890   31.8780 C   0  0  0  0  0  0  0  0  0  0  0  0
   37.6450   18.3490   30.8030 C   0  0  0  0  0  0  0  0  0  0  0  0
   36.7260   18.7230   29.8570 C   0  0  0  0  0  0  0  0  0  0  0  0
   36.4740   17.9020   28.7390 N   0  0  0  0  0  0  0  0  0  0  0  0
   36.0410   19.8670   29.9570 N   0  0  0  0  0  0  0  0  0  0  0  0
   36.2280   20.7030   30.9970 C   0  0  0  0  0  0  0  0  0  0  0  0
   35.5780   21.7580   31.0620 O   0  0  0  0  0  0  0  0  0  0  0  0
   35.9133   20.0259   34.2126 H   0  0  0  0  0  0  0  0  0  0  0  0
   38.8392   22.5249   32.1760 H   0  0  0  0  0  0  0  0  0  0  0  0
   37.2607   22.2018   38.2917 H   0  0  0  0  0  0  0  0  0  0  0  0
   37.8529   24.4531   39.6343 H   0  0  0  0  0  0  0  0  0  0  0  0
   38.4440   25.1973   35.5064 H   0  0  0  0  0  0  0  0  0  0  0  0
   38.5776   18.9435   32.6693 H   0  0  0  0  0  0  0  0  0  0  0  0
   38.2010   17.4046   30.7078 H   0  0  0  0  0  0  0  0  0  0  0  0
   36.9824   17.0131   28.6277 H   0  0  0  0  0  0  0  0  0  0  0  0
   35.7815   18.1910   28.0334 H   0  0  0  0  0  0  0  0  0  0  0  0
  1  6  2  0
  2  3  2  0
  2  1  1  0
  3  4  1  0
  4  5  2  0
  5  7  1  0
  6  5  1  0
  7  8  1  0
  8  9  2  0
 10  9  1  0
 11  7  1  0
 11 10  2  0
 12  2  1  0
 13 12  1  0
 14 13  2  0
 15 17  2  0
 15 14  1  0
 16 15  1  0
 17 18  1  0
 18 19  2  0
 18 12  1  0
  1 20  1  0
  3 21  1  0
  8 22  1  0
  9 23  1  0
 11 24  1  0
 13 25  1  0
 14 26  1  0
 16 27  1  0
 16 28  1  0
M  ISO  7  20  14  21  14  22  14  23  14  24  14  25  14  26  14
M  END
>  <minimizedAffinity>  (1) 
-4.06926966

>  <minimizedRMSD>  (1) 
3.91875052

$$$$
