
     RDKit          3D

 33 36  0  0  0  0  0  0  0  0999 V2000
   36.7750   23.3620   31.4840 C   0  0  0  0  0  0  0  0  0  0  0  0
   37.8830   22.7420   30.9970 C   0  0  0  0  0  0  0  0  0  0  0  0
   37.7840   21.4030   30.6980 C   0  0  0  0  0  0  0  0  0  0  0  0
   36.6140   20.7920   30.9020 C   0  0  0  0  0  0  0  0  0  0  0  0
   35.5080   22.1340   31.5650 S   0  0  0  0  0  0  0  0  0  0  0  0
   36.6330   24.7760   31.8790 C   0  0  0  0  0  0  0  0  0  0  0  0
   35.8250   25.6460   31.1220 C   0  0  0  0  0  0  0  0  0  0  0  0
   35.7630   26.9800   31.6010 C   0  0  0  0  0  0  0  0  0  0  0  0
   36.4670   27.3060   32.7210 N   0  0  0  0  0  0  0  0  0  0  0  0
   37.2200   26.4250   33.3960 C   0  0  0  0  0  0  0  0  0  0  0  0
   37.2930   25.1540   32.9600 N   0  0  0  0  0  0  0  0  0  0  0  0
   36.2210   19.4040   30.6750 C   0  0  0  0  0  0  0  0  0  0  0  0
   36.3880   18.8970   29.5200 O   0  0  0  0  0  0  0  0  0  0  0  0
   35.6810   18.7120   31.7470 O   0  0  0  0  0  0  0  0  0  0  0  0
   36.2640   17.4410   31.9660 C   0  0  0  0  0  0  0  0  0  0  0  0
   35.5540   16.2840   32.1330 C   0  0  0  0  0  0  0  0  0  0  0  0
   36.8980   15.0510   32.3690 S   0  0  0  0  0  0  0  0  0  0  0  0
   38.2140   16.4010   32.1880 C   0  0  0  0  0  0  0  0  0  0  0  0
   37.5920   17.3960   32.0110 N   0  0  0  0  0  0  0  0  0  0  0  0
   39.6730   16.1030   32.2780 C   0  0  0  0  0  0  0  0  0  0  0  0
   40.4090   15.6670   33.3600 C   0  0  0  0  0  0  0  0  0  0  0  0
   41.7080   15.5500   32.8960 C   0  0  0  0  0  0  0  0  0  0  0  0
   41.7520   15.9000   31.5970 N   0  0  0  0  0  0  0  0  0  0  0  0
   40.5080   16.2340   31.2360 N   0  0  0  0  0  0  0  0  0  0  0  0
   38.8242   23.2913   30.8476 H   0  0  0  0  0  0  0  0  0  0  0  0
   38.6473   20.8490   30.3006 H   0  0  0  0  0  0  0  0  0  0  0  0
   35.2815   25.3154   30.2246 H   0  0  0  0  0  0  0  0  0  0  0  0
   35.1586   27.7361   31.0785 H   0  0  0  0  0  0  0  0  0  0  0  0
   37.7712   26.7376   34.2951 H   0  0  0  0  0  0  0  0  0  0  0  0
   34.4647   16.1310   32.1276 H   0  0  0  0  0  0  0  0  0  0  0  0
   40.0419   15.4570   34.3754 H   0  0  0  0  0  0  0  0  0  0  0  0
   42.5700   15.2221   33.4955 H   0  0  0  0  0  0  0  0  0  0  0  0
   42.5870   15.9090   30.9940 H   0  0  0  0  0  0  0  0  0  0  0  0
  1  5  1  0
  1  6  1  0
  2  1  2  0
  3  4  2  0
  3  2  1  0
  4  5  1  0
  6 11  2  0
  7  8  2  0
  7  6  1  0
  8  9  1  0
  9 10  2  0
 11 10  1  0
 12  4  1  0
 12 14  1  0
 13 12  2  0
 14 15  1  0
 15 19  1  0
 15 16  2  0
 16 17  1  0
 18 20  1  0
 18 17  1  0
 19 18  2  0
 20 21  1  0
 22 21  2  0
 23 22  1  0
 24 23  1  0
 24 20  2  0
  2 25  1  0
  3 26  1  0
  7 27  1  0
  8 28  1  0
 10 29  1  0
 16 30  1  0
 21 31  1  0
 22 32  1  0
 23 33  1  0
M  ISO  8  25  14  26  14  27  14  28  14  29  14  30  14  31  14  32  14
M  ISO  1  33   9
M  END
>  <minimizedAffinity>  (1) 
-3.95748949

>  <minimizedRMSD>  (1) 
0.618436217

$$$$
