
     RDKit          3D

 28 30  0  0  0  0  0  0  0  0999 V2000
   36.7280   23.6050   31.9610 C   0  0  0  0  0  0  0  0  0  0  0  0
   37.7600   22.7880   32.3020 C   0  0  0  0  0  0  0  0  0  0  0  0
   37.6320   21.4460   32.0210 C   0  0  0  0  0  0  0  0  0  0  0  0
   36.5090   21.0270   31.4320 C   0  0  0  0  0  0  0  0  0  0  0  0
   35.5060   22.5760   31.2250 S   0  0  0  0  0  0  0  0  0  0  0  0
   36.6300   25.0620   32.1610 C   0  0  0  0  0  0  0  0  0  0  0  0
   35.8700   25.8530   31.2760 C   0  0  0  0  0  0  0  0  0  0  0  0
   35.8540   27.2340   31.5770 C   0  0  0  0  0  0  0  0  0  0  0  0
   36.5470   27.6880   32.6560 N   0  0  0  0  0  0  0  0  0  0  0  0
   37.2570   26.8780   33.4640 C   0  0  0  0  0  0  0  0  0  0  0  0
   37.2820   25.5620   33.1940 N   0  0  0  0  0  0  0  0  0  0  0  0
   36.1000   19.6900   31.0170 C   0  0  0  0  0  0  0  0  0  0  0  0
   36.3010   19.3290   29.8130 O   0  0  0  0  0  0  0  0  0  0  0  0
   35.5070   18.8850   31.9750 O   0  0  0  0  0  0  0  0  0  0  0  0
   36.1080   17.6020   32.0980 C   0  0  0  0  0  0  0  0  0  0  0  0
   35.4050   16.4450   32.2710 C   0  0  0  0  0  0  0  0  0  0  0  0
   36.7450   15.1970   32.3510 S   0  0  0  0  0  0  0  0  0  0  0  0
   38.0760   16.5590   32.1200 C   0  0  0  0  0  0  0  0  0  0  0  0
   37.4340   17.5570   32.0340 N   0  0  0  0  0  0  0  0  0  0  0  0
   39.4610   16.2300   32.0880 N   0  0  0  0  0  0  0  0  0  0  0  0
   38.6650   23.1849   32.7852 H   0  0  0  0  0  0  0  0  0  0  0  0
   38.4340   20.7374   32.2751 H   0  0  0  0  0  0  0  0  0  0  0  0
   35.3305   25.4281   30.4167 H   0  0  0  0  0  0  0  0  0  0  0  0
   35.2873   27.9341   30.9455 H   0  0  0  0  0  0  0  0  0  0  0  0
   37.8049   27.2850   34.3267 H   0  0  0  0  0  0  0  0  0  0  0  0
   34.3171   16.2994   32.3436 H   0  0  0  0  0  0  0  0  0  0  0  0
   40.1639   16.9724   31.9632 H   0  0  0  0  0  0  0  0  0  0  0  0
   39.7599   15.2496   32.1896 H   0  0  0  0  0  0  0  0  0  0  0  0
  1  6  1  0
  1  2  2  0
  3  2  1  0
  4  3  2  0
  5  4  1  0
  5  1  1  0
  6 11  2  0
  7  8  2  0
  7  6  1  0
  8  9  1  0
  9 10  2  0
 11 10  1  0
 12  4  1  0
 12 14  1  0
 13 12  2  0
 14 15  1  0
 15 16  2  0
 16 17  1  0
 18 17  1  0
 19 15  1  0
 19 18  2  0
 20 18  1  0
  2 21  1  0
  3 22  1  0
  7 23  1  0
  8 24  1  0
 10 25  1  0
 16 26  1  0
 20 27  1  0
 20 28  1  0
M  ISO  6  21  14  22  14  23  14  24  14  25  14  26  14
M  END
>  <minimizedAffinity>  (1) 
-3.82852769

>  <minimizedRMSD>  (1) 
0.0833701193

$$$$
