
     RDKit          3D

 29 31  0  0  0  0  0  0  0  0999 V2000
   36.7330   23.6010   31.9640 C   0  0  0  0  0  0  0  0  0  0  0  0
   37.7670   22.7860   32.3080 C   0  0  0  0  0  0  0  0  0  0  0  0
   37.6410   21.4420   32.0230 C   0  0  0  0  0  0  0  0  0  0  0  0
   36.5180   21.0260   31.4320 C   0  0  0  0  0  0  0  0  0  0  0  0
   35.5120   22.5740   31.2250 S   0  0  0  0  0  0  0  0  0  0  0  0
   36.6290   25.0610   32.1620 C   0  0  0  0  0  0  0  0  0  0  0  0
   35.8680   25.8510   31.2760 C   0  0  0  0  0  0  0  0  0  0  0  0
   35.8490   27.2340   31.5730 C   0  0  0  0  0  0  0  0  0  0  0  0
   36.5430   27.6890   32.6540 N   0  0  0  0  0  0  0  0  0  0  0  0
   37.2520   26.8800   33.4620 C   0  0  0  0  0  0  0  0  0  0  0  0
   37.2820   25.5590   33.1960 N   0  0  0  0  0  0  0  0  0  0  0  0
   36.1000   19.6910   31.0130 C   0  0  0  0  0  0  0  0  0  0  0  0
   36.3000   19.3230   29.8160 O   0  0  0  0  0  0  0  0  0  0  0  0
   35.4940   18.8890   31.9800 O   0  0  0  0  0  0  0  0  0  0  0  0
   36.1020   17.6070   32.1000 C   0  0  0  0  0  0  0  0  0  0  0  0
   35.3890   16.4450   32.2630 C   0  0  0  0  0  0  0  0  0  0  0  0
   36.7210   15.2010   32.3460 S   0  0  0  0  0  0  0  0  0  0  0  0
   38.0560   16.5540   32.1320 C   0  0  0  0  0  0  0  0  0  0  0  0
   37.4270   17.5580   32.0450 N   0  0  0  0  0  0  0  0  0  0  0  0
   39.5550   16.2920   32.0950 C   0  0  0  0  0  0  0  0  0  0  0  0
   38.6695   23.1839   32.7951 H   0  0  0  0  0  0  0  0  0  0  0  0
   38.4431   20.7329   32.2755 H   0  0  0  0  0  0  0  0  0  0  0  0
   35.3291   25.4236   30.4176 H   0  0  0  0  0  0  0  0  0  0  0  0
   35.2819   27.9325   30.9401 H   0  0  0  0  0  0  0  0  0  0  0  0
   37.7978   27.2895   34.3248 H   0  0  0  0  0  0  0  0  0  0  0  0
   34.3002   16.3017   32.3268 H   0  0  0  0  0  0  0  0  0  0  0  0
   39.9409   16.2245   33.1229 H   0  0  0  0  0  0  0  0  0  0  0  0
   39.7490   15.3463   31.5677 H   0  0  0  0  0  0  0  0  0  0  0  0
   40.0583   17.1158   31.5677 H   0  0  0  0  0  0  0  0  0  0  0  0
  1  6  1  0
  1  2  2  0
  3  2  1  0
  4  3  2  0
  5  4  1  0
  5  1  1  0
  6 11  2  0
  7  8  2  0
  7  6  1  0
  8  9  1  0
  9 10  2  0
 11 10  1  0
 12  4  1  0
 12 14  1  0
 13 12  2  0
 14 15  1  0
 15 16  2  0
 16 17  1  0
 18 17  1  0
 19 15  1  0
 19 18  2  0
 20 18  1  0
  2 21  1  0
  3 22  1  0
  7 23  1  0
  8 24  1  0
 10 25  1  0
 16 26  1  0
 20 27  1  0
 20 28  1  0
 20 29  1  0
M  ISO  8  21  14  22  14  23  14  24  14  25  14  26  14  27   8  28   8
M  ISO  1  29   8
M  END
>  <minimizedAffinity>  (1) 
-3.87711549

>  <minimizedRMSD>  (1) 
0.102286458

$$$$
