
     RDKit          3D

 28 30  0  0  0  0  0  0  0  0999 V2000
   36.7870   23.3760   31.4720 C   0  0  0  0  0  0  0  0  0  0  0  0
   37.9040   22.7610   30.9960 C   0  0  0  0  0  0  0  0  0  0  0  0
   37.8150   21.4200   30.6860 C   0  0  0  0  0  0  0  0  0  0  0  0
   36.6440   20.8050   30.8730 C   0  0  0  0  0  0  0  0  0  0  0  0
   35.5240   22.1430   31.5310 S   0  0  0  0  0  0  0  0  0  0  0  0
   36.6340   24.7860   31.8690 C   0  0  0  0  0  0  0  0  0  0  0  0
   35.8230   25.6580   31.1150 C   0  0  0  0  0  0  0  0  0  0  0  0
   35.7590   26.9850   31.6010 C   0  0  0  0  0  0  0  0  0  0  0  0
   36.4570   27.3150   32.7210 N   0  0  0  0  0  0  0  0  0  0  0  0
   37.2120   26.4350   33.3930 C   0  0  0  0  0  0  0  0  0  0  0  0
   37.2910   25.1630   32.9520 N   0  0  0  0  0  0  0  0  0  0  0  0
   36.2480   19.4190   30.6410 C   0  0  0  0  0  0  0  0  0  0  0  0
   36.3920   18.9150   29.4980 O   0  0  0  0  0  0  0  0  0  0  0  0
   35.7240   18.7250   31.7200 O   0  0  0  0  0  0  0  0  0  0  0  0
   36.3570   17.4770   31.9660 C   0  0  0  0  0  0  0  0  0  0  0  0
   35.6670   16.3170   32.1920 C   0  0  0  0  0  0  0  0  0  0  0  0
   37.0530   15.1230   32.4290 S   0  0  0  0  0  0  0  0  0  0  0  0
   38.3400   16.4980   32.1610 C   0  0  0  0  0  0  0  0  0  0  0  0
   37.6830   17.4700   31.9700 N   0  0  0  0  0  0  0  0  0  0  0  0
   39.7330   16.0680   32.2480 C   0  0  0  0  0  0  0  0  0  0  0  0
   40.3230   15.9130   33.3630 O   0  0  0  0  0  0  0  0  0  0  0  0
   38.8453   23.3144   30.8631 H   0  0  0  0  0  0  0  0  0  0  0  0
   38.6849   20.8717   30.2953 H   0  0  0  0  0  0  0  0  0  0  0  0
   35.2803   25.3311   30.2158 H   0  0  0  0  0  0  0  0  0  0  0  0
   35.1525   27.7404   31.0799 H   0  0  0  0  0  0  0  0  0  0  0  0
   37.7609   26.7466   34.2939 H   0  0  0  0  0  0  0  0  0  0  0  0
   34.5812   16.1437   32.2237 H   0  0  0  0  0  0  0  0  0  0  0  0
   40.2890   15.8721   31.3193 H   0  0  0  0  0  0  0  0  0  0  0  0
  1  5  1  0
  1  6  1  0
  2  1  2  0
  3  4  2  0
  3  2  1  0
  4  5  1  0
  6 11  2  0
  7  8  2  0
  7  6  1  0
  8  9  1  0
  9 10  2  0
 11 10  1  0
 12  4  1  0
 12 14  1  0
 13 12  2  0
 14 15  1  0
 15 19  1  0
 15 16  2  0
 16 17  1  0
 18 20  1  0
 18 17  1  0
 19 18  2  0
 20 21  2  0
  2 22  1  0
  3 23  1  0
  7 24  1  0
  8 25  1  0
 10 26  1  0
 16 27  1  0
 20 28  1  0
M  ISO  7  22  14  23  14  24  14  25  14  26  14  27  14  28   6
M  END
>  <minimizedAffinity>  (1) 
-3.85715437

>  <minimizedRMSD>  (1) 
0.597852528

$$$$
