
     RDKit          3D

 27 29  0  0  0  0  0  0  0  0999 V2000
   36.7360   23.5950   31.9660 C   0  0  0  0  0  0  0  0  0  0  0  0
   37.7650   22.7690   32.3020 C   0  0  0  0  0  0  0  0  0  0  0  0
   37.6350   21.4400   32.0100 C   0  0  0  0  0  0  0  0  0  0  0  0
   36.5170   21.0200   31.4140 C   0  0  0  0  0  0  0  0  0  0  0  0
   35.5200   22.5650   31.2170 S   0  0  0  0  0  0  0  0  0  0  0  0
   36.6360   25.0530   32.1680 C   0  0  0  0  0  0  0  0  0  0  0  0
   35.8670   25.8450   31.2820 C   0  0  0  0  0  0  0  0  0  0  0  0
   35.8440   27.2280   31.5720 C   0  0  0  0  0  0  0  0  0  0  0  0
   36.5420   27.6770   32.6520 N   0  0  0  0  0  0  0  0  0  0  0  0
   37.2510   26.8680   33.4510 C   0  0  0  0  0  0  0  0  0  0  0  0
   37.2960   25.5420   33.2030 N   0  0  0  0  0  0  0  0  0  0  0  0
   36.1070   19.6820   30.9940 C   0  0  0  0  0  0  0  0  0  0  0  0
   36.2980   19.3070   29.8130 O   0  0  0  0  0  0  0  0  0  0  0  0
   35.5050   18.8790   31.9790 O   0  0  0  0  0  0  0  0  0  0  0  0
   36.1060   17.5940   32.0990 C   0  0  0  0  0  0  0  0  0  0  0  0
   35.4030   16.4360   32.2580 C   0  0  0  0  0  0  0  0  0  0  0  0
   36.7400   15.1840   32.3440 S   0  0  0  0  0  0  0  0  0  0  0  0
   38.0540   16.5390   32.1380 C   0  0  0  0  0  0  0  0  0  0  0  0
   37.4340   17.5480   32.0500 N   0  0  0  0  0  0  0  0  0  0  0  0
   39.9600   16.4050   32.0760 S   0  0  0  0  0  0  0  0  0  0  0  0
   38.6700   23.1579   32.7917 H   0  0  0  0  0  0  0  0  0  0  0  0
   38.4367   20.7300   32.2615 H   0  0  0  0  0  0  0  0  0  0  0  0
   35.3250   25.4140   30.4273 H   0  0  0  0  0  0  0  0  0  0  0  0
   35.2754   27.9259   30.9399 H   0  0  0  0  0  0  0  0  0  0  0  0
   37.7970   27.2850   34.3100 H   0  0  0  0  0  0  0  0  0  0  0  0
   34.3144   16.2906   32.3189 H   0  0  0  0  0  0  0  0  0  0  0  0
   40.4571   16.3701   33.3522 H   0  0  0  0  0  0  0  0  0  0  0  0
  1  6  1  0
  1  2  2  0
  3  2  1  0
  4  3  2  0
  5  4  1  0
  5  1  1  0
  6 11  2  0
  7  8  2  0
  7  6  1  0
  8  9  1  0
  9 10  2  0
 11 10  1  0
 12  4  1  0
 12 14  1  0
 13 12  2  0
 14 15  1  0
 15 16  2  0
 16 17  1  0
 18 17  1  0
 19 15  1  0
 19 18  2  0
 20 18  1  0
  2 21  1  0
  3 22  1  0
  7 23  1  0
  8 24  1  0
 10 25  1  0
 16 26  1  0
 20 27  1  0
M  ISO  7  21  14  22  14  23  14  24  14  25  14  26  14  27  11
M  END
>  <minimizedAffinity>  (1) 
-3.83553553

>  <minimizedRMSD>  (1) 
0.102225788

$$$$
