
     RDKit          3D

 44 48  0  0  0  0  0  0  0  0999 V2000
   36.0880   17.2100   31.9330 C   0  0  0  0  0  0  0  0  0  0  0  0
   35.3300   16.0860   32.0030 C   0  0  0  0  0  0  0  0  0  0  0  0
   36.5890   14.7940   32.3580 S   0  0  0  0  0  0  0  0  0  0  0  0
   37.9750   16.0970   32.3410 C   0  0  0  0  0  0  0  0  0  0  0  0
   37.3870   17.1070   32.1160 N   0  0  0  0  0  0  0  0  0  0  0  0
   39.3350   15.6000   32.5910 C   0  0  0  0  0  0  0  0  0  0  0  0
   39.8780   14.3490   32.3540 C   0  0  0  0  0  0  0  0  0  0  0  0
   41.2000   14.4480   32.7840 C   0  0  0  0  0  0  0  0  0  0  0  0
   41.3220   15.7560   33.2390 C   0  0  0  0  0  0  0  0  0  0  0  0
   40.1910   16.4070   33.1080 O   0  0  0  0  0  0  0  0  0  0  0  0
   42.5270   16.3310   33.7870 N   0  0  0  0  0  0  0  0  0  0  0  0
   43.4500   16.7850   32.8990 C   0  0  0  0  0  0  0  0  0  0  0  0
   44.6350   17.3530   33.3140 C   0  0  0  0  0  0  0  0  0  0  0  0
   44.8520   17.4440   34.6790 C   0  0  0  0  0  0  0  0  0  0  0  0
   46.0840   18.0340   35.0640 N   0  0  0  0  0  0  0  0  0  0  0  0
   43.9120   16.9810   35.5260 N   0  0  0  0  0  0  0  0  0  0  0  0
   42.7590   16.4300   35.1020 C   0  0  0  0  0  0  0  0  0  0  0  0
   41.9180   16.0150   35.9090 O   0  0  0  0  0  0  0  0  0  0  0  0
   35.5900   18.4990   31.6750 O   0  0  0  0  0  0  0  0  0  0  0  0
   36.2290   19.1460   30.6020 C   0  0  0  0  0  0  0  0  0  0  0  0
   36.4790   18.6010   29.5030 O   0  0  0  0  0  0  0  0  0  0  0  0
   36.7390   23.1110   31.3730 C   0  0  0  0  0  0  0  0  0  0  0  0
   37.8710   22.4950   30.9470 C   0  0  0  0  0  0  0  0  0  0  0  0
   37.7830   21.1600   30.6660 C   0  0  0  0  0  0  0  0  0  0  0  0
   36.6150   20.5480   30.8220 C   0  0  0  0  0  0  0  0  0  0  0  0
   35.4800   21.8910   31.4140 S   0  0  0  0  0  0  0  0  0  0  0  0
   36.5730   24.5450   31.7400 C   0  0  0  0  0  0  0  0  0  0  0  0
   35.7160   25.3730   31.0040 C   0  0  0  0  0  0  0  0  0  0  0  0
   35.6370   26.7140   31.4370 C   0  0  0  0  0  0  0  0  0  0  0  0
   36.3970   27.0910   32.5280 N   0  0  0  0  0  0  0  0  0  0  0  0
   37.1950   26.2460   33.1840 C   0  0  0  0  0  0  0  0  0  0  0  0
   37.2730   24.9720   32.7760 N   0  0  0  0  0  0  0  0  0  0  0  0
   34.2425   15.9764   31.8792 H   0  0  0  0  0  0  0  0  0  0  0  0
   39.3767   13.4705   31.9216 H   0  0  0  0  0  0  0  0  0  0  0  0
   41.9737   13.6662   32.7671 H   0  0  0  0  0  0  0  0  0  0  0  0
   43.2461   16.6969   31.8217 H   0  0  0  0  0  0  0  0  0  0  0  0
   45.3784   17.7192   32.5906 H   0  0  0  0  0  0  0  0  0  0  0  0
   46.3164   18.1361   36.0622 H   0  0  0  0  0  0  0  0  0  0  0  0
   46.7457   18.3601   34.3452 H   0  0  0  0  0  0  0  0  0  0  0  0
   38.8167   23.0452   30.8330 H   0  0  0  0  0  0  0  0  0  0  0  0
   38.6646   20.6025   30.3167 H   0  0  0  0  0  0  0  0  0  0  0  0
   35.1409   25.0016   30.1430 H   0  0  0  0  0  0  0  0  0  0  0  0
   34.9893   27.4381   30.9211 H   0  0  0  0  0  0  0  0  0  0  0  0
   37.7812   26.5909   34.0485 H   0  0  0  0  0  0  0  0  0  0  0  0
  1  2  2  0
  1  5  1  0
  2  3  1  0
  4  3  1  0
  4  6  1  0
  5  4  2  0
  6 10  1  0
  7  6  2  0
  7  8  1  0
  8  9  2  0
  9 11  1  0
 10  9  1  0
 11 17  1  0
 12 13  2  0
 12 11  1  0
 13 14  1  0
 14 15  1  0
 14 16  2  0
 17 16  1  0
 17 18  2  0
 19  1  1  0
 20 25  1  0
 20 19  1  0
 21 20  2  0
 22 26  1  0
 22 27  1  0
 23 22  2  0
 24 25  2  0
 24 23  1  0
 25 26  1  0
 27 32  2  0
 28 29  2  0
 28 27  1  0
 29 30  1  0
 30 31  2  0
 32 31  1  0
  2 33  1  0
  7 34  1  0
  8 35  1  0
 12 36  1  0
 13 37  1  0
 15 38  1  0
 15 39  1  0
 23 40  1  0
 24 41  1  0
 28 42  1  0
 29 43  1  0
 31 44  1  0
M  ISO  8  33  14  34  14  35  14  36  14  37  14  40  14  41  14  42  14
M  ISO  2  43  14  44  14
M  END
>  <minimizedAffinity>  (1) 
-4.13044834

>  <minimizedRMSD>  (1) 
3.12067509

$$$$
