
     RDKit          3D

 33 36  0  0  0  0  0  0  0  0999 V2000
   36.7920   23.6130   31.5730 C   0  0  0  0  0  0  0  0  0  0  0  0
   37.9020   23.0010   31.0770 C   0  0  0  0  0  0  0  0  0  0  0  0
   37.7990   21.6780   30.7520 C   0  0  0  0  0  0  0  0  0  0  0  0
   36.6320   21.0560   30.9330 C   0  0  0  0  0  0  0  0  0  0  0  0
   35.5250   22.3830   31.6200 S   0  0  0  0  0  0  0  0  0  0  0  0
   36.6400   25.0220   31.9920 C   0  0  0  0  0  0  0  0  0  0  0  0
   35.8670   25.9180   31.2240 C   0  0  0  0  0  0  0  0  0  0  0  0
   35.8010   27.2400   31.7240 C   0  0  0  0  0  0  0  0  0  0  0  0
   36.4750   27.5400   32.8820 N   0  0  0  0  0  0  0  0  0  0  0  0
   37.1910   26.6370   33.5590 C   0  0  0  0  0  0  0  0  0  0  0  0
   37.2580   25.3810   33.0920 N   0  0  0  0  0  0  0  0  0  0  0  0
   36.2430   19.6720   30.6790 C   0  0  0  0  0  0  0  0  0  0  0  0
   36.3990   19.1760   29.5380 O   0  0  0  0  0  0  0  0  0  0  0  0
   35.7030   18.9660   31.7680 O   0  0  0  0  0  0  0  0  0  0  0  0
   36.2860   17.6950   31.9690 C   0  0  0  0  0  0  0  0  0  0  0  0
   35.5710   16.5490   32.1720 C   0  0  0  0  0  0  0  0  0  0  0  0
   36.9230   15.3030   32.3540 S   0  0  0  0  0  0  0  0  0  0  0  0
   38.2380   16.6490   32.1080 C   0  0  0  0  0  0  0  0  0  0  0  0
   37.6110   17.6430   31.9540 N   0  0  0  0  0  0  0  0  0  0  0  0
   39.6390   16.1980   32.1580 C   0  0  0  0  0  0  0  0  0  0  0  0
   40.4160   15.8160   33.2280 C   0  0  0  0  0  0  0  0  0  0  0  0
   41.6610   15.4920   32.6800 C   0  0  0  0  0  0  0  0  0  0  0  0
   41.5030   15.7150   31.3070 C   0  0  0  0  0  0  0  0  0  0  0  0
   40.2950   16.1310   31.0430 O   0  0  0  0  0  0  0  0  0  0  0  0
   38.8455   23.5504   30.9430 H   0  0  0  0  0  0  0  0  0  0  0  0
   38.6649   21.1336   30.3472 H   0  0  0  0  0  0  0  0  0  0  0  0
   35.3521   25.6107   30.3018 H   0  0  0  0  0  0  0  0  0  0  0  0
   35.2216   28.0116   31.1958 H   0  0  0  0  0  0  0  0  0  0  0  0
   37.7164   26.9188   34.4834 H   0  0  0  0  0  0  0  0  0  0  0  0
   34.4812   16.4061   32.2155 H   0  0  0  0  0  0  0  0  0  0  0  0
   40.1209   15.7745   34.2869 H   0  0  0  0  0  0  0  0  0  0  0  0
   42.5602   15.1415   33.2078 H   0  0  0  0  0  0  0  0  0  0  0  0
   42.2897   15.5606   30.5538 H   0  0  0  0  0  0  0  0  0  0  0  0
  1  5  1  0
  1  6  1  0
  2  1  2  0
  3  4  2  0
  3  2  1  0
  4  5  1  0
  6 11  2  0
  7  8  2  0
  7  6  1  0
  8  9  1  0
  9 10  2  0
 11 10  1  0
 12  4  1  0
 12 14  1  0
 13 12  2  0
 14 15  1  0
 15 16  2  0
 16 17  1  0
 18 20  1  0
 18 17  1  0
 19 15  1  0
 19 18  2  0
 20 21  2  0
 22 21  1  0
 23 22  2  0
 24 23  1  0
 24 20  1  0
  2 25  1  0
  3 26  1  0
  7 27  1  0
  8 28  1  0
 10 29  1  0
 16 30  1  0
 21 31  1  0
 22 32  1  0
 23 33  1  0
M  ISO  8  25  14  26  14  27  14  28  14  29  14  30  14  31  14  32  14
M  ISO  1  33  14
M  END
>  <minimizedAffinity>  (1) 
-3.95997

>  <minimizedRMSD>  (1) 
0.508819342

$$$$
