
     RDKit          3D

 34 37  0  0  0  0  0  0  0  0999 V2000
   36.2260   19.4030   30.6660 C   0  0  0  0  0  0  0  0  0  0  0  0
   36.3820   18.8900   29.5210 O   0  0  0  0  0  0  0  0  0  0  0  0
   36.7960   23.3530   31.4650 C   0  0  0  0  0  0  0  0  0  0  0  0
   37.9040   22.7430   30.9790 C   0  0  0  0  0  0  0  0  0  0  0  0
   37.7960   21.4110   30.6840 C   0  0  0  0  0  0  0  0  0  0  0  0
   36.6350   20.7990   30.8860 C   0  0  0  0  0  0  0  0  0  0  0  0
   35.5210   22.1280   31.5500 S   0  0  0  0  0  0  0  0  0  0  0  0
   36.6340   24.7770   31.8650 C   0  0  0  0  0  0  0  0  0  0  0  0
   35.8280   25.6410   31.1160 C   0  0  0  0  0  0  0  0  0  0  0  0
   35.7570   26.9740   31.5980 C   0  0  0  0  0  0  0  0  0  0  0  0
   36.4630   27.2960   32.7260 N   0  0  0  0  0  0  0  0  0  0  0  0
   37.2160   26.4220   33.3970 C   0  0  0  0  0  0  0  0  0  0  0  0
   37.2850   25.1620   32.9420 N   0  0  0  0  0  0  0  0  0  0  0  0
   35.6840   18.7210   31.7560 O   0  0  0  0  0  0  0  0  0  0  0  0
   36.2720   17.4570   31.9850 C   0  0  0  0  0  0  0  0  0  0  0  0
   35.5710   16.3050   32.1890 C   0  0  0  0  0  0  0  0  0  0  0  0
   36.9220   15.0790   32.4140 S   0  0  0  0  0  0  0  0  0  0  0  0
   38.2390   16.4290   32.1770 C   0  0  0  0  0  0  0  0  0  0  0  0
   37.5940   17.4120   31.9990 N   0  0  0  0  0  0  0  0  0  0  0  0
   39.6360   15.9860   32.2630 C   0  0  0  0  0  0  0  0  0  0  0  0
   40.4090   15.6750   33.3460 C   0  0  0  0  0  0  0  0  0  0  0  0
   41.6540   15.3190   32.8320 C   0  0  0  0  0  0  0  0  0  0  0  0
   41.4990   15.4570   31.4510 C   0  0  0  0  0  0  0  0  0  0  0  0
   40.2980   15.8520   31.1460 O   0  0  0  0  0  0  0  0  0  0  0  0
   42.5180   15.1980   30.5200 O   0  0  0  0  0  0  0  0  0  0  0  0
   38.8452   23.2921   30.8288 H   0  0  0  0  0  0  0  0  0  0  0  0
   38.6579   20.8557   30.2856 H   0  0  0  0  0  0  0  0  0  0  0  0
   35.2874   25.3105   30.2168 H   0  0  0  0  0  0  0  0  0  0  0  0
   35.1498   27.7297   31.0782 H   0  0  0  0  0  0  0  0  0  0  0  0
   37.7657   26.7269   34.2997 H   0  0  0  0  0  0  0  0  0  0  0  0
   34.4822   16.1501   32.2127 H   0  0  0  0  0  0  0  0  0  0  0  0
   40.1102   15.7004   34.4043 H   0  0  0  0  0  0  0  0  0  0  0  0
   42.5506   15.0028   33.3853 H   0  0  0  0  0  0  0  0  0  0  0  0
   42.3456   15.3147   29.5521 H   0  0  0  0  0  0  0  0  0  0  0  0
  1  6  1  0
  1 14  1  0
  2  1  2  0
  3  7  1  0
  3  8  1  0
  4  3  2  0
  5  6  2  0
  5  4  1  0
  6  7  1  0
  8 13  2  0
  9 10  2  0
  9  8  1  0
 10 11  1  0
 11 12  2  0
 13 12  1  0
 14 15  1  0
 15 19  1  0
 15 16  2  0
 16 17  1  0
 18 20  1  0
 18 17  1  0
 19 18  2  0
 20 21  2  0
 22 21  1  0
 23 22  2  0
 24 23  1  0
 24 20  1  0
 25 23  1  0
  4 26  1  0
  5 27  1  0
  9 28  1  0
 10 29  1  0
 12 30  1  0
 16 31  1  0
 21 32  1  0
 22 33  1  0
 25 34  1  0
M  ISO  8  26  14  27  14  28  14  29  14  30  14  31  14  32  14  33  14
M  ISO  1  34   3
M  END
>  <minimizedAffinity>  (1) 
-3.97585416

>  <minimizedRMSD>  (1) 
0.267692536

$$$$
