
     RDKit          3D

 40 44  0  0  0  0  0  0  0  0999 V2000
   36.2490   19.4210   30.5330 C   0  0  0  0  0  0  0  0  0  0  0  0
   36.4570   18.9250   29.4120 O   0  0  0  0  0  0  0  0  0  0  0  0
   36.8080   23.3500   31.4470 C   0  0  0  0  0  0  0  0  0  0  0  0
   37.9410   22.7260   31.0250 C   0  0  0  0  0  0  0  0  0  0  0  0
   37.8330   21.4060   30.6980 C   0  0  0  0  0  0  0  0  0  0  0  0
   36.6510   20.8080   30.8080 C   0  0  0  0  0  0  0  0  0  0  0  0
   35.5210   22.1450   31.4200 S   0  0  0  0  0  0  0  0  0  0  0  0
   36.6490   24.7710   31.8600 C   0  0  0  0  0  0  0  0  0  0  0  0
   35.8360   25.6440   31.1130 C   0  0  0  0  0  0  0  0  0  0  0  0
   35.7630   26.9690   31.5980 C   0  0  0  0  0  0  0  0  0  0  0  0
   36.4690   27.2900   32.7290 N   0  0  0  0  0  0  0  0  0  0  0  0
   37.2170   26.4060   33.3820 C   0  0  0  0  0  0  0  0  0  0  0  0
   37.2880   25.1540   32.9250 N   0  0  0  0  0  0  0  0  0  0  0  0
   35.6370   18.7280   31.5860 O   0  0  0  0  0  0  0  0  0  0  0  0
   36.2280   17.4680   31.8570 C   0  0  0  0  0  0  0  0  0  0  0  0
   35.5240   16.3010   31.9390 C   0  0  0  0  0  0  0  0  0  0  0  0
   36.8650   15.0920   32.3040 S   0  0  0  0  0  0  0  0  0  0  0  0
   38.1720   16.4760   32.2710 C   0  0  0  0  0  0  0  0  0  0  0  0
   37.5320   17.4520   32.0360 N   0  0  0  0  0  0  0  0  0  0  0  0
   39.5590   16.0590   32.5210 C   0  0  0  0  0  0  0  0  0  0  0  0
   40.0960   14.8110   32.7430 C   0  0  0  0  0  0  0  0  0  0  0  0
   41.4700   15.0320   32.9180 C   0  0  0  0  0  0  0  0  0  0  0  0
   41.6130   16.4280   32.7800 C   0  0  0  0  0  0  0  0  0  0  0  0
   40.4700   16.9910   32.5480 O   0  0  0  0  0  0  0  0  0  0  0  0
   42.9780   17.0420   32.9090 C   0  0  0  0  0  0  0  0  0  0  0  0
   43.1080   17.9660   34.1600 C   0  0  0  0  0  0  0  0  0  0  0  0
   43.8500   16.6920   34.0300 C   0  0  0  0  0  0  0  0  0  0  0  0
   38.8993   23.2609   30.9510 H   0  0  0  0  0  0  0  0  0  0  0  0
   38.7118   20.8444   30.3482 H   0  0  0  0  0  0  0  0  0  0  0  0
   35.2945   25.3170   30.2131 H   0  0  0  0  0  0  0  0  0  0  0  0
   35.1543   27.7252   31.0807 H   0  0  0  0  0  0  0  0  0  0  0  0
   37.7694   26.7021   34.2859 H   0  0  0  0  0  0  0  0  0  0  0  0
   34.4442   16.1287   31.8191 H   0  0  0  0  0  0  0  0  0  0  0  0
   39.5632   13.8492   32.7760 H   0  0  0  0  0  0  0  0  0  0  0  0
   42.2551   14.2877   33.1170 H   0  0  0  0  0  0  0  0  0  0  0  0
   43.1460   17.0830   31.8227 H   0  0  0  0  0  0  0  0  0  0  0  0
   43.6365   18.9281   34.0893 H   0  0  0  0  0  0  0  0  0  0  0  0
   42.4179   18.4101   34.8925 H   0  0  0  0  0  0  0  0  0  0  0  0
   43.5812   15.8439   34.6769 H   0  0  0  0  0  0  0  0  0  0  0  0
   44.9161   16.4306   34.1019 H   0  0  0  0  0  0  0  0  0  0  0  0
  1  6  1  0
  1 14  1  0
  2  1  2  0
  3  8  1  0
  4  3  2  0
  5  6  2  0
  5  4  1  0
  6  7  1  0
  7  3  1  0
  8 13  2  0
  9 10  2  0
  9  8  1  0
 10 11  1  0
 11 12  2  0
 13 12  1  0
 14 15  1  0
 15 16  2  0
 15 19  1  0
 16 17  1  0
 18 17  1  0
 18 20  1  0
 19 18  2  0
 20 24  1  0
 20 21  2  0
 21 22  1  0
 23 25  1  0
 23 22  2  0
 24 23  1  0
 25 27  1  0
 25 26  1  0
 27 26  1  0
  4 28  1  0
  5 29  1  0
  9 30  1  0
 10 31  1  0
 12 32  1  0
 16 33  1  0
 21 34  1  0
 22 35  1  0
 25 36  1  0
 26 37  1  0
 26 38  1  0
 27 39  1  0
 27 40  1  0
M  ISO  8  28  14  29  14  30  14  31  14  32  14  33  14  34  14  35  14
M  ISO  5  36  13  37  13  38  13  39  13  40  13
M  END
>  <minimizedAffinity>  (1) 
-3.86955285

>  <minimizedRMSD>  (1) 
1.62891185

$$$$
