
     RDKit          3D

 39 43  0  0  0  0  0  0  0  0999 V2000
   35.6840   18.7220   31.7440 O   0  0  0  0  0  0  0  0  0  0  0  0
   36.2770   17.4620   31.9820 C   0  0  0  0  0  0  0  0  0  0  0  0
   35.5760   16.3130   32.1960 C   0  0  0  0  0  0  0  0  0  0  0  0
   36.9390   15.0840   32.4290 S   0  0  0  0  0  0  0  0  0  0  0  0
   38.2460   16.4410   32.1790 C   0  0  0  0  0  0  0  0  0  0  0  0
   37.5980   17.4210   31.9930 N   0  0  0  0  0  0  0  0  0  0  0  0
   39.6490   16.0030   32.2650 C   0  0  0  0  0  0  0  0  0  0  0  0
   40.4160   15.6710   33.3600 C   0  0  0  0  0  0  0  0  0  0  0  0
   41.6700   15.3320   32.8290 C   0  0  0  0  0  0  0  0  0  0  0  0
   41.5150   15.5020   31.4380 C   0  0  0  0  0  0  0  0  0  0  0  0
   40.3130   15.8960   31.1540 O   0  0  0  0  0  0  0  0  0  0  0  0
   42.6150   15.2400   30.5700 N   0  0  0  0  0  0  0  0  0  0  0  0
   43.7100   16.0190   30.6410 C   0  0  0  0  0  0  0  0  0  0  0  0
   44.6220   15.5880   29.7280 N   0  0  0  0  0  0  0  0  0  0  0  0
   44.0610   14.5220   29.0890 C   0  0  0  0  0  0  0  0  0  0  0  0
   42.8200   14.3200   29.6210 N   0  0  0  0  0  0  0  0  0  0  0  0
   36.2320   19.4060   30.6520 C   0  0  0  0  0  0  0  0  0  0  0  0
   36.3900   18.8950   29.5300 O   0  0  0  0  0  0  0  0  0  0  0  0
   36.7870   23.3580   31.4780 C   0  0  0  0  0  0  0  0  0  0  0  0
   37.8980   22.7420   30.9870 C   0  0  0  0  0  0  0  0  0  0  0  0
   37.7920   21.4170   30.6860 C   0  0  0  0  0  0  0  0  0  0  0  0
   36.6300   20.8030   30.8820 C   0  0  0  0  0  0  0  0  0  0  0  0
   35.5140   22.1300   31.5530 S   0  0  0  0  0  0  0  0  0  0  0  0
   36.6350   24.7820   31.8810 C   0  0  0  0  0  0  0  0  0  0  0  0
   35.8260   25.6520   31.1230 C   0  0  0  0  0  0  0  0  0  0  0  0
   35.7610   26.9790   31.6020 C   0  0  0  0  0  0  0  0  0  0  0  0
   36.4640   27.3050   32.7240 N   0  0  0  0  0  0  0  0  0  0  0  0
   37.2110   26.4230   33.3900 C   0  0  0  0  0  0  0  0  0  0  0  0
   37.2780   25.1650   32.9440 N   0  0  0  0  0  0  0  0  0  0  0  0
   34.4874   16.1575   32.2230 H   0  0  0  0  0  0  0  0  0  0  0  0
   40.1125   15.6715   34.4173 H   0  0  0  0  0  0  0  0  0  0  0  0
   42.5689   15.0076   33.3738 H   0  0  0  0  0  0  0  0  0  0  0  0
   43.8459   16.8680   31.3271 H   0  0  0  0  0  0  0  0  0  0  0  0
   44.5259   13.9298   28.2870 H   0  0  0  0  0  0  0  0  0  0  0  0
   38.8402   23.2902   30.8397 H   0  0  0  0  0  0  0  0  0  0  0  0
   38.6552   20.8643   30.2869 H   0  0  0  0  0  0  0  0  0  0  0  0
   35.2848   25.3217   30.2241 H   0  0  0  0  0  0  0  0  0  0  0  0
   35.1553   27.7346   31.0803 H   0  0  0  0  0  0  0  0  0  0  0  0
   37.7630   26.7263   34.2918 H   0  0  0  0  0  0  0  0  0  0  0  0
  1  2  1  0
  2  6  1  0
  2  3  2  0
  3  4  1  0
  5  7  1  0
  5  4  1  0
  6  5  2  0
  7  8  2  0
  9  8  1  0
 10  9  2  0
 11 10  1  0
 11  7  1  0
 12 13  1  0
 12 10  1  0
 14 13  2  0
 15 16  2  0
 15 14  1  0
 16 12  1  0
 17 22  1  0
 17  1  1  0
 18 17  2  0
 19 23  1  0
 19 24  1  0
 20 19  2  0
 21 22  2  0
 21 20  1  0
 22 23  1  0
 24 29  2  0
 25 26  2  0
 25 24  1  0
 26 27  1  0
 27 28  2  0
 29 28  1  0
  3 30  1  0
  8 31  1  0
  9 32  1  0
 13 33  1  0
 15 34  1  0
 20 35  1  0
 21 36  1  0
 25 37  1  0
 26 38  1  0
 28 39  1  0
M  ISO  8  30  14  31  14  32  14  33  14  34  14  35  14  36  14  37  14
M  ISO  2  38  14  39  14
M  END
>  <minimizedAffinity>  (1) 
-3.82114911

>  <minimizedRMSD>  (1) 
0.267462015

$$$$
