
     RDKit          3D

 36 38  0  0  1  0  0  0  0  0999 V2000
   37.9790   24.2850   38.2350 C   0  0  0  0  0  0  0  0  0  0  0  0
   37.9350   24.6640   36.8800 C   0  0  0  0  0  0  0  0  0  0  0  0
   38.8640   24.0610   36.0290 C   0  0  0  0  0  0  0  0  0  0  0  0
   39.7460   23.1560   36.5490 N   0  0  0  0  0  0  0  0  0  0  0  0
   39.7510   22.8220   37.8640 C   0  0  0  0  0  0  0  0  0  0  0  0
   38.8640   23.3910   38.7020 N   0  0  0  0  0  0  0  0  0  0  0  0
   38.9520   24.3320   34.6390 N   0  0  0  0  0  0  0  0  0  0  0  0
   40.0190   24.8300   33.8090 C   0  0  1  0  0  0  0  0  0  0  0  0
   39.2380   25.8440   32.9790 C   0  0  0  0  0  0  0  0  0  0  0  0
   38.1560   24.8820   32.4600 C   0  0  0  0  0  0  0  0  0  0  0  0
   37.8360   24.1200   33.7370 C   0  0  0  0  0  0  0  0  0  0  0  0
   41.1140   25.3910   34.5340 N   0  0  0  0  0  0  0  0  0  0  0  0
   41.5050   26.6990   34.1320 C   0  0  0  0  0  0  0  0  0  0  0  0
   43.0170   26.8290   34.2340 C   0  0  0  0  0  0  0  0  0  0  0  0
   43.5650   26.1800   35.3820 N   0  0  0  0  0  0  0  0  0  0  0  0
   43.2140   24.7940   35.4890 C   0  0  0  0  0  0  0  0  0  0  0  0
   42.2360   24.4630   34.3800 C   0  0  0  0  0  0  0  0  0  0  0  0
   37.2624   24.7378   38.9360 H   0  0  0  0  0  0  0  0  0  0  0  0
   37.2050   25.3988   36.5097 H   0  0  0  0  0  0  0  0  0  0  0  0
   40.4774   22.0887   38.2443 H   0  0  0  0  0  0  0  0  0  0  0  0
   40.5446   24.0600   33.2252 H   0  0  0  0  0  0  0  0  0  0  0  0
   38.8188   26.6546   33.5931 H   0  0  0  0  0  0  0  0  0  0  0  0
   39.8085   26.3952   32.2169 H   0  0  0  0  0  0  0  0  0  0  0  0
   37.2782   25.4242   32.0786 H   0  0  0  0  0  0  0  0  0  0  0  0
   38.4669   24.2524   31.6133 H   0  0  0  0  0  0  0  0  0  0  0  0
   36.9078   24.5041   34.1853 H   0  0  0  0  0  0  0  0  0  0  0  0
   37.6898   23.0490   33.5329 H   0  0  0  0  0  0  0  0  0  0  0  0
   41.0278   27.4423   34.7876 H   0  0  0  0  0  0  0  0  0  0  0  0
   41.1910   26.8727   33.0922 H   0  0  0  0  0  0  0  0  0  0  0  0
   43.4669   26.3845   33.3340 H   0  0  0  0  0  0  0  0  0  0  0  0
   43.2457   27.9010   34.3264 H   0  0  0  0  0  0  0  0  0  0  0  0
   44.5915   26.2519   35.3360 H   0  0  0  0  0  0  0  0  0  0  0  0
   44.1162   24.1730   35.3867 H   0  0  0  0  0  0  0  0  0  0  0  0
   42.7568   24.5938   36.4693 H   0  0  0  0  0  0  0  0  0  0  0  0
   41.8875   23.4241   34.4764 H   0  0  0  0  0  0  0  0  0  0  0  0
   42.7047   24.5617   33.3897 H   0  0  0  0  0  0  0  0  0  0  0  0
  1  6  2  0
  2  1  1  0
  3  4  1  0
  3  2  2  0
  4  5  2  0
  5  6  1  0
  7  3  1  0
  8 12  1  0
  8  7  1  0
  9  8  1  0
 10  9  1  0
 10 11  1  0
 11  7  1  0
 13 14  1  0
 13 12  1  0
 14 15  1  0
 15 16  1  0
 17 12  1  0
 17 16  1  0
  1 18  1  0
  2 19  1  0
  5 20  1  0
  8 21  1  6
  9 22  1  0
  9 23  1  0
 10 24  1  0
 10 25  1  0
 11 26  1  0
 11 27  1  0
 13 28  1  0
 13 29  1  0
 14 30  1  0
 14 31  1  0
 15 32  1  0
 16 33  1  0
 16 34  1  0
 17 35  1  0
 17 36  1  0
M  ISO  8  18  14  19  14  20  14  21  13  22  13  23  13  24  13  25  13
M  ISO  8  26  13  27  13  28  13  29  13  30  13  31  13  32   5  33  13
M  ISO  3  34  13  35  13  36  13
M  END
>  <minimizedAffinity>  (1) 
-4.36723614

>  <minimizedRMSD>  (1) 
2.37104058

$$$$
