
     RDKit          3D

 46 50  0  0  0  0  0  0  0  0999 V2000
   35.7080   18.7250   31.7300 O   0  0  0  0  0  0  0  0  0  0  0  0
   36.3260   17.4740   31.9680 C   0  0  0  0  0  0  0  0  0  0  0  0
   35.6570   16.3110   32.1720 C   0  0  0  0  0  0  0  0  0  0  0  0
   37.0240   15.1130   32.4090 S   0  0  0  0  0  0  0  0  0  0  0  0
   38.3130   16.4920   32.1730 C   0  0  0  0  0  0  0  0  0  0  0  0
   37.6440   17.4550   31.9880 N   0  0  0  0  0  0  0  0  0  0  0  0
   39.7240   16.0820   32.2670 C   0  0  0  0  0  0  0  0  0  0  0  0
   40.4660   15.7020   33.3730 C   0  0  0  0  0  0  0  0  0  0  0  0
   41.7380   15.4230   32.8690 C   0  0  0  0  0  0  0  0  0  0  0  0
   41.6320   15.6630   31.5020 C   0  0  0  0  0  0  0  0  0  0  0  0
   40.4190   16.0540   31.1820 O   0  0  0  0  0  0  0  0  0  0  0  0
   42.7000   15.5130   30.5410 N   0  0  0  0  0  0  0  0  0  0  0  0
   44.0910   15.0840   30.7240 C   0  0  0  0  0  0  0  0  0  0  0  0
   44.9430   16.2180   30.1930 C   0  0  0  0  0  0  0  0  0  0  0  0
   44.5930   16.6400   28.9310 O   0  0  0  0  0  0  0  0  0  0  0  0
   43.2640   17.0670   28.8630 C   0  0  0  0  0  0  0  0  0  0  0  0
   42.4150   15.8190   29.1370 C   0  0  0  0  0  0  0  0  0  0  0  0
   36.2440   19.4160   30.6430 C   0  0  0  0  0  0  0  0  0  0  0  0
   36.3950   18.9120   29.5070 O   0  0  0  0  0  0  0  0  0  0  0  0
   36.7860   23.3640   31.4620 C   0  0  0  0  0  0  0  0  0  0  0  0
   37.9100   22.7540   30.9920 C   0  0  0  0  0  0  0  0  0  0  0  0
   37.8130   21.4270   30.6920 C   0  0  0  0  0  0  0  0  0  0  0  0
   36.6490   20.8100   30.8710 C   0  0  0  0  0  0  0  0  0  0  0  0
   35.5210   22.1430   31.5220 S   0  0  0  0  0  0  0  0  0  0  0  0
   36.6260   24.7860   31.8590 C   0  0  0  0  0  0  0  0  0  0  0  0
   35.8180   25.6570   31.1110 C   0  0  0  0  0  0  0  0  0  0  0  0
   35.7540   26.9850   31.5980 C   0  0  0  0  0  0  0  0  0  0  0  0
   36.4570   27.3140   32.7190 N   0  0  0  0  0  0  0  0  0  0  0  0
   37.2120   26.4340   33.3900 C   0  0  0  0  0  0  0  0  0  0  0  0
   37.2810   25.1700   32.9370 N   0  0  0  0  0  0  0  0  0  0  0  0
   34.5717   16.1328   32.1904 H   0  0  0  0  0  0  0  0  0  0  0  0
   40.1280   15.6348   34.4176 H   0  0  0  0  0  0  0  0  0  0  0  0
   42.6249   15.0885   33.4271 H   0  0  0  0  0  0  0  0  0  0  0  0
   44.3023   14.9121   31.7897 H   0  0  0  0  0  0  0  0  0  0  0  0
   44.2974   14.1404   30.1977 H   0  0  0  0  0  0  0  0  0  0  0  0
   44.8500   17.0714   30.8808 H   0  0  0  0  0  0  0  0  0  0  0  0
   45.9727   15.8368   30.1259 H   0  0  0  0  0  0  0  0  0  0  0  0
   43.0692   17.8383   29.6227 H   0  0  0  0  0  0  0  0  0  0  0  0
   43.0292   17.5123   27.8849 H   0  0  0  0  0  0  0  0  0  0  0  0
   41.3457   16.0309   28.9900 H   0  0  0  0  0  0  0  0  0  0  0  0
   42.6497   14.9841   28.4604 H   0  0  0  0  0  0  0  0  0  0  0  0
   38.8522   23.3062   30.8606 H   0  0  0  0  0  0  0  0  0  0  0  0
   38.6841   20.8759   30.3080 H   0  0  0  0  0  0  0  0  0  0  0  0
   35.2742   25.3314   30.2120 H   0  0  0  0  0  0  0  0  0  0  0  0
   35.1457   27.7406   31.0793 H   0  0  0  0  0  0  0  0  0  0  0  0
   37.7633   26.7388   34.2917 H   0  0  0  0  0  0  0  0  0  0  0  0
  1  2  1  0
  2  6  1  0
  2  3  2  0
  3  4  1  0
  5  7  1  0
  5  4  1  0
  6  5  2  0
  7  8  2  0
  9  8  1  0
 10  9  2  0
 11 10  1  0
 11  7  1  0
 12 13  1  0
 12 10  1  0
 14 13  1  0
 15 14  1  0
 16 15  1  0
 16 17  1  0
 17 12  1  0
 18 23  1  0
 18  1  1  0
 19 18  2  0
 20 24  1  0
 20 25  1  0
 21 20  2  0
 22 23  2  0
 22 21  1  0
 23 24  1  0
 25 30  2  0
 26 27  2  0
 26 25  1  0
 27 28  1  0
 28 29  2  0
 30 29  1  0
  3 31  1  0
  8 32  1  0
  9 33  1  0
 13 34  1  0
 13 35  1  0
 14 36  1  0
 14 37  1  0
 16 38  1  0
 16 39  1  0
 17 40  1  0
 17 41  1  0
 21 42  1  0
 22 43  1  0
 26 44  1  0
 27 45  1  0
 29 46  1  0
M  ISO  8  31  14  32  14  33  14  34  13  35  13  36  13  37  13  38  13
M  ISO  8  39  13  40  13  41  13  42  14  43  14  44  14  45  14  46  14
M  END
>  <minimizedAffinity>  (1) 
-3.81432772

>  <minimizedRMSD>  (1) 
0.267539591

$$$$
