
     RDKit          3D

 29 31  0  0  1  0  0  0  0  0999 V2000
   38.0260   24.5210   37.2900 C   0  0  0  0  0  0  0  0  0  0  0  0
   37.9450   25.3350   36.1610 C   0  0  0  0  0  0  0  0  0  0  0  0
   38.2930   24.7860   34.9270 C   0  0  0  0  0  0  0  0  0  0  0  0
   38.6890   23.4810   34.9150 N   0  0  0  0  0  0  0  0  0  0  0  0
   38.7600   22.7110   36.0220 C   0  0  0  0  0  0  0  0  0  0  0  0
   38.4250   23.2440   37.2100 N   0  0  0  0  0  0  0  0  0  0  0  0
   38.2500   25.5130   33.7210 N   0  0  0  0  0  0  0  0  0  0  0  0
   39.3370   25.8260   32.7950 C   0  0  1  0  0  0  0  0  0  0  0  0
   38.9230   27.2450   32.4440 C   0  0  0  0  0  0  0  0  0  0  0  0
   37.4620   27.0090   32.0700 C   0  0  0  0  0  0  0  0  0  0  0  0
   37.0390   26.0950   33.1870 C   0  0  0  0  0  0  0  0  0  0  0  0
   40.6110   25.8320   33.5750 C   0  0  0  0  0  0  0  0  0  0  0  0
   41.5950   24.8730   33.4370 C   0  0  0  0  0  0  0  0  0  0  0  0
   42.5630   25.2820   34.3400 C   0  0  0  0  0  0  0  0  0  0  0  0
   42.2030   26.4180   34.9920 N   0  0  0  0  0  0  0  0  0  0  0  0
   41.0110   26.7220   34.5000 N   0  0  0  0  0  0  0  0  0  0  0  0
   37.7555   24.9375   38.2715 H   0  0  0  0  0  0  0  0  0  0  0  0
   37.6157   26.3815   36.2413 H   0  0  0  0  0  0  0  0  0  0  0  0
   39.0871   21.6630   35.9528 H   0  0  0  0  0  0  0  0  0  0  0  0
   39.4885   25.1543   31.9371 H   0  0  0  0  0  0  0  0  0  0  0  0
   39.0198   27.9233   33.3045 H   0  0  0  0  0  0  0  0  0  0  0  0
   39.5300   27.7252   31.6623 H   0  0  0  0  0  0  0  0  0  0  0  0
   36.8857   27.9460   32.0713 H   0  0  0  0  0  0  0  0  0  0  0  0
   37.3068   26.6018   31.0600 H   0  0  0  0  0  0  0  0  0  0  0  0
   36.5153   26.6660   33.9678 H   0  0  0  0  0  0  0  0  0  0  0  0
   36.3493   25.3178   32.8260 H   0  0  0  0  0  0  0  0  0  0  0  0
   41.6073   23.9971   32.7717 H   0  0  0  0  0  0  0  0  0  0  0  0
   43.5108   24.7498   34.5089 H   0  0  0  0  0  0  0  0  0  0  0  0
   42.7375   26.9291   35.7090 H   0  0  0  0  0  0  0  0  0  0  0  0
  2  1  2  0
  3  2  1  0
  4  3  2  0
  4  5  1  0
  5  6  2  0
  6  1  1  0
  7  3  1  0
  8 12  1  0
  8  7  1  0
  9  8  1  0
 10  9  1  0
 10 11  1  0
 11  7  1  0
 12 16  2  0
 13 12  1  0
 13 14  2  0
 14 15  1  0
 16 15  1  0
  1 17  1  0
  2 18  1  0
  5 19  1  0
  8 20  1  6
  9 21  1  0
  9 22  1  0
 10 23  1  0
 10 24  1  0
 11 25  1  0
 11 26  1  0
 13 27  1  0
 14 28  1  0
 15 29  1  0
M  ISO  8  17  14  18  14  19  14  20  13  21  13  22  13  23  13  24  13
M  ISO  5  25  13  26  13  27  14  28  14  29   9
M  END
>  <minimizedAffinity>  (1) 
-4.01650476

>  <minimizedRMSD>  (1) 
2.77127171

$$$$
