
     RDKit          3D

 31 33  0  0  0  0  0  0  0  0999 V2000
   36.6740   21.2090   32.0720 C   0  0  0  0  0  0  0  0  0  0  0  0
   37.8260   20.4980   31.6730 C   0  0  0  0  0  0  0  0  0  0  0  0
   38.9970   20.6470   32.4320 C   0  0  0  0  0  0  0  0  0  0  0  0
   38.9670   21.4690   33.5160 N   0  0  0  0  0  0  0  0  0  0  0  0
   37.8630   22.1310   33.8740 C   0  0  0  0  0  0  0  0  0  0  0  0
   36.7150   22.0150   33.1680 N   0  0  0  0  0  0  0  0  0  0  0  0
   37.6930   19.6860   30.5240 N   0  0  0  0  0  0  0  0  0  0  0  0
   36.9950   18.5440   30.6790 C   0  0  0  0  0  0  0  0  0  0  0  0
   36.8550   17.7380   29.5650 C   0  0  0  0  0  0  0  0  0  0  0  0
   37.4240   18.1400   28.3980 C   0  0  0  0  0  0  0  0  0  0  0  0
   37.3150   17.3600   27.2260 N   0  0  0  0  0  0  0  0  0  0  0  0
   38.1070   19.2820   28.2920 N   0  0  0  0  0  0  0  0  0  0  0  0
   38.2600   20.0940   29.3720 C   0  0  0  0  0  0  0  0  0  0  0  0
   38.9080   21.1650   29.2500 O   0  0  0  0  0  0  0  0  0  0  0  0
   37.9340   22.9880   35.0510 C   0  0  0  0  0  0  0  0  0  0  0  0
   38.3010   24.3190   34.9900 C   0  0  0  0  0  0  0  0  0  0  0  0
   38.3600   25.1150   36.1330 C   0  0  0  0  0  0  0  0  0  0  0  0
   38.0410   24.5510   37.3730 C   0  0  0  0  0  0  0  0  0  0  0  0
   37.6760   23.2210   37.4340 C   0  0  0  0  0  0  0  0  0  0  0  0
   37.6230   22.4390   36.2760 C   0  0  0  0  0  0  0  0  0  0  0  0
   35.7417   21.1116   31.4964 H   0  0  0  0  0  0  0  0  0  0  0  0
   39.9178   20.1117   32.1570 H   0  0  0  0  0  0  0  0  0  0  0  0
   36.5563   18.2657   31.6486 H   0  0  0  0  0  0  0  0  0  0  0  0
   36.2957   16.7925   29.6216 H   0  0  0  0  0  0  0  0  0  0  0  0
   37.7531   17.6813   26.3509 H   0  0  0  0  0  0  0  0  0  0  0  0
   36.7974   16.4697   27.2462 H   0  0  0  0  0  0  0  0  0  0  0  0
   38.5529   24.7615   34.0149 H   0  0  0  0  0  0  0  0  0  0  0  0
   38.6535   26.1727   36.0609 H   0  0  0  0  0  0  0  0  0  0  0  0
   38.0805   25.1599   38.2882 H   0  0  0  0  0  0  0  0  0  0  0  0
   37.4238   22.7709   38.4055 H   0  0  0  0  0  0  0  0  0  0  0  0
   37.3316   21.3804   36.3433 H   0  0  0  0  0  0  0  0  0  0  0  0
  1  6  2  0
  2  1  1  0
  2  3  2  0
  3  4  1  0
  4  5  2  0
  5 15  1  0
  6  5  1  0
  7  8  1  0
  7  2  1  0
  9  8  2  0
 10  9  1  0
 11 10  1  0
 12 10  2  0
 12 13  1  0
 13  7  1  0
 14 13  2  0
 15 20  1  0
 16 15  2  0
 16 17  1  0
 17 18  2  0
 18 19  1  0
 20 19  2  0
  1 21  1  0
  3 22  1  0
  8 23  1  0
  9 24  1  0
 11 25  1  0
 11 26  1  0
 16 27  1  0
 17 28  1  0
 18 29  1  0
 19 30  1  0
 20 31  1  0
M  ISO  8  21  14  22  14  23  14  24  14  27  14  28  14  29  14  30  14
M  ISO  1  31  14
M  END
>  <minimizedAffinity>  (1) 
-3.90325499

>  <minimizedRMSD>  (1) 
5.30730581

$$$$
