
     RDKit          3D

 23 24  0  0  1  0  0  0  0  0999 V2000
   40.5560   22.1760   37.4740 C   0  0  0  0  0  0  0  0  0  0  0  0
   39.8400   23.3430   37.1650 C   0  0  0  0  0  0  0  0  0  0  0  0
   39.9420   23.8460   35.8710 C   0  0  0  0  0  0  0  0  0  0  0  0
   40.7320   23.1730   34.9820 N   0  0  0  0  0  0  0  0  0  0  0  0
   41.4120   22.0530   35.3000 C   0  0  0  0  0  0  0  0  0  0  0  0
   41.3160   21.5590   36.5580 N   0  0  0  0  0  0  0  0  0  0  0  0
   39.2730   25.0150   35.4240 N   0  0  0  0  0  0  0  0  0  0  0  0
   39.7900   26.2510   34.8790 C   0  0  1  0  0  0  0  0  0  0  0  0
   38.8860   27.2250   35.6370 C   0  0  0  0  0  0  0  0  0  0  0  0
   37.5320   26.6190   35.2540 C   0  0  0  0  0  0  0  0  0  0  0  0
   37.8180   25.1340   35.4600 C   0  0  0  0  0  0  0  0  0  0  0  0
   41.1240   26.4390   35.2250 O   0  0  0  0  0  0  0  0  0  0  0  0
   40.4922   21.7586   38.4897 H   0  0  0  0  0  0  0  0  0  0  0  0
   39.2180   23.8442   37.9213 H   0  0  0  0  0  0  0  0  0  0  0  0
   42.0361   21.5473   34.5485 H   0  0  0  0  0  0  0  0  0  0  0  0
   39.7795   26.3319   33.7820 H   0  0  0  0  0  0  0  0  0  0  0  0
   39.0618   27.1951   36.7224 H   0  0  0  0  0  0  0  0  0  0  0  0
   39.0197   28.2896   35.3945 H   0  0  0  0  0  0  0  0  0  0  0  0
   37.2701   26.8401   34.2088 H   0  0  0  0  0  0  0  0  0  0  0  0
   36.6794   27.0042   35.8325 H   0  0  0  0  0  0  0  0  0  0  0  0
   37.3624   24.5383   34.6553 H   0  0  0  0  0  0  0  0  0  0  0  0
   37.3987   24.7623   36.4066 H   0  0  0  0  0  0  0  0  0  0  0  0
   41.2106   26.4512   36.2111 H   0  0  0  0  0  0  0  0  0  0  0  0
  2  1  2  0
  3  2  1  0
  4  5  1  0
  4  3  2  0
  5  6  2  0
  6  1  1  0
  7 11  1  0
  7  3  1  0
  8 12  1  0
  8  7  1  0
  8  9  1  0
 10 11  1  0
 10  9  1  0
  1 13  1  0
  2 14  1  0
  5 15  1  0
  8 16  1  6
  9 17  1  0
  9 18  1  0
 10 19  1  0
 10 20  1  0
 11 21  1  0
 11 22  1  0
 12 23  1  0
M  ISO  8  13  14  14  14  15  14  16  13  17  13  18  13  19  13  20  13
M  ISO  3  21  13  22  13  23   3
M  END
>  <minimizedAffinity>  (1) 
-3.70863748

>  <minimizedRMSD>  (1) 
0.560212433

$$$$
