
     RDKit          3D

 25 26  0  0  1  0  0  0  0  0999 V2000
   39.0610   23.1530   37.9190 C   0  0  0  0  0  0  0  0  0  0  0  0
   38.5370   23.8760   36.8280 C   0  0  0  0  0  0  0  0  0  0  0  0
   39.3790   24.0120   35.7090 C   0  0  0  0  0  0  0  0  0  0  0  0
   40.6250   23.4500   35.7440 N   0  0  0  0  0  0  0  0  0  0  0  0
   41.0760   22.7640   36.8210 C   0  0  0  0  0  0  0  0  0  0  0  0
   40.2910   22.6190   37.9030 N   0  0  0  0  0  0  0  0  0  0  0  0
   38.9950   24.7110   34.5370 N   0  0  0  0  0  0  0  0  0  0  0  0
   39.5570   25.8870   33.9010 C   0  0  1  0  0  0  0  0  0  0  0  0
   38.2420   26.5760   33.5140 C   0  0  0  0  0  0  0  0  0  0  0  0
   37.5720   25.4330   32.7750 C   0  0  0  0  0  0  0  0  0  0  0  0
   37.8540   24.2860   33.7270 C   0  0  0  0  0  0  0  0  0  0  0  0
   40.3510   26.7330   34.8590 C   0  0  0  0  0  0  0  0  0  0  0  0
   38.4381   23.0221   38.8162 H   0  0  0  0  0  0  0  0  0  0  0  0
   37.5263   24.3096   36.8504 H   0  0  0  0  0  0  0  0  0  0  0  0
   42.0847   22.3253   36.8107 H   0  0  0  0  0  0  0  0  0  0  0  0
   40.2677   25.6883   33.0852 H   0  0  0  0  0  0  0  0  0  0  0  0
   37.6659   26.8876   34.3977 H   0  0  0  0  0  0  0  0  0  0  0  0
   38.3516   27.5069   32.9383 H   0  0  0  0  0  0  0  0  0  0  0  0
   36.4922   25.6047   32.6545 H   0  0  0  0  0  0  0  0  0  0  0  0
   37.9338   25.2762   31.7481 H   0  0  0  0  0  0  0  0  0  0  0  0
   36.9798   24.0957   34.3669 H   0  0  0  0  0  0  0  0  0  0  0  0
   38.0679   23.3533   33.1846 H   0  0  0  0  0  0  0  0  0  0  0  0
   40.0926   26.4577   35.8922 H   0  0  0  0  0  0  0  0  0  0  0  0
   41.4253   26.5653   34.6926 H   0  0  0  0  0  0  0  0  0  0  0  0
   40.1155   27.7945   34.6926 H   0  0  0  0  0  0  0  0  0  0  0  0
  2  1  2  0
  3  4  2  0
  3  2  1  0
  4  5  1  0
  5  6  2  0
  6  1  1  0
  7  3  1  0
  8  7  1  0
  8 12  1  0
  9  8  1  0
 10  9  1  0
 10 11  1  0
 11  7  1  0
  1 13  1  0
  2 14  1  0
  5 15  1  0
  8 16  1  6
  9 17  1  0
  9 18  1  0
 10 19  1  0
 10 20  1  0
 11 21  1  0
 11 22  1  0
 12 23  1  0
 12 24  1  0
 12 25  1  0
M  ISO  8  13  14  14  14  15  14  16  13  17  13  18  13  19  13  20  13
M  ISO  5  21  13  22  13  23   8  24   8  25   8
M  END
>  <minimizedAffinity>  (1) 
-3.54499674

>  <minimizedRMSD>  (1) 
1.70361233

$$$$
