
     RDKit          3D

 30 31  0  0  0  0  0  0  0  0999 V2000
   37.3900   20.6220   32.3090 N   0  0  0  0  0  0  0  0  0  0  0  0
   36.6080   19.5130   32.4310 C   0  0  0  0  0  0  0  0  0  0  0  0
   36.2530   18.8450   31.2830 C   0  0  0  0  0  0  0  0  0  0  0  0
   36.7150   19.3480   30.0850 C   0  0  0  0  0  0  0  0  0  0  0  0
   36.3810   18.7050   28.8800 N   0  0  0  0  0  0  0  0  0  0  0  0
   37.4880   20.4520   30.0140 N   0  0  0  0  0  0  0  0  0  0  0  0
   37.8290   21.0980   31.1470 C   0  0  0  0  0  0  0  0  0  0  0  0
   38.5510   22.1250   31.0520 O   0  0  0  0  0  0  0  0  0  0  0  0
   36.7290   21.3560   34.4890 C   0  0  0  0  0  0  0  0  0  0  0  0
   37.7240   21.2640   33.5030 C   0  0  0  0  0  0  0  0  0  0  0  0
   38.9750   21.8280   33.8040 C   0  0  0  0  0  0  0  0  0  0  0  0
   39.1660   22.4240   35.0040 N   0  0  0  0  0  0  0  0  0  0  0  0
   38.1800   22.4900   35.9260 C   0  0  0  0  0  0  0  0  0  0  0  0
   36.9600   21.9600   35.6770 N   0  0  0  0  0  0  0  0  0  0  0  0
   38.3670   23.1380   37.2500 C   0  0  0  0  0  0  0  0  0  0  0  0
   38.1070   24.6270   37.1820 C   0  0  0  0  0  0  0  0  0  0  0  0
   39.8250   22.8500   37.6260 C   0  0  0  0  0  0  0  0  0  0  0  0
   36.2710   19.1628   33.4178 H   0  0  0  0  0  0  0  0  0  0  0  0
   35.6241   17.9432   31.3188 H   0  0  0  0  0  0  0  0  0  0  0  0
   36.7250   19.0791   27.9841 H   0  0  0  0  0  0  0  0  0  0  0  0
   35.7923   17.8599   28.8932 H   0  0  0  0  0  0  0  0  0  0  0  0
   35.7362   20.9259   34.2904 H   0  0  0  0  0  0  0  0  0  0  0  0
   39.7931   21.7855   33.0699 H   0  0  0  0  0  0  0  0  0  0  0  0
   37.6601   22.7484   37.9973 H   0  0  0  0  0  0  0  0  0  0  0  0
   38.0360   25.0337   38.2016 H   0  0  0  0  0  0  0  0  0  0  0  0
   38.9328   25.1194   36.6475 H   0  0  0  0  0  0  0  0  0  0  0  0
   37.1632   24.8104   36.6475 H   0  0  0  0  0  0  0  0  0  0  0  0
   39.9242   22.8304   38.7213 H   0  0  0  0  0  0  0  0  0  0  0  0
   40.1245   21.8753   37.2132 H   0  0  0  0  0  0  0  0  0  0  0  0
   40.4726   23.6376   37.2132 H   0  0  0  0  0  0  0  0  0  0  0  0
  1  2  1  0
  1 10  1  0
  3  2  2  0
  4  3  1  0
  5  4  1  0
  6  4  2  0
  6  7  1  0
  7  1  1  0
  8  7  2  0
  9 14  2  0
 10 11  2  0
 10  9  1  0
 11 12  1  0
 12 13  2  0
 13 15  1  0
 14 13  1  0
 15 17  1  0
 16 15  1  0
  2 18  1  0
  3 19  1  0
  5 20  1  0
  5 21  1  0
  9 22  1  0
 11 23  1  0
 15 24  1  0
 16 25  1  0
 16 26  1  0
 16 27  1  0
 17 28  1  0
 17 29  1  0
 17 30  1  0
M  ISO  8  18  14  19  14  22  14  23  14  24   8  25   8  26   8  27   8
M  ISO  3  28   8  29   8  30   8
M  END
>  <minimizedAffinity>  (1) 
-3.86695242

>  <minimizedRMSD>  (1) 
3.07760239

$$$$
