
     RDKit          3D

 50 53  0  0  1  0  0  0  0  0999 V2000
   38.5110   23.1110   33.8850 C   0  0  1  0  0  0  0  0  0  0  0  0
   38.1570   23.4620   35.3320 C   0  0  0  0  0  0  0  0  0  0  0  0
   39.3930   23.9340   36.0200 C   0  0  0  0  0  0  0  0  0  0  0  0
   40.2760   22.6960   36.1380 C   0  0  0  0  0  0  0  0  0  0  0  0
   40.5950   22.1310   34.8010 C   0  0  0  0  0  0  0  0  0  0  0  0
   39.4240   21.9450   33.8700 C   0  0  2  0  0  0  0  0  0  0  0  0
   39.4080   24.4570   29.1360 C   0  0  0  0  0  0  0  0  0  0  0  0
   38.6330   23.5440   29.8490 C   0  0  0  0  0  0  0  0  0  0  0  0
   37.9760   24.0060   30.9880 C   0  0  0  0  0  0  0  0  0  0  0  0
   38.1350   25.3270   31.3340 N   0  0  0  0  0  0  0  0  0  0  0  0
   38.8980   26.1820   30.6130 C   0  0  0  0  0  0  0  0  0  0  0  0
   39.5330   25.7270   29.5080 N   0  0  0  0  0  0  0  0  0  0  0  0
   37.1600   23.2190   31.8140 N   0  0  0  0  0  0  0  0  0  0  0  0
   37.2200   22.8600   33.1980 C   0  0  1  0  0  0  0  0  0  0  0  0
   36.8820   21.3710   33.0930 C   0  0  0  0  0  0  0  0  0  0  0  0
   35.5470   21.5390   32.3330 C   0  0  0  0  0  0  0  0  0  0  0  0
   35.9570   22.5600   31.3030 C   0  0  0  0  0  0  0  0  0  0  0  0
   39.9890   21.6930   32.5760 N   0  0  0  0  0  0  0  0  0  0  0  0
   41.1420   22.4230   32.2260 C   0  0  0  0  0  0  0  0  0  0  0  0
   42.1420   21.3830   31.7060 C   0  0  0  0  0  0  0  0  0  0  0  0
   41.1550   20.3700   31.1120 C   0  0  0  0  0  0  0  0  0  0  0  0
   40.1410   20.3110   32.2600 C   0  0  0  0  0  0  0  0  0  0  0  0
   39.0479   23.9161   33.3620 H   0  0  0  0  0  0  0  0  0  0  0  0
   37.3977   24.2578   35.3457 H   0  0  0  0  0  0  0  0  0  0  0  0
   37.7534   22.5775   35.8466 H   0  0  0  0  0  0  0  0  0  0  0  0
   39.8943   24.7111   35.4244 H   0  0  0  0  0  0  0  0  0  0  0  0
   39.1748   24.3811   37.0011 H   0  0  0  0  0  0  0  0  0  0  0  0
   41.2133   22.9713   36.6436 H   0  0  0  0  0  0  0  0  0  0  0  0
   39.7313   21.9347   36.7157 H   0  0  0  0  0  0  0  0  0  0  0  0
   41.3113   22.8071   34.3112 H   0  0  0  0  0  0  0  0  0  0  0  0
   40.9892   21.1216   34.9900 H   0  0  0  0  0  0  0  0  0  0  0  0
   38.7893   21.1033   34.1843 H   0  0  0  0  0  0  0  0  0  0  0  0
   39.9350   24.1144   28.2333 H   0  0  0  0  0  0  0  0  0  0  0  0
   38.5432   22.4968   29.5245 H   0  0  0  0  0  0  0  0  0  0  0  0
   39.0004   27.2329   30.9214 H   0  0  0  0  0  0  0  0  0  0  0  0
   36.5528   23.4674   33.8272 H   0  0  0  0  0  0  0  0  0  0  0  0
   37.6292   20.8089   32.5135 H   0  0  0  0  0  0  0  0  0  0  0  0
   36.8461   20.8049   34.0355 H   0  0  0  0  0  0  0  0  0  0  0  0
   35.2216   20.5973   31.8669 H   0  0  0  0  0  0  0  0  0  0  0  0
   34.6916   21.8316   32.9596 H   0  0  0  0  0  0  0  0  0  0  0  0
   35.1533   23.2973   31.1603 H   0  0  0  0  0  0  0  0  0  0  0  0
   36.1517   22.0830   30.3311 H   0  0  0  0  0  0  0  0  0  0  0  0
   40.9085   23.1579   31.4415 H   0  0  0  0  0  0  0  0  0  0  0  0
   41.5449   22.9851   33.0814 H   0  0  0  0  0  0  0  0  0  0  0  0
   42.8118   21.8025   30.9409 H   0  0  0  0  0  0  0  0  0  0  0  0
   42.8361   20.9795   32.4579 H   0  0  0  0  0  0  0  0  0  0  0  0
   40.7002   20.7367   30.1800 H   0  0  0  0  0  0  0  0  0  0  0  0
   41.5916   19.4036   30.8198 H   0  0  0  0  0  0  0  0  0  0  0  0
   39.1894   19.8665   31.9332 H   0  0  0  0  0  0  0  0  0  0  0  0
   40.4605   19.6892   33.1092 H   0  0  0  0  0  0  0  0  0  0  0  0
  1  2  1  0
  2  3  1  0
  3  4  1  0
  5  4  1  0
  6  1  1  0
  6  5  1  0
  7 12  2  0
  7  8  1  0
  8  9  2  0
  9 10  1  0
  9 13  1  0
 11 10  2  0
 12 11  1  0
 13 14  1  0
 14  1  1  0
 15 14  1  0
 16 15  1  0
 17 13  1  0
 17 16  1  0
 18 19  1  0
 18  6  1  0
 20 19  1  0
 21 20  1  0
 21 22  1  0
 22 18  1  0
  1 23  1  6
  2 24  1  0
  2 25  1  0
  3 26  1  0
  3 27  1  0
  4 28  1  0
  4 29  1  0
  5 30  1  0
  5 31  1  0
  6 32  1  1
  7 33  1  0
  8 34  1  0
 11 35  1  0
 14 36  1  1
 15 37  1  0
 15 38  1  0
 16 39  1  0
 16 40  1  0
 17 41  1  0
 17 42  1  0
 19 43  1  0
 19 44  1  0
 20 45  1  0
 20 46  1  0
 21 47  1  0
 21 48  1  0
 22 49  1  0
 22 50  1  0
M  ISO  8  23  13  24  13  25  13  26  13  27  13  28  13  29  13  30  13
M  ISO  8  31  13  32  13  33  14  34  14  35  14  36  13  37  13  38  13
M  ISO  8  39  13  40  13  41  13  42  13  43  13  44  13  45  13  46  13
M  ISO  4  47  13  48  13  49  13  50  13
M  END
>  <minimizedAffinity>  (1) 
-3.75202346

>  <minimizedRMSD>  (1) 
4.51898527

$$$$
