
     RDKit          3D

 41 43  0  0  1  0  0  0  0  0999 V2000
   39.2410   19.2130   30.6160 C   0  0  0  0  0  0  0  0  0  0  0  0
   38.4370   19.4080   31.7300 C   0  0  0  0  0  0  0  0  0  0  0  0
   38.0270   20.6880   32.0390 C   0  0  0  0  0  0  0  0  0  0  0  0
   38.4310   21.7230   31.2310 N   0  0  0  0  0  0  0  0  0  0  0  0
   39.2220   21.4890   30.1450 C   0  0  0  0  0  0  0  0  0  0  0  0
   39.6190   20.2310   29.8480 N   0  0  0  0  0  0  0  0  0  0  0  0
   37.2130   21.0210   33.1240 N   0  0  0  0  0  0  0  0  0  0  0  0
   37.3490   21.8970   34.2740 C   0  0  1  0  0  0  0  0  0  0  0  0
   36.7770   21.0090   35.3300 C   0  0  0  0  0  0  0  0  0  0  0  0
   35.4020   20.7560   34.6170 C   0  0  0  0  0  0  0  0  0  0  0  0
   35.8820   20.4230   33.2690 C   0  0  0  0  0  0  0  0  0  0  0  0
   38.7270   22.3490   34.5890 C   0  0  1  0  0  0  0  0  0  0  0  0
   38.9270   23.7160   33.9590 C   0  0  0  0  0  0  0  0  0  0  0  0
   40.3430   24.1130   34.0180 C   0  0  0  0  0  0  0  0  0  0  0  0
   40.7750   24.1490   35.5050 C   0  0  0  0  0  0  0  0  0  0  0  0
   40.5330   22.8420   36.1270 C   0  0  0  0  0  0  0  0  0  0  0  0
   39.0480   22.3870   36.0150 C   0  0  1  0  0  0  0  0  0  0  0  0
   38.4950   23.2030   37.0600 C   0  0  0  0  0  0  0  0  0  0  0  0
   39.4130   23.2010   38.1810 F   0  0  0  0  0  0  0  0  0  0  0  0
   38.6950   24.6270   36.9030 F   0  0  0  0  0  0  0  0  0  0  0  0
   37.2300   23.2620   37.4660 F   0  0  0  0  0  0  0  0  0  0  0  0
   39.5727   18.1952   30.3628 H   0  0  0  0  0  0  0  0  0  0  0  0
   38.1319   18.5564   32.3558 H   0  0  0  0  0  0  0  0  0  0  0  0
   39.5386   22.3277   29.5076 H   0  0  0  0  0  0  0  0  0  0  0  0
   36.8564   22.8707   34.1353 H   0  0  0  0  0  0  0  0  0  0  0  0
   37.3589   20.0857   35.4680 H   0  0  0  0  0  0  0  0  0  0  0  0
   36.7416   21.4102   36.3536 H   0  0  0  0  0  0  0  0  0  0  0  0
   34.8510   19.9207   35.0738 H   0  0  0  0  0  0  0  0  0  0  0  0
   34.6898   21.5929   34.6656 H   0  0  0  0  0  0  0  0  0  0  0  0
   35.1985   20.8361   32.5126 H   0  0  0  0  0  0  0  0  0  0  0  0
   35.9256   19.3330   33.1276 H   0  0  0  0  0  0  0  0  0  0  0  0
   39.4195   21.6033   34.1714 H   0  0  0  0  0  0  0  0  0  0  0  0
   38.3213   24.4563   34.5023 H   0  0  0  0  0  0  0  0  0  0  0  0
   38.6162   23.6689   32.9049 H   0  0  0  0  0  0  0  0  0  0  0  0
   40.9572   23.3836   33.4695 H   0  0  0  0  0  0  0  0  0  0  0  0
   40.4789   25.1035   33.5592 H   0  0  0  0  0  0  0  0  0  0  0  0
   41.8464   24.3901   35.5679 H   0  0  0  0  0  0  0  0  0  0  0  0
   40.1898   24.9157   36.0338 H   0  0  0  0  0  0  0  0  0  0  0  0
   41.1684   22.0935   35.6310 H   0  0  0  0  0  0  0  0  0  0  0  0
   40.7715   22.9347   37.1968 H   0  0  0  0  0  0  0  0  0  0  0  0
   38.6311   21.3910   36.2250 H   0  0  0  0  0  0  0  0  0  0  0  0
  1  2  2  0
  2  3  1  0
  3  7  1  0
  4  3  2  0
  5  4  1  0
  6  5  2  0
  6  1  1  0
  7 11  1  0
  7  8  1  0
  8 12  1  0
  8  9  1  0
 10  9  1  0
 11 10  1  0
 12 17  1  0
 13 14  1  0
 13 12  1  0
 14 15  1  0
 15 16  1  0
 17 16  1  0
 17 18  1  0
 18 21  1  0
 18 19  1  0
 20 18  1  0
  1 22  1  0
  2 23  1  0
  5 24  1  0
  8 25  1  6
  9 26  1  0
  9 27  1  0
 10 28  1  0
 10 29  1  0
 11 30  1  0
 11 31  1  0
 12 32  1  6
 13 33  1  0
 13 34  1  0
 14 35  1  0
 14 36  1  0
 15 37  1  0
 15 38  1  0
 16 39  1  0
 16 40  1  0
 17 41  1  1
M  ISO  8  22  14  23  14  24  14  25  13  26  13  27  13  28  13  29  13
M  ISO  8  30  13  31  13  32  13  33  13  34  13  35  13  36  13  37  13
M  ISO  4  38  13  39  13  40  13  41  13
M  END
>  <minimizedAffinity>  (1) 
-4.3861413

>  <minimizedRMSD>  (1) 
2.04200792

$$$$
