
     RDKit          3D

 22 23  0  0  0  0  0  0  0  0999 V2000
   37.1430   21.3710   32.9880 N   0  0  0  0  0  0  0  0  0  0  0  0
   35.8460   21.3770   32.5620 C   0  0  0  0  0  0  0  0  0  0  0  0
   35.5310   20.6570   31.4370 C   0  0  0  0  0  0  0  0  0  0  0  0
   36.5460   19.9740   30.8100 C   0  0  0  0  0  0  0  0  0  0  0  0
   36.2680   19.2210   29.6500 N   0  0  0  0  0  0  0  0  0  0  0  0
   37.8220   19.9950   31.2670 N   0  0  0  0  0  0  0  0  0  0  0  0
   38.1180   20.7080   32.3750 C   0  0  0  0  0  0  0  0  0  0  0  0
   39.3010   20.7120   32.7760 O   0  0  0  0  0  0  0  0  0  0  0  0
   36.9880   21.5780   35.3620 C   0  0  0  0  0  0  0  0  0  0  0  0
   37.4140   22.1180   34.1370 C   0  0  0  0  0  0  0  0  0  0  0  0
   38.0690   23.3460   34.1790 C   0  0  0  0  0  0  0  0  0  0  0  0
   38.2580   23.9490   35.3830 N   0  0  0  0  0  0  0  0  0  0  0  0
   37.8390   23.4060   36.5290 C   0  0  0  0  0  0  0  0  0  0  0  0
   37.1930   22.2030   36.5400 N   0  0  0  0  0  0  0  0  0  0  0  0
   38.0650   24.1600   38.1340 S   0  0  0  0  0  0  0  0  0  0  0  0
   35.0750   21.9431   33.1053 H   0  0  0  0  0  0  0  0  0  0  0  0
   34.5017   20.6274   31.0502 H   0  0  0  0  0  0  0  0  0  0  0  0
   35.3085   19.1847   29.2773 H   0  0  0  0  0  0  0  0  0  0  0  0
   37.0245   18.7075   29.1757 H   0  0  0  0  0  0  0  0  0  0  0  0
   36.4676   20.6089   35.3607 H   0  0  0  0  0  0  0  0  0  0  0  0
   38.4276   23.8204   33.2536 H   0  0  0  0  0  0  0  0  0  0  0  0
   37.7898   23.2417   39.1128 H   0  0  0  0  0  0  0  0  0  0  0  0
  1 10  1  0
  2  1  1  0
  3  2  2  0
  4  6  2  0
  4  3  1  0
  5  4  1  0
  6  7  1  0
  7  8  2  0
  7  1  1  0
  9 14  2  0
 10 11  2  0
 10  9  1  0
 11 12  1  0
 12 13  2  0
 13 14  1  0
 13 15  1  0
  2 16  1  0
  3 17  1  0
  5 18  1  0
  5 19  1  0
  9 20  1  0
 11 21  1  0
 15 22  1  0
M  ISO  5  16  14  17  14  20  14  21  14  22  11
M  END
>  <minimizedAffinity>  (1) 
-3.70217037

>  <minimizedRMSD>  (1) 
2.59941387

$$$$
