
     RDKit          3D

 49 52  0  0  1  0  0  0  0  0999 V2000
   39.3670   24.9260   32.4110 C   0  0  1  0  0  0  0  0  0  0  0  0
   39.3930   26.1000   31.4400 C   0  0  0  0  0  0  0  0  0  0  0  0
   40.7470   26.7230   31.4840 C   0  0  0  0  0  0  0  0  0  0  0  0
   40.8510   27.3850   32.8500 C   0  0  0  0  0  0  0  0  0  0  0  0
   40.6610   26.4000   33.9500 C   0  0  0  0  0  0  0  0  0  0  0  0
   39.5100   25.4500   33.8180 C   0  0  2  0  0  0  0  0  0  0  0  0
   35.9470   28.6030   32.3840 C   0  0  0  0  0  0  0  0  0  0  0  0
   36.1580   27.3520   31.8080 C   0  0  0  0  0  0  0  0  0  0  0  0
   36.6340   26.3360   32.6060 C   0  0  0  0  0  0  0  0  0  0  0  0
   36.8680   26.6350   33.9260 N   0  0  0  0  0  0  0  0  0  0  0  0
   36.6540   27.8560   34.4580 C   0  0  0  0  0  0  0  0  0  0  0  0
   36.1920   28.8360   33.6780 N   0  0  0  0  0  0  0  0  0  0  0  0
   36.9020   25.0250   32.1910 N   0  0  0  0  0  0  0  0  0  0  0  0
   38.0910   24.1950   32.1820 C   0  0  1  0  0  0  0  0  0  0  0  0
   37.9620   23.6400   30.7640 C   0  0  0  0  0  0  0  0  0  0  0  0
   36.5650   23.0090   30.9670 C   0  0  0  0  0  0  0  0  0  0  0  0
   35.8660   24.1670   31.6200 C   0  0  0  0  0  0  0  0  0  0  0  0
   39.6330   24.4460   34.7190 O   0  0  0  0  0  0  0  0  0  0  0  0
   39.1460   24.2510   35.9820 C   0  0  0  0  0  0  0  0  0  0  0  0
   39.9510   23.2630   36.5720 C   0  0  0  0  0  0  0  0  0  0  0  0
   39.7300   22.8150   37.8820 C   0  0  0  0  0  0  0  0  0  0  0  0
   38.6970   23.3590   38.6100 C   0  0  0  0  0  0  0  0  0  0  0  0
   37.9060   24.3160   38.0550 C   0  0  0  0  0  0  0  0  0  0  0  0
   38.1340   24.7470   36.7700 C   0  0  0  0  0  0  0  0  0  0  0  0
   40.2002   24.2255   32.2525 H   0  0  0  0  0  0  0  0  0  0  0  0
   38.6345   26.8406   31.7334 H   0  0  0  0  0  0  0  0  0  0  0  0
   39.1731   25.7499   30.4207 H   0  0  0  0  0  0  0  0  0  0  0  0
   41.5264   25.9553   31.3695 H   0  0  0  0  0  0  0  0  0  0  0  0
   40.8868   27.4487   30.6693 H   0  0  0  0  0  0  0  0  0  0  0  0
   41.8454   27.8445   32.9496 H   0  0  0  0  0  0  0  0  0  0  0  0
   40.0590   28.1445   32.9264 H   0  0  0  0  0  0  0  0  0  0  0  0
   41.5803   25.8003   34.0215 H   0  0  0  0  0  0  0  0  0  0  0  0
   40.4330   27.0047   34.8401 H   0  0  0  0  0  0  0  0  0  0  0  0
   38.5833   26.0012   34.0358 H   0  0  0  0  0  0  0  0  0  0  0  0
   35.5679   29.4229   31.7562 H   0  0  0  0  0  0  0  0  0  0  0  0
   35.9494   27.1803   30.7417 H   0  0  0  0  0  0  0  0  0  0  0  0
   36.8579   28.0421   35.5228 H   0  0  0  0  0  0  0  0  0  0  0  0
   38.1407   23.4544   32.9939 H   0  0  0  0  0  0  0  0  0  0  0  0
   38.7352   22.8944   30.5270 H   0  0  0  0  0  0  0  0  0  0  0  0
   38.0763   24.3517   29.9331 H   0  0  0  0  0  0  0  0  0  0  0  0
   36.0963   22.7322   30.0111 H   0  0  0  0  0  0  0  0  0  0  0  0
   36.5528   22.0699   31.5396 H   0  0  0  0  0  0  0  0  0  0  0  0
   35.2822   24.7255   30.8735 H   0  0  0  0  0  0  0  0  0  0  0  0
   35.1723   23.8179   32.3990 H   0  0  0  0  0  0  0  0  0  0  0  0
   40.7775   22.8287   35.9904 H   0  0  0  0  0  0  0  0  0  0  0  0
   40.3738   22.0391   38.3218 H   0  0  0  0  0  0  0  0  0  0  0  0
   38.5111   23.0202   39.6399 H   0  0  0  0  0  0  0  0  0  0  0  0
   37.0790   24.7476   38.6379 H   0  0  0  0  0  0  0  0  0  0  0  0
   37.4769   25.5243   36.3528 H   0  0  0  0  0  0  0  0  0  0  0  0
  1  6  1  0
  2  3  1  0
  2  1  1  0
  3  4  1  0
  4  5  1  0
  6  5  1  0
  6 18  1  0
  7 12  2  0
  8  7  1  0
  8  9  2  0
  9 10  1  0
 10 11  2  0
 12 11  1  0
 13  9  1  0
 14 13  1  0
 14  1  1  0
 15 16  1  0
 15 14  1  0
 16 17  1  0
 17 13  1  0
 18 19  1  0
 19 20  2  0
 19 24  1  0
 20 21  1  0
 21 22  2  0
 23 22  1  0
 24 23  2  0
  1 25  1  6
  2 26  1  0
  2 27  1  0
  3 28  1  0
  3 29  1  0
  4 30  1  0
  4 31  1  0
  5 32  1  0
  5 33  1  0
  6 34  1  1
  7 35  1  0
  8 36  1  0
 11 37  1  0
 14 38  1  1
 15 39  1  0
 15 40  1  0
 16 41  1  0
 16 42  1  0
 17 43  1  0
 17 44  1  0
 20 45  1  0
 21 46  1  0
 22 47  1  0
 23 48  1  0
 24 49  1  0
M  ISO  8  25  13  26  13  27  13  28  13  29  13  30  13  31  13  32  13
M  ISO  8  33  13  34  13  35  14  36  14  37  14  38  13  39  13  40  13
M  ISO  8  41  13  42  13  43  13  44  13  45  14  46  14  47  14  48  14
M  ISO  1  49  14
M  END
>  <minimizedAffinity>  (1) 
-5.97879362

>  <minimizedRMSD>  (1) 
6.02563334

$$$$
