
     RDKit          3D

 53 57  0  0  1  0  0  0  0  0999 V2000
   36.9610   22.2230   32.1790 C   0  0  1  0  0  0  0  0  0  0  0  0
   36.2170   21.0450   31.5720 C   0  0  0  0  0  0  0  0  0  0  0  0
   34.9770   20.7990   32.3820 C   0  0  0  0  0  0  0  0  0  0  0  0
   35.4680   20.2820   33.7380 C   0  0  0  0  0  0  0  0  0  0  0  0
   36.3430   21.2890   34.4050 C   0  0  0  0  0  0  0  0  0  0  0  0
   37.4610   21.8580   33.5320 C   0  0  2  0  0  0  0  0  0  0  0  0
   37.3730   27.2200   32.7620 C   0  0  0  0  0  0  0  0  0  0  0  0
   38.1690   26.1220   32.4420 C   0  0  0  0  0  0  0  0  0  0  0  0
   37.6530   25.1810   31.5690 C   0  0  0  0  0  0  0  0  0  0  0  0
   36.3870   25.3940   31.0760 N   0  0  0  0  0  0  0  0  0  0  0  0
   35.6370   26.4640   31.4010 C   0  0  0  0  0  0  0  0  0  0  0  0
   36.1420   27.3750   32.2490 N   0  0  0  0  0  0  0  0  0  0  0  0
   38.3120   24.0300   31.1410 N   0  0  0  0  0  0  0  0  0  0  0  0
   38.0160   22.6210   31.2300 C   0  0  1  0  0  0  0  0  0  0  0  0
   39.3930   22.0920   31.6190 C   0  0  0  0  0  0  0  0  0  0  0  0
   40.1750   22.7100   30.4400 C   0  0  0  0  0  0  0  0  0  0  0  0
   39.5990   24.0870   30.4310 C   0  0  0  0  0  0  0  0  0  0  0  0
   37.9410   22.9520   34.2020 O   0  0  0  0  0  0  0  0  0  0  0  0
   38.2830   23.0240   35.5390 C   0  0  0  0  0  0  0  0  0  0  0  0
   37.4910   23.4870   36.5470 N   0  0  0  0  0  0  0  0  0  0  0  0
   37.9010   23.5200   37.8130 C   0  0  0  0  0  0  0  0  0  0  0  0
   39.1240   23.1010   38.1950 N   0  0  0  0  0  0  0  0  0  0  0  0
   39.9730   22.6240   37.2440 C   0  0  0  0  0  0  0  0  0  0  0  0
   41.2330   22.1820   37.5770 C   0  0  0  0  0  0  0  0  0  0  0  0
   42.0850   21.7010   36.6060 C   0  0  0  0  0  0  0  0  0  0  0  0
   41.7100   21.6420   35.2650 C   0  0  0  0  0  0  0  0  0  0  0  0
   40.4170   22.1110   35.0270 C   0  0  0  0  0  0  0  0  0  0  0  0
   39.5360   22.5960   35.9440 C   0  0  0  0  0  0  0  0  0  0  0  0
   36.3080   23.0944   32.3346 H   0  0  0  0  0  0  0  0  0  0  0  0
   35.9418   21.2754   30.5322 H   0  0  0  0  0  0  0  0  0  0  0  0
   36.8566   20.1501   31.5790 H   0  0  0  0  0  0  0  0  0  0  0  0
   34.4098   21.7328   32.5094 H   0  0  0  0  0  0  0  0  0  0  0  0
   34.3053   20.0798   31.8906 H   0  0  0  0  0  0  0  0  0  0  0  0
   34.5997   20.0767   34.3813 H   0  0  0  0  0  0  0  0  0  0  0  0
   36.0501   19.3631   33.5746 H   0  0  0  0  0  0  0  0  0  0  0  0
   35.7093   22.1255   34.7348 H   0  0  0  0  0  0  0  0  0  0  0  0
   36.8398   20.7618   35.2328 H   0  0  0  0  0  0  0  0  0  0  0  0
   38.2545   21.1147   33.3649 H   0  0  0  0  0  0  0  0  0  0  0  0
   37.7639   27.9806   33.4539 H   0  0  0  0  0  0  0  0  0  0  0  0
   39.1758   26.0071   32.8700 H   0  0  0  0  0  0  0  0  0  0  0  0
   34.6288   26.5898   30.9796 H   0  0  0  0  0  0  0  0  0  0  0  0
   37.5814   22.2219   30.3017 H   0  0  0  0  0  0  0  0  0  0  0  0
   39.7303   22.4744   32.5937 H   0  0  0  0  0  0  0  0  0  0  0  0
   39.4819   21.0036   31.7508 H   0  0  0  0  0  0  0  0  0  0  0  0
   41.2580   22.7230   30.6322 H   0  0  0  0  0  0  0  0  0  0  0  0
   40.0810   22.1652   29.4890 H   0  0  0  0  0  0  0  0  0  0  0  0
   40.2802   24.7829   30.9426 H   0  0  0  0  0  0  0  0  0  0  0  0
   39.4582   24.4424   29.3996 H   0  0  0  0  0  0  0  0  0  0  0  0
   37.2129   23.9054   38.5798 H   0  0  0  0  0  0  0  0  0  0  0  0
   41.5627   22.2128   38.6260 H   0  0  0  0  0  0  0  0  0  0  0  0
   43.0875   21.3545   36.8973 H   0  0  0  0  0  0  0  0  0  0  0  0
   42.3695   21.2624   34.4706 H   0  0  0  0  0  0  0  0  0  0  0  0
   40.0720   22.0858   33.9828 H   0  0  0  0  0  0  0  0  0  0  0  0
  1  6  1  0
  2  1  1  0
  2  3  1  0
  3  4  1  0
  4  5  1  0
  6 18  1  0
  6  5  1  0
  8  7  2  0
  9  8  1  0
 10 11  1  0
 10  9  2  0
 11 12  2  0
 12  7  1  0
 13 14  1  0
 13  9  1  0
 14 15  1  0
 14  1  1  0
 16 15  1  0
 17 16  1  0
 17 13  1  0
 18 19  1  0
 19 28  1  0
 19 20  2  0
 20 21  1  0
 21 22  2  0
 23 24  2  0
 23 22  1  0
 25 24  1  0
 26 25  2  0
 27 26  1  0
 27 28  2  0
 28 23  1  0
  1 29  1  1
  2 30  1  0
  2 31  1  0
  3 32  1  0
  3 33  1  0
  4 34  1  0
  4 35  1  0
  5 36  1  0
  5 37  1  0
  6 38  1  6
  7 39  1  0
  8 40  1  0
 11 41  1  0
 14 42  1  6
 15 43  1  0
 15 44  1  0
 16 45  1  0
 16 46  1  0
 17 47  1  0
 17 48  1  0
 21 49  1  0
 24 50  1  0
 25 51  1  0
 26 52  1  0
 27 53  1  0
M  ISO  8  29  13  30  13  31  13  32  13  33  13  34  13  35  13  36  13
M  ISO  8  37  13  38  13  39  14  40  14  41  14  42  13  43  13  44  13
M  ISO  8  45  13  46  13  47  13  48  13  49  14  50  14  51  14  52  14
M  ISO  1  53  14
M  END
>  <minimizedAffinity>  (1) 
-6.35424423

>  <minimizedRMSD>  (1) 
5.61938667

$$$$
