
     RDKit          3D

 52 55  0  0  1  0  0  0  0  0999 V2000
   38.6550   23.9560   31.8900 C   0  0  1  0  0  0  0  0  0  0  0  0
   39.7600   24.3370   30.9210 C   0  0  0  0  0  0  0  0  0  0  0  0
   41.0250   23.6500   31.3300 C   0  0  0  0  0  0  0  0  0  0  0  0
   41.4340   24.3220   32.6560 C   0  0  0  0  0  0  0  0  0  0  0  0
   40.3760   24.0730   33.6930 C   0  0  0  0  0  0  0  0  0  0  0  0
   38.9590   24.4770   33.2390 C   0  0  2  0  0  0  0  0  0  0  0  0
   35.3510   20.2650   32.8690 C   0  0  0  0  0  0  0  0  0  0  0  0
   35.3830   21.6510   32.7320 C   0  0  0  0  0  0  0  0  0  0  0  0
   36.1200   22.1880   31.6980 C   0  0  0  0  0  0  0  0  0  0  0  0
   36.7740   21.3100   30.8710 N   0  0  0  0  0  0  0  0  0  0  0  0
   36.7320   19.9730   31.0180 C   0  0  0  0  0  0  0  0  0  0  0  0
   36.0150   19.4570   32.0220 N   0  0  0  0  0  0  0  0  0  0  0  0
   36.2500   23.5460   31.4180 N   0  0  0  0  0  0  0  0  0  0  0  0
   37.3850   24.4360   31.3230 C   0  0  1  0  0  0  0  0  0  0  0  0
   36.8180   25.6360   32.0550 C   0  0  0  0  0  0  0  0  0  0  0  0
   35.5470   25.8170   31.2210 C   0  0  0  0  0  0  0  0  0  0  0  0
   35.0890   24.4000   31.1330 C   0  0  0  0  0  0  0  0  0  0  0  0
   38.1110   24.0190   34.1990 O   0  0  0  0  0  0  0  0  0  0  0  0
   38.5040   23.9870   35.5050 C   0  0  0  0  0  0  0  0  0  0  0  0
   37.9280   25.0630   36.3210 C   0  0  0  0  0  0  0  0  0  0  0  0
   37.9580   24.5980   37.7730 C   0  0  0  0  0  0  0  0  0  0  0  0
   38.2070   23.1020   37.6340 C   0  0  0  0  0  0  0  0  0  0  0  0
   37.7680   22.7970   36.2170 C   0  0  0  0  0  0  0  0  0  0  0  0
   38.5726   22.8668   32.0197 H   0  0  0  0  0  0  0  0  0  0  0  0
   39.9089   25.4267   30.9414 H   0  0  0  0  0  0  0  0  0  0  0  0
   39.4829   24.0295   29.9018 H   0  0  0  0  0  0  0  0  0  0  0  0
   40.8497   22.5744   31.4797 H   0  0  0  0  0  0  0  0  0  0  0  0
   41.8091   23.7379   30.5635 H   0  0  0  0  0  0  0  0  0  0  0  0
   42.3904   23.9014   33.0001 H   0  0  0  0  0  0  0  0  0  0  0  0
   41.5442   25.4051   32.4985 H   0  0  0  0  0  0  0  0  0  0  0  0
   40.3711   22.9997   33.9340 H   0  0  0  0  0  0  0  0  0  0  0  0
   40.6254   24.6965   34.5643 H   0  0  0  0  0  0  0  0  0  0  0  0
   38.8559   25.5676   33.1389 H   0  0  0  0  0  0  0  0  0  0  0  0
   34.7688   19.8202   33.6895 H   0  0  0  0  0  0  0  0  0  0  0  0
   34.8345   22.3000   33.4306 H   0  0  0  0  0  0  0  0  0  0  0  0
   37.2778   19.3162   30.3246 H   0  0  0  0  0  0  0  0  0  0  0  0
   37.7136   24.6027   30.2866 H   0  0  0  0  0  0  0  0  0  0  0  0
   36.5959   25.4137   33.1092 H   0  0  0  0  0  0  0  0  0  0  0  0
   37.4775   26.5136   32.1245 H   0  0  0  0  0  0  0  0  0  0  0  0
   34.8100   26.4529   31.7333 H   0  0  0  0  0  0  0  0  0  0  0  0
   35.6965   26.3160   30.2521 H   0  0  0  0  0  0  0  0  0  0  0  0
   34.2952   24.2146   31.8716 H   0  0  0  0  0  0  0  0  0  0  0  0
   34.6830   24.1838   30.1338 H   0  0  0  0  0  0  0  0  0  0  0  0
   39.6029   23.9886   35.4553 H   0  0  0  0  0  0  0  0  0  0  0  0
   38.5232   25.9811   36.2076 H   0  0  0  0  0  0  0  0  0  0  0  0
   36.8978   25.2827   36.0041 H   0  0  0  0  0  0  0  0  0  0  0  0
   38.7710   25.0864   38.3302 H   0  0  0  0  0  0  0  0  0  0  0  0
   37.0412   24.8404   38.3305 H   0  0  0  0  0  0  0  0  0  0  0  0
   39.2723   22.8667   37.7742 H   0  0  0  0  0  0  0  0  0  0  0  0
   37.6669   22.5076   38.3857 H   0  0  0  0  0  0  0  0  0  0  0  0
   36.6758   22.8504   36.0977 H   0  0  0  0  0  0  0  0  0  0  0  0
   38.0022   21.7892   35.8434 H   0  0  0  0  0  0  0  0  0  0  0  0
  1  6  1  0
  2  3  1  0
  2  1  1  0
  3  4  1  0
  4  5  1  0
  6  5  1  0
  6 18  1  0
  8  7  2  0
  9  8  1  0
 10 11  1  0
 10  9  2  0
 11 12  2  0
 12  7  1  0
 13  9  1  0
 14 13  1  0
 14  1  1  0
 14 15  1  0
 16 15  1  0
 17 16  1  0
 17 13  1  0
 18 19  1  0
 19 23  1  0
 19 20  1  0
 20 21  1  0
 22 21  1  0
 23 22  1  0
  1 24  1  1
  2 25  1  0
  2 26  1  0
  3 27  1  0
  3 28  1  0
  4 29  1  0
  4 30  1  0
  5 31  1  0
  5 32  1  0
  6 33  1  6
  7 34  1  0
  8 35  1  0
 11 36  1  0
 14 37  1  6
 15 38  1  0
 15 39  1  0
 16 40  1  0
 16 41  1  0
 17 42  1  0
 17 43  1  0
 19 44  1  0
 20 45  1  0
 20 46  1  0
 21 47  1  0
 21 48  1  0
 22 49  1  0
 22 50  1  0
 23 51  1  0
 23 52  1  0
M  ISO  8  24  13  25  13  26  13  27  13  28  13  29  13  30  13  31  13
M  ISO  8  32  13  33  13  34  14  35  14  36  14  37  13  38  13  39  13
M  ISO  8  40  13  41  13  42  13  43  13  44  13  45  13  46  13  47  13
M  ISO  5  48  13  49  13  50  13  51  13  52  13
M  END
>  <minimizedAffinity>  (1) 
-4.9889884

>  <minimizedRMSD>  (1) 
4.110147

$$$$
