
     RDKit          3D

 45 47  0  0  1  0  0  0  0  0999 V2000
   40.2900   19.3100   31.1810 C   0  0  0  0  0  0  0  0  0  0  0  0
   38.9840   19.4450   31.6500 C   0  0  0  0  0  0  0  0  0  0  0  0
   38.0910   20.1690   30.8710 C   0  0  0  0  0  0  0  0  0  0  0  0
   38.5560   20.7000   29.6940 N   0  0  0  0  0  0  0  0  0  0  0  0
   39.8240   20.5570   29.2620 C   0  0  0  0  0  0  0  0  0  0  0  0
   40.6880   19.8520   30.0220 N   0  0  0  0  0  0  0  0  0  0  0  0
   36.7550   20.3930   31.1870 N   0  0  0  0  0  0  0  0  0  0  0  0
   35.9730   21.5870   31.3930 C   0  0  1  0  0  0  0  0  0  0  0  0
   35.1790   21.1690   32.6250 C   0  0  0  0  0  0  0  0  0  0  0  0
   34.6000   19.8620   32.0660 C   0  0  0  0  0  0  0  0  0  0  0  0
   35.8000   19.2960   31.3870 C   0  0  0  0  0  0  0  0  0  0  0  0
   36.7090   22.8470   31.5910 C   0  0  1  0  0  0  0  0  0  0  0  0
   35.8160   23.9800   31.1110 C   0  0  0  0  0  0  0  0  0  0  0  0
   36.6220   25.2350   31.0460 C   0  0  0  0  0  0  0  0  0  0  0  0
   36.9280   25.5950   32.5100 C   0  0  0  0  0  0  0  0  0  0  0  0
   37.7450   24.5070   33.1390 C   0  0  0  0  0  0  0  0  0  0  0  0
   37.1300   23.0940   32.9930 C   0  0  2  0  0  0  0  0  0  0  0  0
   38.1170   22.2400   33.3830 O   0  0  0  0  0  0  0  0  0  0  0  0
   38.5290   22.1760   34.6640 C   0  0  0  0  0  0  0  0  0  0  0  0
   37.3400   21.8200   35.5860 C   0  0  0  0  0  0  0  0  0  0  0  0
   41.0158   18.7412   31.7807 H   0  0  0  0  0  0  0  0  0  0  0  0
   38.6719   18.9939   32.6035 H   0  0  0  0  0  0  0  0  0  0  0  0
   40.1479   21.0049   28.3110 H   0  0  0  0  0  0  0  0  0  0  0  0
   35.3916   21.8621   30.5006 H   0  0  0  0  0  0  0  0  0  0  0  0
   35.8241   20.9994   33.4997 H   0  0  0  0  0  0  0  0  0  0  0  0
   34.4490   21.9003   33.0022 H   0  0  0  0  0  0  0  0  0  0  0  0
   34.2398   19.2022   32.8690 H   0  0  0  0  0  0  0  0  0  0  0  0
   33.7250   19.9931   31.4124 H   0  0  0  0  0  0  0  0  0  0  0  0
   35.5137   18.8661   30.4158 H   0  0  0  0  0  0  0  0  0  0  0  0
   36.2494   18.4988   31.9973 H   0  0  0  0  0  0  0  0  0  0  0  0
   37.6443   22.7819   31.0157 H   0  0  0  0  0  0  0  0  0  0  0  0
   35.4218   23.7419   30.1120 H   0  0  0  0  0  0  0  0  0  0  0  0
   34.9746   24.1125   31.8070 H   0  0  0  0  0  0  0  0  0  0  0  0
   37.5545   25.0659   30.4875 H   0  0  0  0  0  0  0  0  0  0  0  0
   36.0838   26.0426   30.5282 H   0  0  0  0  0  0  0  0  0  0  0  0
   37.4899   26.5401   32.5441 H   0  0  0  0  0  0  0  0  0  0  0  0
   35.9832   25.7060   33.0624 H   0  0  0  0  0  0  0  0  0  0  0  0
   38.7381   24.5026   32.6660 H   0  0  0  0  0  0  0  0  0  0  0  0
   37.7901   24.7249   34.2163 H   0  0  0  0  0  0  0  0  0  0  0  0
   36.2236   22.9648   33.6026 H   0  0  0  0  0  0  0  0  0  0  0  0
   39.3066   21.4037   34.7582 H   0  0  0  0  0  0  0  0  0  0  0  0
   38.9356   23.1539   34.9613 H   0  0  0  0  0  0  0  0  0  0  0  0
   37.6505   21.9130   36.6372 H   0  0  0  0  0  0  0  0  0  0  0  0
   36.5042   22.5073   35.3884 H   0  0  0  0  0  0  0  0  0  0  0  0
   37.0194   20.7865   35.3884 H   0  0  0  0  0  0  0  0  0  0  0  0
  1  2  2  0
  3  7  1  0
  3  2  1  0
  4  3  2  0
  5  4  1  0
  5  6  2  0
  6  1  1  0
  7 11  1  0
  7  8  1  0
  8 12  1  0
  8  9  1  0
 10  9  1  0
 11 10  1  0
 12 17  1  0
 13 12  1  0
 14 13  1  0
 14 15  1  0
 15 16  1  0
 17 16  1  0
 17 18  1  0
 18 19  1  0
 19 20  1  0
  1 21  1  0
  2 22  1  0
  5 23  1  0
  8 24  1  6
  9 25  1  0
  9 26  1  0
 10 27  1  0
 10 28  1  0
 11 29  1  0
 11 30  1  0
 12 31  1  6
 13 32  1  0
 13 33  1  0
 14 34  1  0
 14 35  1  0
 15 36  1  0
 15 37  1  0
 16 38  1  0
 16 39  1  0
 17 40  1  1
 19 41  1  0
 19 42  1  0
 20 43  1  0
 20 44  1  0
 20 45  1  0
M  ISO  8  21  14  22  14  23  14  24  13  25  13  26  13  27  13  28  13
M  ISO  8  29  13  30  13  31  13  32  13  33  13  34  13  35  13  36  13
M  ISO  8  37  13  38  13  39  13  40  13  41   8  42   8  43   8  44   8
M  ISO  1  45   8
M  END
>  <minimizedAffinity>  (1) 
-4.01714849

>  <minimizedRMSD>  (1) 
2.74269819

$$$$
