
     RDKit          3D

 41 43  0  0  1  0  0  0  0  0999 V2000
   35.3430   17.7840   32.6780 C   0  0  0  0  0  0  0  0  0  0  0  0
   35.2890   19.1670   32.5140 C   0  0  0  0  0  0  0  0  0  0  0  0
   36.3950   19.7960   31.9700 C   0  0  0  0  0  0  0  0  0  0  0  0
   37.4730   19.0170   31.6300 N   0  0  0  0  0  0  0  0  0  0  0  0
   37.4970   17.6780   31.8020 C   0  0  0  0  0  0  0  0  0  0  0  0
   36.4310   17.0690   32.3250 N   0  0  0  0  0  0  0  0  0  0  0  0
   36.5050   21.1640   31.7340 N   0  0  0  0  0  0  0  0  0  0  0  0
   37.4190   22.1810   32.1980 C   0  0  1  0  0  0  0  0  0  0  0  0
   36.4370   23.3050   32.4860 C   0  0  0  0  0  0  0  0  0  0  0  0
   35.7620   23.3400   31.0990 C   0  0  0  0  0  0  0  0  0  0  0  0
   35.5770   21.8820   30.8530 C   0  0  0  0  0  0  0  0  0  0  0  0
   38.2610   21.8410   33.3570 C   0  0  1  0  0  0  0  0  0  0  0  0
   39.5970   22.5460   33.1770 C   0  0  0  0  0  0  0  0  0  0  0  0
   40.5600   22.0270   34.1920 C   0  0  0  0  0  0  0  0  0  0  0  0
   40.0440   22.5300   35.5480 C   0  0  0  0  0  0  0  0  0  0  0  0
   38.6740   21.9960   35.8130 C   0  0  0  0  0  0  0  0  0  0  0  0
   37.6730   22.2090   34.6680 C   0  0  2  0  0  0  0  0  0  0  0  0
   36.5820   21.4610   34.9770 O   0  0  0  0  0  0  0  0  0  0  0  0
   36.1740   21.0680   36.2360 C   0  0  0  0  0  0  0  0  0  0  0  0
   34.9690   21.1640   36.6510 O   0  0  0  0  0  0  0  0  0  0  0  0
   34.4751   17.2615   33.1068 H   0  0  0  0  0  0  0  0  0  0  0  0
   34.3967   19.7396   32.8073 H   0  0  0  0  0  0  0  0  0  0  0  0
   38.3849   17.0959   31.5144 H   0  0  0  0  0  0  0  0  0  0  0  0
   38.2097   22.3999   31.4653 H   0  0  0  0  0  0  0  0  0  0  0  0
   35.7307   23.0488   33.2895 H   0  0  0  0  0  0  0  0  0  0  0  0
   36.8691   24.2515   32.8428 H   0  0  0  0  0  0  0  0  0  0  0  0
   34.8000   23.8726   31.1284 H   0  0  0  0  0  0  0  0  0  0  0  0
   36.3350   23.8678   30.3224 H   0  0  0  0  0  0  0  0  0  0  0  0
   34.5411   21.5911   31.0818 H   0  0  0  0  0  0  0  0  0  0  0  0
   35.7774   21.6388   29.7991 H   0  0  0  0  0  0  0  0  0  0  0  0
   38.3657   20.7463   33.3821 H   0  0  0  0  0  0  0  0  0  0  0  0
   39.9846   22.3496   32.1664 H   0  0  0  0  0  0  0  0  0  0  0  0
   39.4661   23.6302   33.3087 H   0  0  0  0  0  0  0  0  0  0  0  0
   40.5815   20.9274   34.1735 H   0  0  0  0  0  0  0  0  0  0  0  0
   41.5852   22.3727   33.9936 H   0  0  0  0  0  0  0  0  0  0  0  0
   40.7250   22.1923   36.3431 H   0  0  0  0  0  0  0  0  0  0  0  0
   40.0017   23.6290   35.5290 H   0  0  0  0  0  0  0  0  0  0  0  0
   38.7571   20.9151   35.9996 H   0  0  0  0  0  0  0  0  0  0  0  0
   38.2833   22.5539   36.6768 H   0  0  0  0  0  0  0  0  0  0  0  0
   37.3959   23.2687   34.5672 H   0  0  0  0  0  0  0  0  0  0  0  0
   36.9274   20.6493   36.9195 H   0  0  0  0  0  0  0  0  0  0  0  0
  2  1  2  0
  3  2  1  0
  4  5  1  0
  4  3  2  0
  5  6  2  0
  6  1  1  0
  7  3  1  0
  7  8  1  0
  8  9  1  0
  8 12  1  0
 10  9  1  0
 11 10  1  0
 11  7  1  0
 12 17  1  0
 13 12  1  0
 13 14  1  0
 14 15  1  0
 15 16  1  0
 17 18  1  0
 17 16  1  0
 18 19  1  0
 19 20  2  0
  1 21  1  0
  2 22  1  0
  5 23  1  0
  8 24  1  6
  9 25  1  0
  9 26  1  0
 10 27  1  0
 10 28  1  0
 11 29  1  0
 11 30  1  0
 12 31  1  1
 13 32  1  0
 13 33  1  0
 14 34  1  0
 14 35  1  0
 15 36  1  0
 15 37  1  0
 16 38  1  0
 16 39  1  0
 17 40  1  6
 19 41  1  0
M  ISO  8  21  14  22  14  23  14  24  13  25  13  26  13  27  13  28  13
M  ISO  8  29  13  30  13  31  13  32  13  33  13  34  13  35  13  36  13
M  ISO  5  37  13  38  13  39  13  40  13  41   6
M  END
>  <minimizedAffinity>  (1) 
-4.07002783

>  <minimizedRMSD>  (1) 
2.59140229

$$$$
