
     RDKit          3D

 33 36  0  0  0  0  0  0  0  0999 V2000
   38.6220   24.8490   36.1170 C   0  0  0  0  0  0  0  0  0  0  0  0
   37.9750   24.4170   37.2810 C   0  0  0  0  0  0  0  0  0  0  0  0
   38.5540   23.3540   37.9910 C   0  0  0  0  0  0  0  0  0  0  0  0
   39.7130   22.8140   37.4950 N   0  0  0  0  0  0  0  0  0  0  0  0
   40.2940   23.2700   36.3680 C   0  0  0  0  0  0  0  0  0  0  0  0
   39.7590   24.2880   35.6700 N   0  0  0  0  0  0  0  0  0  0  0  0
   41.4940   22.6390   35.9420 N   0  0  0  0  0  0  0  0  0  0  0  0
   41.5950   21.7130   34.8330 C   0  0  0  0  0  0  0  0  0  0  0  0
   42.9100   21.0100   34.9750 C   0  0  0  0  0  0  0  0  0  0  0  0
   43.6430   21.6550   36.1320 C   0  0  0  0  0  0  0  0  0  0  0  0
   42.8090   22.8330   36.5620 C   0  0  0  0  0  0  0  0  0  0  0  0
   38.0610   25.9310   35.3660 N   0  0  0  0  0  0  0  0  0  0  0  0
   37.9210   27.2220   35.6660 C   0  0  0  0  0  0  0  0  0  0  0  0
   37.3250   27.8570   34.6230 N   0  0  0  0  0  0  0  0  0  0  0  0
   37.1000   26.9240   33.6680 C   0  0  0  0  0  0  0  0  0  0  0  0
   36.5230   27.0480   32.4220 C   0  0  0  0  0  0  0  0  0  0  0  0
   36.4320   25.9450   31.6880 N   0  0  0  0  0  0  0  0  0  0  0  0
   36.8780   24.7540   32.1290 C   0  0  0  0  0  0  0  0  0  0  0  0
   37.4430   24.6100   33.3380 N   0  0  0  0  0  0  0  0  0  0  0  0
   37.5580   25.6980   34.1190 C   0  0  0  0  0  0  0  0  0  0  0  0
   37.0459   24.8938   37.6267 H   0  0  0  0  0  0  0  0  0  0  0  0
   38.0945   22.9676   38.9127 H   0  0  0  0  0  0  0  0  0  0  0  0
   41.5587   22.2593   33.8789 H   0  0  0  0  0  0  0  0  0  0  0  0
   40.7610   20.9957   34.8403 H   0  0  0  0  0  0  0  0  0  0  0  0
   42.7455   19.9422   35.1820 H   0  0  0  0  0  0  0  0  0  0  0  0
   43.4970   21.0914   34.0483 H   0  0  0  0  0  0  0  0  0  0  0  0
   43.7477   20.9403   36.9616 H   0  0  0  0  0  0  0  0  0  0  0  0
   44.6546   21.9701   35.8364 H   0  0  0  0  0  0  0  0  0  0  0  0
   43.2628   23.7719   36.2119 H   0  0  0  0  0  0  0  0  0  0  0  0
   42.7345   22.8980   37.6575 H   0  0  0  0  0  0  0  0  0  0  0  0
   38.2370   27.6970   36.6065 H   0  0  0  0  0  0  0  0  0  0  0  0
   36.1548   28.0165   32.0526 H   0  0  0  0  0  0  0  0  0  0  0  0
   36.7764   23.8723   31.4791 H   0  0  0  0  0  0  0  0  0  0  0  0
  1  2  2  0
  2  3  1  0
  4  3  2  0
  5  4  1  0
  6  1  1  0
  6  5  2  0
  7  5  1  0
  7 11  1  0
  8  9  1  0
  8  7  1  0
  9 10  1  0
 10 11  1  0
 12 13  1  0
 12  1  1  0
 14 13  2  0
 15 20  2  0
 15 14  1  0
 16 15  1  0
 17 18  1  0
 17 16  2  0
 18 19  2  0
 19 20  1  0
 20 12  1  0
  2 21  1  0
  3 22  1  0
  8 23  1  0
  8 24  1  0
  9 25  1  0
  9 26  1  0
 10 27  1  0
 10 28  1  0
 11 29  1  0
 11 30  1  0
 13 31  1  0
 16 32  1  0
 18 33  1  0
M  ISO  8  21  14  22  14  23  13  24  13  25  13  26  13  27  13  28  13
M  ISO  5  29  13  30  13  31  14  32  14  33  14
M  END
>  <minimizedAffinity>  (1) 
-5.01192522

>  <minimizedRMSD>  (1) 
4.733325

$$$$
