
     RDKit          3D

 34 38  0  0  0  0  0  0  0  0999 V2000
   39.8880   24.8400   35.1160 C   0  0  0  0  0  0  0  0  0  0  0  0
   39.7420   23.6130   35.7720 C   0  0  0  0  0  0  0  0  0  0  0  0
   40.9100   22.9840   36.2120 C   0  0  0  0  0  0  0  0  0  0  0  0
   42.1030   23.6010   35.9750 N   0  0  0  0  0  0  0  0  0  0  0  0
   42.2020   24.7790   35.3410 C   0  0  0  0  0  0  0  0  0  0  0  0
   41.0830   25.4030   34.9080 N   0  0  0  0  0  0  0  0  0  0  0  0
   43.4860   25.3590   35.1320 N   0  0  0  0  0  0  0  0  0  0  0  0
   43.9990   25.9280   34.0260 C   0  0  0  0  0  0  0  0  0  0  0  0
   45.2740   26.3500   34.2820 N   0  0  0  0  0  0  0  0  0  0  0  0
   45.5570   26.0360   35.5720 C   0  0  0  0  0  0  0  0  0  0  0  0
   46.6510   26.1980   36.4010 C   0  0  0  0  0  0  0  0  0  0  0  0
   46.6310   25.7640   37.6910 N   0  0  0  0  0  0  0  0  0  0  0  0
   45.5290   25.1630   38.1840 C   0  0  0  0  0  0  0  0  0  0  0  0
   44.4650   25.0070   37.3770 N   0  0  0  0  0  0  0  0  0  0  0  0
   44.4340   25.4180   36.0920 C   0  0  0  0  0  0  0  0  0  0  0  0
   38.7290   25.5290   34.6450 N   0  0  0  0  0  0  0  0  0  0  0  0
   37.9080   26.3910   35.2760 C   0  0  0  0  0  0  0  0  0  0  0  0
   36.9380   26.7870   34.4150 N   0  0  0  0  0  0  0  0  0  0  0  0
   37.1720   26.1590   33.2440 C   0  0  0  0  0  0  0  0  0  0  0  0
   36.4800   26.2240   32.0640 C   0  0  0  0  0  0  0  0  0  0  0  0
   36.9580   25.4730   31.0530 N   0  0  0  0  0  0  0  0  0  0  0  0
   38.0440   24.7050   31.1800 C   0  0  0  0  0  0  0  0  0  0  0  0
   38.7400   24.6280   32.3350 N   0  0  0  0  0  0  0  0  0  0  0  0
   38.3050   25.3550   33.3700 C   0  0  0  0  0  0  0  0  0  0  0  0
   47.8260   26.8320   35.8950 N   0  0  0  0  0  0  0  0  0  0  0  0
   38.7515   23.1630   35.9344 H   0  0  0  0  0  0  0  0  0  0  0  0
   40.8682   22.0174   36.7353 H   0  0  0  0  0  0  0  0  0  0  0  0
   43.4743   26.0368   33.0653 H   0  0  0  0  0  0  0  0  0  0  0  0
   45.5012   24.8078   39.2247 H   0  0  0  0  0  0  0  0  0  0  0  0
   38.0083   26.7203   36.3207 H   0  0  0  0  0  0  0  0  0  0  0  0
   35.5852   26.8533   31.9484 H   0  0  0  0  0  0  0  0  0  0  0  0
   38.3825   24.1158   30.3150 H   0  0  0  0  0  0  0  0  0  0  0  0
   48.6466   26.9575   36.5047 H   0  0  0  0  0  0  0  0  0  0  0  0
   47.8530   27.1638   34.9203 H   0  0  0  0  0  0  0  0  0  0  0  0
  1  2  2  0
  2  3  1  0
  4  3  2  0
  5  4  1  0
  6  1  1  0
  6  5  2  0
  7  5  1  0
  7 15  1  0
  8  9  2  0
  8  7  1  0
  9 10  1  0
 10 15  2  0
 10 11  1  0
 11 12  2  0
 12 13  1  0
 14 13  2  0
 15 14  1  0
 16  1  1  0
 16 17  1  0
 18 17  2  0
 19 24  2  0
 19 18  1  0
 20 19  1  0
 21 22  1  0
 21 20  2  0
 22 23  2  0
 23 24  1  0
 24 16  1  0
 25 11  1  0
  2 26  1  0
  3 27  1  0
  8 28  1  0
 13 29  1  0
 17 30  1  0
 20 31  1  0
 22 32  1  0
 25 33  1  0
 25 34  1  0
M  ISO  7  26  14  27  14  28  14  29  14  30  14  31  14  32  14
M  END
>  <minimizedAffinity>  (1) 
-5.37986517

>  <minimizedRMSD>  (1) 
3.37525272

$$$$
