
     RDKit          3D

 36 39  0  0  0  0  0  0  0  0999 V2000
   38.7430   24.9780   35.6150 C   0  0  0  0  0  0  0  0  0  0  0  0
   38.0250   24.0260   36.3670 C   0  0  0  0  0  0  0  0  0  0  0  0
   38.7020   22.8960   36.8300 C   0  0  0  0  0  0  0  0  0  0  0  0
   40.0300   22.7950   36.5140 N   0  0  0  0  0  0  0  0  0  0  0  0
   40.6770   23.7210   35.7970 C   0  0  0  0  0  0  0  0  0  0  0  0
   40.0500   24.8080   35.3460 N   0  0  0  0  0  0  0  0  0  0  0  0
   42.0590   23.5520   35.5050 N   0  0  0  0  0  0  0  0  0  0  0  0
   43.0350   24.6020   35.6300 C   0  0  0  0  0  0  0  0  0  0  0  0
   44.2410   24.1740   36.4360 C   0  0  0  0  0  0  0  0  0  0  0  0
   44.7630   22.8210   36.0840 C   0  0  0  0  0  0  0  0  0  0  0  0
   43.6600   21.8080   36.0350 C   0  0  0  0  0  0  0  0  0  0  0  0
   42.6200   22.3010   35.0510 C   0  0  0  0  0  0  0  0  0  0  0  0
   38.0780   26.1360   35.1340 N   0  0  0  0  0  0  0  0  0  0  0  0
   37.9300   27.3490   35.6830 C   0  0  0  0  0  0  0  0  0  0  0  0
   37.2110   28.1310   34.8430 N   0  0  0  0  0  0  0  0  0  0  0  0
   36.9160   27.3810   33.7640 C   0  0  0  0  0  0  0  0  0  0  0  0
   36.2080   27.7090   32.6330 C   0  0  0  0  0  0  0  0  0  0  0  0
   36.0750   26.7500   31.7200 N   0  0  0  0  0  0  0  0  0  0  0  0
   36.6010   25.5110   31.8790 C   0  0  0  0  0  0  0  0  0  0  0  0
   37.2980   25.1650   32.9740 N   0  0  0  0  0  0  0  0  0  0  0  0
   37.4600   26.1070   33.9300 C   0  0  0  0  0  0  0  0  0  0  0  0
   36.9563   24.1700   36.5840 H   0  0  0  0  0  0  0  0  0  0  0  0
   38.1913   22.1221   37.4218 H   0  0  0  0  0  0  0  0  0  0  0  0
   43.3686   24.8961   34.6239 H   0  0  0  0  0  0  0  0  0  0  0  0
   42.5592   25.4416   36.1578 H   0  0  0  0  0  0  0  0  0  0  0  0
   45.0441   24.9073   36.2710 H   0  0  0  0  0  0  0  0  0  0  0  0
   43.9180   24.1248   37.4864 H   0  0  0  0  0  0  0  0  0  0  0  0
   45.2489   22.8696   35.0984 H   0  0  0  0  0  0  0  0  0  0  0  0
   45.4822   22.5142   36.8576 H   0  0  0  0  0  0  0  0  0  0  0  0
   44.0580   20.8376   35.7035 H   0  0  0  0  0  0  0  0  0  0  0  0
   43.2137   21.6784   37.0320 H   0  0  0  0  0  0  0  0  0  0  0  0
   41.8181   21.5531   34.9644 H   0  0  0  0  0  0  0  0  0  0  0  0
   43.0964   22.4551   34.0716 H   0  0  0  0  0  0  0  0  0  0  0  0
   38.3287   27.6601   36.6599 H   0  0  0  0  0  0  0  0  0  0  0  0
   35.7747   28.7099   32.4900 H   0  0  0  0  0  0  0  0  0  0  0  0
   36.4522   24.7642   31.0852 H   0  0  0  0  0  0  0  0  0  0  0  0
  1  2  2  0
  2  3  1  0
  4  3  2  0
  5  4  1  0
  6  1  1  0
  6  5  2  0
  7  8  1  0
  7  5  1  0
  8  9  1  0
 10  9  1  0
 11 10  1  0
 12  7  1  0
 12 11  1  0
 13  1  1  0
 13 14  1  0
 15 14  2  0
 16 21  2  0
 16 15  1  0
 17 16  1  0
 18 19  1  0
 18 17  2  0
 19 20  2  0
 20 21  1  0
 21 13  1  0
  2 22  1  0
  3 23  1  0
  8 24  1  0
  8 25  1  0
  9 26  1  0
  9 27  1  0
 10 28  1  0
 10 29  1  0
 11 30  1  0
 11 31  1  0
 12 32  1  0
 12 33  1  0
 14 34  1  0
 17 35  1  0
 19 36  1  0
M  ISO  8  22  14  23  14  24  13  25  13  26  13  27  13  28  13  29  13
M  ISO  7  30  13  31  13  32  13  33  13  34  14  35  14  36  14
M  END
>  <minimizedAffinity>  (1) 
-5.0976963

>  <minimizedRMSD>  (1) 
4.60483885

$$$$
