
     RDKit          3D

 29 32  0  0  0  0  0  0  0  0999 V2000
   39.2970   23.3850   35.5850 C   0  0  0  0  0  0  0  0  0  0  0  0
   38.7680   23.6350   36.8700 C   0  0  0  0  0  0  0  0  0  0  0  0
   39.4160   23.0260   37.9580 C   0  0  0  0  0  0  0  0  0  0  0  0
   40.5010   22.2410   37.6970 N   0  0  0  0  0  0  0  0  0  0  0  0
   40.9700   22.0300   36.4610 C   0  0  0  0  0  0  0  0  0  0  0  0
   40.3620   22.6060   35.4130 N   0  0  0  0  0  0  0  0  0  0  0  0
   38.6800   23.9770   34.4530 N   0  0  0  0  0  0  0  0  0  0  0  0
   38.7930   25.1970   33.9300 C   0  0  0  0  0  0  0  0  0  0  0  0
   37.9950   25.2900   32.8350 N   0  0  0  0  0  0  0  0  0  0  0  0
   37.3840   24.0950   32.6940 C   0  0  0  0  0  0  0  0  0  0  0  0
   36.4820   23.6820   31.7440 C   0  0  0  0  0  0  0  0  0  0  0  0
   36.0360   22.4260   31.8520 N   0  0  0  0  0  0  0  0  0  0  0  0
   36.4390   21.6080   32.8290 C   0  0  0  0  0  0  0  0  0  0  0  0
   37.3250   21.9900   33.7770 N   0  0  0  0  0  0  0  0  0  0  0  0
   37.8040   23.2500   33.7080 C   0  0  0  0  0  0  0  0  0  0  0  0
   42.1390   21.1770   36.2580 C   0  0  0  0  0  0  0  0  0  0  0  0
   42.8230   21.2210   35.0560 C   0  0  0  0  0  0  0  0  0  0  0  0
   43.9220   20.4030   34.8960 C   0  0  0  0  0  0  0  0  0  0  0  0
   44.3300   19.5710   35.8890 N   0  0  0  0  0  0  0  0  0  0  0  0
   43.6310   19.5560   37.0540 C   0  0  0  0  0  0  0  0  0  0  0  0
   42.5630   20.3500   37.2120 N   0  0  0  0  0  0  0  0  0  0  0  0
   37.8873   24.2783   37.0131 H   0  0  0  0  0  0  0  0  0  0  0  0
   39.0598   23.1774   38.9876 H   0  0  0  0  0  0  0  0  0  0  0  0
   39.4317   26.0018   34.3229 H   0  0  0  0  0  0  0  0  0  0  0  0
   36.1444   24.3491   30.9371 H   0  0  0  0  0  0  0  0  0  0  0  0
   36.0349   20.5855   32.8635 H   0  0  0  0  0  0  0  0  0  0  0  0
   42.4981   21.8923   34.2474 H   0  0  0  0  0  0  0  0  0  0  0  0
   44.4780   20.4249   33.9471 H   0  0  0  0  0  0  0  0  0  0  0  0
   43.9431   18.8891   37.8712 H   0  0  0  0  0  0  0  0  0  0  0  0
  1  2  2  0
  2  3  1  0
  4  3  2  0
  5  4  1  0
  6  1  1  0
  6  5  2  0
  7  1  1  0
  8  7  1  0
  9  8  2  0
 10  9  1  0
 10 15  2  0
 11 12  2  0
 11 10  1  0
 12 13  1  0
 13 14  2  0
 15 14  1  0
 15  7  1  0
 16  5  1  0
 16 21  1  0
 17 16  2  0
 18 17  1  0
 18 19  2  0
 19 20  1  0
 20 21  2  0
  2 22  1  0
  3 23  1  0
  8 24  1  0
 11 25  1  0
 13 26  1  0
 17 27  1  0
 18 28  1  0
 20 29  1  0
M  ISO  8  22  14  23  14  24  14  25  14  26  14  27  14  28  14  29  14
M  END
>  <minimizedAffinity>  (1) 
-4.39567089

>  <minimizedRMSD>  (1) 
4.97431469

$$$$
