
     RDKit          3D

 28 31  0  0  0  0  0  0  0  0999 V2000
   40.5800   23.4750   35.9720 C   0  0  0  0  0  0  0  0  0  0  0  0
   41.5970   22.8510   36.7160 C   0  0  0  0  0  0  0  0  0  0  0  0
   42.9000   23.3490   36.5670 C   0  0  0  0  0  0  0  0  0  0  0  0
   43.0960   24.3970   35.7180 N   0  0  0  0  0  0  0  0  0  0  0  0
   42.0910   24.9670   35.0220 C   0  0  0  0  0  0  0  0  0  0  0  0
   40.8370   24.5060   35.1500 N   0  0  0  0  0  0  0  0  0  0  0  0
   42.2840   26.0570   34.1360 N   0  0  0  0  0  0  0  0  0  0  0  0
   43.4870   26.3100   33.6210 N   0  0  0  0  0  0  0  0  0  0  0  0
   43.4160   27.3800   32.8200 C   0  0  0  0  0  0  0  0  0  0  0  0
   42.1010   27.7850   32.8610 C   0  0  0  0  0  0  0  0  0  0  0  0
   41.3690   26.9590   33.6890 C   0  0  0  0  0  0  0  0  0  0  0  0
   39.2330   23.0110   36.0820 N   0  0  0  0  0  0  0  0  0  0  0  0
   38.3590   23.1150   37.0810 C   0  0  0  0  0  0  0  0  0  0  0  0
   37.2000   22.5130   36.7120 N   0  0  0  0  0  0  0  0  0  0  0  0
   37.3850   22.0380   35.4640 C   0  0  0  0  0  0  0  0  0  0  0  0
   36.5160   21.3460   34.6400 C   0  0  0  0  0  0  0  0  0  0  0  0
   36.9800   20.9980   33.4430 N   0  0  0  0  0  0  0  0  0  0  0  0
   38.2290   21.2940   33.0310 C   0  0  0  0  0  0  0  0  0  0  0  0
   39.1000   21.9660   33.8090 N   0  0  0  0  0  0  0  0  0  0  0  0
   38.6720   22.3360   35.0270 C   0  0  0  0  0  0  0  0  0  0  0  0
   41.3798   22.0071   37.3873 H   0  0  0  0  0  0  0  0  0  0  0  0
   43.7409   22.9056   37.1205 H   0  0  0  0  0  0  0  0  0  0  0  0
   44.2363   27.8393   32.2489 H   0  0  0  0  0  0  0  0  0  0  0  0
   41.6917   28.6455   32.3114 H   0  0  0  0  0  0  0  0  0  0  0  0
   40.2974   27.0163   33.9308 H   0  0  0  0  0  0  0  0  0  0  0  0
   38.5456   23.6078   38.0466 H   0  0  0  0  0  0  0  0  0  0  0  0
   35.4932   21.0961   34.9584 H   0  0  0  0  0  0  0  0  0  0  0  0
   38.5474   20.9766   32.0271 H   0  0  0  0  0  0  0  0  0  0  0  0
  1 12  1  0
  1  2  2  0
  3  2  1  0
  4  3  2  0
  5  6  2  0
  5  4  1  0
  6  1  1  0
  7  5  1  0
  8  7  1  0
  9 10  1  0
  9  8  2  0
 10 11  2  0
 11  7  1  0
 12 13  1  0
 14 13  2  0
 15 14  1  0
 16 15  2  0
 17 16  1  0
 18 17  2  0
 18 19  1  0
 19 20  2  0
 20 15  1  0
 20 12  1  0
  2 21  1  0
  3 22  1  0
  9 23  1  0
 10 24  1  0
 11 25  1  0
 13 26  1  0
 16 27  1  0
 18 28  1  0
M  ISO  8  21  14  22  14  23  14  24  14  25  14  26  14  27  14  28  14
M  END
>  <minimizedAffinity>  (1) 
-4.2737112

>  <minimizedRMSD>  (1) 
0.767125726

$$$$
