
     RDKit          3D

 35 38  0  0  0  0  0  0  0  0999 V2000
   40.9090   23.1960   36.0120 C   0  0  0  0  0  0  0  0  0  0  0  0
   41.7990   22.3920   36.7410 C   0  0  0  0  0  0  0  0  0  0  0  0
   43.1600   22.7520   36.7070 C   0  0  0  0  0  0  0  0  0  0  0  0
   43.5120   23.8540   35.9720 N   0  0  0  0  0  0  0  0  0  0  0  0
   42.6270   24.5880   35.2940 C   0  0  0  0  0  0  0  0  0  0  0  0
   41.3300   24.2540   35.3190 N   0  0  0  0  0  0  0  0  0  0  0  0
   43.0670   25.7180   34.5530 N   0  0  0  0  0  0  0  0  0  0  0  0
   42.1270   26.7060   34.0810 C   0  0  0  0  0  0  0  0  0  0  0  0
   42.7680   27.4260   32.9190 C   0  0  0  0  0  0  0  0  0  0  0  0
   44.0310   28.0200   33.2280 N   0  0  0  0  0  0  0  0  0  0  0  0
   44.7540   27.3830   34.2910 C   0  0  0  0  0  0  0  0  0  0  0  0
   44.4740   25.9090   34.2480 C   0  0  0  0  0  0  0  0  0  0  0  0
   39.5270   22.8770   36.0120 N   0  0  0  0  0  0  0  0  0  0  0  0
   38.5770   23.0770   36.9340 C   0  0  0  0  0  0  0  0  0  0  0  0
   37.3960   22.5960   36.4770 N   0  0  0  0  0  0  0  0  0  0  0  0
   37.6330   22.0900   35.2440 C   0  0  0  0  0  0  0  0  0  0  0  0
   36.7640   21.4880   34.3610 C   0  0  0  0  0  0  0  0  0  0  0  0
   37.2870   21.0800   33.2030 N   0  0  0  0  0  0  0  0  0  0  0  0
   38.5870   21.2430   32.9000 C   0  0  0  0  0  0  0  0  0  0  0  0
   39.4460   21.8290   33.7500 N   0  0  0  0  0  0  0  0  0  0  0  0
   38.9740   22.2560   34.9280 C   0  0  0  0  0  0  0  0  0  0  0  0
   41.4492   21.5200   37.3131 H   0  0  0  0  0  0  0  0  0  0  0  0
   43.9159   22.1679   37.2525 H   0  0  0  0  0  0  0  0  0  0  0  0
   41.1994   26.2146   33.7524 H   0  0  0  0  0  0  0  0  0  0  0  0
   41.8751   27.4147   34.8837 H   0  0  0  0  0  0  0  0  0  0  0  0
   42.0846   28.2206   32.5850 H   0  0  0  0  0  0  0  0  0  0  0  0
   42.9533   26.6715   32.1403 H   0  0  0  0  0  0  0  0  0  0  0  0
   44.6152   27.9890   32.3802 H   0  0  0  0  0  0  0  0  0  0  0  0
   45.8322   27.5588   34.1625 H   0  0  0  0  0  0  0  0  0  0  0  0
   44.4373   27.7964   35.2599 H   0  0  0  0  0  0  0  0  0  0  0  0
   44.6971   25.5143   33.2458 H   0  0  0  0  0  0  0  0  0  0  0  0
   45.1021   25.3760   34.9769 H   0  0  0  0  0  0  0  0  0  0  0  0
   38.7316   23.5575   37.9113 H   0  0  0  0  0  0  0  0  0  0  0  0
   35.6984   21.3512   34.5972 H   0  0  0  0  0  0  0  0  0  0  0  0
   38.9576   20.8860   31.9278 H   0  0  0  0  0  0  0  0  0  0  0  0
  1 13  1  0
  1  2  2  0
  3  2  1  0
  4  3  2  0
  5  6  2  0
  5  4  1  0
  6  1  1  0
  7  5  1  0
  8  7  1  0
  9 10  1  0
  9  8  1  0
 10 11  1  0
 12 11  1  0
 12  7  1  0
 13 14  1  0
 15 14  2  0
 16 15  1  0
 17 16  2  0
 18 17  1  0
 19 18  2  0
 19 20  1  0
 20 21  2  0
 21 16  1  0
 21 13  1  0
  2 22  1  0
  3 23  1  0
  8 24  1  0
  8 25  1  0
  9 26  1  0
  9 27  1  0
 10 28  1  0
 11 29  1  0
 11 30  1  0
 12 31  1  0
 12 32  1  0
 14 33  1  0
 17 34  1  0
 19 35  1  0
M  ISO  8  22  14  23  14  24  13  25  13  26  13  27  13  28   5  29  13
M  ISO  6  30  13  31  13  32  13  33  14  34  14  35  14
M  END
>  <minimizedAffinity>  (1) 
-4.55652189

>  <minimizedRMSD>  (1) 
0.587652266

$$$$
