
     RDKit          3D

 32 36  0  0  0  0  0  0  0  0999 V2000
   41.0680   22.9090   36.0210 C   0  0  0  0  0  0  0  0  0  0  0  0
   41.8780   21.9370   36.6240 C   0  0  0  0  0  0  0  0  0  0  0  0
   43.2650   22.1760   36.6350 C   0  0  0  0  0  0  0  0  0  0  0  0
   43.7160   23.3310   36.0620 N   0  0  0  0  0  0  0  0  0  0  0  0
   42.8980   24.2330   35.4970 C   0  0  0  0  0  0  0  0  0  0  0  0
   41.5780   24.0100   35.4830 N   0  0  0  0  0  0  0  0  0  0  0  0
   43.3840   25.4340   34.9020 N   0  0  0  0  0  0  0  0  0  0  0  0
   42.6550   26.2110   34.0780 C   0  0  0  0  0  0  0  0  0  0  0  0
   43.3540   27.2900   33.6550 N   0  0  0  0  0  0  0  0  0  0  0  0
   44.5850   27.2040   34.2320 C   0  0  0  0  0  0  0  0  0  0  0  0
   45.7480   27.9700   34.2120 C   0  0  0  0  0  0  0  0  0  0  0  0
   46.8340   27.5710   34.9360 N   0  0  0  0  0  0  0  0  0  0  0  0
   46.8030   26.4420   35.6740 C   0  0  0  0  0  0  0  0  0  0  0  0
   45.6650   25.6990   35.6890 N   0  0  0  0  0  0  0  0  0  0  0  0
   44.5770   26.0530   34.9930 C   0  0  0  0  0  0  0  0  0  0  0  0
   39.6530   22.7080   35.9850 N   0  0  0  0  0  0  0  0  0  0  0  0
   38.7110   22.9910   36.9050 C   0  0  0  0  0  0  0  0  0  0  0  0
   37.5040   22.6170   36.4120 N   0  0  0  0  0  0  0  0  0  0  0  0
   37.7190   22.1030   35.1830 C   0  0  0  0  0  0  0  0  0  0  0  0
   36.8140   21.5910   34.2880 C   0  0  0  0  0  0  0  0  0  0  0  0
   37.3210   21.1430   33.1240 N   0  0  0  0  0  0  0  0  0  0  0  0
   38.6380   21.1950   32.8510 C   0  0  0  0  0  0  0  0  0  0  0  0
   39.5330   21.6930   33.7160 N   0  0  0  0  0  0  0  0  0  0  0  0
   39.0760   22.1510   34.8930 C   0  0  0  0  0  0  0  0  0  0  0  0
   41.4486   21.0273   37.0691 H   0  0  0  0  0  0  0  0  0  0  0  0
   43.9623   21.4569   37.0897 H   0  0  0  0  0  0  0  0  0  0  0  0
   41.6172   25.9948   33.7844 H   0  0  0  0  0  0  0  0  0  0  0  0
   45.7911   28.8929   33.6150 H   0  0  0  0  0  0  0  0  0  0  0  0
   47.6837   26.1282   36.2536 H   0  0  0  0  0  0  0  0  0  0  0  0
   38.8901   23.4480   37.8894 H   0  0  0  0  0  0  0  0  0  0  0  0
   35.7371   21.5490   34.5085 H   0  0  0  0  0  0  0  0  0  0  0  0
   38.9932   20.8147   31.8819 H   0  0  0  0  0  0  0  0  0  0  0  0
  1  2  2  0
  2  3  1  0
  4  3  2  0
  5  4  1  0
  6  5  2  0
  6  1  1  0
  7 15  1  0
  7  5  1  0
  8  7  1  0
  9  8  2  0
  9 10  1  0
 10 15  2  0
 11 10  1  0
 11 12  2  0
 12 13  1  0
 13 14  2  0
 15 14  1  0
 16  1  1  0
 16 17  1  0
 18 17  2  0
 19 18  1  0
 20 19  2  0
 21 20  1  0
 22 21  2  0
 22 23  1  0
 23 24  2  0
 24 19  1  0
 24 16  1  0
  2 25  1  0
  3 26  1  0
  8 27  1  0
 11 28  1  0
 13 29  1  0
 17 30  1  0
 20 31  1  0
 22 32  1  0
M  ISO  8  25  14  26  14  27  14  28  14  29  14  30  14  31  14  32  14
M  END
>  <minimizedAffinity>  (1) 
-4.8812418

>  <minimizedRMSD>  (1) 
1.07663465

$$$$
