
     RDKit          3D

 28 31  0  0  0  0  0  0  0  0999 V2000
   41.3710   23.0280   36.0400 C   0  0  0  0  0  0  0  0  0  0  0  0
   42.1850   22.0200   36.5600 C   0  0  0  0  0  0  0  0  0  0  0  0
   43.5650   22.2010   36.5730 C   0  0  0  0  0  0  0  0  0  0  0  0
   44.0320   23.3780   36.0660 N   0  0  0  0  0  0  0  0  0  0  0  0
   43.2250   24.3300   35.5730 C   0  0  0  0  0  0  0  0  0  0  0  0
   41.8860   24.1700   35.5530 N   0  0  0  0  0  0  0  0  0  0  0  0
   39.9610   22.8520   36.0220 N   0  0  0  0  0  0  0  0  0  0  0  0
   39.0200   23.1570   36.9170 C   0  0  0  0  0  0  0  0  0  0  0  0
   37.8090   22.7880   36.4320 N   0  0  0  0  0  0  0  0  0  0  0  0
   38.0120   22.2500   35.2240 C   0  0  0  0  0  0  0  0  0  0  0  0
   37.1070   21.7230   34.3250 C   0  0  0  0  0  0  0  0  0  0  0  0
   37.6040   21.2490   33.1810 N   0  0  0  0  0  0  0  0  0  0  0  0
   38.9210   21.2790   32.9080 C   0  0  0  0  0  0  0  0  0  0  0  0
   39.8260   21.7830   33.7600 N   0  0  0  0  0  0  0  0  0  0  0  0
   39.3780   22.2730   34.9260 C   0  0  0  0  0  0  0  0  0  0  0  0
   43.7890   25.5680   35.0450 C   0  0  0  0  0  0  0  0  0  0  0  0
   43.3940   26.2050   33.8740 C   0  0  0  0  0  0  0  0  0  0  0  0
   44.1520   27.3190   33.7250 N   0  0  0  0  0  0  0  0  0  0  0  0
   45.0170   27.4090   34.7690 C   0  0  0  0  0  0  0  0  0  0  0  0
   44.7620   26.3390   35.5320 N   0  0  0  0  0  0  0  0  0  0  0  0
   41.7412   21.0941   36.9546 H   0  0  0  0  0  0  0  0  0  0  0  0
   44.2447   21.4336   36.9720 H   0  0  0  0  0  0  0  0  0  0  0  0
   39.1982   23.6322   37.8929 H   0  0  0  0  0  0  0  0  0  0  0  0
   36.0288   21.6951   34.5410 H   0  0  0  0  0  0  0  0  0  0  0  0
   39.2699   20.8736   31.9468 H   0  0  0  0  0  0  0  0  0  0  0  0
   42.6043   25.8645   33.1882 H   0  0  0  0  0  0  0  0  0  0  0  0
   45.7667   28.1936   34.9488 H   0  0  0  0  0  0  0  0  0  0  0  0
   45.2660   26.1323   36.4062 H   0  0  0  0  0  0  0  0  0  0  0  0
  1  2  2  0
  2  3  1  0
  4  3  2  0
  5  4  1  0
  6  5  2  0
  6  1  1  0
  7  1  1  0
  7  8  1  0
  9  8  2  0
 10  9  1  0
 11 10  2  0
 12 11  1  0
 13 12  2  0
 13 14  1  0
 14 15  2  0
 15 10  1  0
 15  7  1  0
 16 20  1  0
 16  5  1  0
 17 16  2  0
 18 17  1  0
 18 19  2  0
 19 20  1  0
  2 21  1  0
  3 22  1  0
  8 23  1  0
 11 24  1  0
 13 25  1  0
 17 26  1  0
 19 27  1  0
 20 28  1  0
M  ISO  8  21  14  22  14  23  14  24  14  25  14  26  14  27  14  28   9
M  END
>  <minimizedAffinity>  (1) 
-4.08751869

>  <minimizedRMSD>  (1) 
0.926468194

$$$$
