
     RDKit          3D

 27 30  0  0  0  0  0  0  0  0999 V2000
   41.8490   22.5790   35.7600 C   0  0  0  0  0  0  0  0  0  0  0  0
   42.9360   23.4370   35.9130 C   0  0  0  0  0  0  0  0  0  0  0  0
   44.2010   22.8590   36.0940 C   0  0  0  0  0  0  0  0  0  0  0  0
   44.2770   21.4980   36.1080 N   0  0  0  0  0  0  0  0  0  0  0  0
   43.2070   20.7060   35.9590 C   0  0  0  0  0  0  0  0  0  0  0  0
   42.0030   21.2620   35.7850 N   0  0  0  0  0  0  0  0  0  0  0  0
   43.2770   19.2860   35.9720 N   0  0  0  0  0  0  0  0  0  0  0  0
   43.5400   18.3720   36.9240 C   0  0  0  0  0  0  0  0  0  0  0  0
   43.4690   17.1560   36.3730 N   0  0  0  0  0  0  0  0  0  0  0  0
   43.1600   17.2840   35.0590 C   0  0  0  0  0  0  0  0  0  0  0  0
   43.0520   18.6140   34.8630 N   0  0  0  0  0  0  0  0  0  0  0  0
   40.5400   23.1290   35.5720 N   0  0  0  0  0  0  0  0  0  0  0  0
   39.9260   23.5550   34.4620 C   0  0  0  0  0  0  0  0  0  0  0  0
   38.6800   23.9940   34.7960 N   0  0  0  0  0  0  0  0  0  0  0  0
   38.5530   23.8260   36.1240 C   0  0  0  0  0  0  0  0  0  0  0  0
   37.4830   24.1150   36.9460 C   0  0  0  0  0  0  0  0  0  0  0  0
   37.6300   23.8430   38.2370 N   0  0  0  0  0  0  0  0  0  0  0  0
   38.7610   23.3120   38.7370 C   0  0  0  0  0  0  0  0  0  0  0  0
   39.8210   23.0200   37.9620 N   0  0  0  0  0  0  0  0  0  0  0  0
   39.7190   23.2780   36.6390 C   0  0  0  0  0  0  0  0  0  0  0  0
   42.8066   24.5292   35.8926 H   0  0  0  0  0  0  0  0  0  0  0  0
   45.0992   23.4813   36.2201 H   0  0  0  0  0  0  0  0  0  0  0  0
   43.7737   18.5886   37.9768 H   0  0  0  0  0  0  0  0  0  0  0  0
   43.0270   16.4819   34.3181 H   0  0  0  0  0  0  0  0  0  0  0  0
   40.3553   23.5514   33.4492 H   0  0  0  0  0  0  0  0  0  0  0  0
   36.5531   24.5498   36.5506 H   0  0  0  0  0  0  0  0  0  0  0  0
   38.8207   23.1098   39.8166 H   0  0  0  0  0  0  0  0  0  0  0  0
  1  6  1  0
  1  2  2  0
  2  3  1  0
  3  4  2  0
  5  7  1  0
  5  4  1  0
  6  5  2  0
  7  8  1  0
  9  8  2  0
 10  9  1  0
 11 10  2  0
 11  7  1  0
 12  1  1  0
 12 20  1  0
 13 14  2  0
 13 12  1  0
 14 15  1  0
 15 20  2  0
 15 16  1  0
 16 17  2  0
 17 18  1  0
 19 18  2  0
 20 19  1  0
  2 21  1  0
  3 22  1  0
  8 23  1  0
 10 24  1  0
 13 25  1  0
 16 26  1  0
 18 27  1  0
M  ISO  7  21  14  22  14  23  14  24  14  25  14  26  14  27  14
M  END
>  <minimizedAffinity>  (1) 
-4.18430901

>  <minimizedRMSD>  (1) 
5.6241951

$$$$
