
     RDKit          3D

 22 24  0  0  0  0  0  0  0  0999 V2000
   39.8560   23.3060   35.9240 N   0  0  0  0  0  0  0  0  0  0  0  0
   38.9280   23.4430   36.8620 C   0  0  0  0  0  0  0  0  0  0  0  0
   37.7790   22.8400   36.4400 N   0  0  0  0  0  0  0  0  0  0  0  0
   38.0350   22.3330   35.2220 C   0  0  0  0  0  0  0  0  0  0  0  0
   37.2100   21.6320   34.3680 C   0  0  0  0  0  0  0  0  0  0  0  0
   37.7410   21.2450   33.2020 N   0  0  0  0  0  0  0  0  0  0  0  0
   39.0070   21.5200   32.8700 C   0  0  0  0  0  0  0  0  0  0  0  0
   39.8350   22.2010   33.6770 N   0  0  0  0  0  0  0  0  0  0  0  0
   39.3410   22.6120   34.8680 C   0  0  0  0  0  0  0  0  0  0  0  0
   41.2130   23.7510   35.8750 C   0  0  0  0  0  0  0  0  0  0  0  0
   42.2180   22.9860   36.4720 C   0  0  0  0  0  0  0  0  0  0  0  0
   43.5360   23.4560   36.4030 C   0  0  0  0  0  0  0  0  0  0  0  0
   43.7440   24.6360   35.7540 N   0  0  0  0  0  0  0  0  0  0  0  0
   42.7620   25.3450   35.1930 C   0  0  0  0  0  0  0  0  0  0  0  0
   41.4980   24.9020   35.2540 N   0  0  0  0  0  0  0  0  0  0  0  0
   42.9570   26.5430   34.5310 O   0  0  0  0  0  0  0  0  0  0  0  0
   39.0629   23.9590   37.8240 H   0  0  0  0  0  0  0  0  0  0  0  0
   36.1671   21.4022   34.6320 H   0  0  0  0  0  0  0  0  0  0  0  0
   39.3846   21.1741   31.8965 H   0  0  0  0  0  0  0  0  0  0  0  0
   41.9810   22.0407   36.9822 H   0  0  0  0  0  0  0  0  0  0  0  0
   44.3683   22.8958   36.8540 H   0  0  0  0  0  0  0  0  0  0  0  0
   43.8680   26.9225   34.4523 H   0  0  0  0  0  0  0  0  0  0  0  0
  1  2  1  0
  3  2  2  0
  4  3  1  0
  5  4  2  0
  6  5  1  0
  7  6  2  0
  7  8  1  0
  8  9  2  0
  9  4  1  0
  9  1  1  0
 10  1  1  0
 10 11  2  0
 12 11  1  0
 13 12  2  0
 14 15  2  0
 14 13  1  0
 15 10  1  0
 16 14  1  0
  2 17  1  0
  5 18  1  0
  7 19  1  0
 11 20  1  0
 12 21  1  0
 16 22  1  0
M  ISO  6  17  14  18  14  19  14  20  14  21  14  22   3
M  END
>  <minimizedAffinity>  (1) 
-3.73249745

>  <minimizedRMSD>  (1) 
0.136856198

$$$$
