
     RDKit          3D

 33 35  0  0  0  0  0  0  0  0999 V2000
   39.6990   23.2650   36.1230 N   0  0  0  0  0  0  0  0  0  0  0  0
   38.8630   23.4500   37.1600 C   0  0  0  0  0  0  0  0  0  0  0  0
   37.6750   22.8780   36.8640 N   0  0  0  0  0  0  0  0  0  0  0  0
   37.7890   22.3370   35.6260 C   0  0  0  0  0  0  0  0  0  0  0  0
   36.8570   21.6480   34.8840 C   0  0  0  0  0  0  0  0  0  0  0  0
   37.2650   21.2250   33.6740 N   0  0  0  0  0  0  0  0  0  0  0  0
   38.5050   21.4560   33.2080 C   0  0  0  0  0  0  0  0  0  0  0  0
   39.4200   22.1310   33.9330 N   0  0  0  0  0  0  0  0  0  0  0  0
   39.0640   22.5740   35.1460 C   0  0  0  0  0  0  0  0  0  0  0  0
   41.0610   23.6740   35.9410 C   0  0  0  0  0  0  0  0  0  0  0  0
   42.0700   23.0130   36.6720 C   0  0  0  0  0  0  0  0  0  0  0  0
   43.3860   23.4520   36.4570 C   0  0  0  0  0  0  0  0  0  0  0  0
   43.5960   24.4650   35.5730 N   0  0  0  0  0  0  0  0  0  0  0  0
   42.5930   25.0610   34.9000 C   0  0  0  0  0  0  0  0  0  0  0  0
   41.3150   24.6710   35.0770 N   0  0  0  0  0  0  0  0  0  0  0  0
   42.9000   26.1630   33.9490 C   0  0  0  0  0  0  0  0  0  0  0  0
   41.7290   27.1190   33.8790 C   0  0  0  0  0  0  0  0  0  0  0  0
   43.0740   25.5760   32.5480 C   0  0  0  0  0  0  0  0  0  0  0  0
   44.1930   26.8730   34.2810 C   0  0  0  0  0  0  0  0  0  0  0  0
   39.1057   23.9788   38.0935 H   0  0  0  0  0  0  0  0  0  0  0  0
   35.8405   21.4550   35.2575 H   0  0  0  0  0  0  0  0  0  0  0  0
   38.7801   21.0848   32.2097 H   0  0  0  0  0  0  0  0  0  0  0  0
   41.8382   22.1974   37.3728 H   0  0  0  0  0  0  0  0  0  0  0  0
   44.2282   22.9877   36.9910 H   0  0  0  0  0  0  0  0  0  0  0  0
   41.4081   27.3810   34.8980 H   0  0  0  0  0  0  0  0  0  0  0  0
   42.0318   28.0312   33.3440 H   0  0  0  0  0  0  0  0  0  0  0  0
   40.8959   26.6397   33.3440 H   0  0  0  0  0  0  0  0  0  0  0  0
   43.3858   24.5241   32.6273 H   0  0  0  0  0  0  0  0  0  0  0  0
   42.1196   25.6355   32.0044 H   0  0  0  0  0  0  0  0  0  0  0  0
   43.8418   26.1460   32.0044 H   0  0  0  0  0  0  0  0  0  0  0  0
   44.3069   26.9356   35.3733 H   0  0  0  0  0  0  0  0  0  0  0  0
   45.0387   26.3127   33.8556 H   0  0  0  0  0  0  0  0  0  0  0  0
   44.1741   27.8872   33.8556 H   0  0  0  0  0  0  0  0  0  0  0  0
  1  2  1  0
  3  2  2  0
  4  3  1  0
  5  4  2  0
  6  5  1  0
  7  6  2  0
  7  8  1  0
  8  9  2  0
  9  4  1  0
  9  1  1  0
 10  1  1  0
 10 11  2  0
 12 11  1  0
 13 12  2  0
 14 15  2  0
 14 13  1  0
 15 10  1  0
 16 19  1  0
 16 14  1  0
 17 16  1  0
 18 16  1  0
  2 20  1  0
  5 21  1  0
  7 22  1  0
 11 23  1  0
 12 24  1  0
 17 25  1  0
 17 26  1  0
 17 27  1  0
 18 28  1  0
 18 29  1  0
 18 30  1  0
 19 31  1  0
 19 32  1  0
 19 33  1  0
M  ISO  8  20  14  21  14  22  14  23  14  24  14  25   8  26   8  27   8
M  ISO  6  28   8  29   8  30   8  31   8  32   8  33   8
M  END
>  <minimizedAffinity>  (1) 
-3.98653412

>  <minimizedRMSD>  (1) 
0.598227203

$$$$
