
     RDKit          3D

 43 46  0  0  0  0  0  0  0  0999 V2000
   40.8420   22.9630   36.6020 C   0  0  0  0  0  0  0  0  0  0  0  0
   40.9150   21.6230   37.0350 C   0  0  0  0  0  0  0  0  0  0  0  0
   42.1970   21.0410   37.0420 C   0  0  0  0  0  0  0  0  0  0  0  0
   43.2510   21.7920   36.6420 N   0  0  0  0  0  0  0  0  0  0  0  0
   43.1220   23.0740   36.2370 C   0  0  0  0  0  0  0  0  0  0  0  0
   41.9140   23.6580   36.2180 N   0  0  0  0  0  0  0  0  0  0  0  0
   39.5520   23.6010   36.5770 N   0  0  0  0  0  0  0  0  0  0  0  0
   38.4160   23.3100   37.2340 C   0  0  0  0  0  0  0  0  0  0  0  0
   37.4750   24.2040   36.8740 N   0  0  0  0  0  0  0  0  0  0  0  0
   38.0430   25.0590   35.9790 C   0  0  0  0  0  0  0  0  0  0  0  0
   37.4910   26.1340   35.3280 C   0  0  0  0  0  0  0  0  0  0  0  0
   38.3050   26.7910   34.4970 N   0  0  0  0  0  0  0  0  0  0  0  0
   39.5820   26.4330   34.3030 C   0  0  0  0  0  0  0  0  0  0  0  0
   40.1310   25.3800   34.9380 N   0  0  0  0  0  0  0  0  0  0  0  0
   39.3640   24.6840   35.7810 C   0  0  0  0  0  0  0  0  0  0  0  0
   44.3270   23.8430   35.8080 C   0  0  0  0  0  0  0  0  0  0  0  0
   44.3030   24.0210   34.3150 C   0  0  0  0  0  0  0  0  0  0  0  0
   45.5760   23.0300   36.1370 C   0  0  0  0  0  0  0  0  0  0  0  0
   44.4500   25.1530   36.5480 C   0  0  0  0  0  0  0  0  0  0  0  0
   45.4030   26.0680   35.8680 C   0  0  0  0  0  0  0  0  0  0  0  0
   46.7710   26.0660   36.0700 C   0  0  0  0  0  0  0  0  0  0  0  0
   47.5350   26.9760   35.3690 C   0  0  0  0  0  0  0  0  0  0  0  0
   47.0550   27.8890   34.4830 C   0  0  0  0  0  0  0  0  0  0  0  0
   45.6860   27.9130   34.2620 C   0  0  0  0  0  0  0  0  0  0  0  0
   44.8990   27.0040   34.9590 C   0  0  0  0  0  0  0  0  0  0  0  0
   40.0212   21.0642   37.3494 H   0  0  0  0  0  0  0  0  0  0  0  0
   42.3396   19.9993   37.3652 H   0  0  0  0  0  0  0  0  0  0  0  0
   38.2782   22.4821   37.9451 H   0  0  0  0  0  0  0  0  0  0  0  0
   36.4443   26.4356   35.4809 H   0  0  0  0  0  0  0  0  0  0  0  0
   40.1998   27.0165   33.6045 H   0  0  0  0  0  0  0  0  0  0  0  0
   44.1596   25.0848   34.0748 H   0  0  0  0  0  0  0  0  0  0  0  0
   45.2560   23.6742   33.8890 H   0  0  0  0  0  0  0  0  0  0  0  0
   43.4759   23.4342   33.8890 H   0  0  0  0  0  0  0  0  0  0  0  0
   45.6887   22.9566   37.2287 H   0  0  0  0  0  0  0  0  0  0  0  0
   45.4798   22.0210   35.7097 H   0  0  0  0  0  0  0  0  0  0  0  0
   46.4597   23.5264   35.7097 H   0  0  0  0  0  0  0  0  0  0  0  0
   43.4616   25.6336   36.5931 H   0  0  0  0  0  0  0  0  0  0  0  0
   44.8280   24.9466   37.5602 H   0  0  0  0  0  0  0  0  0  0  0  0
   47.2374   25.3579   36.7707 H   0  0  0  0  0  0  0  0  0  0  0  0
   48.6214   26.9619   35.5409 H   0  0  0  0  0  0  0  0  0  0  0  0
   47.7286   28.5839   33.9601 H   0  0  0  0  0  0  0  0  0  0  0  0
   45.2374   28.6288   33.5574 H   0  0  0  0  0  0  0  0  0  0  0  0
   43.8130   27.0217   34.7851 H   0  0  0  0  0  0  0  0  0  0  0  0
  1  2  2  0
  2  3  1  0
  4  3  2  0
  5  4  1  0
  6  5  2  0
  6  1  1  0
  7  1  1  0
  7  8  1  0
  9  8  2  0
 10  9  1  0
 11 10  2  0
 12 11  1  0
 13 12  2  0
 13 14  1  0
 14 15  2  0
 15 10  1  0
 15  7  1  0
 16 18  1  0
 16  5  1  0
 16 19  1  0
 17 16  1  0
 20 21  2  0
 20 19  1  0
 22 21  1  0
 23 22  2  0
 24 23  1  0
 24 25  2  0
 25 20  1  0
  2 26  1  0
  3 27  1  0
  8 28  1  0
 11 29  1  0
 13 30  1  0
 17 31  1  0
 17 32  1  0
 17 33  1  0
 18 34  1  0
 18 35  1  0
 18 36  1  0
 19 37  1  0
 19 38  1  0
 21 39  1  0
 22 40  1  0
 23 41  1  0
 24 42  1  0
 25 43  1  0
M  ISO  8  26  14  27  14  28  14  29  14  30  14  31   8  32   8  33   8
M  ISO  8  34   8  35   8  36   8  37   8  38   8  39  14  40  14  41  14
M  ISO  2  42  14  43  14
M  END
>  <minimizedAffinity>  (1) 
-5.00760555

>  <minimizedRMSD>  (1) 
3.40276694

$$$$
