
     RDKit          3D

 46 49  0  0  0  0  0  0  0  0999 V2000
   39.9350   24.0460   35.9650 C   0  0  0  0  0  0  0  0  0  0  0  0
   39.5890   23.0700   36.9300 C   0  0  0  0  0  0  0  0  0  0  0  0
   40.6280   22.2200   37.3690 C   0  0  0  0  0  0  0  0  0  0  0  0
   41.8610   22.3990   36.8450 N   0  0  0  0  0  0  0  0  0  0  0  0
   42.1420   23.3350   35.9340 C   0  0  0  0  0  0  0  0  0  0  0  0
   41.1760   24.1750   35.4810 N   0  0  0  0  0  0  0  0  0  0  0  0
   38.9120   24.9260   35.4930 N   0  0  0  0  0  0  0  0  0  0  0  0
   38.2130   25.8730   36.1230 C   0  0  0  0  0  0  0  0  0  0  0  0
   37.3520   26.4380   35.2450 N   0  0  0  0  0  0  0  0  0  0  0  0
   37.5390   25.8130   34.0510 C   0  0  0  0  0  0  0  0  0  0  0  0
   36.9050   26.0300   32.8560 C   0  0  0  0  0  0  0  0  0  0  0  0
   37.3000   25.2550   31.8380 N   0  0  0  0  0  0  0  0  0  0  0  0
   38.2540   24.3230   31.9730 C   0  0  0  0  0  0  0  0  0  0  0  0
   38.8750   24.1120   33.1470 N   0  0  0  0  0  0  0  0  0  0  0  0
   38.5210   24.8610   34.2060 C   0  0  0  0  0  0  0  0  0  0  0  0
   43.5400   23.4900   35.3970 C   0  0  0  0  0  0  0  0  0  0  0  0
   43.5940   24.6360   34.4300 C   0  0  0  0  0  0  0  0  0  0  0  0
   43.8830   22.2290   34.6240 C   0  0  0  0  0  0  0  0  0  0  0  0
   44.5390   23.6280   36.5100 C   0  0  0  0  0  0  0  0  0  0  0  0
   45.1320   24.8620   36.7480 N   0  0  0  0  0  0  0  0  0  0  0  0
   46.5210   25.0450   36.8260 C   0  0  0  0  0  0  0  0  0  0  0  0
   47.1500   24.4170   38.0600 C   0  0  0  0  0  0  0  0  0  0  0  0
   46.6970   25.1330   39.1410 O   0  0  0  0  0  0  0  0  0  0  0  0
   45.6200   25.9550   38.9080 C   0  0  0  0  0  0  0  0  0  0  0  0
   44.5680   25.3840   38.0060 C   0  0  0  0  0  0  0  0  0  0  0  0
   38.5638   22.9783   37.3180 H   0  0  0  0  0  0  0  0  0  0  0  0
   40.4392   21.4348   38.1159 H   0  0  0  0  0  0  0  0  0  0  0  0
   38.3195   26.1489   37.1825 H   0  0  0  0  0  0  0  0  0  0  0  0
   36.1209   26.7928   32.7401 H   0  0  0  0  0  0  0  0  0  0  0  0
   38.5362   23.7150   31.1008 H   0  0  0  0  0  0  0  0  0  0  0  0
   43.6387   25.5837   34.9867 H   0  0  0  0  0  0  0  0  0  0  0  0
   44.4886   24.5400   33.7972 H   0  0  0  0  0  0  0  0  0  0  0  0
   42.6943   24.6245   33.7972 H   0  0  0  0  0  0  0  0  0  0  0  0
   44.1044   21.4150   35.3299 H   0  0  0  0  0  0  0  0  0  0  0  0
   43.0299   21.9435   33.9910 H   0  0  0  0  0  0  0  0  0  0  0  0
   44.7632   22.4150   33.9910 H   0  0  0  0  0  0  0  0  0  0  0  0
   44.0265   23.3350   37.4381 H   0  0  0  0  0  0  0  0  0  0  0  0
   45.3785   22.9966   36.1834 H   0  0  0  0  0  0  0  0  0  0  0  0
   46.9815   24.5953   35.9340 H   0  0  0  0  0  0  0  0  0  0  0  0
   46.7004   26.1285   36.8887 H   0  0  0  0  0  0  0  0  0  0  0  0
   46.8440   23.3640   38.1474 H   0  0  0  0  0  0  0  0  0  0  0  0
   48.2481   24.4417   38.0008 H   0  0  0  0  0  0  0  0  0  0  0  0
   45.1508   26.1847   39.8761 H   0  0  0  0  0  0  0  0  0  0  0  0
   46.0172   26.8418   38.3924 H   0  0  0  0  0  0  0  0  0  0  0  0
   43.8408   26.1738   37.7666 H   0  0  0  0  0  0  0  0  0  0  0  0
   44.0913   24.5452   38.5343 H   0  0  0  0  0  0  0  0  0  0  0  0
  1  2  2  0
  2  3  1  0
  4  3  2  0
  5  4  1  0
  6  5  2  0
  6  1  1  0
  7  1  1  0
  7  8  1  0
  9  8  2  0
 10 15  2  0
 10  9  1  0
 11 10  1  0
 12 13  1  0
 12 11  2  0
 13 14  2  0
 14 15  1  0
 15  7  1  0
 16  5  1  0
 16 19  1  0
 17 16  1  0
 18 16  1  0
 19 20  1  0
 20 21  1  0
 20 25  1  0
 21 22  1  0
 22 23  1  0
 24 23  1  0
 25 24  1  0
  2 26  1  0
  3 27  1  0
  8 28  1  0
 11 29  1  0
 13 30  1  0
 17 31  1  0
 17 32  1  0
 17 33  1  0
 18 34  1  0
 18 35  1  0
 18 36  1  0
 19 37  1  0
 19 38  1  0
 21 39  1  0
 21 40  1  0
 22 41  1  0
 22 42  1  0
 24 43  1  0
 24 44  1  0
 25 45  1  0
 25 46  1  0
M  ISO  8  26  14  27  14  28  14  29  14  30  14  31   8  32   8  33   8
M  ISO  8  34   8  35   8  36   8  37   8  38   8  39  13  40  13  41  13
M  ISO  5  42  13  43  13  44  13  45  13  46  13
M  END
>  <minimizedAffinity>  (1) 
-5.01395655

>  <minimizedRMSD>  (1) 
3.90786052

$$$$
