
     RDKit          3D

 42 45  0  0  0  0  0  0  0  0999 V2000
   41.3780   23.0770   36.2880 C   0  0  0  0  0  0  0  0  0  0  0  0
   41.6550   21.7020   36.1650 C   0  0  0  0  0  0  0  0  0  0  0  0
   43.0110   21.3370   36.1570 C   0  0  0  0  0  0  0  0  0  0  0  0
   43.9480   22.3190   36.2670 N   0  0  0  0  0  0  0  0  0  0  0  0
   43.6240   23.6250   36.3820 C   0  0  0  0  0  0  0  0  0  0  0  0
   42.3400   24.0100   36.3940 N   0  0  0  0  0  0  0  0  0  0  0  0
   40.0060   23.5000   36.3020 N   0  0  0  0  0  0  0  0  0  0  0  0
   38.9250   22.9400   36.8500 C   0  0  0  0  0  0  0  0  0  0  0  0
   37.8520   23.7280   36.5860 N   0  0  0  0  0  0  0  0  0  0  0  0
   38.2950   24.7780   35.8670 C   0  0  0  0  0  0  0  0  0  0  0  0
   37.5860   25.8520   35.3590 C   0  0  0  0  0  0  0  0  0  0  0  0
   38.3020   26.7530   34.6750 N   0  0  0  0  0  0  0  0  0  0  0  0
   39.6270   26.6350   34.4880 C   0  0  0  0  0  0  0  0  0  0  0  0
   40.3240   25.5940   34.9780 N   0  0  0  0  0  0  0  0  0  0  0  0
   39.6520   24.6580   35.6740 C   0  0  0  0  0  0  0  0  0  0  0  0
   44.6970   24.6350   36.4970 C   0  0  0  0  0  0  0  0  0  0  0  0
   44.6230   25.2910   37.8680 C   0  0  0  0  0  0  0  0  0  0  0  0
   44.4800   25.7350   35.4650 C   0  0  0  0  0  0  0  0  0  0  0  0
   46.0790   24.0690   36.2380 C   0  0  0  0  0  0  0  0  0  0  0  0
   47.0240   25.2090   36.2480 C   0  0  0  0  0  0  0  0  0  0  0  0
   47.6940   25.6700   37.3880 C   0  0  0  0  0  0  0  0  0  0  0  0
   48.5570   26.7410   37.2970 C   0  0  0  0  0  0  0  0  0  0  0  0
   48.7970   27.4010   36.0880 C   0  0  0  0  0  0  0  0  0  0  0  0
   48.1120   26.9040   34.9990 C   0  0  0  0  0  0  0  0  0  0  0  0
   47.2690   25.8600   35.0850 N   0  0  0  0  0  0  0  0  0  0  0  0
   40.8527   20.9543   36.0798 H   0  0  0  0  0  0  0  0  0  0  0  0
   43.3094   20.2823   36.0640 H   0  0  0  0  0  0  0  0  0  0  0  0
   38.9070   21.9989   37.4193 H   0  0  0  0  0  0  0  0  0  0  0  0
   36.5014   25.9589   35.5079 H   0  0  0  0  0  0  0  0  0  0  0  0
   40.1573   27.4120   33.9178 H   0  0  0  0  0  0  0  0  0  0  0  0
   44.7099   24.5206   38.6483 H   0  0  0  0  0  0  0  0  0  0  0  0
   45.4453   26.0140   37.9734 H   0  0  0  0  0  0  0  0  0  0  0  0
   43.6603   25.8127   37.9734 H   0  0  0  0  0  0  0  0  0  0  0  0
   44.2919   26.6888   35.9797 H   0  0  0  0  0  0  0  0  0  0  0  0
   45.3769   25.8290   34.8352 H   0  0  0  0  0  0  0  0  0  0  0  0
   43.6146   25.4813   34.8352 H   0  0  0  0  0  0  0  0  0  0  0  0
   46.1039   23.5665   35.2598 H   0  0  0  0  0  0  0  0  0  0  0  0
   46.3496   23.3288   37.0054 H   0  0  0  0  0  0  0  0  0  0  0  0
   47.5314   25.1767   38.3576 H   0  0  0  0  0  0  0  0  0  0  0  0
   49.0733   27.0874   38.2044 H   0  0  0  0  0  0  0  0  0  0  0  0
   49.4840   28.2566   36.0108 H   0  0  0  0  0  0  0  0  0  0  0  0
   48.2615   27.3815   34.0194 H   0  0  0  0  0  0  0  0  0  0  0  0
  1  7  1  0
  1  6  1  0
  2  1  2  0
  3  2  1  0
  3  4  2  0
  4  5  1  0
  5  6  2  0
  5 16  1  0
  7  8  1  0
  9  8  2  0
 10  9  1  0
 11 10  2  0
 12 11  1  0
 13 12  2  0
 13 14  1  0
 14 15  2  0
 15 10  1  0
 15  7  1  0
 16 17  1  0
 18 16  1  0
 19 20  1  0
 19 16  1  0
 20 21  2  0
 22 21  1  0
 23 22  2  0
 24 25  2  0
 24 23  1  0
 25 20  1  0
  2 26  1  0
  3 27  1  0
  8 28  1  0
 11 29  1  0
 13 30  1  0
 17 31  1  0
 17 32  1  0
 17 33  1  0
 18 34  1  0
 18 35  1  0
 18 36  1  0
 19 37  1  0
 19 38  1  0
 21 39  1  0
 22 40  1  0
 23 41  1  0
 24 42  1  0
M  ISO  8  26  14  27  14  28  14  29  14  30  14  31   8  32   8  33   8
M  ISO  8  34   8  35   8  36   8  37   8  38   8  39  14  40  14  41  14
M  ISO  1  42  14
M  END
>  <minimizedAffinity>  (1) 
-4.92788363

>  <minimizedRMSD>  (1) 
4.02491093

$$$$
