
     RDKit          3D

 40 43  0  0  0  0  0  0  0  0999 V2000
   42.2500   22.6840   36.2650 C   0  0  0  0  0  0  0  0  0  0  0  0
   42.9820   21.5010   36.4550 C   0  0  0  0  0  0  0  0  0  0  0  0
   44.3270   21.5270   36.0600 C   0  0  0  0  0  0  0  0  0  0  0  0
   44.8210   22.6770   35.5300 N   0  0  0  0  0  0  0  0  0  0  0  0
   44.0750   23.7920   35.3680 C   0  0  0  0  0  0  0  0  0  0  0  0
   42.7780   23.7930   35.7400 N   0  0  0  0  0  0  0  0  0  0  0  0
   40.8630   22.7110   36.6550 N   0  0  0  0  0  0  0  0  0  0  0  0
   40.2930   22.9920   37.8520 C   0  0  0  0  0  0  0  0  0  0  0  0
   38.9570   22.8870   37.7220 N   0  0  0  0  0  0  0  0  0  0  0  0
   38.7060   22.5390   36.4330 C   0  0  0  0  0  0  0  0  0  0  0  0
   37.5020   22.3120   35.8070 C   0  0  0  0  0  0  0  0  0  0  0  0
   37.5720   21.9780   34.5050 N   0  0  0  0  0  0  0  0  0  0  0  0
   38.7290   21.8690   33.8470 C   0  0  0  0  0  0  0  0  0  0  0  0
   39.9120   22.0910   34.4620 N   0  0  0  0  0  0  0  0  0  0  0  0
   39.9070   22.4260   35.7510 C   0  0  0  0  0  0  0  0  0  0  0  0
   44.6720   25.0100   34.7850 C   0  0  0  0  0  0  0  0  0  0  0  0
   43.8900   25.4400   33.5680 C   0  0  0  0  0  0  0  0  0  0  0  0
   46.0820   24.7010   34.3050 C   0  0  0  0  0  0  0  0  0  0  0  0
   44.7920   26.1300   35.8070 C   0  0  0  0  0  0  0  0  0  0  0  0
   45.5180   25.6970   37.0160 C   0  0  0  0  0  0  0  0  0  0  0  0
   44.9320   25.8740   38.2520 C   0  0  0  0  0  0  0  0  0  0  0  0
   45.8110   25.3900   39.2010 C   0  0  0  0  0  0  0  0  0  0  0  0
   46.9050   24.9370   38.4600 C   0  0  0  0  0  0  0  0  0  0  0  0
   46.6920   25.1380   37.1680 O   0  0  0  0  0  0  0  0  0  0  0  0
   42.5242   20.6008   36.8910 H   0  0  0  0  0  0  0  0  0  0  0  0
   44.9662   20.6393   36.1761 H   0  0  0  0  0  0  0  0  0  0  0  0
   40.8306   23.2603   38.7734 H   0  0  0  0  0  0  0  0  0  0  0  0
   36.5422   22.3981   36.3374 H   0  0  0  0  0  0  0  0  0  0  0  0
   38.7190   21.5928   32.7823 H   0  0  0  0  0  0  0  0  0  0  0  0
   42.9672   25.9474   33.8856 H   0  0  0  0  0  0  0  0  0  0  0  0
   44.4992   26.1300   32.9657 H   0  0  0  0  0  0  0  0  0  0  0  0
   43.6337   24.5560   32.9657 H   0  0  0  0  0  0  0  0  0  0  0  0
   46.7415   24.5565   35.1734 H   0  0  0  0  0  0  0  0  0  0  0  0
   46.0698   23.7842   33.6972 H   0  0  0  0  0  0  0  0  0  0  0  0
   46.4543   25.5389   33.6972 H   0  0  0  0  0  0  0  0  0  0  0  0
   45.3328   26.9718   35.3500 H   0  0  0  0  0  0  0  0  0  0  0  0
   43.7764   26.4270   36.1076 H   0  0  0  0  0  0  0  0  0  0  0  0
   43.9451   26.3192   38.4463 H   0  0  0  0  0  0  0  0  0  0  0  0
   45.6794   25.3666   40.2928 H   0  0  0  0  0  0  0  0  0  0  0  0
   47.8103   24.4805   38.8866 H   0  0  0  0  0  0  0  0  0  0  0  0
  1  2  2  0
  1  7  1  0
  3  2  1  0
  4  3  2  0
  5  4  1  0
  5  6  2  0
  6  1  1  0
  7  8  1  0
  9  8  2  0
 10  9  1  0
 11 10  2  0
 12 11  1  0
 13 14  1  0
 13 12  2  0
 14 15  2  0
 15 10  1  0
 15  7  1  0
 16  5  1  0
 16 19  1  0
 17 16  1  0
 18 16  1  0
 19 20  1  0
 20 24  1  0
 20 21  2  0
 21 22  1  0
 23 22  2  0
 24 23  1  0
  2 25  1  0
  3 26  1  0
  8 27  1  0
 11 28  1  0
 13 29  1  0
 17 30  1  0
 17 31  1  0
 17 32  1  0
 18 33  1  0
 18 34  1  0
 18 35  1  0
 19 36  1  0
 19 37  1  0
 21 38  1  0
 22 39  1  0
 23 40  1  0
M  ISO  8  25  14  26  14  27  14  28  14  29  14  30   8  31   8  32   8
M  ISO  8  33   8  34   8  35   8  36   8  37   8  38  14  39  14  40  14
M  END
>  <minimizedAffinity>  (1) 
-4.88373566

>  <minimizedRMSD>  (1) 
2.37430215

$$$$
