
     RDKit          3D

 40 42  0  0  0  0  0  0  0  0999 V2000
   40.7880   23.2650   35.9890 C   0  0  0  0  0  0  0  0  0  0  0  0
   41.6890   22.5300   36.7990 C   0  0  0  0  0  0  0  0  0  0  0  0
   43.0370   22.9260   36.7460 C   0  0  0  0  0  0  0  0  0  0  0  0
   43.3730   23.9700   35.9320 N   0  0  0  0  0  0  0  0  0  0  0  0
   42.4560   24.6300   35.1800 C   0  0  0  0  0  0  0  0  0  0  0  0
   41.1660   24.2810   35.2070 N   0  0  0  0  0  0  0  0  0  0  0  0
   39.3990   22.8960   36.0140 N   0  0  0  0  0  0  0  0  0  0  0  0
   38.4610   23.0650   36.9550 C   0  0  0  0  0  0  0  0  0  0  0  0
   37.3030   22.5470   36.5090 N   0  0  0  0  0  0  0  0  0  0  0  0
   37.5350   22.0470   35.2600 C   0  0  0  0  0  0  0  0  0  0  0  0
   36.6660   21.4250   34.4070 C   0  0  0  0  0  0  0  0  0  0  0  0
   37.1770   21.0350   33.2350 N   0  0  0  0  0  0  0  0  0  0  0  0
   38.4690   21.2440   32.9110 C   0  0  0  0  0  0  0  0  0  0  0  0
   39.3180   21.8550   33.7520 N   0  0  0  0  0  0  0  0  0  0  0  0
   38.8520   22.2640   34.9450 C   0  0  0  0  0  0  0  0  0  0  0  0
   42.9180   25.7560   34.3120 C   0  0  0  0  0  0  0  0  0  0  0  0
   41.8190   26.7960   34.2480 C   0  0  0  0  0  0  0  0  0  0  0  0
   43.1100   25.2320   32.8850 C   0  0  0  0  0  0  0  0  0  0  0  0
   44.2460   26.3110   34.7390 C   0  0  0  0  0  0  0  0  0  0  0  0
   44.4260   27.7050   34.3370 N   0  0  0  0  0  0  0  0  0  0  0  0
   45.5890   28.1860   33.6300 C   0  0  0  0  0  0  0  0  0  0  0  0
   46.0050   27.3780   32.7100 N   0  0  0  0  0  0  0  0  0  0  0  0
   46.0390   29.4770   34.1060 N   0  0  0  0  0  0  0  0  0  0  0  0
   46.8250   27.5980   32.1290 H   0  0  0  0  0  0  0  0  0  0  0  0
   41.3527   21.6967   37.4334 H   0  0  0  0  0  0  0  0  0  0  0  0
   43.8011   22.4085   37.3445 H   0  0  0  0  0  0  0  0  0  0  0  0
   38.6129   23.5479   37.9316 H   0  0  0  0  0  0  0  0  0  0  0  0
   35.6112   21.2559   34.6691 H   0  0  0  0  0  0  0  0  0  0  0  0
   38.8370   20.9048   31.9315 H   0  0  0  0  0  0  0  0  0  0  0  0
   41.5211   27.0779   35.2687 H   0  0  0  0  0  0  0  0  0  0  0  0
   42.1862   27.6851   33.7144 H   0  0  0  0  0  0  0  0  0  0  0  0
   40.9515   26.3804   33.7144 H   0  0  0  0  0  0  0  0  0  0  0  0
   43.4882   24.1997   32.9212 H   0  0  0  0  0  0  0  0  0  0  0  0
   42.1465   25.2511   32.3547 H   0  0  0  0  0  0  0  0  0  0  0  0
   43.8331   25.8691   32.3547 H   0  0  0  0  0  0  0  0  0  0  0  0
   44.3188   26.2477   35.8348 H   0  0  0  0  0  0  0  0  0  0  0  0
   45.0302   25.7173   34.2464 H   0  0  0  0  0  0  0  0  0  0  0  0
   43.6836   28.3797   34.5706 H   0  0  0  0  0  0  0  0  0  0  0  0
   46.8621   29.9251   33.6787 H   0  0  0  0  0  0  0  0  0  0  0  0
   45.5361   29.9474   34.8720 H   0  0  0  0  0  0  0  0  0  0  0  0
  1  7  1  0
  1  2  2  0
  3  2  1  0
  4  3  2  0
  5  6  2  0
  5  4  1  0
  6  1  1  0
  7  8  1  0
  9  8  2  0
 10  9  1  0
 11 10  2  0
 12 11  1  0
 13 12  2  0
 13 14  1  0
 14 15  2  0
 15 10  1  0
 15  7  1  0
 16 19  1  0
 16  5  1  0
 17 16  1  0
 18 16  1  0
 20 19  1  0
 21 23  1  0
 21 20  1  0
 22 21  2  0
 24 22  1  0
  2 25  1  0
  3 26  1  0
  8 27  1  0
 11 28  1  0
 13 29  1  0
 17 30  1  0
 17 31  1  0
 17 32  1  0
 18 33  1  0
 18 34  1  0
 18 35  1  0
 19 36  1  0
 19 37  1  0
 20 38  1  0
 23 39  1  0
 23 40  1  0
M  ISO  8  25  14  26  14  27  14  28  14  29  14  30   8  31   8  32   8
M  ISO  5  33   8  34   8  35   8  36   8  37   8
M  END
>  <minimizedAffinity>  (1) 
-4.727777

>  <minimizedRMSD>  (1) 
1.02498305

$$$$
