
     RDKit          3D

 47 51  0  0  0  0  0  0  0  0999 V2000
   44.2160   24.6900   33.5430 C   0  0  0  0  0  0  0  0  0  0  0  0
   41.5820   27.0030   32.4080 C   0  0  0  0  0  0  0  0  0  0  0  0
   42.2920   28.1210   31.9260 C   0  0  0  0  0  0  0  0  0  0  0  0
   43.6940   28.0420   32.0100 C   0  0  0  0  0  0  0  0  0  0  0  0
   44.2580   26.9240   32.5350 N   0  0  0  0  0  0  0  0  0  0  0  0
   43.5160   25.8800   32.9820 C   0  0  0  0  0  0  0  0  0  0  0  0
   42.1800   25.9220   32.9170 N   0  0  0  0  0  0  0  0  0  0  0  0
   40.1440   27.0260   32.3490 N   0  0  0  0  0  0  0  0  0  0  0  0
   39.3090   26.9750   31.3010 C   0  0  0  0  0  0  0  0  0  0  0  0
   38.0400   27.0320   31.7510 N   0  0  0  0  0  0  0  0  0  0  0  0
   38.1020   27.1220   33.1080 C   0  0  0  0  0  0  0  0  0  0  0  0
   37.0720   27.2060   34.0070 C   0  0  0  0  0  0  0  0  0  0  0  0
   37.4440   27.2850   35.3060 N   0  0  0  0  0  0  0  0  0  0  0  0
   38.7330   27.2820   35.6920 C   0  0  0  0  0  0  0  0  0  0  0  0
   39.7400   27.1990   34.7990 N   0  0  0  0  0  0  0  0  0  0  0  0
   39.4320   27.1180   33.4900 C   0  0  0  0  0  0  0  0  0  0  0  0
   45.6490   24.6770   33.0080 C   0  0  0  0  0  0  0  0  0  0  0  0
   43.5600   23.4360   33.0150 C   0  0  0  0  0  0  0  0  0  0  0  0
   44.2160   24.6640   35.0410 C   0  0  0  0  0  0  0  0  0  0  0  0
   43.4650   23.5950   35.6770 C   0  0  0  0  0  0  0  0  0  0  0  0
   44.1110   22.4550   36.1750 C   0  0  0  0  0  0  0  0  0  0  0  0
   43.2080   21.5730   36.6960 N   0  0  0  0  0  0  0  0  0  0  0  0
   41.9560   22.0930   36.5640 C   0  0  0  0  0  0  0  0  0  0  0  0
   40.6820   21.6870   36.8960 C   0  0  0  0  0  0  0  0  0  0  0  0
   39.5830   22.4800   36.6240 C   0  0  0  0  0  0  0  0  0  0  0  0
   39.7620   23.7200   35.9990 C   0  0  0  0  0  0  0  0  0  0  0  0
   41.0500   24.0930   35.6820 C   0  0  0  0  0  0  0  0  0  0  0  0
   42.1520   23.3090   35.9470 C   0  0  0  0  0  0  0  0  0  0  0  0
   41.7810   29.0016   31.5095 H   0  0  0  0  0  0  0  0  0  0  0  0
   44.3230   28.8722   31.6562 H   0  0  0  0  0  0  0  0  0  0  0  0
   39.6107   26.8990   30.2459 H   0  0  0  0  0  0  0  0  0  0  0  0
   36.0171   27.2090   33.6953 H   0  0  0  0  0  0  0  0  0  0  0  0
   38.9715   27.3490   36.7637 H   0  0  0  0  0  0  0  0  0  0  0  0
   46.3552   24.6706   33.8514 H   0  0  0  0  0  0  0  0  0  0  0  0
   45.8030   23.7774   32.3940 H   0  0  0  0  0  0  0  0  0  0  0  0
   45.8193   25.5736   32.3940 H   0  0  0  0  0  0  0  0  0  0  0  0
   43.2327   22.8104   33.8585 H   0  0  0  0  0  0  0  0  0  0  0  0
   42.6889   23.7085   32.4010 H   0  0  0  0  0  0  0  0  0  0  0  0
   44.2806   22.8759   32.4010 H   0  0  0  0  0  0  0  0  0  0  0  0
   45.2614   24.5793   35.3725 H   0  0  0  0  0  0  0  0  0  0  0  0
   43.7101   25.5921   35.3453 H   0  0  0  0  0  0  0  0  0  0  0  0
   45.1987   22.2928   36.1495 H   0  0  0  0  0  0  0  0  0  0  0  0
   43.4365   20.6625   37.1199 H   0  0  0  0  0  0  0  0  0  0  0  0
   40.5367   20.7134   37.3868 H   0  0  0  0  0  0  0  0  0  0  0  0
   38.5735   22.1388   36.8970 H   0  0  0  0  0  0  0  0  0  0  0  0
   38.9063   24.3721   35.7696 H   0  0  0  0  0  0  0  0  0  0  0  0
   41.2066   25.0657   35.1927 H   0  0  0  0  0  0  0  0  0  0  0  0
  1 19  1  0
  2  7  2  0
  3  4  2  0
  3  2  1  0
  4  5  1  0
  5  6  2  0
  6  1  1  0
  7  6  1  0
  8  2  1  0
  8 16  1  0
  9 10  2  0
  9  8  1  0
 10 11  1  0
 11 16  2  0
 11 12  1  0
 12 13  2  0
 13 14  1  0
 15 14  2  0
 16 15  1  0
 17  1  1  0
 18  1  1  0
 19 20  1  0
 20 28  1  0
 20 21  2  0
 21 22  1  0
 23 22  1  0
 23 24  2  0
 25 24  1  0
 26 25  2  0
 27 28  2  0
 27 26  1  0
 28 23  1  0
  3 29  1  0
  4 30  1  0
  9 31  1  0
 12 32  1  0
 14 33  1  0
 17 34  1  0
 17 35  1  0
 17 36  1  0
 18 37  1  0
 18 38  1  0
 18 39  1  0
 19 40  1  0
 19 41  1  0
 21 42  1  0
 22 43  1  0
 24 44  1  0
 25 45  1  0
 26 46  1  0
 27 47  1  0
M  ISO  8  29  14  30  14  31  14  32  14  33  14  34   8  35   8  36   8
M  ISO  8  37   8  38   8  39   8  40   8  41   8  42  14  43   9  44  14
M  ISO  3  45  14  46  14  47  14
M  END
>  <minimizedAffinity>  (1) 
-4.64323854

>  <minimizedRMSD>  (1) 
6.34376907

$$$$
