
     RDKit          3D

 34 36  0  0  0  0  0  0  0  0999 V2000
   41.0500   23.6710   35.8970 C   0  0  0  0  0  0  0  0  0  0  0  0
   42.0680   23.0430   36.6620 C   0  0  0  0  0  0  0  0  0  0  0  0
   43.3820   23.4750   36.4170 C   0  0  0  0  0  0  0  0  0  0  0  0
   43.5820   24.4430   35.4860 N   0  0  0  0  0  0  0  0  0  0  0  0
   42.5830   25.0070   34.7880 C   0  0  0  0  0  0  0  0  0  0  0  0
   41.3110   24.6170   34.9960 N   0  0  0  0  0  0  0  0  0  0  0  0
   39.6960   23.2630   36.1120 N   0  0  0  0  0  0  0  0  0  0  0  0
   38.8850   23.4510   37.1710 C   0  0  0  0  0  0  0  0  0  0  0  0
   37.6920   22.8810   36.9070 N   0  0  0  0  0  0  0  0  0  0  0  0
   37.7750   22.3330   35.6600 C   0  0  0  0  0  0  0  0  0  0  0  0
   36.8250   21.6490   34.9510 C   0  0  0  0  0  0  0  0  0  0  0  0
   37.2110   21.2240   33.7220 N   0  0  0  0  0  0  0  0  0  0  0  0
   38.4380   21.4560   33.2290 C   0  0  0  0  0  0  0  0  0  0  0  0
   39.3570   22.1280   33.9380 N   0  0  0  0  0  0  0  0  0  0  0  0
   39.0390   22.5740   35.1570 C   0  0  0  0  0  0  0  0  0  0  0  0
   42.8760   26.0590   33.7860 C   0  0  0  0  0  0  0  0  0  0  0  0
   41.8360   27.1530   33.8670 C   0  0  0  0  0  0  0  0  0  0  0  0
   42.7700   25.4520   32.3800 C   0  0  0  0  0  0  0  0  0  0  0  0
   44.2740   26.6190   33.9180 C   0  0  0  0  0  0  0  0  0  0  0  0
   44.4180   27.2470   35.1590 O   0  0  0  0  0  0  0  0  0  0  0  0
   41.8408   22.2631   37.4038 H   0  0  0  0  0  0  0  0  0  0  0  0
   44.2293   23.0392   36.9666 H   0  0  0  0  0  0  0  0  0  0  0  0
   39.1517   23.9813   38.0971 H   0  0  0  0  0  0  0  0  0  0  0  0
   35.8181   21.4571   35.3501 H   0  0  0  0  0  0  0  0  0  0  0  0
   38.6945   21.0880   32.2246 H   0  0  0  0  0  0  0  0  0  0  0  0
   41.6220   27.3781   34.9222 H   0  0  0  0  0  0  0  0  0  0  0  0
   42.2155   28.0573   33.3688 H   0  0  0  0  0  0  0  0  0  0  0  0
   40.9136   26.8197   33.3688 H   0  0  0  0  0  0  0  0  0  0  0  0
   42.5813   24.3713   32.4605 H   0  0  0  0  0  0  0  0  0  0  0  0
   41.9416   25.9294   31.8360 H   0  0  0  0  0  0  0  0  0  0  0  0
   43.7111   25.6204   31.8360 H   0  0  0  0  0  0  0  0  0  0  0  0
   45.0044   25.8006   33.8361 H   0  0  0  0  0  0  0  0  0  0  0  0
   44.4481   27.3530   33.1174 H   0  0  0  0  0  0  0  0  0  0  0  0
   44.2668   26.5878   35.8820 H   0  0  0  0  0  0  0  0  0  0  0  0
  1  7  1  0
  1  2  2  0
  3  2  1  0
  4  3  2  0
  5  6  2  0
  5  4  1  0
  6  1  1  0
  7  8  1  0
  9  8  2  0
 10  9  1  0
 11 10  2  0
 12 11  1  0
 13 12  2  0
 13 14  1  0
 14 15  2  0
 15 10  1  0
 15  7  1  0
 16 17  1  0
 16 19  1  0
 16  5  1  0
 18 16  1  0
 19 20  1  0
  2 21  1  0
  3 22  1  0
  8 23  1  0
 11 24  1  0
 13 25  1  0
 17 26  1  0
 17 27  1  0
 17 28  1  0
 18 29  1  0
 18 30  1  0
 18 31  1  0
 19 32  1  0
 19 33  1  0
 20 34  1  0
M  ISO  8  21  14  22  14  23  14  24  14  25  14  26   8  27   8  28   8
M  ISO  6  29   8  30   8  31   8  32   8  33   8  34   3
M  END
>  <minimizedAffinity>  (1) 
-4.11876249

>  <minimizedRMSD>  (1) 
0.194278896

$$$$
