
     RDKit          3D

 35 37  0  0  0  0  0  0  0  0999 V2000
   41.0140   23.6860   35.8890 C   0  0  0  0  0  0  0  0  0  0  0  0
   42.0420   23.0900   36.6470 C   0  0  0  0  0  0  0  0  0  0  0  0
   43.3460   23.5400   36.3770 C   0  0  0  0  0  0  0  0  0  0  0  0
   43.5250   24.5000   35.4250 N   0  0  0  0  0  0  0  0  0  0  0  0
   42.5050   25.0360   34.7280 C   0  0  0  0  0  0  0  0  0  0  0  0
   41.2350   24.6260   34.9620 N   0  0  0  0  0  0  0  0  0  0  0  0
   39.6670   23.2660   36.1210 N   0  0  0  0  0  0  0  0  0  0  0  0
   38.8610   23.4320   37.1780 C   0  0  0  0  0  0  0  0  0  0  0  0
   37.6740   22.8530   36.9220 N   0  0  0  0  0  0  0  0  0  0  0  0
   37.7450   22.3140   35.6740 C   0  0  0  0  0  0  0  0  0  0  0  0
   36.7900   21.6240   34.9730 C   0  0  0  0  0  0  0  0  0  0  0  0
   37.1640   21.2130   33.7450 N   0  0  0  0  0  0  0  0  0  0  0  0
   38.3890   21.4570   33.2320 C   0  0  0  0  0  0  0  0  0  0  0  0
   39.3100   22.1350   33.9350 N   0  0  0  0  0  0  0  0  0  0  0  0
   38.9980   22.5690   35.1580 C   0  0  0  0  0  0  0  0  0  0  0  0
   42.7690   26.0730   33.7080 C   0  0  0  0  0  0  0  0  0  0  0  0
   41.7680   27.1920   33.8360 C   0  0  0  0  0  0  0  0  0  0  0  0
   42.5900   25.4710   32.3240 C   0  0  0  0  0  0  0  0  0  0  0  0
   44.1950   26.5980   33.7860 C   0  0  0  0  0  0  0  0  0  0  0  0
   44.3490   27.6010   34.8090 N   0  0  0  0  0  0  0  0  0  0  0  0
   41.8362   22.3191   37.4043 H   0  0  0  0  0  0  0  0  0  0  0  0
   44.2061   23.1256   36.9234 H   0  0  0  0  0  0  0  0  0  0  0  0
   39.1272   23.9577   38.1068 H   0  0  0  0  0  0  0  0  0  0  0  0
   35.7900   21.4203   35.3834 H   0  0  0  0  0  0  0  0  0  0  0  0
   38.6359   21.0948   32.2231 H   0  0  0  0  0  0  0  0  0  0  0  0
   41.5832   27.3986   34.9005 H   0  0  0  0  0  0  0  0  0  0  0  0
   42.1644   28.0959   33.3505 H   0  0  0  0  0  0  0  0  0  0  0  0
   40.8257   26.8983   33.3505 H   0  0  0  0  0  0  0  0  0  0  0  0
   42.2777   24.4205   32.4187 H   0  0  0  0  0  0  0  0  0  0  0  0
   41.8205   26.0344   31.7758 H   0  0  0  0  0  0  0  0  0  0  0  0
   43.5423   25.5224   31.7758 H   0  0  0  0  0  0  0  0  0  0  0  0
   44.8702   25.7585   34.0081 H   0  0  0  0  0  0  0  0  0  0  0  0
   44.4384   27.0613   32.8185 H   0  0  0  0  0  0  0  0  0  0  0  0
   44.2811   27.1585   35.7366 H   0  0  0  0  0  0  0  0  0  0  0  0
   45.2693   28.0531   34.7108 H   0  0  0  0  0  0  0  0  0  0  0  0
  1  7  1  0
  1  2  2  0
  3  2  1  0
  4  3  2  0
  5  6  2  0
  5  4  1  0
  6  1  1  0
  7  8  1  0
  9  8  2  0
 10  9  1  0
 11 10  2  0
 12 11  1  0
 13 12  2  0
 13 14  1  0
 14 15  2  0
 15 10  1  0
 15  7  1  0
 16 19  1  0
 16 17  1  0
 16  5  1  0
 18 16  1  0
 19 20  1  0
  2 21  1  0
  3 22  1  0
  8 23  1  0
 11 24  1  0
 13 25  1  0
 17 26  1  0
 17 27  1  0
 17 28  1  0
 18 29  1  0
 18 30  1  0
 18 31  1  0
 19 32  1  0
 19 33  1  0
 20 34  1  0
 20 35  1  0
M  ISO  8  21  14  22  14  23  14  24  14  25  14  26   8  27   8  28   8
M  ISO  7  29   8  30   8  31   8  32   8  33   8  34   5  35   5
M  END
>  <minimizedAffinity>  (1) 
-4.26687908

>  <minimizedRMSD>  (1) 
0.282813221

$$$$
