
     RDKit          3D

 38 41  0  0  0  0  0  0  0  0999 V2000
   41.0320   22.5950   35.9700 C   0  0  0  0  0  0  0  0  0  0  0  0
   41.7150   21.5390   36.6160 C   0  0  0  0  0  0  0  0  0  0  0  0
   43.1040   21.6900   36.7230 C   0  0  0  0  0  0  0  0  0  0  0  0
   43.6890   22.8140   36.2130 N   0  0  0  0  0  0  0  0  0  0  0  0
   42.9820   23.7770   35.6120 C   0  0  0  0  0  0  0  0  0  0  0  0
   41.6490   23.6770   35.4850 N   0  0  0  0  0  0  0  0  0  0  0  0
   39.6020   22.4960   35.8290 N   0  0  0  0  0  0  0  0  0  0  0  0
   38.6110   22.8160   36.6770 C   0  0  0  0  0  0  0  0  0  0  0  0
   37.4290   22.5340   36.0750 N   0  0  0  0  0  0  0  0  0  0  0  0
   37.7040   22.0350   34.8450 C   0  0  0  0  0  0  0  0  0  0  0  0
   36.8430   21.6070   33.8660 C   0  0  0  0  0  0  0  0  0  0  0  0
   37.4100   21.1590   32.7370 N   0  0  0  0  0  0  0  0  0  0  0  0
   38.7510   21.1280   32.5650 C   0  0  0  0  0  0  0  0  0  0  0  0
   39.5960   21.5460   33.5230 N   0  0  0  0  0  0  0  0  0  0  0  0
   39.0770   22.0040   34.6720 C   0  0  0  0  0  0  0  0  0  0  0  0
   43.6890   24.9710   35.0820 C   0  0  0  0  0  0  0  0  0  0  0  0
   42.6720   25.9460   34.5040 C   0  0  0  0  0  0  0  0  0  0  0  0
   44.5860   24.5580   33.9240 C   0  0  0  0  0  0  0  0  0  0  0  0
   44.5620   25.6510   36.1130 C   0  0  0  0  0  0  0  0  0  0  0  0
   45.5170   26.5310   35.3850 C   0  0  0  0  0  0  0  0  0  0  0  0
   46.8600   26.4080   35.1790 N   0  0  0  0  0  0  0  0  0  0  0  0
   47.2860   27.4210   34.4820 O   0  0  0  0  0  0  0  0  0  0  0  0
   46.2940   28.2310   34.2010 C   0  0  0  0  0  0  0  0  0  0  0  0
   45.1940   27.6970   34.7510 N   0  0  0  0  0  0  0  0  0  0  0  0
   41.1900   20.6560   37.0092 H   0  0  0  0  0  0  0  0  0  0  0  0
   43.7140   20.9151   37.2103 H   0  0  0  0  0  0  0  0  0  0  0  0
   38.7365   23.2348   37.6864 H   0  0  0  0  0  0  0  0  0  0  0  0
   35.7514   21.6302   33.9998 H   0  0  0  0  0  0  0  0  0  0  0  0
   39.1609   20.7509   31.6164 H   0  0  0  0  0  0  0  0  0  0  0  0
   42.1430   26.4532   35.3243 H   0  0  0  0  0  0  0  0  0  0  0  0
   43.1908   26.6929   33.8851 H   0  0  0  0  0  0  0  0  0  0  0  0
   41.9476   25.3962   33.8851 H   0  0  0  0  0  0  0  0  0  0  0  0
   45.5189   24.1285   34.3179 H   0  0  0  0  0  0  0  0  0  0  0  0
   44.0681   23.8077   33.3085 H   0  0  0  0  0  0  0  0  0  0  0  0
   44.8193   25.4393   33.3085 H   0  0  0  0  0  0  0  0  0  0  0  0
   43.9406   26.2530   36.7923 H   0  0  0  0  0  0  0  0  0  0  0  0
   45.1044   24.9049   36.7122 H   0  0  0  0  0  0  0  0  0  0  0  0
   46.3528   29.1668   33.6258 H   0  0  0  0  0  0  0  0  0  0  0  0
  1  2  2  0
  2  3  1  0
  4  3  2  0
  5  4  1  0
  6  5  2  0
  6  1  1  0
  7  1  1  0
  7  8  1  0
  9  8  2  0
 10  9  1  0
 11 10  2  0
 12 11  1  0
 13 12  2  0
 13 14  1  0
 14 15  2  0
 15 10  1  0
 15  7  1  0
 16  5  1  0
 16 19  1  0
 17 16  1  0
 18 16  1  0
 20 19  1  0
 21 20  2  0
 22 21  1  0
 23 22  1  0
 23 24  2  0
 24 20  1  0
  2 25  1  0
  3 26  1  0
  8 27  1  0
 11 28  1  0
 13 29  1  0
 17 30  1  0
 17 31  1  0
 17 32  1  0
 18 33  1  0
 18 34  1  0
 18 35  1  0
 19 36  1  0
 19 37  1  0
 23 38  1  0
M  ISO  8  25  14  26  14  27  14  28  14  29  14  30   8  31   8  32   8
M  ISO  6  33   8  34   8  35   8  36   8  37   8  38  14
M  END
>  <minimizedAffinity>  (1) 
-4.16858244

>  <minimizedRMSD>  (1) 
1.98647463

$$$$
