
     RDKit          3D

 46 49  0  0  0  0  0  0  0  0999 V2000
   44.0890   24.5590   35.0690 C   0  0  0  0  0  0  0  0  0  0  0  0
   41.2450   22.4060   35.9570 C   0  0  0  0  0  0  0  0  0  0  0  0
   41.8430   21.3030   36.5830 C   0  0  0  0  0  0  0  0  0  0  0  0
   43.2390   21.3110   36.6940 C   0  0  0  0  0  0  0  0  0  0  0  0
   43.9090   22.3890   36.1870 N   0  0  0  0  0  0  0  0  0  0  0  0
   43.2930   23.4260   35.5940 C   0  0  0  0  0  0  0  0  0  0  0  0
   41.9410   23.4400   35.4750 N   0  0  0  0  0  0  0  0  0  0  0  0
   39.8120   22.4440   35.8190 N   0  0  0  0  0  0  0  0  0  0  0  0
   38.8660   22.8660   36.6930 C   0  0  0  0  0  0  0  0  0  0  0  0
   37.6550   22.7060   36.1110 N   0  0  0  0  0  0  0  0  0  0  0  0
   37.8670   22.1820   34.8720 C   0  0  0  0  0  0  0  0  0  0  0  0
   36.9700   21.8380   33.8940 C   0  0  0  0  0  0  0  0  0  0  0  0
   37.4730   21.3390   32.7630 N   0  0  0  0  0  0  0  0  0  0  0  0
   38.8050   21.1750   32.5790 C   0  0  0  0  0  0  0  0  0  0  0  0
   39.6900   21.5100   33.5320 N   0  0  0  0  0  0  0  0  0  0  0  0
   39.2260   22.0130   34.6790 C   0  0  0  0  0  0  0  0  0  0  0  0
   43.3400   25.2470   33.9590 C   0  0  0  0  0  0  0  0  0  0  0  0
   45.3820   24.0020   34.4500 C   0  0  0  0  0  0  0  0  0  0  0  0
   44.5120   25.5220   36.1510 C   0  0  0  0  0  0  0  0  0  0  0  0
   47.3020   28.3030   34.4170 C   0  0  0  0  0  0  0  0  0  0  0  0
   45.9430   28.3910   34.1810 C   0  0  0  0  0  0  0  0  0  0  0  0
   45.0600   27.4740   34.7590 C   0  0  0  0  0  0  0  0  0  0  0  0
   45.5120   26.4430   35.5880 C   0  0  0  0  0  0  0  0  0  0  0  0
   46.8840   26.3780   35.8070 C   0  0  0  0  0  0  0  0  0  0  0  0
   47.7480   27.2850   35.2340 C   0  0  0  0  0  0  0  0  0  0  0  0
   48.2890   29.5040   33.6400 S   0  0  0  0  0  0  0  0  0  0  0  0
   49.0840   30.2420   34.6720 O   0  0  0  0  0  0  0  0  0  0  0  0
   47.3640   30.5120   32.9710 O   0  0  0  0  0  0  0  0  0  0  0  0
   41.2415   20.4674   36.9702 H   0  0  0  0  0  0  0  0  0  0  0  0
   43.7771   20.4793   37.1722 H   0  0  0  0  0  0  0  0  0  0  0  0
   39.0505   23.2684   37.7000 H   0  0  0  0  0  0  0  0  0  0  0  0
   35.8867   21.9672   34.0348 H   0  0  0  0  0  0  0  0  0  0  0  0
   39.1697   20.7584   31.6285 H   0  0  0  0  0  0  0  0  0  0  0  0
   42.5944   25.9318   34.3893 H   0  0  0  0  0  0  0  0  0  0  0  0
   44.0467   25.8174   33.3383 H   0  0  0  0  0  0  0  0  0  0  0  0
   42.8316   24.4945   33.3383 H   0  0  0  0  0  0  0  0  0  0  0  0
   46.0736   23.7041   35.2518 H   0  0  0  0  0  0  0  0  0  0  0  0
   45.1433   23.1269   33.8277 H   0  0  0  0  0  0  0  0  0  0  0  0
   45.8539   24.7766   33.8277 H   0  0  0  0  0  0  0  0  0  0  0  0
   43.6393   26.0914   36.5035 H   0  0  0  0  0  0  0  0  0  0  0  0
   44.9416   24.9710   37.0006 H   0  0  0  0  0  0  0  0  0  0  0  0
   45.5528   29.1895   33.5328 H   0  0  0  0  0  0  0  0  0  0  0  0
   43.9827   27.5660   34.5564 H   0  0  0  0  0  0  0  0  0  0  0  0
   47.2883   25.5843   36.4524 H   0  0  0  0  0  0  0  0  0  0  0  0
   48.8259   27.1948   35.4339 H   0  0  0  0  0  0  0  0  0  0  0  0
   49.1246   28.9026   32.7361 H   0  0  0  0  0  0  0  0  0  0  0  0
  1  6  1  0
  1 19  1  0
  2  3  2  0
  3  4  1  0
  5  4  2  0
  6  5  1  0
  7  6  2  0
  7  2  1  0
  8  2  1  0
  8  9  1  0
 10  9  2  0
 11 10  1  0
 12 11  2  0
 13 12  1  0
 14 13  2  0
 14 15  1  0
 15 16  2  0
 16 11  1  0
 16  8  1  0
 17  1  1  0
 18  1  1  0
 20 25  2  0
 21 20  1  0
 21 22  2  0
 22 23  1  0
 23 24  2  0
 23 19  1  0
 25 24  1  0
 26 20  1  0
 26 27  2  0
 28 26  2  0
  3 29  1  0
  4 30  1  0
  9 31  1  0
 12 32  1  0
 14 33  1  0
 17 34  1  0
 17 35  1  0
 17 36  1  0
 18 37  1  0
 18 38  1  0
 18 39  1  0
 19 40  1  0
 19 41  1  0
 21 42  1  0
 22 43  1  0
 24 44  1  0
 25 45  1  0
 26 46  1  0
M  ISO  8  29  14  30  14  31  14  32  14  33  14  34   8  35   8  36   8
M  ISO  8  37   8  38   8  39   8  40   8  41   8  42  14  43  14  44  14
M  ISO  2  45  14  46  11
M  END
>  <minimizedAffinity>  (1) 
-4.27420092

>  <minimizedRMSD>  (1) 
2.98344707

$$$$
