
     RDKit          3D

 34 36  0  0  0  0  0  0  0  0999 V2000
   40.9720   23.4860   35.8000 C   0  0  0  0  0  0  0  0  0  0  0  0
   41.9080   22.9090   36.6880 C   0  0  0  0  0  0  0  0  0  0  0  0
   43.2350   23.3170   36.5580 C   0  0  0  0  0  0  0  0  0  0  0  0
   43.5470   24.2320   35.6000 N   0  0  0  0  0  0  0  0  0  0  0  0
   42.6180   24.7590   34.7710 C   0  0  0  0  0  0  0  0  0  0  0  0
   41.3290   24.3860   34.8710 N   0  0  0  0  0  0  0  0  0  0  0  0
   39.5990   23.1010   35.8940 N   0  0  0  0  0  0  0  0  0  0  0  0
   38.6920   23.3020   36.8590 C   0  0  0  0  0  0  0  0  0  0  0  0
   37.5220   22.7440   36.4880 N   0  0  0  0  0  0  0  0  0  0  0  0
   37.7240   22.1880   35.2610 C   0  0  0  0  0  0  0  0  0  0  0  0
   36.8340   21.5050   34.4660 C   0  0  0  0  0  0  0  0  0  0  0  0
   37.3150   21.0650   33.2950 N   0  0  0  0  0  0  0  0  0  0  0  0
   38.5960   21.2770   32.9140 C   0  0  0  0  0  0  0  0  0  0  0  0
   39.4640   21.9470   33.6950 N   0  0  0  0  0  0  0  0  0  0  0  0
   39.0310   22.4090   34.8820 C   0  0  0  0  0  0  0  0  0  0  0  0
   43.0210   25.7520   33.7470 C   0  0  0  0  0  0  0  0  0  0  0  0
   42.2920   27.0480   33.9750 C   0  0  0  0  0  0  0  0  0  0  0  0
   42.6100   25.2520   32.3700 C   0  0  0  0  0  0  0  0  0  0  0  0
   44.5230   25.9390   33.6840 C   0  0  0  0  0  0  0  0  0  0  0  0
   45.0920   27.4420   34.5030 S   0  0  0  0  0  0  0  0  0  0  0  0
   41.6038   22.1725   37.4463 H   0  0  0  0  0  0  0  0  0  0  0  0
   44.0146   22.9072   37.2170 H   0  0  0  0  0  0  0  0  0  0  0  0
   38.8728   23.8368   37.8031 H   0  0  0  0  0  0  0  0  0  0  0  0
   35.7919   21.3306   34.7721 H   0  0  0  0  0  0  0  0  0  0  0  0
   38.9367   20.8921   31.9415 H   0  0  0  0  0  0  0  0  0  0  0  0
   42.1914   27.2269   35.0557 H   0  0  0  0  0  0  0  0  0  0  0  0
   42.8586   27.8727   33.5180 H   0  0  0  0  0  0  0  0  0  0  0  0
   41.2930   26.9921   33.5180 H   0  0  0  0  0  0  0  0  0  0  0  0
   41.9150   24.4064   32.4793 H   0  0  0  0  0  0  0  0  0  0  0  0
   42.1151   26.0644   31.8176 H   0  0  0  0  0  0  0  0  0  0  0  0
   43.5028   24.9237   31.8176 H   0  0  0  0  0  0  0  0  0  0  0  0
   45.0026   25.0753   34.1677 H   0  0  0  0  0  0  0  0  0  0  0  0
   44.7956   26.0246   32.6218 H   0  0  0  0  0  0  0  0  0  0  0  0
   45.0284   27.2740   35.8612 H   0  0  0  0  0  0  0  0  0  0  0  0
  1  7  1  0
  1  2  2  0
  3  2  1  0
  4  3  2  0
  5  6  2  0
  5  4  1  0
  6  1  1  0
  7  8  1  0
  9  8  2  0
 10  9  1  0
 11 10  2  0
 12 11  1  0
 13 12  2  0
 13 14  1  0
 14 15  2  0
 15 10  1  0
 15  7  1  0
 16 17  1  0
 16  5  1  0
 18 16  1  0
 19 16  1  0
 19 20  1  0
  2 21  1  0
  3 22  1  0
  8 23  1  0
 11 24  1  0
 13 25  1  0
 17 26  1  0
 17 27  1  0
 17 28  1  0
 18 29  1  0
 18 30  1  0
 18 31  1  0
 19 32  1  0
 19 33  1  0
 20 34  1  0
M  ISO  8  21  14  22  14  23  14  24  14  25  14  26   8  27   8  28   8
M  ISO  6  29   8  30   8  31   8  32   8  33   8  34  11
M  END
>  <minimizedAffinity>  (1) 
-3.77094173

>  <minimizedRMSD>  (1) 
0.579145372

$$$$
