
     RDKit          3D

 31 33  0  0  0  0  0  0  0  0999 V2000
   37.3880   22.5170   32.6300 C   0  0  0  0  0  0  0  0  0  0  0  0
   38.2050   21.3990   32.3750 C   0  0  0  0  0  0  0  0  0  0  0  0
   39.4210   21.3460   33.0370 C   0  0  0  0  0  0  0  0  0  0  0  0
   39.7620   22.3620   33.8880 N   0  0  0  0  0  0  0  0  0  0  0  0
   38.9550   23.4100   34.1050 C   0  0  0  0  0  0  0  0  0  0  0  0
   37.7570   23.5000   33.4780 N   0  0  0  0  0  0  0  0  0  0  0  0
   37.7130   20.4580   31.4840 N   0  0  0  0  0  0  0  0  0  0  0  0
   36.8970   19.5030   31.9890 C   0  0  0  0  0  0  0  0  0  0  0  0
   36.4000   18.5610   31.1140 C   0  0  0  0  0  0  0  0  0  0  0  0
   36.7500   18.6330   29.7920 C   0  0  0  0  0  0  0  0  0  0  0  0
   36.2560   17.6840   28.8840 N   0  0  0  0  0  0  0  0  0  0  0  0
   37.5600   19.5970   29.3440 N   0  0  0  0  0  0  0  0  0  0  0  0
   38.0550   20.5290   30.1920 C   0  0  0  0  0  0  0  0  0  0  0  0
   38.8190   21.4230   29.7200 O   0  0  0  0  0  0  0  0  0  0  0  0
   39.4090   24.4700   35.0490 C   0  0  0  0  0  0  0  0  0  0  0  0
   38.9710   24.1590   36.4450 C   0  0  0  0  0  0  0  0  0  0  0  0
   37.9530   24.7910   37.1350 C   0  0  0  0  0  0  0  0  0  0  0  0
   37.8790   24.2050   38.3770 C   0  0  0  0  0  0  0  0  0  0  0  0
   38.8620   23.2330   38.3970 C   0  0  0  0  0  0  0  0  0  0  0  0
   39.5010   23.2240   37.2310 O   0  0  0  0  0  0  0  0  0  0  0  0
   36.4159   22.5918   32.1207 H   0  0  0  0  0  0  0  0  0  0  0  0
   40.1038   20.4979   32.8805 H   0  0  0  0  0  0  0  0  0  0  0  0
   36.6401   19.4797   33.0583 H   0  0  0  0  0  0  0  0  0  0  0  0
   35.7324   17.7635   31.4722 H   0  0  0  0  0  0  0  0  0  0  0  0
   36.5187   17.7373   27.8895 H   0  0  0  0  0  0  0  0  0  0  0  0
   35.6307   16.9341   29.2120 H   0  0  0  0  0  0  0  0  0  0  0  0
   40.5069   24.5324   35.0207 H   0  0  0  0  0  0  0  0  0  0  0  0
   38.9637   25.4286   34.7444 H   0  0  0  0  0  0  0  0  0  0  0  0
   37.3206   25.6094   36.7606 H   0  0  0  0  0  0  0  0  0  0  0  0
   37.1807   24.4579   39.1884 H   0  0  0  0  0  0  0  0  0  0  0  0
   39.0816   22.5695   39.2464 H   0  0  0  0  0  0  0  0  0  0  0  0
  1  6  2  0
  2  1  1  0
  2  3  2  0
  3  4  1  0
  4  5  2  0
  5 15  1  0
  6  5  1  0
  7  8  1  0
  7  2  1  0
  9  8  2  0
 10  9  1  0
 11 10  1  0
 12 10  2  0
 12 13  1  0
 13  7  1  0
 14 13  2  0
 15 16  1  0
 16 17  2  0
 16 20  1  0
 17 18  1  0
 18 19  2  0
 20 19  1  0
  1 21  1  0
  3 22  1  0
  8 23  1  0
  9 24  1  0
 11 25  1  0
 11 26  1  0
 15 27  1  0
 15 28  1  0
 17 29  1  0
 18 30  1  0
 19 31  1  0
M  ISO  8  21  14  22  14  23  14  24  14  27   8  28   8  29  14  30  14
M  ISO  1  31  14
M  END
>  <minimizedAffinity>  (1) 
-4.37753963

>  <minimizedRMSD>  (1) 
3.76176548

$$$$
