
     RDKit          3D

 43 46  0  0  0  0  0  0  0  0999 V2000
   37.2670   21.5960   33.2620 C   0  0  0  0  0  0  0  0  0  0  0  0
   39.5910   23.4480   35.4350 C   0  0  0  0  0  0  0  0  0  0  0  0
   38.9470   23.4510   36.6880 C   0  0  0  0  0  0  0  0  0  0  0  0
   37.6970   22.8000   36.7570 C   0  0  0  0  0  0  0  0  0  0  0  0
   37.2060   22.2210   35.6230 N   0  0  0  0  0  0  0  0  0  0  0  0
   37.8670   22.2480   34.4460 C   0  0  0  0  0  0  0  0  0  0  0  0
   39.0560   22.8570   34.3440 N   0  0  0  0  0  0  0  0  0  0  0  0
   40.8580   24.0950   35.3140 N   0  0  0  0  0  0  0  0  0  0  0  0
   42.0620   23.7450   35.7760 C   0  0  0  0  0  0  0  0  0  0  0  0
   42.9640   24.6860   35.4030 N   0  0  0  0  0  0  0  0  0  0  0  0
   42.2780   25.6260   34.6980 C   0  0  0  0  0  0  0  0  0  0  0  0
   42.7460   26.7710   34.1110 C   0  0  0  0  0  0  0  0  0  0  0  0
   41.8390   27.5140   33.4770 N   0  0  0  0  0  0  0  0  0  0  0  0
   40.5410   27.1730   33.4090 C   0  0  0  0  0  0  0  0  0  0  0  0
   40.0770   26.0480   33.9830 N   0  0  0  0  0  0  0  0  0  0  0  0
   40.9490   25.2660   34.6340 C   0  0  0  0  0  0  0  0  0  0  0  0
   36.5900   22.6410   32.4000 C   0  0  0  0  0  0  0  0  0  0  0  0
   36.1550   20.6470   33.7270 C   0  0  0  0  0  0  0  0  0  0  0  0
   38.2400   20.7500   32.4850 C   0  0  0  0  0  0  0  0  0  0  0  0
   37.5610   19.6370   31.7570 C   0  0  0  0  0  0  0  0  0  0  0  0
   37.0760   19.7950   30.4630 C   0  0  0  0  0  0  0  0  0  0  0  0
   36.5070   18.6000   30.0660 C   0  0  0  0  0  0  0  0  0  0  0  0
   36.6580   17.7770   31.1010 N   0  0  0  0  0  0  0  0  0  0  0  0
   37.2740   18.3700   32.1010 N   0  0  0  0  0  0  0  0  0  0  0  0
   36.2110   16.3770   31.1660 C   0  0  0  0  0  0  0  0  0  0  0  0
   35.0030   16.2970   31.8540 F   0  0  0  0  0  0  0  0  0  0  0  0
   36.0730   15.8450   29.9110 F   0  0  0  0  0  0  0  0  0  0  0  0
   37.1110   15.6050   31.8650 F   0  0  0  0  0  0  0  0  0  0  0  0
   39.3956   23.9360   37.5675 H   0  0  0  0  0  0  0  0  0  0  0  0
   37.1329   22.7602   37.7005 H   0  0  0  0  0  0  0  0  0  0  0  0
   42.2848   22.8416   36.3627 H   0  0  0  0  0  0  0  0  0  0  0  0
   43.8062   27.0602   34.1597 H   0  0  0  0  0  0  0  0  0  0  0  0
   39.8410   27.8293   32.8712 H   0  0  0  0  0  0  0  0  0  0  0  0
   36.1051   23.3894   33.0440 H   0  0  0  0  0  0  0  0  0  0  0  0
   37.3404   23.1346   31.7649 H   0  0  0  0  0  0  0  0  0  0  0  0
   35.8328   22.1580   31.7649 H   0  0  0  0  0  0  0  0  0  0  0  0
   36.1283   20.6242   34.8264 H   0  0  0  0  0  0  0  0  0  0  0  0
   35.1866   21.0013   33.3440 H   0  0  0  0  0  0  0  0  0  0  0  0
   36.3527   19.6350   33.3440 H   0  0  0  0  0  0  0  0  0  0  0  0
   38.7589   21.3874   31.7539 H   0  0  0  0  0  0  0  0  0  0  0  0
   38.9475   20.3048   33.2000 H   0  0  0  0  0  0  0  0  0  0  0  0
   37.1352   20.7129   29.8597 H   0  0  0  0  0  0  0  0  0  0  0  0
   36.0306   18.3765   29.1000 H   0  0  0  0  0  0  0  0  0  0  0  0
  1 18  1  0
  1  6  1  0
  2  3  2  0
  3  4  1  0
  5  4  2  0
  6  5  1  0
  7  6  2  0
  7  2  1  0
  8  2  1  0
  8  9  1  0
 10  9  2  0
 11 10  1  0
 12 11  2  0
 13 12  1  0
 14 13  2  0
 14 15  1  0
 15 16  2  0
 16 11  1  0
 16  8  1  0
 17  1  1  0
 19  1  1  0
 20 24  2  0
 20 19  1  0
 21 20  1  0
 22 21  2  0
 22 23  1  0
 23 25  1  0
 23 24  1  0
 25 26  1  0
 25 28  1  0
 27 25  1  0
  3 29  1  0
  4 30  1  0
  9 31  1  0
 12 32  1  0
 14 33  1  0
 17 34  1  0
 17 35  1  0
 17 36  1  0
 18 37  1  0
 18 38  1  0
 18 39  1  0
 19 40  1  0
 19 41  1  0
 21 42  1  0
 22 43  1  0
M  ISO  8  29  14  30  14  31  14  32  14  33  14  34   8  35   8  36   8
M  ISO  7  37   8  38   8  39   8  40   8  41   8  42  14  43  14
M  END
>  <minimizedAffinity>  (1) 
-4.69593668

>  <minimizedRMSD>  (1) 
0.831672132

$$$$
