
     RDKit          3D

 47 51  0  0  0  0  0  0  0  0999 V2000
   37.2790   21.5940   33.2570 C   0  0  0  0  0  0  0  0  0  0  0  0
   39.5870   23.4580   35.4380 C   0  0  0  0  0  0  0  0  0  0  0  0
   38.9370   23.4660   36.6850 C   0  0  0  0  0  0  0  0  0  0  0  0
   37.6880   22.8100   36.7410 C   0  0  0  0  0  0  0  0  0  0  0  0
   37.2040   22.2270   35.6140 N   0  0  0  0  0  0  0  0  0  0  0  0
   37.8740   22.2530   34.4440 C   0  0  0  0  0  0  0  0  0  0  0  0
   39.0600   22.8620   34.3450 N   0  0  0  0  0  0  0  0  0  0  0  0
   40.8500   24.1030   35.3190 N   0  0  0  0  0  0  0  0  0  0  0  0
   42.0550   23.7500   35.7890 C   0  0  0  0  0  0  0  0  0  0  0  0
   42.9610   24.6870   35.4170 N   0  0  0  0  0  0  0  0  0  0  0  0
   42.2810   25.6290   34.7040 C   0  0  0  0  0  0  0  0  0  0  0  0
   42.7450   26.7780   34.1100 C   0  0  0  0  0  0  0  0  0  0  0  0
   41.8340   27.5190   33.4690 N   0  0  0  0  0  0  0  0  0  0  0  0
   40.5470   27.1810   33.3980 C   0  0  0  0  0  0  0  0  0  0  0  0
   40.0700   26.0490   33.9800 N   0  0  0  0  0  0  0  0  0  0  0  0
   40.9510   25.2640   34.6410 C   0  0  0  0  0  0  0  0  0  0  0  0
   36.6120   22.6270   32.3800 C   0  0  0  0  0  0  0  0  0  0  0  0
   36.1630   20.6420   33.7220 C   0  0  0  0  0  0  0  0  0  0  0  0
   38.2570   20.7340   32.4940 C   0  0  0  0  0  0  0  0  0  0  0  0
   37.5780   19.6430   31.7410 C   0  0  0  0  0  0  0  0  0  0  0  0
   37.2130   19.7830   30.4030 C   0  0  0  0  0  0  0  0  0  0  0  0
   36.6090   18.6200   29.9830 C   0  0  0  0  0  0  0  0  0  0  0  0
   36.6240   17.8190   31.0590 N   0  0  0  0  0  0  0  0  0  0  0  0
   37.1860   18.3990   32.0970 N   0  0  0  0  0  0  0  0  0  0  0  0
   36.0950   16.4690   31.1130 C   0  0  0  0  0  0  0  0  0  0  0  0
   36.9140   15.4330   31.8970 C   0  0  0  0  0  0  0  0  0  0  0  0
   35.5990   15.9100   32.4030 C   0  0  0  0  0  0  0  0  0  0  0  0
   39.3766   23.9555   37.5666 H   0  0  0  0  0  0  0  0  0  0  0  0
   37.1172   22.7718   37.6806 H   0  0  0  0  0  0  0  0  0  0  0  0
   42.2727   22.8479   36.3796 H   0  0  0  0  0  0  0  0  0  0  0  0
   43.8040   27.0715   34.1587 H   0  0  0  0  0  0  0  0  0  0  0  0
   39.8513   27.8362   32.8533 H   0  0  0  0  0  0  0  0  0  0  0  0
   36.1234   23.3837   33.0114 H   0  0  0  0  0  0  0  0  0  0  0  0
   37.3679   23.1120   31.7449 H   0  0  0  0  0  0  0  0  0  0  0  0
   35.8589   22.1376   31.7449 H   0  0  0  0  0  0  0  0  0  0  0  0
   36.1355   20.6185   34.8214 H   0  0  0  0  0  0  0  0  0  0  0  0
   35.1950   20.9968   33.3385 H   0  0  0  0  0  0  0  0  0  0  0  0
   36.3608   19.6302   33.3385 H   0  0  0  0  0  0  0  0  0  0  0  0
   38.8055   21.3679   31.7818 H   0  0  0  0  0  0  0  0  0  0  0  0
   38.9376   20.2689   33.2223 H   0  0  0  0  0  0  0  0  0  0  0  0
   37.3804   20.6769   29.7841 H   0  0  0  0  0  0  0  0  0  0  0  0
   36.2034   18.3965   28.9852 H   0  0  0  0  0  0  0  0  0  0  0  0
   35.6686   16.5589   30.1030 H   0  0  0  0  0  0  0  0  0  0  0  0
   37.0196   14.4073   31.5138 H   0  0  0  0  0  0  0  0  0  0  0  0
   37.9369   15.3844   32.2986 H   0  0  0  0  0  0  0  0  0  0  0  0
   35.5597   16.5523   33.2951 H   0  0  0  0  0  0  0  0  0  0  0  0
   34.6705   15.4082   32.7131 H   0  0  0  0  0  0  0  0  0  0  0  0
  1 18  1  0
  1  6  1  0
  2  3  2  0
  3  4  1  0
  5  4  2  0
  6  5  1  0
  7  6  2  0
  7  2  1  0
  8  2  1  0
  8  9  1  0
 10  9  2  0
 11 10  1  0
 12 11  2  0
 13 12  1  0
 14 13  2  0
 14 15  1  0
 15 16  2  0
 16 11  1  0
 16  8  1  0
 17  1  1  0
 19  1  1  0
 20 24  2  0
 20 19  1  0
 21 20  1  0
 22 21  2  0
 22 23  1  0
 23 25  1  0
 23 24  1  0
 25 26  1  0
 25 27  1  0
 26 27  1  0
  3 28  1  0
  4 29  1  0
  9 30  1  0
 12 31  1  0
 14 32  1  0
 17 33  1  0
 17 34  1  0
 17 35  1  0
 18 36  1  0
 18 37  1  0
 18 38  1  0
 19 39  1  0
 19 40  1  0
 21 41  1  0
 22 42  1  0
 25 43  1  0
 26 44  1  0
 26 45  1  0
 27 46  1  0
 27 47  1  0
M  ISO  8  28  14  29  14  30  14  31  14  32  14  33   8  34   8  35   8
M  ISO  8  36   8  37   8  38   8  39   8  40   8  41  14  42  14  43  13
M  ISO  4  44  13  45  13  46  13  47  13
M  END
>  <minimizedAffinity>  (1) 
-4.67097425

>  <minimizedRMSD>  (1) 
0.808527708

$$$$
