
     RDKit          3D

 52 55  0  0  0  0  0  0  0  0999 V2000
   37.2710   21.6280   33.2530 C   0  0  0  0  0  0  0  0  0  0  0  0
   39.6010   23.4540   35.4370 C   0  0  0  0  0  0  0  0  0  0  0  0
   38.9500   23.4480   36.6980 C   0  0  0  0  0  0  0  0  0  0  0  0
   37.6980   22.7980   36.7510 C   0  0  0  0  0  0  0  0  0  0  0  0
   37.2010   22.2290   35.6210 N   0  0  0  0  0  0  0  0  0  0  0  0
   37.8720   22.2680   34.4430 C   0  0  0  0  0  0  0  0  0  0  0  0
   39.0570   22.8730   34.3570 N   0  0  0  0  0  0  0  0  0  0  0  0
   40.8640   24.0950   35.3270 N   0  0  0  0  0  0  0  0  0  0  0  0
   42.0670   23.7360   35.8050 C   0  0  0  0  0  0  0  0  0  0  0  0
   42.9780   24.6750   35.4380 N   0  0  0  0  0  0  0  0  0  0  0  0
   42.3050   25.6110   34.7280 C   0  0  0  0  0  0  0  0  0  0  0  0
   42.7760   26.7700   34.1320 C   0  0  0  0  0  0  0  0  0  0  0  0
   41.8670   27.5080   33.4900 N   0  0  0  0  0  0  0  0  0  0  0  0
   40.5730   27.1720   33.4100 C   0  0  0  0  0  0  0  0  0  0  0  0
   40.1060   26.0410   33.9890 N   0  0  0  0  0  0  0  0  0  0  0  0
   40.9750   25.2530   34.6530 C   0  0  0  0  0  0  0  0  0  0  0  0
   36.5470   22.6780   32.4290 C   0  0  0  0  0  0  0  0  0  0  0  0
   36.1980   20.6380   33.7050 C   0  0  0  0  0  0  0  0  0  0  0  0
   38.2540   20.8340   32.4360 C   0  0  0  0  0  0  0  0  0  0  0  0
   37.6110   19.6740   31.7490 C   0  0  0  0  0  0  0  0  0  0  0  0
   37.0180   19.7980   30.4940 C   0  0  0  0  0  0  0  0  0  0  0  0
   36.5150   18.5600   30.1300 C   0  0  0  0  0  0  0  0  0  0  0  0
   36.8110   17.7540   31.1440 N   0  0  0  0  0  0  0  0  0  0  0  0
   37.4520   18.3860   32.1020 N   0  0  0  0  0  0  0  0  0  0  0  0
   36.5090   16.3410   31.2760 C   0  0  0  0  0  0  0  0  0  0  0  0
   37.6690   15.6660   32.0040 C   0  0  0  0  0  0  0  0  0  0  0  0
   36.4450   15.7450   29.9080 C   0  0  0  0  0  0  0  0  0  0  0  0
   35.2730   16.1240   32.1070 C   0  0  0  0  0  0  0  0  0  0  0  0
   39.3959   23.9231   37.5843 H   0  0  0  0  0  0  0  0  0  0  0  0
   37.1326   22.7526   37.6935 H   0  0  0  0  0  0  0  0  0  0  0  0
   42.2792   22.8324   36.3952 H   0  0  0  0  0  0  0  0  0  0  0  0
   43.8346   27.0642   34.1846 H   0  0  0  0  0  0  0  0  0  0  0  0
   39.8775   27.8265   32.8642 H   0  0  0  0  0  0  0  0  0  0  0  0
   36.0527   23.3949   33.1011 H   0  0  0  0  0  0  0  0  0  0  0  0
   37.2713   23.2097   31.7945 H   0  0  0  0  0  0  0  0  0  0  0  0
   35.7925   22.1900   31.7945 H   0  0  0  0  0  0  0  0  0  0  0  0
   36.1660   20.6085   34.8041 H   0  0  0  0  0  0  0  0  0  0  0  0
   35.2188   20.9566   33.3181 H   0  0  0  0  0  0  0  0  0  0  0  0
   36.4369   19.6364   33.3181 H   0  0  0  0  0  0  0  0  0  0  0  0
   38.6976   21.4941   31.6761 H   0  0  0  0  0  0  0  0  0  0  0  0
   39.0196   20.4389   33.1199 H   0  0  0  0  0  0  0  0  0  0  0  0
   36.9596   20.7195   29.8961 H   0  0  0  0  0  0  0  0  0  0  0  0
   35.9849   18.3001   29.2018 H   0  0  0  0  0  0  0  0  0  0  0  0
   37.5202   15.7526   33.0904 H   0  0  0  0  0  0  0  0  0  0  0  0
   37.7096   14.6033   31.7230 H   0  0  0  0  0  0  0  0  0  0  0  0
   38.6130   16.1558   31.7230 H   0  0  0  0  0  0  0  0  0  0  0  0
   36.3279   14.6542   29.9884 H   0  0  0  0  0  0  0  0  0  0  0  0
   35.5870   16.1668   29.3640 H   0  0  0  0  0  0  0  0  0  0  0  0
   37.3730   15.9750   29.3640 H   0  0  0  0  0  0  0  0  0  0  0  0
   35.5359   16.1702   33.1741 H   0  0  0  0  0  0  0  0  0  0  0  0
   34.5346   16.9062   31.8771 H   0  0  0  0  0  0  0  0  0  0  0  0
   34.8452   15.1370   31.8771 H   0  0  0  0  0  0  0  0  0  0  0  0
  1 18  1  0
  1  6  1  0
  2  3  2  0
  3  4  1  0
  5  4  2  0
  6  5  1  0
  7  6  2  0
  7  2  1  0
  8  2  1  0
  8  9  1  0
 10  9  2  0
 11 10  1  0
 12 11  2  0
 13 12  1  0
 14 13  2  0
 14 15  1  0
 15 16  2  0
 16 11  1  0
 16  8  1  0
 17  1  1  0
 19  1  1  0
 20 24  2  0
 20 19  1  0
 21 20  1  0
 22 21  2  0
 22 23  1  0
 23 25  1  0
 23 24  1  0
 25 26  1  0
 25 28  1  0
 27 25  1  0
  3 29  1  0
  4 30  1  0
  9 31  1  0
 12 32  1  0
 14 33  1  0
 17 34  1  0
 17 35  1  0
 17 36  1  0
 18 37  1  0
 18 38  1  0
 18 39  1  0
 19 40  1  0
 19 41  1  0
 21 42  1  0
 22 43  1  0
 26 44  1  0
 26 45  1  0
 26 46  1  0
 27 47  1  0
 27 48  1  0
 27 49  1  0
 28 50  1  0
 28 51  1  0
 28 52  1  0
M  ISO  8  29  14  30  14  31  14  32  14  33  14  34   8  35   8  36   8
M  ISO  8  37   8  38   8  39   8  40   8  41   8  42  14  43  14  44   8
M  ISO  8  45   8  46   8  47   8  48   8  49   8  50   8  51   8  52   8
M  END
>  <minimizedAffinity>  (1) 
-4.73831701

>  <minimizedRMSD>  (1) 
0.955850124

$$$$
