
     RDKit          3D

 55 59  0  0  0  0  0  0  0  0999 V2000
   37.2720   21.6050   33.2680 C   0  0  0  0  0  0  0  0  0  0  0  0
   39.6020   23.4570   35.4510 C   0  0  0  0  0  0  0  0  0  0  0  0
   38.9580   23.4600   36.7000 C   0  0  0  0  0  0  0  0  0  0  0  0
   37.7120   22.8110   36.7630 C   0  0  0  0  0  0  0  0  0  0  0  0
   37.2190   22.2330   35.6270 N   0  0  0  0  0  0  0  0  0  0  0  0
   37.8750   22.2560   34.4510 C   0  0  0  0  0  0  0  0  0  0  0  0
   39.0660   22.8660   34.3540 N   0  0  0  0  0  0  0  0  0  0  0  0
   40.8720   24.1000   35.3260 N   0  0  0  0  0  0  0  0  0  0  0  0
   42.0780   23.7590   35.7820 C   0  0  0  0  0  0  0  0  0  0  0  0
   42.9800   24.6870   35.4100 N   0  0  0  0  0  0  0  0  0  0  0  0
   42.3130   25.6220   34.7080 C   0  0  0  0  0  0  0  0  0  0  0  0
   42.7690   26.7780   34.1060 C   0  0  0  0  0  0  0  0  0  0  0  0
   41.8570   27.5190   33.4710 N   0  0  0  0  0  0  0  0  0  0  0  0
   40.5560   27.1780   33.4070 C   0  0  0  0  0  0  0  0  0  0  0  0
   40.0990   26.0520   33.9910 N   0  0  0  0  0  0  0  0  0  0  0  0
   40.9790   25.2630   34.6480 C   0  0  0  0  0  0  0  0  0  0  0  0
   36.5920   22.6530   32.4050 C   0  0  0  0  0  0  0  0  0  0  0  0
   36.1670   20.6540   33.7270 C   0  0  0  0  0  0  0  0  0  0  0  0
   38.2540   20.7670   32.4940 C   0  0  0  0  0  0  0  0  0  0  0  0
   37.5760   19.6800   31.7220 C   0  0  0  0  0  0  0  0  0  0  0  0
   37.1120   19.8640   30.4270 C   0  0  0  0  0  0  0  0  0  0  0  0
   36.5380   18.6830   29.9910 C   0  0  0  0  0  0  0  0  0  0  0  0
   36.6690   17.8310   31.0170 N   0  0  0  0  0  0  0  0  0  0  0  0
   37.2770   18.4040   32.0430 N   0  0  0  0  0  0  0  0  0  0  0  0
   35.9110   13.8890   32.2250 N   0  0  0  0  0  0  0  0  0  0  0  0
   34.8480   14.8500   32.3550 C   0  0  0  0  0  0  0  0  0  0  0  0
   35.4580   16.2370   32.3270 C   0  0  0  0  0  0  0  0  0  0  0  0
   36.2150   16.4530   31.0400 C   0  0  0  0  0  0  0  0  0  0  0  0
   37.3580   15.4760   31.0280 C   0  0  0  0  0  0  0  0  0  0  0  0
   36.7080   14.0890   31.0500 C   0  0  0  0  0  0  0  0  0  0  0  0
   39.4045   23.9440   37.5811 H   0  0  0  0  0  0  0  0  0  0  0  0
   37.1467   22.7695   37.7057 H   0  0  0  0  0  0  0  0  0  0  0  0
   42.3016   22.8577   36.3717 H   0  0  0  0  0  0  0  0  0  0  0  0
   43.8279   27.0732   34.1472 H   0  0  0  0  0  0  0  0  0  0  0  0
   39.8529   27.8302   32.8682 H   0  0  0  0  0  0  0  0  0  0  0  0
   36.1069   23.4006   33.0499 H   0  0  0  0  0  0  0  0  0  0  0  0
   37.3416   23.1477   31.7700 H   0  0  0  0  0  0  0  0  0  0  0  0
   35.8348   22.1700   31.7700 H   0  0  0  0  0  0  0  0  0  0  0  0
   36.1380   20.6290   34.8263 H   0  0  0  0  0  0  0  0  0  0  0  0
   35.1980   21.0050   33.3425 H   0  0  0  0  0  0  0  0  0  0  0  0
   36.3698   19.6435   33.3425 H   0  0  0  0  0  0  0  0  0  0  0  0
   38.7981   21.4154   31.7915 H   0  0  0  0  0  0  0  0  0  0  0  0
   38.9401   20.2960   33.2133 H   0  0  0  0  0  0  0  0  0  0  0  0
   37.1879   20.7939   29.8443 H   0  0  0  0  0  0  0  0  0  0  0  0
   36.0742   18.4860   29.0132 H   0  0  0  0  0  0  0  0  0  0  0  0
   36.5213   13.9612   33.0515 H   0  0  0  0  0  0  0  0  0  0  0  0
   34.1402   14.7375   31.5205 H   0  0  0  0  0  0  0  0  0  0  0  0
   34.3062   14.6920   33.2992 H   0  0  0  0  0  0  0  0  0  0  0  0
   34.6571   16.9868   32.4066 H   0  0  0  0  0  0  0  0  0  0  0  0
   36.1551   16.3372   33.1720 H   0  0  0  0  0  0  0  0  0  0  0  0
   35.5984   16.2838   30.1449 H   0  0  0  0  0  0  0  0  0  0  0  0
   37.9633   15.6030   30.1183 H   0  0  0  0  0  0  0  0  0  0  0  0
   38.0326   15.6252   31.8839 H   0  0  0  0  0  0  0  0  0  0  0  0
   36.0661   13.9833   30.1630 H   0  0  0  0  0  0  0  0  0  0  0  0
   37.5108   13.3370   31.0514 H   0  0  0  0  0  0  0  0  0  0  0  0
  1 18  1  0
  1  6  1  0
  2  3  2  0
  3  4  1  0
  5  4  2  0
  6  5  1  0
  7  6  2  0
  7  2  1  0
  8  2  1  0
  8  9  1  0
 10  9  2  0
 11 10  1  0
 12 11  2  0
 13 12  1  0
 14 13  2  0
 14 15  1  0
 15 16  2  0
 16 11  1  0
 16  8  1  0
 17  1  1  0
 19  1  1  0
 20 24  2  0
 20 19  1  0
 21 20  1  0
 22 21  2  0
 22 23  1  0
 23 28  1  0
 23 24  1  0
 25 26  1  0
 27 26  1  0
 28 27  1  0
 29 28  1  0
 29 30  1  0
 30 25  1  0
  3 31  1  0
  4 32  1  0
  9 33  1  0
 12 34  1  0
 14 35  1  0
 17 36  1  0
 17 37  1  0
 17 38  1  0
 18 39  1  0
 18 40  1  0
 18 41  1  0
 19 42  1  0
 19 43  1  0
 21 44  1  0
 22 45  1  0
 25 46  1  0
 26 47  1  0
 26 48  1  0
 27 49  1  0
 27 50  1  0
 28 51  1  0
 29 52  1  0
 29 53  1  0
 30 54  1  0
 30 55  1  0
M  ISO  8  31  14  32  14  33  14  34  14  35  14  36   8  37   8  38   8
M  ISO  8  39   8  40   8  41   8  42   8  43   8  44  14  45  14  46   5
M  ISO  8  47  13  48  13  49  13  50  13  51  13  52  13  53  13  54  13
M  ISO  1  55  13
M  END
>  <minimizedAffinity>  (1) 
-4.94374037

>  <minimizedRMSD>  (1) 
1.16267633

$$$$
