
     RDKit          3D

 46 49  0  0  0  0  0  0  0  0999 V2000
   37.2810   21.5970   33.2670 C   0  0  0  0  0  0  0  0  0  0  0  0
   39.5890   23.4550   35.4500 C   0  0  0  0  0  0  0  0  0  0  0  0
   38.9350   23.4630   36.7060 C   0  0  0  0  0  0  0  0  0  0  0  0
   37.6890   22.8100   36.7530 C   0  0  0  0  0  0  0  0  0  0  0  0
   37.2040   22.2280   35.6180 N   0  0  0  0  0  0  0  0  0  0  0  0
   37.8820   22.2540   34.4420 C   0  0  0  0  0  0  0  0  0  0  0  0
   39.0640   22.8630   34.3630 N   0  0  0  0  0  0  0  0  0  0  0  0
   40.8530   24.0980   35.3370 N   0  0  0  0  0  0  0  0  0  0  0  0
   42.0640   23.7500   35.8120 C   0  0  0  0  0  0  0  0  0  0  0  0
   42.9710   24.6840   35.4430 N   0  0  0  0  0  0  0  0  0  0  0  0
   42.2940   25.6200   34.7280 C   0  0  0  0  0  0  0  0  0  0  0  0
   42.7790   26.7680   34.1380 C   0  0  0  0  0  0  0  0  0  0  0  0
   41.8610   27.5140   33.4850 N   0  0  0  0  0  0  0  0  0  0  0  0
   40.5680   27.1700   33.4110 C   0  0  0  0  0  0  0  0  0  0  0  0
   40.0960   26.0410   33.9920 N   0  0  0  0  0  0  0  0  0  0  0  0
   40.9670   25.2640   34.6540 C   0  0  0  0  0  0  0  0  0  0  0  0
   36.5820   22.6350   32.4110 C   0  0  0  0  0  0  0  0  0  0  0  0
   36.1990   20.6160   33.7160 C   0  0  0  0  0  0  0  0  0  0  0  0
   38.2600   20.7810   32.4690 C   0  0  0  0  0  0  0  0  0  0  0  0
   37.6110   19.7130   31.6730 C   0  0  0  0  0  0  0  0  0  0  0  0
   37.0760   19.9470   30.4010 C   0  0  0  0  0  0  0  0  0  0  0  0
   36.5480   18.7540   29.9340 C   0  0  0  0  0  0  0  0  0  0  0  0
   36.7710   17.8510   30.9090 N   0  0  0  0  0  0  0  0  0  0  0  0
   37.3960   18.4100   31.9350 N   0  0  0  0  0  0  0  0  0  0  0  0
   36.3230   16.4860   30.7080 C   0  0  0  0  0  0  0  0  0  0  0  0
   35.5540   15.9420   31.8910 C   0  0  0  0  0  0  0  0  0  0  0  0
   39.3735   23.9493   37.5899 H   0  0  0  0  0  0  0  0  0  0  0  0
   37.1149   22.7694   37.6904 H   0  0  0  0  0  0  0  0  0  0  0  0
   42.2814   22.8497   36.4055 H   0  0  0  0  0  0  0  0  0  0  0  0
   43.8390   27.0563   34.1949 H   0  0  0  0  0  0  0  0  0  0  0  0
   39.8712   27.8219   32.8638 H   0  0  0  0  0  0  0  0  0  0  0  0
   36.0859   23.3717   33.0600 H   0  0  0  0  0  0  0  0  0  0  0  0
   37.3215   23.1449   31.7760 H   0  0  0  0  0  0  0  0  0  0  0  0
   35.8315   22.1415   31.7760 H   0  0  0  0  0  0  0  0  0  0  0  0
   36.1651   20.5853   34.8150 H   0  0  0  0  0  0  0  0  0  0  0  0
   35.2232   20.9436   33.3281 H   0  0  0  0  0  0  0  0  0  0  0  0
   36.4297   19.6129   33.3281 H   0  0  0  0  0  0  0  0  0  0  0  0
   38.7980   21.4517   31.7828 H   0  0  0  0  0  0  0  0  0  0  0  0
   38.9395   20.2923   33.1828 H   0  0  0  0  0  0  0  0  0  0  0  0
   37.0749   20.9083   29.8664 H   0  0  0  0  0  0  0  0  0  0  0  0
   36.0504   18.5803   28.9685 H   0  0  0  0  0  0  0  0  0  0  0  0
   35.6719   16.4566   29.8219 H   0  0  0  0  0  0  0  0  0  0  0  0
   37.2176   15.8594   30.5777 H   0  0  0  0  0  0  0  0  0  0  0  0
   36.0299   16.2786   32.8238 H   0  0  0  0  0  0  0  0  0  0  0  0
   34.5177   16.3090   31.8548 H   0  0  0  0  0  0  0  0  0  0  0  0
   35.5551   14.8426   31.8548 H   0  0  0  0  0  0  0  0  0  0  0  0
  1 18  1  0
  1  6  1  0
  2  3  2  0
  3  4  1  0
  5  4  2  0
  6  5  1  0
  7  6  2  0
  7  2  1  0
  8  2  1  0
  8  9  1  0
 10  9  2  0
 11 10  1  0
 12 11  2  0
 13 12  1  0
 14 13  2  0
 14 15  1  0
 15 16  2  0
 16 11  1  0
 16  8  1  0
 17  1  1  0
 19  1  1  0
 20 24  2  0
 20 19  1  0
 21 20  1  0
 22 21  2  0
 22 23  1  0
 23 24  1  0
 25 23  1  0
 25 26  1  0
  3 27  1  0
  4 28  1  0
  9 29  1  0
 12 30  1  0
 14 31  1  0
 17 32  1  0
 17 33  1  0
 17 34  1  0
 18 35  1  0
 18 36  1  0
 18 37  1  0
 19 38  1  0
 19 39  1  0
 21 40  1  0
 22 41  1  0
 25 42  1  0
 25 43  1  0
 26 44  1  0
 26 45  1  0
 26 46  1  0
M  ISO  8  27  14  28  14  29  14  30  14  31  14  32   8  33   8  34   8
M  ISO  8  35   8  36   8  37   8  38   8  39   8  40  14  41  14  42   8
M  ISO  4  43   8  44   8  45   8  46   8
M  END
>  <minimizedAffinity>  (1) 
-4.52358198

>  <minimizedRMSD>  (1) 
0.544682503

$$$$
