
     RDKit          3D

 31 34  0  0  0  0  0  0  0  0999 V2000
   39.8070   22.6220   37.0580 C   0  0  0  0  0  0  0  0  0  0  0  0
   39.2440   23.3650   38.0990 C   0  0  0  0  0  0  0  0  0  0  0  0
   37.8390   23.5230   38.0990 C   0  0  0  0  0  0  0  0  0  0  0  0
   37.1320   22.9470   37.0970 N   0  0  0  0  0  0  0  0  0  0  0  0
   37.7080   22.2370   36.1090 C   0  0  0  0  0  0  0  0  0  0  0  0
   39.0350   22.0700   36.0820 N   0  0  0  0  0  0  0  0  0  0  0  0
   36.9730   21.6320   35.0580 N   0  0  0  0  0  0  0  0  0  0  0  0
   35.9730   20.7730   35.2760 N   0  0  0  0  0  0  0  0  0  0  0  0
   35.4770   20.3760   34.0720 C   0  0  0  0  0  0  0  0  0  0  0  0
   36.2150   21.0270   33.0890 C   0  0  0  0  0  0  0  0  0  0  0  0
   37.1560   21.8160   33.7380 C   0  0  0  0  0  0  0  0  0  0  0  0
   38.1110   22.6460   33.0860 N   0  0  0  0  0  0  0  0  0  0  0  0
   39.4630   22.5530   33.1150 C   0  0  0  0  0  0  0  0  0  0  0  0
   40.0350   23.5200   32.3730 N   0  0  0  0  0  0  0  0  0  0  0  0
   39.0690   24.2640   31.8440 C   0  0  0  0  0  0  0  0  0  0  0  0
   39.1100   25.3700   31.0130 C   0  0  0  0  0  0  0  0  0  0  0  0
   40.1890   25.8590   30.6140 O   0  0  0  0  0  0  0  0  0  0  0  0
   37.9080   25.9020   30.6510 N   0  0  0  0  0  0  0  0  0  0  0  0
   36.7440   25.3680   31.0860 C   0  0  0  0  0  0  0  0  0  0  0  0
   35.5740   26.0340   30.6220 N   0  0  0  0  0  0  0  0  0  0  0  0
   36.7140   24.2790   31.9040 N   0  0  0  0  0  0  0  0  0  0  0  0
   37.8880   23.7130   32.2930 C   0  0  0  0  0  0  0  0  0  0  0  0
   40.8974   22.4801   37.0265 H   0  0  0  0  0  0  0  0  0  0  0  0
   39.8693   23.8094   38.8874 H   0  0  0  0  0  0  0  0  0  0  0  0
   37.3343   24.0972   38.8899 H   0  0  0  0  0  0  0  0  0  0  0  0
   34.6478   19.6722   33.9073 H   0  0  0  0  0  0  0  0  0  0  0  0
   36.0789   20.9343   32.0014 H   0  0  0  0  0  0  0  0  0  0  0  0
   40.0209   21.7864   33.6728 H   0  0  0  0  0  0  0  0  0  0  0  0
   37.8859   26.7266   30.0342 H   0  0  0  0  0  0  0  0  0  0  0  0
   34.6429   25.6955   30.9035 H   0  0  0  0  0  0  0  0  0  0  0  0
   35.6589   26.8542   30.0048 H   0  0  0  0  0  0  0  0  0  0  0  0
  1  2  2  0
  3  2  1  0
  4  3  2  0
  5  4  1  0
  6  5  2  0
  6  1  1  0
  7  8  1  0
  7  5  1  0
  9  8  2  0
 10 11  2  0
 10  9  1  0
 11  7  1  0
 12 13  1  0
 12 11  1  0
 14 13  2  0
 15 22  2  0
 15 14  1  0
 16 15  1  0
 17 16  2  0
 18 16  1  0
 18 19  1  0
 19 21  2  0
 20 19  1  0
 21 22  1  0
 22 12  1  0
  1 23  1  0
  2 24  1  0
  3 25  1  0
  9 26  1  0
 10 27  1  0
 13 28  1  0
 18 29  1  0
 20 30  1  0
 20 31  1  0
M  ISO  7  23  14  24  14  25  14  26  14  27  14  28  14  29   9
M  END
>  <minimizedAffinity>  (1) 
-5.64427662

>  <minimizedRMSD>  (1) 
0.74528724

$$$$
