
     RDKit          3D

 27 29  0  0  0  0  0  0  0  0999 V2000
   39.9240   23.0970   37.8570 C   0  0  0  0  0  0  0  0  0  0  0  0
   38.9530   23.2140   38.8660 C   0  0  0  0  0  0  0  0  0  0  0  0
   37.6130   23.1970   38.4620 C   0  0  0  0  0  0  0  0  0  0  0  0
   37.3120   23.0720   37.1390 N   0  0  0  0  0  0  0  0  0  0  0  0
   38.2700   22.9630   36.2050 C   0  0  0  0  0  0  0  0  0  0  0  0
   39.5610   22.9760   36.5590 N   0  0  0  0  0  0  0  0  0  0  0  0
   38.0030   22.8310   34.8150 N   0  0  0  0  0  0  0  0  0  0  0  0
   37.2340   21.8610   34.3280 N   0  0  0  0  0  0  0  0  0  0  0  0
   37.1760   22.0090   32.9730 C   0  0  0  0  0  0  0  0  0  0  0  0
   37.9460   23.1160   32.6420 C   0  0  0  0  0  0  0  0  0  0  0  0
   38.4670   23.6320   33.8260 C   0  0  0  0  0  0  0  0  0  0  0  0
   39.3420   24.7940   34.0200 C   0  0  0  0  0  0  0  0  0  0  0  0
   39.0010   26.0070   34.5780 C   0  0  0  0  0  0  0  0  0  0  0  0
   39.9360   27.0090   34.6920 C   0  0  0  0  0  0  0  0  0  0  0  0
   41.2320   26.7620   34.2310 C   0  0  0  0  0  0  0  0  0  0  0  0
   41.5840   25.5520   33.6720 C   0  0  0  0  0  0  0  0  0  0  0  0
   40.6370   24.5390   33.5560 C   0  0  0  0  0  0  0  0  0  0  0  0
   40.9908   23.1038   38.1252 H   0  0  0  0  0  0  0  0  0  0  0  0
   39.2332   23.3144   39.9250 H   0  0  0  0  0  0  0  0  0  0  0  0
   36.8086   23.2839   39.2073 H   0  0  0  0  0  0  0  0  0  0  0  0
   36.6210   21.3688   32.2714 H   0  0  0  0  0  0  0  0  0  0  0  0
   38.1138   23.5128   31.6299 H   0  0  0  0  0  0  0  0  0  0  0  0
   37.9740   26.1749   34.9346 H   0  0  0  0  0  0  0  0  0  0  0  0
   39.6705   27.9803   35.1348 H   0  0  0  0  0  0  0  0  0  0  0  0
   41.9909   27.5537   34.3164 H   0  0  0  0  0  0  0  0  0  0  0  0
   42.6124   25.3874   33.3180 H   0  0  0  0  0  0  0  0  0  0  0  0
   40.8988   23.5669   33.1128 H   0  0  0  0  0  0  0  0  0  0  0  0
  1  2  2  0
  3  2  1  0
  4  3  2  0
  5  6  2  0
  5  4  1  0
  6  1  1  0
  7  5  1  0
  8  7  1  0
  9  8  2  0
 10  9  1  0
 10 11  2  0
 11 12  1  0
 11  7  1  0
 12 13  2  0
 13 14  1  0
 15 14  2  0
 16 15  1  0
 17 16  2  0
 17 12  1  0
  1 18  1  0
  2 19  1  0
  3 20  1  0
  9 21  1  0
 10 22  1  0
 13 23  1  0
 14 24  1  0
 15 25  1  0
 16 26  1  0
 17 27  1  0
M  ISO  8  18  14  19  14  20  14  21  14  22  14  23  14  24  14  25  14
M  ISO  2  26  14  27  14
M  END
>  <minimizedAffinity>  (1) 
-4.44759607

>  <minimizedRMSD>  (1) 
2.20685482

$$$$
