
     RDKit          3D

 30 32  0  0  0  0  0  0  0  0999 V2000
   39.8600   22.6360   37.1600 C   0  0  0  0  0  0  0  0  0  0  0  0
   39.2800   23.3050   38.2470 C   0  0  0  0  0  0  0  0  0  0  0  0
   37.8850   23.4490   38.2370 C   0  0  0  0  0  0  0  0  0  0  0  0
   37.1720   22.9390   37.1850 N   0  0  0  0  0  0  0  0  0  0  0  0
   37.7770   22.2980   36.1520 C   0  0  0  0  0  0  0  0  0  0  0  0
   39.1090   22.1510   36.1450 N   0  0  0  0  0  0  0  0  0  0  0  0
   37.0580   21.7650   35.0550 N   0  0  0  0  0  0  0  0  0  0  0  0
   36.0570   20.9040   35.1960 N   0  0  0  0  0  0  0  0  0  0  0  0
   35.5800   20.5850   33.9760 C   0  0  0  0  0  0  0  0  0  0  0  0
   36.3430   21.3000   33.0330 C   0  0  0  0  0  0  0  0  0  0  0  0
   37.2720   22.0380   33.7560 C   0  0  0  0  0  0  0  0  0  0  0  0
   38.2390   22.9010   33.1730 N   0  0  0  0  0  0  0  0  0  0  0  0
   37.8200   24.1970   33.0630 C   0  0  0  0  0  0  0  0  0  0  0  0
   38.6350   25.1900   32.5130 C   0  0  0  0  0  0  0  0  0  0  0  0
   38.1280   26.5970   32.4160 C   0  0  0  0  0  0  0  0  0  0  0  0
   39.8980   24.8140   32.0790 C   0  0  0  0  0  0  0  0  0  0  0  0
   40.6390   25.6860   31.5860 O   0  0  0  0  0  0  0  0  0  0  0  0
   40.2720   23.5260   32.2050 N   0  0  0  0  0  0  0  0  0  0  0  0
   39.4740   22.5810   32.7370 C   0  0  0  0  0  0  0  0  0  0  0  0
   39.7860   21.3700   32.8720 O   0  0  0  0  0  0  0  0  0  0  0  0
   40.9515   22.5024   37.1319 H   0  0  0  0  0  0  0  0  0  0  0  0
   39.8921   23.6996   39.0714 H   0  0  0  0  0  0  0  0  0  0  0  0
   37.3712   23.9640   39.0621 H   0  0  0  0  0  0  0  0  0  0  0  0
   34.7508   19.8958   33.7583 H   0  0  0  0  0  0  0  0  0  0  0  0
   36.2265   21.2785   31.9394 H   0  0  0  0  0  0  0  0  0  0  0  0
   36.8138   24.4659   33.4170 H   0  0  0  0  0  0  0  0  0  0  0  0
   37.9812   27.0044   33.4272 H   0  0  0  0  0  0  0  0  0  0  0  0
   38.8603   27.2141   31.8748 H   0  0  0  0  0  0  0  0  0  0  0  0
   37.1704   26.6052   31.8748 H   0  0  0  0  0  0  0  0  0  0  0  0
   41.2101   23.2519   31.8799 H   0  0  0  0  0  0  0  0  0  0  0  0
  1  2  2  0
  3  2  1  0
  4  3  2  0
  5  4  1  0
  6  5  2  0
  6  1  1  0
  7  8  1  0
  7  5  1  0
  9  8  2  0
 10 11  2  0
 10  9  1  0
 11  7  1  0
 12 11  1  0
 13 12  1  0
 14 13  2  0
 15 14  1  0
 16 18  1  0
 16 14  1  0
 17 16  2  0
 18 19  1  0
 19 20  2  0
 19 12  1  0
  1 21  1  0
  2 22  1  0
  3 23  1  0
  9 24  1  0
 10 25  1  0
 13 26  1  0
 15 27  1  0
 15 28  1  0
 15 29  1  0
 18 30  1  0
M  ISO  8  21  14  22  14  23  14  24  14  25  14  26  14  27   8  28   8
M  ISO  2  29   8  30   9
M  END
>  <minimizedAffinity>  (1) 
-4.80885744

>  <minimizedRMSD>  (1) 
1.16290975

$$$$
