
     RDKit          3D

 31 34  0  0  0  0  0  0  0  0999 V2000
   39.9120   22.5880   37.1190 C   0  0  0  0  0  0  0  0  0  0  0  0
   39.2820   23.2090   38.2300 C   0  0  0  0  0  0  0  0  0  0  0  0
   37.8760   23.3960   38.1810 C   0  0  0  0  0  0  0  0  0  0  0  0
   37.1960   22.9710   37.0690 N   0  0  0  0  0  0  0  0  0  0  0  0
   37.8470   22.3800   36.0270 C   0  0  0  0  0  0  0  0  0  0  0  0
   39.1880   22.1890   36.0520 N   0  0  0  0  0  0  0  0  0  0  0  0
   37.1530   21.9250   34.8650 N   0  0  0  0  0  0  0  0  0  0  0  0
   36.1960   20.9810   34.9560 N   0  0  0  0  0  0  0  0  0  0  0  0
   35.7360   20.7150   33.7210 C   0  0  0  0  0  0  0  0  0  0  0  0
   36.4650   21.5510   32.8480 C   0  0  0  0  0  0  0  0  0  0  0  0
   37.3680   22.3200   33.6110 C   0  0  0  0  0  0  0  0  0  0  0  0
   38.2400   23.2700   33.0000 C   0  0  0  0  0  0  0  0  0  0  0  0
   39.4010   22.9600   32.3480 C   0  0  0  0  0  0  0  0  0  0  0  0
   40.0170   24.0440   31.8360 N   0  0  0  0  0  0  0  0  0  0  0  0
   39.2620   25.1330   32.1420 C   0  0  0  0  0  0  0  0  0  0  0  0
   39.4110   26.4910   31.8700 C   0  0  0  0  0  0  0  0  0  0  0  0
   38.4590   27.3690   32.3180 C   0  0  0  0  0  0  0  0  0  0  0  0
   37.3850   26.9210   33.0190 C   0  0  0  0  0  0  0  0  0  0  0  0
   37.3000   25.5810   33.2510 C   0  0  0  0  0  0  0  0  0  0  0  0
   38.1750   24.6240   32.8580 C   0  0  0  0  0  0  0  0  0  0  0  0
   41.0006   22.4306   37.1281 H   0  0  0  0  0  0  0  0  0  0  0  0
   39.8665   23.5354   39.1028 H   0  0  0  0  0  0  0  0  0  0  0  0
   37.3432   23.8718   39.0175 H   0  0  0  0  0  0  0  0  0  0  0  0
   34.9521   19.9936   33.4470 H   0  0  0  0  0  0  0  0  0  0  0  0
   36.3483   21.5953   31.7551 H   0  0  0  0  0  0  0  0  0  0  0  0
   39.7906   21.9358   32.2516 H   0  0  0  0  0  0  0  0  0  0  0  0
   40.9012   24.0471   31.3076 H   0  0  0  0  0  0  0  0  0  0  0  0
   40.2812   26.8537   31.3032 H   0  0  0  0  0  0  0  0  0  0  0  0
   38.5651   28.4437   32.1086 H   0  0  0  0  0  0  0  0  0  0  0  0
   36.6132   27.6138   33.3855 H   0  0  0  0  0  0  0  0  0  0  0  0
   36.4237   25.2381   33.8206 H   0  0  0  0  0  0  0  0  0  0  0  0
  1  2  2  0
  3  2  1  0
  4  3  2  0
  5  6  2  0
  5  4  1  0
  6  1  1  0
  7  8  1  0
  7  5  1  0
  9  8  2  0
 10 11  2  0
 10  9  1  0
 11  7  1  0
 12 11  1  0
 13 12  2  0
 14 15  1  0
 14 13  1  0
 15 20  2  0
 16 15  1  0
 16 17  2  0
 17 18  1  0
 18 19  2  0
 20 12  1  0
 20 19  1  0
  1 21  1  0
  2 22  1  0
  3 23  1  0
  9 24  1  0
 10 25  1  0
 13 26  1  0
 14 27  1  0
 16 28  1  0
 17 29  1  0
 18 30  1  0
 19 31  1  0
M  ISO  8  21  14  22  14  23  14  24  14  25  14  26  14  27   9  28  14
M  ISO  3  29  14  30  14  31  14
M  END
>  <minimizedAffinity>  (1) 
-5.16692638

>  <minimizedRMSD>  (1) 
0.561088204

$$$$
