
     RDKit          3D

 32 34  0  0  0  0  0  0  0  0999 V2000
   39.9000   22.5330   36.9170 C   0  0  0  0  0  0  0  0  0  0  0  0
   39.3710   23.2120   38.0330 C   0  0  0  0  0  0  0  0  0  0  0  0
   37.9770   23.3820   38.0770 C   0  0  0  0  0  0  0  0  0  0  0  0
   37.2090   22.8920   37.0550 N   0  0  0  0  0  0  0  0  0  0  0  0
   37.7700   22.2430   35.9970 C   0  0  0  0  0  0  0  0  0  0  0  0
   39.0920   22.0740   35.9390 N   0  0  0  0  0  0  0  0  0  0  0  0
   37.0070   21.7110   34.9370 N   0  0  0  0  0  0  0  0  0  0  0  0
   36.0200   20.8470   35.1130 N   0  0  0  0  0  0  0  0  0  0  0  0
   35.4970   20.5300   33.9010 C   0  0  0  0  0  0  0  0  0  0  0  0
   36.2030   21.2400   32.9430 C   0  0  0  0  0  0  0  0  0  0  0  0
   37.1520   21.9780   33.6310 C   0  0  0  0  0  0  0  0  0  0  0  0
   38.0370   22.8290   32.9150 N   0  0  0  0  0  0  0  0  0  0  0  0
   39.2630   22.6500   32.1550 C   0  0  0  0  0  0  0  0  0  0  0  0
   38.9350   22.8190   30.6610 C   0  0  0  0  0  0  0  0  0  0  0  0
   38.2510   24.1640   30.4720 C   0  0  0  0  0  0  0  0  0  0  0  0
   38.2360   24.9740   31.7330 C   0  0  0  0  0  0  0  0  0  0  0  0
   37.6280   24.2440   32.9050 C   0  0  0  0  0  0  0  0  0  0  0  0
   40.9861   22.3752   36.8424 H   0  0  0  0  0  0  0  0  0  0  0  0
   40.0212   23.5923   38.8347 H   0  0  0  0  0  0  0  0  0  0  0  0
   37.5074   23.9035   38.9240 H   0  0  0  0  0  0  0  0  0  0  0  0
   34.6644   19.8360   33.7135 H   0  0  0  0  0  0  0  0  0  0  0  0
   36.0421   21.2213   31.8550 H   0  0  0  0  0  0  0  0  0  0  0  0
   40.0035   23.4038   32.4607 H   0  0  0  0  0  0  0  0  0  0  0  0
   39.6808   21.6495   32.3403 H   0  0  0  0  0  0  0  0  0  0  0  0
   39.8625   22.7871   30.0705 H   0  0  0  0  0  0  0  0  0  0  0  0
   38.2743   22.0068   30.3236 H   0  0  0  0  0  0  0  0  0  0  0  0
   38.7876   24.7282   29.6950 H   0  0  0  0  0  0  0  0  0  0  0  0
   37.2075   23.9740   30.1804 H   0  0  0  0  0  0  0  0  0  0  0  0
   39.2720   25.2419   31.9880 H   0  0  0  0  0  0  0  0  0  0  0  0
   37.6130   25.8604   31.5430 H   0  0  0  0  0  0  0  0  0  0  0  0
   37.9612   24.7214   33.8383 H   0  0  0  0  0  0  0  0  0  0  0  0
   36.5325   24.2917   32.8176 H   0  0  0  0  0  0  0  0  0  0  0  0
  1  2  2  0
  2  3  1  0
  4  3  2  0
  5  4  1  0
  6  5  2  0
  6  1  1  0
  7  8  1  0
  7  5  1  0
  9  8  2  0
 10 11  2  0
 10  9  1  0
 11  7  1  0
 12 11  1  0
 13 12  1  0
 14 13  1  0
 15 14  1  0
 15 16  1  0
 16 17  1  0
 17 12  1  0
  1 18  1  0
  2 19  1  0
  3 20  1  0
  9 21  1  0
 10 22  1  0
 13 23  1  0
 13 24  1  0
 14 25  1  0
 14 26  1  0
 15 27  1  0
 15 28  1  0
 16 29  1  0
 16 30  1  0
 17 31  1  0
 17 32  1  0
M  ISO  8  18  14  19  14  20  14  21  14  22  14  23  13  24  13  25  13
M  ISO  7  26  13  27  13  28  13  29  13  30  13  31  13  32  13
M  END
>  <minimizedAffinity>  (1) 
-4.51277924

>  <minimizedRMSD>  (1) 
0.557229698

$$$$
