
     RDKit          3D

 27 29  0  0  0  0  0  0  0  0999 V2000
   39.8650   22.6170   37.1400 C   0  0  0  0  0  0  0  0  0  0  0  0
   39.3010   23.3100   38.2150 C   0  0  0  0  0  0  0  0  0  0  0  0
   37.9070   23.4720   38.2110 C   0  0  0  0  0  0  0  0  0  0  0  0
   37.1850   22.9540   37.1740 N   0  0  0  0  0  0  0  0  0  0  0  0
   37.7760   22.2880   36.1490 C   0  0  0  0  0  0  0  0  0  0  0  0
   39.1140   22.1110   36.1200 N   0  0  0  0  0  0  0  0  0  0  0  0
   37.0470   21.7430   35.0670 N   0  0  0  0  0  0  0  0  0  0  0  0
   36.0470   20.8760   35.2360 N   0  0  0  0  0  0  0  0  0  0  0  0
   35.5650   20.5560   34.0000 C   0  0  0  0  0  0  0  0  0  0  0  0
   36.3070   21.2630   33.0550 C   0  0  0  0  0  0  0  0  0  0  0  0
   37.2400   22.0070   33.7620 C   0  0  0  0  0  0  0  0  0  0  0  0
   38.1930   22.8690   33.1560 N   0  0  0  0  0  0  0  0  0  0  0  0
   37.7540   24.1490   33.0520 C   0  0  0  0  0  0  0  0  0  0  0  0
   38.5530   25.1420   32.4830 C   0  0  0  0  0  0  0  0  0  0  0  0
   39.8050   24.7850   32.0280 C   0  0  0  0  0  0  0  0  0  0  0  0
   40.5190   25.6730   31.5210 O   0  0  0  0  0  0  0  0  0  0  0  0
   40.2020   23.5080   32.1500 N   0  0  0  0  0  0  0  0  0  0  0  0
   39.4230   22.5760   32.6970 C   0  0  0  0  0  0  0  0  0  0  0  0
   39.7350   21.3610   32.8410 O   0  0  0  0  0  0  0  0  0  0  0  0
   40.9554   22.4744   37.1157 H   0  0  0  0  0  0  0  0  0  0  0  0
   39.9229   23.7110   39.0289 H   0  0  0  0  0  0  0  0  0  0  0  0
   37.4041   24.0075   39.0298 H   0  0  0  0  0  0  0  0  0  0  0  0
   34.7377   19.8630   33.7871 H   0  0  0  0  0  0  0  0  0  0  0  0
   36.1779   21.2361   31.9629 H   0  0  0  0  0  0  0  0  0  0  0  0
   36.7513   24.4083   33.4225 H   0  0  0  0  0  0  0  0  0  0  0  0
   38.1947   26.1787   32.3999 H   0  0  0  0  0  0  0  0  0  0  0  0
   41.1370   23.2410   31.8104 H   0  0  0  0  0  0  0  0  0  0  0  0
  1  2  2  0
  3  2  1  0
  4  3  2  0
  5  4  1  0
  6  5  2  0
  6  1  1  0
  7  8  1  0
  7  5  1  0
  9  8  2  0
 10 11  2  0
 10  9  1  0
 11  7  1  0
 12 11  1  0
 13 12  1  0
 14 13  2  0
 15 17  1  0
 15 14  1  0
 16 15  2  0
 17 18  1  0
 18 19  2  0
 18 12  1  0
  1 20  1  0
  2 21  1  0
  3 22  1  0
  9 23  1  0
 10 24  1  0
 13 25  1  0
 14 26  1  0
 17 27  1  0
M  ISO  8  20  14  21  14  22  14  23  14  24  14  25  14  26  14  27   9
M  END
>  <minimizedAffinity>  (1) 
-4.58304119

>  <minimizedRMSD>  (1) 
0.624014795

$$$$
