
     RDKit          3D

 30 33  0  0  0  0  0  0  0  0999 V2000
   39.8800   22.6130   37.1150 C   0  0  0  0  0  0  0  0  0  0  0  0
   39.2280   23.2280   38.2140 C   0  0  0  0  0  0  0  0  0  0  0  0
   37.8290   23.3830   38.1360 C   0  0  0  0  0  0  0  0  0  0  0  0
   37.1860   22.9380   37.0180 N   0  0  0  0  0  0  0  0  0  0  0  0
   37.8430   22.3540   35.9840 C   0  0  0  0  0  0  0  0  0  0  0  0
   39.1670   22.2030   36.0480 N   0  0  0  0  0  0  0  0  0  0  0  0
   37.1830   21.8910   34.8230 N   0  0  0  0  0  0  0  0  0  0  0  0
   36.1860   21.0270   34.8440 N   0  0  0  0  0  0  0  0  0  0  0  0
   35.7800   20.7940   33.5690 C   0  0  0  0  0  0  0  0  0  0  0  0
   36.5770   21.5610   32.7280 C   0  0  0  0  0  0  0  0  0  0  0  0
   37.4570   22.2450   33.5550 C   0  0  0  0  0  0  0  0  0  0  0  0
   38.4460   23.1450   33.0720 N   0  0  0  0  0  0  0  0  0  0  0  0
   39.7380   23.0330   32.7000 C   0  0  0  0  0  0  0  0  0  0  0  0
   40.2080   24.2350   32.3150 N   0  0  0  0  0  0  0  0  0  0  0  0
   39.2110   25.1530   32.4340 C   0  0  0  0  0  0  0  0  0  0  0  0
   39.2020   26.5070   32.1650 C   0  0  0  0  0  0  0  0  0  0  0  0
   38.0380   27.1820   32.3850 N   0  0  0  0  0  0  0  0  0  0  0  0
   36.9640   26.5190   32.8460 C   0  0  0  0  0  0  0  0  0  0  0  0
   36.9910   25.2000   33.1030 N   0  0  0  0  0  0  0  0  0  0  0  0
   38.1080   24.4430   32.9140 C   0  0  0  0  0  0  0  0  0  0  0  0
   40.3190   27.2090   31.6840 N   0  0  0  0  0  0  0  0  0  0  0  0
   40.9706   22.4704   37.1338 H   0  0  0  0  0  0  0  0  0  0  0  0
   39.7923   23.5710   39.0937 H   0  0  0  0  0  0  0  0  0  0  0  0
   37.2684   23.8521   38.9580 H   0  0  0  0  0  0  0  0  0  0  0  0
   34.9677   20.1204   33.2585 H   0  0  0  0  0  0  0  0  0  0  0  0
   36.5217   21.6150   31.6307 H   0  0  0  0  0  0  0  0  0  0  0  0
   40.3203   22.0998   32.7097 H   0  0  0  0  0  0  0  0  0  0  0  0
   36.0306   27.0748   33.0190 H   0  0  0  0  0  0  0  0  0  0  0  0
   41.2050   26.7123   31.5131 H   0  0  0  0  0  0  0  0  0  0  0  0
   40.2523   28.2206   31.5021 H   0  0  0  0  0  0  0  0  0  0  0  0
  1  2  2  0
  3  2  1  0
  4  3  2  0
  5  6  2  0
  5  4  1  0
  6  1  1  0
  7  8  1  0
  7  5  1  0
  9  8  2  0
 10 11  2  0
 10  9  1  0
 11  7  1  0
 12 11  1  0
 13 12  1  0
 14 15  1  0
 14 13  2  0
 15 20  2  0
 16 17  2  0
 16 15  1  0
 17 18  1  0
 18 19  2  0
 20 12  1  0
 20 19  1  0
 21 16  1  0
  1 22  1  0
  2 23  1  0
  3 24  1  0
  9 25  1  0
 10 26  1  0
 13 27  1  0
 18 28  1  0
 21 29  1  0
 21 30  1  0
M  ISO  7  22  14  23  14  24  14  25  14  26  14  27  14  28  14
M  END
>  <minimizedAffinity>  (1) 
-5.10885382

>  <minimizedRMSD>  (1) 
0.832798481

$$$$
