
     RDKit          3D

 25 27  0  0  0  0  0  0  0  0999 V2000
   39.8760   22.6150   37.1020 C   0  0  0  0  0  0  0  0  0  0  0  0
   39.2990   23.3030   38.1990 C   0  0  0  0  0  0  0  0  0  0  0  0
   37.8940   23.4620   38.2090 C   0  0  0  0  0  0  0  0  0  0  0  0
   37.2010   22.9420   37.1650 N   0  0  0  0  0  0  0  0  0  0  0  0
   37.7680   22.2940   36.1360 C   0  0  0  0  0  0  0  0  0  0  0  0
   39.0910   22.1380   36.1140 N   0  0  0  0  0  0  0  0  0  0  0  0
   37.0420   21.7510   35.0430 N   0  0  0  0  0  0  0  0  0  0  0  0
   36.0450   20.8770   35.2090 N   0  0  0  0  0  0  0  0  0  0  0  0
   35.5670   20.5560   33.9820 C   0  0  0  0  0  0  0  0  0  0  0  0
   36.3080   21.2650   33.0380 C   0  0  0  0  0  0  0  0  0  0  0  0
   37.2400   22.0170   33.7400 C   0  0  0  0  0  0  0  0  0  0  0  0
   38.2290   22.9120   33.1680 C   0  0  0  0  0  0  0  0  0  0  0  0
   37.9610   24.2640   33.0830 C   0  0  0  0  0  0  0  0  0  0  0  0
   38.8000   25.2290   32.5660 C   0  0  0  0  0  0  0  0  0  0  0  0
   39.9930   24.7850   32.1060 N   0  0  0  0  0  0  0  0  0  0  0  0
   40.2980   23.4560   32.1710 C   0  0  0  0  0  0  0  0  0  0  0  0
   39.4350   22.5630   32.6870 N   0  0  0  0  0  0  0  0  0  0  0  0
   40.9654   22.4699   37.0563 H   0  0  0  0  0  0  0  0  0  0  0  0
   39.9225   23.6993   39.0140 H   0  0  0  0  0  0  0  0  0  0  0  0
   37.3834   23.9862   39.0303 H   0  0  0  0  0  0  0  0  0  0  0  0
   34.7419   19.8604   33.7692 H   0  0  0  0  0  0  0  0  0  0  0  0
   36.1790   21.2345   31.9460 H   0  0  0  0  0  0  0  0  0  0  0  0
   36.9863   24.6034   33.4636 H   0  0  0  0  0  0  0  0  0  0  0  0
   38.5176   26.2915   32.5298 H   0  0  0  0  0  0  0  0  0  0  0  0
   41.2707   23.1080   31.7931 H   0  0  0  0  0  0  0  0  0  0  0  0
  1  2  2  0
  2  3  1  0
  4  3  2  0
  5  4  1  0
  6  5  2  0
  6  1  1  0
  7  8  1  0
  7  5  1  0
  9  8  2  0
 10 11  2  0
 10  9  1  0
 11  7  1  0
 12 11  1  0
 13 12  2  0
 14 13  1  0
 15 16  1  0
 15 14  2  0
 16 17  2  0
 17 12  1  0
  1 18  1  0
  2 19  1  0
  3 20  1  0
  9 21  1  0
 10 22  1  0
 13 23  1  0
 14 24  1  0
 16 25  1  0
M  ISO  8  18  14  19  14  20  14  21  14  22  14  23  14  24  14  25  14
M  END
>  <minimizedAffinity>  (1) 
-4.34890461

>  <minimizedRMSD>  (1) 
0.52754128

$$$$
