
     RDKit          3D

 24 26  0  0  0  0  0  0  0  0999 V2000
   39.8830   22.6080   37.1270 C   0  0  0  0  0  0  0  0  0  0  0  0
   39.3160   23.3360   38.2040 C   0  0  0  0  0  0  0  0  0  0  0  0
   37.9280   23.5100   38.2090 C   0  0  0  0  0  0  0  0  0  0  0  0
   37.2100   22.9760   37.1890 N   0  0  0  0  0  0  0  0  0  0  0  0
   37.7740   22.2870   36.1760 C   0  0  0  0  0  0  0  0  0  0  0  0
   39.1140   22.0970   36.1340 N   0  0  0  0  0  0  0  0  0  0  0  0
   37.0270   21.7240   35.1020 N   0  0  0  0  0  0  0  0  0  0  0  0
   36.0370   20.8630   35.3010 N   0  0  0  0  0  0  0  0  0  0  0  0
   35.5380   20.5220   34.0760 C   0  0  0  0  0  0  0  0  0  0  0  0
   36.2600   21.2100   33.1090 C   0  0  0  0  0  0  0  0  0  0  0  0
   37.2050   21.9700   33.7860 C   0  0  0  0  0  0  0  0  0  0  0  0
   38.2190   22.8760   33.2520 C   0  0  0  0  0  0  0  0  0  0  0  0
   38.0070   24.2500   33.1490 C   0  0  0  0  0  0  0  0  0  0  0  0
   39.1670   24.7760   32.6080 C   0  0  0  0  0  0  0  0  0  0  0  0
   40.0400   23.7570   32.3950 N   0  0  0  0  0  0  0  0  0  0  0  0
   39.4530   22.6400   32.7860 N   0  0  0  0  0  0  0  0  0  0  0  0
   40.9718   22.4544   37.0965 H   0  0  0  0  0  0  0  0  0  0  0  0
   39.9450   23.7489   39.0064 H   0  0  0  0  0  0  0  0  0  0  0  0
   37.4317   24.0652   39.0186 H   0  0  0  0  0  0  0  0  0  0  0  0
   34.7088   19.8241   33.8880 H   0  0  0  0  0  0  0  0  0  0  0  0
   36.1122   21.1622   32.0200 H   0  0  0  0  0  0  0  0  0  0  0  0
   37.1017   24.8035   33.4388 H   0  0  0  0  0  0  0  0  0  0  0  0
   39.3509   25.8380   32.3880 H   0  0  0  0  0  0  0  0  0  0  0  0
   40.9877   23.8403   32.0002 H   0  0  0  0  0  0  0  0  0  0  0  0
  1  2  2  0
  2  3  1  0
  4  3  2  0
  5  4  1  0
  6  5  2  0
  6  1  1  0
  7  8  1  0
  7  5  1  0
  9  8  2  0
 10 11  2  0
 10  9  1  0
 11  7  1  0
 12 11  1  0
 13 12  1  0
 14 13  2  0
 15 14  1  0
 15 16  1  0
 16 12  2  0
  1 17  1  0
  2 18  1  0
  3 19  1  0
  9 20  1  0
 10 21  1  0
 13 22  1  0
 14 23  1  0
 15 24  1  0
M  ISO  8  17  14  18  14  19  14  20  14  21  14  22  14  23  14  24   9
M  END
>  <minimizedAffinity>  (1) 
-4.22718048

>  <minimizedRMSD>  (1) 
0.152969703

$$$$
