
     RDKit          3D

 30 32  0  0  0  0  0  0  0  0999 V2000
   39.8800   22.5930   37.1410 C   0  0  0  0  0  0  0  0  0  0  0  0
   39.3210   23.2960   38.2140 C   0  0  0  0  0  0  0  0  0  0  0  0
   37.9340   23.4770   38.2000 C   0  0  0  0  0  0  0  0  0  0  0  0
   37.1900   22.9770   37.1680 N   0  0  0  0  0  0  0  0  0  0  0  0
   37.7820   22.2990   36.1460 C   0  0  0  0  0  0  0  0  0  0  0  0
   39.1200   22.1030   36.1210 N   0  0  0  0  0  0  0  0  0  0  0  0
   37.0520   21.7570   35.0590 N   0  0  0  0  0  0  0  0  0  0  0  0
   36.0500   20.8900   35.2320 N   0  0  0  0  0  0  0  0  0  0  0  0
   35.5850   20.5760   33.9820 C   0  0  0  0  0  0  0  0  0  0  0  0
   36.3320   21.2760   33.0460 C   0  0  0  0  0  0  0  0  0  0  0  0
   37.2570   22.0200   33.7570 C   0  0  0  0  0  0  0  0  0  0  0  0
   38.2010   22.8660   33.1290 N   0  0  0  0  0  0  0  0  0  0  0  0
   37.9090   24.2780   33.0430 C   0  0  0  0  0  0  0  0  0  0  0  0
   38.4160   24.8560   31.7590 C   0  0  0  0  0  0  0  0  0  0  0  0
   39.7150   24.5990   31.4670 O   0  0  0  0  0  0  0  0  0  0  0  0
   40.3040   23.5250   32.0620 C   0  0  0  0  0  0  0  0  0  0  0  0
   39.4380   22.4440   32.5550 C   0  0  0  0  0  0  0  0  0  0  0  0
   40.9677   22.4306   37.1199 H   0  0  0  0  0  0  0  0  0  0  0  0
   39.9439   23.6884   39.0313 H   0  0  0  0  0  0  0  0  0  0  0  0
   37.4421   24.0216   39.0194 H   0  0  0  0  0  0  0  0  0  0  0  0
   34.7586   19.8853   33.7584 H   0  0  0  0  0  0  0  0  0  0  0  0
   36.2125   21.2456   31.9529 H   0  0  0  0  0  0  0  0  0  0  0  0
   36.8200   24.4236   33.0972 H   0  0  0  0  0  0  0  0  0  0  0  0
   38.4096   24.7897   33.8782 H   0  0  0  0  0  0  0  0  0  0  0  0
   37.8004   24.4528   30.9414 H   0  0  0  0  0  0  0  0  0  0  0  0
   38.3470   25.9476   31.8756 H   0  0  0  0  0  0  0  0  0  0  0  0
   40.9930   23.0821   31.3277 H   0  0  0  0  0  0  0  0  0  0  0  0
   40.7702   23.9369   32.9692 H   0  0  0  0  0  0  0  0  0  0  0  0
   39.2105   21.7786   31.7092 H   0  0  0  0  0  0  0  0  0  0  0  0
   39.9968   21.9526   33.3651 H   0  0  0  0  0  0  0  0  0  0  0  0
  1  2  2  0
  3  2  1  0
  4  3  2  0
  5  4  1  0
  6  5  2  0
  6  1  1  0
  7  8  1  0
  7  5  1  0
  9  8  2  0
 10 11  2  0
 10  9  1  0
 11  7  1  0
 12 11  1  0
 13 12  1  0
 14 13  1  0
 15 14  1  0
 15 16  1  0
 16 17  1  0
 17 12  1  0
  1 18  1  0
  2 19  1  0
  3 20  1  0
  9 21  1  0
 10 22  1  0
 13 23  1  0
 13 24  1  0
 14 25  1  0
 14 26  1  0
 16 27  1  0
 16 28  1  0
 17 29  1  0
 17 30  1  0
M  ISO  8  18  14  19  14  20  14  21  14  22  14  23  13  24  13  25  13
M  ISO  5  26  13  27  13  28  13  29  13  30  13
M  END
>  <minimizedAffinity>  (1) 
-4.33580494

>  <minimizedRMSD>  (1) 
0.25320527

$$$$
