
     RDKit          3D

 30 32  0  0  0  0  0  0  0  0999 V2000
   39.8630   22.5610   36.9470 C   0  0  0  0  0  0  0  0  0  0  0  0
   39.3260   23.2310   38.0530 C   0  0  0  0  0  0  0  0  0  0  0  0
   37.9360   23.3850   38.0930 C   0  0  0  0  0  0  0  0  0  0  0  0
   37.1860   22.8850   37.0720 N   0  0  0  0  0  0  0  0  0  0  0  0
   37.7420   22.2420   36.0160 C   0  0  0  0  0  0  0  0  0  0  0  0
   39.0820   22.0720   35.9410 N   0  0  0  0  0  0  0  0  0  0  0  0
   36.9950   21.7080   34.9390 N   0  0  0  0  0  0  0  0  0  0  0  0
   36.0050   20.8290   35.1300 N   0  0  0  0  0  0  0  0  0  0  0  0
   35.4910   20.5100   33.9080 C   0  0  0  0  0  0  0  0  0  0  0  0
   36.2120   21.2360   32.9520 C   0  0  0  0  0  0  0  0  0  0  0  0
   37.1550   21.9850   33.6320 C   0  0  0  0  0  0  0  0  0  0  0  0
   38.1320   22.9020   32.9910 C   0  0  0  0  0  0  0  0  0  0  0  0
   38.3390   22.5930   31.5140 C   0  0  0  0  0  0  0  0  0  0  0  0
   38.8010   23.9380   31.0070 C   0  0  0  0  0  0  0  0  0  0  0  0
   37.8670   24.9400   31.6820 C   0  0  0  0  0  0  0  0  0  0  0  0
   37.7070   24.3580   33.0620 C   0  0  0  0  0  0  0  0  0  0  0  0
   40.9528   22.4241   36.8872 H   0  0  0  0  0  0  0  0  0  0  0  0
   39.9695   23.6196   38.8561 H   0  0  0  0  0  0  0  0  0  0  0  0
   37.4559   23.9023   38.9367 H   0  0  0  0  0  0  0  0  0  0  0  0
   34.6640   19.8123   33.7100 H   0  0  0  0  0  0  0  0  0  0  0  0
   36.0572   21.2146   31.8632 H   0  0  0  0  0  0  0  0  0  0  0  0
   39.0598   22.7415   33.5597 H   0  0  0  0  0  0  0  0  0  0  0  0
   39.1063   21.8189   31.3658 H   0  0  0  0  0  0  0  0  0  0  0  0
   37.4506   22.1937   31.0029 H   0  0  0  0  0  0  0  0  0  0  0  0
   39.8460   24.1246   31.2954 H   0  0  0  0  0  0  0  0  0  0  0  0
   38.7669   24.0066   29.9097 H   0  0  0  0  0  0  0  0  0  0  0  0
   38.3208   25.9412   31.7230 H   0  0  0  0  0  0  0  0  0  0  0  0
   36.9136   25.0775   31.1508 H   0  0  0  0  0  0  0  0  0  0  0  0
   36.6565   24.4282   33.3805 H   0  0  0  0  0  0  0  0  0  0  0  0
   38.3219   24.9077   33.7898 H   0  0  0  0  0  0  0  0  0  0  0  0
  1  2  2  0
  2  3  1  0
  4  3  2  0
  5  4  1  0
  6  5  2  0
  6  1  1  0
  7  8  1  0
  7  5  1  0
  9  8  2  0
 10 11  2  0
 10  9  1  0
 11  7  1  0
 12 16  1  0
 12 11  1  0
 13 12  1  0
 14 13  1  0
 14 15  1  0
 15 16  1  0
  1 17  1  0
  2 18  1  0
  3 19  1  0
  9 20  1  0
 10 21  1  0
 12 22  1  0
 13 23  1  0
 13 24  1  0
 14 25  1  0
 14 26  1  0
 15 27  1  0
 15 28  1  0
 16 29  1  0
 16 30  1  0
M  ISO  8  17  14  18  14  19  14  20  14  21  14  22  13  23  13  24  13
M  ISO  6  25  13  26  13  27  13  28  13  29  13  30  13
M  END
>  <minimizedAffinity>  (1) 
-4.31763268

>  <minimizedRMSD>  (1) 
1.00191212

$$$$
