
     RDKit          3D

 29 31  0  0  0  0  0  0  0  0999 V2000
   39.9020   22.5410   36.9660 C   0  0  0  0  0  0  0  0  0  0  0  0
   39.3640   23.2210   38.0750 C   0  0  0  0  0  0  0  0  0  0  0  0
   37.9690   23.3970   38.1030 C   0  0  0  0  0  0  0  0  0  0  0  0
   37.2070   22.9130   37.0790 N   0  0  0  0  0  0  0  0  0  0  0  0
   37.7890   22.2620   36.0380 C   0  0  0  0  0  0  0  0  0  0  0  0
   39.1180   22.0780   35.9790 N   0  0  0  0  0  0  0  0  0  0  0  0
   37.0170   21.7250   34.9570 N   0  0  0  0  0  0  0  0  0  0  0  0
   36.0490   20.8520   35.1160 N   0  0  0  0  0  0  0  0  0  0  0  0
   35.5280   20.5480   33.9010 C   0  0  0  0  0  0  0  0  0  0  0  0
   36.2280   21.2840   32.9640 C   0  0  0  0  0  0  0  0  0  0  0  0
   37.1850   22.0400   33.6540 C   0  0  0  0  0  0  0  0  0  0  0  0
   38.0310   22.8880   32.9440 N   0  0  0  0  0  0  0  0  0  0  0  0
   39.2890   22.6920   32.1950 C   0  0  0  0  0  0  0  0  0  0  0  0
   38.9680   23.5900   30.9860 C   0  0  0  0  0  0  0  0  0  0  0  0
   38.6100   24.8670   31.7380 C   0  0  0  0  0  0  0  0  0  0  0  0
   37.7130   24.3030   32.8480 C   0  0  0  0  0  0  0  0  0  0  0  0
   40.9893   22.3854   36.9066 H   0  0  0  0  0  0  0  0  0  0  0  0
   40.0066   23.5982   38.8842 H   0  0  0  0  0  0  0  0  0  0  0  0
   37.4945   23.9217   38.9453 H   0  0  0  0  0  0  0  0  0  0  0  0
   34.7039   19.8478   33.6996 H   0  0  0  0  0  0  0  0  0  0  0  0
   36.0641   21.2776   31.8763 H   0  0  0  0  0  0  0  0  0  0  0  0
   40.1662   23.0474   32.7555 H   0  0  0  0  0  0  0  0  0  0  0  0
   39.5525   21.6496   31.9628 H   0  0  0  0  0  0  0  0  0  0  0  0
   38.1221   23.2052   30.3975 H   0  0  0  0  0  0  0  0  0  0  0  0
   39.7686   23.6860   30.2378 H   0  0  0  0  0  0  0  0  0  0  0  0
   39.5037   25.3586   32.1499 H   0  0  0  0  0  0  0  0  0  0  0  0
   38.1363   25.6432   31.1191 H   0  0  0  0  0  0  0  0  0  0  0  0
   37.9242   24.8073   33.8025 H   0  0  0  0  0  0  0  0  0  0  0  0
   36.6479   24.4609   32.6228 H   0  0  0  0  0  0  0  0  0  0  0  0
  1  2  2  0
  2  3  1  0
  4  3  2  0
  5  4  1  0
  6  5  2  0
  6  1  1  0
  7  8  1  0
  7  5  1  0
  9  8  2  0
 10 11  2  0
 10  9  1  0
 11  7  1  0
 12 11  1  0
 13 12  1  0
 14 15  1  0
 14 13  1  0
 15 16  1  0
 16 12  1  0
  1 17  1  0
  2 18  1  0
  3 19  1  0
  9 20  1  0
 10 21  1  0
 13 22  1  0
 13 23  1  0
 14 24  1  0
 14 25  1  0
 15 26  1  0
 15 27  1  0
 16 28  1  0
 16 29  1  0
M  ISO  8  17  14  18  14  19  14  20  14  21  14  22  13  23  13  24  13
M  ISO  5  25  13  26  13  27  13  28  13  29  13
M  END
>  <minimizedAffinity>  (1) 
-4.23441553

>  <minimizedRMSD>  (1) 
0.859695554

$$$$
