
     RDKit          3D

 29 30  0  0  0  0  0  0  0  0999 V2000
   39.8900   22.5890   37.1320 C   0  0  0  0  0  0  0  0  0  0  0  0
   39.3200   23.2940   38.2250 C   0  0  0  0  0  0  0  0  0  0  0  0
   37.9130   23.4830   38.2240 C   0  0  0  0  0  0  0  0  0  0  0  0
   37.1980   22.9800   37.1810 N   0  0  0  0  0  0  0  0  0  0  0  0
   37.7790   22.3120   36.1540 C   0  0  0  0  0  0  0  0  0  0  0  0
   39.1010   22.1310   36.1510 N   0  0  0  0  0  0  0  0  0  0  0  0
   37.0670   21.7760   35.0570 N   0  0  0  0  0  0  0  0  0  0  0  0
   36.0580   20.9140   35.2220 N   0  0  0  0  0  0  0  0  0  0  0  0
   35.5850   20.5800   33.9890 C   0  0  0  0  0  0  0  0  0  0  0  0
   36.3580   21.2840   33.0470 C   0  0  0  0  0  0  0  0  0  0  0  0
   37.2860   22.0330   33.7470 C   0  0  0  0  0  0  0  0  0  0  0  0
   38.2860   22.9160   33.1110 C   0  0  0  0  0  0  0  0  0  0  0  0
   37.9800   23.2330   31.6650 C   0  0  0  0  0  0  0  0  0  0  0  0
   38.2990   24.2950   33.7940 C   0  0  0  0  0  0  0  0  0  0  0  0
   39.6990   22.3940   33.2120 C   0  0  0  0  0  0  0  0  0  0  0  0
   40.9761   22.4195   37.0910 H   0  0  0  0  0  0  0  0  0  0  0  0
   39.9461   23.6798   39.0430 H   0  0  0  0  0  0  0  0  0  0  0  0
   37.4145   24.0212   39.0437 H   0  0  0  0  0  0  0  0  0  0  0  0
   34.7560   19.8907   33.7710 H   0  0  0  0  0  0  0  0  0  0  0  0
   36.2447   21.2455   31.9535 H   0  0  0  0  0  0  0  0  0  0  0  0
   37.2168   24.0237   31.6165 H   0  0  0  0  0  0  0  0  0  0  0  0
   38.8965   23.5768   31.1631 H   0  0  0  0  0  0  0  0  0  0  0  0
   37.6041   22.3292   31.1631 H   0  0  0  0  0  0  0  0  0  0  0  0
   38.2978   24.1633   34.8861 H   0  0  0  0  0  0  0  0  0  0  0  0
   39.2024   24.8452   33.4921 H   0  0  0  0  0  0  0  0  0  0  0  0
   37.4062   24.8622   33.4921 H   0  0  0  0  0  0  0  0  0  0  0  0
   39.9771   22.2913   34.2713 H   0  0  0  0  0  0  0  0  0  0  0  0
   39.7635   21.4127   32.7191 H   0  0  0  0  0  0  0  0  0  0  0  0
   40.3860   23.0977   32.7191 H   0  0  0  0  0  0  0  0  0  0  0  0
  1  2  2  0
  3  2  1  0
  4  3  2  0
  5  4  1  0
  6  5  2  0
  6  1  1  0
  7  8  1  0
  7  5  1  0
  9  8  2  0
 10 11  2  0
 10  9  1  0
 11  7  1  0
 12 15  1  0
 12 11  1  0
 12 14  1  0
 13 12  1  0
  1 16  1  0
  2 17  1  0
  3 18  1  0
  9 19  1  0
 10 20  1  0
 13 21  1  0
 13 22  1  0
 13 23  1  0
 14 24  1  0
 14 25  1  0
 14 26  1  0
 15 27  1  0
 15 28  1  0
 15 29  1  0
M  ISO  8  16  14  17  14  18  14  19  14  20  14  21   8  22   8  23   8
M  ISO  6  24   8  25   8  26   8  27   8  28   8  29   8
M  END
>  <minimizedAffinity>  (1) 
-4.1674509

>  <minimizedRMSD>  (1) 
0.619777203

$$$$
