
     RDKit          3D

 26 27  0  0  0  0  0  0  0  0999 V2000
   39.8810   22.6010   37.0860 C   0  0  0  0  0  0  0  0  0  0  0  0
   39.3250   23.2990   38.1630 C   0  0  0  0  0  0  0  0  0  0  0  0
   37.9330   23.4690   38.1680 C   0  0  0  0  0  0  0  0  0  0  0  0
   37.2180   22.9480   37.1350 N   0  0  0  0  0  0  0  0  0  0  0  0
   37.7930   22.2800   36.1140 C   0  0  0  0  0  0  0  0  0  0  0  0
   39.1150   22.1080   36.0910 N   0  0  0  0  0  0  0  0  0  0  0  0
   37.0490   21.7360   35.0340 N   0  0  0  0  0  0  0  0  0  0  0  0
   36.0450   20.8890   35.2080 N   0  0  0  0  0  0  0  0  0  0  0  0
   35.5470   20.5590   33.9780 C   0  0  0  0  0  0  0  0  0  0  0  0
   36.2920   21.2450   33.0260 C   0  0  0  0  0  0  0  0  0  0  0  0
   37.2430   21.9870   33.7110 C   0  0  0  0  0  0  0  0  0  0  0  0
   38.2710   22.8830   33.1240 C   0  0  0  0  0  0  0  0  0  0  0  0
   37.7690   24.3140   33.0190 C   0  0  0  0  0  0  0  0  0  0  0  0
   38.7560   22.3430   31.8090 C   0  0  0  0  0  0  0  0  0  0  0  0
   40.9700   22.4503   37.0494 H   0  0  0  0  0  0  0  0  0  0  0  0
   39.9536   23.6981   38.9726 H   0  0  0  0  0  0  0  0  0  0  0  0
   37.4329   24.0092   38.9854 H   0  0  0  0  0  0  0  0  0  0  0  0
   34.7091   19.8749   33.7782 H   0  0  0  0  0  0  0  0  0  0  0  0
   36.1536   21.2067   31.9354 H   0  0  0  0  0  0  0  0  0  0  0  0
   39.1361   22.9098   33.8029 H   0  0  0  0  0  0  0  0  0  0  0  0
   37.6242   24.7268   34.0283 H   0  0  0  0  0  0  0  0  0  0  0  0
   38.5073   24.9227   32.4764 H   0  0  0  0  0  0  0  0  0  0  0  0
   36.8123   24.3281   32.4764 H   0  0  0  0  0  0  0  0  0  0  0  0
   39.4811   21.5357   31.9891 H   0  0  0  0  0  0  0  0  0  0  0  0
   37.9028   21.9488   31.2374 H   0  0  0  0  0  0  0  0  0  0  0  0
   39.2392   23.1491   31.2374 H   0  0  0  0  0  0  0  0  0  0  0  0
  1  2  2  0
  2  3  1  0
  4  3  2  0
  5  4  1  0
  6  5  2  0
  6  1  1  0
  7  8  1  0
  7  5  1  0
  9  8  2  0
 10 11  2  0
 10  9  1  0
 11  7  1  0
 12 11  1  0
 13 12  1  0
 14 12  1  0
  1 15  1  0
  2 16  1  0
  3 17  1  0
  9 18  1  0
 10 19  1  0
 12 20  1  0
 13 21  1  0
 13 22  1  0
 13 23  1  0
 14 24  1  0
 14 25  1  0
 14 26  1  0
M  ISO  8  15  14  16  14  17  14  18  14  19  14  20   8  21   8  22   8
M  ISO  4  23   8  24   8  25   8  26   8
M  END
>  <minimizedAffinity>  (1) 
-4.02103758

>  <minimizedRMSD>  (1) 
0.667000532

$$$$
