
     RDKit          3D

 23 24  0  0  0  0  0  0  0  0999 V2000
   39.8800   22.5810   37.1520 C   0  0  0  0  0  0  0  0  0  0  0  0
   39.3210   23.3000   38.2170 C   0  0  0  0  0  0  0  0  0  0  0  0
   37.9350   23.4920   38.1850 C   0  0  0  0  0  0  0  0  0  0  0  0
   37.2080   22.9860   37.1460 N   0  0  0  0  0  0  0  0  0  0  0  0
   37.7870   22.3030   36.1480 C   0  0  0  0  0  0  0  0  0  0  0  0
   39.1240   22.0980   36.1450 N   0  0  0  0  0  0  0  0  0  0  0  0
   37.0720   21.7610   35.0520 N   0  0  0  0  0  0  0  0  0  0  0  0
   36.0560   20.9120   35.2100 N   0  0  0  0  0  0  0  0  0  0  0  0
   35.5870   20.5800   33.9770 C   0  0  0  0  0  0  0  0  0  0  0  0
   36.3640   21.2670   33.0280 C   0  0  0  0  0  0  0  0  0  0  0  0
   37.2970   22.0080   33.7390 C   0  0  0  0  0  0  0  0  0  0  0  0
   38.3810   22.9270   33.2780 C   0  0  0  0  0  0  0  0  0  0  0  0
   37.8010   24.2730   32.9730 C   0  0  0  0  0  0  0  0  0  0  0  0
   40.9658   22.4056   37.1369 H   0  0  0  0  0  0  0  0  0  0  0  0
   39.9401   23.6936   39.0366 H   0  0  0  0  0  0  0  0  0  0  0  0
   37.4345   24.0472   38.9920 H   0  0  0  0  0  0  0  0  0  0  0  0
   34.7514   19.8978   33.7616 H   0  0  0  0  0  0  0  0  0  0  0  0
   36.2537   21.2252   31.9343 H   0  0  0  0  0  0  0  0  0  0  0  0
   39.1388   23.0255   34.0692 H   0  0  0  0  0  0  0  0  0  0  0  0
   38.8478   22.5158   32.3708 H   0  0  0  0  0  0  0  0  0  0  0  0
   37.5753   24.7967   33.9136 H   0  0  0  0  0  0  0  0  0  0  0  0
   38.5256   24.8611   32.3906 H   0  0  0  0  0  0  0  0  0  0  0  0
   36.8759   24.1502   32.3906 H   0  0  0  0  0  0  0  0  0  0  0  0
  1  2  2  0
  3  2  1  0
  4  3  2  0
  5  4  1  0
  6  5  2  0
  6  1  1  0
  7  8  1  0
  7  5  1  0
  9  8  2  0
 10 11  2  0
 10  9  1  0
 11  7  1  0
 12 11  1  0
 13 12  1  0
  1 14  1  0
  2 15  1  0
  3 16  1  0
  9 17  1  0
 10 18  1  0
 12 19  1  0
 12 20  1  0
 13 21  1  0
 13 22  1  0
 13 23  1  0
M  ISO  8  14  14  15  14  16  14  17  14  18  14  19   8  20   8  21   8
M  ISO  2  22   8  23   8
M  END
>  <minimizedAffinity>  (1) 
-3.90505791

>  <minimizedRMSD>  (1) 
0.0598840415

$$$$
