
     RDKit          3D

 18 19  0  0  0  0  0  0  0  0999 V2000
   39.8880   22.5790   37.1600 C   0  0  0  0  0  0  0  0  0  0  0  0
   39.3230   23.3070   38.2150 C   0  0  0  0  0  0  0  0  0  0  0  0
   37.9310   23.5060   38.1820 C   0  0  0  0  0  0  0  0  0  0  0  0
   37.2100   22.9900   37.1430 N   0  0  0  0  0  0  0  0  0  0  0  0
   37.8050   22.2920   36.1470 C   0  0  0  0  0  0  0  0  0  0  0  0
   39.1250   22.0890   36.1530 N   0  0  0  0  0  0  0  0  0  0  0  0
   37.0720   21.7480   35.0580 N   0  0  0  0  0  0  0  0  0  0  0  0
   36.0480   20.9100   35.2040 N   0  0  0  0  0  0  0  0  0  0  0  0
   35.5860   20.5920   33.9760 C   0  0  0  0  0  0  0  0  0  0  0  0
   36.3600   21.2640   33.0410 C   0  0  0  0  0  0  0  0  0  0  0  0
   37.3160   22.0060   33.7400 C   0  0  0  0  0  0  0  0  0  0  0  0
   38.3210   22.8440   33.2780 O   0  0  0  0  0  0  0  0  0  0  0  0
   40.9735   22.4014   37.1487 H   0  0  0  0  0  0  0  0  0  0  0  0
   39.9408   23.7055   39.0333 H   0  0  0  0  0  0  0  0  0  0  0  0
   37.4296   24.0698   38.9825 H   0  0  0  0  0  0  0  0  0  0  0  0
   34.7444   19.9189   33.7556 H   0  0  0  0  0  0  0  0  0  0  0  0
   36.2425   21.2206   31.9481 H   0  0  0  0  0  0  0  0  0  0  0  0
   38.9204   23.2993   33.9210 H   0  0  0  0  0  0  0  0  0  0  0  0
  1  2  2  0
  3  2  1  0
  4  3  2  0
  5  6  2  0
  5  4  1  0
  6  1  1  0
  7  8  1  0
  7  5  1  0
  9  8  2  0
 10 11  2  0
 10  9  1  0
 11  7  1  0
 12 11  1  0
  1 13  1  0
  2 14  1  0
  3 15  1  0
  9 16  1  0
 10 17  1  0
 12 18  1  0
M  ISO  6  13  14  14  14  15  14  16  14  17  14  18   3
M  END
>  <minimizedAffinity>  (1) 
-3.90856528

>  <minimizedRMSD>  (1) 
0.0178532396

$$$$
