
     RDKit          3D

 24 26  0  0  0  0  0  0  0  0999 V2000
   39.8800   22.6090   37.0870 C   0  0  0  0  0  0  0  0  0  0  0  0
   39.3150   23.2940   38.1790 C   0  0  0  0  0  0  0  0  0  0  0  0
   37.9220   23.4520   38.1820 C   0  0  0  0  0  0  0  0  0  0  0  0
   37.1940   22.9460   37.1490 N   0  0  0  0  0  0  0  0  0  0  0  0
   37.7680   22.2990   36.1250 C   0  0  0  0  0  0  0  0  0  0  0  0
   39.1060   22.1230   36.0810 N   0  0  0  0  0  0  0  0  0  0  0  0
   37.0500   21.7580   35.0320 N   0  0  0  0  0  0  0  0  0  0  0  0
   36.0460   20.8940   35.1840 N   0  0  0  0  0  0  0  0  0  0  0  0
   35.5700   20.5670   33.9540 C   0  0  0  0  0  0  0  0  0  0  0  0
   36.3190   21.2660   33.0110 C   0  0  0  0  0  0  0  0  0  0  0  0
   37.2440   22.0080   33.7260 C   0  0  0  0  0  0  0  0  0  0  0  0
   38.2520   22.9030   33.1480 C   0  0  0  0  0  0  0  0  0  0  0  0
   38.2550   24.3520   33.3330 C   0  0  0  0  0  0  0  0  0  0  0  0
   37.6820   23.8370   32.0720 C   0  0  0  0  0  0  0  0  0  0  0  0
   40.9697   22.4641   37.0469 H   0  0  0  0  0  0  0  0  0  0  0  0
   39.9392   23.6882   38.9945 H   0  0  0  0  0  0  0  0  0  0  0  0
   37.4233   23.9785   39.0091 H   0  0  0  0  0  0  0  0  0  0  0  0
   34.7420   19.8747   33.7415 H   0  0  0  0  0  0  0  0  0  0  0  0
   36.1999   21.2350   31.9179 H   0  0  0  0  0  0  0  0  0  0  0  0
   39.0484   22.1565   33.2840 H   0  0  0  0  0  0  0  0  0  0  0  0
   37.5911   24.8034   34.0850 H   0  0  0  0  0  0  0  0  0  0  0  0
   39.0396   25.0866   33.5670 H   0  0  0  0  0  0  0  0  0  0  0  0
   38.2154   23.9792   31.1206 H   0  0  0  0  0  0  0  0  0  0  0  0
   36.7239   23.9378   31.5410 H   0  0  0  0  0  0  0  0  0  0  0  0
  1  2  2  0
  2  3  1  0
  4  3  2  0
  5  4  1  0
  6  5  2  0
  6  1  1  0
  7  8  1  0
  7  5  1  0
  9  8  2  0
 10 11  2  0
 10  9  1  0
 11  7  1  0
 12 13  1  0
 12 11  1  0
 14 12  1  0
 14 13  1  0
  1 15  1  0
  2 16  1  0
  3 17  1  0
  9 18  1  0
 10 19  1  0
 12 20  1  0
 13 21  1  0
 13 22  1  0
 14 23  1  0
 14 24  1  0
M  ISO  8  15  14  16  14  17  14  18  14  19  14  20  13  21  13  22  13
M  ISO  2  23  13  24  13
M  END
>  <minimizedAffinity>  (1) 
-4.04886246

>  <minimizedRMSD>  (1) 
0.448843509

$$$$
