
     RDKit          3D

 34 38  0  0  0  0  0  0  0  0999 V2000
   39.8070   22.6800   37.0220 C   0  0  0  0  0  0  0  0  0  0  0  0
   39.2360   23.3310   38.1270 C   0  0  0  0  0  0  0  0  0  0  0  0
   37.8370   23.4240   38.1670 C   0  0  0  0  0  0  0  0  0  0  0  0
   37.1110   22.8890   37.1540 N   0  0  0  0  0  0  0  0  0  0  0  0
   37.7000   22.2660   36.1000 C   0  0  0  0  0  0  0  0  0  0  0  0
   39.0460   22.1560   36.0250 N   0  0  0  0  0  0  0  0  0  0  0  0
   36.9660   21.7000   35.0310 N   0  0  0  0  0  0  0  0  0  0  0  0
   36.0250   20.7950   35.2100 N   0  0  0  0  0  0  0  0  0  0  0  0
   35.4980   20.4380   34.0100 C   0  0  0  0  0  0  0  0  0  0  0  0
   36.1810   21.1930   33.0460 C   0  0  0  0  0  0  0  0  0  0  0  0
   37.1080   21.9870   33.7210 C   0  0  0  0  0  0  0  0  0  0  0  0
   38.0110   22.9070   33.1070 N   0  0  0  0  0  0  0  0  0  0  0  0
   39.3180   22.8240   32.8160 C   0  0  0  0  0  0  0  0  0  0  0  0
   39.7770   23.9230   32.2370 N   0  0  0  0  0  0  0  0  0  0  0  0
   38.6910   24.7550   32.1570 C   0  0  0  0  0  0  0  0  0  0  0  0
   37.6380   24.1020   32.6960 N   0  0  0  0  0  0  0  0  0  0  0  0
   38.5520   26.0740   31.6350 N   0  0  0  0  0  0  0  0  0  0  0  0
   39.6130   26.5900   30.9690 C   0  0  0  0  0  0  0  0  0  0  0  0
   39.3020   27.8350   30.5500 N   0  0  0  0  0  0  0  0  0  0  0  0
   38.0670   28.1280   30.9330 C   0  0  0  0  0  0  0  0  0  0  0  0
   37.1480   29.1790   30.8520 C   0  0  0  0  0  0  0  0  0  0  0  0
   35.9070   29.0870   31.4050 N   0  0  0  0  0  0  0  0  0  0  0  0
   35.5430   27.9550   32.0540 C   0  0  0  0  0  0  0  0  0  0  0  0
   36.3820   26.8850   32.1770 N   0  0  0  0  0  0  0  0  0  0  0  0
   37.5910   27.0240   31.6150 C   0  0  0  0  0  0  0  0  0  0  0  0
   40.9017   22.5914   36.9612 H   0  0  0  0  0  0  0  0  0  0  0  0
   39.8605   23.7512   38.9291 H   0  0  0  0  0  0  0  0  0  0  0  0
   37.3354   23.9241   39.0086 H   0  0  0  0  0  0  0  0  0  0  0  0
   34.6976   19.7051   33.8309 H   0  0  0  0  0  0  0  0  0  0  0  0
   36.0163   21.1644   31.9588 H   0  0  0  0  0  0  0  0  0  0  0  0
   39.9386   21.9423   33.0338 H   0  0  0  0  0  0  0  0  0  0  0  0
   40.5714   26.0780   30.7977 H   0  0  0  0  0  0  0  0  0  0  0  0
   37.4347   30.1030   30.3286 H   0  0  0  0  0  0  0  0  0  0  0  0
   34.5378   27.8959   32.4967 H   0  0  0  0  0  0  0  0  0  0  0  0
  1  2  2  0
  2  3  1  0
  4  3  2  0
  5  4  1  0
  6  5  2  0
  6  1  1  0
  7  8  1  0
  7  5  1  0
  9  8  2  0
 10 11  2  0
 10  9  1  0
 11  7  1  0
 12 11  1  0
 13 12  1  0
 14 13  2  0
 15 14  1  0
 15 16  2  0
 16 12  1  0
 17 15  1  0
 18 17  1  0
 19 20  1  0
 19 18  2  0
 20 25  2  0
 21 20  1  0
 21 22  2  0
 22 23  1  0
 23 24  2  0
 25 17  1  0
 25 24  1  0
  1 26  1  0
  2 27  1  0
  3 28  1  0
  9 29  1  0
 10 30  1  0
 13 31  1  0
 18 32  1  0
 21 33  1  0
 23 34  1  0
M  ISO  8  26  14  27  14  28  14  29  14  30  14  31  14  32  14  33  14
M  ISO  1  34  14
M  END
>  <minimizedAffinity>  (1) 
-5.97633791

>  <minimizedRMSD>  (1) 
1.03283119

$$$$
