
     RDKit          3D

 36 40  0  0  0  0  0  0  0  0999 V2000
   38.1510   22.8000   33.1990 N   0  0  0  0  0  0  0  0  0  0  0  0
   39.5070   22.8030   33.1920 C   0  0  0  0  0  0  0  0  0  0  0  0
   39.9900   23.8030   32.4510 N   0  0  0  0  0  0  0  0  0  0  0  0
   38.9040   24.4490   31.9770 C   0  0  0  0  0  0  0  0  0  0  0  0
   37.8100   23.8190   32.4480 N   0  0  0  0  0  0  0  0  0  0  0  0
   39.0330   25.5900   31.1340 N   0  0  0  0  0  0  0  0  0  0  0  0
   38.8430   26.8270   31.6320 C   0  0  0  0  0  0  0  0  0  0  0  0
   39.0010   27.7950   30.7100 N   0  0  0  0  0  0  0  0  0  0  0  0
   39.3110   27.1340   29.5600 C   0  0  0  0  0  0  0  0  0  0  0  0
   39.6000   27.4590   28.2410 C   0  0  0  0  0  0  0  0  0  0  0  0
   39.8690   26.5090   27.3340 N   0  0  0  0  0  0  0  0  0  0  0  0
   39.8740   25.1910   27.6520 C   0  0  0  0  0  0  0  0  0  0  0  0
   39.5970   24.8030   28.9320 N   0  0  0  0  0  0  0  0  0  0  0  0
   39.3270   25.7840   29.8360 C   0  0  0  0  0  0  0  0  0  0  0  0
   39.8840   22.6830   37.1550 C   0  0  0  0  0  0  0  0  0  0  0  0
   39.3280   23.4050   38.2120 C   0  0  0  0  0  0  0  0  0  0  0  0
   37.9410   23.5610   38.2310 C   0  0  0  0  0  0  0  0  0  0  0  0
   37.1990   23.0050   37.2240 N   0  0  0  0  0  0  0  0  0  0  0  0
   37.7830   22.3090   36.2130 C   0  0  0  0  0  0  0  0  0  0  0  0
   39.1200   22.1420   36.1670 N   0  0  0  0  0  0  0  0  0  0  0  0
   37.0410   21.7210   35.1530 N   0  0  0  0  0  0  0  0  0  0  0  0
   36.0680   20.8590   35.3680 N   0  0  0  0  0  0  0  0  0  0  0  0
   35.5450   20.4700   34.1760 C   0  0  0  0  0  0  0  0  0  0  0  0
   36.2710   21.1600   33.1810 C   0  0  0  0  0  0  0  0  0  0  0  0
   37.2130   21.9460   33.8340 C   0  0  0  0  0  0  0  0  0  0  0  0
   39.5970   28.8460   27.9000 N   0  0  0  0  0  0  0  0  0  0  0  0
   40.1306   22.0733   33.7293 H   0  0  0  0  0  0  0  0  0  0  0  0
   38.5855   27.0256   32.6828 H   0  0  0  0  0  0  0  0  0  0  0  0
   40.1000   24.4378   26.8829 H   0  0  0  0  0  0  0  0  0  0  0  0
   40.9749   22.5467   37.1192 H   0  0  0  0  0  0  0  0  0  0  0  0
   39.9604   23.8359   39.0022 H   0  0  0  0  0  0  0  0  0  0  0  0
   37.4524   24.1214   39.0417 H   0  0  0  0  0  0  0  0  0  0  0  0
   34.7205   19.7593   34.0177 H   0  0  0  0  0  0  0  0  0  0  0  0
   36.1196   21.0889   32.0938 H   0  0  0  0  0  0  0  0  0  0  0  0
   39.8051   29.1395   26.9349 H   0  0  0  0  0  0  0  0  0  0  0  0
   39.3867   29.5527   28.6192 H   0  0  0  0  0  0  0  0  0  0  0  0
  1 25  1  0
  2  1  1  0
  3  2  2  0
  4  5  2  0
  4  3  1  0
  5  1  1  0
  6  7  1  0
  6  4  1  0
  8  7  2  0
  9 14  2  0
  9  8  1  0
 10  9  1  0
 11 12  1  0
 11 10  2  0
 12 13  2  0
 13 14  1  0
 14  6  1  0
 15 16  2  0
 16 17  1  0
 18 17  2  0
 19 18  1  0
 20 19  2  0
 20 15  1  0
 21 22  1  0
 21 19  1  0
 23 22  2  0
 24 25  2  0
 24 23  1  0
 25 21  1  0
 26 10  1  0
  2 27  1  0
  7 28  1  0
 12 29  1  0
 15 30  1  0
 16 31  1  0
 17 32  1  0
 23 33  1  0
 24 34  1  0
 26 35  1  0
 26 36  1  0
M  ISO  8  27  14  28  14  29  14  30  14  31  14  32  14  33  14  34  14
M  END
>  <minimizedAffinity>  (1) 
-5.75404263

>  <minimizedRMSD>  (1) 
1.52581596

$$$$
