
     RDKit          3D

 36 39  0  0  0  0  0  0  0  0999 V2000
   39.8340   22.7020   37.1420 C   0  0  0  0  0  0  0  0  0  0  0  0
   39.2230   23.2820   38.2570 C   0  0  0  0  0  0  0  0  0  0  0  0
   37.8240   23.3650   38.2650 C   0  0  0  0  0  0  0  0  0  0  0  0
   37.1380   22.8780   37.1960 N   0  0  0  0  0  0  0  0  0  0  0  0
   37.7690   22.3220   36.1310 C   0  0  0  0  0  0  0  0  0  0  0  0
   39.1070   22.2310   36.0970 N   0  0  0  0  0  0  0  0  0  0  0  0
   37.0730   21.8080   35.0050 N   0  0  0  0  0  0  0  0  0  0  0  0
   36.1360   20.8920   35.0950 N   0  0  0  0  0  0  0  0  0  0  0  0
   35.6500   20.5930   33.8700 C   0  0  0  0  0  0  0  0  0  0  0  0
   36.3590   21.4030   32.9690 C   0  0  0  0  0  0  0  0  0  0  0  0
   37.2540   22.1610   33.7260 C   0  0  0  0  0  0  0  0  0  0  0  0
   38.1670   23.1170   33.1880 N   0  0  0  0  0  0  0  0  0  0  0  0
   39.2620   23.7100   33.6980 C   0  0  0  0  0  0  0  0  0  0  0  0
   39.8140   24.5550   32.8160 N   0  0  0  0  0  0  0  0  0  0  0  0
   39.0290   24.4860   31.7110 C   0  0  0  0  0  0  0  0  0  0  0  0
   38.0480   23.6170   31.9600 N   0  0  0  0  0  0  0  0  0  0  0  0
   39.3510   25.2790   30.5740 N   0  0  0  0  0  0  0  0  0  0  0  0
   39.7770   26.5550   30.5660 C   0  0  0  0  0  0  0  0  0  0  0  0
   40.0560   27.2120   29.4000 C   0  0  0  0  0  0  0  0  0  0  0  0
   40.5250   28.6210   29.4240 C   0  0  0  0  0  0  0  0  0  0  0  0
   39.9160   26.6000   28.1720 C   0  0  0  0  0  0  0  0  0  0  0  0
   40.1590   27.1610   27.0690 O   0  0  0  0  0  0  0  0  0  0  0  0
   39.4840   25.3110   28.2100 N   0  0  0  0  0  0  0  0  0  0  0  0
   39.2040   24.6520   29.3710 C   0  0  0  0  0  0  0  0  0  0  0  0
   38.8150   23.4650   29.2250 O   0  0  0  0  0  0  0  0  0  0  0  0
   40.9309   22.6253   37.1104 H   0  0  0  0  0  0  0  0  0  0  0  0
   39.8199   23.6606   39.0998 H   0  0  0  0  0  0  0  0  0  0  0  0
   37.2924   23.8140   39.1169 H   0  0  0  0  0  0  0  0  0  0  0  0
   34.8614   19.8650   33.6287 H   0  0  0  0  0  0  0  0  0  0  0  0
   36.2335   21.4344   31.8766 H   0  0  0  0  0  0  0  0  0  0  0  0
   39.6539   23.5250   34.7091 H   0  0  0  0  0  0  0  0  0  0  0  0
   39.9041   27.0834   31.5224 H   0  0  0  0  0  0  0  0  0  0  0  0
   40.6355   28.9529   30.4669 H   0  0  0  0  0  0  0  0  0  0  0  0
   41.4956   28.6932   28.9114 H   0  0  0  0  0  0  0  0  0  0  0  0
   39.7913   29.2605   28.9114 H   0  0  0  0  0  0  0  0  0  0  0  0
   39.3624   24.8082   27.3193 H   0  0  0  0  0  0  0  0  0  0  0  0
  1  2  2  0
  2  3  1  0
  4  3  2  0
  5  4  1  0
  6  5  2  0
  6  1  1  0
  7  8  1  0
  7  5  1  0
  9  8  2  0
 10 11  2  0
 10  9  1  0
 11  7  1  0
 12 13  1  0
 12 11  1  0
 14 13  2  0
 15 16  2  0
 15 14  1  0
 16 12  1  0
 17 15  1  0
 18 17  1  0
 19 20  1  0
 19 18  2  0
 21 23  1  0
 21 19  1  0
 22 21  2  0
 23 24  1  0
 24 17  1  0
 25 24  2  0
  1 26  1  0
  2 27  1  0
  3 28  1  0
  9 29  1  0
 10 30  1  0
 13 31  1  0
 18 32  1  0
 20 33  1  0
 20 34  1  0
 20 35  1  0
 23 36  1  0
M  ISO  8  26  14  27  14  28  14  29  14  30  14  31  14  32  14  33   8
M  ISO  3  34   8  35   8  36   9
M  END
>  <minimizedAffinity>  (1) 
-5.68964005

>  <minimizedRMSD>  (1) 
2.23307967

$$$$
