
     RDKit          3D

 38 41  0  0  0  0  0  0  0  0999 V2000
   39.7510   22.6870   36.9500 C   0  0  0  0  0  0  0  0  0  0  0  0
   39.1930   23.3200   38.0570 C   0  0  0  0  0  0  0  0  0  0  0  0
   37.8030   23.3850   38.1260 C   0  0  0  0  0  0  0  0  0  0  0  0
   37.0690   22.8330   37.1230 N   0  0  0  0  0  0  0  0  0  0  0  0
   37.6400   22.2230   36.0580 C   0  0  0  0  0  0  0  0  0  0  0  0
   38.9820   22.1520   35.9740 N   0  0  0  0  0  0  0  0  0  0  0  0
   36.9080   21.6410   35.0000 N   0  0  0  0  0  0  0  0  0  0  0  0
   35.9880   20.7090   35.1870 N   0  0  0  0  0  0  0  0  0  0  0  0
   35.4610   20.3430   34.0120 C   0  0  0  0  0  0  0  0  0  0  0  0
   36.1080   21.1100   33.0380 C   0  0  0  0  0  0  0  0  0  0  0  0
   37.0260   21.9300   33.6950 C   0  0  0  0  0  0  0  0  0  0  0  0
   37.8920   22.8670   33.0690 N   0  0  0  0  0  0  0  0  0  0  0  0
   39.1480   22.7490   32.5990 C   0  0  0  0  0  0  0  0  0  0  0  0
   39.5850   23.9060   32.0800 N   0  0  0  0  0  0  0  0  0  0  0  0
   38.5580   24.7660   32.2360 C   0  0  0  0  0  0  0  0  0  0  0  0
   37.5510   24.1260   32.8310 N   0  0  0  0  0  0  0  0  0  0  0  0
   38.6230   26.1160   31.8090 N   0  0  0  0  0  0  0  0  0  0  0  0
   38.8520   26.4200   30.4090 C   0  0  0  0  0  0  0  0  0  0  0  0
   38.9180   27.8850   30.1380 C   0  0  0  0  0  0  0  0  0  0  0  0
   37.7350   28.6280   30.7050 C   0  0  0  0  0  0  0  0  0  0  0  0
   37.3510   28.0960   32.0630 C   0  0  0  0  0  0  0  0  0  0  0  0
   38.4810   27.2690   32.6470 C   0  0  0  0  0  0  0  0  0  0  0  0
   40.8458   22.6200   36.8666 H   0  0  0  0  0  0  0  0  0  0  0  0
   39.8250   23.7522   38.8468 H   0  0  0  0  0  0  0  0  0  0  0  0
   37.3076   23.8746   38.9774 H   0  0  0  0  0  0  0  0  0  0  0  0
   34.6765   19.5900   33.8460 H   0  0  0  0  0  0  0  0  0  0  0  0
   35.9266   21.0736   31.9537 H   0  0  0  0  0  0  0  0  0  0  0  0
   39.7399   21.8226   32.6359 H   0  0  0  0  0  0  0  0  0  0  0  0
   39.8039   25.9626   30.1014 H   0  0  0  0  0  0  0  0  0  0  0  0
   38.0019   26.0163   29.8395 H   0  0  0  0  0  0  0  0  0  0  0  0
   39.8370   28.2868   30.5896 H   0  0  0  0  0  0  0  0  0  0  0  0
   38.9106   28.0250   29.0470 H   0  0  0  0  0  0  0  0  0  0  0  0
   37.9923   29.6935   30.7976 H   0  0  0  0  0  0  0  0  0  0  0  0
   36.8813   28.4905   30.0251 H   0  0  0  0  0  0  0  0  0  0  0  0
   37.1349   28.9398   32.7348 H   0  0  0  0  0  0  0  0  0  0  0  0
   36.4606   27.4587   31.9574 H   0  0  0  0  0  0  0  0  0  0  0  0
   38.2349   26.9629   33.6745 H   0  0  0  0  0  0  0  0  0  0  0  0
   39.4157   27.8476   32.6856 H   0  0  0  0  0  0  0  0  0  0  0  0
  1  2  2  0
  2  3  1  0
  4  3  2  0
  5  4  1  0
  6  5  2  0
  6  1  1  0
  7  8  1  0
  7  5  1  0
  9  8  2  0
 10 11  2  0
 10  9  1  0
 11  7  1  0
 12 11  1  0
 13 12  1  0
 14 15  1  0
 14 13  2  0
 15 16  2  0
 16 12  1  0
 17 15  1  0
 17 22  1  0
 18 17  1  0
 19 18  1  0
 19 20  1  0
 20 21  1  0
 21 22  1  0
  1 23  1  0
  2 24  1  0
  3 25  1  0
  9 26  1  0
 10 27  1  0
 13 28  1  0
 18 29  1  0
 18 30  1  0
 19 31  1  0
 19 32  1  0
 20 33  1  0
 20 34  1  0
 21 35  1  0
 21 36  1  0
 22 37  1  0
 22 38  1  0
M  ISO  8  23  14  24  14  25  14  26  14  27  14  28  14  29  13  30  13
M  ISO  8  31  13  32  13  33  13  34  13  35  13  36  13  37  13  38  13
M  END
>  <minimizedAffinity>  (1) 
-5.49394178

>  <minimizedRMSD>  (1) 
0.627345324

$$$$
