
     RDKit          3D

 39 42  0  0  0  0  0  0  0  0999 V2000
   39.8970   22.6670   37.1710 C   0  0  0  0  0  0  0  0  0  0  0  0
   39.3300   23.3880   38.2380 C   0  0  0  0  0  0  0  0  0  0  0  0
   37.9430   23.5480   38.2380 C   0  0  0  0  0  0  0  0  0  0  0  0
   37.2150   23.0090   37.2270 N   0  0  0  0  0  0  0  0  0  0  0  0
   37.7810   22.3230   36.2170 C   0  0  0  0  0  0  0  0  0  0  0  0
   39.1240   22.1430   36.1760 N   0  0  0  0  0  0  0  0  0  0  0  0
   37.0500   21.7450   35.1430 N   0  0  0  0  0  0  0  0  0  0  0  0
   36.0670   20.8870   35.3490 N   0  0  0  0  0  0  0  0  0  0  0  0
   35.5540   20.5020   34.1620 C   0  0  0  0  0  0  0  0  0  0  0  0
   36.2900   21.1860   33.1760 C   0  0  0  0  0  0  0  0  0  0  0  0
   37.2330   21.9670   33.8360 C   0  0  0  0  0  0  0  0  0  0  0  0
   38.1880   22.8220   33.2100 N   0  0  0  0  0  0  0  0  0  0  0  0
   39.5060   22.6630   32.9730 C   0  0  0  0  0  0  0  0  0  0  0  0
   40.0250   23.7270   32.3550 N   0  0  0  0  0  0  0  0  0  0  0  0
   38.9800   24.5910   32.1990 C   0  0  0  0  0  0  0  0  0  0  0  0
   37.9000   24.0040   32.7280 N   0  0  0  0  0  0  0  0  0  0  0  0
   39.0930   25.9040   31.5590 C   0  0  0  0  0  0  0  0  0  0  0  0
   39.8820   25.9090   30.2770 C   0  0  0  0  0  0  0  0  0  0  0  0
   39.3490   27.0970   29.4700 C   0  0  0  0  0  0  0  0  0  0  0  0
   38.9270   28.2430   30.3550 C   0  0  0  0  0  0  0  0  0  0  0  0
   37.6570   27.8860   31.0790 C   0  0  0  0  0  0  0  0  0  0  0  0
   37.6660   26.3860   31.2750 C   0  0  0  0  0  0  0  0  0  0  0  0
   40.9870   22.5226   37.1382 H   0  0  0  0  0  0  0  0  0  0  0  0
   39.9544   23.8087   39.0399 H   0  0  0  0  0  0  0  0  0  0  0  0
   37.4465   24.1038   39.0470 H   0  0  0  0  0  0  0  0  0  0  0  0
   34.7269   19.7956   33.9977 H   0  0  0  0  0  0  0  0  0  0  0  0
   36.1463   21.1160   32.0877 H   0  0  0  0  0  0  0  0  0  0  0  0
   40.0816   21.7686   33.2537 H   0  0  0  0  0  0  0  0  0  0  0  0
   39.6454   26.5642   32.2439 H   0  0  0  0  0  0  0  0  0  0  0  0
   40.9542   26.0372   30.4865 H   0  0  0  0  0  0  0  0  0  0  0  0
   39.7726   24.9621   29.7280 H   0  0  0  0  0  0  0  0  0  0  0  0
   40.1398   27.4469   28.7902 H   0  0  0  0  0  0  0  0  0  0  0  0
   38.4638   26.7569   28.9126 H   0  0  0  0  0  0  0  0  0  0  0  0
   39.7202   28.4493   31.0887 H   0  0  0  0  0  0  0  0  0  0  0  0
   38.7540   29.1357   29.7360 H   0  0  0  0  0  0  0  0  0  0  0  0
   37.6224   28.3941   32.0540 H   0  0  0  0  0  0  0  0  0  0  0  0
   36.7748   28.2012   30.5025 H   0  0  0  0  0  0  0  0  0  0  0  0
   37.0175   26.1255   32.1245 H   0  0  0  0  0  0  0  0  0  0  0  0
   37.2954   25.8997   30.3606 H   0  0  0  0  0  0  0  0  0  0  0  0
  1  2  2  0
  3  2  1  0
  4  3  2  0
  5  4  1  0
  6  5  2  0
  6  1  1  0
  7  8  1  0
  7  5  1  0
  9  8  2  0
 10 11  2  0
 10  9  1  0
 11  7  1  0
 12 11  1  0
 13 12  1  0
 14 13  2  0
 15 14  1  0
 15 16  2  0
 16 12  1  0
 17 15  1  0
 18 17  1  0
 19 18  1  0
 19 20  1  0
 20 21  1  0
 21 22  1  0
 22 17  1  0
  1 23  1  0
  2 24  1  0
  3 25  1  0
  9 26  1  0
 10 27  1  0
 13 28  1  0
 17 29  1  0
 18 30  1  0
 18 31  1  0
 19 32  1  0
 19 33  1  0
 20 34  1  0
 20 35  1  0
 21 36  1  0
 21 37  1  0
 22 38  1  0
 22 39  1  0
M  ISO  8  23  14  24  14  25  14  26  14  27  14  28  14  29  13  30  13
M  ISO  8  31  13  32  13  33  13  34  13  35  13  36  13  37  13  38  13
M  ISO  1  39  13
M  END
>  <minimizedAffinity>  (1) 
-5.08343554

>  <minimizedRMSD>  (1) 
0.693990171

$$$$
