
     RDKit          3D

 33 36  0  0  0  0  0  0  0  0999 V2000
   39.8870   22.6660   37.0840 C   0  0  0  0  0  0  0  0  0  0  0  0
   39.3400   23.3680   38.1560 C   0  0  0  0  0  0  0  0  0  0  0  0
   37.9430   23.5150   38.1940 C   0  0  0  0  0  0  0  0  0  0  0  0
   37.2020   22.9670   37.1900 N   0  0  0  0  0  0  0  0  0  0  0  0
   37.7730   22.2870   36.1570 C   0  0  0  0  0  0  0  0  0  0  0  0
   39.1130   22.1350   36.1010 N   0  0  0  0  0  0  0  0  0  0  0  0
   37.0160   21.7090   35.1000 N   0  0  0  0  0  0  0  0  0  0  0  0
   36.0520   20.8460   35.3100 N   0  0  0  0  0  0  0  0  0  0  0  0
   35.5150   20.4710   34.1270 C   0  0  0  0  0  0  0  0  0  0  0  0
   36.2310   21.1770   33.1440 C   0  0  0  0  0  0  0  0  0  0  0  0
   37.1760   21.9550   33.7770 C   0  0  0  0  0  0  0  0  0  0  0  0
   38.1120   22.8240   33.1480 N   0  0  0  0  0  0  0  0  0  0  0  0
   39.4320   22.6870   32.9100 C   0  0  0  0  0  0  0  0  0  0  0  0
   39.9230   23.7620   32.2860 N   0  0  0  0  0  0  0  0  0  0  0  0
   38.8580   24.6050   32.1280 C   0  0  0  0  0  0  0  0  0  0  0  0
   37.7850   24.0020   32.6620 N   0  0  0  0  0  0  0  0  0  0  0  0
   38.9670   25.9110   31.4810 C   0  0  0  0  0  0  0  0  0  0  0  0
   37.7000   26.4940   31.3510 C   0  0  0  0  0  0  0  0  0  0  0  0
   37.5820   27.7540   30.7550 C   0  0  0  0  0  0  0  0  0  0  0  0
   38.6880   28.4360   30.2890 C   0  0  0  0  0  0  0  0  0  0  0  0
   39.9150   27.8210   30.4390 C   0  0  0  0  0  0  0  0  0  0  0  0
   40.0720   26.5900   31.0180 C   0  0  0  0  0  0  0  0  0  0  0  0
   40.9782   22.5376   37.0316 H   0  0  0  0  0  0  0  0  0  0  0  0
   39.9790   23.7921   38.9446 H   0  0  0  0  0  0  0  0  0  0  0  0
   37.4578   24.0608   39.0166 H   0  0  0  0  0  0  0  0  0  0  0  0
   34.6899   19.7614   33.9669 H   0  0  0  0  0  0  0  0  0  0  0  0
   36.0655   21.1184   32.0581 H   0  0  0  0  0  0  0  0  0  0  0  0
   40.0269   21.8059   33.1924 H   0  0  0  0  0  0  0  0  0  0  0  0
   36.8061   25.9659   31.7142 H   0  0  0  0  0  0  0  0  0  0  0  0
   36.5865   28.2112   30.6555 H   0  0  0  0  0  0  0  0  0  0  0  0
   38.5958   29.4261   29.8187 H   0  0  0  0  0  0  0  0  0  0  0  0
   40.8108   28.3458   30.0754 H   0  0  0  0  0  0  0  0  0  0  0  0
   41.0742   26.1465   31.1126 H   0  0  0  0  0  0  0  0  0  0  0  0
  1  2  2  0
  2  3  1  0
  4  3  2  0
  5  4  1  0
  6  5  2  0
  6  1  1  0
  7  8  1  0
  7  5  1  0
  9  8  2  0
 10 11  2  0
 10  9  1  0
 11  7  1  0
 12 11  1  0
 13 12  1  0
 14 13  2  0
 15 14  1  0
 15 16  2  0
 16 12  1  0
 17 15  1  0
 18 17  2  0
 19 18  1  0
 20 21  1  0
 20 19  2  0
 21 22  2  0
 22 17  1  0
  1 23  1  0
  2 24  1  0
  3 25  1  0
  9 26  1  0
 10 27  1  0
 13 28  1  0
 18 29  1  0
 19 30  1  0
 20 31  1  0
 21 32  1  0
 22 33  1  0
M  ISO  8  23  14  24  14  25  14  26  14  27  14  28  14  29  14  30  14
M  ISO  3  31  14  32  14  33  14
M  END
>  <minimizedAffinity>  (1) 
-5.09907532

>  <minimizedRMSD>  (1) 
0.741072834

$$$$
