
     RDKit          3D

 35 37  0  0  0  0  0  0  0  0999 V2000
   39.8220   22.7050   37.1260 C   0  0  0  0  0  0  0  0  0  0  0  0
   39.2080   23.2550   38.2590 C   0  0  0  0  0  0  0  0  0  0  0  0
   37.8190   23.3200   38.2840 C   0  0  0  0  0  0  0  0  0  0  0  0
   37.1200   22.8480   37.2120 N   0  0  0  0  0  0  0  0  0  0  0  0
   37.7450   22.3200   36.1270 C   0  0  0  0  0  0  0  0  0  0  0  0
   39.0920   22.2460   36.0790 N   0  0  0  0  0  0  0  0  0  0  0  0
   37.0430   21.8210   34.9980 N   0  0  0  0  0  0  0  0  0  0  0  0
   36.1180   20.8830   35.0850 N   0  0  0  0  0  0  0  0  0  0  0  0
   35.6320   20.6180   33.8580 C   0  0  0  0  0  0  0  0  0  0  0  0
   36.3200   21.4650   32.9560 C   0  0  0  0  0  0  0  0  0  0  0  0
   37.2010   22.2110   33.7100 C   0  0  0  0  0  0  0  0  0  0  0  0
   38.0930   23.1920   33.2040 N   0  0  0  0  0  0  0  0  0  0  0  0
   39.1630   23.1150   32.3870 C   0  0  0  0  0  0  0  0  0  0  0  0
   39.7210   24.3000   32.1670 N   0  0  0  0  0  0  0  0  0  0  0  0
   38.9750   25.1780   32.8730 C   0  0  0  0  0  0  0  0  0  0  0  0
   37.9980   24.4830   33.4910 N   0  0  0  0  0  0  0  0  0  0  0  0
   39.1370   26.6500   32.9970 C   0  0  0  0  0  0  0  0  0  0  0  0
   39.6600   26.9480   34.3740 C   0  0  0  0  0  0  0  0  0  0  0  0
   40.0580   27.1960   31.9180 C   0  0  0  0  0  0  0  0  0  0  0  0
   37.8070   27.3590   32.7620 C   0  0  0  0  0  0  0  0  0  0  0  0
   40.9195   22.6441   37.0847 H   0  0  0  0  0  0  0  0  0  0  0  0
   39.8072   23.6246   39.1042 H   0  0  0  0  0  0  0  0  0  0  0  0
   37.2937   23.7443   39.1524 H   0  0  0  0  0  0  0  0  0  0  0  0
   34.8515   19.8853   33.6051 H   0  0  0  0  0  0  0  0  0  0  0  0
   36.1792   21.5177   31.8663 H   0  0  0  0  0  0  0  0  0  0  0  0
   39.5327   22.1751   31.9511 H   0  0  0  0  0  0  0  0  0  0  0  0
   38.9620   26.5503   35.1254 H   0  0  0  0  0  0  0  0  0  0  0  0
   40.6451   26.4756   34.5023 H   0  0  0  0  0  0  0  0  0  0  0  0
   39.7558   28.0363   34.5023 H   0  0  0  0  0  0  0  0  0  0  0  0
   40.9134   27.7031   32.3882 H   0  0  0  0  0  0  0  0  0  0  0  0
   40.4216   26.3674   31.2925 H   0  0  0  0  0  0  0  0  0  0  0  0
   39.5055   27.9126   31.2925 H   0  0  0  0  0  0  0  0  0  0  0  0
   37.3463   27.6046   33.7302 H   0  0  0  0  0  0  0  0  0  0  0  0
   37.9803   28.2844   32.1932 H   0  0  0  0  0  0  0  0  0  0  0  0
   37.1353   26.6993   32.1932 H   0  0  0  0  0  0  0  0  0  0  0  0
  1  2  2  0
  2  3  1  0
  4  3  2  0
  5  4  1  0
  6  5  2  0
  6  1  1  0
  7  8  1  0
  7  5  1  0
  9  8  2  0
 10 11  2  0
 10  9  1  0
 11  7  1  0
 12 16  1  0
 12 11  1  0
 13 12  1  0
 14 13  2  0
 14 15  1  0
 15 17  1  0
 15 16  2  0
 17 18  1  0
 19 17  1  0
 20 17  1  0
  1 21  1  0
  2 22  1  0
  3 23  1  0
  9 24  1  0
 10 25  1  0
 13 26  1  0
 18 27  1  0
 18 28  1  0
 18 29  1  0
 19 30  1  0
 19 31  1  0
 19 32  1  0
 20 33  1  0
 20 34  1  0
 20 35  1  0
M  ISO  8  21  14  22  14  23  14  24  14  25  14  26  14  27   8  28   8
M  ISO  7  29   8  30   8  31   8  32   8  33   8  34   8  35   8
M  END
>  <minimizedAffinity>  (1) 
-5.10981464

>  <minimizedRMSD>  (1) 
0.46177426

$$$$
