
     RDKit          3D

 30 33  0  0  0  0  0  0  0  0999 V2000
   39.9010   22.6360   37.1190 C   0  0  0  0  0  0  0  0  0  0  0  0
   39.3650   23.3690   38.1720 C   0  0  0  0  0  0  0  0  0  0  0  0
   37.9690   23.5470   38.1860 C   0  0  0  0  0  0  0  0  0  0  0  0
   37.2120   23.0040   37.1860 N   0  0  0  0  0  0  0  0  0  0  0  0
   37.7840   22.2930   36.1780 C   0  0  0  0  0  0  0  0  0  0  0  0
   39.1270   22.1090   36.1410 N   0  0  0  0  0  0  0  0  0  0  0  0
   37.0350   21.7120   35.1200 N   0  0  0  0  0  0  0  0  0  0  0  0
   36.0420   20.8700   35.3340 N   0  0  0  0  0  0  0  0  0  0  0  0
   35.5140   20.4800   34.1550 C   0  0  0  0  0  0  0  0  0  0  0  0
   36.2560   21.1460   33.1650 C   0  0  0  0  0  0  0  0  0  0  0  0
   37.2140   21.9220   33.7980 C   0  0  0  0  0  0  0  0  0  0  0  0
   38.1720   22.7530   33.1650 N   0  0  0  0  0  0  0  0  0  0  0  0
   39.4860   22.5720   32.9070 C   0  0  0  0  0  0  0  0  0  0  0  0
   40.0080   23.6200   32.2870 N   0  0  0  0  0  0  0  0  0  0  0  0
   38.9880   24.4980   32.1450 C   0  0  0  0  0  0  0  0  0  0  0  0
   37.8830   23.9460   32.6870 N   0  0  0  0  0  0  0  0  0  0  0  0
   39.1440   25.8000   31.5020 C   0  0  0  0  0  0  0  0  0  0  0  0
   39.2490   27.1070   31.9300 C   0  0  0  0  0  0  0  0  0  0  0  0
   39.3780   27.8510   30.7680 C   0  0  0  0  0  0  0  0  0  0  0  0
   39.3460   26.9820   29.6960 C   0  0  0  0  0  0  0  0  0  0  0  0
   39.2050   25.7690   30.1840 O   0  0  0  0  0  0  0  0  0  0  0  0
   40.9890   22.4792   37.0792 H   0  0  0  0  0  0  0  0  0  0  0  0
   40.0049   23.7918   38.9606 H   0  0  0  0  0  0  0  0  0  0  0  0
   37.4910   24.1185   38.9953 H   0  0  0  0  0  0  0  0  0  0  0  0
   34.6759   19.7844   34.0008 H   0  0  0  0  0  0  0  0  0  0  0  0
   36.1034   21.0656   32.0786 H   0  0  0  0  0  0  0  0  0  0  0  0
   40.0513   21.6680   33.1778 H   0  0  0  0  0  0  0  0  0  0  0  0
   39.2337   27.4773   32.9657 H   0  0  0  0  0  0  0  0  0  0  0  0
   39.4870   28.9441   30.7100 H   0  0  0  0  0  0  0  0  0  0  0  0
   39.4238   27.2533   28.6328 H   0  0  0  0  0  0  0  0  0  0  0  0
  1  2  2  0
  2  3  1  0
  4  3  2  0
  5  4  1  0
  6  5  2  0
  6  1  1  0
  7  8  1  0
  7  5  1  0
  9  8  2  0
 10 11  2  0
 10  9  1  0
 11  7  1  0
 12 11  1  0
 13 12  1  0
 14 13  2  0
 15 14  1  0
 15 16  2  0
 16 12  1  0
 17 18  2  0
 17 15  1  0
 19 18  1  0
 20 21  1  0
 20 19  2  0
 21 17  1  0
  1 22  1  0
  2 23  1  0
  3 24  1  0
  9 25  1  0
 10 26  1  0
 13 27  1  0
 18 28  1  0
 19 29  1  0
 20 30  1  0
M  ISO  8  22  14  23  14  24  14  25  14  26  14  27  14  28  14  29  14
M  ISO  1  30  14
M  END
>  <minimizedAffinity>  (1) 
-4.83800983

>  <minimizedRMSD>  (1) 
0.656819463

$$$$
