
     RDKit          3D

 29 31  0  0  0  0  0  0  0  0999 V2000
   39.8270   22.6750   37.1020 C   0  0  0  0  0  0  0  0  0  0  0  0
   39.2380   23.2640   38.2180 C   0  0  0  0  0  0  0  0  0  0  0  0
   37.8380   23.3580   38.2360 C   0  0  0  0  0  0  0  0  0  0  0  0
   37.1270   22.8790   37.1800 N   0  0  0  0  0  0  0  0  0  0  0  0
   37.7480   22.3130   36.1140 C   0  0  0  0  0  0  0  0  0  0  0  0
   39.0860   22.2070   36.0650 N   0  0  0  0  0  0  0  0  0  0  0  0
   37.0390   21.8000   34.9870 N   0  0  0  0  0  0  0  0  0  0  0  0
   36.1020   20.8810   35.0950 N   0  0  0  0  0  0  0  0  0  0  0  0
   35.6090   20.5880   33.8750 C   0  0  0  0  0  0  0  0  0  0  0  0
   36.3050   21.3990   32.9650 C   0  0  0  0  0  0  0  0  0  0  0  0
   37.2040   22.1560   33.6940 C   0  0  0  0  0  0  0  0  0  0  0  0
   38.1090   23.1080   33.1670 N   0  0  0  0  0  0  0  0  0  0  0  0
   39.2740   22.9630   32.4950 C   0  0  0  0  0  0  0  0  0  0  0  0
   39.8210   24.1300   32.1730 N   0  0  0  0  0  0  0  0  0  0  0  0
   38.9550   25.0630   32.6680 C   0  0  0  0  0  0  0  0  0  0  0  0
   37.9470   24.4160   33.2540 N   0  0  0  0  0  0  0  0  0  0  0  0
   39.1660   26.5290   32.5380 C   0  0  0  0  0  0  0  0  0  0  0  0
   39.9860   27.0410   33.6870 C   0  0  0  0  0  0  0  0  0  0  0  0
   40.9226   22.5865   37.0595 H   0  0  0  0  0  0  0  0  0  0  0  0
   39.8467   23.6410   39.0531 H   0  0  0  0  0  0  0  0  0  0  0  0
   37.3217   23.8136   39.0938 H   0  0  0  0  0  0  0  0  0  0  0  0
   34.8193   19.8592   33.6397 H   0  0  0  0  0  0  0  0  0  0  0  0
   36.1620   21.4272   31.8747 H   0  0  0  0  0  0  0  0  0  0  0  0
   39.7183   21.9887   32.2435 H   0  0  0  0  0  0  0  0  0  0  0  0
   39.6924   26.7377   31.5950 H   0  0  0  0  0  0  0  0  0  0  0  0
   38.1884   27.0332   32.5432 H   0  0  0  0  0  0  0  0  0  0  0  0
   39.5131   26.7457   34.6352 H   0  0  0  0  0  0  0  0  0  0  0  0
   40.9985   26.6143   33.6337 H   0  0  0  0  0  0  0  0  0  0  0  0
   40.0471   28.1380   33.6337 H   0  0  0  0  0  0  0  0  0  0  0  0
  1  2  2  0
  2  3  1  0
  4  3  2  0
  5  4  1  0
  6  5  2  0
  6  1  1  0
  7  8  1  0
  7  5  1  0
  9  8  2  0
 10 11  2  0
 10  9  1  0
 11  7  1  0
 12 16  1  0
 12 11  1  0
 13 12  1  0
 14 13  2  0
 14 15  1  0
 15 16  2  0
 17 15  1  0
 17 18  1  0
  1 19  1  0
  2 20  1  0
  3 21  1  0
  9 22  1  0
 10 23  1  0
 13 24  1  0
 17 25  1  0
 17 26  1  0
 18 27  1  0
 18 28  1  0
 18 29  1  0
M  ISO  8  19  14  20  14  21  14  22  14  23  14  24  14  25   8  26   8
M  ISO  3  27   8  28   8  29   8
M  END
>  <minimizedAffinity>  (1) 
-4.4834919

>  <minimizedRMSD>  (1) 
0.201331109

$$$$
