
     RDKit          3D

 26 28  0  0  0  0  0  0  0  0999 V2000
   39.8700   22.7550   37.2760 C   0  0  0  0  0  0  0  0  0  0  0  0
   39.1650   23.2370   38.3860 C   0  0  0  0  0  0  0  0  0  0  0  0
   37.7790   23.3150   38.2830 C   0  0  0  0  0  0  0  0  0  0  0  0
   37.1770   22.9250   37.1260 N   0  0  0  0  0  0  0  0  0  0  0  0
   37.8880   22.4610   36.0680 C   0  0  0  0  0  0  0  0  0  0  0  0
   39.2380   22.3730   36.1350 N   0  0  0  0  0  0  0  0  0  0  0  0
   37.2940   22.0470   34.8520 N   0  0  0  0  0  0  0  0  0  0  0  0
   36.3580   21.1120   34.8010 N   0  0  0  0  0  0  0  0  0  0  0  0
   35.9790   20.9250   33.5140 C   0  0  0  0  0  0  0  0  0  0  0  0
   36.7470   21.8140   32.7520 C   0  0  0  0  0  0  0  0  0  0  0  0
   37.5710   22.5130   33.6180 C   0  0  0  0  0  0  0  0  0  0  0  0
   38.5140   23.5200   33.2480 N   0  0  0  0  0  0  0  0  0  0  0  0
   39.6990   23.4390   32.6140 C   0  0  0  0  0  0  0  0  0  0  0  0
   40.2530   24.6420   32.4740 N   0  0  0  0  0  0  0  0  0  0  0  0
   39.3710   25.5130   33.0490 C   0  0  0  0  0  0  0  0  0  0  0  0
   38.3420   24.7940   33.5010 N   0  0  0  0  0  0  0  0  0  0  0  0
   39.3830   26.9960   33.2290 C   0  0  0  0  0  0  0  0  0  0  0  0
   40.0680   27.3630   34.3630 F   0  0  0  0  0  0  0  0  0  0  0  0
   38.0950   27.5070   33.2800 F   0  0  0  0  0  0  0  0  0  0  0  0
   39.9430   27.5280   32.0670 F   0  0  0  0  0  0  0  0  0  0  0  0
   40.9664   22.6836   37.3291 H   0  0  0  0  0  0  0  0  0  0  0  0
   39.6870   23.5425   39.3048 H   0  0  0  0  0  0  0  0  0  0  0  0
   37.1779   23.6870   39.1258 H   0  0  0  0  0  0  0  0  0  0  0  0
   35.2219   20.2185   33.1430 H   0  0  0  0  0  0  0  0  0  0  0  0
   36.7035   21.9355   31.6596 H   0  0  0  0  0  0  0  0  0  0  0  0
   40.1507   22.5013   32.2580 H   0  0  0  0  0  0  0  0  0  0  0  0
  1  2  2  0
  3  2  1  0
  4  3  2  0
  5  6  2  0
  5  4  1  0
  6  1  1  0
  7  5  1  0
  8  7  1  0
  9  8  2  0
 10  9  1  0
 10 11  2  0
 11  7  1  0
 12 16  1  0
 12 11  1  0
 13 12  1  0
 14 13  2  0
 14 15  1  0
 15 17  1  0
 15 16  2  0
 17 19  1  0
 17 18  1  0
 20 17  1  0
  1 21  1  0
  2 22  1  0
  3 23  1  0
  9 24  1  0
 10 25  1  0
 13 26  1  0
M  ISO  6  21  14  22  14  23  14  24  14  25  14  26  14
M  END
>  <minimizedAffinity>  (1) 
-4.8693614

>  <minimizedRMSD>  (1) 
0.806152701

$$$$
