
     RDKit          3D

 25 26  0  0  0  0  0  0  0  0999 V2000
   37.3430   21.5560   34.6550 C   0  0  0  0  0  0  0  0  0  0  0  0
   38.1890   21.5560   33.5260 C   0  0  0  0  0  0  0  0  0  0  0  0
   39.4080   22.2040   33.6480 C   0  0  0  0  0  0  0  0  0  0  0  0
   39.7200   22.8030   34.8430 N   0  0  0  0  0  0  0  0  0  0  0  0
   38.8980   22.7830   35.8870 C   0  0  0  0  0  0  0  0  0  0  0  0
   37.6860   22.1560   35.8140 N   0  0  0  0  0  0  0  0  0  0  0  0
   37.7230   20.9030   32.3890 N   0  0  0  0  0  0  0  0  0  0  0  0
   36.5030   21.2920   31.9280 C   0  0  0  0  0  0  0  0  0  0  0  0
   36.0110   20.6680   30.8070 C   0  0  0  0  0  0  0  0  0  0  0  0
   36.7730   19.6930   30.2170 C   0  0  0  0  0  0  0  0  0  0  0  0
   36.2990   19.0370   29.0710 N   0  0  0  0  0  0  0  0  0  0  0  0
   37.9620   19.3460   30.7060 N   0  0  0  0  0  0  0  0  0  0  0  0
   38.4590   19.9520   31.8100 C   0  0  0  0  0  0  0  0  0  0  0  0
   39.5940   19.6000   32.2480 O   0  0  0  0  0  0  0  0  0  0  0  0
   39.3160   23.4580   37.1470 C   0  0  0  0  0  0  0  0  0  0  0  0
   37.8670   24.0130   38.0890 S   0  0  0  0  0  0  0  0  0  0  0  0
   36.3692   21.0489   34.5881 H   0  0  0  0  0  0  0  0  0  0  0  0
   40.1120   22.2377   32.8034 H   0  0  0  0  0  0  0  0  0  0  0  0
   35.9292   22.0807   32.4365 H   0  0  0  0  0  0  0  0  0  0  0  0
   35.0299   20.9440   30.3932 H   0  0  0  0  0  0  0  0  0  0  0  0
   35.3820   19.2892   28.6754 H   0  0  0  0  0  0  0  0  0  0  0  0
   36.8680   18.3032   28.6252 H   0  0  0  0  0  0  0  0  0  0  0  0
   39.8961   22.7521   37.7595 H   0  0  0  0  0  0  0  0  0  0  0  0
   39.9289   24.3350   36.8917 H   0  0  0  0  0  0  0  0  0  0  0  0
   38.1284   23.9129   39.4301 H   0  0  0  0  0  0  0  0  0  0  0  0
  1  6  2  0
  2  3  2  0
  2  1  1  0
  3  4  1  0
  4  5  2  0
  5 15  1  0
  6  5  1  0
  7  2  1  0
  8  7  1  0
  9  8  2  0
 10 12  2  0
 10  9  1  0
 11 10  1  0
 12 13  1  0
 13 14  2  0
 13  7  1  0
 15 16  1  0
  1 17  1  0
  3 18  1  0
  8 19  1  0
  9 20  1  0
 11 21  1  0
 11 22  1  0
 15 23  1  0
 15 24  1  0
 16 25  1  0
M  ISO  7  17  14  18  14  19  14  20  14  23   8  24   8  25  11
M  END
>  <minimizedAffinity>  (1) 
-3.42881942

>  <minimizedRMSD>  (1) 
2.5141995

$$$$
