
     RDKit          3D

 28 31  0  0  0  0  0  0  0  0999 V2000
   39.7680   22.6950   36.9330 C   0  0  0  0  0  0  0  0  0  0  0  0
   39.2020   23.3410   38.0380 C   0  0  0  0  0  0  0  0  0  0  0  0
   37.8160   23.4070   38.1110 C   0  0  0  0  0  0  0  0  0  0  0  0
   37.0690   22.8470   37.1160 N   0  0  0  0  0  0  0  0  0  0  0  0
   37.6480   22.2250   36.0520 C   0  0  0  0  0  0  0  0  0  0  0  0
   38.9870   22.1510   35.9650 N   0  0  0  0  0  0  0  0  0  0  0  0
   36.9040   21.6330   34.9990 N   0  0  0  0  0  0  0  0  0  0  0  0
   35.9910   20.7070   35.2110 N   0  0  0  0  0  0  0  0  0  0  0  0
   35.4540   20.3350   34.0280 C   0  0  0  0  0  0  0  0  0  0  0  0
   36.0960   21.0960   33.0390 C   0  0  0  0  0  0  0  0  0  0  0  0
   37.0130   21.9120   33.6820 C   0  0  0  0  0  0  0  0  0  0  0  0
   37.8820   22.8480   33.0550 N   0  0  0  0  0  0  0  0  0  0  0  0
   39.1750   22.7550   32.6690 C   0  0  0  0  0  0  0  0  0  0  0  0
   39.6130   23.8720   32.1150 N   0  0  0  0  0  0  0  0  0  0  0  0
   38.5420   24.7260   32.1480 C   0  0  0  0  0  0  0  0  0  0  0  0
   37.5210   24.0680   32.7230 N   0  0  0  0  0  0  0  0  0  0  0  0
   38.5360   26.0980   31.6460 C   0  0  0  0  0  0  0  0  0  0  0  0
   37.8390   27.0760   32.2490 N   0  0  0  0  0  0  0  0  0  0  0  0
   38.0080   28.1850   31.5980 O   0  0  0  0  0  0  0  0  0  0  0  0
   38.8000   27.9930   30.5720 C   0  0  0  0  0  0  0  0  0  0  0  0
   39.1440   26.6930   30.5780 N   0  0  0  0  0  0  0  0  0  0  0  0
   40.8626   22.6270   36.8475 H   0  0  0  0  0  0  0  0  0  0  0  0
   39.8337   23.7821   38.8231 H   0  0  0  0  0  0  0  0  0  0  0  0
   37.3267   23.9049   38.9611 H   0  0  0  0  0  0  0  0  0  0  0  0
   34.6672   19.5825   33.8709 H   0  0  0  0  0  0  0  0  0  0  0  0
   35.9068   21.0528   31.9563 H   0  0  0  0  0  0  0  0  0  0  0  0
   39.7911   21.8533   32.8010 H   0  0  0  0  0  0  0  0  0  0  0  0
   39.1225   28.7516   29.8436 H   0  0  0  0  0  0  0  0  0  0  0  0
  1  2  2  0
  2  3  1  0
  4  3  2  0
  5  4  1  0
  6  5  2  0
  6  1  1  0
  7  8  1  0
  7  5  1  0
  9  8  2  0
 10 11  2  0
 10  9  1  0
 11  7  1  0
 12 11  1  0
 13 12  1  0
 14 15  1  0
 14 13  2  0
 15 16  2  0
 16 12  1  0
 17 15  1  0
 17 18  2  0
 19 18  1  0
 20 21  2  0
 20 19  1  0
 21 17  1  0
  1 22  1  0
  2 23  1  0
  3 24  1  0
  9 25  1  0
 10 26  1  0
 13 27  1  0
 20 28  1  0
M  ISO  7  22  14  23  14  24  14  25  14  26  14  27  14  28  14
M  END
>  <minimizedAffinity>  (1) 
-4.75801373

>  <minimizedRMSD>  (1) 
0.71687901

$$$$
