
     RDKit          3D

 32 34  0  0  0  0  0  0  0  0999 V2000
   39.8420   22.6580   37.1900 C   0  0  0  0  0  0  0  0  0  0  0  0
   39.2320   23.2540   38.2970 C   0  0  0  0  0  0  0  0  0  0  0  0
   37.8400   23.3710   38.2780 C   0  0  0  0  0  0  0  0  0  0  0  0
   37.1560   22.9040   37.1970 N   0  0  0  0  0  0  0  0  0  0  0  0
   37.7890   22.3320   36.1430 C   0  0  0  0  0  0  0  0  0  0  0  0
   39.1260   22.2040   36.1270 N   0  0  0  0  0  0  0  0  0  0  0  0
   37.0960   21.8340   34.9970 N   0  0  0  0  0  0  0  0  0  0  0  0
   36.1350   20.9320   35.0810 N   0  0  0  0  0  0  0  0  0  0  0  0
   35.6630   20.6480   33.8540 C   0  0  0  0  0  0  0  0  0  0  0  0
   36.4030   21.4470   32.9580 C   0  0  0  0  0  0  0  0  0  0  0  0
   37.3010   22.1840   33.7160 C   0  0  0  0  0  0  0  0  0  0  0  0
   38.2430   23.1220   33.2050 N   0  0  0  0  0  0  0  0  0  0  0  0
   39.3270   22.9760   32.4230 C   0  0  0  0  0  0  0  0  0  0  0  0
   39.9240   24.1390   32.1900 N   0  0  0  0  0  0  0  0  0  0  0  0
   39.1900   25.0730   32.8520 C   0  0  0  0  0  0  0  0  0  0  0  0
   38.1810   24.4120   33.4530 N   0  0  0  0  0  0  0  0  0  0  0  0
   39.4890   26.5470   32.8760 C   0  0  0  0  0  0  0  0  0  0  0  0
   40.0040   27.0050   34.2060 C   0  0  0  0  0  0  0  0  0  0  0  0
   38.2420   27.3570   32.5460 C   0  0  0  0  0  0  0  0  0  0  0  0
   40.9369   22.5527   37.1782 H   0  0  0  0  0  0  0  0  0  0  0  0
   39.8246   23.6168   39.1498 H   0  0  0  0  0  0  0  0  0  0  0  0
   37.3057   23.8324   39.1216 H   0  0  0  0  0  0  0  0  0  0  0  0
   34.8626   19.9371   33.6009 H   0  0  0  0  0  0  0  0  0  0  0  0
   36.2895   21.4796   31.8644 H   0  0  0  0  0  0  0  0  0  0  0  0
   39.6763   22.0118   32.0252 H   0  0  0  0  0  0  0  0  0  0  0  0
   40.2686   26.7118   32.1177 H   0  0  0  0  0  0  0  0  0  0  0  0
   39.4420   26.5052   35.0087 H   0  0  0  0  0  0  0  0  0  0  0  0
   41.0710   26.7519   34.2930 H   0  0  0  0  0  0  0  0  0  0  0  0
   39.8772   28.0942   34.2930 H   0  0  0  0  0  0  0  0  0  0  0  0
   37.7534   27.6744   33.4790 H   0  0  0  0  0  0  0  0  0  0  0  0
   38.5253   28.2440   31.9603 H   0  0  0  0  0  0  0  0  0  0  0  0
   37.5468   26.7376   31.9603 H   0  0  0  0  0  0  0  0  0  0  0  0
  1  2  2  0
  3  2  1  0
  4  3  2  0
  5  4  1  0
  6  5  2  0
  6  1  1  0
  7  8  1  0
  7  5  1  0
  9  8  2  0
 10 11  2  0
 10  9  1  0
 11  7  1  0
 12 16  1  0
 12 11  1  0
 13 12  1  0
 14 13  2  0
 14 15  1  0
 15 17  1  0
 15 16  2  0
 17 18  1  0
 19 17  1  0
  1 20  1  0
  2 21  1  0
  3 22  1  0
  9 23  1  0
 10 24  1  0
 13 25  1  0
 17 26  1  0
 18 27  1  0
 18 28  1  0
 18 29  1  0
 19 30  1  0
 19 31  1  0
 19 32  1  0
M  ISO  8  20  14  21  14  22  14  23  14  24  14  25  14  26   8  27   8
M  ISO  5  28   8  29   8  30   8  31   8  32   8
M  END
>  <minimizedAffinity>  (1) 
-4.81971216

>  <minimizedRMSD>  (1) 
0.44354099

$$$$
