
     RDKit          3D

 26 28  0  0  0  0  0  0  0  0999 V2000
   39.8300   22.6810   37.0550 C   0  0  0  0  0  0  0  0  0  0  0  0
   39.2460   23.2660   38.1740 C   0  0  0  0  0  0  0  0  0  0  0  0
   37.8430   23.3570   38.2140 C   0  0  0  0  0  0  0  0  0  0  0  0
   37.1280   22.8690   37.1580 N   0  0  0  0  0  0  0  0  0  0  0  0
   37.7380   22.3050   36.0870 C   0  0  0  0  0  0  0  0  0  0  0  0
   39.0780   22.2080   36.0260 N   0  0  0  0  0  0  0  0  0  0  0  0
   37.0210   21.7860   34.9690 N   0  0  0  0  0  0  0  0  0  0  0  0
   36.0900   20.8590   35.0980 N   0  0  0  0  0  0  0  0  0  0  0  0
   35.5830   20.5580   33.8880 C   0  0  0  0  0  0  0  0  0  0  0  0
   36.2710   21.3730   32.9620 C   0  0  0  0  0  0  0  0  0  0  0  0
   37.1740   22.1390   33.6740 C   0  0  0  0  0  0  0  0  0  0  0  0
   38.0660   23.0920   33.1360 N   0  0  0  0  0  0  0  0  0  0  0  0
   39.2560   22.9500   32.5050 C   0  0  0  0  0  0  0  0  0  0  0  0
   39.7750   24.1250   32.1550 N   0  0  0  0  0  0  0  0  0  0  0  0
   38.8690   25.0490   32.5870 C   0  0  0  0  0  0  0  0  0  0  0  0
   37.8610   24.3960   33.1680 N   0  0  0  0  0  0  0  0  0  0  0  0
   38.9660   26.5380   32.4460 C   0  0  0  0  0  0  0  0  0  0  0  0
   40.9257   22.5993   37.0016 H   0  0  0  0  0  0  0  0  0  0  0  0
   39.8626   23.6457   39.0021 H   0  0  0  0  0  0  0  0  0  0  0  0
   37.3332   23.8111   39.0765 H   0  0  0  0  0  0  0  0  0  0  0  0
   34.7929   19.8257   33.6654 H   0  0  0  0  0  0  0  0  0  0  0  0
   36.1162   21.3940   31.8731 H   0  0  0  0  0  0  0  0  0  0  0  0
   39.7359   21.9805   32.3057 H   0  0  0  0  0  0  0  0  0  0  0  0
   38.9961   26.9996   33.4440 H   0  0  0  0  0  0  0  0  0  0  0  0
   39.8828   26.7952   31.8953 H   0  0  0  0  0  0  0  0  0  0  0  0
   38.0903   26.9120   31.8953 H   0  0  0  0  0  0  0  0  0  0  0  0
  1  2  2  0
  2  3  1  0
  4  3  2  0
  5  4  1  0
  6  5  2  0
  6  1  1  0
  7  8  1  0
  7  5  1  0
  9  8  2  0
 10 11  2  0
 10  9  1  0
 11  7  1  0
 12 16  1  0
 12 11  1  0
 13 12  1  0
 14 13  2  0
 14 15  1  0
 15 16  2  0
 17 15  1  0
  1 18  1  0
  2 19  1  0
  3 20  1  0
  9 21  1  0
 10 22  1  0
 13 23  1  0
 17 24  1  0
 17 25  1  0
 17 26  1  0
M  ISO  8  18  14  19  14  20  14  21  14  22  14  23  14  24   8  25   8
M  ISO  1  26   8
M  END
>  <minimizedAffinity>  (1) 
-4.40514135

>  <minimizedRMSD>  (1) 
0.195377126

$$$$
