
     RDKit          3D

 24 26  0  0  0  0  0  0  0  0999 V2000
   39.8580   22.6460   37.0420 C   0  0  0  0  0  0  0  0  0  0  0  0
   39.3040   23.2960   38.1380 C   0  0  0  0  0  0  0  0  0  0  0  0
   37.9200   23.4190   38.1730 C   0  0  0  0  0  0  0  0  0  0  0  0
   37.1760   22.9090   37.1530 N   0  0  0  0  0  0  0  0  0  0  0  0
   37.7480   22.2800   36.0970 C   0  0  0  0  0  0  0  0  0  0  0  0
   39.0950   22.1450   36.0360 N   0  0  0  0  0  0  0  0  0  0  0  0
   37.0130   21.7390   35.0240 N   0  0  0  0  0  0  0  0  0  0  0  0
   36.0500   20.8490   35.1870 N   0  0  0  0  0  0  0  0  0  0  0  0
   35.5280   20.5120   34.0000 C   0  0  0  0  0  0  0  0  0  0  0  0
   36.2280   21.2600   33.0230 C   0  0  0  0  0  0  0  0  0  0  0  0
   37.1650   22.0290   33.7120 C   0  0  0  0  0  0  0  0  0  0  0  0
   38.0850   22.9310   33.1160 N   0  0  0  0  0  0  0  0  0  0  0  0
   39.2590   22.7400   32.4720 C   0  0  0  0  0  0  0  0  0  0  0  0
   39.7950   23.8900   32.0710 N   0  0  0  0  0  0  0  0  0  0  0  0
   38.9250   24.8410   32.4780 C   0  0  0  0  0  0  0  0  0  0  0  0
   37.9070   24.2380   33.1030 N   0  0  0  0  0  0  0  0  0  0  0  0
   39.0410   26.2300   32.2920 O   0  0  0  0  0  0  0  0  0  0  0  0
   40.9508   22.5334   36.9872 H   0  0  0  0  0  0  0  0  0  0  0  0
   39.9350   23.6969   38.9450 H   0  0  0  0  0  0  0  0  0  0  0  0
   37.4296   23.9244   39.0180 H   0  0  0  0  0  0  0  0  0  0  0  0
   34.7143   19.7941   33.8198 H   0  0  0  0  0  0  0  0  0  0  0  0
   36.0649   21.2387   31.9354 H   0  0  0  0  0  0  0  0  0  0  0  0
   39.7152   21.7539   32.3006 H   0  0  0  0  0  0  0  0  0  0  0  0
   38.3374   26.8359   32.6354 H   0  0  0  0  0  0  0  0  0  0  0  0
  1  2  2  0
  2  3  1  0
  4  3  2  0
  5  4  1  0
  6  5  2  0
  6  1  1  0
  7  8  1  0
  7  5  1  0
  9  8  2  0
 10 11  2  0
 10  9  1  0
 11  7  1  0
 12 11  1  0
 13 12  1  0
 14 13  2  0
 14 15  1  0
 15 16  2  0
 16 12  1  0
 17 15  1  0
  1 18  1  0
  2 19  1  0
  3 20  1  0
  9 21  1  0
 10 22  1  0
 13 23  1  0
 17 24  1  0
M  ISO  7  18  14  19  14  20  14  21  14  22  14  23  14  24   3
M  END
>  <minimizedAffinity>  (1) 
-4.33217525

>  <minimizedRMSD>  (1) 
0.104491927

$$$$
