
     RDKit          3D

 43 48  0  0  0  0  0  0  0  0999 V2000
   37.7380   22.9540   32.8950 N   0  0  0  0  0  0  0  0  0  0  0  0
   39.0690   22.9830   32.6130 C   0  0  0  0  0  0  0  0  0  0  0  0
   39.4160   24.1350   32.0370 N   0  0  0  0  0  0  0  0  0  0  0  0
   38.2620   24.8440   31.9590 C   0  0  0  0  0  0  0  0  0  0  0  0
   37.2640   24.1220   32.4780 N   0  0  0  0  0  0  0  0  0  0  0  0
   38.1570   26.1880   31.3900 C   0  0  0  0  0  0  0  0  0  0  0  0
   37.4850   27.1830   32.0310 C   0  0  0  0  0  0  0  0  0  0  0  0
   37.3370   28.4670   31.5730 C   0  0  0  0  0  0  0  0  0  0  0  0
   37.9390   28.7540   30.3350 C   0  0  0  0  0  0  0  0  0  0  0  0
   38.6170   27.7370   29.6990 C   0  0  0  0  0  0  0  0  0  0  0  0
   38.7270   26.4770   30.2120 N   0  0  0  0  0  0  0  0  0  0  0  0
   39.2460   27.9950   28.4340 N   0  0  0  0  0  0  0  0  0  0  0  0
   39.4840   29.2290   27.9450 C   0  0  0  0  0  0  0  0  0  0  0  0
   40.0900   29.1440   26.7280 N   0  0  0  0  0  0  0  0  0  0  0  0
   40.2290   27.8400   26.4600 C   0  0  0  0  0  0  0  0  0  0  0  0
   40.7770   27.1770   25.3630 C   0  0  0  0  0  0  0  0  0  0  0  0
   40.7630   25.8310   25.4040 N   0  0  0  0  0  0  0  0  0  0  0  0
   40.2550   25.1310   26.4330 C   0  0  0  0  0  0  0  0  0  0  0  0
   39.7140   25.7630   27.5160 N   0  0  0  0  0  0  0  0  0  0  0  0
   39.7050   27.1280   27.5190 C   0  0  0  0  0  0  0  0  0  0  0  0
   39.7080   22.7320   36.7370 C   0  0  0  0  0  0  0  0  0  0  0  0
   39.1170   23.2980   37.8730 C   0  0  0  0  0  0  0  0  0  0  0  0
   37.7310   23.2940   37.9750 C   0  0  0  0  0  0  0  0  0  0  0  0
   37.0170   22.7350   36.9580 N   0  0  0  0  0  0  0  0  0  0  0  0
   37.6000   22.1940   35.8740 C   0  0  0  0  0  0  0  0  0  0  0  0
   38.9540   22.1810   35.7400 N   0  0  0  0  0  0  0  0  0  0  0  0
   36.8640   21.6060   34.8050 N   0  0  0  0  0  0  0  0  0  0  0  0
   36.0060   20.6280   34.9840 N   0  0  0  0  0  0  0  0  0  0  0  0
   35.4640   20.2770   33.7970 C   0  0  0  0  0  0  0  0  0  0  0  0
   36.0500   21.1140   32.8410 C   0  0  0  0  0  0  0  0  0  0  0  0
   36.9320   21.9470   33.5010 C   0  0  0  0  0  0  0  0  0  0  0  0
   39.7683   22.1625   32.8318 H   0  0  0  0  0  0  0  0  0  0  0  0
   37.0217   26.9364   32.9977 H   0  0  0  0  0  0  0  0  0  0  0  0
   36.7804   29.2274   32.1404 H   0  0  0  0  0  0  0  0  0  0  0  0
   37.8709   29.7572   29.8891 H   0  0  0  0  0  0  0  0  0  0  0  0
   39.2260   30.1687   28.4553 H   0  0  0  0  0  0  0  0  0  0  0  0
   41.1992   27.7251   24.5078 H   0  0  0  0  0  0  0  0  0  0  0  0
   40.2754   24.0316   26.4022 H   0  0  0  0  0  0  0  0  0  0  0  0
   40.8042   22.7310   36.6452 H   0  0  0  0  0  0  0  0  0  0  0  0
   39.7370   23.7369   38.6686 H   0  0  0  0  0  0  0  0  0  0  0  0
   37.2258   23.7288   38.8500 H   0  0  0  0  0  0  0  0  0  0  0  0
   34.7141   19.4923   33.6185 H   0  0  0  0  0  0  0  0  0  0  0  0
   35.8454   21.1094   31.7602 H   0  0  0  0  0  0  0  0  0  0  0  0
  1 31  1  0
  2  1  1  0
  3  2  2  0
  4  3  1  0
  4  5  2  0
  5  1  1  0
  6  4  1  0
  6  7  2  0
  8  7  1  0
  9  8  2  0
 10 11  2  0
 10  9  1  0
 11  6  1  0
 12 10  1  0
 13 12  1  0
 14 13  2  0
 15 14  1  0
 15 20  2  0
 16 17  2  0
 16 15  1  0
 17 18  1  0
 18 19  2  0
 19 20  1  0
 20 12  1  0
 21 22  2  0
 22 23  1  0
 24 23  2  0
 25 24  1  0
 26 25  2  0
 26 21  1  0
 27 28  1  0
 27 25  1  0
 29 28  2  0
 30 31  2  0
 30 29  1  0
 31 27  1  0
  2 32  1  0
  7 33  1  0
  8 34  1  0
  9 35  1  0
 13 36  1  0
 16 37  1  0
 18 38  1  0
 21 39  1  0
 22 40  1  0
 23 41  1  0
 29 42  1  0
 30 43  1  0
M  ISO  8  32  14  33  14  34  14  35  14  36  14  37  14  38  14  39  14
M  ISO  4  40  14  41  14  42  14  43  14
M  END
>  <minimizedAffinity>  (1) 
-6.3643136

>  <minimizedRMSD>  (1) 
0.271400511

$$$$
