
     RDKit          3D

 43 47  0  0  0  0  0  0  0  0999 V2000
   37.6290   22.9610   32.8150 N   0  0  0  0  0  0  0  0  0  0  0  0
   38.9100   23.0100   32.4120 C   0  0  0  0  0  0  0  0  0  0  0  0
   39.2200   24.1940   31.8780 N   0  0  0  0  0  0  0  0  0  0  0  0
   38.0680   24.9110   31.9580 C   0  0  0  0  0  0  0  0  0  0  0  0
   37.1260   24.1640   32.5190 N   0  0  0  0  0  0  0  0  0  0  0  0
   37.9360   26.2870   31.4850 C   0  0  0  0  0  0  0  0  0  0  0  0
   37.2480   27.2210   32.1950 C   0  0  0  0  0  0  0  0  0  0  0  0
   37.0850   28.5270   31.8120 C   0  0  0  0  0  0  0  0  0  0  0  0
   37.6650   28.9210   30.6120 C   0  0  0  0  0  0  0  0  0  0  0  0
   38.3570   27.9690   29.9020 C   0  0  0  0  0  0  0  0  0  0  0  0
   38.4870   26.6840   30.3330 N   0  0  0  0  0  0  0  0  0  0  0  0
   39.0310   28.1660   28.6420 N   0  0  0  0  0  0  0  0  0  0  0  0
   39.6180   27.0890   28.0590 C   0  0  0  0  0  0  0  0  0  0  0  0
   40.2690   27.2890   26.8360 C   0  0  0  0  0  0  0  0  0  0  0  0
   40.2700   28.5670   26.3080 C   0  0  0  0  0  0  0  0  0  0  0  0
   40.9440   28.7490   25.0530 N   0  0  0  0  0  0  0  0  0  0  0  0
   39.6740   29.6060   26.9240 N   0  0  0  0  0  0  0  0  0  0  0  0
   39.0390   29.4220   28.1100 C   0  0  0  0  0  0  0  0  0  0  0  0
   38.4610   30.3460   28.7410 O   0  0  0  0  0  0  0  0  0  0  0  0
   39.7060   22.7560   36.5880 C   0  0  0  0  0  0  0  0  0  0  0  0
   39.1300   23.2980   37.7570 C   0  0  0  0  0  0  0  0  0  0  0  0
   37.7430   23.2520   37.8980 C   0  0  0  0  0  0  0  0  0  0  0  0
   37.0010   22.6860   36.9000 N   0  0  0  0  0  0  0  0  0  0  0  0
   37.5830   22.1770   35.7910 C   0  0  0  0  0  0  0  0  0  0  0  0
   38.9290   22.2040   35.6200 N   0  0  0  0  0  0  0  0  0  0  0  0
   36.8340   21.5790   34.7310 N   0  0  0  0  0  0  0  0  0  0  0  0
   35.9990   20.5760   34.9220 N   0  0  0  0  0  0  0  0  0  0  0  0
   35.4440   20.2260   33.7590 C   0  0  0  0  0  0  0  0  0  0  0  0
   35.9850   21.0860   32.7830 C   0  0  0  0  0  0  0  0  0  0  0  0
   36.8600   21.9290   33.4310 C   0  0  0  0  0  0  0  0  0  0  0  0
   39.6187   22.1745   32.5103 H   0  0  0  0  0  0  0  0  0  0  0  0
   36.7898   26.9059   33.1441 H   0  0  0  0  0  0  0  0  0  0  0  0
   36.5165   29.2366   32.4311 H   0  0  0  0  0  0  0  0  0  0  0  0
   37.5738   29.9539   30.2449 H   0  0  0  0  0  0  0  0  0  0  0  0
   39.5832   26.0958   28.5306 H   0  0  0  0  0  0  0  0  0  0  0  0
   40.7632   26.4573   26.3125 H   0  0  0  0  0  0  0  0  0  0  0  0
   40.9748   29.6809   24.6154 H   0  0  0  0  0  0  0  0  0  0  0  0
   41.3966   27.9476   24.5905 H   0  0  0  0  0  0  0  0  0  0  0  0
   40.7981   22.7809   36.4591 H   0  0  0  0  0  0  0  0  0  0  0  0
   39.7604   23.7464   38.5390 H   0  0  0  0  0  0  0  0  0  0  0  0
   37.2563   23.6632   38.7947 H   0  0  0  0  0  0  0  0  0  0  0  0
   34.7091   19.4241   33.5952 H   0  0  0  0  0  0  0  0  0  0  0  0
   35.7526   21.0844   31.7078 H   0  0  0  0  0  0  0  0  0  0  0  0
  1 30  1  0
  2  1  1  0
  3  4  1  0
  3  2  2  0
  4  5  2  0
  5  1  1  0
  6  4  1  0
  6  7  2  0
  8  7  1  0
  9  8  2  0
 10 11  2  0
 10  9  1  0
 11  6  1  0
 12 10  1  0
 13 12  1  0
 14 13  2  0
 15 14  1  0
 15 17  2  0
 16 15  1  0
 17 18  1  0
 18 12  1  0
 18 19  2  0
 20 21  2  0
 21 22  1  0
 23 22  2  0
 24 23  1  0
 25 24  2  0
 25 20  1  0
 26 27  1  0
 26 24  1  0
 28 27  2  0
 29 30  2  0
 29 28  1  0
 30 26  1  0
  2 31  1  0
  7 32  1  0
  8 33  1  0
  9 34  1  0
 13 35  1  0
 14 36  1  0
 16 37  1  0
 16 38  1  0
 20 39  1  0
 21 40  1  0
 22 41  1  0
 28 42  1  0
 29 43  1  0
M  ISO  8  31  14  32  14  33  14  34  14  35  14  36  14  39  14  40  14
M  ISO  3  41  14  42  14  43  14
M  END
>  <minimizedAffinity>  (1) 
-6.09940195

>  <minimizedRMSD>  (1) 
0.342941225

$$$$
