
     RDKit          3D

 38 42  0  0  0  0  0  0  0  0999 V2000
   37.7270   22.9420   32.9050 N   0  0  0  0  0  0  0  0  0  0  0  0
   39.0520   22.9710   32.6040 C   0  0  0  0  0  0  0  0  0  0  0  0
   39.3990   24.1250   32.0310 N   0  0  0  0  0  0  0  0  0  0  0  0
   38.2660   24.8410   31.9680 C   0  0  0  0  0  0  0  0  0  0  0  0
   37.2670   24.1200   32.4970 N   0  0  0  0  0  0  0  0  0  0  0  0
   39.7100   22.7180   36.7230 C   0  0  0  0  0  0  0  0  0  0  0  0
   39.1360   23.2850   37.8660 C   0  0  0  0  0  0  0  0  0  0  0  0
   37.7430   23.2830   37.9720 C   0  0  0  0  0  0  0  0  0  0  0  0
   37.0010   22.7330   36.9680 N   0  0  0  0  0  0  0  0  0  0  0  0
   37.5820   22.1930   35.8730 C   0  0  0  0  0  0  0  0  0  0  0  0
   38.9240   22.1840   35.7510 N   0  0  0  0  0  0  0  0  0  0  0  0
   36.8590   21.6110   34.8060 N   0  0  0  0  0  0  0  0  0  0  0  0
   35.9950   20.6260   34.9860 N   0  0  0  0  0  0  0  0  0  0  0  0
   35.4590   20.2710   33.8130 C   0  0  0  0  0  0  0  0  0  0  0  0
   36.0440   21.1050   32.8510 C   0  0  0  0  0  0  0  0  0  0  0  0
   36.9260   21.9410   33.5120 C   0  0  0  0  0  0  0  0  0  0  0  0
   38.1510   26.1830   31.4150 C   0  0  0  0  0  0  0  0  0  0  0  0
   37.4780   27.1830   32.0500 C   0  0  0  0  0  0  0  0  0  0  0  0
   37.3310   28.4660   31.5870 C   0  0  0  0  0  0  0  0  0  0  0  0
   37.9250   28.7570   30.3610 C   0  0  0  0  0  0  0  0  0  0  0  0
   38.6100   27.7370   29.7140 C   0  0  0  0  0  0  0  0  0  0  0  0
   38.7100   26.4920   30.2390 N   0  0  0  0  0  0  0  0  0  0  0  0
   39.2250   28.0110   28.4610 N   0  0  0  0  0  0  0  0  0  0  0  0
   39.6480   27.2140   27.4610 C   0  0  0  0  0  0  0  0  0  0  0  0
   40.1740   27.9440   26.4610 N   0  0  0  0  0  0  0  0  0  0  0  0
   40.0730   29.2280   26.8500 C   0  0  0  0  0  0  0  0  0  0  0  0
   39.4910   29.2670   28.0780 N   0  0  0  0  0  0  0  0  0  0  0  0
   39.7509   22.1463   32.8073 H   0  0  0  0  0  0  0  0  0  0  0  0
   40.8041   22.7043   36.6102 H   0  0  0  0  0  0  0  0  0  0  0  0
   39.7633   23.7197   38.6582 H   0  0  0  0  0  0  0  0  0  0  0  0
   37.2508   23.7193   38.8537 H   0  0  0  0  0  0  0  0  0  0  0  0
   34.7106   19.4838   33.6389 H   0  0  0  0  0  0  0  0  0  0  0  0
   35.8397   21.0966   31.7702 H   0  0  0  0  0  0  0  0  0  0  0  0
   37.0126   26.9409   33.0168 H   0  0  0  0  0  0  0  0  0  0  0  0
   36.7731   29.2255   32.1544 H   0  0  0  0  0  0  0  0  0  0  0  0
   37.8537   29.7621   29.9198 H   0  0  0  0  0  0  0  0  0  0  0  0
   39.5735   26.1165   27.4619 H   0  0  0  0  0  0  0  0  0  0  0  0
   40.4062   30.1016   26.2704 H   0  0  0  0  0  0  0  0  0  0  0  0
  1 16  1  0
  2  1  1  0
  3  2  2  0
  4  3  1  0
  4  5  2  0
  5  1  1  0
  6  7  2  0
  7  8  1  0
  9  8  2  0
 10  9  1  0
 11 10  2  0
 11  6  1  0
 12 13  1  0
 12 10  1  0
 14 13  2  0
 15 16  2  0
 15 14  1  0
 16 12  1  0
 17  4  1  0
 17 18  2  0
 19 18  1  0
 20 19  2  0
 21 22  2  0
 21 20  1  0
 22 17  1  0
 23 21  1  0
 24 23  1  0
 25 26  1  0
 25 24  2  0
 26 27  2  0
 27 23  1  0
  2 28  1  0
  6 29  1  0
  7 30  1  0
  8 31  1  0
 14 32  1  0
 15 33  1  0
 18 34  1  0
 19 35  1  0
 20 36  1  0
 24 37  1  0
 26 38  1  0
M  ISO  8  28  14  29  14  30  14  31  14  32  14  33  14  34  14  35  14
M  ISO  3  36  14  37  14  38  14
M  END
>  <minimizedAffinity>  (1) 
-5.8593111

>  <minimizedRMSD>  (1) 
0.155289426

$$$$
