
     RDKit          3D

 50 55  0  0  1  0  0  0  0  0999 V2000
   37.5360   23.0160   32.8070 N   0  0  0  0  0  0  0  0  0  0  0  0
   38.7930   23.0940   32.3490 C   0  0  0  0  0  0  0  0  0  0  0  0
   39.0400   24.3030   31.8480 N   0  0  0  0  0  0  0  0  0  0  0  0
   37.8790   25.0010   32.0080 C   0  0  0  0  0  0  0  0  0  0  0  0
   36.9740   24.2180   32.5900 N   0  0  0  0  0  0  0  0  0  0  0  0
   39.6780   22.8080   36.5450 C   0  0  0  0  0  0  0  0  0  0  0  0
   39.1040   23.3110   37.7360 C   0  0  0  0  0  0  0  0  0  0  0  0
   37.7260   23.2120   37.8880 C   0  0  0  0  0  0  0  0  0  0  0  0
   36.9930   22.6370   36.8890 N   0  0  0  0  0  0  0  0  0  0  0  0
   37.5750   22.1620   35.7540 C   0  0  0  0  0  0  0  0  0  0  0  0
   38.8990   22.2420   35.5750 N   0  0  0  0  0  0  0  0  0  0  0  0
   36.8200   21.5600   34.6950 N   0  0  0  0  0  0  0  0  0  0  0  0
   36.0330   20.5280   34.8970 N   0  0  0  0  0  0  0  0  0  0  0  0
   35.4540   20.1800   33.7200 C   0  0  0  0  0  0  0  0  0  0  0  0
   35.9520   21.0780   32.7800 C   0  0  0  0  0  0  0  0  0  0  0  0
   36.8150   21.9430   33.4230 C   0  0  0  0  0  0  0  0  0  0  0  0
   37.6890   26.3820   31.5910 C   0  0  0  0  0  0  0  0  0  0  0  0
   37.0210   27.2780   32.3290 C   0  0  0  0  0  0  0  0  0  0  0  0
   36.8240   28.6010   32.0480 C   0  0  0  0  0  0  0  0  0  0  0  0
   37.3970   29.0400   30.8430 C   0  0  0  0  0  0  0  0  0  0  0  0
   38.0650   28.1570   30.0840 C   0  0  0  0  0  0  0  0  0  0  0  0
   38.2360   26.8220   30.4180 N   0  0  0  0  0  0  0  0  0  0  0  0
   38.9040   28.1610   28.9390 C   0  0  0  0  0  0  0  0  0  0  0  0
   39.6310   28.1660   27.9450 N   0  0  0  0  0  0  0  0  0  0  0  0
   40.4060   27.9880   27.0470 C   0  0  0  0  0  0  0  0  0  0  0  0
   40.0700   29.1430   26.5070 N   0  0  0  0  0  0  0  0  0  0  0  0
   39.1060   29.9470   27.1170 C   0  0  0  0  0  0  0  0  0  0  0  0
   38.8930   31.0820   26.3160 C   0  0  0  0  0  0  0  0  0  0  0  0
   37.8990   31.8650   26.8300 C   0  0  0  0  0  0  0  0  0  0  0  0
   37.1250   31.6700   27.9790 C   0  0  0  0  0  0  0  0  0  0  0  0
   37.5770   30.4740   28.5370 C   0  0  0  0  0  0  0  0  0  0  0  0
   38.5300   29.4400   28.3270 C   0  0  0  0  0  0  0  0  0  0  0  0
   39.5220   22.2709   32.3823 H   0  0  0  0  0  0  0  0  0  0  0  0
   40.7661   22.8733   36.3975 H   0  0  0  0  0  0  0  0  0  0  0  0
   39.7292   23.7666   38.5180 H   0  0  0  0  0  0  0  0  0  0  0  0
   37.2344   23.5899   38.7966 H   0  0  0  0  0  0  0  0  0  0  0  0
   34.7411   19.3607   33.5454 H   0  0  0  0  0  0  0  0  0  0  0  0
   35.7011   21.0954   31.7091 H   0  0  0  0  0  0  0  0  0  0  0  0
   36.5814   26.9075   33.2668 H   0  0  0  0  0  0  0  0  0  0  0  0
   36.2601   29.2705   32.7142 H   0  0  0  0  0  0  0  0  0  0  0  0
   37.3000   30.0891   30.5268 H   0  0  0  0  0  0  0  0  0  0  0  0
   38.1830   27.5217   28.4085 H   0  0  0  0  0  0  0  0  0  0  0  0
   38.8379   28.3023   27.3021 H   0  0  0  0  0  0  0  0  0  0  0  0
   41.4567   27.9342   27.3682 H   0  0  0  0  0  0  0  0  0  0  0  0
   40.3547   27.0654   26.4501 H   0  0  0  0  0  0  0  0  0  0  0  0
   40.5197   29.4524   25.6335 H   0  0  0  0  0  0  0  0  0  0  0  0
   39.4527   31.3096   25.3968 H   0  0  0  0  0  0  0  0  0  0  0  0
   37.6752   32.7786   26.2596 H   0  0  0  0  0  0  0  0  0  0  0  0
   36.3271   32.3230   28.3622 H   0  0  0  0  0  0  0  0  0  0  0  0
   37.0007   30.2575   29.4486 H   0  0  0  0  0  0  0  0  0  0  0  0
  1 16  1  0
  2  1  1  0
  3  4  1  0
  3  2  2  0
  4  5  2  0
  5  1  1  0
  6  7  2  0
  7  8  1  0
  9  8  2  0
 10  9  1  0
 11 10  2  0
 11  6  1  0
 12 13  1  0
 12 10  1  0
 14 13  2  0
 15 16  2  0
 15 14  1  0
 16 12  1  0
 17  4  1  0
 17 18  2  0
 19 18  1  0
 20 19  2  0
 21 22  2  0
 21 20  1  0
 22 17  1  0
 23 21  1  0
 24 23  1  0
 25 24  1  0
 26 25  1  0
 26 27  1  0
 27 32  2  0
 28 29  2  0
 28 27  1  0
 29 30  1  0
 30 31  2  0
 32 31  1  0
 32 23  1  0
  2 33  1  0
  6 34  1  0
  7 35  1  0
  8 36  1  0
 14 37  1  0
 15 38  1  0
 18 39  1  0
 19 40  1  0
 20 41  1  0
 23 42  1  0
 24 43  1  0
 25 44  1  0
 25 45  1  0
 26 46  1  0
 28 47  1  0
 29 48  1  0
 30 49  1  0
 31 50  1  0
M  ISO  8  33  14  34  14  35  14  36  14  37  14  38  14  39  14  40  14
M  ISO  8  41  14  42  13  43   5  44  13  45  13  47  14  48  14  49  14
M  ISO  1  50  14
M  END
>  <minimizedAffinity>  (1) 
-6.10847378

>  <minimizedRMSD>  (1) 
0.685699463

$$$$
