
     RDKit          3D

 41 45  0  0  0  0  0  0  0  0999 V2000
   37.7120   22.9480   32.8860 N   0  0  0  0  0  0  0  0  0  0  0  0
   39.0410   22.9710   32.5900 C   0  0  0  0  0  0  0  0  0  0  0  0
   39.3950   24.1230   32.0120 N   0  0  0  0  0  0  0  0  0  0  0  0
   38.2400   24.8370   31.9510 C   0  0  0  0  0  0  0  0  0  0  0  0
   37.2510   24.1190   32.4770 N   0  0  0  0  0  0  0  0  0  0  0  0
   39.7020   22.7230   36.7150 C   0  0  0  0  0  0  0  0  0  0  0  0
   39.1220   23.2890   37.8560 C   0  0  0  0  0  0  0  0  0  0  0  0
   37.7380   23.2830   37.9540 C   0  0  0  0  0  0  0  0  0  0  0  0
   37.0080   22.7300   36.9420 N   0  0  0  0  0  0  0  0  0  0  0  0
   37.5860   22.1900   35.8530 C   0  0  0  0  0  0  0  0  0  0  0  0
   38.9310   22.1830   35.7350 N   0  0  0  0  0  0  0  0  0  0  0  0
   36.8580   21.6100   34.7910 N   0  0  0  0  0  0  0  0  0  0  0  0
   35.9980   20.6230   34.9780 N   0  0  0  0  0  0  0  0  0  0  0  0
   35.4570   20.2720   33.8010 C   0  0  0  0  0  0  0  0  0  0  0  0
   36.0350   21.1110   32.8380 C   0  0  0  0  0  0  0  0  0  0  0  0
   36.9140   21.9420   33.4960 C   0  0  0  0  0  0  0  0  0  0  0  0
   38.1460   26.1770   31.3890 C   0  0  0  0  0  0  0  0  0  0  0  0
   37.4780   27.1770   32.0260 C   0  0  0  0  0  0  0  0  0  0  0  0
   37.3310   28.4670   31.5820 C   0  0  0  0  0  0  0  0  0  0  0  0
   37.9320   28.7610   30.3570 C   0  0  0  0  0  0  0  0  0  0  0  0
   38.6150   27.7430   29.7030 C   0  0  0  0  0  0  0  0  0  0  0  0
   38.7080   26.4930   30.2180 N   0  0  0  0  0  0  0  0  0  0  0  0
   39.2440   28.0670   28.4090 C   0  0  0  0  0  0  0  0  0  0  0  0
   39.7410   27.0530   27.6180 C   0  0  0  0  0  0  0  0  0  0  0  0
   40.3290   27.3870   26.4050 C   0  0  0  0  0  0  0  0  0  0  0  0
   40.3510   28.7360   26.1180 C   0  0  0  0  0  0  0  0  0  0  0  0
   39.8610   29.7680   26.8920 C   0  0  0  0  0  0  0  0  0  0  0  0
   39.2990   29.3650   28.0670 N   0  0  0  0  0  0  0  0  0  0  0  0
   39.7362   22.1449   32.8003 H   0  0  0  0  0  0  0  0  0  0  0  0
   40.7970   22.7152   36.6101 H   0  0  0  0  0  0  0  0  0  0  0  0
   39.7445   23.7254   38.6510 H   0  0  0  0  0  0  0  0  0  0  0  0
   37.2376   23.7166   38.8324 H   0  0  0  0  0  0  0  0  0  0  0  0
   34.7097   19.4838   33.6268 H   0  0  0  0  0  0  0  0  0  0  0  0
   35.8254   21.1064   31.7582 H   0  0  0  0  0  0  0  0  0  0  0  0
   37.0108   26.9270   32.9899 H   0  0  0  0  0  0  0  0  0  0  0  0
   36.7742   29.2225   32.1558 H   0  0  0  0  0  0  0  0  0  0  0  0
   37.8668   29.7692   29.9220 H   0  0  0  0  0  0  0  0  0  0  0  0
   39.6733   26.0035   27.9403 H   0  0  0  0  0  0  0  0  0  0  0  0
   40.7465   26.6314   25.7233 H   0  0  0  0  0  0  0  0  0  0  0  0
   40.8126   29.0223   25.1614 H   0  0  0  0  0  0  0  0  0  0  0  0
   39.9188   30.8235   26.5876 H   0  0  0  0  0  0  0  0  0  0  0  0
  1 16  1  0
  2  1  1  0
  3  2  2  0
  4  3  1  0
  4  5  2  0
  5  1  1  0
  6  7  2  0
  7  8  1  0
  9  8  2  0
 10  9  1  0
 11 10  2  0
 11  6  1  0
 12 13  1  0
 12 10  1  0
 14 13  2  0
 15 16  2  0
 15 14  1  0
 16 12  1  0
 17  4  1  0
 17 18  2  0
 19 18  1  0
 20 19  2  0
 21 22  2  0
 21 20  1  0
 22 17  1  0
 23 21  1  0
 24 23  2  0
 25 24  1  0
 26 25  2  0
 26 27  1  0
 27 28  2  0
 28 23  1  0
  2 29  1  0
  6 30  1  0
  7 31  1  0
  8 32  1  0
 14 33  1  0
 15 34  1  0
 18 35  1  0
 19 36  1  0
 20 37  1  0
 24 38  1  0
 25 39  1  0
 26 40  1  0
 27 41  1  0
M  ISO  8  29  14  30  14  31  14  32  14  33  14  34  14  35  14  36  14
M  ISO  5  37  14  38  14  39  14  40  14  41  14
M  END
>  <minimizedAffinity>  (1) 
-5.69320393

>  <minimizedRMSD>  (1) 
0.37179774

$$$$
