
     RDKit          3D

 39 43  0  0  0  0  0  0  0  0999 V2000
   37.7450   22.9430   33.0220 N   0  0  0  0  0  0  0  0  0  0  0  0
   39.0720   22.9700   32.7480 C   0  0  0  0  0  0  0  0  0  0  0  0
   39.4130   24.1180   32.1540 N   0  0  0  0  0  0  0  0  0  0  0  0
   38.2700   24.8250   32.0560 C   0  0  0  0  0  0  0  0  0  0  0  0
   37.2690   24.1020   32.5860 N   0  0  0  0  0  0  0  0  0  0  0  0
   39.7250   22.7550   36.8600 C   0  0  0  0  0  0  0  0  0  0  0  0
   39.1440   23.3410   37.9990 C   0  0  0  0  0  0  0  0  0  0  0  0
   37.7590   23.3440   38.1010 C   0  0  0  0  0  0  0  0  0  0  0  0
   37.0210   22.7790   37.0940 N   0  0  0  0  0  0  0  0  0  0  0  0
   37.6050   22.2230   36.0130 C   0  0  0  0  0  0  0  0  0  0  0  0
   38.9530   22.2020   35.8780 N   0  0  0  0  0  0  0  0  0  0  0  0
   36.8680   21.6260   34.9450 N   0  0  0  0  0  0  0  0  0  0  0  0
   36.0010   20.6470   35.1420 N   0  0  0  0  0  0  0  0  0  0  0  0
   35.4610   20.2830   33.9690 C   0  0  0  0  0  0  0  0  0  0  0  0
   36.0470   21.1060   32.9940 C   0  0  0  0  0  0  0  0  0  0  0  0
   36.9300   21.9400   33.6440 C   0  0  0  0  0  0  0  0  0  0  0  0
   38.1640   26.1460   31.4710 C   0  0  0  0  0  0  0  0  0  0  0  0
   37.5020   27.1620   32.0990 C   0  0  0  0  0  0  0  0  0  0  0  0
   37.3670   28.4350   31.5980 C   0  0  0  0  0  0  0  0  0  0  0  0
   37.9450   28.7050   30.3640 C   0  0  0  0  0  0  0  0  0  0  0  0
   38.6090   27.6700   29.7450 C   0  0  0  0  0  0  0  0  0  0  0  0
   38.7070   26.4360   30.2900 N   0  0  0  0  0  0  0  0  0  0  0  0
   39.2270   27.9210   28.4470 C   0  0  0  0  0  0  0  0  0  0  0  0
   39.6130   29.1260   27.8970 C   0  0  0  0  0  0  0  0  0  0  0  0
   40.1500   28.9520   26.6760 N   0  0  0  0  0  0  0  0  0  0  0  0
   40.1110   27.6320   26.4330 C   0  0  0  0  0  0  0  0  0  0  0  0
   39.5580   27.0250   27.4990 N   0  0  0  0  0  0  0  0  0  0  0  0
   39.7742   22.1565   32.9829 H   0  0  0  0  0  0  0  0  0  0  0  0
   40.8202   22.7418   36.7582 H   0  0  0  0  0  0  0  0  0  0  0  0
   39.7696   23.7848   38.7875 H   0  0  0  0  0  0  0  0  0  0  0  0
   37.2631   23.7920   38.9747 H   0  0  0  0  0  0  0  0  0  0  0  0
   34.7094   19.4969   33.8041 H   0  0  0  0  0  0  0  0  0  0  0  0
   35.8399   21.0882   31.9138 H   0  0  0  0  0  0  0  0  0  0  0  0
   37.0440   26.9463   33.0756 H   0  0  0  0  0  0  0  0  0  0  0  0
   36.8212   29.2115   32.1540 H   0  0  0  0  0  0  0  0  0  0  0  0
   37.8753   29.7009   29.9022 H   0  0  0  0  0  0  0  0  0  0  0  0
   39.4968   30.1014   28.3921 H   0  0  0  0  0  0  0  0  0  0  0  0
   40.4692   27.1332   25.5204 H   0  0  0  0  0  0  0  0  0  0  0  0
   39.4079   26.0091   27.5788 H   0  0  0  0  0  0  0  0  0  0  0  0
  1 16  1  0
  2  1  1  0
  3  2  2  0
  4  3  1  0
  4  5  2  0
  5  1  1  0
  6  7  2  0
  7  8  1  0
  9  8  2  0
 10  9  1  0
 11 10  2  0
 11  6  1  0
 12 13  1  0
 12 10  1  0
 14 13  2  0
 15 16  2  0
 15 14  1  0
 16 12  1  0
 17  4  1  0
 17 18  2  0
 19 18  1  0
 20 19  2  0
 21 22  2  0
 21 20  1  0
 22 17  1  0
 23 21  1  0
 24 23  2  0
 25 24  1  0
 26 25  2  0
 26 27  1  0
 27 23  1  0
  2 28  1  0
  6 29  1  0
  7 30  1  0
  8 31  1  0
 14 32  1  0
 15 33  1  0
 18 34  1  0
 19 35  1  0
 20 36  1  0
 24 37  1  0
 26 38  1  0
 27 39  1  0
M  ISO  8  28  14  29  14  30  14  31  14  32  14  33  14  34  14  35  14
M  ISO  4  36  14  37  14  38  14  39   9
M  END
>  <minimizedAffinity>  (1) 
-5.69777727

>  <minimizedRMSD>  (1) 
0.229556367

$$$$
