
     RDKit          3D

 48 52  0  0  0  0  0  0  0  0999 V2000
   37.5360   23.0010   32.8270 N   0  0  0  0  0  0  0  0  0  0  0  0
   38.8220   23.0710   32.3880 C   0  0  0  0  0  0  0  0  0  0  0  0
   39.0880   24.2730   31.8720 N   0  0  0  0  0  0  0  0  0  0  0  0
   37.9310   24.9690   31.9970 C   0  0  0  0  0  0  0  0  0  0  0  0
   37.0080   24.1930   32.5710 N   0  0  0  0  0  0  0  0  0  0  0  0
   39.6690   22.8100   36.5770 C   0  0  0  0  0  0  0  0  0  0  0  0
   39.0990   23.3090   37.7500 C   0  0  0  0  0  0  0  0  0  0  0  0
   37.7230   23.2200   37.9100 C   0  0  0  0  0  0  0  0  0  0  0  0
   36.9930   22.6480   36.9110 N   0  0  0  0  0  0  0  0  0  0  0  0
   37.5550   22.1730   35.7890 C   0  0  0  0  0  0  0  0  0  0  0  0
   38.8880   22.2530   35.6200 N   0  0  0  0  0  0  0  0  0  0  0  0
   36.8160   21.5720   34.7320 N   0  0  0  0  0  0  0  0  0  0  0  0
   36.0140   20.5350   34.9210 N   0  0  0  0  0  0  0  0  0  0  0  0
   35.4500   20.1800   33.7540 C   0  0  0  0  0  0  0  0  0  0  0  0
   35.9510   21.0690   32.7920 C   0  0  0  0  0  0  0  0  0  0  0  0
   36.8090   21.9340   33.4420 C   0  0  0  0  0  0  0  0  0  0  0  0
   37.7620   26.3470   31.5580 C   0  0  0  0  0  0  0  0  0  0  0  0
   37.1050   27.2730   32.3390 C   0  0  0  0  0  0  0  0  0  0  0  0
   36.9020   28.5850   32.0070 C   0  0  0  0  0  0  0  0  0  0  0  0
   37.4130   29.0020   30.7680 C   0  0  0  0  0  0  0  0  0  0  0  0
   38.0630   28.0680   30.0050 C   0  0  0  0  0  0  0  0  0  0  0  0
   38.2390   26.7800   30.3800 N   0  0  0  0  0  0  0  0  0  0  0  0
   38.6130   28.4980   28.6840 C   0  0  0  0  0  0  0  0  0  0  0  0
   37.9670   29.7490   28.1900 C   0  0  0  0  0  0  0  0  0  0  0  0
   38.9710   30.4330   27.2690 C   0  0  0  0  0  0  0  0  0  0  0  0
   40.0630   30.9770   28.1660 C   0  0  0  0  0  0  0  0  0  0  0  0
   40.7070   29.8850   28.9750 C   0  0  0  0  0  0  0  0  0  0  0  0
   40.1140   28.5350   28.7270 C   0  0  0  0  0  0  0  0  0  0  0  0
   39.5468   22.2459   32.4501 H   0  0  0  0  0  0  0  0  0  0  0  0
   40.7574   22.8694   36.4291 H   0  0  0  0  0  0  0  0  0  0  0  0
   39.7270   23.7630   38.5307 H   0  0  0  0  0  0  0  0  0  0  0  0
   37.2346   23.6010   38.8190 H   0  0  0  0  0  0  0  0  0  0  0  0
   34.7387   19.3577   33.5870 H   0  0  0  0  0  0  0  0  0  0  0  0
   35.7062   21.0760   31.7196 H   0  0  0  0  0  0  0  0  0  0  0  0
   36.7120   26.9299   33.3074 H   0  0  0  0  0  0  0  0  0  0  0  0
   36.3670   29.2758   32.6753 H   0  0  0  0  0  0  0  0  0  0  0  0
   37.2960   30.0398   30.4226 H   0  0  0  0  0  0  0  0  0  0  0  0
   38.3540   27.7463   27.9239 H   0  0  0  0  0  0  0  0  0  0  0  0
   37.0488   29.5066   27.6349 H   0  0  0  0  0  0  0  0  0  0  0  0
   37.6904   30.4061   29.0277 H   0  0  0  0  0  0  0  0  0  0  0  0
   38.4865   31.2524   26.7179 H   0  0  0  0  0  0  0  0  0  0  0  0
   39.3755   29.7314   26.5246 H   0  0  0  0  0  0  0  0  0  0  0  0
   40.8301   31.4598   27.5427 H   0  0  0  0  0  0  0  0  0  0  0  0
   39.6106   31.7001   28.8607 H   0  0  0  0  0  0  0  0  0  0  0  0
   41.7768   29.8479   28.7218 H   0  0  0  0  0  0  0  0  0  0  0  0
   40.5392   30.1240   30.0355 H   0  0  0  0  0  0  0  0  0  0  0  0
   40.4488   27.8626   29.5306 H   0  0  0  0  0  0  0  0  0  0  0  0
   40.4574   28.2277   27.7282 H   0  0  0  0  0  0  0  0  0  0  0  0
  1 16  1  0
  2  1  1  0
  3  4  1  0
  3  2  2  0
  4  5  2  0
  5  1  1  0
  6  7  2  0
  7  8  1  0
  9  8  2  0
 10  9  1  0
 11 10  2  0
 11  6  1  0
 12 13  1  0
 12 10  1  0
 14 13  2  0
 15 16  2  0
 15 14  1  0
 16 12  1  0
 17  4  1  0
 17 18  2  0
 19 18  1  0
 20 19  2  0
 21 22  2  0
 21 20  1  0
 22 17  1  0
 23 28  1  0
 23 21  1  0
 24 23  1  0
 25 26  1  0
 25 24  1  0
 26 27  1  0
 28 27  1  0
  2 29  1  0
  6 30  1  0
  7 31  1  0
  8 32  1  0
 14 33  1  0
 15 34  1  0
 18 35  1  0
 19 36  1  0
 20 37  1  0
 23 38  1  0
 24 39  1  0
 24 40  1  0
 25 41  1  0
 25 42  1  0
 26 43  1  0
 26 44  1  0
 27 45  1  0
 27 46  1  0
 28 47  1  0
 28 48  1  0
M  ISO  8  29  14  30  14  31  14  32  14  33  14  34  14  35  14  36  14
M  ISO  8  37  14  38  13  39  13  40  13  41  13  42  13  43  13  44  13
M  ISO  4  45  13  46  13  47  13  48  13
M  END
>  <minimizedAffinity>  (1) 
-5.74983406

>  <minimizedRMSD>  (1) 
0.533799648

$$$$
