
     RDKit          3D

 40 44  0  0  0  0  0  0  0  0999 V2000
   37.6330   22.9530   32.8160 N   0  0  0  0  0  0  0  0  0  0  0  0
   38.9240   22.9930   32.4330 C   0  0  0  0  0  0  0  0  0  0  0  0
   39.2360   24.1640   31.8930 N   0  0  0  0  0  0  0  0  0  0  0  0
   38.0950   24.8920   31.9390 C   0  0  0  0  0  0  0  0  0  0  0  0
   37.1410   24.1450   32.4980 N   0  0  0  0  0  0  0  0  0  0  0  0
   39.6980   22.7510   36.6050 C   0  0  0  0  0  0  0  0  0  0  0  0
   39.1310   23.2970   37.7660 C   0  0  0  0  0  0  0  0  0  0  0  0
   37.7410   23.2600   37.9000 C   0  0  0  0  0  0  0  0  0  0  0  0
   37.0070   22.6940   36.8940 N   0  0  0  0  0  0  0  0  0  0  0  0
   37.5820   22.1740   35.7830 C   0  0  0  0  0  0  0  0  0  0  0  0
   38.9160   22.1950   35.6280 N   0  0  0  0  0  0  0  0  0  0  0  0
   36.8350   21.5800   34.7270 N   0  0  0  0  0  0  0  0  0  0  0  0
   36.0000   20.5820   34.9300 N   0  0  0  0  0  0  0  0  0  0  0  0
   35.4390   20.2280   33.7710 C   0  0  0  0  0  0  0  0  0  0  0  0
   35.9810   21.0810   32.7920 C   0  0  0  0  0  0  0  0  0  0  0  0
   36.8600   21.9240   33.4330 C   0  0  0  0  0  0  0  0  0  0  0  0
   37.9760   26.2530   31.4480 C   0  0  0  0  0  0  0  0  0  0  0  0
   37.2870   27.2050   32.1530 C   0  0  0  0  0  0  0  0  0  0  0  0
   37.1300   28.5100   31.7570 C   0  0  0  0  0  0  0  0  0  0  0  0
   37.7230   28.8850   30.5380 C   0  0  0  0  0  0  0  0  0  0  0  0
   38.4060   27.9140   29.8560 C   0  0  0  0  0  0  0  0  0  0  0  0
   38.5260   26.6420   30.2980 N   0  0  0  0  0  0  0  0  0  0  0  0
   39.0400   28.2540   28.5860 C   0  0  0  0  0  0  0  0  0  0  0  0
   39.1280   29.5560   28.1390 C   0  0  0  0  0  0  0  0  0  0  0  0
   39.7300   29.8300   26.9420 C   0  0  0  0  0  0  0  0  0  0  0  0
   40.2520   28.8460   26.1680 N   0  0  0  0  0  0  0  0  0  0  0  0
   40.1620   27.5720   26.6110 C   0  0  0  0  0  0  0  0  0  0  0  0
   39.5690   27.3050   27.7900 N   0  0  0  0  0  0  0  0  0  0  0  0
   39.6311   22.1590   32.5530 H   0  0  0  0  0  0  0  0  0  0  0  0
   40.7904   22.7698   36.4771 H   0  0  0  0  0  0  0  0  0  0  0  0
   39.7630   23.7417   38.5488 H   0  0  0  0  0  0  0  0  0  0  0  0
   37.2492   23.6755   38.7919 H   0  0  0  0  0  0  0  0  0  0  0  0
   34.7001   19.4285   33.6131 H   0  0  0  0  0  0  0  0  0  0  0  0
   35.7465   21.0752   31.7173 H   0  0  0  0  0  0  0  0  0  0  0  0
   36.8266   26.9016   33.1048 H   0  0  0  0  0  0  0  0  0  0  0  0
   36.5652   29.2309   32.3664 H   0  0  0  0  0  0  0  0  0  0  0  0
   37.6418   29.9112   30.1504 H   0  0  0  0  0  0  0  0  0  0  0  0
   38.7136   30.3746   28.7458 H   0  0  0  0  0  0  0  0  0  0  0  0
   39.7924   30.8732   26.5987 H   0  0  0  0  0  0  0  0  0  0  0  0
   40.5745   26.7509   26.0064 H   0  0  0  0  0  0  0  0  0  0  0  0
  1 16  1  0
  2  1  1  0
  3  4  1  0
  3  2  2  0
  4  5  2  0
  5  1  1  0
  6  7  2  0
  7  8  1  0
  9  8  2  0
 10  9  1  0
 11 10  2  0
 11  6  1  0
 12 13  1  0
 12 10  1  0
 14 13  2  0
 15 16  2  0
 15 14  1  0
 16 12  1  0
 17  4  1  0
 17 18  2  0
 19 18  1  0
 20 19  2  0
 21 22  2  0
 21 20  1  0
 22 17  1  0
 23 21  1  0
 24 23  2  0
 25 24  1  0
 26 27  1  0
 26 25  2  0
 27 28  2  0
 28 23  1  0
  2 29  1  0
  6 30  1  0
  7 31  1  0
  8 32  1  0
 14 33  1  0
 15 34  1  0
 18 35  1  0
 19 36  1  0
 20 37  1  0
 24 38  1  0
 25 39  1  0
 27 40  1  0
M  ISO  8  29  14  30  14  31  14  32  14  33  14  34  14  35  14  36  14
M  ISO  4  37  14  38  14  39  14  40  14
M  END
>  <minimizedAffinity>  (1) 
-5.66853189

>  <minimizedRMSD>  (1) 
0.53783977

$$$$
