
     RDKit          3D

 35 38  0  0  0  0  0  0  0  0999 V2000
   37.5440   23.0070   32.8140 N   0  0  0  0  0  0  0  0  0  0  0  0
   38.8210   23.0750   32.3710 C   0  0  0  0  0  0  0  0  0  0  0  0
   39.0980   24.2770   31.8590 N   0  0  0  0  0  0  0  0  0  0  0  0
   37.9670   24.9850   31.9830 C   0  0  0  0  0  0  0  0  0  0  0  0
   37.0410   24.2120   32.5580 N   0  0  0  0  0  0  0  0  0  0  0  0
   39.6860   22.7980   36.5520 C   0  0  0  0  0  0  0  0  0  0  0  0
   39.1210   23.3040   37.7330 C   0  0  0  0  0  0  0  0  0  0  0  0
   37.7310   23.2220   37.8970 C   0  0  0  0  0  0  0  0  0  0  0  0
   37.0010   22.6550   36.9000 N   0  0  0  0  0  0  0  0  0  0  0  0
   37.5680   22.1750   35.7720 C   0  0  0  0  0  0  0  0  0  0  0  0
   38.9010   22.2440   35.5970 N   0  0  0  0  0  0  0  0  0  0  0  0
   36.8220   21.5790   34.7190 N   0  0  0  0  0  0  0  0  0  0  0  0
   36.0150   20.5500   34.9040 N   0  0  0  0  0  0  0  0  0  0  0  0
   35.4490   20.2010   33.7410 C   0  0  0  0  0  0  0  0  0  0  0  0
   35.9520   21.0920   32.7730 C   0  0  0  0  0  0  0  0  0  0  0  0
   36.8170   21.9510   33.4210 C   0  0  0  0  0  0  0  0  0  0  0  0
   37.7810   26.3740   31.5590 C   0  0  0  0  0  0  0  0  0  0  0  0
   37.1130   27.2830   32.3210 C   0  0  0  0  0  0  0  0  0  0  0  0
   36.9020   28.5940   31.9870 C   0  0  0  0  0  0  0  0  0  0  0  0
   37.4270   29.0160   30.7530 C   0  0  0  0  0  0  0  0  0  0  0  0
   38.1000   28.0840   29.9950 C   0  0  0  0  0  0  0  0  0  0  0  0
   38.2790   26.7830   30.3820 N   0  0  0  0  0  0  0  0  0  0  0  0
   38.6680   28.4960   28.6830 C   0  0  0  0  0  0  0  0  0  0  0  0
   39.7740   29.2990   28.8450 F   0  0  0  0  0  0  0  0  0  0  0  0
   39.0620   27.4050   27.9200 F   0  0  0  0  0  0  0  0  0  0  0  0
   37.7320   29.2000   27.9350 F   0  0  0  0  0  0  0  0  0  0  0  0
   39.5404   22.2446   32.4258 H   0  0  0  0  0  0  0  0  0  0  0  0
   40.7742   22.8517   36.4008 H   0  0  0  0  0  0  0  0  0  0  0  0
   39.7540   23.7544   38.5117 H   0  0  0  0  0  0  0  0  0  0  0  0
   37.2450   23.6054   38.8063 H   0  0  0  0  0  0  0  0  0  0  0  0
   34.7339   19.3818   33.5751 H   0  0  0  0  0  0  0  0  0  0  0  0
   35.7024   21.1016   31.7017 H   0  0  0  0  0  0  0  0  0  0  0  0
   36.7098   26.9359   33.2838 H   0  0  0  0  0  0  0  0  0  0  0  0
   36.3517   29.2796   32.6481 H   0  0  0  0  0  0  0  0  0  0  0  0
   37.3047   30.0526   30.4058 H   0  0  0  0  0  0  0  0  0  0  0  0
  1 16  1  0
  2  1  1  0
  3  4  1  0
  3  2  2  0
  4  5  2  0
  5  1  1  0
  6  7  2  0
  7  8  1  0
  9  8  2  0
 10  9  1  0
 11 10  2  0
 11  6  1  0
 12 13  1  0
 12 10  1  0
 14 13  2  0
 15 16  2  0
 15 14  1  0
 16 12  1  0
 17  4  1  0
 17 18  2  0
 19 18  1  0
 20 19  2  0
 21 22  2  0
 21 20  1  0
 22 17  1  0
 23 24  1  0
 23 21  1  0
 25 23  1  0
 26 23  1  0
  2 27  1  0
  6 28  1  0
  7 29  1  0
  8 30  1  0
 14 31  1  0
 15 32  1  0
 18 33  1  0
 19 34  1  0
 20 35  1  0
M  ISO  8  27  14  28  14  29  14  30  14  31  14  32  14  33  14  34  14
M  ISO  1  35  14
M  END
>  <minimizedAffinity>  (1) 
-5.48810482

>  <minimizedRMSD>  (1) 
0.542721093

$$$$
