
     RDKit          3D

 33 36  0  0  0  0  0  0  0  0999 V2000
   37.5420   23.0040   32.8220 N   0  0  0  0  0  0  0  0  0  0  0  0
   38.8250   23.0880   32.3940 C   0  0  0  0  0  0  0  0  0  0  0  0
   39.0970   24.2860   31.8770 N   0  0  0  0  0  0  0  0  0  0  0  0
   37.9400   24.9840   31.9830 C   0  0  0  0  0  0  0  0  0  0  0  0
   37.0220   24.2020   32.5500 N   0  0  0  0  0  0  0  0  0  0  0  0
   39.6700   22.8000   36.5750 C   0  0  0  0  0  0  0  0  0  0  0  0
   39.1140   23.3090   37.7520 C   0  0  0  0  0  0  0  0  0  0  0  0
   37.7380   23.2230   37.8990 C   0  0  0  0  0  0  0  0  0  0  0  0
   36.9940   22.6570   36.9090 N   0  0  0  0  0  0  0  0  0  0  0  0
   37.5570   22.1740   35.7830 C   0  0  0  0  0  0  0  0  0  0  0  0
   38.8970   22.2420   35.6060 N   0  0  0  0  0  0  0  0  0  0  0  0
   36.8210   21.5800   34.7320 N   0  0  0  0  0  0  0  0  0  0  0  0
   36.0150   20.5490   34.9130 N   0  0  0  0  0  0  0  0  0  0  0  0
   35.4540   20.1960   33.7510 C   0  0  0  0  0  0  0  0  0  0  0  0
   35.9570   21.0850   32.7870 C   0  0  0  0  0  0  0  0  0  0  0  0
   36.8140   21.9430   33.4320 C   0  0  0  0  0  0  0  0  0  0  0  0
   37.7770   26.3580   31.5360 C   0  0  0  0  0  0  0  0  0  0  0  0
   37.1420   27.2820   32.3150 C   0  0  0  0  0  0  0  0  0  0  0  0
   36.9450   28.5980   31.9720 C   0  0  0  0  0  0  0  0  0  0  0  0
   37.4350   29.0050   30.7310 C   0  0  0  0  0  0  0  0  0  0  0  0
   38.0710   28.0610   29.9600 C   0  0  0  0  0  0  0  0  0  0  0  0
   38.2450   26.7620   30.3430 N   0  0  0  0  0  0  0  0  0  0  0  0
   38.6980   28.6040   28.3630 S   0  0  0  0  0  0  0  0  0  0  0  0
   39.5537   22.2670   32.4647 H   0  0  0  0  0  0  0  0  0  0  0  0
   40.7591   22.8522   36.4293 H   0  0  0  0  0  0  0  0  0  0  0  0
   39.7443   23.7607   38.5322 H   0  0  0  0  0  0  0  0  0  0  0  0
   37.2518   23.6086   38.8072 H   0  0  0  0  0  0  0  0  0  0  0  0
   34.7418   19.3745   33.5840 H   0  0  0  0  0  0  0  0  0  0  0  0
   35.7105   21.0927   31.7150 H   0  0  0  0  0  0  0  0  0  0  0  0
   36.7593   26.9479   33.2906 H   0  0  0  0  0  0  0  0  0  0  0  0
   36.4257   29.2971   32.6440 H   0  0  0  0  0  0  0  0  0  0  0  0
   37.3170   30.0417   30.3826 H   0  0  0  0  0  0  0  0  0  0  0  0
   39.7236   29.4922   28.5531 H   0  0  0  0  0  0  0  0  0  0  0  0
  1 16  1  0
  2  1  1  0
  3  4  1  0
  3  2  2  0
  4  5  2  0
  5  1  1  0
  6  7  2  0
  7  8  1  0
  9  8  2  0
 10  9  1  0
 11 10  2  0
 11  6  1  0
 12 13  1  0
 12 10  1  0
 14 13  2  0
 15 16  2  0
 15 14  1  0
 16 12  1  0
 17  4  1  0
 17 18  2  0
 19 18  1  0
 20 19  2  0
 21 22  2  0
 21 20  1  0
 22 17  1  0
 23 21  1  0
  2 24  1  0
  6 25  1  0
  7 26  1  0
  8 27  1  0
 14 28  1  0
 15 29  1  0
 18 30  1  0
 19 31  1  0
 20 32  1  0
 23 33  1  0
M  ISO  8  24  14  25  14  26  14  27  14  28  14  29  14  30  14  31  14
M  ISO  2  32  14  33  11
M  END
>  <minimizedAffinity>  (1) 
-5.260993

>  <minimizedRMSD>  (1) 
0.369751066

$$$$
