
     RDKit          3D

 46 50  0  0  0  0  0  0  0  0999 V2000
   37.4390   23.2290   32.7730 N   0  0  0  0  0  0  0  0  0  0  0  0
   38.7130   23.4180   32.3570 C   0  0  0  0  0  0  0  0  0  0  0  0
   38.9130   24.6640   31.8900 N   0  0  0  0  0  0  0  0  0  0  0  0
   37.7130   25.2640   32.0230 C   0  0  0  0  0  0  0  0  0  0  0  0
   36.8400   24.3990   32.5510 N   0  0  0  0  0  0  0  0  0  0  0  0
   39.6640   22.9360   36.4580 C   0  0  0  0  0  0  0  0  0  0  0  0
   39.1040   23.3330   37.6670 C   0  0  0  0  0  0  0  0  0  0  0  0
   37.7290   23.1580   37.8480 C   0  0  0  0  0  0  0  0  0  0  0  0
   36.9940   22.6070   36.8350 N   0  0  0  0  0  0  0  0  0  0  0  0
   37.5680   22.2320   35.6740 C   0  0  0  0  0  0  0  0  0  0  0  0
   38.9120   22.3870   35.4580 N   0  0  0  0  0  0  0  0  0  0  0  0
   36.8330   21.6490   34.5870 N   0  0  0  0  0  0  0  0  0  0  0  0
   36.0990   20.5680   34.7340 N   0  0  0  0  0  0  0  0  0  0  0  0
   35.5340   20.2550   33.5630 C   0  0  0  0  0  0  0  0  0  0  0  0
   35.9690   21.2310   32.6510 C   0  0  0  0  0  0  0  0  0  0  0  0
   36.7860   22.0940   33.3300 C   0  0  0  0  0  0  0  0  0  0  0  0
   37.4280   26.6510   31.6430 C   0  0  0  0  0  0  0  0  0  0  0  0
   36.9030   27.5450   32.5220 C   0  0  0  0  0  0  0  0  0  0  0  0
   36.6070   28.8560   32.2200 C   0  0  0  0  0  0  0  0  0  0  0  0
   36.8670   29.2830   30.9260 C   0  0  0  0  0  0  0  0  0  0  0  0
   37.3950   28.3690   30.0580 C   0  0  0  0  0  0  0  0  0  0  0  0
   37.6720   27.0740   30.4040 N   0  0  0  0  0  0  0  0  0  0  0  0
   37.6710   28.7660   28.6560 C   0  0  0  0  0  0  0  0  0  0  0  0
   38.8580   29.5470   28.4850 N   0  0  0  0  0  0  0  0  0  0  0  0
   40.0750   29.2110   28.9410 C   0  0  0  0  0  0  0  0  0  0  0  0
   41.1710   30.0330   28.7260 C   0  0  0  0  0  0  0  0  0  0  0  0
   40.9820   31.2260   28.0230 C   0  0  0  0  0  0  0  0  0  0  0  0
   42.0400   32.1650   27.7360 N   0  0  0  0  0  0  0  0  0  0  0  0
   39.7300   31.5260   27.5800 N   0  0  0  0  0  0  0  0  0  0  0  0
   38.6850   30.7020   27.8050 C   0  0  0  0  0  0  0  0  0  0  0  0
   37.5590   31.0880   27.3440 O   0  0  0  0  0  0  0  0  0  0  0  0
   39.4934   22.6438   32.3961 H   0  0  0  0  0  0  0  0  0  0  0  0
   40.7448   23.0678   36.3018 H   0  0  0  0  0  0  0  0  0  0  0  0
   39.7264   23.7731   38.4601 H   0  0  0  0  0  0  0  0  0  0  0  0
   37.2463   23.4585   38.7896 H   0  0  0  0  0  0  0  0  0  0  0  0
   34.8652   19.4065   33.3561 H   0  0  0  0  0  0  0  0  0  0  0  0
   35.7018   21.2907   31.5856 H   0  0  0  0  0  0  0  0  0  0  0  0
   36.7004   27.1974   33.5458 H   0  0  0  0  0  0  0  0  0  0  0  0
   36.1823   29.5358   32.9733 H   0  0  0  0  0  0  0  0  0  0  0  0
   36.6566   30.3158   30.6112 H   0  0  0  0  0  0  0  0  0  0  0  0
   37.7711   27.8515   28.0529 H   0  0  0  0  0  0  0  0  0  0  0  0
   36.8300   29.3997   28.3380 H   0  0  0  0  0  0  0  0  0  0  0  0
   40.2049   28.2689   29.4938 H   0  0  0  0  0  0  0  0  0  0  0  0
   42.1666   29.7524   29.1003 H   0  0  0  0  0  0  0  0  0  0  0  0
   41.8347   33.0279   27.2124 H   0  0  0  0  0  0  0  0  0  0  0  0
   43.0002   31.9722   28.0548 H   0  0  0  0  0  0  0  0  0  0  0  0
  1 16  1  0
  2  1  1  0
  3  4  1  0
  3  2  2  0
  4  5  2  0
  5  1  1  0
  6  7  2  0
  7  8  1  0
  9  8  2  0
 10  9  1  0
 11 10  2  0
 11  6  1  0
 12 13  1  0
 12 10  1  0
 14 13  2  0
 15 16  2  0
 15 14  1  0
 16 12  1  0
 17  4  1  0
 17 18  2  0
 19 18  1  0
 20 19  2  0
 21 22  2  0
 21 20  1  0
 22 17  1  0
 23 21  1  0
 24 23  1  0
 24 25  1  0
 26 25  2  0
 27 26  1  0
 28 27  1  0
 29 30  1  0
 29 27  2  0
 30 24  1  0
 31 30  2  0
  2 32  1  0
  6 33  1  0
  7 34  1  0
  8 35  1  0
 14 36  1  0
 15 37  1  0
 18 38  1  0
 19 39  1  0
 20 40  1  0
 23 41  1  0
 23 42  1  0
 25 43  1  0
 26 44  1  0
 28 45  1  0
 28 46  1  0
M  ISO  8  32  14  33  14  34  14  35  14  36  14  37  14  38  14  39  14
M  ISO  5  40  14  41   8  42   8  43  14  44  14
M  END
>  <minimizedAffinity>  (1) 
-5.53466225

>  <minimizedRMSD>  (1) 
0.920821667

$$$$
