
     RDKit          3D

 48 53  0  0  0  0  0  0  0  0999 V2000
   37.2160   26.7320   31.4500 C   0  0  0  0  0  0  0  0  0  0  0  0
   36.7160   27.5250   32.4350 C   0  0  0  0  0  0  0  0  0  0  0  0
   36.4600   28.8660   32.3370 C   0  0  0  0  0  0  0  0  0  0  0  0
   36.7410   29.4660   31.1080 C   0  0  0  0  0  0  0  0  0  0  0  0
   37.2520   28.6540   30.1040 C   0  0  0  0  0  0  0  0  0  0  0  0
   37.4800   27.3280   30.2770 N   0  0  0  0  0  0  0  0  0  0  0  0
   37.2140   23.2270   32.2580 N   0  0  0  0  0  0  0  0  0  0  0  0
   38.3530   23.3660   31.5500 C   0  0  0  0  0  0  0  0  0  0  0  0
   38.5380   24.6430   31.1460 N   0  0  0  0  0  0  0  0  0  0  0  0
   37.4620   25.3070   31.6320 C   0  0  0  0  0  0  0  0  0  0  0  0
   36.6780   24.4520   32.2960 N   0  0  0  0  0  0  0  0  0  0  0  0
   39.8760   22.8540   35.6340 C   0  0  0  0  0  0  0  0  0  0  0  0
   39.4750   23.2350   36.9120 C   0  0  0  0  0  0  0  0  0  0  0  0
   38.1320   23.0660   37.2620 C   0  0  0  0  0  0  0  0  0  0  0  0
   37.2890   22.5370   36.3260 N   0  0  0  0  0  0  0  0  0  0  0  0
   37.6960   22.1740   35.0940 C   0  0  0  0  0  0  0  0  0  0  0  0
   39.0050   22.3280   34.7250 N   0  0  0  0  0  0  0  0  0  0  0  0
   36.8260   21.6240   34.1170 N   0  0  0  0  0  0  0  0  0  0  0  0
   36.0950   20.5460   34.3350 N   0  0  0  0  0  0  0  0  0  0  0  0
   35.3740   20.2650   33.2300 C   0  0  0  0  0  0  0  0  0  0  0  0
   35.7050   21.2530   32.2850 C   0  0  0  0  0  0  0  0  0  0  0  0
   36.6200   22.0920   32.8730 C   0  0  0  0  0  0  0  0  0  0  0  0
   37.5490   29.2750   28.8160 C   0  0  0  0  0  0  0  0  0  0  0  0
   38.9460   29.3370   28.5190 N   0  0  0  0  0  0  0  0  0  0  0  0
   39.7150   30.3780   28.9220 C   0  0  0  0  0  0  0  0  0  0  0  0
   40.9870   30.1970   28.5190 N   0  0  0  0  0  0  0  0  0  0  0  0
   41.0790   29.0530   27.8560 C   0  0  0  0  0  0  0  0  0  0  0  0
   42.0800   28.3340   27.2160 C   0  0  0  0  0  0  0  0  0  0  0  0
   41.8170   27.1420   26.6100 N   0  0  0  0  0  0  0  0  0  0  0  0
   40.5360   26.6720   26.6500 C   0  0  0  0  0  0  0  0  0  0  0  0
   39.5260   27.3500   27.2690 N   0  0  0  0  0  0  0  0  0  0  0  0
   39.8040   28.5340   27.8660 C   0  0  0  0  0  0  0  0  0  0  0  0
   43.3630   28.9470   27.2560 N   0  0  0  0  0  0  0  0  0  0  0  0
   36.4970   27.0443   33.3999 H   0  0  0  0  0  0  0  0  0  0  0  0
   36.0541   29.4410   33.1824 H   0  0  0  0  0  0  0  0  0  0  0  0
   36.5647   30.5390   30.9417 H   0  0  0  0  0  0  0  0  0  0  0  0
   39.0467   22.5416   31.3283 H   0  0  0  0  0  0  0  0  0  0  0  0
   40.9304   22.9814   35.3477 H   0  0  0  0  0  0  0  0  0  0  0  0
   40.1959   23.6578   37.6273 H   0  0  0  0  0  0  0  0  0  0  0  0
   37.7656   23.3500   38.2596 H   0  0  0  0  0  0  0  0  0  0  0  0
   34.6692   19.4313   33.0951 H   0  0  0  0  0  0  0  0  0  0  0  0
   35.3050   21.3380   31.2638 H   0  0  0  0  0  0  0  0  0  0  0  0
   37.0511   28.6931   28.0264 H   0  0  0  0  0  0  0  0  0  0  0  0
   37.1835   30.3113   28.8657 H   0  0  0  0  0  0  0  0  0  0  0  0
   39.3527   31.2444   29.4948 H   0  0  0  0  0  0  0  0  0  0  0  0
   40.3093   25.7110   26.1653 H   0  0  0  0  0  0  0  0  0  0  0  0
   44.1679   28.4867   26.8075 H   0  0  0  0  0  0  0  0  0  0  0  0
   43.4871   29.8511   27.7335 H   0  0  0  0  0  0  0  0  0  0  0  0
  1 10  1  0
  1  2  2  0
  3  2  1  0
  4  3  2  0
  5  6  2  0
  5  4  1  0
  6  1  1  0
  7 11  1  0
  7 22  1  0
  8  7  1  0
  9  8  2  0
  9 10  1  0
 10 11  2  0
 12 13  2  0
 13 14  1  0
 15 14  2  0
 16 15  1  0
 17 16  2  0
 17 12  1  0
 18 19  1  0
 18 16  1  0
 20 19  2  0
 21 22  2  0
 21 20  1  0
 22 18  1  0
 23  5  1  0
 24 23  1  0
 24 25  1  0
 26 25  2  0
 27 32  2  0
 27 26  1  0
 28 33  1  0
 28 27  1  0
 29 30  1  0
 29 28  2  0
 30 31  2  0
 31 32  1  0
 32 24  1  0
  2 34  1  0
  3 35  1  0
  4 36  1  0
  8 37  1  0
 12 38  1  0
 13 39  1  0
 14 40  1  0
 20 41  1  0
 21 42  1  0
 23 43  1  0
 23 44  1  0
 25 45  1  0
 30 46  1  0
 33 47  1  0
 33 48  1  0
M  ISO  8  34  14  35  14  36  14  37  14  38  14  39  14  40  14  41  14
M  ISO  5  42  14  43   8  44   8  45  14  46  14
M  END
>  <minimizedAffinity>  (1) 
-5.65173626

>  <minimizedRMSD>  (1) 
1.29584908

$$$$
