
     RDKit          3D

 42 46  0  0  0  0  0  0  0  0999 V2000
   37.3050   23.1890   32.5020 N   0  0  0  0  0  0  0  0  0  0  0  0
   38.5100   23.3450   31.8950 C   0  0  0  0  0  0  0  0  0  0  0  0
   38.6910   24.6150   31.4810 N   0  0  0  0  0  0  0  0  0  0  0  0
   37.5610   25.2560   31.8460 C   0  0  0  0  0  0  0  0  0  0  0  0
   36.7360   24.4000   32.4560 N   0  0  0  0  0  0  0  0  0  0  0  0
   39.7050   22.8990   36.0840 C   0  0  0  0  0  0  0  0  0  0  0  0
   39.2010   23.2840   37.3160 C   0  0  0  0  0  0  0  0  0  0  0  0
   37.8350   23.0960   37.5630 C   0  0  0  0  0  0  0  0  0  0  0  0
   37.0620   22.5370   36.5650 N   0  0  0  0  0  0  0  0  0  0  0  0
   37.5960   22.1760   35.3750 C   0  0  0  0  0  0  0  0  0  0  0  0
   38.9120   22.3510   35.1200 N   0  0  0  0  0  0  0  0  0  0  0  0
   36.8200   21.6000   34.3360 N   0  0  0  0  0  0  0  0  0  0  0  0
   36.1010   20.5050   34.5070 N   0  0  0  0  0  0  0  0  0  0  0  0
   35.4730   20.1940   33.3530 C   0  0  0  0  0  0  0  0  0  0  0  0
   35.8490   21.1790   32.4290 C   0  0  0  0  0  0  0  0  0  0  0  0
   36.6970   22.0470   33.0850 C   0  0  0  0  0  0  0  0  0  0  0  0
   37.2980   26.6750   31.6010 C   0  0  0  0  0  0  0  0  0  0  0  0
   36.8030   27.4920   32.5600 C   0  0  0  0  0  0  0  0  0  0  0  0
   36.5320   28.8280   32.4050 C   0  0  0  0  0  0  0  0  0  0  0  0
   36.7900   29.3780   31.1540 C   0  0  0  0  0  0  0  0  0  0  0  0
   37.2930   28.5390   30.1830 C   0  0  0  0  0  0  0  0  0  0  0  0
   37.5360   27.2250   30.4120 N   0  0  0  0  0  0  0  0  0  0  0  0
   37.5790   29.0810   28.8460 C   0  0  0  0  0  0  0  0  0  0  0  0
   38.7140   28.4040   28.1680 C   0  0  0  0  0  0  0  0  0  0  0  0
   39.7900   29.1480   27.6800 C   0  0  0  0  0  0  0  0  0  0  0  0
   40.6870   28.3420   27.1140 N   0  0  0  0  0  0  0  0  0  0  0  0
   40.1790   27.0880   27.2440 C   0  0  0  0  0  0  0  0  0  0  0  0
   38.9780   27.1290   27.8860 N   0  0  0  0  0  0  0  0  0  0  0  0
   39.2447   22.5377   31.7586 H   0  0  0  0  0  0  0  0  0  0  0  0
   40.7763   23.0397   35.8778 H   0  0  0  0  0  0  0  0  0  0  0  0
   39.8568   23.7260   38.0806 H   0  0  0  0  0  0  0  0  0  0  0  0
   37.3902   23.3860   38.5263 H   0  0  0  0  0  0  0  0  0  0  0  0
   34.8023   19.3407   33.1741 H   0  0  0  0  0  0  0  0  0  0  0  0
   35.5283   21.2469   31.3790 H   0  0  0  0  0  0  0  0  0  0  0  0
   36.6012   27.0477   33.5458 H   0  0  0  0  0  0  0  0  0  0  0  0
   36.1302   29.4346   33.2300 H   0  0  0  0  0  0  0  0  0  0  0  0
   36.6000   30.4416   30.9474 H   0  0  0  0  0  0  0  0  0  0  0  0
   36.6803   28.9646   28.2225 H   0  0  0  0  0  0  0  0  0  0  0  0
   37.8598   30.1366   28.9756 H   0  0  0  0  0  0  0  0  0  0  0  0
   39.8835   30.2416   27.7524 H   0  0  0  0  0  0  0  0  0  0  0  0
   40.6677   26.1712   26.8826 H   0  0  0  0  0  0  0  0  0  0  0  0
   38.3818   26.3202   28.1125 H   0  0  0  0  0  0  0  0  0  0  0  0
  1 16  1  0
  2  1  1  0
  3  4  1  0
  3  2  2  0
  4  5  2  0
  5  1  1  0
  6  7  2  0
  7  8  1  0
  9  8  2  0
 10  9  1  0
 11 10  2  0
 11  6  1  0
 12 13  1  0
 12 10  1  0
 14 13  2  0
 15 16  2  0
 15 14  1  0
 16 12  1  0
 17  4  1  0
 17 18  2  0
 19 18  1  0
 20 19  2  0
 21 22  2  0
 21 20  1  0
 22 17  1  0
 23 21  1  0
 24 23  1  0
 25 24  2  0
 26 27  2  0
 26 25  1  0
 27 28  1  0
 28 24  1  0
  2 29  1  0
  6 30  1  0
  7 31  1  0
  8 32  1  0
 14 33  1  0
 15 34  1  0
 18 35  1  0
 19 36  1  0
 20 37  1  0
 23 38  1  0
 23 39  1  0
 25 40  1  0
 27 41  1  0
 28 42  1  0
M  ISO  8  29  14  30  14  31  14  32  14  33  14  34  14  35  14  36  14
M  ISO  6  37  14  38   8  39   8  40  14  41  14  42   9
M  END
>  <minimizedAffinity>  (1) 
-5.55331707

>  <minimizedRMSD>  (1) 
1.24542034

$$$$
