
     RDKit          3D

 42 46  0  0  0  0  0  0  0  0999 V2000
   36.6840   23.2380   31.6530 N   0  0  0  0  0  0  0  0  0  0  0  0
   37.6200   23.4880   30.7220 C   0  0  0  0  0  0  0  0  0  0  0  0
   37.7860   24.8060   30.5520 N   0  0  0  0  0  0  0  0  0  0  0  0
   36.9190   25.3850   31.4100 C   0  0  0  0  0  0  0  0  0  0  0  0
   36.2620   24.4410   32.0670 N   0  0  0  0  0  0  0  0  0  0  0  0
   39.6640   22.4770   34.6850 C   0  0  0  0  0  0  0  0  0  0  0  0
   39.3810   22.6720   36.0340 C   0  0  0  0  0  0  0  0  0  0  0  0
   38.0840   22.4250   36.4810 C   0  0  0  0  0  0  0  0  0  0  0  0
   37.1550   22.0020   35.5690 N   0  0  0  0  0  0  0  0  0  0  0  0
   37.4590   21.8210   34.2640 C   0  0  0  0  0  0  0  0  0  0  0  0
   38.7140   22.0530   33.7960 N   0  0  0  0  0  0  0  0  0  0  0  0
   36.5000   21.3820   33.3090 N   0  0  0  0  0  0  0  0  0  0  0  0
   35.8050   20.2700   33.4420 N   0  0  0  0  0  0  0  0  0  0  0  0
   34.9820   20.1210   32.3860 C   0  0  0  0  0  0  0  0  0  0  0  0
   35.2040   21.2330   31.5570 C   0  0  0  0  0  0  0  0  0  0  0  0
   36.1680   22.0110   32.1690 C   0  0  0  0  0  0  0  0  0  0  0  0
   36.7620   26.8360   31.5600 C   0  0  0  0  0  0  0  0  0  0  0  0
   36.3930   27.3870   32.7450 C   0  0  0  0  0  0  0  0  0  0  0  0
   36.2230   28.7350   32.9700 C   0  0  0  0  0  0  0  0  0  0  0  0
   36.4500   29.5830   31.8990 C   0  0  0  0  0  0  0  0  0  0  0  0
   36.8220   29.0080   30.7100 C   0  0  0  0  0  0  0  0  0  0  0  0
   36.9850   27.6600   30.5110 N   0  0  0  0  0  0  0  0  0  0  0  0
   37.0610   29.8750   29.5330 C   0  0  0  0  0  0  0  0  0  0  0  0
   38.2950   29.5240   28.7830 C   0  0  0  0  0  0  0  0  0  0  0  0
   39.3830   30.6070   28.7920 C   0  0  0  0  0  0  0  0  0  0  0  0
   38.6650   30.2040   27.5430 C   0  0  0  0  0  0  0  0  0  0  0  0
   38.1757   22.7136   30.1728 H   0  0  0  0  0  0  0  0  0  0  0  0
   40.6843   22.6700   34.3219 H   0  0  0  0  0  0  0  0  0  0  0  0
   40.1617   23.0126   36.7301 H   0  0  0  0  0  0  0  0  0  0  0  0
   37.8143   22.5662   37.5380 H   0  0  0  0  0  0  0  0  0  0  0  0
   34.2778   19.2948   32.2086 H   0  0  0  0  0  0  0  0  0  0  0  0
   34.7042   21.4447   30.6002 H   0  0  0  0  0  0  0  0  0  0  0  0
   36.2164   26.7047   33.5895 H   0  0  0  0  0  0  0  0  0  0  0  0
   35.9208   29.1203   33.9550 H   0  0  0  0  0  0  0  0  0  0  0  0
   36.3368   30.6727   31.9974 H   0  0  0  0  0  0  0  0  0  0  0  0
   36.2015   29.7841   28.8525 H   0  0  0  0  0  0  0  0  0  0  0  0
   37.1886   30.9018   29.9063 H   0  0  0  0  0  0  0  0  0  0  0  0
   38.1955   28.4588   29.0387 H   0  0  0  0  0  0  0  0  0  0  0  0
   39.1893   31.5864   29.2537 H   0  0  0  0  0  0  0  0  0  0  0  0
   40.4323   30.6719   29.1157 H   0  0  0  0  0  0  0  0  0  0  0  0
   39.2052   29.6506   26.7607 H   0  0  0  0  0  0  0  0  0  0  0  0
   38.0992   30.7547   26.7771 H   0  0  0  0  0  0  0  0  0  0  0  0
  1  5  1  0
  1 16  1  0
  2  1  1  0
  3  2  2  0
  3  4  1  0
  4 17  1  0
  4  5  2  0
  6  7  2  0
  7  8  1  0
  9  8  2  0
 10  9  1  0
 11 10  2  0
 11  6  1  0
 12 13  1  0
 12 10  1  0
 14 13  2  0
 15 16  2  0
 15 14  1  0
 16 12  1  0
 17 18  2  0
 18 19  1  0
 20 19  2  0
 21 20  1  0
 22 21  2  0
 22 17  1  0
 23 21  1  0
 24 25  1  0
 24 23  1  0
 26 24  1  0
 26 25  1  0
  2 27  1  0
  6 28  1  0
  7 29  1  0
  8 30  1  0
 14 31  1  0
 15 32  1  0
 18 33  1  0
 19 34  1  0
 20 35  1  0
 23 36  1  0
 23 37  1  0
 24 38  1  0
 25 39  1  0
 25 40  1  0
 26 41  1  0
 26 42  1  0
M  ISO  8  27  14  28  14  29  14  30  14  31  14  32  14  33  14  34  14
M  ISO  8  35  14  36   8  37   8  38  13  39  13  40  13  41  13  42  13
M  END
>  <minimizedAffinity>  (1) 
-5.36088324

>  <minimizedRMSD>  (1) 
1.9865756

$$$$
