
     RDKit          3D

 48 52  0  0  0  0  0  0  0  0999 V2000
   36.7110   23.1560   31.6340 N   0  0  0  0  0  0  0  0  0  0  0  0
   37.7130   23.3290   30.7580 C   0  0  0  0  0  0  0  0  0  0  0  0
   37.8820   24.6260   30.4570 N   0  0  0  0  0  0  0  0  0  0  0  0
   36.9350   25.2760   31.1870 C   0  0  0  0  0  0  0  0  0  0  0  0
   36.2520   24.3830   31.8780 N   0  0  0  0  0  0  0  0  0  0  0  0
   39.7650   22.4900   34.6300 C   0  0  0  0  0  0  0  0  0  0  0  0
   39.5250   22.7780   35.9760 C   0  0  0  0  0  0  0  0  0  0  0  0
   38.2210   22.6010   36.4730 C   0  0  0  0  0  0  0  0  0  0  0  0
   37.2530   22.1540   35.6150 N   0  0  0  0  0  0  0  0  0  0  0  0
   37.5240   21.8850   34.3140 C   0  0  0  0  0  0  0  0  0  0  0  0
   38.7670   22.0440   33.8020 N   0  0  0  0  0  0  0  0  0  0  0  0
   36.5200   21.4150   33.3990 N   0  0  0  0  0  0  0  0  0  0  0  0
   35.8140   20.3330   33.6340 N   0  0  0  0  0  0  0  0  0  0  0  0
   34.9540   20.1350   32.6100 C   0  0  0  0  0  0  0  0  0  0  0  0
   35.1910   21.1940   31.7130 C   0  0  0  0  0  0  0  0  0  0  0  0
   36.1760   21.9780   32.2340 C   0  0  0  0  0  0  0  0  0  0  0  0
   36.7450   26.7280   31.1760 C   0  0  0  0  0  0  0  0  0  0  0  0
   35.8430   27.3270   31.9920 C   0  0  0  0  0  0  0  0  0  0  0  0
   35.6040   28.6810   32.0480 C   0  0  0  0  0  0  0  0  0  0  0  0
   36.3620   29.4780   31.1850 C   0  0  0  0  0  0  0  0  0  0  0  0
   37.2670   28.8670   30.3650 C   0  0  0  0  0  0  0  0  0  0  0  0
   37.4500   27.5180   30.3670 N   0  0  0  0  0  0  0  0  0  0  0  0
   38.0790   29.6630   29.4580 C   0  0  0  0  0  0  0  0  0  0  0  0
   37.4870   30.8970   28.8930 C   0  0  0  0  0  0  0  0  0  0  0  0
   37.6430   31.0150   27.4210 C   0  0  0  0  0  0  0  0  0  0  0  0
   38.5780   32.1610   27.1300 C   0  0  0  0  0  0  0  0  0  0  0  0
   39.3800   32.2850   28.4020 C   0  0  0  0  0  0  0  0  0  0  0  0
   38.2700   32.1130   29.4370 C   0  0  0  0  0  0  0  0  0  0  0  0
   38.3188   22.5116   30.3398 H   0  0  0  0  0  0  0  0  0  0  0  0
   40.7788   22.6242   34.2248 H   0  0  0  0  0  0  0  0  0  0  0  0
   40.3347   23.1339   36.6300 H   0  0  0  0  0  0  0  0  0  0  0  0
   37.9851   22.8166   37.5256 H   0  0  0  0  0  0  0  0  0  0  0  0
   34.2239   19.3195   32.5007 H   0  0  0  0  0  0  0  0  0  0  0  0
   34.6713   21.3596   30.7577 H   0  0  0  0  0  0  0  0  0  0  0  0
   35.2566   26.6803   32.6613 H   0  0  0  0  0  0  0  0  0  0  0  0
   34.8588   29.1118   32.7329 H   0  0  0  0  0  0  0  0  0  0  0  0
   36.2326   30.5702   31.1670 H   0  0  0  0  0  0  0  0  0  0  0  0
   38.9869   29.9570   30.0050 H   0  0  0  0  0  0  0  0  0  0  0  0
   38.2354   29.0105   28.5864 H   0  0  0  0  0  0  0  0  0  0  0  0
   36.4216   30.8622   29.1644 H   0  0  0  0  0  0  0  0  0  0  0  0
   38.0622   30.0820   27.0162 H   0  0  0  0  0  0  0  0  0  0  0  0
   36.6651   31.1976   26.9516 H   0  0  0  0  0  0  0  0  0  0  0  0
   39.2295   31.9307   26.2741 H   0  0  0  0  0  0  0  0  0  0  0  0
   38.0518   33.0886   26.8603 H   0  0  0  0  0  0  0  0  0  0  0  0
   40.1398   31.4938   28.4837 H   0  0  0  0  0  0  0  0  0  0  0  0
   39.9582   33.2162   28.4948 H   0  0  0  0  0  0  0  0  0  0  0  0
   37.6310   33.0070   29.4862 H   0  0  0  0  0  0  0  0  0  0  0  0
   38.6452   31.9691   30.4610 H   0  0  0  0  0  0  0  0  0  0  0  0
  1  5  1  0
  1 16  1  0
  2  1  1  0
  3  2  2  0
  3  4  1  0
  4  5  2  0
  6  7  2  0
  7  8  1  0
  9  8  2  0
 10  9  1  0
 11 10  2  0
 11  6  1  0
 12 13  1  0
 12 10  1  0
 14 13  2  0
 15 16  2  0
 15 14  1  0
 16 12  1  0
 17  4  1  0
 17 18  2  0
 18 19  1  0
 20 19  2  0
 21 22  2  0
 21 20  1  0
 22 17  1  0
 23 21  1  0
 24 28  1  0
 24 23  1  0
 25 24  1  0
 26 25  1  0
 26 27  1  0
 27 28  1  0
  2 29  1  0
  6 30  1  0
  7 31  1  0
  8 32  1  0
 14 33  1  0
 15 34  1  0
 18 35  1  0
 19 36  1  0
 20 37  1  0
 23 38  1  0
 23 39  1  0
 24 40  1  0
 25 41  1  0
 25 42  1  0
 26 43  1  0
 26 44  1  0
 27 45  1  0
 27 46  1  0
 28 47  1  0
 28 48  1  0
M  ISO  8  29  14  30  14  31  14  32  14  33  14  34  14  35  14  36  14
M  ISO  8  37  14  38   8  39   8  40  13  41  13  42  13  43  13  44  13
M  ISO  4  45  13  46  13  47  13  48  13
M  END
>  <minimizedAffinity>  (1) 
-5.50958538

>  <minimizedRMSD>  (1) 
1.60625899

$$$$
