
     RDKit          3D

 36 39  0  0  0  0  0  0  0  0999 V2000
   37.4950   23.0060   32.8290 N   0  0  0  0  0  0  0  0  0  0  0  0
   38.7630   23.0790   32.3450 C   0  0  0  0  0  0  0  0  0  0  0  0
   39.0320   24.2940   31.8480 N   0  0  0  0  0  0  0  0  0  0  0  0
   37.8740   24.9970   32.0350 C   0  0  0  0  0  0  0  0  0  0  0  0
   36.9840   24.2130   32.6170 N   0  0  0  0  0  0  0  0  0  0  0  0
   39.6540   22.8190   36.5740 C   0  0  0  0  0  0  0  0  0  0  0  0
   39.0970   23.3090   37.7530 C   0  0  0  0  0  0  0  0  0  0  0  0
   37.7150   23.2000   37.9040 C   0  0  0  0  0  0  0  0  0  0  0  0
   36.9780   22.6250   36.9080 N   0  0  0  0  0  0  0  0  0  0  0  0
   37.5480   22.1580   35.7780 C   0  0  0  0  0  0  0  0  0  0  0  0
   38.9030   22.2480   35.5900 N   0  0  0  0  0  0  0  0  0  0  0  0
   36.8130   21.5570   34.7240 N   0  0  0  0  0  0  0  0  0  0  0  0
   36.0330   20.5140   34.9100 N   0  0  0  0  0  0  0  0  0  0  0  0
   35.4640   20.1580   33.7350 C   0  0  0  0  0  0  0  0  0  0  0  0
   35.9550   21.0710   32.7900 C   0  0  0  0  0  0  0  0  0  0  0  0
   36.7930   21.9300   33.4380 C   0  0  0  0  0  0  0  0  0  0  0  0
   37.7140   26.3900   31.6360 C   0  0  0  0  0  0  0  0  0  0  0  0
   36.9750   27.2590   32.3920 C   0  0  0  0  0  0  0  0  0  0  0  0
   36.7680   28.5840   32.0970 C   0  0  0  0  0  0  0  0  0  0  0  0
   37.3580   29.0700   30.9430 C   0  0  0  0  0  0  0  0  0  0  0  0
   38.1010   28.1820   30.1910 C   0  0  0  0  0  0  0  0  0  0  0  0
   38.2760   26.8710   30.5280 N   0  0  0  0  0  0  0  0  0  0  0  0
   38.7480   28.6540   28.9450 C   0  0  0  0  0  0  0  0  0  0  0  0
   37.8730   28.3530   27.8790 O   0  0  0  0  0  0  0  0  0  0  0  0
   39.4794   22.2444   32.3595 H   0  0  0  0  0  0  0  0  0  0  0  0
   40.7420   22.8958   36.4315 H   0  0  0  0  0  0  0  0  0  0  0  0
   39.7230   23.7643   38.5346 H   0  0  0  0  0  0  0  0  0  0  0  0
   37.2239   23.5729   38.8149 H   0  0  0  0  0  0  0  0  0  0  0  0
   34.7642   19.3279   33.5582 H   0  0  0  0  0  0  0  0  0  0  0  0
   35.7083   21.0906   31.7182 H   0  0  0  0  0  0  0  0  0  0  0  0
   36.5103   26.8651   33.3079 H   0  0  0  0  0  0  0  0  0  0  0  0
   36.1608   29.2299   32.7482 H   0  0  0  0  0  0  0  0  0  0  0  0
   37.2398   30.1202   30.6378 H   0  0  0  0  0  0  0  0  0  0  0  0
   38.9188   29.7394   28.9971 H   0  0  0  0  0  0  0  0  0  0  0  0
   39.7216   28.1627   28.8009 H   0  0  0  0  0  0  0  0  0  0  0  0
   37.0019   28.0533   28.2416 H   0  0  0  0  0  0  0  0  0  0  0  0
  1 16  1  0
  2  1  1  0
  3  4  1  0
  3  2  2  0
  4  5  2  0
  5  1  1  0
  6  7  2  0
  7  8  1  0
  9  8  2  0
 10  9  1  0
 11 10  2  0
 11  6  1  0
 12 13  1  0
 12 10  1  0
 14 13  2  0
 15 16  2  0
 15 14  1  0
 16 12  1  0
 17  4  1  0
 17 18  2  0
 19 18  1  0
 20 19  2  0
 21 22  2  0
 21 20  1  0
 22 17  1  0
 23 21  1  0
 24 23  1  0
  2 25  1  0
  6 26  1  0
  7 27  1  0
  8 28  1  0
 14 29  1  0
 15 30  1  0
 18 31  1  0
 19 32  1  0
 20 33  1  0
 23 34  1  0
 23 35  1  0
 24 36  1  0
M  ISO  8  25  14  26  14  27  14  28  14  29  14  30  14  31  14  32  14
M  ISO  4  33  14  34   8  35   8  36   3
M  END
>  <minimizedAffinity>  (1) 
-5.34118176

>  <minimizedRMSD>  (1) 
0.145806059

$$$$
