
     RDKit          3D

 36 39  0  0  0  0  0  0  0  0999 V2000
   37.5330   23.0090   32.8150 N   0  0  0  0  0  0  0  0  0  0  0  0
   38.8190   23.0800   32.3790 C   0  0  0  0  0  0  0  0  0  0  0  0
   39.0990   24.2820   31.8580 N   0  0  0  0  0  0  0  0  0  0  0  0
   37.9290   24.9810   31.9790 C   0  0  0  0  0  0  0  0  0  0  0  0
   37.0210   24.2110   32.5450 N   0  0  0  0  0  0  0  0  0  0  0  0
   39.6890   22.8060   36.5640 C   0  0  0  0  0  0  0  0  0  0  0  0
   39.1330   23.3090   37.7370 C   0  0  0  0  0  0  0  0  0  0  0  0
   37.7390   23.2250   37.8950 C   0  0  0  0  0  0  0  0  0  0  0  0
   36.9940   22.6520   36.8900 N   0  0  0  0  0  0  0  0  0  0  0  0
   37.5840   22.1740   35.7630 C   0  0  0  0  0  0  0  0  0  0  0  0
   38.9240   22.2370   35.5740 N   0  0  0  0  0  0  0  0  0  0  0  0
   36.8290   21.5780   34.7120 N   0  0  0  0  0  0  0  0  0  0  0  0
   36.0260   20.5470   34.8960 N   0  0  0  0  0  0  0  0  0  0  0  0
   35.4510   20.2060   33.7240 C   0  0  0  0  0  0  0  0  0  0  0  0
   35.9510   21.1040   32.7700 C   0  0  0  0  0  0  0  0  0  0  0  0
   36.8150   21.9520   33.4240 C   0  0  0  0  0  0  0  0  0  0  0  0
   37.7650   26.3570   31.5360 C   0  0  0  0  0  0  0  0  0  0  0  0
   37.1390   27.2860   32.3120 C   0  0  0  0  0  0  0  0  0  0  0  0
   36.9470   28.6030   31.9700 C   0  0  0  0  0  0  0  0  0  0  0  0
   37.4280   29.0180   30.7420 C   0  0  0  0  0  0  0  0  0  0  0  0
   38.0630   28.0680   29.9580 C   0  0  0  0  0  0  0  0  0  0  0  0
   38.2190   26.7800   30.3580 N   0  0  0  0  0  0  0  0  0  0  0  0
   38.5860   28.4510   28.6310 C   0  0  0  0  0  0  0  0  0  0  0  0
   39.7370   27.2760   27.9220 S   0  0  0  0  0  0  0  0  0  0  0  0
   39.5405   22.2524   32.4459 H   0  0  0  0  0  0  0  0  0  0  0  0
   40.7785   22.8660   36.4246 H   0  0  0  0  0  0  0  0  0  0  0  0
   39.7656   23.7586   38.5166 H   0  0  0  0  0  0  0  0  0  0  0  0
   37.2532   23.6096   38.8039 H   0  0  0  0  0  0  0  0  0  0  0  0
   34.7349   19.3890   33.5517 H   0  0  0  0  0  0  0  0  0  0  0  0
   35.6996   21.1263   31.6994 H   0  0  0  0  0  0  0  0  0  0  0  0
   36.7573   26.9556   33.2893 H   0  0  0  0  0  0  0  0  0  0  0  0
   36.4308   29.2998   32.6468 H   0  0  0  0  0  0  0  0  0  0  0  0
   37.3116   30.0576   30.4019 H   0  0  0  0  0  0  0  0  0  0  0  0
   37.7343   28.5564   27.9429 H   0  0  0  0  0  0  0  0  0  0  0  0
   39.1423   29.3895   28.7717 H   0  0  0  0  0  0  0  0  0  0  0  0
   40.3882   26.6112   28.9274 H   0  0  0  0  0  0  0  0  0  0  0  0
  1 16  1  0
  2  1  1  0
  3  4  1  0
  3  2  2  0
  4  5  2  0
  5  1  1  0
  6  7  2  0
  7  8  1  0
  9  8  2  0
 10  9  1  0
 11 10  2  0
 11  6  1  0
 12 13  1  0
 12 10  1  0
 14 13  2  0
 15 16  2  0
 15 14  1  0
 16 12  1  0
 17  4  1  0
 17 18  2  0
 19 18  1  0
 20 19  2  0
 21 22  2  0
 21 20  1  0
 22 17  1  0
 23 21  1  0
 24 23  1  0
  2 25  1  0
  6 26  1  0
  7 27  1  0
  8 28  1  0
 14 29  1  0
 15 30  1  0
 18 31  1  0
 19 32  1  0
 20 33  1  0
 23 34  1  0
 23 35  1  0
 24 36  1  0
M  ISO  8  25  14  26  14  27  14  28  14  29  14  30  14  31  14  32  14
M  ISO  4  33  14  34   8  35   8  36  11
M  END
>  <minimizedAffinity>  (1) 
-5.1214118

>  <minimizedRMSD>  (1) 
0.524226308

$$$$
