
     RDKit          3D

 42 46  0  0  0  0  0  0  0  0999 V2000
   37.3380   23.1560   32.5910 N   0  0  0  0  0  0  0  0  0  0  0  0
   38.5710   23.3050   32.0430 C   0  0  0  0  0  0  0  0  0  0  0  0
   38.7630   24.5670   31.5980 N   0  0  0  0  0  0  0  0  0  0  0  0
   37.6040   25.1990   31.8890 C   0  0  0  0  0  0  0  0  0  0  0  0
   36.7630   24.3530   32.4790 N   0  0  0  0  0  0  0  0  0  0  0  0
   39.6390   22.9330   36.2440 C   0  0  0  0  0  0  0  0  0  0  0  0
   39.0870   23.3370   37.4550 C   0  0  0  0  0  0  0  0  0  0  0  0
   37.7240   23.1480   37.6610 C   0  0  0  0  0  0  0  0  0  0  0  0
   36.9970   22.5720   36.6570 N   0  0  0  0  0  0  0  0  0  0  0  0
   37.5410   22.1880   35.4940 C   0  0  0  0  0  0  0  0  0  0  0  0
   38.8780   22.3620   35.2640 N   0  0  0  0  0  0  0  0  0  0  0  0
   36.7920   21.5880   34.4440 N   0  0  0  0  0  0  0  0  0  0  0  0
   36.0700   20.4990   34.6100 N   0  0  0  0  0  0  0  0  0  0  0  0
   35.4780   20.1690   33.4440 C   0  0  0  0  0  0  0  0  0  0  0  0
   35.8830   21.1420   32.5150 C   0  0  0  0  0  0  0  0  0  0  0  0
   36.7110   22.0190   33.1770 C   0  0  0  0  0  0  0  0  0  0  0  0
   37.3420   26.6060   31.5890 C   0  0  0  0  0  0  0  0  0  0  0  0
   36.8450   27.4700   32.5250 C   0  0  0  0  0  0  0  0  0  0  0  0
   36.5710   28.7950   32.3310 C   0  0  0  0  0  0  0  0  0  0  0  0
   36.8310   29.2990   31.0450 C   0  0  0  0  0  0  0  0  0  0  0  0
   37.3330   28.4200   30.1050 C   0  0  0  0  0  0  0  0  0  0  0  0
   37.5780   27.1160   30.3740 N   0  0  0  0  0  0  0  0  0  0  0  0
   37.6060   28.9360   28.7630 C   0  0  0  0  0  0  0  0  0  0  0  0
   38.9950   28.5650   28.3740 C   0  0  0  0  0  0  0  0  0  0  0  0
   40.0970   29.1650   28.9740 C   0  0  0  0  0  0  0  0  0  0  0  0
   41.2690   28.6640   28.4540 C   0  0  0  0  0  0  0  0  0  0  0  0
   40.8440   27.7550   27.5340 N   0  0  0  0  0  0  0  0  0  0  0  0
   39.5150   27.6920   27.4810 N   0  0  0  0  0  0  0  0  0  0  0  0
   39.3186   22.5013   31.9703 H   0  0  0  0  0  0  0  0  0  0  0  0
   40.7157   23.0770   36.0711 H   0  0  0  0  0  0  0  0  0  0  0  0
   39.7145   23.7961   38.2332 H   0  0  0  0  0  0  0  0  0  0  0  0
   37.2459   23.4530   38.6035 H   0  0  0  0  0  0  0  0  0  0  0  0
   34.8134   19.3124   33.2582 H   0  0  0  0  0  0  0  0  0  0  0  0
   35.5922   21.1931   31.4554 H   0  0  0  0  0  0  0  0  0  0  0  0
   36.6474   27.0609   33.5268 H   0  0  0  0  0  0  0  0  0  0  0  0
   36.1702   29.4301   33.1348 H   0  0  0  0  0  0  0  0  0  0  0  0
   36.6419   30.3537   30.7964 H   0  0  0  0  0  0  0  0  0  0  0  0
   36.8936   28.4990   28.0479 H   0  0  0  0  0  0  0  0  0  0  0  0
   37.4982   30.0307   28.7568 H   0  0  0  0  0  0  0  0  0  0  0  0
   40.0398   29.9351   29.7574 H   0  0  0  0  0  0  0  0  0  0  0  0
   42.3021   28.9337   28.7186 H   0  0  0  0  0  0  0  0  0  0  0  0
   41.4734   27.1857   26.9504 H   0  0  0  0  0  0  0  0  0  0  0  0
  1 16  1  0
  2  1  1  0
  3  4  1  0
  3  2  2  0
  4  5  2  0
  5  1  1  0
  6  7  2  0
  7  8  1  0
  9  8  2  0
 10  9  1  0
 11 10  2  0
 11  6  1  0
 12 13  1  0
 12 10  1  0
 14 13  2  0
 15 16  2  0
 15 14  1  0
 16 12  1  0
 17  4  1  0
 17 18  2  0
 19 18  1  0
 20 19  2  0
 21 22  2  0
 21 20  1  0
 22 17  1  0
 23 21  1  0
 24 23  1  0
 24 25  1  0
 26 25  2  0
 27 26  1  0
 28 27  1  0
 28 24  2  0
  2 29  1  0
  6 30  1  0
  7 31  1  0
  8 32  1  0
 14 33  1  0
 15 34  1  0
 18 35  1  0
 19 36  1  0
 20 37  1  0
 23 38  1  0
 23 39  1  0
 25 40  1  0
 26 41  1  0
 27 42  1  0
M  ISO  8  29  14  30  14  31  14  32  14  33  14  34  14  35  14  36  14
M  ISO  6  37  14  38   8  39   8  40  14  41  14  42   9
M  END
>  <minimizedAffinity>  (1) 
-5.31052351

>  <minimizedRMSD>  (1) 
0.920773327

$$$$
