
     RDKit          3D

 40 44  0  0  0  0  0  0  0  0999 V2000
   37.3080   23.1540   32.5320 N   0  0  0  0  0  0  0  0  0  0  0  0
   38.5170   23.3090   31.9480 C   0  0  0  0  0  0  0  0  0  0  0  0
   38.6900   24.5700   31.5270 N   0  0  0  0  0  0  0  0  0  0  0  0
   37.5300   25.2120   31.8710 C   0  0  0  0  0  0  0  0  0  0  0  0
   36.7200   24.3550   32.4670 N   0  0  0  0  0  0  0  0  0  0  0  0
   39.6760   22.9000   36.1450 C   0  0  0  0  0  0  0  0  0  0  0  0
   39.1580   23.2990   37.3730 C   0  0  0  0  0  0  0  0  0  0  0  0
   37.7870   23.1090   37.6040 C   0  0  0  0  0  0  0  0  0  0  0  0
   37.0280   22.5380   36.6060 N   0  0  0  0  0  0  0  0  0  0  0  0
   37.5620   22.1650   35.4340 C   0  0  0  0  0  0  0  0  0  0  0  0
   38.8910   22.3360   35.1760 N   0  0  0  0  0  0  0  0  0  0  0  0
   36.7930   21.5750   34.3920 N   0  0  0  0  0  0  0  0  0  0  0  0
   36.0670   20.4860   34.5570 N   0  0  0  0  0  0  0  0  0  0  0  0
   35.4580   20.1660   33.4130 C   0  0  0  0  0  0  0  0  0  0  0  0
   35.8490   21.1420   32.4820 C   0  0  0  0  0  0  0  0  0  0  0  0
   36.6840   22.0110   33.1230 C   0  0  0  0  0  0  0  0  0  0  0  0
   37.2890   26.6190   31.5960 C   0  0  0  0  0  0  0  0  0  0  0  0
   36.7760   27.4520   32.5450 C   0  0  0  0  0  0  0  0  0  0  0  0
   36.5140   28.7890   32.3800 C   0  0  0  0  0  0  0  0  0  0  0  0
   36.8000   29.3330   31.1360 C   0  0  0  0  0  0  0  0  0  0  0  0
   37.3210   28.4850   30.1730 C   0  0  0  0  0  0  0  0  0  0  0  0
   37.5590   27.1590   30.3990 N   0  0  0  0  0  0  0  0  0  0  0  0
   37.6360   29.0250   28.8420 C   0  0  0  0  0  0  0  0  0  0  0  0
   38.9910   28.7120   28.3710 C   0  0  0  0  0  0  0  0  0  0  0  0
   39.4750   27.9060   27.4130 N   0  0  0  0  0  0  0  0  0  0  0  0
   40.7710   27.9730   27.3790 O   0  0  0  0  0  0  0  0  0  0  0  0
   41.2000   28.8210   28.3090 C   0  0  0  0  0  0  0  0  0  0  0  0
   40.0970   29.2740   28.9180 N   0  0  0  0  0  0  0  0  0  0  0  0
   39.2607   22.5066   31.8333 H   0  0  0  0  0  0  0  0  0  0  0  0
   40.7486   23.0421   35.9469 H   0  0  0  0  0  0  0  0  0  0  0  0
   39.8042   23.7502   38.1404 H   0  0  0  0  0  0  0  0  0  0  0  0
   37.3295   23.4086   38.5584 H   0  0  0  0  0  0  0  0  0  0  0  0
   34.7871   19.3124   33.2358 H   0  0  0  0  0  0  0  0  0  0  0  0
   35.5388   21.1963   31.4280 H   0  0  0  0  0  0  0  0  0  0  0  0
   36.5524   27.0144   33.5291 H   0  0  0  0  0  0  0  0  0  0  0  0
   36.0974   29.3998   33.1945 H   0  0  0  0  0  0  0  0  0  0  0  0
   36.6198   30.3970   30.9229 H   0  0  0  0  0  0  0  0  0  0  0  0
   36.9158   28.6095   28.1218 H   0  0  0  0  0  0  0  0  0  0  0  0
   37.5743   30.1203   28.9225 H   0  0  0  0  0  0  0  0  0  0  0  0
   42.2423   29.0932   28.5314 H   0  0  0  0  0  0  0  0  0  0  0  0
  1 16  1  0
  2  1  1  0
  3  4  1  0
  3  2  2  0
  4  5  2  0
  5  1  1  0
  6  7  2  0
  7  8  1  0
  9  8  2  0
 10  9  1  0
 11 10  2  0
 11  6  1  0
 12 13  1  0
 12 10  1  0
 14 13  2  0
 15 16  2  0
 15 14  1  0
 16 12  1  0
 17  4  1  0
 17 18  2  0
 19 18  1  0
 20 19  2  0
 21 22  2  0
 21 20  1  0
 22 17  1  0
 23 21  1  0
 24 23  1  0
 24 28  1  0
 25 24  2  0
 26 25  1  0
 26 27  1  0
 27 28  2  0
  2 29  1  0
  6 30  1  0
  7 31  1  0
  8 32  1  0
 14 33  1  0
 15 34  1  0
 18 35  1  0
 19 36  1  0
 20 37  1  0
 23 38  1  0
 23 39  1  0
 27 40  1  0
M  ISO  8  29  14  30  14  31  14  32  14  33  14  34  14  35  14  36  14
M  ISO  4  37  14  38   8  39   8  40  14
M  END
>  <minimizedAffinity>  (1) 
-5.24990845

>  <minimizedRMSD>  (1) 
0.863452315

$$$$
