
     RDKit          3D

 42 46  0  0  0  0  0  0  0  0999 V2000
   37.3570   23.1210   32.6130 N   0  0  0  0  0  0  0  0  0  0  0  0
   38.5830   23.2790   32.0990 C   0  0  0  0  0  0  0  0  0  0  0  0
   38.7850   24.5340   31.6530 N   0  0  0  0  0  0  0  0  0  0  0  0
   37.6020   25.1720   31.9160 C   0  0  0  0  0  0  0  0  0  0  0  0
   36.7520   24.3210   32.4910 N   0  0  0  0  0  0  0  0  0  0  0  0
   39.6040   22.8830   36.2940 C   0  0  0  0  0  0  0  0  0  0  0  0
   39.0690   23.2970   37.5060 C   0  0  0  0  0  0  0  0  0  0  0  0
   37.6880   23.1150   37.6970 C   0  0  0  0  0  0  0  0  0  0  0  0
   36.9690   22.5480   36.6890 N   0  0  0  0  0  0  0  0  0  0  0  0
   37.5150   22.1570   35.5260 C   0  0  0  0  0  0  0  0  0  0  0  0
   38.8590   22.3180   35.3040 N   0  0  0  0  0  0  0  0  0  0  0  0
   36.7730   21.5630   34.4650 N   0  0  0  0  0  0  0  0  0  0  0  0
   36.0410   20.4860   34.6350 N   0  0  0  0  0  0  0  0  0  0  0  0
   35.4590   20.1580   33.4660 C   0  0  0  0  0  0  0  0  0  0  0  0
   35.8860   21.1210   32.5390 C   0  0  0  0  0  0  0  0  0  0  0  0
   36.7110   21.9950   33.1910 C   0  0  0  0  0  0  0  0  0  0  0  0
   37.3530   26.5720   31.6000 C   0  0  0  0  0  0  0  0  0  0  0  0
   36.8520   27.4450   32.5350 C   0  0  0  0  0  0  0  0  0  0  0  0
   36.5970   28.7650   32.2990 C   0  0  0  0  0  0  0  0  0  0  0  0
   36.8590   29.2660   31.0340 C   0  0  0  0  0  0  0  0  0  0  0  0
   37.3650   28.3750   30.0970 C   0  0  0  0  0  0  0  0  0  0  0  0
   37.5980   27.0740   30.3890 N   0  0  0  0  0  0  0  0  0  0  0  0
   37.6520   28.8740   28.7480 C   0  0  0  0  0  0  0  0  0  0  0  0
   39.0140   28.6280   28.3790 N   0  0  0  0  0  0  0  0  0  0  0  0
   39.5400   27.7910   27.4660 C   0  0  0  0  0  0  0  0  0  0  0  0
   40.9380   27.8780   27.4410 C   0  0  0  0  0  0  0  0  0  0  0  0
   41.2430   28.8120   28.3860 N   0  0  0  0  0  0  0  0  0  0  0  0
   40.0820   29.2340   28.9200 C   0  0  0  0  0  0  0  0  0  0  0  0
   39.3361   22.4789   32.0470 H   0  0  0  0  0  0  0  0  0  0  0  0
   40.6825   23.0179   36.1249 H   0  0  0  0  0  0  0  0  0  0  0  0
   39.6999   23.7491   38.2855 H   0  0  0  0  0  0  0  0  0  0  0  0
   37.2018   23.4221   38.6347 H   0  0  0  0  0  0  0  0  0  0  0  0
   34.7862   19.3086   33.2764 H   0  0  0  0  0  0  0  0  0  0  0  0
   35.6065   21.1650   31.4760 H   0  0  0  0  0  0  0  0  0  0  0  0
   36.6422   27.0539   33.5415 H   0  0  0  0  0  0  0  0  0  0  0  0
   36.1945   29.4132   33.0913 H   0  0  0  0  0  0  0  0  0  0  0  0
   36.6746   30.3211   30.7836 H   0  0  0  0  0  0  0  0  0  0  0  0
   36.9897   28.3675   28.0305 H   0  0  0  0  0  0  0  0  0  0  0  0
   37.4810   29.9606   28.7369 H   0  0  0  0  0  0  0  0  0  0  0  0
   38.9482   27.1240   26.8219 H   0  0  0  0  0  0  0  0  0  0  0  0
   41.6349   27.3171   26.8009 H   0  0  0  0  0  0  0  0  0  0  0  0
   40.0158   29.9930   29.7135 H   0  0  0  0  0  0  0  0  0  0  0  0
  1 16  1  0
  2  1  1  0
  3  4  1  0
  3  2  2  0
  4  5  2  0
  5  1  1  0
  6  7  2  0
  7  8  1  0
  9  8  2  0
 10  9  1  0
 11 10  2  0
 11  6  1  0
 12 13  1  0
 12 10  1  0
 14 13  2  0
 15 16  2  0
 15 14  1  0
 16 12  1  0
 17  4  1  0
 17 18  2  0
 19 18  1  0
 20 19  2  0
 21 22  2  0
 21 20  1  0
 22 17  1  0
 23 21  1  0
 24 23  1  0
 24 28  1  0
 25 24  1  0
 26 25  2  0
 26 27  1  0
 27 28  2  0
  2 29  1  0
  6 30  1  0
  7 31  1  0
  8 32  1  0
 14 33  1  0
 15 34  1  0
 18 35  1  0
 19 36  1  0
 20 37  1  0
 23 38  1  0
 23 39  1  0
 25 40  1  0
 26 41  1  0
 28 42  1  0
M  ISO  8  29  14  30  14  31  14  32  14  33  14  34  14  35  14  36  14
M  ISO  6  37  14  38   8  39   8  40  14  41  14  42  14
M  END
>  <minimizedAffinity>  (1) 
-5.27034283

>  <minimizedRMSD>  (1) 
0.812644303

$$$$
