
     RDKit          3D

 39 42  0  0  1  0  0  0  0  0999 V2000
   39.1680   22.4570   35.3630 N   0  0  0  0  0  0  0  0  0  0  0  0
   40.0340   22.2130   36.4860 C   0  0  0  0  0  0  0  0  0  0  0  0
   41.3900   21.8560   35.8790 C   0  0  0  0  0  0  0  0  0  0  0  0
   41.9430   23.0120   35.3600 O   0  0  0  0  0  0  0  0  0  0  0  0
   41.0210   23.9680   34.9870 C   0  0  0  0  0  0  0  0  0  0  0  0
   39.7520   23.3930   34.4490 C   0  0  2  0  0  0  0  0  0  0  0  0
   38.8960   24.3220   33.7410 C   0  0  0  0  0  0  0  0  0  0  0  0
   38.4480   24.1170   32.4230 C   0  0  0  0  0  0  0  0  0  0  0  0
   37.6350   24.9340   31.6870 C   0  0  0  0  0  0  0  0  0  0  0  0
   37.1920   26.0810   32.2670 C   0  0  0  0  0  0  0  0  0  0  0  0
   37.5630   26.3910   33.5500 C   0  0  0  0  0  0  0  0  0  0  0  0
   37.1150   27.5540   34.1210 C   0  0  0  0  0  0  0  0  0  0  0  0
   37.4770   27.8970   35.4120 C   0  0  0  0  0  0  0  0  0  0  0  0
   38.3100   27.0480   36.1450 C   0  0  0  0  0  0  0  0  0  0  0  0
   38.7250   25.8950   35.5180 C   0  0  0  0  0  0  0  0  0  0  0  0
   38.3860   25.5230   34.2350 C   0  0  0  0  0  0  0  0  0  0  0  0
   37.9250   21.8860   35.1330 C   0  0  0  0  0  0  0  0  0  0  0  0
   36.9430   21.7230   36.1410 C   0  0  0  0  0  0  0  0  0  0  0  0
   35.7430   21.1340   35.7760 C   0  0  0  0  0  0  0  0  0  0  0  0
   35.5570   20.7400   34.4800 N   0  0  0  0  0  0  0  0  0  0  0  0
   36.5140   20.9080   33.5390 C   0  0  0  0  0  0  0  0  0  0  0  0
   37.6860   21.4790   33.8780 N   0  0  0  0  0  0  0  0  0  0  0  0
   40.1170   23.1140   37.1115 H   0  0  0  0  0  0  0  0  0  0  0  0
   39.6502   21.4106   37.1332 H   0  0  0  0  0  0  0  0  0  0  0  0
   42.0498   21.4427   36.6561 H   0  0  0  0  0  0  0  0  0  0  0  0
   41.2680   21.1018   35.0876 H   0  0  0  0  0  0  0  0  0  0  0  0
   40.7796   24.5814   35.8676 H   0  0  0  0  0  0  0  0  0  0  0  0
   41.4766   24.5595   34.1792 H   0  0  0  0  0  0  0  0  0  0  0  0
   40.0047   22.7602   33.5855 H   0  0  0  0  0  0  0  0  0  0  0  0
   38.7903   23.1957   31.9290 H   0  0  0  0  0  0  0  0  0  0  0  0
   37.3485   24.6713   30.6580 H   0  0  0  0  0  0  0  0  0  0  0  0
   36.5347   26.7616   31.7059 H   0  0  0  0  0  0  0  0  0  0  0  0
   36.4590   28.2236   33.5453 H   0  0  0  0  0  0  0  0  0  0  0  0
   37.1108   28.8332   35.8587 H   0  0  0  0  0  0  0  0  0  0  0  0
   38.6191   27.2891   37.1728 H   0  0  0  0  0  0  0  0  0  0  0  0
   39.3789   25.2169   36.0859 H   0  0  0  0  0  0  0  0  0  0  0  0
   37.1262   22.0517   37.1746 H   0  0  0  0  0  0  0  0  0  0  0  0
   34.9480   20.9849   36.5215 H   0  0  0  0  0  0  0  0  0  0  0  0
   36.3364   20.5806   32.5040 H   0  0  0  0  0  0  0  0  0  0  0  0
  1  2  1  0
  3  2  1  0
  4  3  1  0
  5  4  1  0
  6  5  1  0
  6  1  1  0
  7 16  1  0
  7  6  1  0
  8  7  2  0
  9 10  2  0
  9  8  1  0
 10 11  1  0
 11 12  1  0
 11 16  2  0
 12 13  2  0
 13 14  1  0
 15 14  2  0
 16 15  1  0
 17  1  1  0
 17 18  2  0
 19 18  1  0
 20 19  2  0
 21 22  2  0
 21 20  1  0
 22 17  1  0
  2 23  1  0
  2 24  1  0
  3 25  1  0
  3 26  1  0
  5 27  1  0
  5 28  1  0
  6 29  1  6
  8 30  1  0
  9 31  1  0
 10 32  1  0
 12 33  1  0
 13 34  1  0
 14 35  1  0
 15 36  1  0
 18 37  1  0
 19 38  1  0
 21 39  1  0
M  ISO  8  23  13  24  13  25  13  26  13  27  13  28  13  29  13  30  14
M  ISO  8  31  14  32  14  33  14  34  14  35  14  36  14  37  14  38  14
M  ISO  1  39  14
M  END
>  <minimizedAffinity>  (1) 
-5.14364576

>  <minimizedRMSD>  (1) 
2.60610104

$$$$
