
     RDKit          3D

 23 24  0  0  0  0  0  0  0  0999 V2000
   37.7220   21.8730   35.2690 C   0  0  0  0  0  0  0  0  0  0  0  0
   36.6640   21.4320   36.0910 C   0  0  0  0  0  0  0  0  0  0  0  0
   35.5690   20.8400   35.4660 C   0  0  0  0  0  0  0  0  0  0  0  0
   35.5700   20.7160   34.0960 N   0  0  0  0  0  0  0  0  0  0  0  0
   36.6100   21.1550   33.3420 C   0  0  0  0  0  0  0  0  0  0  0  0
   37.6790   21.7290   33.9250 N   0  0  0  0  0  0  0  0  0  0  0  0
   38.8790   22.4830   35.7660 N   0  0  0  0  0  0  0  0  0  0  0  0
   39.0040   23.1570   37.0450 C   0  0  0  0  0  0  0  0  0  0  0  0
   40.2320   22.5240   37.6900 C   0  0  0  0  0  0  0  0  0  0  0  0
   41.3510   23.0000   37.0230 O   0  0  0  0  0  0  0  0  0  0  0  0
   41.1230   23.3630   35.7080 C   0  0  0  0  0  0  0  0  0  0  0  0
   40.1150   22.4920   35.0000 C   0  0  0  0  0  0  0  0  0  0  0  0
   36.7022   21.5511   37.1839 H   0  0  0  0  0  0  0  0  0  0  0  0
   34.7165   20.4772   36.0589 H   0  0  0  0  0  0  0  0  0  0  0  0
   36.5790   21.0410   32.2484 H   0  0  0  0  0  0  0  0  0  0  0  0
   39.1528   24.2375   36.9025 H   0  0  0  0  0  0  0  0  0  0  0  0
   38.1022   23.0487   37.6655 H   0  0  0  0  0  0  0  0  0  0  0  0
   40.2826   22.8027   38.7529 H   0  0  0  0  0  0  0  0  0  0  0  0
   40.1806   21.4273   37.6224 H   0  0  0  0  0  0  0  0  0  0  0  0
   40.7558   24.3998   35.6935 H   0  0  0  0  0  0  0  0  0  0  0  0
   42.0775   23.2458   35.1740 H   0  0  0  0  0  0  0  0  0  0  0  0
   39.9228   22.8929   33.9938 H   0  0  0  0  0  0  0  0  0  0  0  0
   40.5054   21.4675   34.9109 H   0  0  0  0  0  0  0  0  0  0  0  0
  1  7  1  0
  1  2  2  0
  3  2  1  0
  4  3  2  0
  5  6  2  0
  5  4  1  0
  6  1  1  0
  7  8  1  0
  8  9  1  0
 10  9  1  0
 11 10  1  0
 12 11  1  0
 12  7  1  0
  2 13  1  0
  3 14  1  0
  5 15  1  0
  8 16  1  0
  8 17  1  0
  9 18  1  0
  9 19  1  0
 11 20  1  0
 11 21  1  0
 12 22  1  0
 12 23  1  0
M  ISO  8  13  14  14  14  15  14  16  13  17  13  18  13  19  13  20  13
M  ISO  3  21  13  22  13  23  13
M  END
>  <minimizedAffinity>  (1) 
-3.2592411

>  <minimizedRMSD>  (1) 
3.54862142

$$$$
