
     RDKit          3D

 37 40  0  0  1  0  0  0  0  0999 V2000
   38.9200   22.7580   35.7570 N   0  0  0  0  0  0  0  0  0  0  0  0
   39.5870   22.8300   37.0280 C   0  0  0  0  0  0  0  0  0  0  0  0
   41.0240   22.3950   36.7320 C   0  0  0  0  0  0  0  0  0  0  0  0
   41.6510   23.4110   36.0240 O   0  0  0  0  0  0  0  0  0  0  0  0
   40.7890   24.2280   35.3350 C   0  0  0  0  0  0  0  0  0  0  0  0
   39.6220   23.5020   34.7510 C   0  0  2  0  0  0  0  0  0  0  0  0
   38.8070   24.2990   33.8340 C   0  0  0  0  0  0  0  0  0  0  0  0
   38.4810   24.0520   32.4940 C   0  0  0  0  0  0  0  0  0  0  0  0
   37.7080   25.0230   32.0010 N   0  0  0  0  0  0  0  0  0  0  0  0
   37.5200   25.8990   32.9870 C   0  0  0  0  0  0  0  0  0  0  0  0
   36.7850   27.0720   32.9420 C   0  0  0  0  0  0  0  0  0  0  0  0
   36.6890   27.8760   34.0560 C   0  0  0  0  0  0  0  0  0  0  0  0
   37.3430   27.4970   35.2350 C   0  0  0  0  0  0  0  0  0  0  0  0
   38.0780   26.3160   35.2640 C   0  0  0  0  0  0  0  0  0  0  0  0
   38.1710   25.5090   34.1410 C   0  0  0  0  0  0  0  0  0  0  0  0
   37.7390   22.0660   35.4520 C   0  0  0  0  0  0  0  0  0  0  0  0
   36.7420   21.8060   36.4100 C   0  0  0  0  0  0  0  0  0  0  0  0
   35.6250   21.1110   35.9800 C   0  0  0  0  0  0  0  0  0  0  0  0
   35.5320   20.7100   34.6710 N   0  0  0  0  0  0  0  0  0  0  0  0
   36.5140   20.9820   33.7850 C   0  0  0  0  0  0  0  0  0  0  0  0
   37.6110   21.6580   34.1800 N   0  0  0  0  0  0  0  0  0  0  0  0
   39.5649   23.8571   37.4210 H   0  0  0  0  0  0  0  0  0  0  0  0
   39.1068   22.1971   37.7888 H   0  0  0  0  0  0  0  0  0  0  0  0
   41.5595   22.2142   37.6757 H   0  0  0  0  0  0  0  0  0  0  0  0
   41.0245   21.4665   36.1421 H   0  0  0  0  0  0  0  0  0  0  0  0
   40.4113   24.9971   36.0248 H   0  0  0  0  0  0  0  0  0  0  0  0
   41.3537   24.6620   34.4967 H   0  0  0  0  0  0  0  0  0  0  0  0
   40.0151   22.7416   34.0602 H   0  0  0  0  0  0  0  0  0  0  0  0
   38.8174   23.1739   31.9232 H   0  0  0  0  0  0  0  0  0  0  0  0
   37.3306   25.0830   31.0445 H   0  0  0  0  0  0  0  0  0  0  0  0
   36.2753   27.3630   32.0117 H   0  0  0  0  0  0  0  0  0  0  0  0
   36.1042   28.8070   34.0201 H   0  0  0  0  0  0  0  0  0  0  0  0
   37.2760   28.1292   36.1327 H   0  0  0  0  0  0  0  0  0  0  0  0
   38.5919   26.0189   36.1901 H   0  0  0  0  0  0  0  0  0  0  0  0
   36.8455   22.1398   37.4530 H   0  0  0  0  0  0  0  0  0  0  0  0
   34.8136   20.8806   36.6860 H   0  0  0  0  0  0  0  0  0  0  0  0
   36.4186   20.6516   32.7401 H   0  0  0  0  0  0  0  0  0  0  0  0
  1  2  1  0
  3  2  1  0
  4  3  1  0
  5  4  1  0
  6  5  1  0
  6  1  1  0
  7 15  1  0
  7  6  1  0
  8  7  2  0
  9  8  1  0
  9 10  1  0
 10 15  2  0
 11 10  1  0
 11 12  2  0
 12 13  1  0
 13 14  2  0
 15 14  1  0
 16  1  1  0
 16 17  2  0
 18 17  1  0
 19 18  2  0
 20 21  2  0
 20 19  1  0
 21 16  1  0
  2 22  1  0
  2 23  1  0
  3 24  1  0
  3 25  1  0
  5 26  1  0
  5 27  1  0
  6 28  1  6
  8 29  1  0
  9 30  1  0
 11 31  1  0
 12 32  1  0
 13 33  1  0
 14 34  1  0
 17 35  1  0
 18 36  1  0
 20 37  1  0
M  ISO  8  22  13  23  13  24  13  25  13  26  13  27  13  28  13  29  14
M  ISO  8  30   9  31  14  32  14  33  14  34  14  35  14  36  14  37  14
M  END
>  <minimizedAffinity>  (1) 
-5.02502394

>  <minimizedRMSD>  (1) 
2.31457806

$$$$
