
     RDKit          3D

 36 38  0  0  1  0  0  0  0  0999 V2000
   38.9640   22.5540   35.5720 N   0  0  0  0  0  0  0  0  0  0  0  0
   39.6860   22.3390   36.8220 C   0  0  0  0  0  0  0  0  0  0  0  0
   41.1230   22.0490   36.3780 C   0  0  0  0  0  0  0  0  0  0  0  0
   41.6810   23.2350   35.9320 O   0  0  0  0  0  0  0  0  0  0  0  0
   40.7680   24.1570   35.4730 C   0  0  0  0  0  0  0  0  0  0  0  0
   39.6120   23.5340   34.7280 C   0  0  2  0  0  0  0  0  0  0  0  0
   37.7860   21.9190   35.1810 C   0  0  0  0  0  0  0  0  0  0  0  0
   36.7340   21.6180   36.0840 C   0  0  0  0  0  0  0  0  0  0  0  0
   35.6220   20.9830   35.5500 C   0  0  0  0  0  0  0  0  0  0  0  0
   35.5870   20.6850   34.2170 N   0  0  0  0  0  0  0  0  0  0  0  0
   36.6140   20.9920   33.3890 C   0  0  0  0  0  0  0  0  0  0  0  0
   37.7100   21.6080   33.8730 N   0  0  0  0  0  0  0  0  0  0  0  0
   37.0560   26.5230   32.9820 C   0  0  0  0  0  0  0  0  0  0  0  0
   37.7520   25.6270   32.1880 C   0  0  0  0  0  0  0  0  0  0  0  0
   38.5570   24.6890   32.8020 C   0  0  0  0  0  0  0  0  0  0  0  0
   38.7360   24.5620   34.1840 C   0  0  0  0  0  0  0  0  0  0  0  0
   38.0210   25.4800   34.9300 C   0  0  0  0  0  0  0  0  0  0  0  0
   37.1940   26.4450   34.3480 C   0  0  0  0  0  0  0  0  0  0  0  0
   36.0670   27.6700   32.1420 S   0  0  0  0  0  0  0  0  0  0  0  0
   36.6030   29.0460   32.2490 O   0  0  0  0  0  0  0  0  0  0  0  0
   36.0720   27.2830   30.6720 O   0  0  0  0  0  0  0  0  0  0  0  0
   39.6467   23.2376   37.4552 H   0  0  0  0  0  0  0  0  0  0  0  0
   39.2569   21.5235   37.4226 H   0  0  0  0  0  0  0  0  0  0  0  0
   41.7043   21.6589   37.2265 H   0  0  0  0  0  0  0  0  0  0  0  0
   41.1303   21.2976   35.5747 H   0  0  0  0  0  0  0  0  0  0  0  0
   40.3692   24.7121   36.3349 H   0  0  0  0  0  0  0  0  0  0  0  0
   41.2957   24.8130   34.7651 H   0  0  0  0  0  0  0  0  0  0  0  0
   39.9679   22.9809   33.8463 H   0  0  0  0  0  0  0  0  0  0  0  0
   36.7967   21.8747   37.1518 H   0  0  0  0  0  0  0  0  0  0  0  0
   34.7721   20.7205   36.1971 H   0  0  0  0  0  0  0  0  0  0  0  0
   36.5531   20.7381   32.3204 H   0  0  0  0  0  0  0  0  0  0  0  0
   37.6652   25.6621   31.0920 H   0  0  0  0  0  0  0  0  0  0  0  0
   39.1007   23.9859   32.1539 H   0  0  0  0  0  0  0  0  0  0  0  0
   38.1062   25.4500   36.0263 H   0  0  0  0  0  0  0  0  0  0  0  0
   36.6469   27.1506   34.9905 H   0  0  0  0  0  0  0  0  0  0  0  0
   34.8120   27.6533   32.6912 H   0  0  0  0  0  0  0  0  0  0  0  0
  1  2  1  0
  3  2  1  0
  4  3  1  0
  5  4  1  0
  6  5  1  0
  6  1  1  0
  7  1  1  0
  7  8  2  0
  9  8  1  0
 10  9  2  0
 11 12  2  0
 11 10  1  0
 12  7  1  0
 13 18  2  0
 14 15  2  0
 14 13  1  0
 15 16  1  0
 16  6  1  0
 16 17  2  0
 18 17  1  0
 19 20  2  0
 19 13  1  0
 21 19  2  0
  2 22  1  0
  2 23  1  0
  3 24  1  0
  3 25  1  0
  5 26  1  0
  5 27  1  0
  6 28  1  6
  8 29  1  0
  9 30  1  0
 11 31  1  0
 14 32  1  0
 15 33  1  0
 17 34  1  0
 18 35  1  0
 19 36  1  0
M  ISO  8  22  13  23  13  24  13  25  13  26  13  27  13  28  13  29  14
M  ISO  7  30  14  31  14  32  14  33  14  34  14  35  14  36  11
M  END
>  <minimizedAffinity>  (1) 
-4.53311872

>  <minimizedRMSD>  (1) 
3.11844254

$$$$
