
     RDKit          3D

 36 38  0  0  1  0  0  0  0  0999 V2000
   40.6730   23.1620   36.0960 N   0  0  0  0  0  0  0  0  0  0  0  0
   40.4920   22.2280   37.1800 C   0  0  0  0  0  0  0  0  0  0  0  0
   39.6240   22.9440   38.1810 C   0  0  0  0  0  0  0  0  0  0  0  0
   38.3440   23.1020   37.6720 O   0  0  0  0  0  0  0  0  0  0  0  0
   38.2840   23.0640   36.3020 C   0  0  0  0  0  0  0  0  0  0  0  0
   39.4240   23.7130   35.5940 C   0  0  1  0  0  0  0  0  0  0  0  0
   41.9270   23.5070   35.5550 C   0  0  0  0  0  0  0  0  0  0  0  0
   43.0100   23.9880   36.3000 C   0  0  0  0  0  0  0  0  0  0  0  0
   44.1780   24.2670   35.5820 C   0  0  0  0  0  0  0  0  0  0  0  0
   44.2190   24.0670   34.2310 N   0  0  0  0  0  0  0  0  0  0  0  0
   43.1410   23.5980   33.5540 C   0  0  0  0  0  0  0  0  0  0  0  0
   42.0090   23.3230   34.2140 N   0  0  0  0  0  0  0  0  0  0  0  0
   39.3800   25.1800   35.4550 C   0  0  0  0  0  0  0  0  0  0  0  0
   38.3040   25.9110   36.1830 C   0  0  0  0  0  0  0  0  0  0  0  0
   38.3310   27.3080   35.5840 C   0  0  0  0  0  0  0  0  0  0  0  0
   39.0110   27.1630   34.2330 C   0  0  0  0  0  0  0  0  0  0  0  0
   39.2130   25.6570   34.0330 C   0  0  0  0  0  0  0  0  0  0  0  0
   39.9945   21.3145   36.8224 H   0  0  0  0  0  0  0  0  0  0  0  0
   41.4520   21.9171   37.6179 H   0  0  0  0  0  0  0  0  0  0  0  0
   39.5768   22.3554   39.1091 H   0  0  0  0  0  0  0  0  0  0  0  0
   40.0546   23.9347   38.3888 H   0  0  0  0  0  0  0  0  0  0  0  0
   38.2489   22.0089   35.9929 H   0  0  0  0  0  0  0  0  0  0  0  0
   37.3876   23.6366   36.0218 H   0  0  0  0  0  0  0  0  0  0  0  0
   39.3301   23.4479   34.5305 H   0  0  0  0  0  0  0  0  0  0  0  0
   42.9464   24.1381   37.3879 H   0  0  0  0  0  0  0  0  0  0  0  0
   45.0662   24.6486   36.1069 H   0  0  0  0  0  0  0  0  0  0  0  0
   43.1967   23.4441   32.4662 H   0  0  0  0  0  0  0  0  0  0  0  0
   40.3615   25.4107   35.8948 H   0  0  0  0  0  0  0  0  0  0  0  0
   37.3269   25.4340   36.0166 H   0  0  0  0  0  0  0  0  0  0  0  0
   38.4606   25.9164   37.2718 H   0  0  0  0  0  0  0  0  0  0  0  0
   37.3076   27.6916   35.4591 H   0  0  0  0  0  0  0  0  0  0  0  0
   38.8647   28.0178   36.2331 H   0  0  0  0  0  0  0  0  0  0  0  0
   38.3737   27.5741   33.4362 H   0  0  0  0  0  0  0  0  0  0  0  0
   39.9646   27.7100   34.1964 H   0  0  0  0  0  0  0  0  0  0  0  0
   38.3367   25.1947   33.5552 H   0  0  0  0  0  0  0  0  0  0  0  0
   40.0567   25.4029   33.3745 H   0  0  0  0  0  0  0  0  0  0  0  0
  1  2  1  0
  2  3  1  0
  4  3  1  0
  5  4  1  0
  6  1  1  0
  6  5  1  0
  7  1  1  0
  7  8  2  0
  9  8  1  0
 10  9  2  0
 11 12  2  0
 11 10  1  0
 12  7  1  0
 13  6  1  0
 13 14  1  0
 15 14  1  0
 16 15  1  0
 17 16  1  0
 17 13  1  0
  2 18  1  0
  2 19  1  0
  3 20  1  0
  3 21  1  0
  5 22  1  0
  5 23  1  0
  6 24  1  6
  8 25  1  0
  9 26  1  0
 11 27  1  0
 13 28  1  0
 14 29  1  0
 14 30  1  0
 15 31  1  0
 15 32  1  0
 16 33  1  0
 16 34  1  0
 17 35  1  0
 17 36  1  0
M  ISO  8  18  13  19  13  20  13  21  13  22  13  23  13  24  13  25  14
M  ISO  8  26  14  27  14  28  13  29  13  30  13  31  13  32  13  33  13
M  ISO  3  34  13  35  13  36  13
M  END
>  <minimizedAffinity>  (1) 
-4.22722578

>  <minimizedRMSD>  (1) 
5.77328014

$$$$
