
     RDKit          3D

 34 36  0  0  1  0  0  0  0  0999 V2000
   38.7780   22.7640   35.3450 N   0  0  0  0  0  0  0  0  0  0  0  0
   39.3770   22.8870   36.6660 C   0  0  0  0  0  0  0  0  0  0  0  0
   40.8650   22.6420   36.4110 C   0  0  0  0  0  0  0  0  0  0  0  0
   41.3660   23.7760   35.7770 O   0  0  0  0  0  0  0  0  0  0  0  0
   40.4270   24.4950   35.0570 C   0  0  0  0  0  0  0  0  0  0  0  0
   39.4570   23.5590   34.3500 C   0  0  2  0  0  0  0  0  0  0  0  0
   38.6420   24.2090   33.4000 N   0  0  0  0  0  0  0  0  0  0  0  0
   38.6620   23.9480   32.0870 C   0  0  0  0  0  0  0  0  0  0  0  0
   37.8270   24.6290   31.1970 C   0  0  0  0  0  0  0  0  0  0  0  0
   36.9610   25.5850   31.6380 C   0  0  0  0  0  0  0  0  0  0  0  0
   36.0660   26.3450   30.8390 N   0  0  0  0  0  0  0  0  0  0  0  0
   36.9330   25.8550   32.9460 N   0  0  0  0  0  0  0  0  0  0  0  0
   37.7520   25.1770   33.7640 C   0  0  0  0  0  0  0  0  0  0  0  0
   37.7150   25.4430   35.0130 O   0  0  0  0  0  0  0  0  0  0  0  0
   37.6710   21.9870   35.0090 C   0  0  0  0  0  0  0  0  0  0  0  0
   36.6600   21.6560   35.9510 C   0  0  0  0  0  0  0  0  0  0  0  0
   35.6040   20.8750   35.5090 C   0  0  0  0  0  0  0  0  0  0  0  0
   35.5860   20.4640   34.1940 N   0  0  0  0  0  0  0  0  0  0  0  0
   36.5720   20.8070   33.3380 C   0  0  0  0  0  0  0  0  0  0  0  0
   37.6090   21.5630   33.7370 N   0  0  0  0  0  0  0  0  0  0  0  0
   39.2100   23.8920   37.0808 H   0  0  0  0  0  0  0  0  0  0  0  0
   38.9477   22.1858   37.3967 H   0  0  0  0  0  0  0  0  0  0  0  0
   41.3893   22.4806   37.3645 H   0  0  0  0  0  0  0  0  0  0  0  0
   41.0124   21.7483   35.7868 H   0  0  0  0  0  0  0  0  0  0  0  0
   39.8653   25.1447   35.7444 H   0  0  0  0  0  0  0  0  0  0  0  0
   40.9492   25.0993   34.3006 H   0  0  0  0  0  0  0  0  0  0  0  0
   40.0072   22.8563   33.7070 H   0  0  0  0  0  0  0  0  0  0  0  0
   39.3500   23.1816   31.7007 H   0  0  0  0  0  0  0  0  0  0  0  0
   37.8692   24.3899   30.1241 H   0  0  0  0  0  0  0  0  0  0  0  0
   35.4520   27.0458   31.2780 H   0  0  0  0  0  0  0  0  0  0  0  0
   36.0309   26.1954   29.8205 H   0  0  0  0  0  0  0  0  0  0  0  0
   36.7136   22.0066   36.9923 H   0  0  0  0  0  0  0  0  0  0  0  0
   34.7942   20.5882   36.1960 H   0  0  0  0  0  0  0  0  0  0  0  0
   36.5257   20.4613   32.2948 H   0  0  0  0  0  0  0  0  0  0  0  0
  1  2  1  0
  3  2  1  0
  4  3  1  0
  5  4  1  0
  6  5  1  0
  6  1  1  0
  7 13  1  0
  7  6  1  0
  8  7  1  0
  9 10  1  0
  9  8  2  0
 10 12  2  0
 11 10  1  0
 12 13  1  0
 13 14  2  0
 15  1  1  0
 15 16  2  0
 17 16  1  0
 18 17  2  0
 19 20  2  0
 19 18  1  0
 20 15  1  0
  2 21  1  0
  2 22  1  0
  3 23  1  0
  3 24  1  0
  5 25  1  0
  5 26  1  0
  6 27  1  6
  8 28  1  0
  9 29  1  0
 11 30  1  0
 11 31  1  0
 16 32  1  0
 17 33  1  0
 19 34  1  0
M  ISO  8  21  13  22  13  23  13  24  13  25  13  26  13  27  13  28  14
M  ISO  4  29  14  32  14  33  14  34  14
M  END
>  <minimizedAffinity>  (1) 
-4.54280376

>  <minimizedRMSD>  (1) 
2.393641

$$$$
