
     RDKit          3D

 32 34  0  0  1  0  0  0  0  0999 V2000
   39.1300   22.5310   35.4620 N   0  0  0  0  0  0  0  0  0  0  0  0
   39.9610   22.2150   36.6140 C   0  0  0  0  0  0  0  0  0  0  0  0
   41.3370   21.9760   36.0180 C   0  0  0  0  0  0  0  0  0  0  0  0
   41.8500   23.2350   35.6970 O   0  0  0  0  0  0  0  0  0  0  0  0
   40.8980   24.1650   35.3440 C   0  0  0  0  0  0  0  0  0  0  0  0
   39.6990   23.5850   34.6380 C   0  0  2  0  0  0  0  0  0  0  0  0
   37.9150   21.9330   35.1210 C   0  0  0  0  0  0  0  0  0  0  0  0
   36.9000   21.6710   36.0630 C   0  0  0  0  0  0  0  0  0  0  0  0
   35.7330   21.0730   35.6160 C   0  0  0  0  0  0  0  0  0  0  0  0
   35.6200   20.7670   34.2940 N   0  0  0  0  0  0  0  0  0  0  0  0
   36.6190   21.0340   33.4090 C   0  0  0  0  0  0  0  0  0  0  0  0
   37.7610   21.6140   33.8270 N   0  0  0  0  0  0  0  0  0  0  0  0
   38.7300   24.6960   34.4420 C   0  0  0  0  0  0  0  0  0  0  0  0
   38.3410   25.4980   35.5130 C   0  0  0  0  0  0  0  0  0  0  0  0
   37.4430   26.5240   35.3160 C   0  0  0  0  0  0  0  0  0  0  0  0
   36.9440   26.7260   34.0300 C   0  0  0  0  0  0  0  0  0  0  0  0
   37.3500   25.9090   32.9780 C   0  0  0  0  0  0  0  0  0  0  0  0
   38.2320   24.9080   33.1910 N   0  0  0  0  0  0  0  0  0  0  0  0
   39.9825   23.0555   37.3233 H   0  0  0  0  0  0  0  0  0  0  0  0
   39.5883   21.3491   37.1809 H   0  0  0  0  0  0  0  0  0  0  0  0
   41.9874   21.4752   36.7503 H   0  0  0  0  0  0  0  0  0  0  0  0
   41.2809   21.3292   35.1300 H   0  0  0  0  0  0  0  0  0  0  0  0
   40.5501   24.6668   36.2590 H   0  0  0  0  0  0  0  0  0  0  0  0
   41.3785   24.8556   34.6353 H   0  0  0  0  0  0  0  0  0  0  0  0
   39.9657   23.1468   33.6649 H   0  0  0  0  0  0  0  0  0  0  0  0
   37.0307   21.9339   37.1231 H   0  0  0  0  0  0  0  0  0  0  0  0
   34.9138   20.8498   36.3153 H   0  0  0  0  0  0  0  0  0  0  0  0
   36.4934   20.7750   32.3473 H   0  0  0  0  0  0  0  0  0  0  0  0
   38.7512   25.3118   36.5165 H   0  0  0  0  0  0  0  0  0  0  0  0
   37.1281   27.1668   36.1512 H   0  0  0  0  0  0  0  0  0  0  0  0
   36.2241   27.5369   33.8450 H   0  0  0  0  0  0  0  0  0  0  0  0
   36.9502   26.0796   31.9675 H   0  0  0  0  0  0  0  0  0  0  0  0
  1  2  1  0
  3  2  1  0
  4  3  1  0
  5  4  1  0
  6  5  1  0
  6  1  1  0
  7  1  1  0
  7  8  2  0
  9  8  1  0
 10  9  2  0
 11 12  2  0
 11 10  1  0
 12  7  1  0
 13  6  1  0
 13 14  2  0
 15 14  1  0
 16 15  2  0
 17 18  2  0
 17 16  1  0
 18 13  1  0
  2 19  1  0
  2 20  1  0
  3 21  1  0
  3 22  1  0
  5 23  1  0
  5 24  1  0
  6 25  1  6
  8 26  1  0
  9 27  1  0
 11 28  1  0
 14 29  1  0
 15 30  1  0
 16 31  1  0
 17 32  1  0
M  ISO  8  19  13  20  13  21  13  22  13  23  13  24  13  25  13  26  14
M  ISO  6  27  14  28  14  29  14  30  14  31  14  32  14
M  END
>  <minimizedAffinity>  (1) 
-4.15076923

>  <minimizedRMSD>  (1) 
2.23053551

$$$$
