
     RDKit          3D

 36 38  0  0  1  0  0  0  0  0999 V2000
   38.9980   22.5720   35.4300 N   0  0  0  0  0  0  0  0  0  0  0  0
   39.9930   22.1750   36.3820 C   0  0  0  0  0  0  0  0  0  0  0  0
   41.3040   22.1760   35.5980 C   0  0  0  0  0  0  0  0  0  0  0  0
   41.6670   23.4830   35.3640 O   0  0  0  0  0  0  0  0  0  0  0  0
   40.5970   24.3670   35.3300 C   0  0  0  0  0  0  0  0  0  0  0  0
   39.3740   23.7710   34.7290 C   0  0  2  0  0  0  0  0  0  0  0  0
   37.7940   21.9320   35.1570 C   0  0  0  0  0  0  0  0  0  0  0  0
   36.8390   21.6500   36.1400 C   0  0  0  0  0  0  0  0  0  0  0  0
   35.6640   21.0060   35.7570 C   0  0  0  0  0  0  0  0  0  0  0  0
   35.5010   20.6780   34.4310 N   0  0  0  0  0  0  0  0  0  0  0  0
   36.4420   20.9640   33.5110 C   0  0  0  0  0  0  0  0  0  0  0  0
   37.5770   21.5870   33.8780 N   0  0  0  0  0  0  0  0  0  0  0  0
   38.3230   24.6830   34.4450 N   0  0  0  0  0  0  0  0  0  0  0  0
   38.1640   24.9650   33.0320 C   0  0  0  0  0  0  0  0  0  0  0  0
   37.7360   26.3870   32.7800 C   0  0  0  0  0  0  0  0  0  0  0  0
   36.8170   26.8590   33.6750 O   0  0  0  0  0  0  0  0  0  0  0  0
   37.0630   26.6100   35.0030 C   0  0  0  0  0  0  0  0  0  0  0  0
   38.3840   25.9070   35.2170 C   0  0  0  0  0  0  0  0  0  0  0  0
   40.0393   22.8910   37.2158 H   0  0  0  0  0  0  0  0  0  0  0  0
   39.7749   21.1925   36.8259 H   0  0  0  0  0  0  0  0  0  0  0  0
   42.0873   21.6714   36.1826 H   0  0  0  0  0  0  0  0  0  0  0  0
   41.1759   21.6419   34.6449 H   0  0  0  0  0  0  0  0  0  0  0  0
   40.3663   24.6789   36.3593 H   0  0  0  0  0  0  0  0  0  0  0  0
   40.8925   25.2197   34.7010 H   0  0  0  0  0  0  0  0  0  0  0  0
   39.6387   23.4612   33.7072 H   0  0  0  0  0  0  0  0  0  0  0  0
   37.0115   21.9299   37.1897 H   0  0  0  0  0  0  0  0  0  0  0  0
   34.8861   20.7659   36.4967 H   0  0  0  0  0  0  0  0  0  0  0  0
   36.2827   20.6880   32.4582 H   0  0  0  0  0  0  0  0  0  0  0  0
   39.1245   24.7891   32.5254 H   0  0  0  0  0  0  0  0  0  0  0  0
   37.3781   24.3017   32.6417 H   0  0  0  0  0  0  0  0  0  0  0  0
   38.6272   27.0299   32.8282 H   0  0  0  0  0  0  0  0  0  0  0  0
   37.2541   26.4033   31.7913 H   0  0  0  0  0  0  0  0  0  0  0  0
   37.0788   27.5666   35.5458 H   0  0  0  0  0  0  0  0  0  0  0  0
   36.2654   25.9510   35.3764 H   0  0  0  0  0  0  0  0  0  0  0  0
   38.5251   25.6779   36.2836 H   0  0  0  0  0  0  0  0  0  0  0  0
   39.2282   26.5374   34.9008 H   0  0  0  0  0  0  0  0  0  0  0  0
  1  2  1  0
  3  2  1  0
  4  3  1  0
  5  4  1  0
  6  5  1  0
  6  1  1  0
  7  1  1  0
  7  8  2  0
  9  8  1  0
 10  9  2  0
 11 12  2  0
 11 10  1  0
 12  7  1  0
 13  6  1  0
 13 18  1  0
 14 13  1  0
 15 14  1  0
 15 16  1  0
 16 17  1  0
 17 18  1  0
  2 19  1  0
  2 20  1  0
  3 21  1  0
  3 22  1  0
  5 23  1  0
  5 24  1  0
  6 25  1  6
  8 26  1  0
  9 27  1  0
 11 28  1  0
 14 29  1  0
 14 30  1  0
 15 31  1  0
 15 32  1  0
 17 33  1  0
 17 34  1  0
 18 35  1  0
 18 36  1  0
M  ISO  8  19  13  20  13  21  13  22  13  23  13  24  13  25  13  26  14
M  ISO  8  27  14  28  14  29  13  30  13  31  13  32  13  33  13  34  13
M  ISO  2  35  13  36  13
M  END
>  <minimizedAffinity>  (1) 
-4.01284075

>  <minimizedRMSD>  (1) 
2.71557999

$$$$
