
     RDKit          3D

 31 33  0  0  1  0  0  0  0  0999 V2000
   39.9930   24.9040   34.9270 N   0  0  0  0  0  0  0  0  0  0  0  0
   41.1530   24.4090   34.2340 C   0  0  0  0  0  0  0  0  0  0  0  0
   41.1490   25.1220   32.9010 C   0  0  0  0  0  0  0  0  0  0  0  0
   41.4620   26.4580   33.0970 O   0  0  0  0  0  0  0  0  0  0  0  0
   41.1670   26.9230   34.3540 C   0  0  0  0  0  0  0  0  0  0  0  0
   39.9080   26.3550   34.9500 C   0  0  1  0  0  0  0  0  0  0  0  0
   39.0180   24.0980   35.5400 C   0  0  0  0  0  0  0  0  0  0  0  0
   38.5080   22.9170   34.9800 C   0  0  0  0  0  0  0  0  0  0  0  0
   37.5540   22.2200   35.7000 C   0  0  0  0  0  0  0  0  0  0  0  0
   37.1530   22.7040   36.9130 N   0  0  0  0  0  0  0  0  0  0  0  0
   37.6630   23.8490   37.4310 C   0  0  0  0  0  0  0  0  0  0  0  0
   38.5980   24.5550   36.7520 N   0  0  0  0  0  0  0  0  0  0  0  0
   38.6630   26.9020   34.4100 C   0  0  0  0  0  0  0  0  0  0  0  0
   38.3620   26.7690   33.0530 C   0  0  0  0  0  0  0  0  0  0  0  0
   37.2270   27.2380   32.4240 C   0  0  0  0  0  0  0  0  0  0  0  0
   36.3320   27.8760   33.1690 N   0  0  0  0  0  0  0  0  0  0  0  0
   36.5810   28.0280   34.4870 C   0  0  0  0  0  0  0  0  0  0  0  0
   37.6910   27.5610   35.0660 N   0  0  0  0  0  0  0  0  0  0  0  0
   42.0687   24.6455   34.7958 H   0  0  0  0  0  0  0  0  0  0  0  0
   41.1278   23.3156   34.1168 H   0  0  0  0  0  0  0  0  0  0  0  0
   40.1518   25.0411   32.4437 H   0  0  0  0  0  0  0  0  0  0  0  0
   41.8934   24.6624   32.2342 H   0  0  0  0  0  0  0  0  0  0  0  0
   42.0060   26.6710   35.0192 H   0  0  0  0  0  0  0  0  0  0  0  0
   41.0056   28.0067   34.2566 H   0  0  0  0  0  0  0  0  0  0  0  0
   39.8483   26.6858   35.9974 H   0  0  0  0  0  0  0  0  0  0  0  0
   38.8553   22.5569   34.0004 H   0  0  0  0  0  0  0  0  0  0  0  0
   37.1244   21.2891   35.3013 H   0  0  0  0  0  0  0  0  0  0  0  0
   37.3142   24.2071   38.4108 H   0  0  0  0  0  0  0  0  0  0  0  0
   39.0976   26.2417   32.4278 H   0  0  0  0  0  0  0  0  0  0  0  0
   37.0695   27.0889   31.3456 H   0  0  0  0  0  0  0  0  0  0  0  0
   35.8423   28.5562   35.1077 H   0  0  0  0  0  0  0  0  0  0  0  0
  1  6  1  0
  1  7  1  0
  2  1  1  0
  3  4  1  0
  3  2  1  0
  4  5  1  0
  5  6  1  0
  7 12  1  0
  8  7  2  0
  8  9  1  0
  9 10  2  0
 10 11  1  0
 12 11  2  0
 13  6  1  0
 13 18  1  0
 14 13  2  0
 15 14  1  0
 15 16  2  0
 16 17  1  0
 17 18  2  0
  2 19  1  0
  2 20  1  0
  3 21  1  0
  3 22  1  0
  5 23  1  0
  5 24  1  0
  6 25  1  1
  8 26  1  0
  9 27  1  0
 11 28  1  0
 14 29  1  0
 15 30  1  0
 17 31  1  0
M  ISO  8  19  13  20  13  21  13  22  13  23  13  24  13  25  13  26  14
M  ISO  5  27  14  28  14  29  14  30  14  31  14
M  END
>  <minimizedAffinity>  (1) 
-4.11420679

>  <minimizedRMSD>  (1) 
5.98276138

$$$$
