
     RDKit          3D

 50 53  0  0  1  0  0  0  0  0999 V2000
   36.2190   29.0070   32.7670 C   0  0  0  0  0  0  0  0  0  0  0  0
   36.6610   27.8160   32.2430 C   0  0  0  0  0  0  0  0  0  0  0  0
   37.0620   26.8270   33.1370 C   0  0  0  0  0  0  0  0  0  0  0  0
   37.0140   27.0430   34.5000 C   0  0  0  0  0  0  0  0  0  0  0  0
   36.5740   28.2300   35.0220 C   0  0  0  0  0  0  0  0  0  0  0  0
   36.1720   29.2230   34.1590 C   0  0  0  0  0  0  0  0  0  0  0  0
   37.4850   25.8620   35.2620 C   0  0  0  0  0  0  0  0  0  0  0  0
   38.9010   25.5000   34.9940 C   0  0  2  0  0  0  0  0  0  0  0  0
   41.1270   22.9500   36.3830 C   0  0  0  0  0  0  0  0  0  0  0  0
   40.4130   22.4840   37.5400 C   0  0  0  0  0  0  0  0  0  0  0  0
   39.1610   23.0640   37.8190 C   0  0  0  0  0  0  0  0  0  0  0  0
   38.7310   24.0320   36.9530 N   0  0  0  0  0  0  0  0  0  0  0  0
   39.4250   24.4450   35.8790 C   0  0  0  0  0  0  0  0  0  0  0  0
   40.6210   23.9090   35.5900 N   0  0  0  0  0  0  0  0  0  0  0  0
   39.7720   26.7550   35.1950 C   0  0  0  0  0  0  0  0  0  0  0  0
   35.7070   30.2790   31.6800 S   0  0  0  0  0  0  0  0  0  0  0  0
   36.0380   29.8130   30.2670 O   0  0  0  0  0  0  0  0  0  0  0  0
   36.4180   31.5500   31.9440 O   0  0  0  0  0  0  0  0  0  0  0  0
   33.9830   30.5340   31.7940 C   0  0  0  0  0  0  0  0  0  0  0  0
   33.0090   30.0460   32.5880 N   0  0  0  0  0  0  0  0  0  0  0  0
   31.8660   30.5680   32.2580 O   0  0  0  0  0  0  0  0  0  0  0  0
   32.0240   31.3990   31.2610 C   0  0  0  0  0  0  0  0  0  0  0  0
   33.3210   31.3770   30.9770 N   0  0  0  0  0  0  0  0  0  0  0  0
   31.1250   32.2300   30.5150 N   0  0  0  0  0  0  0  0  0  0  0  0
   30.3050   33.2890   31.0750 C   0  0  0  0  0  0  0  0  0  0  0  0
   28.8680   33.1700   30.5900 C   0  0  0  0  0  0  0  0  0  0  0  0
   28.7870   32.9700   29.2280 O   0  0  0  0  0  0  0  0  0  0  0  0
   29.4600   31.7980   28.8820 C   0  0  0  0  0  0  0  0  0  0  0  0
   30.9470   32.0850   29.0960 C   0  0  0  0  0  0  0  0  0  0  0  0
   36.6967   27.6500   31.1562 H   0  0  0  0  0  0  0  0  0  0  0  0
   37.4217   25.8611   32.7527 H   0  0  0  0  0  0  0  0  0  0  0  0
   36.5426   28.3865   36.1104 H   0  0  0  0  0  0  0  0  0  0  0  0
   35.8142   30.1848   34.5550 H   0  0  0  0  0  0  0  0  0  0  0  0
   37.3795   26.0775   36.3355 H   0  0  0  0  0  0  0  0  0  0  0  0
   36.8702   25.0082   34.9411 H   0  0  0  0  0  0  0  0  0  0  0  0
   38.9372   25.1137   33.9647 H   0  0  0  0  0  0  0  0  0  0  0  0
   42.1072   22.5127   36.1421 H   0  0  0  0  0  0  0  0  0  0  0  0
   40.8316   21.6990   38.1870 H   0  0  0  0  0  0  0  0  0  0  0  0
   38.5603   22.7553   38.6872 H   0  0  0  0  0  0  0  0  0  0  0  0
   39.9021   26.9425   36.2711 H   0  0  0  0  0  0  0  0  0  0  0  0
   40.7557   26.5971   34.7287 H   0  0  0  0  0  0  0  0  0  0  0  0
   39.2800   27.6213   34.7287 H   0  0  0  0  0  0  0  0  0  0  0  0
   30.3228   33.2174   32.1725 H   0  0  0  0  0  0  0  0  0  0  0  0
   30.7090   34.2589   30.7492 H   0  0  0  0  0  0  0  0  0  0  0  0
   28.3922   32.3198   31.1007 H   0  0  0  0  0  0  0  0  0  0  0  0
   28.3571   34.1164   30.8206 H   0  0  0  0  0  0  0  0  0  0  0  0
   29.2677   31.5438   27.8292 H   0  0  0  0  0  0  0  0  0  0  0  0
   29.1231   30.9460   29.4907 H   0  0  0  0  0  0  0  0  0  0  0  0
   31.5552   31.2498   28.7184 H   0  0  0  0  0  0  0  0  0  0  0  0
   31.2632   32.9902   28.5568 H   0  0  0  0  0  0  0  0  0  0  0  0
  1  6  1  0
  2  1  2  0
  2  3  1  0
  3  4  2  0
  4  5  1  0
  4  7  1  0
  6  5  2  0
  8 15  1  0
  8  7  1  0
  8 13  1  0
  9 10  2  0
 10 11  1  0
 12 11  2  0
 13 12  1  0
 14 13  2  0
 14  9  1  0
 16 19  1  0
 16 18  2  0
 16  1  1  0
 17 16  2  0
 19 20  2  0
 21 20  1  0
 22 21  1  0
 23 22  2  0
 23 19  1  0
 24 25  1  0
 24 22  1  0
 26 25  1  0
 27 26  1  0
 28 29  1  0
 28 27  1  0
 29 24  1  0
  2 30  1  0
  3 31  1  0
  5 32  1  0
  6 33  1  0
  7 34  1  0
  7 35  1  0
  8 36  1  6
  9 37  1  0
 10 38  1  0
 11 39  1  0
 15 40  1  0
 15 41  1  0
 15 42  1  0
 25 43  1  0
 25 44  1  0
 26 45  1  0
 26 46  1  0
 28 47  1  0
 28 48  1  0
 29 49  1  0
 29 50  1  0
M  ISO  8  30  14  31  14  32  14  33  14  34   8  35   8  36   8  37  14
M  ISO  8  38  14  39  14  40   8  41   8  42   8  43  13  44  13  45  13
M  ISO  5  46  13  47  13  48  13  49  13  50  13
M  END
>  <minimizedAffinity>  (1) 
-5.68785763

>  <minimizedRMSD>  (1) 
1.18061352

$$$$
