
     RDKit          3D

 30 32  0  0  1  0  0  0  0  0999 V2000
   39.1770   22.5110   35.5210 N   0  0  0  0  0  0  0  0  0  0  0  0
   40.0480   22.0920   36.5990 C   0  0  0  0  0  0  0  0  0  0  0  0
   41.4230   21.9560   35.9290 C   0  0  0  0  0  0  0  0  0  0  0  0
   41.8970   23.2380   35.6920 O   0  0  0  0  0  0  0  0  0  0  0  0
   40.9140   24.1840   35.5300 C   0  0  0  0  0  0  0  0  0  0  0  0
   39.7010   23.6530   34.7960 C   0  0  2  0  0  0  0  0  0  0  0  0
   37.9600   21.9380   35.1540 C   0  0  0  0  0  0  0  0  0  0  0  0
   36.9300   21.6850   36.1010 C   0  0  0  0  0  0  0  0  0  0  0  0
   35.7570   21.1110   35.6400 C   0  0  0  0  0  0  0  0  0  0  0  0
   35.6460   20.8170   34.3040 N   0  0  0  0  0  0  0  0  0  0  0  0
   36.6630   21.0770   33.4260 C   0  0  0  0  0  0  0  0  0  0  0  0
   37.8090   21.6320   33.8570 N   0  0  0  0  0  0  0  0  0  0  0  0
   38.7200   24.6840   34.5360 C   0  0  0  0  0  0  0  0  0  0  0  0
   38.0560   25.5110   35.4150 C   0  0  0  0  0  0  0  0  0  0  0  0
   37.1720   26.4180   34.9790 C   0  0  0  0  0  0  0  0  0  0  0  0
   36.9930   26.4290   33.4720 C   0  0  0  0  0  0  0  0  0  0  0  0
   38.1790   25.0720   32.8860 S   0  0  0  0  0  0  0  0  0  0  0  0
   40.0745   22.8481   37.3975 H   0  0  0  0  0  0  0  0  0  0  0  0
   39.7141   21.1592   37.0768 H   0  0  0  0  0  0  0  0  0  0  0  0
   42.1136   21.4166   36.5939 H   0  0  0  0  0  0  0  0  0  0  0  0
   41.3429   21.3912   34.9885 H   0  0  0  0  0  0  0  0  0  0  0  0
   40.5975   24.5350   36.5233 H   0  0  0  0  0  0  0  0  0  0  0  0
   41.3365   24.9987   34.9236 H   0  0  0  0  0  0  0  0  0  0  0  0
   39.9974   23.3092   33.7940 H   0  0  0  0  0  0  0  0  0  0  0  0
   37.0604   21.9367   37.1638 H   0  0  0  0  0  0  0  0  0  0  0  0
   34.9296   20.8947   36.3318 H   0  0  0  0  0  0  0  0  0  0  0  0
   36.5420   20.8303   32.3609 H   0  0  0  0  0  0  0  0  0  0  0  0
   38.2551   25.4251   36.4934 H   0  0  0  0  0  0  0  0  0  0  0  0
   36.6250   27.0940   35.6526 H   0  0  0  0  0  0  0  0  0  0  0  0
   36.3346   27.0693   32.8667 H   0  0  0  0  0  0  0  0  0  0  0  0
  1  2  1  0
  3  2  1  0
  4  3  1  0
  5  4  1  0
  6  1  1  0
  6  5  1  0
  7  1  1  0
  7  8  2  0
  9  8  1  0
 10  9  2  0
 11 12  2  0
 11 10  1  0
 12  7  1  0
 13  6  1  0
 13 14  2  0
 15 14  1  0
 16 15  2  0
 17 16  1  0
 17 13  1  0
  2 18  1  0
  2 19  1  0
  3 20  1  0
  3 21  1  0
  5 22  1  0
  5 23  1  0
  6 24  1  6
  8 25  1  0
  9 26  1  0
 11 27  1  0
 14 28  1  0
 15 29  1  0
 16 30  1  0
M  ISO  8  18  13  19  13  20  13  21  13  22  13  23  13  24  13  25  14
M  ISO  5  26  14  27  14  28  14  29  14  30  14
M  END
>  <minimizedAffinity>  (1) 
-3.78636074

>  <minimizedRMSD>  (1) 
2.37789798

$$$$
