
     RDKit          3D

 25 26  0  0  1  0  0  0  0  0999 V2000
   38.8930   24.2740   35.2410 N   0  0  0  0  0  0  0  0  0  0  0  0
   40.2610   23.9010   34.9630 C   0  0  0  0  0  0  0  0  0  0  0  0
   40.7940   23.3370   36.2730 C   0  0  0  0  0  0  0  0  0  0  0  0
   40.2020   22.0970   36.4740 O   0  0  0  0  0  0  0  0  0  0  0  0
   38.9750   21.9420   35.8700 C   0  0  0  0  0  0  0  0  0  0  0  0
   38.1340   23.1870   35.8020 C   0  0  1  0  0  0  0  0  0  0  0  0
   38.3080   25.5210   35.0160 C   0  0  0  0  0  0  0  0  0  0  0  0
   38.5190   26.6370   35.8540 C   0  0  0  0  0  0  0  0  0  0  0  0
   37.8760   27.8240   35.5210 C   0  0  0  0  0  0  0  0  0  0  0  0
   37.0780   27.8650   34.4120 N   0  0  0  0  0  0  0  0  0  0  0  0
   36.8980   26.7700   33.6290 C   0  0  0  0  0  0  0  0  0  0  0  0
   37.5110   25.6120   33.9340 N   0  0  0  0  0  0  0  0  0  0  0  0
   37.4920   23.4870   37.0940 C   0  0  0  0  0  0  0  0  0  0  0  0
   38.2330   23.8680   37.9860 O   0  0  0  0  0  0  0  0  0  0  0  0
   40.2998   23.1390   34.1706 H   0  0  0  0  0  0  0  0  0  0  0  0
   40.8570   24.7556   34.6101 H   0  0  0  0  0  0  0  0  0  0  0  0
   41.8867   23.2248   36.2149 H   0  0  0  0  0  0  0  0  0  0  0  0
   40.5585   24.0146   37.1069 H   0  0  0  0  0  0  0  0  0  0  0  0
   39.1437   21.5885   34.8421 H   0  0  0  0  0  0  0  0  0  0  0  0
   38.4155   21.2288   36.4931 H   0  0  0  0  0  0  0  0  0  0  0  0
   37.2927   23.0178   35.1138 H   0  0  0  0  0  0  0  0  0  0  0  0
   39.1689   26.5701   36.7389 H   0  0  0  0  0  0  0  0  0  0  0  0
   38.0082   28.7210   36.1438 H   0  0  0  0  0  0  0  0  0  0  0  0
   36.2491   26.8302   32.7428 H   0  0  0  0  0  0  0  0  0  0  0  0
   36.4084   23.3742   37.2457 H   0  0  0  0  0  0  0  0  0  0  0  0
  1  6  1  0
  2  1  1  0
  2  3  1  0
  3  4  1  0
  5  4  1  0
  6  5  1  0
  6 13  1  0
  7  1  1  0
  7  8  2  0
  9  8  1  0
 10  9  2  0
 11 12  2  0
 11 10  1  0
 12  7  1  0
 13 14  2  0
  2 15  1  0
  2 16  1  0
  3 17  1  0
  3 18  1  0
  5 19  1  0
  5 20  1  0
  6 21  1  6
  8 22  1  0
  9 23  1  0
 11 24  1  0
 13 25  1  0
M  ISO  8  15  13  16  13  17  13  18  13  19  13  20  13  21  13  22  14
M  ISO  3  23  14  24  14  25   6
M  END
>  <minimizedAffinity>  (1) 
-3.52351665

>  <minimizedRMSD>  (1) 
4.40416956

$$$$
