
     RDKit          3D

 30 32  0  0  1  0  0  0  0  0999 V2000
   38.8970   22.6310   35.5070 N   0  0  0  0  0  0  0  0  0  0  0  0
   40.0440   22.0580   36.2020 C   0  0  0  0  0  0  0  0  0  0  0  0
   41.2210   22.3740   35.3000 C   0  0  0  0  0  0  0  0  0  0  0  0
   41.4880   23.7370   35.3920 O   0  0  0  0  0  0  0  0  0  0  0  0
   40.4060   24.4990   35.7580 C   0  0  0  0  0  0  0  0  0  0  0  0
   39.1230   24.0030   35.1120 C   0  0  2  0  0  0  0  0  0  0  0  0
   37.7070   21.9630   35.2390 C   0  0  0  0  0  0  0  0  0  0  0  0
   36.7790   21.5850   36.2180 C   0  0  0  0  0  0  0  0  0  0  0  0
   35.6370   20.9230   35.8010 C   0  0  0  0  0  0  0  0  0  0  0  0
   35.4630   20.6670   34.4610 N   0  0  0  0  0  0  0  0  0  0  0  0
   36.3860   21.0500   33.5410 C   0  0  0  0  0  0  0  0  0  0  0  0
   37.4970   21.6910   33.9260 N   0  0  0  0  0  0  0  0  0  0  0  0
   37.9800   24.9130   35.3970 C   0  0  0  0  0  0  0  0  0  0  0  0
   38.2700   26.3440   35.6480 C   0  0  0  0  0  0  0  0  0  0  0  0
   37.5400   25.9490   34.3840 C   0  0  0  0  0  0  0  0  0  0  0  0
   40.1738   22.5234   37.1902 H   0  0  0  0  0  0  0  0  0  0  0  0
   39.9305   20.9792   36.3843 H   0  0  0  0  0  0  0  0  0  0  0  0
   40.9738   22.1127   34.2605 H   0  0  0  0  0  0  0  0  0  0  0  0
   42.1025   21.7932   35.6093 H   0  0  0  0  0  0  0  0  0  0  0  0
   40.2938   24.4564   36.8514 H   0  0  0  0  0  0  0  0  0  0  0  0
   40.5833   25.5303   35.4190 H   0  0  0  0  0  0  0  0  0  0  0  0
   39.2214   24.0171   34.0165 H   0  0  0  0  0  0  0  0  0  0  0  0
   36.9518   21.8066   37.2815 H   0  0  0  0  0  0  0  0  0  0  0  0
   34.8786   20.6058   36.5319 H   0  0  0  0  0  0  0  0  0  0  0  0
   36.2202   20.8328   32.4755 H   0  0  0  0  0  0  0  0  0  0  0  0
   37.4577   24.1070   35.9332 H   0  0  0  0  0  0  0  0  0  0  0  0
   37.7343   26.8799   36.4454 H   0  0  0  0  0  0  0  0  0  0  0  0
   39.1801   26.9218   35.8670 H   0  0  0  0  0  0  0  0  0  0  0  0
   38.0439   26.0188   33.4087 H   0  0  0  0  0  0  0  0  0  0  0  0
   36.5888   26.2267   33.9064 H   0  0  0  0  0  0  0  0  0  0  0  0
  1  2  1  0
  3  4  1  0
  3  2  1  0
  4  5  1  0
  6 13  1  0
  6  1  1  0
  6  5  1  0
  7  1  1  0
  7  8  2  0
  9  8  1  0
 10  9  2  0
 11 12  2  0
 11 10  1  0
 12  7  1  0
 13 14  1  0
 15 13  1  0
 15 14  1  0
  2 16  1  0
  2 17  1  0
  3 18  1  0
  3 19  1  0
  5 20  1  0
  5 21  1  0
  6 22  1  6
  8 23  1  0
  9 24  1  0
 11 25  1  0
 13 26  1  0
 14 27  1  0
 14 28  1  0
 15 29  1  0
 15 30  1  0
M  ISO  8  16  13  17  13  18  13  19  13  20  13  21  13  22  13  23  14
M  ISO  7  24  14  25  14  26  13  27  13  28  13  29  13  30  13
M  END
>  <minimizedAffinity>  (1) 
-3.45103788

>  <minimizedRMSD>  (1) 
2.40358567

$$$$
