
     RDKit          3D

 29 30  0  0  1  0  0  0  0  0999 V2000
   38.9430   24.2420   35.4390 N   0  0  0  0  0  0  0  0  0  0  0  0
   40.3620   23.9280   35.3100 C   0  0  0  0  0  0  0  0  0  0  0  0
   40.7520   23.3230   36.6410 C   0  0  0  0  0  0  0  0  0  0  0  0
   40.1640   22.0660   36.7550 O   0  0  0  0  0  0  0  0  0  0  0  0
   39.0550   21.8890   35.9320 C   0  0  0  0  0  0  0  0  0  0  0  0
   38.1720   23.1110   35.8750 C   0  0  1  0  0  0  0  0  0  0  0  0
   38.3670   25.4820   35.1780 C   0  0  0  0  0  0  0  0  0  0  0  0
   38.5460   26.6240   35.9670 C   0  0  0  0  0  0  0  0  0  0  0  0
   37.9150   27.8020   35.5950 C   0  0  0  0  0  0  0  0  0  0  0  0
   37.1420   27.7910   34.4680 N   0  0  0  0  0  0  0  0  0  0  0  0
   36.9840   26.6760   33.7230 C   0  0  0  0  0  0  0  0  0  0  0  0
   37.5950   25.5450   34.0860 N   0  0  0  0  0  0  0  0  0  0  0  0
   37.4480   23.3750   37.1470 C   0  0  0  0  0  0  0  0  0  0  0  0
   38.3750   23.7170   38.2950 C   0  0  0  0  0  0  0  0  0  0  0  0
   40.5260   23.2076   34.4950 H   0  0  0  0  0  0  0  0  0  0  0  0
   40.9618   24.8181   35.0692 H   0  0  0  0  0  0  0  0  0  0  0  0
   41.8463   23.2250   36.6956 H   0  0  0  0  0  0  0  0  0  0  0  0
   40.4074   23.9712   37.4602 H   0  0  0  0  0  0  0  0  0  0  0  0
   39.4047   21.6596   34.9146 H   0  0  0  0  0  0  0  0  0  0  0  0
   38.4575   21.0663   36.3516 H   0  0  0  0  0  0  0  0  0  0  0  0
   37.3784   22.9175   35.1383 H   0  0  0  0  0  0  0  0  0  0  0  0
   39.1768   26.5880   36.8675 H   0  0  0  0  0  0  0  0  0  0  0  0
   38.0335   28.7193   36.1904 H   0  0  0  0  0  0  0  0  0  0  0  0
   36.3548   26.6989   32.8210 H   0  0  0  0  0  0  0  0  0  0  0  0
   36.7589   24.2178   36.9898 H   0  0  0  0  0  0  0  0  0  0  0  0
   36.9133   22.4530   37.4190 H   0  0  0  0  0  0  0  0  0  0  0  0
   37.8620   23.5277   39.2494 H   0  0  0  0  0  0  0  0  0  0  0  0
   39.2790   23.0932   38.2346 H   0  0  0  0  0  0  0  0  0  0  0  0
   38.6573   24.7785   38.2346 H   0  0  0  0  0  0  0  0  0  0  0  0
  1  6  1  0
  2  1  1  0
  2  3  1  0
  3  4  1  0
  5  4  1  0
  6  5  1  0
  6 13  1  0
  7  1  1  0
  7  8  2  0
  9  8  1  0
 10  9  2  0
 11 12  2  0
 11 10  1  0
 12  7  1  0
 13 14  1  0
  2 15  1  0
  2 16  1  0
  3 17  1  0
  3 18  1  0
  5 19  1  0
  5 20  1  0
  6 21  1  6
  8 22  1  0
  9 23  1  0
 11 24  1  0
 13 25  1  0
 13 26  1  0
 14 27  1  0
 14 28  1  0
 14 29  1  0
M  ISO  8  15  13  16  13  17  13  18  13  19  13  20  13  21  13  22  14
M  ISO  7  23  14  24  14  25   8  26   8  27   8  28   8  29   8
M  END
>  <minimizedAffinity>  (1) 
-3.72411346

>  <minimizedRMSD>  (1) 
4.35310555

$$$$
