
     RDKit          3D

 25 26  0  0  1  0  0  0  0  0999 V2000
   38.8230   22.6310   35.7190 N   0  0  0  0  0  0  0  0  0  0  0  0
   39.0370   23.0840   37.0680 C   0  0  0  0  0  0  0  0  0  0  0  0
   40.3690   22.4630   37.4810 C   0  0  0  0  0  0  0  0  0  0  0  0
   41.3710   23.1540   36.8050 O   0  0  0  0  0  0  0  0  0  0  0  0
   40.9760   23.7030   35.6010 C   0  0  0  0  0  0  0  0  0  0  0  0
   39.9400   22.9170   34.8500 C   0  0  1  0  0  0  0  0  0  0  0  0
   37.6890   21.9780   35.2210 C   0  0  0  0  0  0  0  0  0  0  0  0
   36.7000   21.4220   36.0490 C   0  0  0  0  0  0  0  0  0  0  0  0
   35.6140   20.7970   35.4540 C   0  0  0  0  0  0  0  0  0  0  0  0
   35.5530   20.7470   34.0830 N   0  0  0  0  0  0  0  0  0  0  0  0
   36.5250   21.2950   33.3210 C   0  0  0  0  0  0  0  0  0  0  0  0
   37.5800   21.9020   33.8840 N   0  0  0  0  0  0  0  0  0  0  0  0
   40.4470   21.7520   34.2060 N   0  0  0  0  0  0  0  0  0  0  0  0
   39.0937   24.1820   37.1037 H   0  0  0  0  0  0  0  0  0  0  0  0
   38.2164   22.7913   37.7395 H   0  0  0  0  0  0  0  0  0  0  0  0
   40.5102   22.5613   38.5675 H   0  0  0  0  0  0  0  0  0  0  0  0
   40.3955   21.3921   37.2311 H   0  0  0  0  0  0  0  0  0  0  0  0
   40.5651   24.7035   35.8015 H   0  0  0  0  0  0  0  0  0  0  0  0
   41.8717   23.7162   34.9626 H   0  0  0  0  0  0  0  0  0  0  0  0
   39.5917   23.5473   34.0184 H   0  0  0  0  0  0  0  0  0  0  0  0
   36.7847   21.4809   37.1442 H   0  0  0  0  0  0  0  0  0  0  0  0
   34.8179   20.3505   36.0678 H   0  0  0  0  0  0  0  0  0  0  0  0
   36.4500   21.2426   32.2248 H   0  0  0  0  0  0  0  0  0  0  0  0
   40.7444   21.0686   34.9170 H   0  0  0  0  0  0  0  0  0  0  0  0
   39.7105   21.3369   33.6177 H   0  0  0  0  0  0  0  0  0  0  0  0
  1  2  1  0
  2  3  1  0
  4  3  1  0
  5  4  1  0
  6  5  1  0
  6  1  1  0
  7  1  1  0
  7  8  2  0
  9  8  1  0
 10  9  2  0
 11 12  2  0
 11 10  1  0
 12  7  1  0
 13  6  1  0
  2 14  1  0
  2 15  1  0
  3 16  1  0
  3 17  1  0
  5 18  1  0
  5 19  1  0
  6 20  1  6
  8 21  1  0
  9 22  1  0
 11 23  1  0
 13 24  1  0
 13 25  1  0
M  ISO  8  14  13  15  13  16  13  17  13  18  13  19  13  20  13  21  14
M  ISO  4  22  14  23  14  24   5  25   5
M  END
>  <minimizedAffinity>  (1) 
-3.36542869

>  <minimizedRMSD>  (1) 
0.279925942

$$$$
