
     RDKit          3D

 26 27  0  0  1  0  0  0  0  0999 V2000
   38.8110   22.6270   35.7500 N   0  0  0  0  0  0  0  0  0  0  0  0
   39.1760   22.8270   37.1230 C   0  0  0  0  0  0  0  0  0  0  0  0
   40.6060   22.3470   37.2520 C   0  0  0  0  0  0  0  0  0  0  0  0
   41.4440   23.2200   36.5880 O   0  0  0  0  0  0  0  0  0  0  0  0
   40.8450   23.9150   35.5680 C   0  0  0  0  0  0  0  0  0  0  0  0
   39.7510   23.2150   34.8300 C   0  0  2  0  0  0  0  0  0  0  0  0
   37.6710   21.9450   35.3140 C   0  0  0  0  0  0  0  0  0  0  0  0
   36.6430   21.4890   36.1460 C   0  0  0  0  0  0  0  0  0  0  0  0
   35.5660   20.8360   35.5680 C   0  0  0  0  0  0  0  0  0  0  0  0
   35.5510   20.6640   34.2130 N   0  0  0  0  0  0  0  0  0  0  0  0
   36.5590   21.1130   33.4220 C   0  0  0  0  0  0  0  0  0  0  0  0
   37.6050   21.7470   33.9780 N   0  0  0  0  0  0  0  0  0  0  0  0
   38.9900   24.3210   34.1210 C   0  0  0  0  0  0  0  0  0  0  0  0
   38.9650   24.7480   32.9340 O   0  0  0  0  0  0  0  0  0  0  0  0
   38.1680   24.9360   35.0780 O   0  0  0  0  0  0  0  0  0  0  0  0
   39.1061   23.8930   37.3851 H   0  0  0  0  0  0  0  0  0  0  0  0
   38.5055   22.2784   37.8009 H   0  0  0  0  0  0  0  0  0  0  0  0
   40.8853   22.3072   38.3152 H   0  0  0  0  0  0  0  0  0  0  0  0
   40.6978   21.3430   36.8120 H   0  0  0  0  0  0  0  0  0  0  0  0
   40.4221   24.8359   35.9958 H   0  0  0  0  0  0  0  0  0  0  0  0
   41.6385   24.0759   34.8234 H   0  0  0  0  0  0  0  0  0  0  0  0
   40.1667   22.4366   34.1733 H   0  0  0  0  0  0  0  0  0  0  0  0
   36.6885   21.6452   37.2339 H   0  0  0  0  0  0  0  0  0  0  0  0
   34.7383   20.4630   36.1891 H   0  0  0  0  0  0  0  0  0  0  0  0
   36.5196   20.9588   32.3336 H   0  0  0  0  0  0  0  0  0  0  0  0
   37.5831   25.6907   34.8165 H   0  0  0  0  0  0  0  0  0  0  0  0
  1  2  1  0
  2  3  1  0
  4  3  1  0
  5  4  1  0
  6  5  1  0
  6  1  1  0
  7  1  1  0
  7  8  2  0
  9  8  1  0
 10  9  2  0
 11 12  2  0
 11 10  1  0
 12  7  1  0
 13  6  1  0
 13 15  1  0
 14 13  2  0
  2 16  1  0
  2 17  1  0
  3 18  1  0
  3 19  1  0
  5 20  1  0
  5 21  1  0
  6 22  1  6
  8 23  1  0
  9 24  1  0
 11 25  1  0
 15 26  1  0
M  ISO  8  16  13  17  13  18  13  19  13  20  13  21  13  22  13  23  14
M  ISO  3  24  14  25  14  26   3
M  END
>  <minimizedAffinity>  (1) 
-3.56975007

>  <minimizedRMSD>  (1) 
0.764721572

$$$$
