
     RDKit          3D

 48 51  0  0  1  0  0  0  0  0999 V2000
   39.2720   22.5420   35.3850 N   0  0  0  0  0  0  0  0  0  0  0  0
   40.1790   22.0840   36.4230 C   0  0  0  0  0  0  0  0  0  0  0  0
   41.5150   21.9520   35.6670 C   0  0  0  0  0  0  0  0  0  0  0  0
   41.9940   23.2170   35.4180 O   0  0  0  0  0  0  0  0  0  0  0  0
   41.0220   24.1740   35.3060 C   0  0  0  0  0  0  0  0  0  0  0  0
   39.7660   23.6950   34.6260 C   0  0  2  0  0  0  0  0  0  0  0  0
   38.7870   24.7800   34.4910 C   0  0  0  0  0  0  0  0  0  0  0  0
   38.2280   25.4080   35.5960 C   0  0  0  0  0  0  0  0  0  0  0  0
   37.3160   26.4400   35.4830 C   0  0  0  0  0  0  0  0  0  0  0  0
   36.9360   26.8730   34.2410 C   0  0  0  0  0  0  0  0  0  0  0  0
   37.4600   26.2870   33.1120 C   0  0  0  0  0  0  0  0  0  0  0  0
   38.3850   25.2410   33.2500 C   0  0  0  0  0  0  0  0  0  0  0  0
   38.8180   24.7790   31.9750 N   0  0  0  0  0  0  0  0  0  0  0  0
   40.0440   24.8110   31.2180 C   0  0  0  0  0  0  0  0  0  0  0  0
   39.7720   25.0100   29.7330 C   0  0  0  0  0  0  0  0  0  0  0  0
   39.0500   23.8050   29.1560 C   0  0  0  0  0  0  0  0  0  0  0  0
   38.4220   23.0730   30.3210 C   0  0  0  0  0  0  0  0  0  0  0  0
   37.7880   24.1210   31.1970 C   0  0  0  0  0  0  0  0  0  0  0  0
   38.0290   21.9710   35.0860 C   0  0  0  0  0  0  0  0  0  0  0  0
   37.0320   21.7310   36.0330 C   0  0  0  0  0  0  0  0  0  0  0  0
   35.8510   21.1550   35.5760 C   0  0  0  0  0  0  0  0  0  0  0  0
   35.7050   20.8500   34.2440 N   0  0  0  0  0  0  0  0  0  0  0  0
   36.6910   21.0980   33.3640 C   0  0  0  0  0  0  0  0  0  0  0  0
   37.8370   21.6520   33.7880 N   0  0  0  0  0  0  0  0  0  0  0  0
   40.2545   22.8196   37.2374 H   0  0  0  0  0  0  0  0  0  0  0  0
   39.8554   21.1503   36.9062 H   0  0  0  0  0  0  0  0  0  0  0  0
   42.2372   21.3945   36.2815 H   0  0  0  0  0  0  0  0  0  0  0  0
   41.3651   21.4093   34.7220 H   0  0  0  0  0  0  0  0  0  0  0  0
   40.7581   24.5190   36.3166 H   0  0  0  0  0  0  0  0  0  0  0  0
   41.4368   24.9771   34.6791 H   0  0  0  0  0  0  0  0  0  0  0  0
   39.9666   23.3759   33.5926 H   0  0  0  0  0  0  0  0  0  0  0  0
   38.5227   25.0708   36.6007 H   0  0  0  0  0  0  0  0  0  0  0  0
   36.8980   26.9106   36.3851 H   0  0  0  0  0  0  0  0  0  0  0  0
   36.2088   27.6928   34.1455 H   0  0  0  0  0  0  0  0  0  0  0  0
   37.1574   26.6343   32.1131 H   0  0  0  0  0  0  0  0  0  0  0  0
   40.6685   25.6401   31.5822 H   0  0  0  0  0  0  0  0  0  0  0  0
   40.5594   23.8483   31.3507 H   0  0  0  0  0  0  0  0  0  0  0  0
   39.1475   25.9052   29.5966 H   0  0  0  0  0  0  0  0  0  0  0  0
   40.7318   25.1325   29.2098 H   0  0  0  0  0  0  0  0  0  0  0  0
   38.2721   24.1318   28.4503 H   0  0  0  0  0  0  0  0  0  0  0  0
   39.7461   23.1524   28.6087 H   0  0  0  0  0  0  0  0  0  0  0  0
   37.6587   22.3683   29.9594 H   0  0  0  0  0  0  0  0  0  0  0  0
   39.1738   22.4935   30.8769 H   0  0  0  0  0  0  0  0  0  0  0  0
   37.2716   24.8619   30.5691 H   0  0  0  0  0  0  0  0  0  0  0  0
   37.0608   23.6470   31.8727 H   0  0  0  0  0  0  0  0  0  0  0  0
   37.1738   21.9860   37.0936 H   0  0  0  0  0  0  0  0  0  0  0  0
   35.0337   20.9436   36.2812 H   0  0  0  0  0  0  0  0  0  0  0  0
   36.5586   20.8477   32.3011 H   0  0  0  0  0  0  0  0  0  0  0  0
  1  2  1  0
  3  2  1  0
  4  3  1  0
  5  4  1  0
  6  5  1  0
  6  1  1  0
  7  6  1  0
  7  8  2  0
  9  8  1  0
 10  9  2  0
 11 12  2  0
 11 10  1  0
 12  7  1  0
 13 12  1  0
 14 13  1  0
 15 14  1  0
 16 15  1  0
 16 17  1  0
 17 18  1  0
 18 13  1  0
 19  1  1  0
 19 20  2  0
 21 20  1  0
 22 21  2  0
 23 24  2  0
 23 22  1  0
 24 19  1  0
  2 25  1  0
  2 26  1  0
  3 27  1  0
  3 28  1  0
  5 29  1  0
  5 30  1  0
  6 31  1  6
  8 32  1  0
  9 33  1  0
 10 34  1  0
 11 35  1  0
 14 36  1  0
 14 37  1  0
 15 38  1  0
 15 39  1  0
 16 40  1  0
 16 41  1  0
 17 42  1  0
 17 43  1  0
 18 44  1  0
 18 45  1  0
 20 46  1  0
 21 47  1  0
 23 48  1  0
M  ISO  8  25  13  26  13  27  13  28  13  29  13  30  13  31  13  32  14
M  ISO  8  33  14  34  14  35  14  36  13  37  13  38  13  39  13  40  13
M  ISO  8  41  13  42  13  43  13  44  13  45  13  46  14  47  14  48  14
M  END
>  <minimizedAffinity>  (1) 
-4.66279125

>  <minimizedRMSD>  (1) 
0.671931446

$$$$
