
     RDKit          3D

 44 48  0  0  1  0  0  0  0  0999 V2000
   40.3030   23.6340   35.2190 N   0  0  0  0  0  0  0  0  0  0  0  0
   41.6370   23.6630   35.7960 C   0  0  0  0  0  0  0  0  0  0  0  0
   42.4580   22.8430   34.7820 C   0  0  0  0  0  0  0  0  0  0  0  0
   42.6340   23.6160   33.6570 O   0  0  0  0  0  0  0  0  0  0  0  0
   41.6250   24.5080   33.4240 C   0  0  0  0  0  0  0  0  0  0  0  0
   40.2580   24.0210   33.8070 C   0  0  2  0  0  0  0  0  0  0  0  0
   39.2180   25.0060   33.4880 C   0  0  0  0  0  0  0  0  0  0  0  0
   39.0900   26.1800   34.2190 C   0  0  0  0  0  0  0  0  0  0  0  0
   38.1330   27.1350   33.9360 C   0  0  0  0  0  0  0  0  0  0  0  0
   37.2600   26.9240   32.8810 C   0  0  0  0  0  0  0  0  0  0  0  0
   37.3500   25.7720   32.1250 C   0  0  0  0  0  0  0  0  0  0  0  0
   38.3290   24.8290   32.4410 C   0  0  0  0  0  0  0  0  0  0  0  0
   38.3290   23.6930   31.5900 N   0  0  0  0  0  0  0  0  0  0  0  0
   39.1020   23.2720   30.5710 C   0  0  0  0  0  0  0  0  0  0  0  0
   38.6450   22.1070   30.1040 N   0  0  0  0  0  0  0  0  0  0  0  0
   37.5560   21.7320   30.8070 C   0  0  0  0  0  0  0  0  0  0  0  0
   36.7500   20.6200   30.6920 C   0  0  0  0  0  0  0  0  0  0  0  0
   35.7100   20.5280   31.5610 N   0  0  0  0  0  0  0  0  0  0  0  0
   35.5290   21.4950   32.4550 C   0  0  0  0  0  0  0  0  0  0  0  0
   36.3160   22.5790   32.5650 N   0  0  0  0  0  0  0  0  0  0  0  0
   37.3590   22.7450   31.7510 C   0  0  0  0  0  0  0  0  0  0  0  0
   39.1260   23.2710   35.8970 C   0  0  0  0  0  0  0  0  0  0  0  0
   38.6930   23.8720   37.0790 C   0  0  0  0  0  0  0  0  0  0  0  0
   37.5140   23.4070   37.6370 C   0  0  0  0  0  0  0  0  0  0  0  0
   36.8270   22.3950   37.0240 N   0  0  0  0  0  0  0  0  0  0  0  0
   37.2740   21.8360   35.8840 C   0  0  0  0  0  0  0  0  0  0  0  0
   38.4170   22.2800   35.3340 N   0  0  0  0  0  0  0  0  0  0  0  0
   42.0146   24.6933   35.8724 H   0  0  0  0  0  0  0  0  0  0  0  0
   41.6802   23.2634   36.8199 H   0  0  0  0  0  0  0  0  0  0  0  0
   43.4358   22.5845   35.2146 H   0  0  0  0  0  0  0  0  0  0  0  0
   41.9325   21.9106   34.5280 H   0  0  0  0  0  0  0  0  0  0  0  0
   41.8364   25.4224   33.9978 H   0  0  0  0  0  0  0  0  0  0  0  0
   41.6025   24.6754   32.3370 H   0  0  0  0  0  0  0  0  0  0  0  0
   39.9770   23.1382   33.2139 H   0  0  0  0  0  0  0  0  0  0  0  0
   39.7792   26.3566   35.0580 H   0  0  0  0  0  0  0  0  0  0  0  0
   38.0648   28.0514   34.5406 H   0  0  0  0  0  0  0  0  0  0  0  0
   36.4930   27.6763   32.6450 H   0  0  0  0  0  0  0  0  0  0  0  0
   36.6600   25.6001   31.2858 H   0  0  0  0  0  0  0  0  0  0  0  0
   39.9798   23.8081   30.1809 H   0  0  0  0  0  0  0  0  0  0  0  0
   36.9394   19.8455   29.9342 H   0  0  0  0  0  0  0  0  0  0  0  0
   34.6808   21.4021   33.1492 H   0  0  0  0  0  0  0  0  0  0  0  0
   39.2662   24.6843   37.5499 H   0  0  0  0  0  0  0  0  0  0  0  0
   37.1316   23.8492   38.5688 H   0  0  0  0  0  0  0  0  0  0  0  0
   36.7083   21.0224   35.4065 H   0  0  0  0  0  0  0  0  0  0  0  0
  1  2  1  0
  1 22  1  0
  3  2  1  0
  4  3  1  0
  5  4  1  0
  5  6  1  0
  6  1  1  0
  7  6  1  0
  7  8  2  0
  9  8  1  0
 10  9  2  0
 11 12  2  0
 11 10  1  0
 12  7  1  0
 13 21  1  0
 13 12  1  0
 14 13  1  0
 15 14  2  0
 15 16  1  0
 16 21  2  0
 17 16  1  0
 17 18  2  0
 18 19  1  0
 19 20  2  0
 21 20  1  0
 22 23  2  0
 23 24  1  0
 25 24  2  0
 26 25  1  0
 27 26  2  0
 27 22  1  0
  2 28  1  0
  2 29  1  0
  3 30  1  0
  3 31  1  0
  5 32  1  0
  5 33  1  0
  6 34  1  6
  8 35  1  0
  9 36  1  0
 10 37  1  0
 11 38  1  0
 14 39  1  0
 17 40  1  0
 19 41  1  0
 23 42  1  0
 24 43  1  0
 26 44  1  0
M  ISO  8  28  13  29  13  30  13  31  13  32  13  33  13  34  13  35  14
M  ISO  8  36  14  37  14  38  14  39  14  40  14  41  14  42  14  43  14
M  ISO  1  44  14
M  END
>  <minimizedAffinity>  (1) 
-4.88518143

>  <minimizedRMSD>  (1) 
1.9248817

$$$$
