
     RDKit          3D

 46 49  0  0  1  0  0  0  0  0999 V2000
   39.3060   22.5070   35.4120 N   0  0  0  0  0  0  0  0  0  0  0  0
   40.2130   22.0120   36.4320 C   0  0  0  0  0  0  0  0  0  0  0  0
   41.5430   21.8830   35.6690 C   0  0  0  0  0  0  0  0  0  0  0  0
   42.0360   23.1470   35.4520 O   0  0  0  0  0  0  0  0  0  0  0  0
   41.0770   24.1180   35.3590 C   0  0  0  0  0  0  0  0  0  0  0  0
   39.8110   23.6750   34.6800 C   0  0  2  0  0  0  0  0  0  0  0  0
   38.8480   24.7750   34.5680 C   0  0  0  0  0  0  0  0  0  0  0  0
   38.2870   25.3680   35.6880 C   0  0  0  0  0  0  0  0  0  0  0  0
   37.3790   26.4090   35.6210 C   0  0  0  0  0  0  0  0  0  0  0  0
   37.0030   26.8900   34.3930 C   0  0  0  0  0  0  0  0  0  0  0  0
   37.5280   26.3390   33.2520 C   0  0  0  0  0  0  0  0  0  0  0  0
   38.4530   25.2800   33.3420 C   0  0  0  0  0  0  0  0  0  0  0  0
   39.4380   23.8000   29.4540 C   0  0  0  0  0  0  0  0  0  0  0  0
   38.2120   23.6240   30.0440 C   0  0  0  0  0  0  0  0  0  0  0  0
   37.9850   24.1310   31.3060 C   0  0  0  0  0  0  0  0  0  0  0  0
   38.9420   24.8330   32.0480 C   0  0  0  0  0  0  0  0  0  0  0  0
   40.1640   24.9980   31.4360 C   0  0  0  0  0  0  0  0  0  0  0  0
   40.3810   24.4860   30.1750 C   0  0  0  0  0  0  0  0  0  0  0  0
   39.8030   23.1880   27.8620 S   0  0  0  0  0  0  0  0  0  0  0  0
   39.5630   24.2860   26.8480 O   0  0  0  0  0  0  0  0  0  0  0  0
   41.2250   22.7460   27.8000 O   0  0  0  0  0  0  0  0  0  0  0  0
   38.0530   21.9580   35.1020 C   0  0  0  0  0  0  0  0  0  0  0  0
   37.0510   21.7350   36.0470 C   0  0  0  0  0  0  0  0  0  0  0  0
   35.8610   21.1810   35.5810 C   0  0  0  0  0  0  0  0  0  0  0  0
   35.7190   20.8830   34.2550 N   0  0  0  0  0  0  0  0  0  0  0  0
   36.7090   21.1130   33.3720 C   0  0  0  0  0  0  0  0  0  0  0  0
   37.8620   21.6470   33.8060 N   0  0  0  0  0  0  0  0  0  0  0  0
   40.3010   22.7256   37.2645 H   0  0  0  0  0  0  0  0  0  0  0  0
   39.8804   21.0695   36.8914 H   0  0  0  0  0  0  0  0  0  0  0  0
   42.2602   21.3007   36.2661 H   0  0  0  0  0  0  0  0  0  0  0  0
   41.3836   21.3669   34.7108 H   0  0  0  0  0  0  0  0  0  0  0  0
   40.8238   24.4506   36.3765 H   0  0  0  0  0  0  0  0  0  0  0  0
   41.5018   24.9216   34.7395 H   0  0  0  0  0  0  0  0  0  0  0  0
   40.0002   23.3778   33.6379 H   0  0  0  0  0  0  0  0  0  0  0  0
   38.5785   24.9919   36.6798 H   0  0  0  0  0  0  0  0  0  0  0  0
   36.9636   26.8457   36.5412 H   0  0  0  0  0  0  0  0  0  0  0  0
   36.2810   27.7170   34.3232 H   0  0  0  0  0  0  0  0  0  0  0  0
   37.2269   26.7239   32.2665 H   0  0  0  0  0  0  0  0  0  0  0  0
   37.4152   23.0819   29.5137 H   0  0  0  0  0  0  0  0  0  0  0  0
   36.9936   23.9746   31.7561 H   0  0  0  0  0  0  0  0  0  0  0  0
   40.9689   25.5396   31.9545 H   0  0  0  0  0  0  0  0  0  0  0  0
   41.3708   24.6369   29.7194 H   0  0  0  0  0  0  0  0  0  0  0  0
   38.9966   22.1156   27.5852 H   0  0  0  0  0  0  0  0  0  0  0  0
   37.1939   21.9846   37.1087 H   0  0  0  0  0  0  0  0  0  0  0  0
   35.0354   20.9834   36.2805 H   0  0  0  0  0  0  0  0  0  0  0  0
   36.5750   20.8665   32.3084 H   0  0  0  0  0  0  0  0  0  0  0  0
  1  2  1  0
  3  2  1  0
  4  3  1  0
  5  4  1  0
  6  5  1  0
  6  1  1  0
  7  6  1  0
  7  8  2  0
  9  8  1  0
 10  9  2  0
 11 12  2  0
 11 10  1  0
 12  7  1  0
 13 14  2  0
 13 18  1  0
 14 15  1  0
 15 16  2  0
 16 12  1  0
 17 16  1  0
 18 17  2  0
 19 13  1  0
 20 19  2  0
 21 19  2  0
 22  1  1  0
 22 23  2  0
 24 23  1  0
 25 24  2  0
 26 27  2  0
 26 25  1  0
 27 22  1  0
  2 28  1  0
  2 29  1  0
  3 30  1  0
  3 31  1  0
  5 32  1  0
  5 33  1  0
  6 34  1  6
  8 35  1  0
  9 36  1  0
 10 37  1  0
 11 38  1  0
 14 39  1  0
 15 40  1  0
 17 41  1  0
 18 42  1  0
 19 43  1  0
 23 44  1  0
 24 45  1  0
 26 46  1  0
M  ISO  8  28  13  29  13  30  13  31  13  32  13  33  13  34  13  35  14
M  ISO  8  36  14  37  14  38  14  39  14  40  14  41  14  42  14  43  11
M  ISO  3  44  14  45  14  46  14
M  END
>  <minimizedAffinity>  (1) 
-4.64175606

>  <minimizedRMSD>  (1) 
1.13823783

$$$$
