
     RDKit          3D

 46 49  0  0  1  0  0  0  0  0999 V2000
   39.1820   22.5430   35.5860 N   0  0  0  0  0  0  0  0  0  0  0  0
   39.9730   22.1800   36.7490 C   0  0  0  0  0  0  0  0  0  0  0  0
   41.3700   21.9560   36.1570 C   0  0  0  0  0  0  0  0  0  0  0  0
   41.9050   23.1750   35.8130 O   0  0  0  0  0  0  0  0  0  0  0  0
   40.9730   24.1260   35.5060 C   0  0  0  0  0  0  0  0  0  0  0  0
   39.7710   23.6040   34.7710 C   0  0  2  0  0  0  0  0  0  0  0  0
   38.8360   24.6810   34.4230 C   0  0  0  0  0  0  0  0  0  0  0  0
   38.0880   25.3320   35.3930 C   0  0  0  0  0  0  0  0  0  0  0  0
   37.2110   26.3590   35.0990 C   0  0  0  0  0  0  0  0  0  0  0  0
   37.0650   26.7650   33.7860 C   0  0  0  0  0  0  0  0  0  0  0  0
   37.7880   26.1500   32.7840 C   0  0  0  0  0  0  0  0  0  0  0  0
   38.6620   25.1170   33.1210 C   0  0  0  0  0  0  0  0  0  0  0  0
   39.3680   24.5480   32.0240 N   0  0  0  0  0  0  0  0  0  0  0  0
   40.7040   24.8150   31.4670 C   0  0  0  0  0  0  0  0  0  0  0  0
   40.5050   25.3230   30.0470 C   0  0  0  0  0  0  0  0  0  0  0  0
   39.1550   25.3300   29.7000 O   0  0  0  0  0  0  0  0  0  0  0  0
   38.5900   24.0660   29.7920 C   0  0  0  0  0  0  0  0  0  0  0  0
   38.8180   23.4980   31.1760 C   0  0  0  0  0  0  0  0  0  0  0  0
   37.9540   21.9590   35.2210 C   0  0  0  0  0  0  0  0  0  0  0  0
   36.9210   21.6940   36.1210 C   0  0  0  0  0  0  0  0  0  0  0  0
   35.7720   21.1140   35.6090 C   0  0  0  0  0  0  0  0  0  0  0  0
   35.6870   20.8250   34.2720 N   0  0  0  0  0  0  0  0  0  0  0  0
   36.7070   21.0960   33.4360 C   0  0  0  0  0  0  0  0  0  0  0  0
   37.8250   21.6590   33.9220 N   0  0  0  0  0  0  0  0  0  0  0  0
   39.9829   22.9927   37.4902 H   0  0  0  0  0  0  0  0  0  0  0  0
   39.5818   21.3018   37.2835 H   0  0  0  0  0  0  0  0  0  0  0  0
   42.0137   21.4667   36.9028 H   0  0  0  0  0  0  0  0  0  0  0  0
   41.3006   21.3132   35.2671 H   0  0  0  0  0  0  0  0  0  0  0  0
   40.6293   24.5861   36.4442 H   0  0  0  0  0  0  0  0  0  0  0  0
   41.4660   24.8420   34.8320 H   0  0  0  0  0  0  0  0  0  0  0  0
   40.0590   23.1775   33.7988 H   0  0  0  0  0  0  0  0  0  0  0  0
   38.1975   25.0173   36.4413 H   0  0  0  0  0  0  0  0  0  0  0  0
   36.6364   26.8471   35.9000 H   0  0  0  0  0  0  0  0  0  0  0  0
   36.3702   27.5811   33.5387 H   0  0  0  0  0  0  0  0  0  0  0  0
   37.6767   26.4693   31.7373 H   0  0  0  0  0  0  0  0  0  0  0  0
   41.2191   25.5764   32.0711 H   0  0  0  0  0  0  0  0  0  0  0  0
   41.3194   23.9033   31.4733 H   0  0  0  0  0  0  0  0  0  0  0  0
   40.9000   26.3470   29.9733 H   0  0  0  0  0  0  0  0  0  0  0  0
   41.0388   24.6516   29.3583 H   0  0  0  0  0  0  0  0  0  0  0  0
   37.5091   24.1350   29.5998 H   0  0  0  0  0  0  0  0  0  0  0  0
   39.0591   23.4052   29.0481 H   0  0  0  0  0  0  0  0  0  0  0  0
   37.8634   23.1458   31.5941 H   0  0  0  0  0  0  0  0  0  0  0  0
   39.5180   22.6511   31.1243 H   0  0  0  0  0  0  0  0  0  0  0  0
   37.0150   21.9351   37.1901 H   0  0  0  0  0  0  0  0  0  0  0  0
   34.9275   20.8853   36.2757 H   0  0  0  0  0  0  0  0  0  0  0  0
   36.6253   20.8585   32.3651 H   0  0  0  0  0  0  0  0  0  0  0  0
  1  2  1  0
  3  2  1  0
  4  3  1  0
  5  4  1  0
  6  5  1  0
  6  1  1  0
  7  6  1  0
  7  8  2  0
  9  8  1  0
 10  9  2  0
 11 12  2  0
 11 10  1  0
 12  7  1  0
 13 12  1  0
 14 13  1  0
 15 14  1  0
 16 17  1  0
 16 15  1  0
 17 18  1  0
 18 13  1  0
 19  1  1  0
 19 20  2  0
 21 20  1  0
 22 21  2  0
 23 24  2  0
 23 22  1  0
 24 19  1  0
  2 25  1  0
  2 26  1  0
  3 27  1  0
  3 28  1  0
  5 29  1  0
  5 30  1  0
  6 31  1  6
  8 32  1  0
  9 33  1  0
 10 34  1  0
 11 35  1  0
 14 36  1  0
 14 37  1  0
 15 38  1  0
 15 39  1  0
 17 40  1  0
 17 41  1  0
 18 42  1  0
 18 43  1  0
 20 44  1  0
 21 45  1  0
 23 46  1  0
M  ISO  8  25  13  26  13  27  13  28  13  29  13  30  13  31  13  32  14
M  ISO  8  33  14  34  14  35  14  36  13  37  13  38  13  39  13  40  13
M  ISO  6  41  13  42  13  43  13  44  14  45  14  46  14
M  END
>  <minimizedAffinity>  (1) 
-4.5525322

>  <minimizedRMSD>  (1) 
0.799784422

$$$$
