
     RDKit          3D

 41 44  0  0  1  0  0  0  0  0999 V2000
   39.1700   22.5540   35.4670 N   0  0  0  0  0  0  0  0  0  0  0  0
   40.0240   22.1500   36.5710 C   0  0  0  0  0  0  0  0  0  0  0  0
   41.4000   21.9810   35.8940 C   0  0  0  0  0  0  0  0  0  0  0  0
   41.8930   23.2570   35.6380 O   0  0  0  0  0  0  0  0  0  0  0  0
   40.9180   24.2050   35.4660 C   0  0  0  0  0  0  0  0  0  0  0  0
   39.7220   23.6750   34.6910 C   0  0  2  0  0  0  0  0  0  0  0  0
   38.7600   24.7390   34.4010 C   0  0  0  0  0  0  0  0  0  0  0  0
   38.1170   25.4140   35.4410 C   0  0  0  0  0  0  0  0  0  0  0  0
   37.2060   26.4330   35.2500 C   0  0  0  0  0  0  0  0  0  0  0  0
   36.9110   26.8080   33.9680 C   0  0  0  0  0  0  0  0  0  0  0  0
   37.5130   26.1800   32.9220 C   0  0  0  0  0  0  0  0  0  0  0  0
   38.4420   25.1410   33.1240 C   0  0  0  0  0  0  0  0  0  0  0  0
   39.0060   24.5650   31.9140 C   0  0  0  0  0  0  0  0  0  0  0  0
   38.2290   23.8620   31.0300 C   0  0  0  0  0  0  0  0  0  0  0  0
   38.6600   23.2760   29.8620 C   0  0  0  0  0  0  0  0  0  0  0  0
   39.9550   23.3770   29.5180 N   0  0  0  0  0  0  0  0  0  0  0  0
   40.7480   24.0550   30.3520 C   0  0  0  0  0  0  0  0  0  0  0  0
   40.2400   24.5710   31.4320 N   0  0  0  0  0  0  0  0  0  0  0  0
   37.9510   21.9680   35.1160 C   0  0  0  0  0  0  0  0  0  0  0  0
   36.9300   21.7140   36.0320 C   0  0  0  0  0  0  0  0  0  0  0  0
   35.7750   21.1230   35.5190 C   0  0  0  0  0  0  0  0  0  0  0  0
   35.6820   20.8230   34.1860 N   0  0  0  0  0  0  0  0  0  0  0  0
   36.6950   21.0870   33.3390 C   0  0  0  0  0  0  0  0  0  0  0  0
   37.8100   21.6540   33.8180 N   0  0  0  0  0  0  0  0  0  0  0  0
   40.0582   22.9259   37.3500 H   0  0  0  0  0  0  0  0  0  0  0  0
   39.6750   21.2403   37.0815 H   0  0  0  0  0  0  0  0  0  0  0  0
   42.0851   21.4396   36.5630 H   0  0  0  0  0  0  0  0  0  0  0  0
   41.3080   21.4040   34.9620 H   0  0  0  0  0  0  0  0  0  0  0  0
   40.5759   24.5429   36.4553 H   0  0  0  0  0  0  0  0  0  0  0  0
   41.3536   25.0314   34.8852 H   0  0  0  0  0  0  0  0  0  0  0  0
   40.0134   23.3038   33.6974 H   0  0  0  0  0  0  0  0  0  0  0  0
   38.3506   25.1157   36.4737 H   0  0  0  0  0  0  0  0  0  0  0  0
   36.7292   26.9311   36.1071 H   0  0  0  0  0  0  0  0  0  0  0  0
   36.1881   27.6162   33.7831 H   0  0  0  0  0  0  0  0  0  0  0  0
   37.2686   26.4907   31.8955 H   0  0  0  0  0  0  0  0  0  0  0  0
   37.1623   23.7566   31.2773 H   0  0  0  0  0  0  0  0  0  0  0  0
   37.9534   22.7318   29.2181 H   0  0  0  0  0  0  0  0  0  0  0  0
   41.8182   24.1754   30.1278 H   0  0  0  0  0  0  0  0  0  0  0  0
   37.0299   21.9654   37.0982 H   0  0  0  0  0  0  0  0  0  0  0  0
   34.9332   20.8964   36.1899 H   0  0  0  0  0  0  0  0  0  0  0  0
   36.6082   20.8409   32.2704 H   0  0  0  0  0  0  0  0  0  0  0  0
  1  2  1  0
  3  2  1  0
  4  3  1  0
  5  4  1  0
  6  5  1  0
  6  1  1  0
  7  6  1  0
  7  8  2  0
  9  8  1  0
 10  9  2  0
 11 12  2  0
 11 10  1  0
 12  7  1  0
 13 12  1  0
 14 13  2  0
 15 14  1  0
 16 15  2  0
 16 17  1  0
 17 18  2  0
 18 13  1  0
 19  1  1  0
 19 20  2  0
 21 20  1  0
 22 21  2  0
 23 24  2  0
 23 22  1  0
 24 19  1  0
  2 25  1  0
  2 26  1  0
  3 27  1  0
  3 28  1  0
  5 29  1  0
  5 30  1  0
  6 31  1  6
  8 32  1  0
  9 33  1  0
 10 34  1  0
 11 35  1  0
 14 36  1  0
 15 37  1  0
 17 38  1  0
 20 39  1  0
 21 40  1  0
 23 41  1  0
M  ISO  8  25  13  26  13  27  13  28  13  29  13  30  13  31  13  32  14
M  ISO  8  33  14  34  14  35  14  36  14  37  14  38  14  39  14  40  14
M  ISO  1  41  14
M  END
>  <minimizedAffinity>  (1) 
-4.46994114

>  <minimizedRMSD>  (1) 
0.56467694

$$$$
