
     RDKit          3D

 40 43  0  0  1  0  0  0  0  0999 V2000
   39.5950   22.6430   34.8650 N   0  0  0  0  0  0  0  0  0  0  0  0
   40.7300   22.0900   35.5820 C   0  0  0  0  0  0  0  0  0  0  0  0
   41.8300   22.0730   34.4940 C   0  0  0  0  0  0  0  0  0  0  0  0
   42.2520   23.3800   34.3240 O   0  0  0  0  0  0  0  0  0  0  0  0
   41.2920   24.3190   34.5750 C   0  0  0  0  0  0  0  0  0  0  0  0
   39.9020   23.8950   34.1590 C   0  0  2  0  0  0  0  0  0  0  0  0
   38.9230   24.9630   34.3740 C   0  0  0  0  0  0  0  0  0  0  0  0
   38.7290   25.5160   35.6410 C   0  0  0  0  0  0  0  0  0  0  0  0
   37.8340   26.5220   35.9110 C   0  0  0  0  0  0  0  0  0  0  0  0
   37.0830   27.0180   34.8900 C   0  0  0  0  0  0  0  0  0  0  0  0
   37.2260   26.5210   33.6370 C   0  0  0  0  0  0  0  0  0  0  0  0
   38.1470   25.4890   33.3610 C   0  0  0  0  0  0  0  0  0  0  0  0
   38.2160   25.0370   31.9730 C   0  0  0  0  0  0  0  0  0  0  0  0
   39.1830   25.4590   31.0710 C   0  0  0  0  0  0  0  0  0  0  0  0
   39.0240   24.8840   29.8340 C   0  0  0  0  0  0  0  0  0  0  0  0
   37.9630   24.1090   29.9740 N   0  0  0  0  0  0  0  0  0  0  0  0
   37.5310   24.2120   31.1780 N   0  0  0  0  0  0  0  0  0  0  0  0
   38.3100   22.0840   34.8030 C   0  0  0  0  0  0  0  0  0  0  0  0
   37.4810   21.9360   35.9130 C   0  0  0  0  0  0  0  0  0  0  0  0
   36.2300   21.3600   35.6780 C   0  0  0  0  0  0  0  0  0  0  0  0
   35.8750   20.9760   34.4150 N   0  0  0  0  0  0  0  0  0  0  0  0
   36.7060   21.1360   33.3700 C   0  0  0  0  0  0  0  0  0  0  0  0
   37.9100   21.6880   33.5770 N   0  0  0  0  0  0  0  0  0  0  0  0
   41.0170   22.7308   36.4288 H   0  0  0  0  0  0  0  0  0  0  0  0
   40.5329   21.1026   36.0249 H   0  0  0  0  0  0  0  0  0  0  0  0
   42.6719   21.4434   34.8179 H   0  0  0  0  0  0  0  0  0  0  0  0
   41.4426   21.6600   33.5509 H   0  0  0  0  0  0  0  0  0  0  0  0
   41.2830   24.5259   35.6553 H   0  0  0  0  0  0  0  0  0  0  0  0
   41.5484   25.2073   33.9790 H   0  0  0  0  0  0  0  0  0  0  0  0
   39.8513   23.7057   33.0766 H   0  0  0  0  0  0  0  0  0  0  0  0
   39.3297   25.1219   36.4740 H   0  0  0  0  0  0  0  0  0  0  0  0
   37.7263   26.9187   36.9313 H   0  0  0  0  0  0  0  0  0  0  0  0
   36.3588   27.8235   35.0819 H   0  0  0  0  0  0  0  0  0  0  0  0
   36.6126   26.9300   32.8206 H   0  0  0  0  0  0  0  0  0  0  0  0
   39.9838   26.1714   31.3183 H   0  0  0  0  0  0  0  0  0  0  0  0
   39.6384   25.0341   28.9340 H   0  0  0  0  0  0  0  0  0  0  0  0
   37.5503   23.5189   29.2375 H   0  0  0  0  0  0  0  0  0  0  0  0
   37.7940   22.2548   36.9182 H   0  0  0  0  0  0  0  0  0  0  0  0
   35.5281   21.2150   36.5124 H   0  0  0  0  0  0  0  0  0  0  0  0
   36.4027   20.8190   32.3613 H   0  0  0  0  0  0  0  0  0  0  0  0
  1  2  1  0
  3  2  1  0
  4  3  1  0
  4  5  1  0
  6  7  1  0
  6  5  1  0
  6  1  1  0
  7  8  2  0
  8  9  1  0
 10  9  2  0
 11 10  1  0
 12 11  2  0
 12  7  1  0
 13 12  1  0
 14 13  1  0
 15 16  1  0
 15 14  2  0
 16 17  1  0
 17 13  2  0
 18  1  1  0
 18 19  2  0
 20 19  1  0
 21 20  2  0
 22 23  2  0
 22 21  1  0
 23 18  1  0
  2 24  1  0
  2 25  1  0
  3 26  1  0
  3 27  1  0
  5 28  1  0
  5 29  1  0
  6 30  1  6
  8 31  1  0
  9 32  1  0
 10 33  1  0
 11 34  1  0
 14 35  1  0
 15 36  1  0
 16 37  1  0
 19 38  1  0
 20 39  1  0
 22 40  1  0
M  ISO  8  24  13  25  13  26  13  27  13  28  13  29  13  30  13  31  14
M  ISO  8  32  14  33  14  34  14  35  14  36  14  37   9  38  14  39  14
M  ISO  1  40  14
M  END
>  <minimizedAffinity>  (1) 
-4.5259552

>  <minimizedRMSD>  (1) 
0.948512793

$$$$
