
     RDKit          3D

 45 48  0  0  1  0  0  0  0  0999 V2000
   39.1730   22.5320   35.5400 N   0  0  0  0  0  0  0  0  0  0  0  0
   39.9990   22.1650   36.6750 C   0  0  0  0  0  0  0  0  0  0  0  0
   41.3800   21.9420   36.0380 C   0  0  0  0  0  0  0  0  0  0  0  0
   41.9000   23.1680   35.6930 O   0  0  0  0  0  0  0  0  0  0  0  0
   40.9580   24.1220   35.4190 C   0  0  0  0  0  0  0  0  0  0  0  0
   39.7390   23.5940   34.7120 C   0  0  2  0  0  0  0  0  0  0  0  0
   38.7890   24.6830   34.4070 C   0  0  0  0  0  0  0  0  0  0  0  0
   38.1050   25.3560   35.3830 C   0  0  0  0  0  0  0  0  0  0  0  0
   37.2280   26.3840   35.0860 C   0  0  0  0  0  0  0  0  0  0  0  0
   37.0210   26.7580   33.7840 C   0  0  0  0  0  0  0  0  0  0  0  0
   37.6810   26.1140   32.7750 C   0  0  0  0  0  0  0  0  0  0  0  0
   38.5540   25.0870   33.1040 C   0  0  0  0  0  0  0  0  0  0  0  0
   39.1970   24.4800   31.9820 N   0  0  0  0  0  0  0  0  0  0  0  0
   40.4240   24.5560   31.2030 C   0  0  0  0  0  0  0  0  0  0  0  0
   39.9980   24.7170   29.7630 C   0  0  0  0  0  0  0  0  0  0  0  0
   38.6280   24.0580   29.7970 C   0  0  0  0  0  0  0  0  0  0  0  0
   38.6610   23.3980   31.1590 C   0  0  0  0  0  0  0  0  0  0  0  0
   37.9340   21.9480   35.2160 C   0  0  0  0  0  0  0  0  0  0  0  0
   36.9270   21.7050   36.1510 C   0  0  0  0  0  0  0  0  0  0  0  0
   35.7590   21.1170   35.6650 C   0  0  0  0  0  0  0  0  0  0  0  0
   35.6480   20.8100   34.3330 N   0  0  0  0  0  0  0  0  0  0  0  0
   36.6500   21.0630   33.4630 C   0  0  0  0  0  0  0  0  0  0  0  0
   37.7830   21.6290   33.9110 N   0  0  0  0  0  0  0  0  0  0  0  0
   40.0324   22.9751   37.4184 H   0  0  0  0  0  0  0  0  0  0  0  0
   39.6242   21.2848   37.2180 H   0  0  0  0  0  0  0  0  0  0  0  0
   42.0461   21.4450   36.7587 H   0  0  0  0  0  0  0  0  0  0  0  0
   41.2873   21.3052   35.1459 H   0  0  0  0  0  0  0  0  0  0  0  0
   40.6378   24.5747   36.3690 H   0  0  0  0  0  0  0  0  0  0  0  0
   41.4292   24.8486   34.7408 H   0  0  0  0  0  0  0  0  0  0  0  0
   39.9995   23.1676   33.7320 H   0  0  0  0  0  0  0  0  0  0  0  0
   38.2570   25.0711   36.4345 H   0  0  0  0  0  0  0  0  0  0  0  0
   36.6955   26.9024   35.8970 H   0  0  0  0  0  0  0  0  0  0  0  0
   36.3238   27.5763   33.5509 H   0  0  0  0  0  0  0  0  0  0  0  0
   37.5235   26.4035   31.7255 H   0  0  0  0  0  0  0  0  0  0  0  0
   41.0255   25.4200   31.5218 H   0  0  0  0  0  0  0  0  0  0  0  0
   41.0430   23.6571   31.3404 H   0  0  0  0  0  0  0  0  0  0  0  0
   40.6817   24.1948   29.0776 H   0  0  0  0  0  0  0  0  0  0  0  0
   39.9952   25.7560   29.4019 H   0  0  0  0  0  0  0  0  0  0  0  0
   37.8200   24.8012   29.7273 H   0  0  0  0  0  0  0  0  0  0  0  0
   38.4350   23.3679   28.9624 H   0  0  0  0  0  0  0  0  0  0  0  0
   37.6543   23.1011   31.4882 H   0  0  0  0  0  0  0  0  0  0  0  0
   39.2463   22.4674   31.1972 H   0  0  0  0  0  0  0  0  0  0  0  0
   37.0476   21.9631   37.2135 H   0  0  0  0  0  0  0  0  0  0  0  0
   34.9267   20.8995   36.3505 H   0  0  0  0  0  0  0  0  0  0  0  0
   36.5393   20.8082   32.3987 H   0  0  0  0  0  0  0  0  0  0  0  0
  1  2  1  0
  3  2  1  0
  4  3  1  0
  5  4  1  0
  6  5  1  0
  6  1  1  0
  7  6  1  0
  7  8  2  0
  9  8  1  0
 10  9  2  0
 11 12  2  0
 11 10  1  0
 12  7  1  0
 13 12  1  0
 14 13  1  0
 15 16  1  0
 15 14  1  0
 16 17  1  0
 17 13  1  0
 18  1  1  0
 18 19  2  0
 20 19  1  0
 21 20  2  0
 22 23  2  0
 22 21  1  0
 23 18  1  0
  2 24  1  0
  2 25  1  0
  3 26  1  0
  3 27  1  0
  5 28  1  0
  5 29  1  0
  6 30  1  6
  8 31  1  0
  9 32  1  0
 10 33  1  0
 11 34  1  0
 14 35  1  0
 14 36  1  0
 15 37  1  0
 15 38  1  0
 16 39  1  0
 16 40  1  0
 17 41  1  0
 17 42  1  0
 19 43  1  0
 20 44  1  0
 22 45  1  0
M  ISO  8  24  13  25  13  26  13  27  13  28  13  29  13  30  13  31  14
M  ISO  8  32  14  33  14  34  14  35  13  36  13  37  13  38  13  39  13
M  ISO  6  40  13  41  13  42  13  43  14  44  14  45  14
M  END
>  <minimizedAffinity>  (1) 
-4.47115755

>  <minimizedRMSD>  (1) 
0.547988951

$$$$
