
     RDKit          3D

 53 57  0  0  1  0  0  0  0  0999 V2000
   42.2300   24.7830   35.0480 C   0  0  1  0  0  0  0  0  0  0  0  0
   43.3580   25.5650   35.4770 C   0  0  0  0  0  0  0  0  0  0  0  0
   44.1110   24.7500   36.5480 C   0  0  0  0  0  0  0  0  0  0  0  0
   44.4070   23.4150   35.9440 C   0  0  0  0  0  0  0  0  0  0  0  0
   43.1910   22.6230   35.5960 C   0  0  0  0  0  0  0  0  0  0  0  0
   41.9790   23.5180   35.8750 C   0  0  2  0  0  0  0  0  0  0  0  0
   40.7350   22.8910   35.4820 N   0  0  0  0  0  0  0  0  0  0  0  0
   40.5450   22.1590   34.3470 C   0  0  0  0  0  0  0  0  0  0  0  0
   39.2540   21.7190   34.2960 N   0  0  0  0  0  0  0  0  0  0  0  0
   38.6250   22.1630   35.3830 C   0  0  0  0  0  0  0  0  0  0  0  0
   37.3640   22.0830   35.9250 C   0  0  0  0  0  0  0  0  0  0  0  0
   37.0470   22.6740   37.0940 N   0  0  0  0  0  0  0  0  0  0  0  0
   37.9560   23.3780   37.7970 C   0  0  0  0  0  0  0  0  0  0  0  0
   39.2000   23.4750   37.2930 N   0  0  0  0  0  0  0  0  0  0  0  0
   39.5310   22.8900   36.1270 C   0  0  0  0  0  0  0  0  0  0  0  0
   36.3630   21.3510   35.2260 N   0  0  0  0  0  0  0  0  0  0  0  0
   40.9410   25.6120   34.9690 C   0  0  0  0  0  0  0  0  0  0  0  0
   41.1000   27.4010   31.7270 C   0  0  0  0  0  0  0  0  0  0  0  0
   40.4870   26.4860   30.8500 C   0  0  0  0  0  0  0  0  0  0  0  0
   40.0510   25.3090   31.4040 C   0  0  0  0  0  0  0  0  0  0  0  0
   40.2200   25.0840   32.7270 N   0  0  0  0  0  0  0  0  0  0  0  0
   40.8040   25.9620   33.5430 C   0  0  0  0  0  0  0  0  0  0  0  0
   41.2550   27.1460   33.0420 N   0  0  0  0  0  0  0  0  0  0  0  0
   40.3950   26.8810   29.5110 N   0  0  0  0  0  0  0  0  0  0  0  0
   39.3040   27.6130   29.1790 C   0  0  0  0  0  0  0  0  0  0  0  0
   39.1840   28.0310   27.8720 C   0  0  0  0  0  0  0  0  0  0  0  0
   40.1800   27.6780   26.9860 C   0  0  0  0  0  0  0  0  0  0  0  0
   40.1100   28.0880   25.6590 N   0  0  0  0  0  0  0  0  0  0  0  0
   41.2370   26.9480   27.3780 N   0  0  0  0  0  0  0  0  0  0  0  0
   41.3610   26.5350   28.6610 C   0  0  0  0  0  0  0  0  0  0  0  0
   42.3620   25.8560   28.9850 O   0  0  0  0  0  0  0  0  0  0  0  0
   42.5117   24.4513   34.0378 H   0  0  0  0  0  0  0  0  0  0  0  0
   44.0217   25.7656   34.6231 H   0  0  0  0  0  0  0  0  0  0  0  0
   43.0251   26.5291   35.8889 H   0  0  0  0  0  0  0  0  0  0  0  0
   45.0474   25.2580   36.8218 H   0  0  0  0  0  0  0  0  0  0  0  0
   43.5076   24.6454   37.4618 H   0  0  0  0  0  0  0  0  0  0  0  0
   44.9915   23.5728   35.0256 H   0  0  0  0  0  0  0  0  0  0  0  0
   44.9566   22.8376   36.7020 H   0  0  0  0  0  0  0  0  0  0  0  0
   43.1411   21.7154   36.2155 H   0  0  0  0  0  0  0  0  0  0  0  0
   43.2142   22.3107   34.5415 H   0  0  0  0  0  0  0  0  0  0  0  0
   41.8758   23.7254   36.9503 H   0  0  0  0  0  0  0  0  0  0  0  0
   41.3148   21.9544   33.5884 H   0  0  0  0  0  0  0  0  0  0  0  0
   37.6901   23.8572   38.7507 H   0  0  0  0  0  0  0  0  0  0  0  0
   35.4119   21.2788   35.6148 H   0  0  0  0  0  0  0  0  0  0  0  0
   36.5898   20.8935   34.3315 H   0  0  0  0  0  0  0  0  0  0  0  0
   40.0781   25.0195   35.3071 H   0  0  0  0  0  0  0  0  0  0  0  0
   40.9806   26.5030   35.6129 H   0  0  0  0  0  0  0  0  0  0  0  0
   41.4654   28.3576   31.3253 H   0  0  0  0  0  0  0  0  0  0  0  0
   39.5650   24.5499   30.7735 H   0  0  0  0  0  0  0  0  0  0  0  0
   38.5394   27.8651   29.9286 H   0  0  0  0  0  0  0  0  0  0  0  0
   38.3200   28.6282   27.5450 H   0  0  0  0  0  0  0  0  0  0  0  0
   39.3091   28.6487   25.3348 H   0  0  0  0  0  0  0  0  0  0  0  0
   40.8590   27.8310   25.0004 H   0  0  0  0  0  0  0  0  0  0  0  0
  1  2  1  0
  1  6  1  0
  2  3  1  0
  4  3  1  0
  5  6  1  0
  5  4  1  0
  7  6  1  0
  7 15  1  0
  8  7  1  0
  9  8  2  0
  9 10  1  0
 10 11  2  0
 10 15  1  0
 11 12  1  0
 12 13  2  0
 14 13  1  0
 15 14  2  0
 16 11  1  0
 17  1  1  0
 18 23  2  0
 19 20  2  0
 19 18  1  0
 20 21  1  0
 21 22  2  0
 22 17  1  0
 23 22  1  0
 24 19  1  0
 25 24  1  0
 26 25  2  0
 27 29  2  0
 27 26  1  0
 28 27  1  0
 29 30  1  0
 30 31  2  0
 30 24  1  0
  1 32  1  6
  2 33  1  0
  2 34  1  0
  3 35  1  0
  3 36  1  0
  4 37  1  0
  4 38  1  0
  5 39  1  0
  5 40  1  0
  6 41  1  1
  8 42  1  0
 13 43  1  0
 16 44  1  0
 16 45  1  0
 17 46  1  0
 17 47  1  0
 18 48  1  0
 20 49  1  0
 25 50  1  0
 26 51  1  0
 28 52  1  0
 28 53  1  0
M  ISO  8  32  13  33  13  34  13  35  13  36  13  37  13  38  13  39  13
M  ISO  8  40  13  41  13  42  14  43  14  46   8  47   8  48  14  49  14
M  ISO  2  50  14  51  14
M  END
>  <minimizedAffinity>  (1) 
-5.15926409

>  <minimizedRMSD>  (1) 
6.10814714

$$$$
