
     RDKit          3D

 41 44  0  0  1  0  0  0  0  0999 V2000
   39.4790   22.5330   35.2840 N   0  0  0  0  0  0  0  0  0  0  0  0
   40.5270   21.9780   36.1240 C   0  0  0  0  0  0  0  0  0  0  0  0
   41.7260   21.9020   35.1540 C   0  0  0  0  0  0  0  0  0  0  0  0
   42.1940   23.1960   34.9700 O   0  0  0  0  0  0  0  0  0  0  0  0
   41.2380   24.1640   35.1400 C   0  0  0  0  0  0  0  0  0  0  0  0
   39.8890   23.7520   34.5710 C   0  0  2  0  0  0  0  0  0  0  0  0
   38.9220   24.8460   34.6430 C   0  0  0  0  0  0  0  0  0  0  0  0
   38.6370   25.4630   35.8630 C   0  0  0  0  0  0  0  0  0  0  0  0
   37.7460   26.5060   36.0140 C   0  0  0  0  0  0  0  0  0  0  0  0
   37.0990   26.9690   34.9000 C   0  0  0  0  0  0  0  0  0  0  0  0
   37.3430   26.4020   33.6890 C   0  0  0  0  0  0  0  0  0  0  0  0
   38.2530   25.3380   33.5440 C   0  0  0  0  0  0  0  0  0  0  0  0
   38.4120   24.8370   32.1890 C   0  0  0  0  0  0  0  0  0  0  0  0
   39.3430   25.3700   31.3340 C   0  0  0  0  0  0  0  0  0  0  0  0
   39.5700   24.9720   30.0360 C   0  0  0  0  0  0  0  0  0  0  0  0
   38.8290   23.9700   29.5240 N   0  0  0  0  0  0  0  0  0  0  0  0
   37.9190   23.4260   30.3140 C   0  0  0  0  0  0  0  0  0  0  0  0
   37.7850   23.8780   31.5260 N   0  0  0  0  0  0  0  0  0  0  0  0
   38.1950   22.0040   35.1140 C   0  0  0  0  0  0  0  0  0  0  0  0
   37.2710   21.8800   36.1510 C   0  0  0  0  0  0  0  0  0  0  0  0
   36.0350   21.3320   35.8200 C   0  0  0  0  0  0  0  0  0  0  0  0
   35.7710   20.9460   34.5380 N   0  0  0  0  0  0  0  0  0  0  0  0
   36.6930   21.0810   33.5600 C   0  0  0  0  0  0  0  0  0  0  0  0
   37.8850   21.6080   33.8690 N   0  0  0  0  0  0  0  0  0  0  0  0
   40.7458   22.6388   36.9757 H   0  0  0  0  0  0  0  0  0  0  0  0
   40.2630   21.0089   36.5724 H   0  0  0  0  0  0  0  0  0  0  0  0
   42.5190   21.2731   35.5850 H   0  0  0  0  0  0  0  0  0  0  0  0
   41.4216   21.4590   34.1943 H   0  0  0  0  0  0  0  0  0  0  0  0
   41.1223   24.3613   36.2160 H   0  0  0  0  0  0  0  0  0  0  0  0
   41.5702   25.0624   34.5992 H   0  0  0  0  0  0  0  0  0  0  0  0
   39.9521   23.5268   33.4961 H   0  0  0  0  0  0  0  0  0  0  0  0
   39.1555   25.0943   36.7603 H   0  0  0  0  0  0  0  0  0  0  0  0
   37.5609   26.9528   37.0020 H   0  0  0  0  0  0  0  0  0  0  0  0
   36.3823   27.7991   34.9848 H   0  0  0  0  0  0  0  0  0  0  0  0
   36.8170   26.7836   32.8015 H   0  0  0  0  0  0  0  0  0  0  0  0
   39.9650   26.1905   31.7211 H   0  0  0  0  0  0  0  0  0  0  0  0
   40.3431   25.4636   29.4272 H   0  0  0  0  0  0  0  0  0  0  0  0
   37.2848   22.6035   29.9516 H   0  0  0  0  0  0  0  0  0  0  0  0
   37.5066   22.1986   37.1771 H   0  0  0  0  0  0  0  0  0  0  0  0
   35.2660   21.2093   36.5969 H   0  0  0  0  0  0  0  0  0  0  0  0
   36.4694   20.7645   32.5305 H   0  0  0  0  0  0  0  0  0  0  0  0
  1  2  1  0
  3  2  1  0
  4  5  1  0
  4  3  1  0
  6  7  1  0
  6  5  1  0
  6  1  1  0
  7  8  2  0
  8  9  1  0
 10  9  2  0
 11 10  1  0
 12 11  2  0
 12  7  1  0
 13 12  1  0
 14 13  2  0
 15 14  1  0
 16 15  2  0
 16 17  1  0
 17 18  2  0
 18 13  1  0
 19  1  1  0
 19 20  2  0
 21 20  1  0
 22 21  2  0
 23 24  2  0
 23 22  1  0
 24 19  1  0
  2 25  1  0
  2 26  1  0
  3 27  1  0
  3 28  1  0
  5 29  1  0
  5 30  1  0
  6 31  1  6
  8 32  1  0
  9 33  1  0
 10 34  1  0
 11 35  1  0
 14 36  1  0
 15 37  1  0
 17 38  1  0
 20 39  1  0
 21 40  1  0
 23 41  1  0
M  ISO  8  25  13  26  13  27  13  28  13  29  13  30  13  31  13  32  14
M  ISO  8  33  14  34  14  35  14  36  14  37  14  38  14  39  14  40  14
M  ISO  1  41  14
M  END
>  <minimizedAffinity>  (1) 
-4.45752478

>  <minimizedRMSD>  (1) 
0.723680556

$$$$
