
     RDKit          3D

 40 43  0  0  1  0  0  0  0  0999 V2000
   39.3100   22.5220   35.3000 N   0  0  0  0  0  0  0  0  0  0  0  0
   40.2860   22.0340   36.2630 C   0  0  0  0  0  0  0  0  0  0  0  0
   41.5690   21.9110   35.4120 C   0  0  0  0  0  0  0  0  0  0  0  0
   42.0380   23.1870   35.1690 O   0  0  0  0  0  0  0  0  0  0  0  0
   41.0680   24.1620   35.1890 C   0  0  0  0  0  0  0  0  0  0  0  0
   39.7740   23.6990   34.5470 C   0  0  2  0  0  0  0  0  0  0  0  0
   38.7960   24.7800   34.4730 C   0  0  0  0  0  0  0  0  0  0  0  0
   38.3650   25.4320   35.6290 C   0  0  0  0  0  0  0  0  0  0  0  0
   37.4530   26.4640   35.6480 C   0  0  0  0  0  0  0  0  0  0  0  0
   36.9310   26.8840   34.4580 C   0  0  0  0  0  0  0  0  0  0  0  0
   37.3100   26.2900   33.3010 C   0  0  0  0  0  0  0  0  0  0  0  0
   38.2270   25.2590   33.3300 C   0  0  0  0  0  0  0  0  0  0  0  0
   38.5620   24.7370   31.9680 C   0  0  0  0  0  0  0  0  0  0  0  0
   39.7340   24.9830   31.2670 C   0  0  0  0  0  0  0  0  0  0  0  0
   39.8680   24.4390   30.0420 C   0  0  0  0  0  0  0  0  0  0  0  0
   38.9320   23.6800   29.4720 C   0  0  0  0  0  0  0  0  0  0  0  0
   37.6900   23.6900   30.7570 S   0  0  0  0  0  0  0  0  0  0  0  0
   38.0480   21.9650   35.0560 C   0  0  0  0  0  0  0  0  0  0  0  0
   37.0920   21.7720   36.0510 C   0  0  0  0  0  0  0  0  0  0  0  0
   35.8860   21.2010   35.6380 C   0  0  0  0  0  0  0  0  0  0  0  0
   35.6870   20.8640   34.3250 N   0  0  0  0  0  0  0  0  0  0  0  0
   36.6420   21.0710   33.3990 C   0  0  0  0  0  0  0  0  0  0  0  0
   37.8060   21.6170   33.7750 N   0  0  0  0  0  0  0  0  0  0  0  0
   40.4232   22.7502   37.0866 H   0  0  0  0  0  0  0  0  0  0  0  0
   39.9898   21.0909   36.7456 H   0  0  0  0  0  0  0  0  0  0  0  0
   42.3270   21.3316   35.9594 H   0  0  0  0  0  0  0  0  0  0  0  0
   41.3542   21.3937   34.4653 H   0  0  0  0  0  0  0  0  0  0  0  0
   40.8654   24.4382   36.2343 H   0  0  0  0  0  0  0  0  0  0  0  0
   41.4417   25.0208   34.6121 H   0  0  0  0  0  0  0  0  0  0  0  0
   39.9308   23.4067   33.4982 H   0  0  0  0  0  0  0  0  0  0  0  0
   38.7821   25.0990   36.5908 H   0  0  0  0  0  0  0  0  0  0  0  0
   37.1535   26.9366   36.5951 H   0  0  0  0  0  0  0  0  0  0  0  0
   36.2010   27.7066   34.4389 H   0  0  0  0  0  0  0  0  0  0  0  0
   36.8888   26.6279   32.3427 H   0  0  0  0  0  0  0  0  0  0  0  0
   40.5315   25.6050   31.6996 H   0  0  0  0  0  0  0  0  0  0  0  0
   40.7964   24.6307   29.4840 H   0  0  0  0  0  0  0  0  0  0  0  0
   38.9258   23.1869   28.4887 H   0  0  0  0  0  0  0  0  0  0  0  0
   37.2759   22.0524   37.0986 H   0  0  0  0  0  0  0  0  0  0  0  0
   35.0886   21.0202   36.3738 H   0  0  0  0  0  0  0  0  0  0  0  0
   36.4689   20.7956   32.3482 H   0  0  0  0  0  0  0  0  0  0  0  0
  1  2  1  0
  3  2  1  0
  4  5  1  0
  4  3  1  0
  6  5  1  0
  6  1  1  0
  7  6  1  0
  7  8  2  0
  8  9  1  0
 10  9  2  0
 11 12  2  0
 11 10  1  0
 12  7  1  0
 13 12  1  0
 14 13  2  0
 15 14  1  0
 16 15  2  0
 16 17  1  0
 17 13  1  0
 18  1  1  0
 18 19  2  0
 20 19  1  0
 21 20  2  0
 22 23  2  0
 22 21  1  0
 23 18  1  0
  2 24  1  0
  2 25  1  0
  3 26  1  0
  3 27  1  0
  5 28  1  0
  5 29  1  0
  6 30  1  6
  8 31  1  0
  9 32  1  0
 10 33  1  0
 11 34  1  0
 14 35  1  0
 15 36  1  0
 16 37  1  0
 19 38  1  0
 20 39  1  0
 22 40  1  0
M  ISO  8  24  13  25  13  26  13  27  13  28  13  29  13  30  13  31  14
M  ISO  8  32  14  33  14  34  14  35  14  36  14  37  14  38  14  39  14
M  ISO  1  40  14
M  END
>  <minimizedAffinity>  (1) 
-4.50048447

>  <minimizedRMSD>  (1) 
0.440569073

$$$$
