
     RDKit          3D

 36 38  0  0  1  0  0  0  0  0999 V2000
   39.1550   22.5310   35.4590 N   0  0  0  0  0  0  0  0  0  0  0  0
   40.0320   22.1440   36.5530 C   0  0  0  0  0  0  0  0  0  0  0  0
   41.3840   21.9470   35.8560 C   0  0  0  0  0  0  0  0  0  0  0  0
   41.8750   23.1940   35.5520 O   0  0  0  0  0  0  0  0  0  0  0  0
   40.9120   24.1460   35.3540 C   0  0  0  0  0  0  0  0  0  0  0  0
   39.6850   23.6200   34.6380 C   0  0  2  0  0  0  0  0  0  0  0  0
   38.7130   24.7100   34.3900 C   0  0  0  0  0  0  0  0  0  0  0  0
   38.1930   25.4740   35.4370 C   0  0  0  0  0  0  0  0  0  0  0  0
   37.2870   26.5000   35.2460 C   0  0  0  0  0  0  0  0  0  0  0  0
   36.8740   26.7840   33.9730 C   0  0  0  0  0  0  0  0  0  0  0  0
   37.3680   26.0480   32.9080 C   0  0  0  0  0  0  0  0  0  0  0  0
   38.3020   24.9960   33.0970 C   0  0  0  0  0  0  0  0  0  0  0  0
   38.7870   24.3780   31.8440 C   0  0  0  0  0  0  0  0  0  0  0  0
   39.4290   25.3500   31.0410 F   0  0  0  0  0  0  0  0  0  0  0  0
   39.4180   23.2020   31.8920 F   0  0  0  0  0  0  0  0  0  0  0  0
   37.6590   24.0950   31.0070 F   0  0  0  0  0  0  0  0  0  0  0  0
   37.9200   21.9460   35.1760 C   0  0  0  0  0  0  0  0  0  0  0  0
   36.9200   21.6980   36.1080 C   0  0  0  0  0  0  0  0  0  0  0  0
   35.7470   21.1110   35.6490 C   0  0  0  0  0  0  0  0  0  0  0  0
   35.6090   20.7990   34.3200 N   0  0  0  0  0  0  0  0  0  0  0  0
   36.5960   21.0530   33.4430 C   0  0  0  0  0  0  0  0  0  0  0  0
   37.7000   21.6130   33.9240 N   0  0  0  0  0  0  0  0  0  0  0  0
   40.0905   22.9373   37.3128 H   0  0  0  0  0  0  0  0  0  0  0  0
   39.6863   21.2488   37.0907 H   0  0  0  0  0  0  0  0  0  0  0  0
   42.0800   21.4221   36.5269 H   0  0  0  0  0  0  0  0  0  0  0  0
   41.2666   21.3428   34.9443 H   0  0  0  0  0  0  0  0  0  0  0  0
   40.6026   24.5382   36.3340 H   0  0  0  0  0  0  0  0  0  0  0  0
   41.3522   24.9254   34.7147 H   0  0  0  0  0  0  0  0  0  0  0  0
   39.9255   23.2291   33.6383 H   0  0  0  0  0  0  0  0  0  0  0  0
   38.5202   25.2484   36.4627 H   0  0  0  0  0  0  0  0  0  0  0  0
   36.9053   27.0772   36.1011 H   0  0  0  0  0  0  0  0  0  0  0  0
   36.1517   27.5944   33.7954 H   0  0  0  0  0  0  0  0  0  0  0  0
   37.0274   26.2852   31.8893 H   0  0  0  0  0  0  0  0  0  0  0  0
   37.0517   21.9565   37.1691 H   0  0  0  0  0  0  0  0  0  0  0  0
   34.9284   20.8963   36.3517 H   0  0  0  0  0  0  0  0  0  0  0  0
   36.4937   20.8081   32.3755 H   0  0  0  0  0  0  0  0  0  0  0  0
  1  2  1  0
  3  2  1  0
  4  3  1  0
  5  4  1  0
  6  5  1  0
  6  1  1  0
  7  6  1  0
  7  8  2  0
  9  8  1  0
 10  9  2  0
 11 12  2  0
 11 10  1  0
 12  7  1  0
 13 15  1  0
 13 12  1  0
 14 13  1  0
 16 13  1  0
 17  1  1  0
 17 18  2  0
 19 18  1  0
 20 19  2  0
 21 22  2  0
 21 20  1  0
 22 17  1  0
  2 23  1  0
  2 24  1  0
  3 25  1  0
  3 26  1  0
  5 27  1  0
  5 28  1  0
  6 29  1  6
  8 30  1  0
  9 31  1  0
 10 32  1  0
 11 33  1  0
 18 34  1  0
 19 35  1  0
 21 36  1  0
M  ISO  8  23  13  24  13  25  13  26  13  27  13  28  13  29  13  30  14
M  ISO  6  31  14  32  14  33  14  34  14  35  14  36  14
M  END
>  <minimizedAffinity>  (1) 
-4.3658824

>  <minimizedRMSD>  (1) 
0.0722491592

$$$$
