
     RDKit          3D

 40 43  0  0  1  0  0  0  0  0999 V2000
   39.2400   22.5500   35.3140 N   0  0  0  0  0  0  0  0  0  0  0  0
   40.1430   22.1280   36.3740 C   0  0  0  0  0  0  0  0  0  0  0  0
   41.4880   21.9890   35.6380 C   0  0  0  0  0  0  0  0  0  0  0  0
   41.9550   23.2520   35.3560 O   0  0  0  0  0  0  0  0  0  0  0  0
   40.9690   24.1900   35.2050 C   0  0  0  0  0  0  0  0  0  0  0  0
   39.7290   23.6730   34.5220 C   0  0  2  0  0  0  0  0  0  0  0  0
   38.7400   24.7560   34.3460 C   0  0  0  0  0  0  0  0  0  0  0  0
   38.2120   25.4450   35.4240 C   0  0  0  0  0  0  0  0  0  0  0  0
   37.2900   26.4650   35.2880 C   0  0  0  0  0  0  0  0  0  0  0  0
   36.8720   26.8170   34.0110 C   0  0  0  0  0  0  0  0  0  0  0  0
   37.3700   26.1590   32.9050 C   0  0  0  0  0  0  0  0  0  0  0  0
   38.2970   25.1380   33.0880 C   0  0  0  0  0  0  0  0  0  0  0  0
   38.7700   24.5070   31.9010 N   0  0  0  0  0  0  0  0  0  0  0  0
   39.9450   24.3280   31.3230 N   0  0  0  0  0  0  0  0  0  0  0  0
   39.8450   23.6470   30.1870 C   0  0  0  0  0  0  0  0  0  0  0  0
   38.5260   23.3520   29.9920 C   0  0  0  0  0  0  0  0  0  0  0  0
   37.8690   23.9000   31.0760 C   0  0  0  0  0  0  0  0  0  0  0  0
   38.0010   21.9610   35.0370 C   0  0  0  0  0  0  0  0  0  0  0  0
   37.0040   21.7290   35.9870 C   0  0  0  0  0  0  0  0  0  0  0  0
   35.8320   21.1350   35.5520 C   0  0  0  0  0  0  0  0  0  0  0  0
   35.6860   20.8010   34.2320 N   0  0  0  0  0  0  0  0  0  0  0  0
   36.6660   21.0380   33.3400 C   0  0  0  0  0  0  0  0  0  0  0  0
   37.7990   21.6130   33.7670 N   0  0  0  0  0  0  0  0  0  0  0  0
   40.2025   22.8856   37.1693 H   0  0  0  0  0  0  0  0  0  0  0  0
   39.8234   21.2035   36.8772 H   0  0  0  0  0  0  0  0  0  0  0  0
   42.2095   21.4591   36.2773 H   0  0  0  0  0  0  0  0  0  0  0  0
   41.3556   21.4160   34.7084 H   0  0  0  0  0  0  0  0  0  0  0  0
   40.6864   24.5581   36.2023 H   0  0  0  0  0  0  0  0  0  0  0  0
   41.3796   24.9819   34.5613 H   0  0  0  0  0  0  0  0  0  0  0  0
   39.9405   23.3171   33.5029 H   0  0  0  0  0  0  0  0  0  0  0  0
   38.5417   25.1676   36.4361 H   0  0  0  0  0  0  0  0  0  0  0  0
   36.8954   26.9871   36.1721 H   0  0  0  0  0  0  0  0  0  0  0  0
   36.1385   27.6263   33.8804 H   0  0  0  0  0  0  0  0  0  0  0  0
   37.0389   26.4377   31.8937 H   0  0  0  0  0  0  0  0  0  0  0  0
   40.6763   23.3701   29.5220 H   0  0  0  0  0  0  0  0  0  0  0  0
   38.0823   22.7972   29.1521 H   0  0  0  0  0  0  0  0  0  0  0  0
   36.7835   23.8540   31.2481 H   0  0  0  0  0  0  0  0  0  0  0  0
   37.1449   22.0079   37.0417 H   0  0  0  0  0  0  0  0  0  0  0  0
   35.0195   20.9316   36.2651 H   0  0  0  0  0  0  0  0  0  0  0  0
   36.5395   20.7652   32.2819 H   0  0  0  0  0  0  0  0  0  0  0  0
  1  2  1  0
  3  2  1  0
  4  3  1  0
  5  4  1  0
  6  5  1  0
  6  1  1  0
  7  6  1  0
  7  8  2  0
  9  8  1  0
 10  9  2  0
 11 12  2  0
 11 10  1  0
 12  7  1  0
 13 12  1  0
 14 13  1  0
 15 14  2  0
 16 15  1  0
 16 17  2  0
 17 13  1  0
 18  1  1  0
 18 19  2  0
 20 19  1  0
 21 20  2  0
 22 23  2  0
 22 21  1  0
 23 18  1  0
  2 24  1  0
  2 25  1  0
  3 26  1  0
  3 27  1  0
  5 28  1  0
  5 29  1  0
  6 30  1  6
  8 31  1  0
  9 32  1  0
 10 33  1  0
 11 34  1  0
 15 35  1  0
 16 36  1  0
 17 37  1  0
 19 38  1  0
 20 39  1  0
 22 40  1  0
M  ISO  8  24  13  25  13  26  13  27  13  28  13  29  13  30  13  31  14
M  ISO  8  32  14  33  14  34  14  35  14  36  14  37  14  38  14  39  14
M  ISO  1  40  14
M  END
>  <minimizedAffinity>  (1) 
-4.44106293

>  <minimizedRMSD>  (1) 
0.259745896

$$$$
