
     RDKit          3D

 45 47  0  0  1  0  0  0  0  0999 V2000
   39.1430   22.5260   35.4590 N   0  0  0  0  0  0  0  0  0  0  0  0
   40.0410   22.1330   36.5350 C   0  0  0  0  0  0  0  0  0  0  0  0
   41.3840   21.9400   35.8070 C   0  0  0  0  0  0  0  0  0  0  0  0
   41.8740   23.1810   35.4730 O   0  0  0  0  0  0  0  0  0  0  0  0
   40.9040   24.1420   35.3480 C   0  0  0  0  0  0  0  0  0  0  0  0
   39.6660   23.6250   34.6180 C   0  0  2  0  0  0  0  0  0  0  0  0
   38.7280   24.6910   34.3650 C   0  0  0  0  0  0  0  0  0  0  0  0
   38.2070   25.4400   35.4210 C   0  0  0  0  0  0  0  0  0  0  0  0
   37.2910   26.4600   35.2580 C   0  0  0  0  0  0  0  0  0  0  0  0
   36.8670   26.7570   34.0080 C   0  0  0  0  0  0  0  0  0  0  0  0
   37.3440   26.0620   32.9480 C   0  0  0  0  0  0  0  0  0  0  0  0
   38.2930   25.0040   33.0660 C   0  0  0  0  0  0  0  0  0  0  0  0
   38.7860   24.4300   31.8710 C   0  0  0  0  0  0  0  0  0  0  0  0
   37.6740   24.6480   30.7940 C   0  0  0  0  0  0  0  0  0  0  0  0
   39.8490   25.4600   31.3590 C   0  0  0  0  0  0  0  0  0  0  0  0
   39.3170   23.1960   31.4740 C   0  0  0  0  0  0  0  0  0  0  0  0
   37.9110   21.9450   35.1950 C   0  0  0  0  0  0  0  0  0  0  0  0
   36.9240   21.7060   36.1400 C   0  0  0  0  0  0  0  0  0  0  0  0
   35.7480   21.1160   35.6910 C   0  0  0  0  0  0  0  0  0  0  0  0
   35.5970   20.7970   34.3670 N   0  0  0  0  0  0  0  0  0  0  0  0
   36.5740   21.0420   33.4790 C   0  0  0  0  0  0  0  0  0  0  0  0
   37.6830   21.6060   33.9460 N   0  0  0  0  0  0  0  0  0  0  0  0
   40.1140   22.9220   37.2980 H   0  0  0  0  0  0  0  0  0  0  0  0
   39.7060   21.2351   37.0750 H   0  0  0  0  0  0  0  0  0  0  0  0
   42.0955   21.4245   36.4687 H   0  0  0  0  0  0  0  0  0  0  0  0
   41.2415   21.3315   34.9018 H   0  0  0  0  0  0  0  0  0  0  0  0
   40.6076   24.4781   36.3526 H   0  0  0  0  0  0  0  0  0  0  0  0
   41.3235   24.9682   34.7552 H   0  0  0  0  0  0  0  0  0  0  0  0
   39.8892   23.2386   33.6126 H   0  0  0  0  0  0  0  0  0  0  0  0
   38.5453   25.2044   36.4408 H   0  0  0  0  0  0  0  0  0  0  0  0
   36.9137   27.0197   36.1265 H   0  0  0  0  0  0  0  0  0  0  0  0
   36.1348   27.5630   33.8526 H   0  0  0  0  0  0  0  0  0  0  0  0
   36.9807   26.3273   31.9442 H   0  0  0  0  0  0  0  0  0  0  0  0
   36.7121   24.8366   31.2931 H   0  0  0  0  0  0  0  0  0  0  0  0
   37.9365   25.5118   30.1655 H   0  0  0  0  0  0  0  0  0  0  0  0
   37.5910   23.7490   30.1655 H   0  0  0  0  0  0  0  0  0  0  0  0
   40.3413   25.9371   32.2192 H   0  0  0  0  0  0  0  0  0  0  0  0
   40.6011   24.9382   30.7491 H   0  0  0  0  0  0  0  0  0  0  0  0
   39.3511   26.2282   30.7491 H   0  0  0  0  0  0  0  0  0  0  0  0
   39.5722   22.6030   32.3647 H   0  0  0  0  0  0  0  0  0  0  0  0
   38.5729   22.6530   30.8728 H   0  0  0  0  0  0  0  0  0  0  0  0
   40.2229   23.3630   30.8728 H   0  0  0  0  0  0  0  0  0  0  0  0
   37.0656   21.9716   37.1980 H   0  0  0  0  0  0  0  0  0  0  0  0
   34.9354   20.9044   36.4015 H   0  0  0  0  0  0  0  0  0  0  0  0
   36.4616   20.7877   32.4147 H   0  0  0  0  0  0  0  0  0  0  0  0
  1  2  1  0
  3  2  1  0
  4  3  1  0
  5  4  1  0
  6  5  1  0
  6  1  1  0
  7  6  1  0
  7  8  2  0
  9  8  1  0
 10  9  2  0
 11 12  2  0
 11 10  1  0
 12  7  1  0
 13 12  1  0
 14 13  1  0
 15 13  1  0
 16 13  1  0
 17  1  1  0
 17 18  2  0
 19 18  1  0
 20 19  2  0
 21 22  2  0
 21 20  1  0
 22 17  1  0
  2 23  1  0
  2 24  1  0
  3 25  1  0
  3 26  1  0
  5 27  1  0
  5 28  1  0
  6 29  1  6
  8 30  1  0
  9 31  1  0
 10 32  1  0
 11 33  1  0
 14 34  1  0
 14 35  1  0
 14 36  1  0
 15 37  1  0
 15 38  1  0
 15 39  1  0
 16 40  1  0
 16 41  1  0
 16 42  1  0
 18 43  1  0
 19 44  1  0
 21 45  1  0
M  ISO  8  23  13  24  13  25  13  26  13  27  13  28  13  29  13  30  14
M  ISO  8  31  14  32  14  33  14  34   8  35   8  36   8  37   8  38   8
M  ISO  7  39   8  40   8  41   8  42   8  43  14  44  14  45  14
M  END
>  <minimizedAffinity>  (1) 
-4.40521288

>  <minimizedRMSD>  (1) 
0.117070138

$$$$
