
     RDKit          3D

 39 42  0  0  1  0  0  0  0  0999 V2000
   39.3870   22.5680   35.0410 N   0  0  0  0  0  0  0  0  0  0  0  0
   40.4680   22.0750   35.8800 C   0  0  0  0  0  0  0  0  0  0  0  0
   41.6430   21.9750   34.8820 C   0  0  0  0  0  0  0  0  0  0  0  0
   42.0770   23.2540   34.6160 O   0  0  0  0  0  0  0  0  0  0  0  0
   41.1000   24.2080   34.7110 C   0  0  0  0  0  0  0  0  0  0  0  0
   39.7440   23.7480   34.2580 C   0  0  2  0  0  0  0  0  0  0  0  0
   38.7530   24.8320   34.3110 C   0  0  0  0  0  0  0  0  0  0  0  0
   38.4550   25.4670   35.5110 C   0  0  0  0  0  0  0  0  0  0  0  0
   37.5410   26.5020   35.5980 C   0  0  0  0  0  0  0  0  0  0  0  0
   36.8950   26.9260   34.4490 C   0  0  0  0  0  0  0  0  0  0  0  0
   37.1600   26.3230   33.2300 C   0  0  0  0  0  0  0  0  0  0  0  0
   38.0900   25.2810   33.1790 C   0  0  0  0  0  0  0  0  0  0  0  0
   38.3240   24.7020   31.9010 N   0  0  0  0  0  0  0  0  0  0  0  0
   37.7100   23.8130   31.0980 C   0  0  0  0  0  0  0  0  0  0  0  0
   38.4270   23.6530   29.9710 N   0  0  0  0  0  0  0  0  0  0  0  0
   39.5060   24.4480   30.0580 C   0  0  0  0  0  0  0  0  0  0  0  0
   39.4190   25.0760   31.2430 N   0  0  0  0  0  0  0  0  0  0  0  0
   38.1060   22.0040   34.9460 C   0  0  0  0  0  0  0  0  0  0  0  0
   37.2350   21.8530   36.0260 C   0  0  0  0  0  0  0  0  0  0  0  0
   36.0000   21.2740   35.7760 C   0  0  0  0  0  0  0  0  0  0  0  0
   35.6820   20.8780   34.5050 N   0  0  0  0  0  0  0  0  0  0  0  0
   36.5460   21.0380   33.4860 C   0  0  0  0  0  0  0  0  0  0  0  0
   37.7430   21.5980   33.7230 N   0  0  0  0  0  0  0  0  0  0  0  0
   40.6949   22.7810   36.6925 H   0  0  0  0  0  0  0  0  0  0  0  0
   40.2359   21.1244   36.3825 H   0  0  0  0  0  0  0  0  0  0  0  0
   42.4605   21.3864   35.3238 H   0  0  0  0  0  0  0  0  0  0  0  0
   41.3200   21.4776   33.9556 H   0  0  0  0  0  0  0  0  0  0  0  0
   41.0245   24.5208   35.7629 H   0  0  0  0  0  0  0  0  0  0  0  0
   41.3947   25.0299   34.0419 H   0  0  0  0  0  0  0  0  0  0  0  0
   39.7633   23.4613   33.1962 H   0  0  0  0  0  0  0  0  0  0  0  0
   38.9655   25.1338   36.4267 H   0  0  0  0  0  0  0  0  0  0  0  0
   37.3306   26.9810   36.5656 H   0  0  0  0  0  0  0  0  0  0  0  0
   36.1659   27.7478   34.5044 H   0  0  0  0  0  0  0  0  0  0  0  0
   36.6466   26.6590   32.3170 H   0  0  0  0  0  0  0  0  0  0  0  0
   36.7665   23.2965   31.3281 H   0  0  0  0  0  0  0  0  0  0  0  0
   40.3027   24.5624   29.3082 H   0  0  0  0  0  0  0  0  0  0  0  0
   37.5175   22.1809   37.0373 H   0  0  0  0  0  0  0  0  0  0  0  0
   35.2794   21.1336   36.5952 H   0  0  0  0  0  0  0  0  0  0  0  0
   36.2748   20.7137   32.4705 H   0  0  0  0  0  0  0  0  0  0  0  0
  1  2  1  0
  3  2  1  0
  4  5  1  0
  4  3  1  0
  6  7  1  0
  6  5  1  0
  6  1  1  0
  7  8  2  0
  8  9  1  0
 10  9  2  0
 11 10  1  0
 12 11  2  0
 12  7  1  0
 13 12  1  0
 14 13  1  0
 15 16  1  0
 15 14  2  0
 16 17  2  0
 17 13  1  0
 18  1  1  0
 18 19  2  0
 20 19  1  0
 21 20  2  0
 22 23  2  0
 22 21  1  0
 23 18  1  0
  2 24  1  0
  2 25  1  0
  3 26  1  0
  3 27  1  0
  5 28  1  0
  5 29  1  0
  6 30  1  6
  8 31  1  0
  9 32  1  0
 10 33  1  0
 11 34  1  0
 14 35  1  0
 16 36  1  0
 19 37  1  0
 20 38  1  0
 22 39  1  0
M  ISO  8  24  13  25  13  26  13  27  13  28  13  29  13  30  13  31  14
M  ISO  8  32  14  33  14  34  14  35  14  36  14  37  14  38  14  39  14
M  END
>  <minimizedAffinity>  (1) 
-4.39513588

>  <minimizedRMSD>  (1) 
0.889339864

$$$$
