
     RDKit          3D

 42 44  0  0  1  0  0  0  0  0999 V2000
   39.1940   22.5120   35.3910 N   0  0  0  0  0  0  0  0  0  0  0  0
   40.0960   22.0960   36.4540 C   0  0  0  0  0  0  0  0  0  0  0  0
   41.4370   21.9250   35.7110 C   0  0  0  0  0  0  0  0  0  0  0  0
   41.9170   23.1830   35.4070 O   0  0  0  0  0  0  0  0  0  0  0  0
   40.9440   24.1330   35.2660 C   0  0  0  0  0  0  0  0  0  0  0  0
   39.6990   23.6290   34.5840 C   0  0  2  0  0  0  0  0  0  0  0  0
   38.7210   24.7160   34.3960 C   0  0  0  0  0  0  0  0  0  0  0  0
   38.2670   25.4630   35.4530 C   0  0  0  0  0  0  0  0  0  0  0  0
   37.3620   26.4980   35.3150 C   0  0  0  0  0  0  0  0  0  0  0  0
   36.8900   26.7920   34.0410 C   0  0  0  0  0  0  0  0  0  0  0  0
   37.3100   26.0780   32.9580 C   0  0  0  0  0  0  0  0  0  0  0  0
   38.2360   25.0260   33.1180 C   0  0  0  0  0  0  0  0  0  0  0  0
   38.6540   24.3340   31.9070 C   0  0  0  0  0  0  0  0  0  0  0  0
   39.5310   25.3400   31.1350 C   0  0  0  0  0  0  0  0  0  0  0  0
   37.4470   24.0860   31.0260 C   0  0  0  0  0  0  0  0  0  0  0  0
   37.9510   21.9320   35.1120 C   0  0  0  0  0  0  0  0  0  0  0  0
   36.9580   21.7100   36.0660 C   0  0  0  0  0  0  0  0  0  0  0  0
   35.7780   21.1250   35.6290 C   0  0  0  0  0  0  0  0  0  0  0  0
   35.6260   20.7920   34.3100 N   0  0  0  0  0  0  0  0  0  0  0  0
   36.6040   21.0210   33.4150 C   0  0  0  0  0  0  0  0  0  0  0  0
   37.7380   21.5850   33.8470 N   0  0  0  0  0  0  0  0  0  0  0  0
   40.1706   22.8665   37.2355 H   0  0  0  0  0  0  0  0  0  0  0  0
   39.7662   21.1856   36.9759 H   0  0  0  0  0  0  0  0  0  0  0  0
   42.1558   21.3960   36.3541 H   0  0  0  0  0  0  0  0  0  0  0  0
   41.2938   21.3372   34.7923 H   0  0  0  0  0  0  0  0  0  0  0  0
   40.6682   24.4985   36.2662 H   0  0  0  0  0  0  0  0  0  0  0  0
   41.3603   24.9270   34.6286 H   0  0  0  0  0  0  0  0  0  0  0  0
   39.9094   23.2676   33.5666 H   0  0  0  0  0  0  0  0  0  0  0  0
   38.6417   25.2266   36.4598 H   0  0  0  0  0  0  0  0  0  0  0  0
   37.0243   27.0736   36.1894 H   0  0  0  0  0  0  0  0  0  0  0  0
   36.1685   27.6111   33.9048 H   0  0  0  0  0  0  0  0  0  0  0  0
   36.9257   26.3230   31.9568 H   0  0  0  0  0  0  0  0  0  0  0  0
   39.1593   23.3883   32.1529 H   0  0  0  0  0  0  0  0  0  0  0  0
   40.0808   25.9707   31.8491 H   0  0  0  0  0  0  0  0  0  0  0  0
   40.2460   24.7933   30.5025 H   0  0  0  0  0  0  0  0  0  0  0  0
   38.8919   25.9737   30.5025 H   0  0  0  0  0  0  0  0  0  0  0  0
   36.5640   23.9046   31.6564 H   0  0  0  0  0  0  0  0  0  0  0  0
   37.2695   24.9664   30.3909 H   0  0  0  0  0  0  0  0  0  0  0  0
   37.6310   23.2069   30.3909 H   0  0  0  0  0  0  0  0  0  0  0  0
   37.1041   21.9870   37.1205 H   0  0  0  0  0  0  0  0  0  0  0  0
   34.9644   20.9288   36.3428 H   0  0  0  0  0  0  0  0  0  0  0  0
   36.4749   20.7518   32.3563 H   0  0  0  0  0  0  0  0  0  0  0  0
  1  2  1  0
  3  2  1  0
  4  3  1  0
  5  4  1  0
  6  5  1  0
  6  1  1  0
  7  6  1  0
  7  8  2  0
  9  8  1  0
 10  9  2  0
 11 12  2  0
 11 10  1  0
 12  7  1  0
 13 12  1  0
 14 13  1  0
 15 13  1  0
 16  1  1  0
 16 17  2  0
 18 17  1  0
 19 18  2  0
 20 21  2  0
 20 19  1  0
 21 16  1  0
  2 22  1  0
  2 23  1  0
  3 24  1  0
  3 25  1  0
  5 26  1  0
  5 27  1  0
  6 28  1  6
  8 29  1  0
  9 30  1  0
 10 31  1  0
 11 32  1  0
 13 33  1  0
 14 34  1  0
 14 35  1  0
 14 36  1  0
 15 37  1  0
 15 38  1  0
 15 39  1  0
 17 40  1  0
 18 41  1  0
 20 42  1  0
M  ISO  8  22  13  23  13  24  13  25  13  26  13  27  13  28  13  29  14
M  ISO  8  30  14  31  14  32  14  33   8  34   8  35   8  36   8  37   8
M  ISO  5  38   8  39   8  40  14  41  14  42  14
M  END
>  <minimizedAffinity>  (1) 
-4.33320951

>  <minimizedRMSD>  (1) 
0.126424506

$$$$
