
     RDKit          3D

 34 36  0  0  1  0  0  0  0  0999 V2000
   39.1720   22.5290   35.4700 N   0  0  0  0  0  0  0  0  0  0  0  0
   40.0390   22.1340   36.5670 C   0  0  0  0  0  0  0  0  0  0  0  0
   41.4000   21.9480   35.8710 C   0  0  0  0  0  0  0  0  0  0  0  0
   41.8920   23.2000   35.5610 O   0  0  0  0  0  0  0  0  0  0  0  0
   40.9330   24.1430   35.3470 C   0  0  0  0  0  0  0  0  0  0  0  0
   39.7000   23.6250   34.6620 C   0  0  2  0  0  0  0  0  0  0  0  0
   38.7320   24.7080   34.4100 C   0  0  0  0  0  0  0  0  0  0  0  0
   38.1790   25.4400   35.4510 C   0  0  0  0  0  0  0  0  0  0  0  0
   37.2810   26.4680   35.2380 C   0  0  0  0  0  0  0  0  0  0  0  0
   36.9150   26.7830   33.9370 C   0  0  0  0  0  0  0  0  0  0  0  0
   37.4400   26.0810   32.8650 C   0  0  0  0  0  0  0  0  0  0  0  0
   38.3490   25.0440   33.1130 C   0  0  0  0  0  0  0  0  0  0  0  0
   38.9820   24.2020   31.7020 S   0  0  0  0  0  0  0  0  0  0  0  0
   37.9340   21.9450   35.1620 C   0  0  0  0  0  0  0  0  0  0  0  0
   36.9250   21.7000   36.0950 C   0  0  0  0  0  0  0  0  0  0  0  0
   35.7560   21.1150   35.6410 C   0  0  0  0  0  0  0  0  0  0  0  0
   35.6280   20.8020   34.3190 N   0  0  0  0  0  0  0  0  0  0  0  0
   36.6170   21.0500   33.4390 C   0  0  0  0  0  0  0  0  0  0  0  0
   37.7480   21.6160   33.8870 N   0  0  0  0  0  0  0  0  0  0  0  0
   40.0902   22.9197   37.3351 H   0  0  0  0  0  0  0  0  0  0  0  0
   39.6921   21.2341   37.0960 H   0  0  0  0  0  0  0  0  0  0  0  0
   42.0969   21.4289   36.5454 H   0  0  0  0  0  0  0  0  0  0  0  0
   41.2847   21.3446   34.9585 H   0  0  0  0  0  0  0  0  0  0  0  0
   40.6368   24.5606   36.3206 H   0  0  0  0  0  0  0  0  0  0  0  0
   41.3741   24.8951   34.6764 H   0  0  0  0  0  0  0  0  0  0  0  0
   39.9358   23.2326   33.6618 H   0  0  0  0  0  0  0  0  0  0  0  0
   38.4661   25.1927   36.4837 H   0  0  0  0  0  0  0  0  0  0  0  0
   36.8624   27.0284   36.0869 H   0  0  0  0  0  0  0  0  0  0  0  0
   36.2002   27.5991   33.7553 H   0  0  0  0  0  0  0  0  0  0  0  0
   37.1480   26.3335   31.8350 H   0  0  0  0  0  0  0  0  0  0  0  0
   39.7681   23.1563   32.1088 H   0  0  0  0  0  0  0  0  0  0  0  0
   37.0548   21.9630   37.1552 H   0  0  0  0  0  0  0  0  0  0  0  0
   34.9348   20.9035   36.3416 H   0  0  0  0  0  0  0  0  0  0  0  0
   36.5000   20.7940   32.3756 H   0  0  0  0  0  0  0  0  0  0  0  0
  1  2  1  0
  3  2  1  0
  4  3  1  0
  5  4  1  0
  6  5  1  0
  6  1  1  0
  7  6  1  0
  7  8  2  0
  9  8  1  0
 10  9  2  0
 11 12  2  0
 11 10  1  0
 12  7  1  0
 13 12  1  0
 14  1  1  0
 14 15  2  0
 16 15  1  0
 17 16  2  0
 18 19  2  0
 18 17  1  0
 19 14  1  0
  2 20  1  0
  2 21  1  0
  3 22  1  0
  3 23  1  0
  5 24  1  0
  5 25  1  0
  6 26  1  6
  8 27  1  0
  9 28  1  0
 10 29  1  0
 11 30  1  0
 13 31  1  0
 15 32  1  0
 16 33  1  0
 18 34  1  0
M  ISO  8  20  13  21  13  22  13  23  13  24  13  25  13  26  13  27  14
M  ISO  7  28  14  29  14  30  14  31  11  32  14  33  14  34  14
M  END
>  <minimizedAffinity>  (1) 
-4.20221138

>  <minimizedRMSD>  (1) 
0.0917392746

$$$$
