
     RDKit          3D

 36 38  0  0  1  0  0  0  0  0999 V2000
   39.1620   22.5280   35.4710 N   0  0  0  0  0  0  0  0  0  0  0  0
   40.0260   22.1370   36.5750 C   0  0  0  0  0  0  0  0  0  0  0  0
   41.3900   21.9420   35.8780 C   0  0  0  0  0  0  0  0  0  0  0  0
   41.8830   23.1930   35.5680 O   0  0  0  0  0  0  0  0  0  0  0  0
   40.9210   24.1450   35.3710 C   0  0  0  0  0  0  0  0  0  0  0  0
   39.6970   23.6290   34.6620 C   0  0  2  0  0  0  0  0  0  0  0  0
   38.7230   24.7080   34.4120 C   0  0  0  0  0  0  0  0  0  0  0  0
   38.1950   25.4450   35.4480 C   0  0  0  0  0  0  0  0  0  0  0  0
   37.2980   26.4770   35.2480 C   0  0  0  0  0  0  0  0  0  0  0  0
   36.9110   26.7860   33.9510 C   0  0  0  0  0  0  0  0  0  0  0  0
   37.4110   26.0810   32.9000 C   0  0  0  0  0  0  0  0  0  0  0  0
   38.3260   25.0290   33.1160 C   0  0  0  0  0  0  0  0  0  0  0  0
   38.7950   24.3520   31.9360 C   0  0  0  0  0  0  0  0  0  0  0  0
   37.9290   21.9410   35.1520 C   0  0  0  0  0  0  0  0  0  0  0  0
   36.9170   21.7000   36.0790 C   0  0  0  0  0  0  0  0  0  0  0  0
   35.7500   21.1120   35.6110 C   0  0  0  0  0  0  0  0  0  0  0  0
   35.6340   20.7940   34.2890 N   0  0  0  0  0  0  0  0  0  0  0  0
   36.6320   21.0380   33.4160 C   0  0  0  0  0  0  0  0  0  0  0  0
   37.7560   21.6060   33.8710 N   0  0  0  0  0  0  0  0  0  0  0  0
   40.0787   22.9276   37.3380 H   0  0  0  0  0  0  0  0  0  0  0  0
   39.6754   21.2428   37.1112 H   0  0  0  0  0  0  0  0  0  0  0  0
   42.0852   21.4216   36.5532 H   0  0  0  0  0  0  0  0  0  0  0  0
   41.2752   21.3356   34.9675 H   0  0  0  0  0  0  0  0  0  0  0  0
   40.6148   24.5378   36.3518 H   0  0  0  0  0  0  0  0  0  0  0  0
   41.3625   24.9208   34.7282 H   0  0  0  0  0  0  0  0  0  0  0  0
   39.9461   23.2486   33.6604 H   0  0  0  0  0  0  0  0  0  0  0  0
   38.4995   25.2025   36.4768 H   0  0  0  0  0  0  0  0  0  0  0  0
   36.8976   27.0437   36.1015 H   0  0  0  0  0  0  0  0  0  0  0  0
   36.1974   27.6039   33.7723 H   0  0  0  0  0  0  0  0  0  0  0  0
   37.0998   26.3329   31.8754 H   0  0  0  0  0  0  0  0  0  0  0  0
   39.3988   23.4804   32.2289 H   0  0  0  0  0  0  0  0  0  0  0  0
   37.9341   24.0176   31.3385 H   0  0  0  0  0  0  0  0  0  0  0  0
   39.4107   25.0405   31.3385 H   0  0  0  0  0  0  0  0  0  0  0  0
   37.0381   21.9652   37.1397 H   0  0  0  0  0  0  0  0  0  0  0  0
   34.9213   20.9030   36.3035 H   0  0  0  0  0  0  0  0  0  0  0  0
   36.5252   20.7761   32.3530 H   0  0  0  0  0  0  0  0  0  0  0  0
  1  2  1  0
  3  2  1  0
  4  3  1  0
  5  4  1  0
  6  5  1  0
  6  1  1  0
  7  6  1  0
  7  8  2  0
  9  8  1  0
 10  9  2  0
 11 12  2  0
 11 10  1  0
 12  7  1  0
 13 12  1  0
 14  1  1  0
 14 15  2  0
 16 15  1  0
 17 16  2  0
 18 19  2  0
 18 17  1  0
 19 14  1  0
  2 20  1  0
  2 21  1  0
  3 22  1  0
  3 23  1  0
  5 24  1  0
  5 25  1  0
  6 26  1  6
  8 27  1  0
  9 28  1  0
 10 29  1  0
 11 30  1  0
 13 31  1  0
 13 32  1  0
 13 33  1  0
 15 34  1  0
 16 35  1  0
 18 36  1  0
M  ISO  8  20  13  21  13  22  13  23  13  24  13  25  13  26  13  27  14
M  ISO  8  28  14  29  14  30  14  31   8  32   8  33   8  34  14  35  14
M  ISO  1  36  14
M  END
>  <minimizedAffinity>  (1) 
-4.21792793

>  <minimizedRMSD>  (1) 
0.0734194964

$$$$
