
     RDKit          3D

 37 38  0  0  0  0  0  0  0  0999 V2000
   38.4080   23.1470   36.2600 C   0  0  0  0  0  0  0  0  0  0  0  0
   39.8590   22.8760   36.4430 C   0  0  0  0  0  0  0  0  0  0  0  0
   40.6920   23.7720   35.7320 C   0  0  0  0  0  0  0  0  0  0  0  0
   42.0840   23.5710   35.8460 C   0  0  0  0  0  0  0  0  0  0  0  0
   42.5260   22.5410   36.6260 N   0  0  0  0  0  0  0  0  0  0  0  0
   41.6790   21.7000   37.2970 C   0  0  0  0  0  0  0  0  0  0  0  0
   40.3520   21.8780   37.1980 N   0  0  0  0  0  0  0  0  0  0  0  0
   38.1730   24.3810   35.4120 C   0  0  0  0  0  0  0  0  0  0  0  0
   37.7340   23.4350   37.5930 C   0  0  0  0  0  0  0  0  0  0  0  0
   37.7280   21.9910   35.6400 C   0  0  0  0  0  0  0  0  0  0  0  0
   37.4220   22.0990   34.2330 N   0  0  0  0  0  0  0  0  0  0  0  0
   36.2800   21.1630   34.0640 C   0  0  0  0  0  0  0  0  0  0  0  0
   35.5930   21.3920   32.7590 C   0  0  0  0  0  0  0  0  0  0  0  0
   36.6940   21.4170   31.6930 C   0  0  0  0  0  0  0  0  0  0  0  0
   37.8460   20.6460   32.2710 C   0  0  0  0  0  0  0  0  0  0  0  0
   38.4600   21.4710   33.3970 C   0  0  0  0  0  0  0  0  0  0  0  0
   40.2748   24.5855   35.1203 H   0  0  0  0  0  0  0  0  0  0  0  0
   42.7941   24.2265   35.3206 H   0  0  0  0  0  0  0  0  0  0  0  0
   42.0834   20.8836   37.9134 H   0  0  0  0  0  0  0  0  0  0  0  0
   38.0076   25.2496   36.0664 H   0  0  0  0  0  0  0  0  0  0  0  0
   39.0527   24.5626   34.7771 H   0  0  0  0  0  0  0  0  0  0  0  0
   37.2881   24.2265   34.7771 H   0  0  0  0  0  0  0  0  0  0  0  0
   38.4072   23.1473   38.4140 H   0  0  0  0  0  0  0  0  0  0  0  0
   37.5066   24.5089   37.6645 H   0  0  0  0  0  0  0  0  0  0  0  0
   36.8008   22.8571   37.6645 H   0  0  0  0  0  0  0  0  0  0  0  0
   38.3753   21.1118   35.7742 H   0  0  0  0  0  0  0  0  0  0  0  0
   36.7528   21.9235   36.1444 H   0  0  0  0  0  0  0  0  0  0  0  0
   36.6537   20.1290   34.0978 H   0  0  0  0  0  0  0  0  0  0  0  0
   35.5591   21.3375   34.8763 H   0  0  0  0  0  0  0  0  0  0  0  0
   34.8827   20.5774   32.5542 H   0  0  0  0  0  0  0  0  0  0  0  0
   35.0221   22.3322   32.7668 H   0  0  0  0  0  0  0  0  0  0  0  0
   36.9960   22.4529   31.4794 H   0  0  0  0  0  0  0  0  0  0  0  0
   36.3486   20.9766   30.7460 H   0  0  0  0  0  0  0  0  0  0  0  0
   37.4880   19.6844   32.6675 H   0  0  0  0  0  0  0  0  0  0  0  0
   38.5981   20.4496   31.4927 H   0  0  0  0  0  0  0  0  0  0  0  0
   39.0769   20.8132   34.0269 H   0  0  0  0  0  0  0  0  0  0  0  0
   39.0709   22.2680   32.9479 H   0  0  0  0  0  0  0  0  0  0  0  0
  1  2  1  0
  1  9  1  0
  2  7  2  0
  3  4  2  0
  3  2  1  0
  4  5  1  0
  5  6  2  0
  7  6  1  0
  8  1  1  0
 10  1  1  0
 11 10  1  0
 12 11  1  0
 13 12  1  0
 14 15  1  0
 14 13  1  0
 15 16  1  0
 16 11  1  0
  3 17  1  0
  4 18  1  0
  6 19  1  0
  8 20  1  0
  8 21  1  0
  8 22  1  0
  9 23  1  0
  9 24  1  0
  9 25  1  0
 10 26  1  0
 10 27  1  0
 12 28  1  0
 12 29  1  0
 13 30  1  0
 13 31  1  0
 14 32  1  0
 14 33  1  0
 15 34  1  0
 15 35  1  0
 16 36  1  0
 16 37  1  0
M  ISO  8  17  14  18  14  19  14  20   8  21   8  22   8  23   8  24   8
M  ISO  8  25   8  26   8  27   8  28  13  29  13  30  13  31  13  32  13
M  ISO  5  33  13  34  13  35  13  36  13  37  13
M  END
>  <minimizedAffinity>  (1) 
-3.92813158

>  <minimizedRMSD>  (1) 
1.47496486

$$$$
