
     RDKit          3D

 32 33  0  0  0  0  0  0  0  0999 V2000
   38.2720   23.5790   36.9650 C   0  0  0  0  0  0  0  0  0  0  0  0
   39.6930   23.1280   36.8330 C   0  0  0  0  0  0  0  0  0  0  0  0
   40.4340   23.8590   35.8870 C   0  0  0  0  0  0  0  0  0  0  0  0
   41.7770   23.5080   35.6920 C   0  0  0  0  0  0  0  0  0  0  0  0
   42.2850   22.4800   36.4310 N   0  0  0  0  0  0  0  0  0  0  0  0
   41.5330   21.7960   37.3390 C   0  0  0  0  0  0  0  0  0  0  0  0
   40.2470   22.1320   37.5260 N   0  0  0  0  0  0  0  0  0  0  0  0
   37.8890   24.5220   35.8640 C   0  0  0  0  0  0  0  0  0  0  0  0
   38.0750   24.3380   38.2650 C   0  0  0  0  0  0  0  0  0  0  0  0
   37.3910   22.3690   36.9880 C   0  0  0  0  0  0  0  0  0  0  0  0
   37.0980   21.8270   35.6440 C   0  0  0  0  0  0  0  0  0  0  0  0
   35.9350   21.0950   35.4870 C   0  0  0  0  0  0  0  0  0  0  0  0
   35.5410   20.5340   34.2870 C   0  0  0  0  0  0  0  0  0  0  0  0
   36.3770   20.7290   33.2010 C   0  0  0  0  0  0  0  0  0  0  0  0
   37.5640   21.4580   33.2960 C   0  0  0  0  0  0  0  0  0  0  0  0
   37.8880   21.9870   34.5230 C   0  0  0  0  0  0  0  0  0  0  0  0
   39.9740   24.6804   35.3180 H   0  0  0  0  0  0  0  0  0  0  0  0
   42.4028   24.0457   34.9645 H   0  0  0  0  0  0  0  0  0  0  0  0
   41.9781   20.9721   37.9161 H   0  0  0  0  0  0  0  0  0  0  0  0
   37.5088   25.4582   36.2988 H   0  0  0  0  0  0  0  0  0  0  0  0
   38.7708   24.7378   35.2428 H   0  0  0  0  0  0  0  0  0  0  0  0
   37.1065   24.0619   35.2428 H   0  0  0  0  0  0  0  0  0  0  0  0
   38.2505   23.6617   39.1146 H   0  0  0  0  0  0  0  0  0  0  0  0
   38.7852   25.1767   38.3111 H   0  0  0  0  0  0  0  0  0  0  0  0
   37.0465   24.7255   38.3111 H   0  0  0  0  0  0  0  0  0  0  0  0
   37.8901   21.5861   37.5779 H   0  0  0  0  0  0  0  0  0  0  0  0
   36.4313   22.6760   37.4293 H   0  0  0  0  0  0  0  0  0  0  0  0
   35.2884   20.9515   36.3652 H   0  0  0  0  0  0  0  0  0  0  0  0
   34.6070   19.9596   34.1990 H   0  0  0  0  0  0  0  0  0  0  0  0
   36.0966   20.2948   32.2300 H   0  0  0  0  0  0  0  0  0  0  0  0
   38.2156   21.6037   32.4218 H   0  0  0  0  0  0  0  0  0  0  0  0
   38.8197   22.5644   34.6159 H   0  0  0  0  0  0  0  0  0  0  0  0
  1 10  1  0
  1  9  1  0
  2  1  1  0
  2  7  1  0
  3  2  2  0
  4  3  1  0
  4  5  2  0
  5  6  1  0
  6  7  2  0
  8  1  1  0
 11 10  1  0
 12 11  2  0
 13 12  1  0
 14 15  1  0
 14 13  2  0
 15 16  2  0
 16 11  1  0
  3 17  1  0
  4 18  1  0
  6 19  1  0
  8 20  1  0
  8 21  1  0
  8 22  1  0
  9 23  1  0
  9 24  1  0
  9 25  1  0
 10 26  1  0
 10 27  1  0
 12 28  1  0
 13 29  1  0
 14 30  1  0
 15 31  1  0
 16 32  1  0
M  ISO  8  17  14  18  14  19  14  20   8  21   8  22   8  23   8  24   8
M  ISO  8  25   8  26   8  27   8  28  14  29  14  30  14  31  14  32  14
M  END
>  <minimizedAffinity>  (1) 
-4.21201372

>  <minimizedRMSD>  (1) 
0.641178966

$$$$
