
     RDKit          3D

 47 50  0  0  1  0  0  0  0  0999 V2000
   39.9740   22.9710   35.2020 C   0  0  0  0  0  0  0  0  0  0  0  0
   39.4940   24.3890   34.8700 C   0  0  1  0  0  0  0  0  0  0  0  0
   39.6880   24.7060   33.4680 C   0  0  0  0  0  0  0  0  0  0  0  0
   38.3910   25.3560   32.9480 C   0  0  0  0  0  0  0  0  0  0  0  0
   38.0760   26.4980   33.8720 C   0  0  0  0  0  0  0  0  0  0  0  0
   37.8040   26.0870   35.2800 C   0  0  0  0  0  0  0  0  0  0  0  0
   38.0560   24.5800   35.3630 C   0  0  2  0  0  0  0  0  0  0  0  0
   37.8980   24.0770   36.7430 C   0  0  0  0  0  0  0  0  0  0  0  0
   38.2780   24.8110   37.8690 C   0  0  0  0  0  0  0  0  0  0  0  0
   37.9910   24.0450   39.0040 C   0  0  0  0  0  0  0  0  0  0  0  0
   37.4580   22.9050   38.5070 N   0  0  0  0  0  0  0  0  0  0  0  0
   37.3990   22.9120   37.1850 N   0  0  0  0  0  0  0  0  0  0  0  0
   37.6720   21.1600   32.9370 C   0  0  0  0  0  0  0  0  0  0  0  0
   38.5530   20.4890   32.0850 C   0  0  0  0  0  0  0  0  0  0  0  0
   39.8950   20.6810   32.3170 C   0  0  0  0  0  0  0  0  0  0  0  0
   40.2790   21.4870   33.3330 N   0  0  0  0  0  0  0  0  0  0  0  0
   39.4300   22.1160   34.1310 C   0  0  0  0  0  0  0  0  0  0  0  0
   38.0910   21.9560   33.9390 N   0  0  0  0  0  0  0  0  0  0  0  0
   37.9790   19.6950   31.0850 N   0  0  0  0  0  0  0  0  0  0  0  0
   37.3610   18.5620   31.5130 C   0  0  0  0  0  0  0  0  0  0  0  0
   36.7760   17.7560   30.5530 C   0  0  0  0  0  0  0  0  0  0  0  0
   36.8560   18.1470   29.2410 C   0  0  0  0  0  0  0  0  0  0  0  0
   36.2720   17.3570   28.2510 N   0  0  0  0  0  0  0  0  0  0  0  0
   37.4850   19.2830   28.8820 N   0  0  0  0  0  0  0  0  0  0  0  0
   38.0600   20.0810   29.8120 C   0  0  0  0  0  0  0  0  0  0  0  0
   38.6310   21.1220   29.4420 O   0  0  0  0  0  0  0  0  0  0  0  0
   41.0731   22.9279   35.2087 H   0  0  0  0  0  0  0  0  0  0  0  0
   39.6369   22.6462   36.1974 H   0  0  0  0  0  0  0  0  0  0  0  0
   40.1131   25.1211   35.4092 H   0  0  0  0  0  0  0  0  0  0  0  0
   40.5287   25.4064   33.3556 H   0  0  0  0  0  0  0  0  0  0  0  0
   39.9170   23.7946   32.8962 H   0  0  0  0  0  0  0  0  0  0  0  0
   38.5384   25.7278   31.9233 H   0  0  0  0  0  0  0  0  0  0  0  0
   37.5666   24.6280   32.9255 H   0  0  0  0  0  0  0  0  0  0  0  0
   38.9331   27.1875   33.8732 H   0  0  0  0  0  0  0  0  0  0  0  0
   37.1543   26.9652   33.4950 H   0  0  0  0  0  0  0  0  0  0  0  0
   38.4777   26.6210   35.9662 H   0  0  0  0  0  0  0  0  0  0  0  0
   36.7697   26.3283   35.5665 H   0  0  0  0  0  0  0  0  0  0  0  0
   37.3319   24.0157   34.7570 H   0  0  0  0  0  0  0  0  0  0  0  0
   38.7250   25.8161   37.8642 H   0  0  0  0  0  0  0  0  0  0  0  0
   38.1599   24.3090   40.0584 H   0  0  0  0  0  0  0  0  0  0  0  0
   37.1349   22.1207   39.0913 H   0  0  0  0  0  0  0  0  0  0  0  0
   36.5904   21.0326   32.7827 H   0  0  0  0  0  0  0  0  0  0  0  0
   40.6462   20.1855   31.6845 H   0  0  0  0  0  0  0  0  0  0  0  0
   37.3276   18.2969   32.5801 H   0  0  0  0  0  0  0  0  0  0  0  0
   36.2603   16.8261   30.8345 H   0  0  0  0  0  0  0  0  0  0  0  0
   36.3279   17.6441   27.2634 H   0  0  0  0  0  0  0  0  0  0  0  0
   35.7848   16.4865   28.5075 H   0  0  0  0  0  0  0  0  0  0  0  0
  2  1  1  0
  2  7  1  0
  3  2  1  0
  4  3  1  0
  4  5  1  0
  5  6  1  0
  6  7  1  0
  7  8  1  0
  8 12  2  0
  8  9  1  0
  9 10  2  0
 11 10  1  0
 12 11  1  0
 13 18  2  0
 14 15  2  0
 14 13  1  0
 15 16  1  0
 16 17  2  0
 17  1  1  0
 18 17  1  0
 19 20  1  0
 19 14  1  0
 21 20  2  0
 22 21  1  0
 23 22  1  0
 24 22  2  0
 24 25  1  0
 25 19  1  0
 26 25  2  0
  1 27  1  0
  1 28  1  0
  2 29  1  1
  3 30  1  0
  3 31  1  0
  4 32  1  0
  4 33  1  0
  5 34  1  0
  5 35  1  0
  6 36  1  0
  6 37  1  0
  7 38  1  6
  9 39  1  0
 10 40  1  0
 11 41  1  0
 13 42  1  0
 15 43  1  0
 20 44  1  0
 21 45  1  0
 23 46  1  0
 23 47  1  0
M  ISO  8  27   8  28   8  29  13  30  13  31  13  32  13  33  13  34  13
M  ISO  8  35  13  36  13  37  13  38  13  39  14  40  14  41   9  42  14
M  ISO  3  43  14  44  14  45  14
M  END
>  <minimizedAffinity>  (1) 
-4.92014074

>  <minimizedRMSD>  (1) 
1.40677369

$$$$
