
     RDKit          3D

 29 30  0  0  0  0  0  0  0  0999 V2000
   38.1640   23.6200   37.0260 C   0  0  0  0  0  0  0  0  0  0  0  0
   39.4420   22.9150   36.7220 C   0  0  0  0  0  0  0  0  0  0  0  0
   39.7980   22.9820   35.3470 C   0  0  0  0  0  0  0  0  0  0  0  0
   40.9870   22.3510   34.9380 C   0  0  0  0  0  0  0  0  0  0  0  0
   41.7250   21.7140   35.9020 N   0  0  0  0  0  0  0  0  0  0  0  0
   41.3460   21.6780   37.1980 C   0  0  0  0  0  0  0  0  0  0  0  0
   40.2190   22.2710   37.6030 N   0  0  0  0  0  0  0  0  0  0  0  0
   38.2520   25.0930   36.7980 C   0  0  0  0  0  0  0  0  0  0  0  0
   37.7900   23.4000   38.4900 C   0  0  0  0  0  0  0  0  0  0  0  0
   37.0810   23.0300   36.1760 C   0  0  0  0  0  0  0  0  0  0  0  0
   36.8210   21.5800   36.4530 C   0  0  0  0  0  0  0  0  0  0  0  0
   35.3630   21.2760   36.7990 C   0  0  0  0  0  0  0  0  0  0  0  0
   35.9830   20.7400   35.5490 C   0  0  0  0  0  0  0  0  0  0  0  0
   39.1615   23.5124   34.6234 H   0  0  0  0  0  0  0  0  0  0  0  0
   41.3115   22.3680   33.8871 H   0  0  0  0  0  0  0  0  0  0  0  0
   41.9749   21.1523   37.9316 H   0  0  0  0  0  0  0  0  0  0  0  0
   38.2831   25.6128   37.7669 H   0  0  0  0  0  0  0  0  0  0  0  0
   39.1654   25.3221   36.2295 H   0  0  0  0  0  0  0  0  0  0  0  0
   37.3723   25.4292   36.2295 H   0  0  0  0  0  0  0  0  0  0  0  0
   38.5572   23.8513   39.1363 H   0  0  0  0  0  0  0  0  0  0  0  0
   36.8163   23.8692   38.6942 H   0  0  0  0  0  0  0  0  0  0  0  0
   37.7270   22.3210   38.6942 H   0  0  0  0  0  0  0  0  0  0  0  0
   37.3717   23.1353   35.1203 H   0  0  0  0  0  0  0  0  0  0  0  0
   36.1545   23.5738   36.4121 H   0  0  0  0  0  0  0  0  0  0  0  0
   37.8250   21.4263   36.8754 H   0  0  0  0  0  0  0  0  0  0  0  0
   35.1225   20.5979   37.6311 H   0  0  0  0  0  0  0  0  0  0  0  0
   34.4727   21.8771   37.0360 H   0  0  0  0  0  0  0  0  0  0  0  0
   35.6697   21.1357   34.5716 H   0  0  0  0  0  0  0  0  0  0  0  0
   36.0911   19.7351   35.1147 H   0  0  0  0  0  0  0  0  0  0  0  0
  1  9  1  0
  2  1  1  0
  2  7  1  0
  3  2  2  0
  4  3  1  0
  4  5  2  0
  5  6  1  0
  6  7  2  0
  8  1  1  0
 10 11  1  0
 10  1  1  0
 11 12  1  0
 13 11  1  0
 13 12  1  0
  3 14  1  0
  4 15  1  0
  6 16  1  0
  8 17  1  0
  8 18  1  0
  8 19  1  0
  9 20  1  0
  9 21  1  0
  9 22  1  0
 10 23  1  0
 10 24  1  0
 11 25  1  0
 12 26  1  0
 12 27  1  0
 13 28  1  0
 13 29  1  0
M  ISO  8  14  14  15  14  16  14  17   8  18   8  19   8  20   8  21   8
M  ISO  8  22   8  23   8  24   8  25  13  26  13  27  13  28  13  29  13
M  END
>  <minimizedAffinity>  (1) 
-3.23170233

>  <minimizedRMSD>  (1) 
0.966636002

$$$$
