
     RDKit          3D

 47 51  0  0  0  0  0  0  0  0999 V2000
   37.5180   21.7240   34.9510 C   0  0  0  0  0  0  0  0  0  0  0  0
   36.5820   21.0290   35.7540 C   0  0  0  0  0  0  0  0  0  0  0  0
   35.5190   20.6000   35.0340 N   0  0  0  0  0  0  0  0  0  0  0  0
   35.6890   20.9730   33.7580 C   0  0  0  0  0  0  0  0  0  0  0  0
   34.9770   20.8370   32.6060 C   0  0  0  0  0  0  0  0  0  0  0  0
   35.3730   21.3250   31.3650 C   0  0  0  0  0  0  0  0  0  0  0  0
   36.6020   21.9840   31.3880 C   0  0  0  0  0  0  0  0  0  0  0  0
   37.3410   22.1330   32.5430 C   0  0  0  0  0  0  0  0  0  0  0  0
   36.9060   21.6480   33.7350 C   0  0  0  0  0  0  0  0  0  0  0  0
   38.5510   22.6880   32.1010 N   0  0  0  0  0  0  0  0  0  0  0  0
   39.7590   22.1310   31.9030 C   0  0  0  0  0  0  0  0  0  0  0  0
   40.6860   23.0450   31.5800 N   0  0  0  0  0  0  0  0  0  0  0  0
   40.1250   24.2520   31.5500 C   0  0  0  0  0  0  0  0  0  0  0  0
   40.5970   25.5160   31.2850 C   0  0  0  0  0  0  0  0  0  0  0  0
   39.7850   26.5680   31.3330 N   0  0  0  0  0  0  0  0  0  0  0  0
   38.4750   26.3570   31.6510 C   0  0  0  0  0  0  0  0  0  0  0  0
   38.0070   25.1230   31.9110 N   0  0  0  0  0  0  0  0  0  0  0  0
   38.8100   24.0180   31.8710 C   0  0  0  0  0  0  0  0  0  0  0  0
   38.7250   22.3380   35.4740 C   0  0  0  0  0  0  0  0  0  0  0  0
   38.5470   23.3850   36.5340 C   0  0  0  0  0  0  0  0  0  0  0  0
   39.0200   24.6990   35.9750 C   0  0  0  0  0  0  0  0  0  0  0  0
   38.1940   25.7810   36.2380 C   0  0  0  0  0  0  0  0  0  0  0  0
   38.5370   27.0470   35.7580 C   0  0  0  0  0  0  0  0  0  0  0  0
   39.6880   27.1410   35.0430 N   0  0  0  0  0  0  0  0  0  0  0  0
   40.4680   26.0780   34.8040 C   0  0  0  0  0  0  0  0  0  0  0  0
   40.1410   24.8730   35.2610 N   0  0  0  0  0  0  0  0  0  0  0  0
   37.1870   23.4820   37.0810 C   0  0  0  0  0  0  0  0  0  0  0  0
   39.4520   22.9970   37.7320 C   0  0  0  0  0  0  0  0  0  0  0  0
   36.7039   20.8580   36.8338 H   0  0  0  0  0  0  0  0  0  0  0  0
   34.7142   20.0748   35.4047 H   0  0  0  0  0  0  0  0  0  0  0  0
   34.0176   20.3017   32.6603 H   0  0  0  0  0  0  0  0  0  0  0  0
   34.7731   21.2026   30.4512 H   0  0  0  0  0  0  0  0  0  0  0  0
   36.9968   22.4006   30.4496 H   0  0  0  0  0  0  0  0  0  0  0  0
   39.9626   21.0539   31.9950 H   0  0  0  0  0  0  0  0  0  0  0  0
   41.6576   25.6585   31.0306 H   0  0  0  0  0  0  0  0  0  0  0  0
   37.7871   27.2142   31.6957 H   0  0  0  0  0  0  0  0  0  0  0  0
   39.3485   21.5374   35.8985 H   0  0  0  0  0  0  0  0  0  0  0  0
   39.1723   22.8668   34.6195 H   0  0  0  0  0  0  0  0  0  0  0  0
   37.2723   25.6430   36.8223 H   0  0  0  0  0  0  0  0  0  0  0  0
   37.9048   27.9265   35.9500 H   0  0  0  0  0  0  0  0  0  0  0  0
   41.3924   26.2041   34.2212 H   0  0  0  0  0  0  0  0  0  0  0  0
   37.2327   23.4787   38.1800 H   0  0  0  0  0  0  0  0  0  0  0  0
   36.7189   24.4158   36.7363 H   0  0  0  0  0  0  0  0  0  0  0  0
   36.5911   22.6241   36.7363 H   0  0  0  0  0  0  0  0  0  0  0  0
   38.9296   23.2210   38.6738 H   0  0  0  0  0  0  0  0  0  0  0  0
   39.6803   21.9219   37.6860 H   0  0  0  0  0  0  0  0  0  0  0  0
   40.3881   23.5729   37.6860 H   0  0  0  0  0  0  0  0  0  0  0  0
  1 19  1  0
  1  2  2  0
  3  2  1  0
  4  3  1  0
  5  4  2  0
  6  7  2  0
  6  5  1  0
  7  8  1  0
  8  9  2  0
  9  4  1  0
  9  1  1  0
 10  8  1  0
 11 10  1  0
 12 11  2  0
 13 12  1  0
 13 18  2  0
 14 15  2  0
 14 13  1  0
 15 16  1  0
 16 17  2  0
 18 17  1  0
 18 10  1  0
 19 20  1  0
 20 27  1  0
 20 28  1  0
 21 22  2  0
 21 20  1  0
 23 22  1  0
 24 23  2  0
 25 24  1  0
 25 26  2  0
 26 21  1  0
  2 29  1  0
  3 30  1  0
  5 31  1  0
  6 32  1  0
  7 33  1  0
 11 34  1  0
 14 35  1  0
 16 36  1  0
 19 37  1  0
 19 38  1  0
 22 39  1  0
 23 40  1  0
 25 41  1  0
 27 42  1  0
 27 43  1  0
 27 44  1  0
 28 45  1  0
 28 46  1  0
 28 47  1  0
M  ISO  8  29  14  30   9  31  14  32  14  33  14  34  14  35  14  36  14
M  ISO  8  37   8  38   8  39  14  40  14  41  14  42   8  43   8  44   8
M  ISO  3  45   8  46   8  47   8
M  END
>  <minimizedAffinity>  (1) 
-5.92678738

>  <minimizedRMSD>  (1) 
0.548676372

$$$$
