
     RDKit          3D

 49 52  0  0  0  0  0  0  0  0999 V2000
   38.7050   22.4120   35.1780 C   0  0  0  0  0  0  0  0  0  0  0  0
   37.4830   21.7270   34.7940 C   0  0  0  0  0  0  0  0  0  0  0  0
   36.6100   21.1020   35.7200 C   0  0  0  0  0  0  0  0  0  0  0  0
   35.5340   20.5790   35.1140 N   0  0  0  0  0  0  0  0  0  0  0  0
   35.6230   20.8140   33.7930 C   0  0  0  0  0  0  0  0  0  0  0  0
   34.8610   20.5290   32.7000 C   0  0  0  0  0  0  0  0  0  0  0  0
   35.1960   20.8860   31.3970 C   0  0  0  0  0  0  0  0  0  0  0  0
   36.3970   21.5730   31.2760 C   0  0  0  0  0  0  0  0  0  0  0  0
   37.1790   21.8710   32.3680 C   0  0  0  0  0  0  0  0  0  0  0  0
   36.8030   21.5020   33.6270 C   0  0  0  0  0  0  0  0  0  0  0  0
   38.3190   22.4810   31.8090 N   0  0  0  0  0  0  0  0  0  0  0  0
   39.7300   22.1230   31.7470 C   0  0  0  0  0  0  0  0  0  0  0  0
   39.9960   21.7780   30.2820 C   0  0  0  0  0  0  0  0  0  0  0  0
   39.2630   22.6130   29.4340 O   0  0  0  0  0  0  0  0  0  0  0  0
   39.1180   23.8810   30.0620 C   0  0  0  0  0  0  0  0  0  0  0  0
   38.0090   23.7140   31.0430 C   0  0  0  0  0  0  0  0  0  0  0  0
   38.6100   23.3640   36.3310 C   0  0  0  0  0  0  0  0  0  0  0  0
   39.0250   24.7270   35.8560 C   0  0  0  0  0  0  0  0  0  0  0  0
   38.2070   25.7670   36.2480 C   0  0  0  0  0  0  0  0  0  0  0  0
   38.5280   27.0670   35.8440 C   0  0  0  0  0  0  0  0  0  0  0  0
   39.6500   27.2310   35.0750 N   0  0  0  0  0  0  0  0  0  0  0  0
   40.4270   26.1930   34.7120 C   0  0  0  0  0  0  0  0  0  0  0  0
   40.0900   24.9890   35.1110 N   0  0  0  0  0  0  0  0  0  0  0  0
   37.2940   23.3990   36.9930 C   0  0  0  0  0  0  0  0  0  0  0  0
   39.6060   22.8800   37.4200 C   0  0  0  0  0  0  0  0  0  0  0  0
   39.0567   22.9807   34.3045 H   0  0  0  0  0  0  0  0  0  0  0  0
   39.3874   21.6178   35.5149 H   0  0  0  0  0  0  0  0  0  0  0  0
   36.7930   21.0522   36.8035 H   0  0  0  0  0  0  0  0  0  0  0  0
   34.7654   20.0792   35.5835 H   0  0  0  0  0  0  0  0  0  0  0  0
   33.9201   19.9813   32.8575 H   0  0  0  0  0  0  0  0  0  0  0  0
   34.5605   20.6435   30.5325 H   0  0  0  0  0  0  0  0  0  0  0  0
   36.7330   21.8883   30.2772 H   0  0  0  0  0  0  0  0  0  0  0  0
   40.3564   22.9702   32.0630 H   0  0  0  0  0  0  0  0  0  0  0  0
   39.9691   21.2828   32.4155 H   0  0  0  0  0  0  0  0  0  0  0  0
   41.0685   21.9021   30.0714 H   0  0  0  0  0  0  0  0  0  0  0  0
   39.6884   20.7370   30.1037 H   0  0  0  0  0  0  0  0  0  0  0  0
   40.0479   24.1636   30.5772 H   0  0  0  0  0  0  0  0  0  0  0  0
   38.9019   24.6756   29.3327 H   0  0  0  0  0  0  0  0  0  0  0  0
   37.9627   24.5813   31.7181 H   0  0  0  0  0  0  0  0  0  0  0  0
   37.0343   23.6393   30.5387 H   0  0  0  0  0  0  0  0  0  0  0  0
   37.3180   25.5769   36.8674 H   0  0  0  0  0  0  0  0  0  0  0  0
   37.9033   27.9252   36.1327 H   0  0  0  0  0  0  0  0  0  0  0  0
   41.3239   26.3506   34.0950 H   0  0  0  0  0  0  0  0  0  0  0  0
   37.4323   23.3953   38.0843 H   0  0  0  0  0  0  0  0  0  0  0  0
   36.7575   24.3117   36.6945 H   0  0  0  0  0  0  0  0  0  0  0  0
   36.7098   22.5161   36.6945 H   0  0  0  0  0  0  0  0  0  0  0  0
   39.1871   23.0836   38.4165 H   0  0  0  0  0  0  0  0  0  0  0  0
   39.7756   21.7990   37.3074 H   0  0  0  0  0  0  0  0  0  0  0  0
   40.5607   23.4146   37.3074 H   0  0  0  0  0  0  0  0  0  0  0  0
  1 17  1  0
  2  1  1  0
  2  3  2  0
  4  3  1  0
  5  4  1  0
  6  5  2  0
  7  6  1  0
  8  7  2  0
  8  9  1  0
  9 10  2  0
 10  5  1  0
 10  2  1  0
 11  9  1  0
 12 11  1  0
 13 12  1  0
 14 15  1  0
 14 13  1  0
 15 16  1  0
 16 11  1  0
 17 24  1  0
 17 25  1  0
 18 19  2  0
 18 17  1  0
 20 19  1  0
 21 20  2  0
 22 21  1  0
 22 23  2  0
 23 18  1  0
  1 26  1  0
  1 27  1  0
  3 28  1  0
  4 29  1  0
  6 30  1  0
  7 31  1  0
  8 32  1  0
 12 33  1  0
 12 34  1  0
 13 35  1  0
 13 36  1  0
 15 37  1  0
 15 38  1  0
 16 39  1  0
 16 40  1  0
 19 41  1  0
 20 42  1  0
 22 43  1  0
 24 44  1  0
 24 45  1  0
 24 46  1  0
 25 47  1  0
 25 48  1  0
 25 49  1  0
M  ISO  8  26   8  27   8  28  14  29   9  30  14  31  14  32  14  33  13
M  ISO  8  34  13  35  13  36  13  37  13  38  13  39  13  40  13  41  14
M  ISO  8  42  14  43  14  44   8  45   8  46   8  47   8  48   8  49   8
M  END
>  <minimizedAffinity>  (1) 
-5.64900112

>  <minimizedRMSD>  (1) 
1.11767113

$$$$
