
     RDKit          3D

 49 52  0  0  0  0  0  0  0  0999 V2000
   38.7730   22.3190   35.3510 C   0  0  0  0  0  0  0  0  0  0  0  0
   37.5520   21.7040   34.8890 C   0  0  0  0  0  0  0  0  0  0  0  0
   36.6020   21.0690   35.7310 C   0  0  0  0  0  0  0  0  0  0  0  0
   35.5250   20.6380   35.0520 N   0  0  0  0  0  0  0  0  0  0  0  0
   35.7010   20.9550   33.7550 C   0  0  0  0  0  0  0  0  0  0  0  0
   34.9400   20.7800   32.6230 C   0  0  0  0  0  0  0  0  0  0  0  0
   35.3460   21.2140   31.3630 C   0  0  0  0  0  0  0  0  0  0  0  0
   36.5880   21.8400   31.3380 C   0  0  0  0  0  0  0  0  0  0  0  0
   37.3290   22.0090   32.4500 C   0  0  0  0  0  0  0  0  0  0  0  0
   36.9190   21.5870   33.6810 C   0  0  0  0  0  0  0  0  0  0  0  0
   38.6570   22.5820   32.1120 C   0  0  0  0  0  0  0  0  0  0  0  0
   38.7720   24.0830   32.3760 C   0  0  0  0  0  0  0  0  0  0  0  0
   38.1690   24.8670   31.3000 C   0  0  0  0  0  0  0  0  0  0  0  0
   37.9920   23.8610   30.1840 C   0  0  0  0  0  0  0  0  0  0  0  0
   38.8870   22.6850   30.6320 C   0  0  0  0  0  0  0  0  0  0  0  0
   38.6380   23.3650   36.4340 C   0  0  0  0  0  0  0  0  0  0  0  0
   39.1990   24.6420   35.8970 C   0  0  0  0  0  0  0  0  0  0  0  0
   38.3750   25.7630   36.0280 C   0  0  0  0  0  0  0  0  0  0  0  0
   38.8000   27.0010   35.5380 C   0  0  0  0  0  0  0  0  0  0  0  0
   40.0290   27.0530   34.9410 N   0  0  0  0  0  0  0  0  0  0  0  0
   40.8000   25.9540   34.8310 C   0  0  0  0  0  0  0  0  0  0  0  0
   40.3620   24.8120   35.3060 N   0  0  0  0  0  0  0  0  0  0  0  0
   37.2810   23.5520   36.9550 C   0  0  0  0  0  0  0  0  0  0  0  0
   39.4920   22.9240   37.6400 C   0  0  0  0  0  0  0  0  0  0  0  0
   39.2545   22.7962   34.4847 H   0  0  0  0  0  0  0  0  0  0  0  0
   39.3532   21.5034   35.8072 H   0  0  0  0  0  0  0  0  0  0  0  0
   36.7324   20.9438   36.8161 H   0  0  0  0  0  0  0  0  0  0  0  0
   34.7101   20.1518   35.4524 H   0  0  0  0  0  0  0  0  0  0  0  0
   33.9674   20.2748   32.7166 H   0  0  0  0  0  0  0  0  0  0  0  0
   34.7335   21.0730   30.4602 H   0  0  0  0  0  0  0  0  0  0  0  0
   36.9780   22.2093   30.3780 H   0  0  0  0  0  0  0  0  0  0  0  0
   39.3177   21.9220   32.6932 H   0  0  0  0  0  0  0  0  0  0  0  0
   38.2596   24.3195   33.3202 H   0  0  0  0  0  0  0  0  0  0  0  0
   39.8398   24.3412   32.4327 H   0  0  0  0  0  0  0  0  0  0  0  0
   37.1993   25.2821   31.6122 H   0  0  0  0  0  0  0  0  0  0  0  0
   38.7829   25.7304   31.0041 H   0  0  0  0  0  0  0  0  0  0  0  0
   38.3323   24.2730   29.2225 H   0  0  0  0  0  0  0  0  0  0  0  0
   36.9431   23.5711   30.0237 H   0  0  0  0  0  0  0  0  0  0  0  0
   38.5890   21.7547   30.1263 H   0  0  0  0  0  0  0  0  0  0  0  0
   39.9462   22.8463   30.3830 H   0  0  0  0  0  0  0  0  0  0  0  0
   37.3935   25.6712   36.5160 H   0  0  0  0  0  0  0  0  0  0  0  0
   38.1704   27.8984   35.6291 H   0  0  0  0  0  0  0  0  0  0  0  0
   41.7865   26.0133   34.3480 H   0  0  0  0  0  0  0  0  0  0  0  0
   37.3067   23.5485   38.0547 H   0  0  0  0  0  0  0  0  0  0  0  0
   36.8815   24.5137   36.6007 H   0  0  0  0  0  0  0  0  0  0  0  0
   36.6363   22.7342   36.6007 H   0  0  0  0  0  0  0  0  0  0  0  0
   38.9744   23.1913   38.5731 H   0  0  0  0  0  0  0  0  0  0  0  0
   39.6433   21.8351   37.6036 H   0  0  0  0  0  0  0  0  0  0  0  0
   40.4675   23.4311   37.6036 H   0  0  0  0  0  0  0  0  0  0  0  0
  1 16  1  0
  2  1  1  0
  2  3  2  0
  4  3  1  0
  5  4  1  0
  6  5  2  0
  7  6  1  0
  8  7  2  0
  8  9  1  0
  9 10  2  0
 10  5  1  0
 10  2  1  0
 11 12  1  0
 11  9  1  0
 13 12  1  0
 14 15  1  0
 14 13  1  0
 15 11  1  0
 16 23  1  0
 16 24  1  0
 17 18  2  0
 17 16  1  0
 19 18  1  0
 20 19  2  0
 21 20  1  0
 21 22  2  0
 22 17  1  0
  1 25  1  0
  1 26  1  0
  3 27  1  0
  4 28  1  0
  6 29  1  0
  7 30  1  0
  8 31  1  0
 11 32  1  0
 12 33  1  0
 12 34  1  0
 13 35  1  0
 13 36  1  0
 14 37  1  0
 14 38  1  0
 15 39  1  0
 15 40  1  0
 18 41  1  0
 19 42  1  0
 21 43  1  0
 23 44  1  0
 23 45  1  0
 23 46  1  0
 24 47  1  0
 24 48  1  0
 24 49  1  0
M  ISO  8  25   8  26   8  27  14  28   9  29  14  30  14  31  14  32  13
M  ISO  8  33  13  34  13  35  13  36  13  37  13  38  13  39  13  40  13
M  ISO  8  41  14  42  14  43  14  44   8  45   8  46   8  47   8  48   8
M  ISO  1  49   8
M  END
>  <minimizedAffinity>  (1) 
-5.6425395

>  <minimizedRMSD>  (1) 
0.663649738

$$$$
