
     RDKit          3D

 48 51  0  0  0  0  0  0  0  0999 V2000
   38.7240   22.3170   35.4710 C   0  0  0  0  0  0  0  0  0  0  0  0
   37.4930   21.7000   35.0130 C   0  0  0  0  0  0  0  0  0  0  0  0
   36.5410   21.1240   35.8830 C   0  0  0  0  0  0  0  0  0  0  0  0
   35.4880   20.6440   35.2110 N   0  0  0  0  0  0  0  0  0  0  0  0
   35.6730   20.8650   33.8970 C   0  0  0  0  0  0  0  0  0  0  0  0
   34.9800   20.6030   32.7540 C   0  0  0  0  0  0  0  0  0  0  0  0
   35.3980   20.9230   31.4810 C   0  0  0  0  0  0  0  0  0  0  0  0
   36.6310   21.5600   31.4350 C   0  0  0  0  0  0  0  0  0  0  0  0
   37.3550   21.8410   32.5720 C   0  0  0  0  0  0  0  0  0  0  0  0
   36.8870   21.5010   33.8040 C   0  0  0  0  0  0  0  0  0  0  0  0
   38.5130   22.4900   32.0680 N   0  0  0  0  0  0  0  0  0  0  0  0
   39.6000   21.5120   31.7730 C   0  0  0  0  0  0  0  0  0  0  0  0
   40.8230   22.3550   31.9470 C   0  0  0  0  0  0  0  0  0  0  0  0
   40.4670   23.7960   31.9170 C   0  0  0  0  0  0  0  0  0  0  0  0
   38.9840   23.8460   31.8290 C   0  0  0  0  0  0  0  0  0  0  0  0
   38.6050   23.3340   36.5670 C   0  0  0  0  0  0  0  0  0  0  0  0
   38.9980   24.6720   36.0140 C   0  0  0  0  0  0  0  0  0  0  0  0
   38.1520   25.7170   36.3400 C   0  0  0  0  0  0  0  0  0  0  0  0
   38.4540   26.9940   35.8550 C   0  0  0  0  0  0  0  0  0  0  0  0
   39.5760   27.1370   35.0830 N   0  0  0  0  0  0  0  0  0  0  0  0
   40.3850   26.0900   34.7830 C   0  0  0  0  0  0  0  0  0  0  0  0
   40.0650   24.9090   35.2580 N   0  0  0  0  0  0  0  0  0  0  0  0
   37.2830   23.3870   37.2100 C   0  0  0  0  0  0  0  0  0  0  0  0
   39.6000   22.9370   37.6880 C   0  0  0  0  0  0  0  0  0  0  0  0
   39.1892   22.8129   34.6063 H   0  0  0  0  0  0  0  0  0  0  0  0
   39.3133   21.4954   35.9042 H   0  0  0  0  0  0  0  0  0  0  0  0
   36.6514   21.0760   36.9764 H   0  0  0  0  0  0  0  0  0  0  0  0
   34.6695   20.1810   35.6312 H   0  0  0  0  0  0  0  0  0  0  0  0
   34.0094   20.0955   32.8555 H   0  0  0  0  0  0  0  0  0  0  0  0
   34.8078   20.6944   30.5813 H   0  0  0  0  0  0  0  0  0  0  0  0
   37.0433   21.8499   30.4572 H   0  0  0  0  0  0  0  0  0  0  0  0
   39.5229   21.1246   30.7463 H   0  0  0  0  0  0  0  0  0  0  0  0
   39.5804   20.6169   32.4121 H   0  0  0  0  0  0  0  0  0  0  0  0
   41.2923   22.1177   32.9131 H   0  0  0  0  0  0  0  0  0  0  0  0
   41.5223   22.1431   31.1248 H   0  0  0  0  0  0  0  0  0  0  0  0
   40.8132   24.2951   32.8341 H   0  0  0  0  0  0  0  0  0  0  0  0
   40.9402   24.3119   31.0685 H   0  0  0  0  0  0  0  0  0  0  0  0
   38.5804   24.5289   32.5910 H   0  0  0  0  0  0  0  0  0  0  0  0
   38.6547   24.2155   30.8466 H   0  0  0  0  0  0  0  0  0  0  0  0
   37.2632   25.5478   36.9656 H   0  0  0  0  0  0  0  0  0  0  0  0
   37.8107   27.8558   36.0864 H   0  0  0  0  0  0  0  0  0  0  0  0
   41.2817   26.2267   34.1607 H   0  0  0  0  0  0  0  0  0  0  0  0
   37.4064   23.3821   38.3030 H   0  0  0  0  0  0  0  0  0  0  0  0
   36.7630   24.3067   36.9039 H   0  0  0  0  0  0  0  0  0  0  0  0
   36.6910   22.5119   36.9039 H   0  0  0  0  0  0  0  0  0  0  0  0
   39.1389   23.1210   38.6696 H   0  0  0  0  0  0  0  0  0  0  0  0
   39.8506   21.8700   37.5948 H   0  0  0  0  0  0  0  0  0  0  0  0
   40.5163   23.5384   37.5948 H   0  0  0  0  0  0  0  0  0  0  0  0
  1 16  1  0
  2  1  1  0
  2  3  2  0
  4  3  1  0
  5  4  1  0
  6  5  2  0
  7  6  1  0
  8  7  2  0
  8  9  1  0
  9 10  2  0
 10  5  1  0
 10  2  1  0
 11  9  1  0
 12 13  1  0
 12 11  1  0
 14 13  1  0
 15 14  1  0
 15 11  1  0
 16 23  1  0
 16 24  1  0
 17 18  2  0
 17 16  1  0
 19 18  1  0
 20 19  2  0
 21 20  1  0
 21 22  2  0
 22 17  1  0
  1 25  1  0
  1 26  1  0
  3 27  1  0
  4 28  1  0
  6 29  1  0
  7 30  1  0
  8 31  1  0
 12 32  1  0
 12 33  1  0
 13 34  1  0
 13 35  1  0
 14 36  1  0
 14 37  1  0
 15 38  1  0
 15 39  1  0
 18 40  1  0
 19 41  1  0
 21 42  1  0
 23 43  1  0
 23 44  1  0
 23 45  1  0
 24 46  1  0
 24 47  1  0
 24 48  1  0
M  ISO  8  25   8  26   8  27  14  28   9  29  14  30  14  31  14  32  13
M  ISO  8  33  13  34  13  35  13  36  13  37  13  38  13  39  13  40  14
M  ISO  8  41  14  42  14  43   8  44   8  45   8  46   8  47   8  48   8
M  END
>  <minimizedAffinity>  (1) 
-5.55980349

>  <minimizedRMSD>  (1) 
0.650823772

$$$$
