
     RDKit          3D

 52 54  0  0  1  0  0  0  0  0999 V2000
   40.0590   23.3480   35.8280 C   0  0  0  0  0  0  0  0  0  0  0  0
   40.5430   24.6470   35.2290 C   0  0  1  0  0  0  0  0  0  0  0  0
   41.6100   24.3090   34.2520 C   0  0  0  0  0  0  0  0  0  0  0  0
   41.3970   25.1710   33.0010 C   0  0  0  0  0  0  0  0  0  0  0  0
   41.3880   26.5780   33.4800 C   0  0  0  0  0  0  0  0  0  0  0  0
   40.2560   26.8840   34.3810 C   0  0  0  0  0  0  0  0  0  0  0  0
   39.4900   25.5580   34.7080 C   0  0  2  0  0  0  0  0  0  0  0  0
   38.4300   26.0680   35.6150 C   0  0  0  0  0  0  0  0  0  0  0  0
   37.9730   25.2020   36.7480 C   0  0  0  0  0  0  0  0  0  0  0  0
   37.1570   26.1490   34.7320 C   0  0  0  0  0  0  0  0  0  0  0  0
   38.5720   27.4920   36.0600 C   0  0  0  0  0  0  0  0  0  0  0  0
   37.7330   21.9160   33.2970 C   0  0  0  0  0  0  0  0  0  0  0  0
   38.5730   21.0830   32.5730 C   0  0  0  0  0  0  0  0  0  0  0  0
   39.8860   21.0320   32.9760 C   0  0  0  0  0  0  0  0  0  0  0  0
   40.2640   21.7850   34.0290 N   0  0  0  0  0  0  0  0  0  0  0  0
   39.4450   22.5810   34.7100 C   0  0  0  0  0  0  0  0  0  0  0  0
   38.1650   22.6420   34.3350 N   0  0  0  0  0  0  0  0  0  0  0  0
   38.0010   20.3750   31.5010 N   0  0  0  0  0  0  0  0  0  0  0  0
   37.1680   19.3620   31.8400 C   0  0  0  0  0  0  0  0  0  0  0  0
   36.5880   18.6480   30.8120 C   0  0  0  0  0  0  0  0  0  0  0  0
   36.8920   19.0100   29.5090 C   0  0  0  0  0  0  0  0  0  0  0  0
   36.3180   18.3060   28.4490 N   0  0  0  0  0  0  0  0  0  0  0  0
   37.7300   20.0290   29.2380 N   0  0  0  0  0  0  0  0  0  0  0  0
   38.3060   20.7370   30.2390 C   0  0  0  0  0  0  0  0  0  0  0  0
   39.0780   21.6760   29.9530 O   0  0  0  0  0  0  0  0  0  0  0  0
   40.9028   22.7877   36.2571 H   0  0  0  0  0  0  0  0  0  0  0  0
   39.3367   23.5240   36.6388 H   0  0  0  0  0  0  0  0  0  0  0  0
   40.9526   25.2733   36.0352 H   0  0  0  0  0  0  0  0  0  0  0  0
   42.5970   24.5219   34.6885 H   0  0  0  0  0  0  0  0  0  0  0  0
   41.5663   23.2410   33.9924 H   0  0  0  0  0  0  0  0  0  0  0  0
   40.4382   24.9224   32.5224 H   0  0  0  0  0  0  0  0  0  0  0  0
   42.1846   25.0017   32.2519 H   0  0  0  0  0  0  0  0  0  0  0  0
   42.3262   26.7680   34.0219 H   0  0  0  0  0  0  0  0  0  0  0  0
   41.2818   27.2220   32.5946 H   0  0  0  0  0  0  0  0  0  0  0  0
   40.6361   27.3293   35.3123 H   0  0  0  0  0  0  0  0  0  0  0  0
   39.5743   27.5954   33.8919 H   0  0  0  0  0  0  0  0  0  0  0  0
   38.9900   24.9614   33.9307 H   0  0  0  0  0  0  0  0  0  0  0  0
   38.2273   25.6839   37.7036 H   0  0  0  0  0  0  0  0  0  0  0  0
   36.8837   25.0622   36.6864 H   0  0  0  0  0  0  0  0  0  0  0  0
   38.4723   24.2238   36.6864 H   0  0  0  0  0  0  0  0  0  0  0  0
   36.2670   26.2056   35.3760 H   0  0  0  0  0  0  0  0  0  0  0  0
   37.2077   27.0457   34.0969 H   0  0  0  0  0  0  0  0  0  0  0  0
   37.0936   25.2531   34.0969 H   0  0  0  0  0  0  0  0  0  0  0  0
   38.5762   27.5340   37.1592 H   0  0  0  0  0  0  0  0  0  0  0  0
   39.5157   27.9045   35.6737 H   0  0  0  0  0  0  0  0  0  0  0  0
   37.7283   28.0827   35.6737 H   0  0  0  0  0  0  0  0  0  0  0  0
   36.6738   21.9823   33.0077 H   0  0  0  0  0  0  0  0  0  0  0  0
   40.6113   20.3922   32.4521 H   0  0  0  0  0  0  0  0  0  0  0  0
   36.9623   19.1185   32.8928 H   0  0  0  0  0  0  0  0  0  0  0  0
   35.9024   17.8135   31.0208 H   0  0  0  0  0  0  0  0  0  0  0  0
   36.5382   18.5680   27.4775 H   0  0  0  0  0  0  0  0  0  0  0  0
   35.6743   17.5245   28.6384 H   0  0  0  0  0  0  0  0  0  0  0  0
  2  1  1  0
  3  2  1  0
  4  5  1  0
  4  3  1  0
  5  6  1  0
  6  7  1  0
  7  2  1  0
  7  8  1  0
  8 11  1  0
  8  9  1  0
 10  8  1  0
 12 17  2  0
 13 14  2  0
 13 12  1  0
 14 15  1  0
 15 16  2  0
 16  1  1  0
 17 16  1  0
 18 19  1  0
 18 13  1  0
 20 19  2  0
 21 20  1  0
 22 21  1  0
 23 21  2  0
 23 24  1  0
 24 18  1  0
 25 24  2  0
  1 26  1  0
  1 27  1  0
  2 28  1  1
  3 29  1  0
  3 30  1  0
  4 31  1  0
  4 32  1  0
  5 33  1  0
  5 34  1  0
  6 35  1  0
  6 36  1  0
  7 37  1  6
  9 38  1  0
  9 39  1  0
  9 40  1  0
 10 41  1  0
 10 42  1  0
 10 43  1  0
 11 44  1  0
 11 45  1  0
 11 46  1  0
 12 47  1  0
 14 48  1  0
 19 49  1  0
 20 50  1  0
 22 51  1  0
 22 52  1  0
M  ISO  8  26   8  27   8  28  13  29  13  30  13  31  13  32  13  33  13
M  ISO  8  34  13  35  13  36  13  37  13  38   8  39   8  40   8  41   8
M  ISO  8  42   8  43   8  44   8  45   8  46   8  47  14  48  14  49  14
M  ISO  1  50  14
M  END
>  <minimizedAffinity>  (1) 
-4.79021263

>  <minimizedRMSD>  (1) 
1.51869321

$$$$
