
     RDKit          3D

 47 50  0  0  1  0  0  0  0  0999 V2000
   40.5860   22.7390   35.2650 C   0  0  0  0  0  0  0  0  0  0  0  0
   40.4020   24.2100   34.8740 C   0  0  1  0  0  0  0  0  0  0  0  0
   40.8140   24.4680   33.5090 C   0  0  0  0  0  0  0  0  0  0  0  0
   39.7010   25.3040   32.8420 C   0  0  0  0  0  0  0  0  0  0  0  0
   39.4980   26.5080   33.7180 C   0  0  0  0  0  0  0  0  0  0  0  0
   38.9800   26.1650   35.0890 C   0  0  0  0  0  0  0  0  0  0  0  0
   38.9700   24.6440   35.1970 C   0  0  2  0  0  0  0  0  0  0  0  0
   38.6750   24.3390   36.6280 C   0  0  0  0  0  0  0  0  0  0  0  0
   37.8540   25.0770   37.4610 C   0  0  0  0  0  0  0  0  0  0  0  0
   37.9280   24.3700   38.6630 C   0  0  0  0  0  0  0  0  0  0  0  0
   38.7520   23.2760   38.5230 C   0  0  0  0  0  0  0  0  0  0  0  0
   39.1690   23.3110   37.2850 O   0  0  0  0  0  0  0  0  0  0  0  0
   38.0770   21.2240   33.0020 C   0  0  0  0  0  0  0  0  0  0  0  0
   38.8660   20.4930   32.1260 C   0  0  0  0  0  0  0  0  0  0  0  0
   40.2280   20.5360   32.3280 C   0  0  0  0  0  0  0  0  0  0  0  0
   40.7130   21.2750   33.3540 N   0  0  0  0  0  0  0  0  0  0  0  0
   39.9450   21.9670   34.1820 C   0  0  0  0  0  0  0  0  0  0  0  0
   38.5950   21.9490   34.0130 N   0  0  0  0  0  0  0  0  0  0  0  0
   38.2000   19.7800   31.1130 N   0  0  0  0  0  0  0  0  0  0  0  0
   37.5690   18.6470   31.4990 C   0  0  0  0  0  0  0  0  0  0  0  0
   36.9090   17.9190   30.5410 C   0  0  0  0  0  0  0  0  0  0  0  0
   36.9340   18.3980   29.2340 C   0  0  0  0  0  0  0  0  0  0  0  0
   36.2740   17.6660   28.2420 N   0  0  0  0  0  0  0  0  0  0  0  0
   37.5730   19.5220   28.9180 N   0  0  0  0  0  0  0  0  0  0  0  0
   38.2250   20.2440   29.8610 C   0  0  0  0  0  0  0  0  0  0  0  0
   38.8110   21.2910   29.5180 O   0  0  0  0  0  0  0  0  0  0  0  0
   41.6550   22.4896   35.3358 H   0  0  0  0  0  0  0  0  0  0  0  0
   40.1424   22.5161   36.2466 H   0  0  0  0  0  0  0  0  0  0  0  0
   41.0737   24.8397   35.4760 H   0  0  0  0  0  0  0  0  0  0  0  0
   41.7608   25.0279   33.5013 H   0  0  0  0  0  0  0  0  0  0  0  0
   40.9704   23.5247   32.9653 H   0  0  0  0  0  0  0  0  0  0  0  0
   40.0102   25.6145   31.8330 H   0  0  0  0  0  0  0  0  0  0  0  0
   38.7724   24.7237   32.7372 H   0  0  0  0  0  0  0  0  0  0  0  0
   40.4620   27.0263   33.8283 H   0  0  0  0  0  0  0  0  0  0  0  0
   38.7409   27.1410   33.2321 H   0  0  0  0  0  0  0  0  0  0  0  0
   39.6381   26.5936   35.8591 H   0  0  0  0  0  0  0  0  0  0  0  0
   37.9704   26.5748   35.2399 H   0  0  0  0  0  0  0  0  0  0  0  0
   38.2440   24.1470   34.5368 H   0  0  0  0  0  0  0  0  0  0  0  0
   37.2857   25.9910   37.2339 H   0  0  0  0  0  0  0  0  0  0  0  0
   37.4031   24.6474   39.5890 H   0  0  0  0  0  0  0  0  0  0  0  0
   39.0057   22.5302   39.2908 H   0  0  0  0  0  0  0  0  0  0  0  0
   36.9855   21.2114   32.8661 H   0  0  0  0  0  0  0  0  0  0  0  0
   40.9096   19.9799   31.6676 H   0  0  0  0  0  0  0  0  0  0  0  0
   37.5846   18.3193   32.5490 H   0  0  0  0  0  0  0  0  0  0  0  0
   36.3789   16.9897   30.7968 H   0  0  0  0  0  0  0  0  0  0  0  0
   36.2779   17.9994   27.2674 H   0  0  0  0  0  0  0  0  0  0  0  0
   35.7840   16.7935   28.4859 H   0  0  0  0  0  0  0  0  0  0  0  0
  2  7  1  0
  2  1  1  0
  3  2  1  0
  4  3  1  0
  4  5  1  0
  5  6  1  0
  6  7  1  0
  7  8  1  0
  8 12  1  0
  8  9  2  0
  9 10  1  0
 11 10  2  0
 12 11  1  0
 13 18  2  0
 14 15  2  0
 14 13  1  0
 15 16  1  0
 16 17  2  0
 17  1  1  0
 18 17  1  0
 19 20  1  0
 19 14  1  0
 21 20  2  0
 22 21  1  0
 23 22  1  0
 24 22  2  0
 24 25  1  0
 25 19  1  0
 26 25  2  0
  1 27  1  0
  1 28  1  0
  2 29  1  1
  3 30  1  0
  3 31  1  0
  4 32  1  0
  4 33  1  0
  5 34  1  0
  5 35  1  0
  6 36  1  0
  6 37  1  0
  7 38  1  6
  9 39  1  0
 10 40  1  0
 11 41  1  0
 13 42  1  0
 15 43  1  0
 20 44  1  0
 21 45  1  0
 23 46  1  0
 23 47  1  0
M  ISO  8  27   8  28   8  29  13  30  13  31  13  32  13  33  13  34  13
M  ISO  8  35  13  36  13  37  13  38  13  39  14  40  14  41  14  42  14
M  ISO  3  43  14  44  14  45  14
M  END
>  <minimizedAffinity>  (1) 
-4.77463913

>  <minimizedRMSD>  (1) 
1.50397277

$$$$
