
     RDKit          3D

 42 45  0  0  0  0  0  0  0  0999 V2000
   38.7190   22.2820   35.5420 C   0  0  0  0  0  0  0  0  0  0  0  0
   37.5130   21.6980   34.9830 C   0  0  0  0  0  0  0  0  0  0  0  0
   36.5620   20.9740   35.7450 C   0  0  0  0  0  0  0  0  0  0  0  0
   35.5040   20.5840   34.9990 N   0  0  0  0  0  0  0  0  0  0  0  0
   35.6910   21.0140   33.7310 C   0  0  0  0  0  0  0  0  0  0  0  0
   34.9830   20.9270   32.5750 C   0  0  0  0  0  0  0  0  0  0  0  0
   35.4010   21.4690   31.3640 C   0  0  0  0  0  0  0  0  0  0  0  0
   36.6370   22.1210   31.4270 C   0  0  0  0  0  0  0  0  0  0  0  0
   37.3580   22.2110   32.5910 C   0  0  0  0  0  0  0  0  0  0  0  0
   36.9140   21.6790   33.7580 C   0  0  0  0  0  0  0  0  0  0  0  0
   38.5710   22.7750   32.1880 N   0  0  0  0  0  0  0  0  0  0  0  0
   38.3280   24.0540   31.7390 C   0  0  0  0  0  0  0  0  0  0  0  0
   39.5000   24.6730   31.3970 N   0  0  0  0  0  0  0  0  0  0  0  0
   40.4730   23.7510   31.6410 C   0  0  0  0  0  0  0  0  0  0  0  0
   39.8600   22.6320   32.1130 N   0  0  0  0  0  0  0  0  0  0  0  0
   38.5350   23.3530   36.5780 C   0  0  0  0  0  0  0  0  0  0  0  0
   38.9770   24.6610   35.9760 C   0  0  0  0  0  0  0  0  0  0  0  0
   38.2120   25.7590   36.3360 C   0  0  0  0  0  0  0  0  0  0  0  0
   38.5330   27.0190   35.8190 C   0  0  0  0  0  0  0  0  0  0  0  0
   39.6010   27.0970   34.9740 N   0  0  0  0  0  0  0  0  0  0  0  0
   40.3170   26.0100   34.6500 C   0  0  0  0  0  0  0  0  0  0  0  0
   40.0040   24.8190   35.1450 N   0  0  0  0  0  0  0  0  0  0  0  0
   37.1760   23.4420   37.1310 C   0  0  0  0  0  0  0  0  0  0  0  0
   39.4620   23.0170   37.7680 C   0  0  0  0  0  0  0  0  0  0  0  0
   39.2937   22.7177   34.7114 H   0  0  0  0  0  0  0  0  0  0  0  0
   39.2218   21.4566   36.0673 H   0  0  0  0  0  0  0  0  0  0  0  0
   36.6719   20.7551   36.8174 H   0  0  0  0  0  0  0  0  0  0  0  0
   34.6922   20.0493   35.3394 H   0  0  0  0  0  0  0  0  0  0  0  0
   34.0202   20.3954   32.5979 H   0  0  0  0  0  0  0  0  0  0  0  0
   34.8116   21.3917   30.4385 H   0  0  0  0  0  0  0  0  0  0  0  0
   37.0447   22.5769   30.5127 H   0  0  0  0  0  0  0  0  0  0  0  0
   37.3314   24.5139   31.6655 H   0  0  0  0  0  0  0  0  0  0  0  0
   41.5535   23.8863   31.4853 H   0  0  0  0  0  0  0  0  0  0  0  0
   37.3602   25.6411   37.0219 H   0  0  0  0  0  0  0  0  0  0  0  0
   37.9471   27.9116   36.0836 H   0  0  0  0  0  0  0  0  0  0  0  0
   41.1733   26.1068   33.9663 H   0  0  0  0  0  0  0  0  0  0  0  0
   37.2263   23.4387   38.2298 H   0  0  0  0  0  0  0  0  0  0  0  0
   36.7010   24.3732   36.7885 H   0  0  0  0  0  0  0  0  0  0  0  0
   36.5836   22.5807   36.7885 H   0  0  0  0  0  0  0  0  0  0  0  0
   38.9312   23.2094   38.7120 H   0  0  0  0  0  0  0  0  0  0  0  0
   39.7513   21.9568   37.7195 H   0  0  0  0  0  0  0  0  0  0  0  0
   40.3634   23.6456   37.7195 H   0  0  0  0  0  0  0  0  0  0  0  0
  1 16  1  0
  2  1  1  0
  2  3  2  0
  4  3  1  0
  5 10  2  0
  5  4  1  0
  6  5  1  0
  7  8  1  0
  7  6  2  0
  8  9  2  0
  9 10  1  0
 10  2  1  0
 11  9  1  0
 12 11  1  0
 13 14  1  0
 13 12  2  0
 14 15  2  0
 15 11  1  0
 16 23  1  0
 16 24  1  0
 17 18  2  0
 17 16  1  0
 19 18  1  0
 20 19  2  0
 21 20  1  0
 21 22  2  0
 22 17  1  0
  1 25  1  0
  1 26  1  0
  3 27  1  0
  4 28  1  0
  6 29  1  0
  7 30  1  0
  8 31  1  0
 12 32  1  0
 14 33  1  0
 18 34  1  0
 19 35  1  0
 21 36  1  0
 23 37  1  0
 23 38  1  0
 23 39  1  0
 24 40  1  0
 24 41  1  0
 24 42  1  0
M  ISO  8  25   8  26   8  27  14  28   9  29  14  30  14  31  14  32  14
M  ISO  8  33  14  34  14  35  14  36  14  37   8  38   8  39   8  40   8
M  ISO  2  41   8  42   8
M  END
>  <minimizedAffinity>  (1) 
-5.43477011

>  <minimizedRMSD>  (1) 
0.39693135

$$$$
