
     RDKit          3D

 43 46  0  0  0  0  0  0  0  0999 V2000
   38.7280   22.3180   35.4900 C   0  0  0  0  0  0  0  0  0  0  0  0
   37.5190   21.7160   34.9590 C   0  0  0  0  0  0  0  0  0  0  0  0
   36.5710   21.0190   35.7470 C   0  0  0  0  0  0  0  0  0  0  0  0
   35.5130   20.6040   35.0240 N   0  0  0  0  0  0  0  0  0  0  0  0
   35.6980   20.9940   33.7410 C   0  0  0  0  0  0  0  0  0  0  0  0
   34.9760   20.8580   32.5930 C   0  0  0  0  0  0  0  0  0  0  0  0
   35.3940   21.3530   31.3610 C   0  0  0  0  0  0  0  0  0  0  0  0
   36.6250   22.0040   31.3940 C   0  0  0  0  0  0  0  0  0  0  0  0
   37.3600   22.1460   32.5500 C   0  0  0  0  0  0  0  0  0  0  0  0
   36.9180   21.6570   33.7370 C   0  0  0  0  0  0  0  0  0  0  0  0
   38.5790   22.7020   32.1240 N   0  0  0  0  0  0  0  0  0  0  0  0
   38.9000   24.0150   31.8920 C   0  0  0  0  0  0  0  0  0  0  0  0
   40.2110   24.2460   31.5880 C   0  0  0  0  0  0  0  0  0  0  0  0
   40.7260   23.0150   31.6340 N   0  0  0  0  0  0  0  0  0  0  0  0
   39.7770   22.1180   31.9440 C   0  0  0  0  0  0  0  0  0  0  0  0
   38.5560   23.3670   36.5490 C   0  0  0  0  0  0  0  0  0  0  0  0
   39.0040   24.6840   35.9860 C   0  0  0  0  0  0  0  0  0  0  0  0
   38.1940   25.7660   36.2890 C   0  0  0  0  0  0  0  0  0  0  0  0
   38.5130   27.0350   35.8040 C   0  0  0  0  0  0  0  0  0  0  0  0
   39.6350   27.1420   35.0420 N   0  0  0  0  0  0  0  0  0  0  0  0
   40.4030   26.0740   34.7670 C   0  0  0  0  0  0  0  0  0  0  0  0
   40.0940   24.8690   35.2290 N   0  0  0  0  0  0  0  0  0  0  0  0
   37.2000   23.4540   37.1080 C   0  0  0  0  0  0  0  0  0  0  0  0
   39.4750   22.9910   37.7370 C   0  0  0  0  0  0  0  0  0  0  0  0
   39.2661   22.7799   34.6491 H   0  0  0  0  0  0  0  0  0  0  0  0
   39.2637   21.4952   35.9860 H   0  0  0  0  0  0  0  0  0  0  0  0
   36.6855   20.8373   36.8258 H   0  0  0  0  0  0  0  0  0  0  0  0
   34.7029   20.0803   35.3851 H   0  0  0  0  0  0  0  0  0  0  0  0
   34.0126   20.3294   32.6427 H   0  0  0  0  0  0  0  0  0  0  0  0
   34.8029   21.2398   30.4403 H   0  0  0  0  0  0  0  0  0  0  0  0
   37.0263   22.4216   30.4588 H   0  0  0  0  0  0  0  0  0  0  0  0
   38.1557   24.8231   31.9468 H   0  0  0  0  0  0  0  0  0  0  0  0
   40.7126   25.1989   31.3635 H   0  0  0  0  0  0  0  0  0  0  0  0
   39.9571   21.0370   32.0392 H   0  0  0  0  0  0  0  0  0  0  0  0
   37.2987   25.6249   36.9123 H   0  0  0  0  0  0  0  0  0  0  0  0
   37.8851   27.9100   36.0279 H   0  0  0  0  0  0  0  0  0  0  0  0
   41.3035   26.2009   34.1481 H   0  0  0  0  0  0  0  0  0  0  0  0
   37.2554   23.4504   38.2066 H   0  0  0  0  0  0  0  0  0  0  0  0
   36.7222   24.3846   36.7680 H   0  0  0  0  0  0  0  0  0  0  0  0
   36.6072   22.5920   36.7680 H   0  0  0  0  0  0  0  0  0  0  0  0
   38.9561   23.2033   38.6834 H   0  0  0  0  0  0  0  0  0  0  0  0
   39.7208   21.9200   37.6858 H   0  0  0  0  0  0  0  0  0  0  0  0
   40.4010   23.5826   37.6858 H   0  0  0  0  0  0  0  0  0  0  0  0
  1 16  1  0
  2  1  1  0
  2  3  2  0
  4  3  1  0
  5  4  1  0
  6  5  2  0
  7  8  2  0
  7  6  1  0
  8  9  1  0
  9 10  2  0
 10  5  1  0
 10  2  1  0
 11  9  1  0
 12 11  1  0
 13 14  1  0
 13 12  2  0
 14 15  2  0
 15 11  1  0
 16 23  1  0
 16 24  1  0
 17 18  2  0
 17 16  1  0
 19 18  1  0
 20 19  2  0
 21 20  1  0
 21 22  2  0
 22 17  1  0
  1 25  1  0
  1 26  1  0
  3 27  1  0
  4 28  1  0
  6 29  1  0
  7 30  1  0
  8 31  1  0
 12 32  1  0
 13 33  1  0
 15 34  1  0
 18 35  1  0
 19 36  1  0
 21 37  1  0
 23 38  1  0
 23 39  1  0
 23 40  1  0
 24 41  1  0
 24 42  1  0
 24 43  1  0
M  ISO  8  25   8  26   8  27  14  28   9  29  14  30  14  31  14  32  14
M  ISO  8  33  14  34  14  35  14  36  14  37  14  38   8  39   8  40   8
M  ISO  3  41   8  42   8  43   8
M  END
>  <minimizedAffinity>  (1) 
-5.43444395

>  <minimizedRMSD>  (1) 
0.577128589

$$$$
