
     RDKit          3D

 43 45  0  0  1  0  0  0  0  0999 V2000
   39.4480   23.0760   36.2120 C   0  0  0  0  0  0  0  0  0  0  0  0
   39.3630   24.5590   35.8230 C   0  0  1  0  0  0  0  0  0  0  0  0
   39.5590   24.7670   34.4120 C   0  0  0  0  0  0  0  0  0  0  0  0
   38.4610   25.7410   33.9320 C   0  0  0  0  0  0  0  0  0  0  0  0
   38.5630   26.9540   34.8090 C   0  0  0  0  0  0  0  0  0  0  0  0
   38.2730   26.6790   36.2570 C   0  0  0  0  0  0  0  0  0  0  0  0
   38.0780   25.1620   36.3970 C   0  0  2  0  0  0  0  0  0  0  0  0
   37.9290   24.7950   37.8520 C   0  0  0  0  0  0  0  0  0  0  0  0
   37.3270   21.4960   33.6170 C   0  0  0  0  0  0  0  0  0  0  0  0
   38.2730   20.9710   32.7390 C   0  0  0  0  0  0  0  0  0  0  0  0
   39.5950   21.1690   33.0580 C   0  0  0  0  0  0  0  0  0  0  0  0
   39.9040   21.8500   34.1880 N   0  0  0  0  0  0  0  0  0  0  0  0
   38.9940   22.3440   35.0140 C   0  0  0  0  0  0  0  0  0  0  0  0
   37.6720   22.1680   34.7300 N   0  0  0  0  0  0  0  0  0  0  0  0
   37.7770   20.2900   31.6130 N   0  0  0  0  0  0  0  0  0  0  0  0
   37.1120   19.1370   31.8630 C   0  0  0  0  0  0  0  0  0  0  0  0
   36.6130   18.4490   30.7720 C   0  0  0  0  0  0  0  0  0  0  0  0
   36.8190   18.9700   29.5170 C   0  0  0  0  0  0  0  0  0  0  0  0
   36.3210   18.2850   28.4050 N   0  0  0  0  0  0  0  0  0  0  0  0
   37.4850   20.1140   29.3410 N   0  0  0  0  0  0  0  0  0  0  0  0
   37.9790   20.7980   30.3990 C   0  0  0  0  0  0  0  0  0  0  0  0
   38.5960   21.8650   30.1890 O   0  0  0  0  0  0  0  0  0  0  0  0
   40.4825   22.8007   36.4651 H   0  0  0  0  0  0  0  0  0  0  0  0
   38.8366   22.8436   37.0964 H   0  0  0  0  0  0  0  0  0  0  0  0
   40.1992   25.1108   36.2772 H   0  0  0  0  0  0  0  0  0  0  0  0
   40.5529   25.2019   34.2305 H   0  0  0  0  0  0  0  0  0  0  0  0
   39.4980   23.8136   33.8667 H   0  0  0  0  0  0  0  0  0  0  0  0
   38.6288   26.0160   32.8802 H   0  0  0  0  0  0  0  0  0  0  0  0
   37.4631   25.2828   33.9971 H   0  0  0  0  0  0  0  0  0  0  0  0
   39.5842   27.3550   34.7295 H   0  0  0  0  0  0  0  0  0  0  0  0
   37.8030   27.6681   34.4592 H   0  0  0  0  0  0  0  0  0  0  0  0
   39.1165   27.0104   36.8805 H   0  0  0  0  0  0  0  0  0  0  0  0
   37.3749   27.2218   36.5869 H   0  0  0  0  0  0  0  0  0  0  0  0
   37.1781   24.7984   35.8794 H   0  0  0  0  0  0  0  0  0  0  0  0
   38.2692   25.6329   38.4782 H   0  0  0  0  0  0  0  0  0  0  0  0
   36.8724   24.5800   38.0696 H   0  0  0  0  0  0  0  0  0  0  0  0
   38.5367   23.9043   38.0696 H   0  0  0  0  0  0  0  0  0  0  0  0
   36.2594   21.3559   33.3918 H   0  0  0  0  0  0  0  0  0  0  0  0
   40.3907   20.7803   32.4055 H   0  0  0  0  0  0  0  0  0  0  0  0
   36.9748   18.7641   32.8887 H   0  0  0  0  0  0  0  0  0  0  0  0
   36.0634   17.5056   30.9057 H   0  0  0  0  0  0  0  0  0  0  0  0
   36.4680   18.6638   27.4585 H   0  0  0  0  0  0  0  0  0  0  0  0
   35.8071   17.4015   28.5321 H   0  0  0  0  0  0  0  0  0  0  0  0
  2  1  1  0
  2  7  1  0
  3  2  1  0
  4  3  1  0
  4  5  1  0
  5  6  1  0
  6  7  1  0
  7  8  1  0
  9 14  2  0
 10 11  2  0
 10  9  1  0
 11 12  1  0
 12 13  2  0
 13  1  1  0
 14 13  1  0
 15 16  1  0
 15 10  1  0
 17 16  2  0
 18 17  1  0
 19 18  1  0
 20 18  2  0
 20 21  1  0
 21 15  1  0
 22 21  2  0
  1 23  1  0
  1 24  1  0
  2 25  1  1
  3 26  1  0
  3 27  1  0
  4 28  1  0
  4 29  1  0
  5 30  1  0
  5 31  1  0
  6 32  1  0
  6 33  1  0
  7 34  1  6
  8 35  1  0
  8 36  1  0
  8 37  1  0
  9 38  1  0
 11 39  1  0
 16 40  1  0
 17 41  1  0
 19 42  1  0
 19 43  1  0
M  ISO  8  23   8  24   8  25  13  26  13  27  13  28  13  29  13  30  13
M  ISO  8  31  13  32  13  33  13  34  13  35   8  36   8  37   8  38  14
M  ISO  3  39  14  40  14  41  14
M  END
>  <minimizedAffinity>  (1) 
-4.70140219

>  <minimizedRMSD>  (1) 
0.437052637

$$$$
