
     RDKit          3D

 46 49  0  0  1  0  0  0  0  0999 V2000
   38.5410   23.4110   36.5700 C   0  0  1  0  0  0  0  0  0  0  0  0
   38.9090   24.7460   36.0020 C   0  0  0  0  0  0  0  0  0  0  0  0
   38.1270   25.8180   36.4670 C   0  0  0  0  0  0  0  0  0  0  0  0
   38.4240   27.0810   35.9700 C   0  0  0  0  0  0  0  0  0  0  0  0
   39.4410   27.2280   35.0700 N   0  0  0  0  0  0  0  0  0  0  0  0
   40.1660   26.1780   34.6500 C   0  0  0  0  0  0  0  0  0  0  0  0
   39.8690   24.9960   35.1310 N   0  0  0  0  0  0  0  0  0  0  0  0
   37.2530   23.3740   37.2180 C   0  0  0  0  0  0  0  0  0  0  0  0
   38.7140   22.3570   35.4630 C   0  0  0  0  0  0  0  0  0  0  0  0
   37.5420   21.7480   34.9840 C   0  0  0  0  0  0  0  0  0  0  0  0
   36.5920   21.1360   35.8670 C   0  0  0  0  0  0  0  0  0  0  0  0
   35.5500   20.6340   35.2110 N   0  0  0  0  0  0  0  0  0  0  0  0
   35.7140   20.8560   33.8930 C   0  0  0  0  0  0  0  0  0  0  0  0
   34.9820   20.5520   32.7730 C   0  0  0  0  0  0  0  0  0  0  0  0
   35.4080   20.8910   31.5040 C   0  0  0  0  0  0  0  0  0  0  0  0
   36.6070   21.5510   31.4320 C   0  0  0  0  0  0  0  0  0  0  0  0
   37.3170   21.8480   32.5280 C   0  0  0  0  0  0  0  0  0  0  0  0
   36.9140   21.5240   33.7890 C   0  0  0  0  0  0  0  0  0  0  0  0
   38.5770   22.5280   32.1400 C   0  0  0  0  0  0  0  0  0  0  0  0
   38.9530   23.6120   32.7890 F   0  0  0  0  0  0  0  0  0  0  0  0
   38.9570   22.2190   30.8740 F   0  0  0  0  0  0  0  0  0  0  0  0
   39.7020   21.7470   32.6770 F   0  0  0  0  0  0  0  0  0  0  0  0
   39.5750   23.0960   37.6630 C   0  0  0  0  0  0  0  0  0  0  0  0
   40.8210   22.6040   37.2080 N   0  0  0  0  0  0  0  0  0  0  0  0
   41.8960   23.1600   36.6000 C   0  0  0  0  0  0  0  0  0  0  0  0
   42.8870   22.2700   36.3460 C   0  0  0  0  0  0  0  0  0  0  0  0
   42.4470   21.0800   36.8060 N   0  0  0  0  0  0  0  0  0  0  0  0
   41.2150   21.2980   37.3160 C   0  0  0  0  0  0  0  0  0  0  0  0
   37.3151   25.6634   37.1929 H   0  0  0  0  0  0  0  0  0  0  0  0
   37.8444   27.9562   36.2989 H   0  0  0  0  0  0  0  0  0  0  0  0
   40.9833   26.3065   33.9251 H   0  0  0  0  0  0  0  0  0  0  0  0
   37.3913   23.3780   38.3093 H   0  0  0  0  0  0  0  0  0  0  0  0
   36.6669   24.2557   36.9195 H   0  0  0  0  0  0  0  0  0  0  0  0
   36.7185   22.4601   36.9195 H   0  0  0  0  0  0  0  0  0  0  0  0
   39.2077   22.8466   34.6106 H   0  0  0  0  0  0  0  0  0  0  0  0
   39.2943   21.5447   35.9249 H   0  0  0  0  0  0  0  0  0  0  0  0
   36.7114   21.0875   36.9594 H   0  0  0  0  0  0  0  0  0  0  0  0
   34.7472   20.1531   35.6414 H   0  0  0  0  0  0  0  0  0  0  0  0
   34.0255   20.0214   32.8897 H   0  0  0  0  0  0  0  0  0  0  0  0
   34.8212   20.6464   30.6063 H   0  0  0  0  0  0  0  0  0  0  0  0
   36.9971   21.8450   30.4464 H   0  0  0  0  0  0  0  0  0  0  0  0
   39.7631   24.0217   38.2266 H   0  0  0  0  0  0  0  0  0  0  0  0
   39.1361   22.2870   38.2654 H   0  0  0  0  0  0  0  0  0  0  0  0
   41.9589   24.2266   36.3385 H   0  0  0  0  0  0  0  0  0  0  0  0
   43.8535   22.4762   35.8630 H   0  0  0  0  0  0  0  0  0  0  0  0
   40.5953   20.5103   37.7693 H   0  0  0  0  0  0  0  0  0  0  0  0
  1  9  1  6
  1  8  1  0
  1 23  1  0
  2  3  2  0
  2  1  1  0
  4  3  1  0
  5  4  2  0
  6  5  1  0
  6  7  2  0
  7  2  1  0
 10  9  1  0
 10 11  2  0
 12 11  1  0
 13 12  1  0
 14 13  2  0
 15 14  1  0
 16 15  2  0
 16 17  1  0
 17 18  2  0
 18 13  1  0
 18 10  1  0
 19 17  1  0
 19 22  1  0
 19 20  1  0
 21 19  1  0
 24 28  1  0
 24 23  1  0
 25 24  1  0
 26 25  2  0
 26 27  1  0
 27 28  2  0
  3 29  1  0
  4 30  1  0
  6 31  1  0
  8 32  1  0
  8 33  1  0
  8 34  1  0
  9 35  1  0
  9 36  1  0
 11 37  1  0
 12 38  1  0
 14 39  1  0
 15 40  1  0
 16 41  1  0
 23 42  1  0
 23 43  1  0
 25 44  1  0
 26 45  1  0
 28 46  1  0
M  ISO  8  29  14  30  14  31  14  32   8  33   8  34   8  35   8  36   8
M  ISO  8  37  14  38   9  39  14  40  14  41  14  42   8  43   8  44  14
M  ISO  2  45  14  46  14
M  END
>  <minimizedAffinity>  (1) 
-5.79055786

>  <minimizedRMSD>  (1) 
0.618644178

$$$$
