
     RDKit          3D

 52 55  0  0  1  0  0  0  0  0999 V2000
   38.3590   23.4910   36.4100 C   0  0  1  0  0  0  0  0  0  0  0  0
   38.0850   24.7790   35.6780 C   0  0  0  0  0  0  0  0  0  0  0  0
   38.3380   25.9330   36.4090 C   0  0  0  0  0  0  0  0  0  0  0  0
   38.1210   27.1640   35.7960 C   0  0  0  0  0  0  0  0  0  0  0  0
   37.6660   27.1700   34.5000 N   0  0  0  0  0  0  0  0  0  0  0  0
   37.4320   26.0350   33.8310 C   0  0  0  0  0  0  0  0  0  0  0  0
   37.6440   24.8920   34.4280 N   0  0  0  0  0  0  0  0  0  0  0  0
   37.3570   23.1580   37.3870 C   0  0  0  0  0  0  0  0  0  0  0  0
   38.6140   22.4020   35.3540 C   0  0  0  0  0  0  0  0  0  0  0  0
   37.4670   21.7380   34.8620 C   0  0  0  0  0  0  0  0  0  0  0  0
   36.4490   21.2280   35.7360 C   0  0  0  0  0  0  0  0  0  0  0  0
   35.4500   20.6430   35.0640 N   0  0  0  0  0  0  0  0  0  0  0  0
   35.7230   20.7160   33.7500 C   0  0  0  0  0  0  0  0  0  0  0  0
   35.0760   20.2860   32.6200 C   0  0  0  0  0  0  0  0  0  0  0  0
   35.6020   20.4880   31.3540 C   0  0  0  0  0  0  0  0  0  0  0  0
   36.8030   21.1400   31.2990 C   0  0  0  0  0  0  0  0  0  0  0  0
   37.4290   21.5570   32.4060 C   0  0  0  0  0  0  0  0  0  0  0  0
   36.9260   21.3690   33.6560 C   0  0  0  0  0  0  0  0  0  0  0  0
   38.7130   22.2070   32.0380 C   0  0  0  0  0  0  0  0  0  0  0  0
   39.0980   23.2930   32.6830 F   0  0  0  0  0  0  0  0  0  0  0  0
   39.1110   21.8730   30.7840 F   0  0  0  0  0  0  0  0  0  0  0  0
   39.8060   21.4100   32.6100 F   0  0  0  0  0  0  0  0  0  0  0  0
   39.6640   23.6780   37.2000 C   0  0  0  0  0  0  0  0  0  0  0  0
   40.7740   22.9240   36.7770 N   0  0  0  0  0  0  0  0  0  0  0  0
   41.2500   21.7220   37.1260 C   0  0  0  0  0  0  0  0  0  0  0  0
   42.3560   21.0710   36.6340 C   0  0  0  0  0  0  0  0  0  0  0  0
   42.7500   19.7340   37.1290 C   0  0  0  0  0  0  0  0  0  0  0  0
   43.0920   21.7320   35.6440 C   0  0  0  0  0  0  0  0  0  0  0  0
   44.1000   21.1510   35.1880 O   0  0  0  0  0  0  0  0  0  0  0  0
   42.6430   22.9480   35.2670 N   0  0  0  0  0  0  0  0  0  0  0  0
   41.5450   23.5160   35.8030 C   0  0  0  0  0  0  0  0  0  0  0  0
   41.3750   24.6570   35.2560 O   0  0  0  0  0  0  0  0  0  0  0  0
   38.7006   25.8755   37.4459 H   0  0  0  0  0  0  0  0  0  0  0  0
   38.3086   28.1049   36.3341 H   0  0  0  0  0  0  0  0  0  0  0  0
   37.0666   26.0636   32.7939 H   0  0  0  0  0  0  0  0  0  0  0  0
   37.7700   23.2953   38.3972 H   0  0  0  0  0  0  0  0  0  0  0  0
   36.4841   23.8144   37.2554 H   0  0  0  0  0  0  0  0  0  0  0  0
   37.0507   22.1097   37.2554 H   0  0  0  0  0  0  0  0  0  0  0  0
   39.1228   22.8732   34.5001 H   0  0  0  0  0  0  0  0  0  0  0  0
   39.2104   21.6294   35.8614 H   0  0  0  0  0  0  0  0  0  0  0  0
   36.4856   21.3087   36.8324 H   0  0  0  0  0  0  0  0  0  0  0  0
   34.6142   20.2105   35.4827 H   0  0  0  0  0  0  0  0  0  0  0  0
   34.1120   19.7659   32.7214 H   0  0  0  0  0  0  0  0  0  0  0  0
   35.0840   20.1441   30.4466 H   0  0  0  0  0  0  0  0  0  0  0  0
   37.2667   21.3266   30.3191 H   0  0  0  0  0  0  0  0  0  0  0  0
   39.9407   24.7409   37.1391 H   0  0  0  0  0  0  0  0  0  0  0  0
   39.4407   23.3178   38.2151 H   0  0  0  0  0  0  0  0  0  0  0  0
   40.6847   21.1885   37.9044 H   0  0  0  0  0  0  0  0  0  0  0  0
   42.7496   19.7355   38.2290 H   0  0  0  0  0  0  0  0  0  0  0  0
   42.0352   18.9822   36.7631 H   0  0  0  0  0  0  0  0  0  0  0  0
   43.7582   19.4900   36.7631 H   0  0  0  0  0  0  0  0  0  0  0  0
   43.1607   23.4624   34.5402 H   0  0  0  0  0  0  0  0  0  0  0  0
  1  9  1  6
  1 23  1  0
  1  8  1  0
  2  3  2  0
  2  1  1  0
  4  3  1  0
  5  4  2  0
  6  7  2  0
  6  5  1  0
  7  2  1  0
 10  9  1  0
 10 11  2  0
 12 11  1  0
 13 12  1  0
 14 13  2  0
 15 14  1  0
 16 15  2  0
 16 17  1  0
 17 18  2  0
 18 13  1  0
 18 10  1  0
 19 17  1  0
 19 22  1  0
 19 20  1  0
 21 19  1  0
 24 25  1  0
 24 23  1  0
 26 25  2  0
 26 27  1  0
 28 26  1  0
 29 28  2  0
 30 28  1  0
 30 31  1  0
 31 24  1  0
 32 31  2  0
  3 33  1  0
  4 34  1  0
  6 35  1  0
  8 36  1  0
  8 37  1  0
  8 38  1  0
  9 39  1  0
  9 40  1  0
 11 41  1  0
 12 42  1  0
 14 43  1  0
 15 44  1  0
 16 45  1  0
 23 46  1  0
 23 47  1  0
 25 48  1  0
 27 49  1  0
 27 50  1  0
 27 51  1  0
 30 52  1  0
M  ISO  8  33  14  34  14  35  14  36   8  37   8  38   8  39   8  40   8
M  ISO  8  41  14  42   9  43  14  44  14  45  14  46   8  47   8  48  14
M  ISO  4  49   8  50   8  51   8  52   9
M  END
>  <minimizedAffinity>  (1) 
-6.00550365

>  <minimizedRMSD>  (1) 
1.5252353

$$$$
