
     RDKit          3D

 54 57  0  0  1  0  0  0  0  0999 V2000
   38.5330   23.6880   35.5840 C   0  0  1  0  0  0  0  0  0  0  0  0
   38.3500   25.0120   34.8860 C   0  0  0  0  0  0  0  0  0  0  0  0
   37.4600   25.8880   35.5480 C   0  0  0  0  0  0  0  0  0  0  0  0
   37.2340   27.1110   34.9390 C   0  0  0  0  0  0  0  0  0  0  0  0
   37.8530   27.4240   33.7690 N   0  0  0  0  0  0  0  0  0  0  0  0
   38.6890   26.5670   33.1770 C   0  0  0  0  0  0  0  0  0  0  0  0
   38.9020   25.4100   33.7500 N   0  0  0  0  0  0  0  0  0  0  0  0
   37.5620   23.4400   36.6000 C   0  0  0  0  0  0  0  0  0  0  0  0
   38.5770   22.5940   34.4990 C   0  0  0  0  0  0  0  0  0  0  0  0
   37.4360   21.7910   34.3530 C   0  0  0  0  0  0  0  0  0  0  0  0
   36.7020   21.3210   35.4890 C   0  0  0  0  0  0  0  0  0  0  0  0
   35.6330   20.6030   35.1390 N   0  0  0  0  0  0  0  0  0  0  0  0
   35.5810   20.5400   33.7960 C   0  0  0  0  0  0  0  0  0  0  0  0
   34.7340   19.9350   32.8970 C   0  0  0  0  0  0  0  0  0  0  0  0
   34.9360   20.0140   31.5270 C   0  0  0  0  0  0  0  0  0  0  0  0
   36.0190   20.7210   31.1280 C   0  0  0  0  0  0  0  0  0  0  0  0
   36.8480   21.3150   32.0060 C   0  0  0  0  0  0  0  0  0  0  0  0
   36.6640   21.2520   33.3550 C   0  0  0  0  0  0  0  0  0  0  0  0
   37.9590   21.9820   31.2840 C   0  0  0  0  0  0  0  0  0  0  0  0
   38.3360   23.1910   31.6520 F   0  0  0  0  0  0  0  0  0  0  0  0
   38.1520   21.4570   30.0470 F   0  0  0  0  0  0  0  0  0  0  0  0
   39.2260   21.3950   31.7380 F   0  0  0  0  0  0  0  0  0  0  0  0
   39.9330   23.7310   36.2040 C   0  0  0  0  0  0  0  0  0  0  0  0
   40.8460   22.7130   35.8400 N   0  0  0  0  0  0  0  0  0  0  0  0
   42.1890   23.3200   36.1130 C   0  0  0  0  0  0  0  0  0  0  0  0
   43.2640   22.3940   35.6260 C   0  0  0  0  0  0  0  0  0  0  0  0
   43.2510   21.2030   36.5630 C   0  0  0  0  0  0  0  0  0  0  0  0
   42.0830   21.3070   37.4890 C   0  0  0  0  0  0  0  0  0  0  0  0
   40.7670   21.6150   36.8020 C   0  0  0  0  0  0  0  0  0  0  0  0
   36.9733   25.6132   36.4954 H   0  0  0  0  0  0  0  0  0  0  0  0
   36.5489   27.8346   35.4049 H   0  0  0  0  0  0  0  0  0  0  0  0
   39.1863   26.8274   32.2310 H   0  0  0  0  0  0  0  0  0  0  0  0
   38.0279   23.5590   37.5893 H   0  0  0  0  0  0  0  0  0  0  0  0
   36.7326   24.1551   36.4969 H   0  0  0  0  0  0  0  0  0  0  0  0
   37.1771   22.4147   36.4969 H   0  0  0  0  0  0  0  0  0  0  0  0
   38.7576   23.0912   33.5346 H   0  0  0  0  0  0  0  0  0  0  0  0
   39.3702   21.9042   34.8231 H   0  0  0  0  0  0  0  0  0  0  0  0
   36.9867   21.5281   36.5311 H   0  0  0  0  0  0  0  0  0  0  0  0
   34.9606   20.1698   35.7880 H   0  0  0  0  0  0  0  0  0  0  0  0
   33.8693   19.3708   33.2764 H   0  0  0  0  0  0  0  0  0  0  0  0
   34.2572   19.5314   30.8084 H   0  0  0  0  0  0  0  0  0  0  0  0
   36.2282   20.8130   30.0520 H   0  0  0  0  0  0  0  0  0  0  0  0
   40.3862   24.6937   35.9250 H   0  0  0  0  0  0  0  0  0  0  0  0
   39.7646   23.5809   37.2806 H   0  0  0  0  0  0  0  0  0  0  0  0
   42.2695   24.2835   35.5884 H   0  0  0  0  0  0  0  0  0  0  0  0
   42.3058   23.4810   37.1949 H   0  0  0  0  0  0  0  0  0  0  0  0
   43.0519   22.0714   34.5960 H   0  0  0  0  0  0  0  0  0  0  0  0
   44.2466   22.8884   35.6190 H   0  0  0  0  0  0  0  0  0  0  0  0
   43.1715   20.2761   35.9760 H   0  0  0  0  0  0  0  0  0  0  0  0
   44.1818   21.1888   37.1490 H   0  0  0  0  0  0  0  0  0  0  0  0
   41.9783   20.3495   38.0203 H   0  0  0  0  0  0  0  0  0  0  0  0
   42.2906   22.1503   38.1641 H   0  0  0  0  0  0  0  0  0  0  0  0
   40.0279   21.8811   37.5720 H   0  0  0  0  0  0  0  0  0  0  0  0
   40.4820   20.7148   36.2377 H   0  0  0  0  0  0  0  0  0  0  0  0
  1  9  1  6
  1 23  1  0
  1  8  1  0
  2  3  2  0
  2  1  1  0
  4  3  1  0
  5  4  2  0
  6  7  2  0
  6  5  1  0
  7  2  1  0
 10  9  1  0
 10 11  2  0
 12 11  1  0
 13 12  1  0
 14 13  2  0
 15 14  1  0
 16 15  2  0
 16 17  1  0
 17 18  2  0
 18 13  1  0
 18 10  1  0
 19 20  1  0
 19 22  1  0
 19 17  1  0
 21 19  1  0
 24 25  1  0
 24 23  1  0
 24 29  1  0
 26 25  1  0
 26 27  1  0
 27 28  1  0
 29 28  1  0
  3 30  1  0
  4 31  1  0
  6 32  1  0
  8 33  1  0
  8 34  1  0
  8 35  1  0
  9 36  1  0
  9 37  1  0
 11 38  1  0
 12 39  1  0
 14 40  1  0
 15 41  1  0
 16 42  1  0
 23 43  1  0
 23 44  1  0
 25 45  1  0
 25 46  1  0
 26 47  1  0
 26 48  1  0
 27 49  1  0
 27 50  1  0
 28 51  1  0
 28 52  1  0
 29 53  1  0
 29 54  1  0
M  ISO  8  30  14  31  14  32  14  33   8  34   8  35   8  36   8  37   8
M  ISO  8  38  14  39   9  40  14  41  14  42  14  43   8  44   8  45  13
M  ISO  8  46  13  47  13  48  13  49  13  50  13  51  13  52  13  53  13
M  ISO  1  54  13
M  END
>  <minimizedAffinity>  (1) 
-5.41124535

>  <minimizedRMSD>  (1) 
2.28629708

$$$$
