
     RDKit          3D

 47 50  0  0  1  0  0  0  0  0999 V2000
   36.1740   29.2960   32.5310 C   0  0  0  0  0  0  0  0  0  0  0  0
   36.8500   28.3280   31.8210 C   0  0  0  0  0  0  0  0  0  0  0  0
   37.2610   27.1860   32.5070 C   0  0  0  0  0  0  0  0  0  0  0  0
   36.9880   27.0480   33.8640 C   0  0  0  0  0  0  0  0  0  0  0  0
   36.3180   28.0070   34.5620 C   0  0  0  0  0  0  0  0  0  0  0  0
   35.9050   29.1420   33.9020 C   0  0  0  0  0  0  0  0  0  0  0  0
   37.5150   25.7610   34.3880 C   0  0  0  0  0  0  0  0  0  0  0  0
   38.9370   25.8220   34.8160 C   0  0  2  0  0  0  0  0  0  0  0  0
   40.9320   23.0950   36.2250 C   0  0  0  0  0  0  0  0  0  0  0  0
   40.1090   22.6140   37.3030 C   0  0  0  0  0  0  0  0  0  0  0  0
   38.8640   23.2440   37.5280 C   0  0  0  0  0  0  0  0  0  0  0  0
   38.5380   24.2760   36.6890 N   0  0  0  0  0  0  0  0  0  0  0  0
   39.3400   24.7000   35.6850 C   0  0  0  0  0  0  0  0  0  0  0  0
   40.5320   24.1210   35.4450 N   0  0  0  0  0  0  0  0  0  0  0  0
   39.1480   27.1270   35.6040 C   0  0  0  0  0  0  0  0  0  0  0  0
   35.6460   30.7400   31.6980 S   0  0  0  0  0  0  0  0  0  0  0  0
   36.0910   30.6080   30.2480 O   0  0  0  0  0  0  0  0  0  0  0  0
   36.2550   31.9610   32.2750 O   0  0  0  0  0  0  0  0  0  0  0  0
   33.9020   30.8710   31.7370 C   0  0  0  0  0  0  0  0  0  0  0  0
   32.9410   30.4150   32.5630 N   0  0  0  0  0  0  0  0  0  0  0  0
   31.7690   30.7950   32.1450 O   0  0  0  0  0  0  0  0  0  0  0  0
   31.9180   31.5090   31.0360 C   0  0  0  0  0  0  0  0  0  0  0  0
   33.2100   31.5490   30.7990 N   0  0  0  0  0  0  0  0  0  0  0  0
   30.8950   32.1430   30.2110 C   0  0  0  0  0  0  0  0  0  0  0  0
   29.9150   32.9480   30.7540 C   0  0  0  0  0  0  0  0  0  0  0  0
   28.9400   33.5560   29.9900 C   0  0  0  0  0  0  0  0  0  0  0  0
   28.9240   33.3650   28.6240 C   0  0  0  0  0  0  0  0  0  0  0  0
   29.8900   32.5630   28.0260 C   0  0  0  0  0  0  0  0  0  0  0  0
   30.8470   31.9760   28.8400 C   0  0  0  0  0  0  0  0  0  0  0  0
   37.0586   28.4521   30.7481 H   0  0  0  0  0  0  0  0  0  0  0  0
   37.8030   26.3914   31.9734 H   0  0  0  0  0  0  0  0  0  0  0  0
   36.1107   27.8765   35.6344 H   0  0  0  0  0  0  0  0  0  0  0  0
   35.3641   29.9291   34.4478 H   0  0  0  0  0  0  0  0  0  0  0  0
   36.9051   25.4639   35.2539 H   0  0  0  0  0  0  0  0  0  0  0  0
   37.4606   25.0345   33.5638 H   0  0  0  0  0  0  0  0  0  0  0  0
   39.5499   25.7700   33.9041 H   0  0  0  0  0  0  0  0  0  0  0  0
   41.9044   22.6179   36.0334 H   0  0  0  0  0  0  0  0  0  0  0  0
   40.4404   21.7774   37.9357 H   0  0  0  0  0  0  0  0  0  0  0  0
   38.1910   22.9217   38.3362 H   0  0  0  0  0  0  0  0  0  0  0  0
   39.1135   26.9137   36.6826 H   0  0  0  0  0  0  0  0  0  0  0  0
   40.1273   27.5567   35.3463 H   0  0  0  0  0  0  0  0  0  0  0  0
   38.3540   27.8434   35.3463 H   0  0  0  0  0  0  0  0  0  0  0  0
   29.9107   33.1121   31.8417 H   0  0  0  0  0  0  0  0  0  0  0  0
   28.1789   34.1902   30.4681 H   0  0  0  0  0  0  0  0  0  0  0  0
   28.1490   33.8459   28.0091 H   0  0  0  0  0  0  0  0  0  0  0  0
   29.8948   32.3989   26.9383 H   0  0  0  0  0  0  0  0  0  0  0  0
   31.6113   31.3414   28.3676 H   0  0  0  0  0  0  0  0  0  0  0  0
  1  6  2  0
  2  3  2  0
  2  1  1  0
  3  4  1  0
  4  7  1  0
  4  5  2  0
  6  5  1  0
  7  8  1  0
  8 15  1  0
  8 13  1  0
  9 10  2  0
 10 11  1  0
 12 11  2  0
 13 12  1  0
 14 13  2  0
 14  9  1  0
 16 19  1  0
 16 18  2  0
 16  1  1  0
 17 16  2  0
 19 20  2  0
 21 20  1  0
 22 21  1  0
 23 22  2  0
 23 19  1  0
 24 25  2  0
 24 22  1  0
 26 25  1  0
 27 26  2  0
 28 27  1  0
 28 29  2  0
 29 24  1  0
  2 30  1  0
  3 31  1  0
  5 32  1  0
  6 33  1  0
  7 34  1  0
  7 35  1  0
  8 36  1  6
  9 37  1  0
 10 38  1  0
 11 39  1  0
 15 40  1  0
 15 41  1  0
 15 42  1  0
 25 43  1  0
 26 44  1  0
 27 45  1  0
 28 46  1  0
 29 47  1  0
M  ISO  8  30  14  31  14  32  14  33  14  34   8  35   8  36   8  37  14
M  ISO  8  38  14  39  14  40   8  41   8  42   8  43  14  44  14  45  14
M  ISO  2  46  14  47  14
M  END
>  <minimizedAffinity>  (1) 
-5.50924826

>  <minimizedRMSD>  (1) 
1.13802326

$$$$
