
     RDKit          3D

 46 49  0  0  1  0  0  0  0  0999 V2000
   39.9800   23.0940   35.2160 C   0  0  0  0  0  0  0  0  0  0  0  0
   39.4990   24.5060   34.8530 C   0  0  1  0  0  0  0  0  0  0  0  0
   39.7320   24.8140   33.4570 C   0  0  0  0  0  0  0  0  0  0  0  0
   38.4330   25.4400   32.9060 C   0  0  0  0  0  0  0  0  0  0  0  0
   38.1090   26.5990   33.8040 C   0  0  0  0  0  0  0  0  0  0  0  0
   37.7870   26.1900   35.2090 C   0  0  0  0  0  0  0  0  0  0  0  0
   38.0510   24.6860   35.3150 C   0  0  2  0  0  0  0  0  0  0  0  0
   37.9590   24.3930   36.7350 N   0  0  0  0  0  0  0  0  0  0  0  0
   37.4180   23.2100   37.1500 C   0  0  0  0  0  0  0  0  0  0  0  0
   37.4360   23.1580   38.4940 N   0  0  0  0  0  0  0  0  0  0  0  0
   38.0010   24.3360   38.8830 C   0  0  0  0  0  0  0  0  0  0  0  0
   38.3110   25.0710   37.8150 N   0  0  0  0  0  0  0  0  0  0  0  0
   37.6650   21.2480   32.9880 C   0  0  0  0  0  0  0  0  0  0  0  0
   38.5350   20.5590   32.1550 C   0  0  0  0  0  0  0  0  0  0  0  0
   39.8810   20.7420   32.3780 C   0  0  0  0  0  0  0  0  0  0  0  0
   40.2760   21.5670   33.3770 N   0  0  0  0  0  0  0  0  0  0  0  0
   39.4310   22.2170   34.1630 C   0  0  0  0  0  0  0  0  0  0  0  0
   38.0910   22.0620   33.9720 N   0  0  0  0  0  0  0  0  0  0  0  0
   37.9620   19.7430   31.1690 N   0  0  0  0  0  0  0  0  0  0  0  0
   37.3650   18.6060   31.6120 C   0  0  0  0  0  0  0  0  0  0  0  0
   36.7910   17.7820   30.6680 C   0  0  0  0  0  0  0  0  0  0  0  0
   36.8600   18.1600   29.3430 C   0  0  0  0  0  0  0  0  0  0  0  0
   36.2860   17.3350   28.3700 N   0  0  0  0  0  0  0  0  0  0  0  0
   37.4620   19.2900   28.9750 N   0  0  0  0  0  0  0  0  0  0  0  0
   38.0280   20.1070   29.8920 C   0  0  0  0  0  0  0  0  0  0  0  0
   38.5830   21.1590   29.4990 O   0  0  0  0  0  0  0  0  0  0  0  0
   41.0791   23.0500   35.2208 H   0  0  0  0  0  0  0  0  0  0  0  0
   39.6467   22.7908   36.2195 H   0  0  0  0  0  0  0  0  0  0  0  0
   40.0979   25.2541   35.3930 H   0  0  0  0  0  0  0  0  0  0  0  0
   40.5641   25.5271   33.3620 H   0  0  0  0  0  0  0  0  0  0  0  0
   39.9974   23.9062   32.8953 H   0  0  0  0  0  0  0  0  0  0  0  0
   38.5864   25.7890   31.8742 H   0  0  0  0  0  0  0  0  0  0  0  0
   37.6128   24.7072   32.8878 H   0  0  0  0  0  0  0  0  0  0  0  0
   38.9763   27.2752   33.8276 H   0  0  0  0  0  0  0  0  0  0  0  0
   37.2127   27.0874   33.3940 H   0  0  0  0  0  0  0  0  0  0  0  0
   38.4283   26.7359   35.9167 H   0  0  0  0  0  0  0  0  0  0  0  0
   36.7392   26.4204   35.4521 H   0  0  0  0  0  0  0  0  0  0  0  0
   37.3689   24.0490   34.7328 H   0  0  0  0  0  0  0  0  0  0  0  0
   37.0282   22.4223   36.4884 H   0  0  0  0  0  0  0  0  0  0  0  0
   38.1757   24.6364   39.9267 H   0  0  0  0  0  0  0  0  0  0  0  0
   36.5823   21.1239   32.8381 H   0  0  0  0  0  0  0  0  0  0  0  0
   40.6251   20.2256   31.7538 H   0  0  0  0  0  0  0  0  0  0  0  0
   37.3407   18.3529   32.6822 H   0  0  0  0  0  0  0  0  0  0  0  0
   36.2911   16.8477   30.9632 H   0  0  0  0  0  0  0  0  0  0  0  0
   36.3292   17.6034   27.3765 H   0  0  0  0  0  0  0  0  0  0  0  0
   35.8201   16.4591   28.6470 H   0  0  0  0  0  0  0  0  0  0  0  0
  2  1  1  0
  2  7  1  0
  3  2  1  0
  4  3  1  0
  4  5  1  0
  5  6  1  0
  6  7  1  0
  7  8  1  0
  8  9  1  0
  8 12  1  0
  9 10  2  0
 10 11  1  0
 12 11  2  0
 13 18  2  0
 14 15  2  0
 14 13  1  0
 15 16  1  0
 16 17  2  0
 17  1  1  0
 18 17  1  0
 19 20  1  0
 19 14  1  0
 21 20  2  0
 22 21  1  0
 23 22  1  0
 24 22  2  0
 24 25  1  0
 25 19  1  0
 26 25  2  0
  1 27  1  0
  1 28  1  0
  2 29  1  1
  3 30  1  0
  3 31  1  0
  4 32  1  0
  4 33  1  0
  5 34  1  0
  5 35  1  0
  6 36  1  0
  6 37  1  0
  7 38  1  6
  9 39  1  0
 11 40  1  0
 13 41  1  0
 15 42  1  0
 20 43  1  0
 21 44  1  0
 23 45  1  0
 23 46  1  0
M  ISO  8  27   8  28   8  29  13  30  13  31  13  32  13  33  13  34  13
M  ISO  8  35  13  36  13  37  13  38  13  39  14  40  14  41  14  42  14
M  ISO  2  43  14  44  14
M  END
>  <minimizedAffinity>  (1) 
-4.67342138

>  <minimizedRMSD>  (1) 
1.28685439

$$$$
