
     RDKit          3D

 48 51  0  0  1  0  0  0  0  0999 V2000
   38.5430   23.4180   36.5670 C   0  0  1  0  0  0  0  0  0  0  0  0
   38.9850   24.7020   35.9830 C   0  0  0  0  0  0  0  0  0  0  0  0
   38.1220   25.7810   36.2450 C   0  0  0  0  0  0  0  0  0  0  0  0
   38.4900   27.0050   35.7220 C   0  0  0  0  0  0  0  0  0  0  0  0
   39.6260   27.1360   34.9960 N   0  0  0  0  0  0  0  0  0  0  0  0
   40.4270   26.0870   34.7650 C   0  0  0  0  0  0  0  0  0  0  0  0
   40.0790   24.9150   35.2650 N   0  0  0  0  0  0  0  0  0  0  0  0
   37.2590   23.4280   37.1710 C   0  0  0  0  0  0  0  0  0  0  0  0
   38.6980   22.2870   35.5100 C   0  0  0  0  0  0  0  0  0  0  0  0
   37.5440   21.7410   34.9840 C   0  0  0  0  0  0  0  0  0  0  0  0
   36.5900   21.1070   35.8700 C   0  0  0  0  0  0  0  0  0  0  0  0
   35.5420   20.6430   35.2100 N   0  0  0  0  0  0  0  0  0  0  0  0
   35.6860   20.9030   33.9050 C   0  0  0  0  0  0  0  0  0  0  0  0
   34.9140   20.6360   32.8050 C   0  0  0  0  0  0  0  0  0  0  0  0
   35.3410   21.0250   31.5370 C   0  0  0  0  0  0  0  0  0  0  0  0
   36.5340   21.6710   31.4380 C   0  0  0  0  0  0  0  0  0  0  0  0
   37.2770   21.9230   32.5380 C   0  0  0  0  0  0  0  0  0  0  0  0
   36.8930   21.5590   33.7980 C   0  0  0  0  0  0  0  0  0  0  0  0
   38.5300   22.6000   32.1740 C   0  0  0  0  0  0  0  0  0  0  0  0
   38.9100   23.6710   32.8210 F   0  0  0  0  0  0  0  0  0  0  0  0
   38.8970   22.3170   30.8890 F   0  0  0  0  0  0  0  0  0  0  0  0
   39.6550   21.7910   32.6550 F   0  0  0  0  0  0  0  0  0  0  0  0
   39.5530   23.0770   37.6840 C   0  0  0  0  0  0  0  0  0  0  0  0
   40.1630   21.8200   37.6230 N   0  0  0  0  0  0  0  0  0  0  0  0
   41.4180   21.3030   37.3050 C   0  0  0  0  0  0  0  0  0  0  0  0
   42.1430   22.3560   36.7210 C   0  0  0  0  0  0  0  0  0  0  0  0
   43.3990   21.8980   36.3910 N   0  0  0  0  0  0  0  0  0  0  0  0
   43.4720   20.6020   36.7540 C   0  0  0  0  0  0  0  0  0  0  0  0
   42.2980   20.3080   37.2780 N   0  0  0  0  0  0  0  0  0  0  0  0
   37.2023   25.6566   36.8354 H   0  0  0  0  0  0  0  0  0  0  0  0
   37.8528   27.8844   35.8971 H   0  0  0  0  0  0  0  0  0  0  0  0
   41.3488   26.1988   34.1753 H   0  0  0  0  0  0  0  0  0  0  0  0
   37.3686   23.4271   38.2655 H   0  0  0  0  0  0  0  0  0  0  0  0
   36.7135   24.3304   36.8578 H   0  0  0  0  0  0  0  0  0  0  0  0
   36.6995   22.5342   36.8578 H   0  0  0  0  0  0  0  0  0  0  0  0
   39.2796   22.6977   34.6715 H   0  0  0  0  0  0  0  0  0  0  0  0
   39.1756   21.4592   36.0547 H   0  0  0  0  0  0  0  0  0  0  0  0
   36.7210   21.0217   36.9588 H   0  0  0  0  0  0  0  0  0  0  0  0
   34.7393   20.1568   35.6345 H   0  0  0  0  0  0  0  0  0  0  0  0
   33.9537   20.1127   32.9233 H   0  0  0  0  0  0  0  0  0  0  0  0
   34.7328   20.8164   30.6445 H   0  0  0  0  0  0  0  0  0  0  0  0
   36.8981   21.9920   30.4509 H   0  0  0  0  0  0  0  0  0  0  0  0
   40.3497   23.8349   37.6544 H   0  0  0  0  0  0  0  0  0  0  0  0
   38.9616   23.0641   38.6114 H   0  0  0  0  0  0  0  0  0  0  0  0
   39.5053   21.0717   37.8845 H   0  0  0  0  0  0  0  0  0  0  0  0
   41.7690   23.3771   36.5550 H   0  0  0  0  0  0  0  0  0  0  0  0
   44.3336   19.9281   36.6372 H   0  0  0  0  0  0  0  0  0  0  0  0
   42.0781   19.3699   37.6419 H   0  0  0  0  0  0  0  0  0  0  0  0
  1  9  1  6
  1  8  1  0
  1 23  1  0
  2  3  2  0
  2  1  1  0
  4  3  1  0
  5  4  2  0
  6  5  1  0
  6  7  2  0
  7  2  1  0
 10  9  1  0
 10 11  2  0
 12 11  1  0
 13 12  1  0
 14 13  2  0
 15 14  1  0
 16 15  2  0
 16 17  1  0
 17 18  2  0
 18 13  1  0
 18 10  1  0
 19 17  1  0
 19 22  1  0
 19 20  1  0
 21 19  1  0
 24 23  1  0
 25 24  1  0
 26 25  2  0
 27 26  1  0
 27 28  2  0
 28 29  1  0
 29 25  1  0
  3 30  1  0
  4 31  1  0
  6 32  1  0
  8 33  1  0
  8 34  1  0
  8 35  1  0
  9 36  1  0
  9 37  1  0
 11 38  1  0
 12 39  1  0
 14 40  1  0
 15 41  1  0
 16 42  1  0
 23 43  1  0
 23 44  1  0
 24 45  1  0
 26 46  1  0
 28 47  1  0
 29 48  1  0
M  ISO  8  30  14  31  14  32  14  33   8  34   8  35   8  36   8  37   8
M  ISO  8  38  14  39   9  40  14  41  14  42  14  43   8  44   8  46  14
M  ISO  2  47  14  48   9
M  END
>  <minimizedAffinity>  (1) 
-6.10761833

>  <minimizedRMSD>  (1) 
0.453986555

$$$$
