
     RDKit          3D

 56 60  0  0  1  0  0  0  0  0999 V2000
   40.0000   24.9100   34.7840 C   0  0  1  0  0  0  0  0  0  0  0  0
   40.6530   26.1960   34.9050 C   0  0  0  0  0  0  0  0  0  0  0  0
   39.5600   27.2830   34.9360 C   0  0  0  0  0  0  0  0  0  0  0  0
   38.6280   26.9070   36.0440 C   0  0  0  0  0  0  0  0  0  0  0  0
   37.9040   25.6270   35.7930 C   0  0  0  0  0  0  0  0  0  0  0  0
   38.5080   24.9730   34.5350 C   0  0  2  0  0  0  0  0  0  0  0  0
   37.8830   23.6550   34.4450 C   0  0  0  0  0  0  0  0  0  0  0  0
   37.8500   22.6690   35.4060 C   0  0  0  0  0  0  0  0  0  0  0  0
   37.2550   21.4320   35.3080 C   0  0  0  0  0  0  0  0  0  0  0  0
   36.6110   21.1190   34.1290 C   0  0  0  0  0  0  0  0  0  0  0  0
   36.5980   22.0540   33.1170 C   0  0  0  0  0  0  0  0  0  0  0  0
   35.9320   21.6600   31.9800 C   0  0  0  0  0  0  0  0  0  0  0  0
   35.8630   22.5290   30.9160 C   0  0  0  0  0  0  0  0  0  0  0  0
   36.4600   23.7680   31.0130 C   0  0  0  0  0  0  0  0  0  0  0  0
   37.1120   24.1010   32.1810 C   0  0  0  0  0  0  0  0  0  0  0  0
   37.2150   23.2770   33.2760 C   0  0  0  0  0  0  0  0  0  0  0  0
   40.6750   24.0290   33.7540 C   0  0  0  0  0  0  0  0  0  0  0  0
   40.8920   26.4170   30.9070 C   0  0  0  0  0  0  0  0  0  0  0  0
   42.2530   26.6820   30.8570 C   0  0  0  0  0  0  0  0  0  0  0  0
   43.0550   26.0400   31.7860 C   0  0  0  0  0  0  0  0  0  0  0  0
   42.4840   25.2010   32.6830 N   0  0  0  0  0  0  0  0  0  0  0  0
   41.1720   24.9630   32.7110 C   0  0  0  0  0  0  0  0  0  0  0  0
   40.3520   25.5770   31.8110 N   0  0  0  0  0  0  0  0  0  0  0  0
   42.6930   27.5750   29.8690 N   0  0  0  0  0  0  0  0  0  0  0  0
   42.8150   27.0700   28.6170 C   0  0  0  0  0  0  0  0  0  0  0  0
   43.2440   27.9140   27.6240 C   0  0  0  0  0  0  0  0  0  0  0  0
   43.5220   29.2250   27.9610 C   0  0  0  0  0  0  0  0  0  0  0  0
   43.9610   30.0980   26.9600 N   0  0  0  0  0  0  0  0  0  0  0  0
   43.3830   29.6800   29.2260 N   0  0  0  0  0  0  0  0  0  0  0  0
   42.9610   28.8400   30.1990 C   0  0  0  0  0  0  0  0  0  0  0  0
   42.8450   29.2950   31.3530 O   0  0  0  0  0  0  0  0  0  0  0  0
   40.1157   24.4548   35.7787 H   0  0  0  0  0  0  0  0  0  0  0  0
   41.2406   26.2306   35.8343 H   0  0  0  0  0  0  0  0  0  0  0  0
   41.3329   26.3612   34.0562 H   0  0  0  0  0  0  0  0  0  0  0  0
   40.0078   28.2684   35.1324 H   0  0  0  0  0  0  0  0  0  0  0  0
   39.0321   27.3479   33.9731 H   0  0  0  0  0  0  0  0  0  0  0  0
   39.2108   26.8032   36.9712 H   0  0  0  0  0  0  0  0  0  0  0  0
   37.8712   27.7018   36.1189 H   0  0  0  0  0  0  0  0  0  0  0  0
   38.0238   24.9556   36.6561 H   0  0  0  0  0  0  0  0  0  0  0  0
   36.8312   25.8192   35.6444 H   0  0  0  0  0  0  0  0  0  0  0  0
   38.3372   25.5074   33.5888 H   0  0  0  0  0  0  0  0  0  0  0  0
   38.3549   22.8952   36.3567 H   0  0  0  0  0  0  0  0  0  0  0  0
   37.2918   20.7163   36.1425 H   0  0  0  0  0  0  0  0  0  0  0  0
   36.1185   20.1440   33.9995 H   0  0  0  0  0  0  0  0  0  0  0  0
   35.4625   20.6669   31.9225 H   0  0  0  0  0  0  0  0  0  0  0  0
   35.3359   22.2379   29.9954 H   0  0  0  0  0  0  0  0  0  0  0  0
   36.4168   24.4778   30.1737 H   0  0  0  0  0  0  0  0  0  0  0  0
   37.5818   25.0938   32.2406 H   0  0  0  0  0  0  0  0  0  0  0  0
   41.5110   23.4761   34.2072 H   0  0  0  0  0  0  0  0  0  0  0  0
   39.9865   23.2777   33.3399 H   0  0  0  0  0  0  0  0  0  0  0  0
   40.2293   26.9113   30.1814 H   0  0  0  0  0  0  0  0  0  0  0  0
   44.1418   26.2094   31.7952 H   0  0  0  0  0  0  0  0  0  0  0  0
   42.5777   26.0173   28.4040 H   0  0  0  0  0  0  0  0  0  0  0  0
   43.3631   27.5576   26.5902 H   0  0  0  0  0  0  0  0  0  0  0  0
   44.1738   31.0793   27.1895 H   0  0  0  0  0  0  0  0  0  0  0  0
   44.0714   29.7595   25.9935 H   0  0  0  0  0  0  0  0  0  0  0  0
  1  2  1  0
  2  3  1  0
  3  4  1  0
  5  4  1  0
  6  1  1  0
  6  5  1  0
  7  6  1  0
  7  8  2  0
  9  8  1  0
 10  9  2  0
 11 16  2  0
 11 10  1  0
 12 11  1  0
 13 14  1  0
 13 12  2  0
 14 15  2  0
 15 16  1  0
 16  7  1  0
 17  1  1  0
 18 23  2  0
 19 18  1  0
 19 20  2  0
 20 21  1  0
 21 22  2  0
 22 17  1  0
 23 22  1  0
 24 30  1  0
 24 19  1  0
 25 24  1  0
 26 27  1  0
 26 25  2  0
 27 29  2  0
 28 27  1  0
 29 30  1  0
 30 31  2  0
  1 32  1  1
  2 33  1  0
  2 34  1  0
  3 35  1  0
  3 36  1  0
  4 37  1  0
  4 38  1  0
  5 39  1  0
  5 40  1  0
  6 41  1  6
  8 42  1  0
  9 43  1  0
 10 44  1  0
 12 45  1  0
 13 46  1  0
 14 47  1  0
 15 48  1  0
 17 49  1  0
 17 50  1  0
 18 51  1  0
 20 52  1  0
 25 53  1  0
 26 54  1  0
 28 55  1  0
 28 56  1  0
M  ISO  8  32  13  33  13  34  13  35  13  36  13  37  13  38  13  39  13
M  ISO  8  40  13  41  13  42  14  43  14  44  14  45  14  46  14  47  14
M  ISO  7  48  14  49   8  50   8  51  14  52  14  53  14  54  14
M  END
>  <minimizedAffinity>  (1) 
-4.61313438

>  <minimizedRMSD>  (1) 
7.08056021

$$$$
