
     RDKit          3D

 47 50  0  0  1  0  0  0  0  0999 V2000
   40.4720   22.5510   34.9620 C   0  0  0  0  0  0  0  0  0  0  0  0
   40.4130   24.0120   34.4980 C   0  0  1  0  0  0  0  0  0  0  0  0
   40.7280   24.1460   33.0890 C   0  0  0  0  0  0  0  0  0  0  0  0
   39.6630   25.0720   32.4660 C   0  0  0  0  0  0  0  0  0  0  0  0
   39.6610   26.3330   33.2770 C   0  0  0  0  0  0  0  0  0  0  0  0
   39.2410   26.1270   34.7030 C   0  0  0  0  0  0  0  0  0  0  0  0
   39.0680   24.6230   34.9010 C   0  0  2  0  0  0  0  0  0  0  0  0
   38.8210   24.3070   36.2930 C   0  0  0  0  0  0  0  0  0  0  0  0
   37.9260   24.7820   37.2080 C   0  0  0  0  0  0  0  0  0  0  0  0
   37.8800   24.3250   38.4870 C   0  0  0  0  0  0  0  0  0  0  0  0
   38.8900   23.2820   38.7550 C   0  0  0  0  0  0  0  0  0  0  0  0
   39.7430   23.1050   37.1740 S   0  0  0  0  0  0  0  0  0  0  0  0
   37.9770   21.0590   32.6650 C   0  0  0  0  0  0  0  0  0  0  0  0
   38.7630   20.2880   31.8240 C   0  0  0  0  0  0  0  0  0  0  0  0
   40.1230   20.2960   32.0650 C   0  0  0  0  0  0  0  0  0  0  0  0
   40.6070   21.0410   33.0870 N   0  0  0  0  0  0  0  0  0  0  0  0
   39.8340   21.7740   33.8810 C   0  0  0  0  0  0  0  0  0  0  0  0
   38.4870   21.7910   33.6750 N   0  0  0  0  0  0  0  0  0  0  0  0
   38.1110   19.5720   30.8100 N   0  0  0  0  0  0  0  0  0  0  0  0
   37.4330   18.4630   31.2060 C   0  0  0  0  0  0  0  0  0  0  0  0
   36.7820   17.7280   30.2430 C   0  0  0  0  0  0  0  0  0  0  0  0
   36.8630   18.1710   28.9320 C   0  0  0  0  0  0  0  0  0  0  0  0
   36.2180   17.4320   27.9380 N   0  0  0  0  0  0  0  0  0  0  0  0
   37.5470   19.2750   28.6050 N   0  0  0  0  0  0  0  0  0  0  0  0
   38.1870   19.9960   29.5520 C   0  0  0  0  0  0  0  0  0  0  0  0
   38.8130   21.0180   29.2020 O   0  0  0  0  0  0  0  0  0  0  0  0
   41.5157   22.2326   35.1013 H   0  0  0  0  0  0  0  0  0  0  0  0
   39.9640   22.4058   35.9268 H   0  0  0  0  0  0  0  0  0  0  0  0
   41.1960   24.5917   35.0087 H   0  0  0  0  0  0  0  0  0  0  0  0
   41.7281   24.5875   32.9674 H   0  0  0  0  0  0  0  0  0  0  0  0
   40.7263   23.1633   32.5948 H   0  0  0  0  0  0  0  0  0  0  0  0
   39.9194   25.2946   31.4197 H   0  0  0  0  0  0  0  0  0  0  0  0
   38.6716   24.5956   32.4729 H   0  0  0  0  0  0  0  0  0  0  0  0
   40.6778   26.7526   33.2707 H   0  0  0  0  0  0  0  0  0  0  0  0
   38.9267   27.0116   32.8183 H   0  0  0  0  0  0  0  0  0  0  0  0
   40.0140   26.5119   35.3845 H   0  0  0  0  0  0  0  0  0  0  0  0
   38.3051   26.6630   34.9194 H   0  0  0  0  0  0  0  0  0  0  0  0
   38.2191   24.2427   34.3138 H   0  0  0  0  0  0  0  0  0  0  0  0
   37.2161   25.5632   36.8986 H   0  0  0  0  0  0  0  0  0  0  0  0
   37.1678   24.6922   39.2406 H   0  0  0  0  0  0  0  0  0  0  0  0
   39.0780   22.7415   39.6944 H   0  0  0  0  0  0  0  0  0  0  0  0
   36.8894   21.0743   32.5012 H   0  0  0  0  0  0  0  0  0  0  0  0
   40.8040   19.7050   31.4350 H   0  0  0  0  0  0  0  0  0  0  0  0
   37.4057   18.1625   32.2638 H   0  0  0  0  0  0  0  0  0  0  0  0
   36.2171   16.8209   30.5038 H   0  0  0  0  0  0  0  0  0  0  0  0
   36.2631   17.7401   26.9562 H   0  0  0  0  0  0  0  0  0  0  0  0
   35.6972   16.5789   28.1867 H   0  0  0  0  0  0  0  0  0  0  0  0
  2  7  1  0
  2  1  1  0
  3  2  1  0
  4  3  1  0
  4  5  1  0
  5  6  1  0
  6  7  1  0
  7  8  1  0
  8 12  1  0
  8  9  2  0
  9 10  1  0
 10 11  2  0
 12 11  1  0
 13 18  2  0
 14 15  2  0
 14 13  1  0
 15 16  1  0
 16 17  2  0
 17  1  1  0
 18 17  1  0
 19 20  1  0
 19 14  1  0
 21 20  2  0
 22 21  1  0
 23 22  1  0
 24 22  2  0
 24 25  1  0
 25 19  1  0
 26 25  2  0
  1 27  1  0
  1 28  1  0
  2 29  1  1
  3 30  1  0
  3 31  1  0
  4 32  1  0
  4 33  1  0
  5 34  1  0
  5 35  1  0
  6 36  1  0
  6 37  1  0
  7 38  1  6
  9 39  1  0
 10 40  1  0
 11 41  1  0
 13 42  1  0
 15 43  1  0
 20 44  1  0
 21 45  1  0
 23 46  1  0
 23 47  1  0
M  ISO  8  27   8  28   8  29  13  30  13  31  13  32  13  33  13  34  13
M  ISO  8  35  13  36  13  37  13  38  13  39  14  40  14  41  14  42  14
M  ISO  3  43  14  44  14  45  14
M  END
>  <minimizedAffinity>  (1) 
-4.60543346

>  <minimizedRMSD>  (1) 
1.77776897

$$$$
