
     RDKit          3D

 30 33  0  0  0  0  0  0  0  0999 V2000
   38.9330   22.9850   37.9870 C   0  0  0  0  0  0  0  0  0  0  0  0
   40.3040   22.6320   37.7990 C   0  0  0  0  0  0  0  0  0  0  0  0
   40.8970   22.9700   36.5730 C   0  0  0  0  0  0  0  0  0  0  0  0
   40.1320   23.6150   35.6360 N   0  0  0  0  0  0  0  0  0  0  0  0
   38.8610   23.9190   35.8660 C   0  0  0  0  0  0  0  0  0  0  0  0
   38.2390   23.6120   37.0400 N   0  0  0  0  0  0  0  0  0  0  0  0
   38.2060   24.5860   34.7940 N   0  0  0  0  0  0  0  0  0  0  0  0
   37.7840   25.8410   34.9330 C   0  0  0  0  0  0  0  0  0  0  0  0
   37.1830   26.2650   33.7590 C   0  0  0  0  0  0  0  0  0  0  0  0
   37.2580   25.2160   32.9020 N   0  0  0  0  0  0  0  0  0  0  0  0
   37.8780   24.1920   33.5220 C   0  0  0  0  0  0  0  0  0  0  0  0
   38.1900   22.8950   33.0440 N   0  0  0  0  0  0  0  0  0  0  0  0
   39.3610   22.2410   33.1650 C   0  0  0  0  0  0  0  0  0  0  0  0
   39.2430   21.0350   32.5750 N   0  0  0  0  0  0  0  0  0  0  0  0
   37.9710   20.9600   32.0880 C   0  0  0  0  0  0  0  0  0  0  0  0
   37.2470   20.0010   31.3940 C   0  0  0  0  0  0  0  0  0  0  0  0
   35.9680   20.1940   31.0260 N   0  0  0  0  0  0  0  0  0  0  0  0
   35.3380   21.3580   31.3280 C   0  0  0  0  0  0  0  0  0  0  0  0
   36.0040   22.3230   32.0040 N   0  0  0  0  0  0  0  0  0  0  0  0
   37.3000   22.1310   32.3800 C   0  0  0  0  0  0  0  0  0  0  0  0
   38.3600   22.6320   39.2250 N   0  0  0  0  0  0  0  0  0  0  0  0
   40.8734   22.1148   38.5853 H   0  0  0  0  0  0  0  0  0  0  0  0
   41.9494   22.7236   36.3689 H   0  0  0  0  0  0  0  0  0  0  0  0
   37.8957   26.4494   35.8426 H   0  0  0  0  0  0  0  0  0  0  0  0
   36.7363   27.2507   33.5620 H   0  0  0  0  0  0  0  0  0  0  0  0
   40.2632   22.6267   33.6623 H   0  0  0  0  0  0  0  0  0  0  0  0
   37.7361   19.0501   31.1360 H   0  0  0  0  0  0  0  0  0  0  0  0
   34.2924   21.5159   31.0251 H   0  0  0  0  0  0  0  0  0  0  0  0
   37.3746   22.8598   39.4201 H   0  0  0  0  0  0  0  0  0  0  0  0
   38.9265   22.1461   39.9349 H   0  0  0  0  0  0  0  0  0  0  0  0
  1 21  1  0
  2  1  2  0
  3  2  1  0
  4  5  1  0
  4  3  2  0
  5  6  2  0
  6  1  1  0
  7  8  1  0
  7  5  1  0
  9  8  2  0
 10 11  2  0
 10  9  1  0
 11  7  1  0
 12 13  1  0
 12 11  1  0
 14 13  2  0
 15 20  2  0
 15 14  1  0
 16 15  1  0
 17 18  1  0
 17 16  2  0
 18 19  2  0
 19 20  1  0
 20 12  1  0
  2 22  1  0
  3 23  1  0
  8 24  1  0
  9 25  1  0
 13 26  1  0
 16 27  1  0
 18 28  1  0
 21 29  1  0
 21 30  1  0
M  ISO  7  22  14  23  14  24  14  25  14  26  14  27  14  28  14
M  END
>  <minimizedAffinity>  (1) 
-5.77538681

>  <minimizedRMSD>  (1) 
2.62603092

$$$$
