
     RDKit          3D

 31 33  0  0  0  0  0  0  0  0999 V2000
   38.8620   23.2570   37.6400 C   0  0  0  0  0  0  0  0  0  0  0  0
   40.1350   22.7960   37.1800 C   0  0  0  0  0  0  0  0  0  0  0  0
   40.6100   23.3570   36.0020 C   0  0  0  0  0  0  0  0  0  0  0  0
   39.8530   24.2930   35.3650 N   0  0  0  0  0  0  0  0  0  0  0  0
   38.6700   24.6850   35.8410 C   0  0  0  0  0  0  0  0  0  0  0  0
   38.1400   24.1810   36.9910 N   0  0  0  0  0  0  0  0  0  0  0  0
   38.0150   25.6600   35.0440 N   0  0  0  0  0  0  0  0  0  0  0  0
   37.8070   26.8920   35.5130 C   0  0  0  0  0  0  0  0  0  0  0  0
   37.1510   27.6500   34.5510 C   0  0  0  0  0  0  0  0  0  0  0  0
   36.9690   26.8430   33.4940 N   0  0  0  0  0  0  0  0  0  0  0  0
   37.4890   25.6330   33.7800 C   0  0  0  0  0  0  0  0  0  0  0  0
   37.5390   24.4630   32.9860 N   0  0  0  0  0  0  0  0  0  0  0  0
   38.5470   23.4280   33.0030 C   0  0  0  0  0  0  0  0  0  0  0  0
   38.2430   22.5020   31.8710 C   0  0  0  0  0  0  0  0  0  0  0  0
   37.0440   23.0510   31.1560 C   0  0  0  0  0  0  0  0  0  0  0  0
   36.5150   24.1780   32.0180 C   0  0  0  0  0  0  0  0  0  0  0  0
   38.3790   22.6780   38.8310 N   0  0  0  0  0  0  0  0  0  0  0  0
   40.7085   22.0360   37.7310 H   0  0  0  0  0  0  0  0  0  0  0  0
   41.5826   23.0502   35.5897 H   0  0  0  0  0  0  0  0  0  0  0  0
   38.1084   27.2518   36.5078 H   0  0  0  0  0  0  0  0  0  0  0  0
   36.8422   28.7022   34.6382 H   0  0  0  0  0  0  0  0  0  0  0  0
   39.5452   23.8709   32.8708 H   0  0  0  0  0  0  0  0  0  0  0  0
   38.5402   22.8899   33.9624 H   0  0  0  0  0  0  0  0  0  0  0  0
   39.1009   22.4524   31.1843 H   0  0  0  0  0  0  0  0  0  0  0  0
   38.0441   21.4856   32.2417 H   0  0  0  0  0  0  0  0  0  0  0  0
   37.3327   23.4323   30.1654 H   0  0  0  0  0  0  0  0  0  0  0  0
   36.2808   22.2743   31.0003 H   0  0  0  0  0  0  0  0  0  0  0  0
   36.3158   25.0671   31.4018 H   0  0  0  0  0  0  0  0  0  0  0  0
   35.5707   23.8967   32.5071 H   0  0  0  0  0  0  0  0  0  0  0  0
   37.4677   22.9693   39.2126 H   0  0  0  0  0  0  0  0  0  0  0  0
   38.9374   21.9637   39.3197 H   0  0  0  0  0  0  0  0  0  0  0  0
  1 17  1  0
  2  1  2  0
  3  2  1  0
  4  5  1  0
  4  3  2  0
  5  6  2  0
  6  1  1  0
  7  8  1  0
  7  5  1  0
  9  8  2  0
 10 11  2  0
 10  9  1  0
 11  7  1  0
 12 13  1  0
 12 11  1  0
 14 13  1  0
 15 14  1  0
 15 16  1  0
 16 12  1  0
  2 18  1  0
  3 19  1  0
  8 20  1  0
  9 21  1  0
 13 22  1  0
 13 23  1  0
 14 24  1  0
 14 25  1  0
 15 26  1  0
 15 27  1  0
 16 28  1  0
 16 29  1  0
 17 30  1  0
 17 31  1  0
M  ISO  8  18  14  19  14  20  14  21  14  22  13  23  13  24  13  25  13
M  ISO  4  26  13  27  13  28  13  29  13
M  END
>  <minimizedAffinity>  (1) 
-5.16960287

>  <minimizedRMSD>  (1) 
3.61993122

$$$$
