
     RDKit          3D

 25 27  0  0  0  0  0  0  0  0999 V2000
   38.9650   23.2140   37.7590 C   0  0  0  0  0  0  0  0  0  0  0  0
   40.1840   22.7000   37.2240 C   0  0  0  0  0  0  0  0  0  0  0  0
   40.6400   23.2580   36.0430 C   0  0  0  0  0  0  0  0  0  0  0  0
   39.9060   24.2600   35.4650 N   0  0  0  0  0  0  0  0  0  0  0  0
   38.7710   24.7100   36.0000 C   0  0  0  0  0  0  0  0  0  0  0  0
   38.2820   24.1910   37.1600 N   0  0  0  0  0  0  0  0  0  0  0  0
   38.1450   25.7450   35.2680 N   0  0  0  0  0  0  0  0  0  0  0  0
   38.0560   26.9830   35.8100 C   0  0  0  0  0  0  0  0  0  0  0  0
   37.4040   27.8240   34.9080 C   0  0  0  0  0  0  0  0  0  0  0  0
   37.1060   27.0670   33.8240 N   0  0  0  0  0  0  0  0  0  0  0  0
   37.5570   25.8220   34.0550 C   0  0  0  0  0  0  0  0  0  0  0  0
   37.4780   24.6780   33.2110 N   0  0  0  0  0  0  0  0  0  0  0  0
   38.3200   23.6290   33.2080 C   0  0  0  0  0  0  0  0  0  0  0  0
   37.9410   22.7280   32.2760 N   0  0  0  0  0  0  0  0  0  0  0  0
   36.8400   23.2320   31.6900 C   0  0  0  0  0  0  0  0  0  0  0  0
   36.5740   24.4130   32.2700 N   0  0  0  0  0  0  0  0  0  0  0  0
   38.5040   22.6340   38.9720 N   0  0  0  0  0  0  0  0  0  0  0  0
   40.7374   21.8946   37.7290 H   0  0  0  0  0  0  0  0  0  0  0  0
   41.5721   22.9046   35.5780 H   0  0  0  0  0  0  0  0  0  0  0  0
   38.4357   27.2772   36.7996 H   0  0  0  0  0  0  0  0  0  0  0  0
   37.1766   28.8910   35.0488 H   0  0  0  0  0  0  0  0  0  0  0  0
   39.1920   23.5206   33.8696 H   0  0  0  0  0  0  0  0  0  0  0  0
   36.2618   22.7612   30.8813 H   0  0  0  0  0  0  0  0  0  0  0  0
   37.6295   22.9671   39.4024 H   0  0  0  0  0  0  0  0  0  0  0  0
   39.0444   21.8806   39.4206 H   0  0  0  0  0  0  0  0  0  0  0  0
  1 17  1  0
  2  1  2  0
  3  2  1  0
  4  5  1  0
  4  3  2  0
  5  6  2  0
  6  1  1  0
  7  8  1  0
  7  5  1  0
  9  8  2  0
 10 11  2  0
 10  9  1  0
 11  7  1  0
 12 11  1  0
 13 12  1  0
 14 13  2  0
 15 16  2  0
 15 14  1  0
 16 12  1  0
  2 18  1  0
  3 19  1  0
  8 20  1  0
  9 21  1  0
 13 22  1  0
 15 23  1  0
 17 24  1  0
 17 25  1  0
M  ISO  6  18  14  19  14  20  14  21  14  22  14  23  14
M  END
>  <minimizedAffinity>  (1) 
-5.16881323

>  <minimizedRMSD>  (1) 
3.7476027

$$$$
