
     RDKit          3D

 28 30  0  0  0  0  0  0  0  0999 V2000
   38.2090   23.3030   37.3400 C   0  0  0  0  0  0  0  0  0  0  0  0
   39.5550   22.9220   37.0900 C   0  0  0  0  0  0  0  0  0  0  0  0
   40.1950   23.5230   36.0040 C   0  0  0  0  0  0  0  0  0  0  0  0
   39.5010   24.4310   35.2540 N   0  0  0  0  0  0  0  0  0  0  0  0
   38.2300   24.7590   35.5310 C   0  0  0  0  0  0  0  0  0  0  0  0
   37.5820   24.1960   36.5740 N   0  0  0  0  0  0  0  0  0  0  0  0
   37.6760   25.7110   34.6520 N   0  0  0  0  0  0  0  0  0  0  0  0
   37.3320   26.9290   35.1340 C   0  0  0  0  0  0  0  0  0  0  0  0
   36.8110   27.6980   34.0990 C   0  0  0  0  0  0  0  0  0  0  0  0
   36.8500   26.9310   33.0060 N   0  0  0  0  0  0  0  0  0  0  0  0
   37.3730   25.7270   33.3370 C   0  0  0  0  0  0  0  0  0  0  0  0
   37.6180   24.5610   32.5010 C   0  0  0  0  0  0  0  0  0  0  0  0
   36.4970   23.7810   32.1900 C   0  0  0  0  0  0  0  0  0  0  0  0
   36.5850   22.6560   31.4130 C   0  0  0  0  0  0  0  0  0  0  0  0
   37.8310   22.3070   30.9350 C   0  0  0  0  0  0  0  0  0  0  0  0
   38.9430   23.0850   31.2470 C   0  0  0  0  0  0  0  0  0  0  0  0
   38.8030   24.1750   32.0120 N   0  0  0  0  0  0  0  0  0  0  0  0
   37.5720   22.6880   38.4410 N   0  0  0  0  0  0  0  0  0  0  0  0
   40.0703   22.1857   37.7243 H   0  0  0  0  0  0  0  0  0  0  0  0
   41.2368   23.2708   35.7570 H   0  0  0  0  0  0  0  0  0  0  0  0
   37.4464   27.2576   36.1775 H   0  0  0  0  0  0  0  0  0  0  0  0
   36.4407   28.7316   34.1668 H   0  0  0  0  0  0  0  0  0  0  0  0
   35.5142   24.0814   32.5823 H   0  0  0  0  0  0  0  0  0  0  0  0
   35.6950   22.0534   31.1790 H   0  0  0  0  0  0  0  0  0  0  0  0
   37.9465   21.4121   30.3059 H   0  0  0  0  0  0  0  0  0  0  0  0
   39.9357   22.8043   30.8653 H   0  0  0  0  0  0  0  0  0  0  0  0
   36.5963   22.9255   38.6700 H   0  0  0  0  0  0  0  0  0  0  0  0
   38.0833   22.0022   39.0146 H   0  0  0  0  0  0  0  0  0  0  0  0
  1 18  1  0
  2  1  2  0
  3  2  1  0
  4  5  1  0
  4  3  2  0
  5  6  2  0
  6  1  1  0
  7  8  1  0
  7  5  1  0
  9  8  2  0
 10 11  2  0
 10  9  1  0
 11  7  1  0
 12 11  1  0
 13 12  2  0
 14 13  1  0
 15 16  1  0
 15 14  2  0
 16 17  2  0
 17 12  1  0
  2 19  1  0
  3 20  1  0
  8 21  1  0
  9 22  1  0
 13 23  1  0
 14 24  1  0
 15 25  1  0
 16 26  1  0
 18 27  1  0
 18 28  1  0
M  ISO  8  19  14  20  14  21  14  22  14  23  14  24  14  25  14  26  14
M  END
>  <minimizedAffinity>  (1) 
-4.90185118

>  <minimizedRMSD>  (1) 
3.8444078

$$$$
