
     RDKit          3D

 32 34  0  0  0  0  0  0  0  0999 V2000
   38.9570   23.2240   37.7450 C   0  0  0  0  0  0  0  0  0  0  0  0
   40.1920   22.7190   37.2290 C   0  0  0  0  0  0  0  0  0  0  0  0
   40.6680   23.3000   36.0460 C   0  0  0  0  0  0  0  0  0  0  0  0
   39.9340   24.2870   35.4790 N   0  0  0  0  0  0  0  0  0  0  0  0
   38.7900   24.7280   35.9890 C   0  0  0  0  0  0  0  0  0  0  0  0
   38.3060   24.1920   37.1220 N   0  0  0  0  0  0  0  0  0  0  0  0
   38.1710   25.7570   35.2520 N   0  0  0  0  0  0  0  0  0  0  0  0
   38.0210   26.9700   35.7890 C   0  0  0  0  0  0  0  0  0  0  0  0
   37.3820   27.8030   34.8700 C   0  0  0  0  0  0  0  0  0  0  0  0
   37.1550   27.0550   33.7680 N   0  0  0  0  0  0  0  0  0  0  0  0
   37.6290   25.8220   33.9960 C   0  0  0  0  0  0  0  0  0  0  0  0
   37.6170   24.6480   33.0960 C   0  0  0  0  0  0  0  0  0  0  0  0
   36.4760   24.7340   32.1020 C   0  0  0  0  0  0  0  0  0  0  0  0
   36.9590   24.0720   30.8330 C   0  0  0  0  0  0  0  0  0  0  0  0
   38.3880   23.6920   31.0850 C   0  0  0  0  0  0  0  0  0  0  0  0
   38.8100   24.6850   32.1500 C   0  0  0  0  0  0  0  0  0  0  0  0
   38.4840   22.6330   38.9320 N   0  0  0  0  0  0  0  0  0  0  0  0
   40.7419   21.9129   37.7368 H   0  0  0  0  0  0  0  0  0  0  0  0
   41.6113   22.9639   35.5907 H   0  0  0  0  0  0  0  0  0  0  0  0
   38.3492   27.2659   36.7964 H   0  0  0  0  0  0  0  0  0  0  0  0
   37.1155   28.8604   35.0143 H   0  0  0  0  0  0  0  0  0  0  0  0
   37.5784   23.7746   33.7636 H   0  0  0  0  0  0  0  0  0  0  0  0
   35.5923   24.2078   32.4920 H   0  0  0  0  0  0  0  0  0  0  0  0
   36.1869   25.7795   31.9191 H   0  0  0  0  0  0  0  0  0  0  0  0
   36.8928   24.7722   29.9872 H   0  0  0  0  0  0  0  0  0  0  0  0
   36.3470   23.1944   30.5775 H   0  0  0  0  0  0  0  0  0  0  0  0
   38.4653   22.6582   31.4527 H   0  0  0  0  0  0  0  0  0  0  0  0
   39.0157   23.7247   30.1823 H   0  0  0  0  0  0  0  0  0  0  0  0
   39.7326   24.3633   32.6553 H   0  0  0  0  0  0  0  0  0  0  0  0
   39.0400   25.6875   31.7600 H   0  0  0  0  0  0  0  0  0  0  0  0
   37.5999   22.9552   39.3509 H   0  0  0  0  0  0  0  0  0  0  0  0
   39.0220   21.8784   39.3815 H   0  0  0  0  0  0  0  0  0  0  0  0
  1 17  1  0
  2  1  2  0
  3  2  1  0
  4  5  1  0
  4  3  2  0
  5  6  2  0
  6  1  1  0
  7  8  1  0
  7  5  1  0
  9  8  2  0
 10 11  2  0
 10  9  1  0
 11  7  1  0
 12 11  1  0
 13 12  1  0
 14 15  1  0
 14 13  1  0
 15 16  1  0
 16 12  1  0
  2 18  1  0
  3 19  1  0
  8 20  1  0
  9 21  1  0
 12 22  1  0
 13 23  1  0
 13 24  1  0
 14 25  1  0
 14 26  1  0
 15 27  1  0
 15 28  1  0
 16 29  1  0
 16 30  1  0
 17 31  1  0
 17 32  1  0
M  ISO  8  18  14  19  14  20  14  21  14  22  13  23  13  24  13  25  13
M  ISO  5  26  13  27  13  28  13  29  13  30  13
M  END
>  <minimizedAffinity>  (1) 
-5.01688814

>  <minimizedRMSD>  (1) 
3.94210005

$$$$
