
     RDKit          3D

 28 29  0  0  0  0  0  0  0  0999 V2000
   38.8690   23.2020   37.6760 C   0  0  0  0  0  0  0  0  0  0  0  0
   40.1610   22.7770   37.2920 C   0  0  0  0  0  0  0  0  0  0  0  0
   40.6680   23.3000   36.1020 C   0  0  0  0  0  0  0  0  0  0  0  0
   39.9110   24.1790   35.3780 N   0  0  0  0  0  0  0  0  0  0  0  0
   38.6950   24.5460   35.7880 C   0  0  0  0  0  0  0  0  0  0  0  0
   38.1800   24.0510   36.9410 N   0  0  0  0  0  0  0  0  0  0  0  0
   38.0370   25.4570   34.9370 N   0  0  0  0  0  0  0  0  0  0  0  0
   37.7630   26.7010   35.3860 C   0  0  0  0  0  0  0  0  0  0  0  0
   37.1140   27.4150   34.3730 C   0  0  0  0  0  0  0  0  0  0  0  0
   37.0110   26.5660   33.3200 N   0  0  0  0  0  0  0  0  0  0  0  0
   37.5670   25.4010   33.6740 C   0  0  0  0  0  0  0  0  0  0  0  0
   38.3640   22.6660   38.8860 N   0  0  0  0  0  0  0  0  0  0  0  0
   37.6920   24.1730   32.8580 C   0  0  0  0  0  0  0  0  0  0  0  0
   36.4760   24.0970   31.9440 C   0  0  0  0  0  0  0  0  0  0  0  0
   38.9070   24.3550   31.9540 C   0  0  0  0  0  0  0  0  0  0  0  0
   40.7393   22.0677   37.9022 H   0  0  0  0  0  0  0  0  0  0  0  0
   41.6681   23.0078   35.7492 H   0  0  0  0  0  0  0  0  0  0  0  0
   38.0099   27.0894   36.3851 H   0  0  0  0  0  0  0  0  0  0  0  0
   36.7589   28.4550   34.4207 H   0  0  0  0  0  0  0  0  0  0  0  0
   37.4279   22.9379   39.2186 H   0  0  0  0  0  0  0  0  0  0  0  0
   38.9329   22.0043   39.4332 H   0  0  0  0  0  0  0  0  0  0  0  0
   37.7777   23.2801   33.4947 H   0  0  0  0  0  0  0  0  0  0  0  0
   35.5621   24.0399   32.5536 H   0  0  0  0  0  0  0  0  0  0  0  0
   36.4378   24.9945   31.3092 H   0  0  0  0  0  0  0  0  0  0  0  0
   36.5499   23.2017   31.3092 H   0  0  0  0  0  0  0  0  0  0  0  0
   39.8069   24.4898   32.5720 H   0  0  0  0  0  0  0  0  0  0  0  0
   39.0282   23.4650   31.3190 H   0  0  0  0  0  0  0  0  0  0  0  0
   38.7621   25.2415   31.3190 H   0  0  0  0  0  0  0  0  0  0  0  0
  1 12  1  0
  2  1  2  0
  3  2  1  0
  4  5  1  0
  4  3  2  0
  5  6  2  0
  6  1  1  0
  7  8  1  0
  7  5  1  0
  9  8  2  0
 10 11  2  0
 10  9  1  0
 11  7  1  0
 13 11  1  0
 14 13  1  0
 15 13  1  0
  2 16  1  0
  3 17  1  0
  8 18  1  0
  9 19  1  0
 12 20  1  0
 12 21  1  0
 13 22  1  0
 14 23  1  0
 14 24  1  0
 14 25  1  0
 15 26  1  0
 15 27  1  0
 15 28  1  0
M  ISO  8  16  14  17  14  18  14  19  14  22   8  23   8  24   8  25   8
M  ISO  3  26   8  27   8  28   8
M  END
>  <minimizedAffinity>  (1) 
-4.49867535

>  <minimizedRMSD>  (1) 
3.20658255

$$$$
