
     RDKit          3D

 20 21  0  0  0  0  0  0  0  0999 V2000
   39.0040   23.1840   37.8020 C   0  0  0  0  0  0  0  0  0  0  0  0
   40.2400   22.6860   37.3020 C   0  0  0  0  0  0  0  0  0  0  0  0
   40.6920   23.2300   36.0940 C   0  0  0  0  0  0  0  0  0  0  0  0
   39.9380   24.1820   35.4860 N   0  0  0  0  0  0  0  0  0  0  0  0
   38.7850   24.6170   35.9950 C   0  0  0  0  0  0  0  0  0  0  0  0
   38.3180   24.1120   37.1600 N   0  0  0  0  0  0  0  0  0  0  0  0
   38.1350   25.6110   35.2240 N   0  0  0  0  0  0  0  0  0  0  0  0
   37.9790   26.8500   35.7500 C   0  0  0  0  0  0  0  0  0  0  0  0
   37.3150   27.6430   34.8020 C   0  0  0  0  0  0  0  0  0  0  0  0
   37.0890   26.8530   33.7240 N   0  0  0  0  0  0  0  0  0  0  0  0
   37.5860   25.6350   33.9890 C   0  0  0  0  0  0  0  0  0  0  0  0
   38.5430   22.6320   39.0290 N   0  0  0  0  0  0  0  0  0  0  0  0
   37.6520   24.4390   33.2860 O   0  0  0  0  0  0  0  0  0  0  0  0
   40.8109   21.9131   37.8375 H   0  0  0  0  0  0  0  0  0  0  0  0
   41.6387   22.8933   35.6463 H   0  0  0  0  0  0  0  0  0  0  0  0
   38.3141   27.1767   36.7455 H   0  0  0  0  0  0  0  0  0  0  0  0
   37.0327   28.7004   34.9122 H   0  0  0  0  0  0  0  0  0  0  0  0
   37.6544   22.9552   39.4375 H   0  0  0  0  0  0  0  0  0  0  0  0
   39.0977   21.9090   39.5091 H   0  0  0  0  0  0  0  0  0  0  0  0
   38.0799   23.6463   33.6968 H   0  0  0  0  0  0  0  0  0  0  0  0
  1 12  1  0
  2  1  2  0
  3  2  1  0
  4  5  1  0
  4  3  2  0
  5  6  2  0
  6  1  1  0
  7  8  1  0
  7  5  1  0
  9  8  2  0
 10 11  2  0
 10  9  1  0
 11  7  1  0
 13 11  1  0
  2 14  1  0
  3 15  1  0
  8 16  1  0
  9 17  1  0
 12 18  1  0
 12 19  1  0
 13 20  1  0
M  ISO  5  14  14  15  14  16  14  17  14  20   3
M  END
>  <minimizedAffinity>  (1) 
-4.38219881

>  <minimizedRMSD>  (1) 
3.08698559

$$$$
