
     RDKit          3D

 31 32  0  0  0  0  0  0  0  0999 V2000
   39.0090   23.1410   37.7720 C   0  0  0  0  0  0  0  0  0  0  0  0
   40.3410   22.7710   37.3860 C   0  0  0  0  0  0  0  0  0  0  0  0
   40.8080   23.2870   36.1920 C   0  0  0  0  0  0  0  0  0  0  0  0
   39.9890   24.0940   35.4760 N   0  0  0  0  0  0  0  0  0  0  0  0
   38.7580   24.4200   35.8560 C   0  0  0  0  0  0  0  0  0  0  0  0
   38.2410   23.9430   37.0230 N   0  0  0  0  0  0  0  0  0  0  0  0
   38.0650   25.2760   34.9660 N   0  0  0  0  0  0  0  0  0  0  0  0
   37.7660   26.5310   35.3860 C   0  0  0  0  0  0  0  0  0  0  0  0
   37.0950   27.1680   34.3240 C   0  0  0  0  0  0  0  0  0  0  0  0
   37.0160   26.2760   33.3100 N   0  0  0  0  0  0  0  0  0  0  0  0
   37.6040   25.1390   33.7110 C   0  0  0  0  0  0  0  0  0  0  0  0
   37.6740   23.9780   32.8530 C   0  0  0  0  0  0  0  0  0  0  0  0
   37.5010   22.6320   33.4530 C   0  0  0  0  0  0  0  0  0  0  0  0
   38.9700   24.0190   32.0720 C   0  0  0  0  0  0  0  0  0  0  0  0
   36.5700   24.1140   31.7860 C   0  0  0  0  0  0  0  0  0  0  0  0
   38.5300   22.6300   39.0040 N   0  0  0  0  0  0  0  0  0  0  0  0
   40.9597   22.1092   38.0099 H   0  0  0  0  0  0  0  0  0  0  0  0
   41.8197   23.0483   35.8321 H   0  0  0  0  0  0  0  0  0  0  0  0
   38.0023   26.9674   36.3677 H   0  0  0  0  0  0  0  0  0  0  0  0
   36.7078   28.1976   34.3199 H   0  0  0  0  0  0  0  0  0  0  0  0
   37.5117   22.7153   34.5498 H   0  0  0  0  0  0  0  0  0  0  0  0
   36.5407   22.2059   33.1270 H   0  0  0  0  0  0  0  0  0  0  0  0
   38.3223   21.9769   33.1270 H   0  0  0  0  0  0  0  0  0  0  0  0
   39.8188   24.0459   32.7712 H   0  0  0  0  0  0  0  0  0  0  0  0
   39.0449   23.1228   31.4386 H   0  0  0  0  0  0  0  0  0  0  0  0
   38.9881   24.9182   31.4386 H   0  0  0  0  0  0  0  0  0  0  0  0
   35.5948   24.2341   32.2806 H   0  0  0  0  0  0  0  0  0  0  0  0
   36.7735   24.9939   31.1580 H   0  0  0  0  0  0  0  0  0  0  0  0
   36.5538   23.2111   31.1580 H   0  0  0  0  0  0  0  0  0  0  0  0
   37.5804   22.8666   39.3253 H   0  0  0  0  0  0  0  0  0  0  0  0
   39.1314   22.0220   39.5781 H   0  0  0  0  0  0  0  0  0  0  0  0
  1 16  1  0
  2  1  2  0
  3  2  1  0
  4  5  1  0
  4  3  2  0
  5  6  2  0
  6  1  1  0
  7  8  1  0
  7  5  1  0
  9  8  2  0
 10 11  2  0
 10  9  1  0
 11  7  1  0
 12 13  1  0
 12 11  1  0
 14 12  1  0
 15 12  1  0
  2 17  1  0
  3 18  1  0
  8 19  1  0
  9 20  1  0
 13 21  1  0
 13 22  1  0
 13 23  1  0
 14 24  1  0
 14 25  1  0
 14 26  1  0
 15 27  1  0
 15 28  1  0
 15 29  1  0
 16 30  1  0
 16 31  1  0
M  ISO  8  17  14  18  14  19  14  20  14  21   8  22   8  23   8  24   8
M  ISO  5  25   8  26   8  27   8  28   8  29   8
M  END
>  <minimizedAffinity>  (1) 
-4.66201353

>  <minimizedRMSD>  (1) 
3.08930969

$$$$
