
     RDKit          3D

 25 26  0  0  0  0  0  0  0  0999 V2000
   38.9880   23.1550   37.7750 C   0  0  0  0  0  0  0  0  0  0  0  0
   40.2800   22.7500   37.3730 C   0  0  0  0  0  0  0  0  0  0  0  0
   40.7630   23.2550   36.1550 C   0  0  0  0  0  0  0  0  0  0  0  0
   39.9650   24.0940   35.4490 N   0  0  0  0  0  0  0  0  0  0  0  0
   38.7380   24.4520   35.8730 C   0  0  0  0  0  0  0  0  0  0  0  0
   38.2570   23.9790   37.0370 N   0  0  0  0  0  0  0  0  0  0  0  0
   38.0660   25.3340   34.9930 N   0  0  0  0  0  0  0  0  0  0  0  0
   37.7770   26.5810   35.4190 C   0  0  0  0  0  0  0  0  0  0  0  0
   37.1210   27.2730   34.4070 C   0  0  0  0  0  0  0  0  0  0  0  0
   37.0240   26.4250   33.3790 N   0  0  0  0  0  0  0  0  0  0  0  0
   37.5950   25.2510   33.7320 C   0  0  0  0  0  0  0  0  0  0  0  0
   38.5100   22.6420   39.0000 N   0  0  0  0  0  0  0  0  0  0  0  0
   37.7420   24.0090   32.9570 C   0  0  0  0  0  0  0  0  0  0  0  0
   36.6350   24.0010   31.8990 C   0  0  0  0  0  0  0  0  0  0  0  0
   40.8833   22.0668   37.9889 H   0  0  0  0  0  0  0  0  0  0  0  0
   41.7607   22.9778   35.7839 H   0  0  0  0  0  0  0  0  0  0  0  0
   38.0220   26.9868   36.4116 H   0  0  0  0  0  0  0  0  0  0  0  0
   36.7555   28.3098   34.4450 H   0  0  0  0  0  0  0  0  0  0  0  0
   37.5739   22.9062   39.3388 H   0  0  0  0  0  0  0  0  0  0  0  0
   39.0973   22.0034   39.5552 H   0  0  0  0  0  0  0  0  0  0  0  0
   38.7283   23.9829   32.4706 H   0  0  0  0  0  0  0  0  0  0  0  0
   37.6623   23.1287   33.6118 H   0  0  0  0  0  0  0  0  0  0  0  0
   35.6534   23.9939   32.3954 H   0  0  0  0  0  0  0  0  0  0  0  0
   36.7217   24.8998   31.2708 H   0  0  0  0  0  0  0  0  0  0  0  0
   36.7347   23.1036   31.2708 H   0  0  0  0  0  0  0  0  0  0  0  0
  1 12  1  0
  2  1  2  0
  3  2  1  0
  4  5  1  0
  4  3  2  0
  5  6  2  0
  6  1  1  0
  7  8  1  0
  7  5  1  0
  9  8  2  0
 10 11  2  0
 10  9  1  0
 11  7  1  0
 13 11  1  0
 14 13  1  0
  2 15  1  0
  3 16  1  0
  8 17  1  0
  9 18  1  0
 12 19  1  0
 12 20  1  0
 13 21  1  0
 13 22  1  0
 14 23  1  0
 14 24  1  0
 14 25  1  0
M  ISO  8  15  14  16  14  17  14  18  14  21   8  22   8  23   8  24   8
M  ISO  1  25   8
M  END
>  <minimizedAffinity>  (1) 
-4.38428164

>  <minimizedRMSD>  (1) 
2.98400211

$$$$
