
     RDKit          3D

 21 22  0  0  0  0  0  0  0  0999 V2000
   39.0250   23.1790   37.7910 C   0  0  0  0  0  0  0  0  0  0  0  0
   40.2800   22.7110   37.3350 C   0  0  0  0  0  0  0  0  0  0  0  0
   40.7430   23.2580   36.1500 C   0  0  0  0  0  0  0  0  0  0  0  0
   39.9970   24.1940   35.4920 N   0  0  0  0  0  0  0  0  0  0  0  0
   38.8120   24.6030   35.9700 C   0  0  0  0  0  0  0  0  0  0  0  0
   38.3190   24.0910   37.1330 N   0  0  0  0  0  0  0  0  0  0  0  0
   38.1570   25.5800   35.1800 N   0  0  0  0  0  0  0  0  0  0  0  0
   37.9840   26.8170   35.6830 C   0  0  0  0  0  0  0  0  0  0  0  0
   37.3170   27.5830   34.7080 C   0  0  0  0  0  0  0  0  0  0  0  0
   37.1120   26.7670   33.6440 N   0  0  0  0  0  0  0  0  0  0  0  0
   37.6220   25.5650   33.9420 C   0  0  0  0  0  0  0  0  0  0  0  0
   38.5390   22.6240   39.0100 N   0  0  0  0  0  0  0  0  0  0  0  0
   37.6290   24.3850   33.0990 C   0  0  0  0  0  0  0  0  0  0  0  0
   36.7160   24.2240   32.2500 O   0  0  0  0  0  0  0  0  0  0  0  0
   40.8553   21.9555   37.8903 H   0  0  0  0  0  0  0  0  0  0  0  0
   41.7119   22.9386   35.7385 H   0  0  0  0  0  0  0  0  0  0  0  0
   38.3054   27.1658   36.6755 H   0  0  0  0  0  0  0  0  0  0  0  0
   37.0197   28.6387   34.7927 H   0  0  0  0  0  0  0  0  0  0  0  0
   37.6307   22.9285   39.3885 H   0  0  0  0  0  0  0  0  0  0  0  0
   39.0959   21.9183   39.5127 H   0  0  0  0  0  0  0  0  0  0  0  0
   38.4279   23.6358   33.2018 H   0  0  0  0  0  0  0  0  0  0  0  0
  1 12  1  0
  2  1  2  0
  3  2  1  0
  4  5  1  0
  4  3  2  0
  5  6  2  0
  6  1  1  0
  7  8  1  0
  7  5  1  0
  9  8  2  0
 10 11  2  0
 10  9  1  0
 11  7  1  0
 13 11  1  0
 14 13  2  0
  2 15  1  0
  3 16  1  0
  8 17  1  0
  9 18  1  0
 12 19  1  0
 12 20  1  0
 13 21  1  0
M  ISO  5  15  14  16  14  17  14  18  14  21   6
M  END
>  <minimizedAffinity>  (1) 
-4.3617487

>  <minimizedRMSD>  (1) 
3.22791028

$$$$
