
     RDKit          3D

 22 23  0  0  0  0  0  0  0  0999 V2000
   39.2090   23.0610   37.7010 C   0  0  0  0  0  0  0  0  0  0  0  0
   40.5260   22.6210   37.3950 C   0  0  0  0  0  0  0  0  0  0  0  0
   40.9900   22.8540   36.1120 C   0  0  0  0  0  0  0  0  0  0  0  0
   40.1700   23.4850   35.2160 N   0  0  0  0  0  0  0  0  0  0  0  0
   38.9460   23.8750   35.5570 C   0  0  0  0  0  0  0  0  0  0  0  0
   38.4280   23.6770   36.8020 N   0  0  0  0  0  0  0  0  0  0  0  0
   38.2140   24.5160   34.5050 N   0  0  0  0  0  0  0  0  0  0  0  0
   37.8920   25.8080   34.6140 C   0  0  0  0  0  0  0  0  0  0  0  0
   37.1850   26.1840   33.4580 C   0  0  0  0  0  0  0  0  0  0  0  0
   37.1070   25.0780   32.6780 N   0  0  0  0  0  0  0  0  0  0  0  0
   37.7300   24.0640   33.3080 C   0  0  0  0  0  0  0  0  0  0  0  0
   38.7480   22.8160   39.0090 N   0  0  0  0  0  0  0  0  0  0  0  0
   37.9180   22.6640   32.8770 C   0  0  0  0  0  0  0  0  0  0  0  0
   41.1504   22.1162   38.1469 H   0  0  0  0  0  0  0  0  0  0  0  0
   42.0013   22.5372   35.8172 H   0  0  0  0  0  0  0  0  0  0  0  0
   38.1376   26.4645   35.4618 H   0  0  0  0  0  0  0  0  0  0  0  0
   36.7758   27.1796   33.2313 H   0  0  0  0  0  0  0  0  0  0  0  0
   37.8015   23.1134   39.2856 H   0  0  0  0  0  0  0  0  0  0  0  0
   39.3574   22.3394   39.6890 H   0  0  0  0  0  0  0  0  0  0  0  0
   38.0050   22.0165   33.7619 H   0  0  0  0  0  0  0  0  0  0  0  0
   37.0544   22.3469   32.2740 H   0  0  0  0  0  0  0  0  0  0  0  0
   38.8347   22.5859   32.2740 H   0  0  0  0  0  0  0  0  0  0  0  0
  1 12  1  0
  2  1  2  0
  3  2  1  0
  4  5  1  0
  4  3  2  0
  5  6  2  0
  6  1  1  0
  7  8  1  0
  7  5  1  0
  9  8  2  0
 10 11  2  0
 10  9  1  0
 11  7  1  0
 13 11  1  0
  2 14  1  0
  3 15  1  0
  8 16  1  0
  9 17  1  0
 12 18  1  0
 12 19  1  0
 13 20  1  0
 13 21  1  0
 13 22  1  0
M  ISO  7  14  14  15  14  16  14  17  14  20   8  21   8  22   8
M  END
>  <minimizedAffinity>  (1) 
-4.16729021

>  <minimizedRMSD>  (1) 
1.89163959

$$$$
