
     RDKit          3D

 41 43  0  0  1  0  0  0  0  0999 V2000
   39.5390   23.4440   36.0150 C   0  0  0  0  0  0  0  0  0  0  0  0
   39.6180   24.8680   35.4430 C   0  0  1  0  0  0  0  0  0  0  0  0
   39.7360   24.8790   34.0130 C   0  0  0  0  0  0  0  0  0  0  0  0
   38.7650   25.9490   33.4820 C   0  0  0  0  0  0  0  0  0  0  0  0
   39.0570   27.2240   34.1990 C   0  0  0  0  0  0  0  0  0  0  0  0
   38.8730   27.1560   35.6770 C   0  0  0  0  0  0  0  0  0  0  0  0
   38.5100   25.7150   36.0320 C   0  0  1  0  0  0  0  0  0  0  0  0
   37.2430   25.3820   35.7260 O   0  0  0  0  0  0  0  0  0  0  0  0
   37.3870   21.7530   33.5210 C   0  0  0  0  0  0  0  0  0  0  0  0
   38.3090   21.0580   32.7500 C   0  0  0  0  0  0  0  0  0  0  0  0
   39.6320   21.1810   33.1030 C   0  0  0  0  0  0  0  0  0  0  0  0
   39.9730   21.9550   34.1600 N   0  0  0  0  0  0  0  0  0  0  0  0
   39.0660   22.6170   34.8880 C   0  0  0  0  0  0  0  0  0  0  0  0
   37.7460   22.5180   34.5680 N   0  0  0  0  0  0  0  0  0  0  0  0
   37.7990   20.2970   31.6850 N   0  0  0  0  0  0  0  0  0  0  0  0
   37.1000   19.1860   32.0380 C   0  0  0  0  0  0  0  0  0  0  0  0
   36.5860   18.4170   31.0110 C   0  0  0  0  0  0  0  0  0  0  0  0
   36.8110   18.8160   29.7120 C   0  0  0  0  0  0  0  0  0  0  0  0
   36.2910   18.0390   28.6810 N   0  0  0  0  0  0  0  0  0  0  0  0
   37.5100   19.9240   29.4360 N   0  0  0  0  0  0  0  0  0  0  0  0
   38.0200   20.6870   30.4320 C   0  0  0  0  0  0  0  0  0  0  0  0
   38.6670   21.7150   30.1300 O   0  0  0  0  0  0  0  0  0  0  0  0
   40.5290   23.1067   36.3557 H   0  0  0  0  0  0  0  0  0  0  0  0
   38.8725   23.3810   36.8878 H   0  0  0  0  0  0  0  0  0  0  0  0
   40.5558   25.3490   35.7578 H   0  0  0  0  0  0  0  0  0  0  0  0
   40.7671   25.1288   33.7222 H   0  0  0  0  0  0  0  0  0  0  0  0
   39.4936   23.8910   33.5945 H   0  0  0  0  0  0  0  0  0  0  0  0
   38.9129   26.0852   32.4005 H   0  0  0  0  0  0  0  0  0  0  0  0
   37.7228   25.6415   33.6528 H   0  0  0  0  0  0  0  0  0  0  0  0
   40.1015   27.5020   33.9949 H   0  0  0  0  0  0  0  0  0  0  0  0
   38.3350   27.9657   33.8267 H   0  0  0  0  0  0  0  0  0  0  0  0
   39.8055   27.4438   36.1846 H   0  0  0  0  0  0  0  0  0  0  0  0
   38.0783   27.8450   35.9993 H   0  0  0  0  0  0  0  0  0  0  0  0
   38.4746   25.5409   37.1176 H   0  0  0  0  0  0  0  0  0  0  0  0
   36.7269   25.2463   36.5599 H   0  0  0  0  0  0  0  0  0  0  0  0
   36.3199   21.6751   33.2656 H   0  0  0  0  0  0  0  0  0  0  0  0
   40.4089   20.6536   32.5300 H   0  0  0  0  0  0  0  0  0  0  0  0
   36.9503   18.9115   33.0926 H   0  0  0  0  0  0  0  0  0  0  0  0
   36.0093   17.5054   31.2265 H   0  0  0  0  0  0  0  0  0  0  0  0
   36.4446   18.3147   27.7005 H   0  0  0  0  0  0  0  0  0  0  0  0
   35.7526   17.1883   28.8985 H   0  0  0  0  0  0  0  0  0  0  0  0
  2  1  1  0
  2  7  1  0
  3  2  1  0
  4  3  1  0
  4  5  1  0
  5  6  1  0
  6  7  1  0
  8  7  1  0
  9 14  2  0
 10 11  2  0
 10  9  1  0
 11 12  1  0
 12 13  2  0
 13  1  1  0
 14 13  1  0
 15 16  1  0
 15 10  1  0
 17 16  2  0
 18 17  1  0
 19 18  1  0
 20 18  2  0
 20 21  1  0
 21 15  1  0
 22 21  2  0
  1 23  1  0
  1 24  1  0
  2 25  1  1
  3 26  1  0
  3 27  1  0
  4 28  1  0
  4 29  1  0
  5 30  1  0
  5 31  1  0
  6 32  1  0
  6 33  1  0
  7 34  1  1
  8 35  1  0
  9 36  1  0
 11 37  1  0
 16 38  1  0
 17 39  1  0
 19 40  1  0
 19 41  1  0
M  ISO  8  23   8  24   8  25  13  26  13  27  13  28  13  29  13  30  13
M  ISO  8  31  13  32  13  33  13  34  13  35   3  36  14  37  14  38  14
M  ISO  1  39  14
M  END
>  <minimizedAffinity>  (1) 
-4.41999006

>  <minimizedRMSD>  (1) 
0.518177629

$$$$
