
     RDKit          3D

 42 45  0  0  0  0  0  0  0  0999 V2000
   38.2740   23.1950   37.2940 C   0  0  0  0  0  0  0  0  0  0  0  0
   39.6670   22.9490   37.1970 C   0  0  0  0  0  0  0  0  0  0  0  0
   40.3220   23.5320   36.1510 C   0  0  0  0  0  0  0  0  0  0  0  0
   39.5560   24.2720   35.3370 N   0  0  0  0  0  0  0  0  0  0  0  0
   38.2970   24.5240   35.3770 C   0  0  0  0  0  0  0  0  0  0  0  0
   37.6470   23.9570   36.4020 N   0  0  0  0  0  0  0  0  0  0  0  0
   37.7910   25.3430   34.3710 N   0  0  0  0  0  0  0  0  0  0  0  0
   37.3020   26.5610   34.7290 C   0  0  0  0  0  0  0  0  0  0  0  0
   36.8480   27.1970   33.5740 C   0  0  0  0  0  0  0  0  0  0  0  0
   37.0740   26.3520   32.5620 N   0  0  0  0  0  0  0  0  0  0  0  0
   37.6560   25.2010   33.0360 C   0  0  0  0  0  0  0  0  0  0  0  0
   37.9560   24.0590   32.2410 C   0  0  0  0  0  0  0  0  0  0  0  0
   39.2130   23.9760   31.5110 C   0  0  0  0  0  0  0  0  0  0  0  0
   39.1780   22.8400   30.7460 N   0  0  0  0  0  0  0  0  0  0  0  0
   37.9510   22.2500   31.0020 C   0  0  0  0  0  0  0  0  0  0  0  0
   37.2980   22.9870   31.8750 N   0  0  0  0  0  0  0  0  0  0  0  0
   36.1280   22.2810   32.3460 C   0  0  0  0  0  0  0  0  0  0  0  0
   35.4960   21.3750   31.2410 C   0  0  0  0  0  0  0  0  0  0  0  0
   34.4050   20.6140   31.9640 C   0  0  0  0  0  0  0  0  0  0  0  0
   35.1000   19.3530   32.4670 C   0  0  0  0  0  0  0  0  0  0  0  0
   36.4570   19.8270   32.9480 C   0  0  0  0  0  0  0  0  0  0  0  0
   36.3770   21.2780   33.4190 C   0  0  0  0  0  0  0  0  0  0  0  0
   37.5290   22.6300   38.4000 N   0  0  0  0  0  0  0  0  0  0  0  0
   40.1940   22.3192   37.9288 H   0  0  0  0  0  0  0  0  0  0  0  0
   41.4022   23.4037   35.9875 H   0  0  0  0  0  0  0  0  0  0  0  0
   37.2703   26.9715   35.7490 H   0  0  0  0  0  0  0  0  0  0  0  0
   36.3936   28.1966   33.5081 H   0  0  0  0  0  0  0  0  0  0  0  0
   40.0425   24.6965   31.5642 H   0  0  0  0  0  0  0  0  0  0  0  0
   37.5827   21.3176   30.5494 H   0  0  0  0  0  0  0  0  0  0  0  0
   35.5018   23.1180   32.6884 H   0  0  0  0  0  0  0  0  0  0  0  0
   36.2453   20.6840   30.8273 H   0  0  0  0  0  0  0  0  0  0  0  0
   35.1116   21.9553   30.3893 H   0  0  0  0  0  0  0  0  0  0  0  0
   34.0094   21.2032   32.8044 H   0  0  0  0  0  0  0  0  0  0  0  0
   33.5451   20.3913   31.3151 H   0  0  0  0  0  0  0  0  0  0  0  0
   34.5320   18.9004   33.2932 H   0  0  0  0  0  0  0  0  0  0  0  0
   35.1812   18.5829   31.6857 H   0  0  0  0  0  0  0  0  0  0  0  0
   36.7876   19.1923   33.7834 H   0  0  0  0  0  0  0  0  0  0  0  0
   37.1740   19.7604   32.1165 H   0  0  0  0  0  0  0  0  0  0  0  0
   37.3304   21.5306   33.9062 H   0  0  0  0  0  0  0  0  0  0  0  0
   35.5103   21.3321   34.0942 H   0  0  0  0  0  0  0  0  0  0  0  0
   36.5167   22.8022   38.4804 H   0  0  0  0  0  0  0  0  0  0  0  0
   38.0115   22.0560   39.1061 H   0  0  0  0  0  0  0  0  0  0  0  0
  1 23  1  0
  2  1  2  0
  3  2  1  0
  4  5  1  0
  4  3  2  0
  5  6  2  0
  6  1  1  0
  7  8  1  0
  7  5  1  0
  9  8  2  0
 10 11  2  0
 10  9  1  0
 11  7  1  0
 12 11  1  0
 13 12  2  0
 14 15  2  0
 14 13  1  0
 15 16  1  0
 16 12  1  0
 16 17  1  0
 17 22  1  0
 18 19  1  0
 18 17  1  0
 19 20  1  0
 20 21  1  0
 21 22  1  0
  2 24  1  0
  3 25  1  0
  8 26  1  0
  9 27  1  0
 13 28  1  0
 15 29  1  0
 17 30  1  0
 18 31  1  0
 18 32  1  0
 19 33  1  0
 19 34  1  0
 20 35  1  0
 20 36  1  0
 21 37  1  0
 21 38  1  0
 22 39  1  0
 22 40  1  0
 23 41  1  0
 23 42  1  0
M  ISO  8  24  14  25  14  26  14  27  14  28  14  29  14  30  13  31  13
M  ISO  8  32  13  33  13  34  13  35  13  36  13  37  13  38  13  39  13
M  ISO  1  40  13
M  END
>  <minimizedAffinity>  (1) 
-5.75481653

>  <minimizedRMSD>  (1) 
3.5328939

$$$$
