
     RDKit          3D

 26 28  0  0  0  0  0  0  0  0999 V2000
   38.8560   23.2670   37.5150 C   0  0  0  0  0  0  0  0  0  0  0  0
   40.1100   22.8140   37.0130 C   0  0  0  0  0  0  0  0  0  0  0  0
   40.5460   23.3870   35.8330 C   0  0  0  0  0  0  0  0  0  0  0  0
   39.7670   24.3280   35.2400 N   0  0  0  0  0  0  0  0  0  0  0  0
   38.5970   24.7320   35.7320 C   0  0  0  0  0  0  0  0  0  0  0  0
   38.1230   24.1970   36.8920 N   0  0  0  0  0  0  0  0  0  0  0  0
   37.9360   25.7280   34.9840 N   0  0  0  0  0  0  0  0  0  0  0  0
   37.7890   26.9630   35.5290 C   0  0  0  0  0  0  0  0  0  0  0  0
   37.1300   27.7770   34.6150 C   0  0  0  0  0  0  0  0  0  0  0  0
   36.8920   27.0220   33.5430 N   0  0  0  0  0  0  0  0  0  0  0  0
   37.3810   25.7670   33.7590 C   0  0  0  0  0  0  0  0  0  0  0  0
   37.3060   24.6650   32.8260 C   0  0  0  0  0  0  0  0  0  0  0  0
   36.3000   24.5790   31.8570 C   0  0  0  0  0  0  0  0  0  0  0  0
   36.4590   23.4540   31.1010 N   0  0  0  0  0  0  0  0  0  0  0  0
   37.5530   22.8110   31.5680 C   0  0  0  0  0  0  0  0  0  0  0  0
   38.0020   23.5580   32.5680 N   0  0  0  0  0  0  0  0  0  0  0  0
   38.3940   22.6990   38.7420 N   0  0  0  0  0  0  0  0  0  0  0  0
   40.7005   22.0481   37.5371 H   0  0  0  0  0  0  0  0  0  0  0  0
   41.5042   23.0869   35.3837 H   0  0  0  0  0  0  0  0  0  0  0  0
   38.1341   27.2685   36.5278 H   0  0  0  0  0  0  0  0  0  0  0  0
   36.8588   28.8345   34.7498 H   0  0  0  0  0  0  0  0  0  0  0  0
   35.4938   25.3153   31.7234 H   0  0  0  0  0  0  0  0  0  0  0  0
   37.9804   21.8677   31.1970 H   0  0  0  0  0  0  0  0  0  0  0  0
   38.8374   23.2984   33.1118 H   0  0  0  0  0  0  0  0  0  0  0  0
   37.4926   22.9980   39.1407 H   0  0  0  0  0  0  0  0  0  0  0  0
   38.9624   21.9906   39.2278 H   0  0  0  0  0  0  0  0  0  0  0  0
  1 17  1  0
  2  1  2  0
  3  2  1  0
  4  5  1  0
  4  3  2  0
  5  6  2  0
  6  1  1  0
  7  8  1  0
  7  5  1  0
  9  8  2  0
 10 11  2  0
 10  9  1  0
 11  7  1  0
 12 11  1  0
 13 12  2  0
 14 15  2  0
 14 13  1  0
 15 16  1  0
 16 12  1  0
  2 18  1  0
  3 19  1  0
  8 20  1  0
  9 21  1  0
 13 22  1  0
 15 23  1  0
 16 24  1  0
 17 25  1  0
 17 26  1  0
M  ISO  7  18  14  19  14  20  14  21  14  22  14  23  14  24   9
M  END
>  <minimizedAffinity>  (1) 
-4.89811945

>  <minimizedRMSD>  (1) 
3.84448791

$$$$
