
     RDKit          3D

 29 31  0  0  0  0  0  0  0  0999 V2000
   39.1800   22.9470   37.5950 C   0  0  0  0  0  0  0  0  0  0  0  0
   40.4890   22.4790   37.3370 C   0  0  0  0  0  0  0  0  0  0  0  0
   40.9150   22.5440   36.0430 C   0  0  0  0  0  0  0  0  0  0  0  0
   40.0280   23.0480   35.1770 N   0  0  0  0  0  0  0  0  0  0  0  0
   38.8330   23.4830   35.3570 C   0  0  0  0  0  0  0  0  0  0  0  0
   38.4070   23.4220   36.6260 N   0  0  0  0  0  0  0  0  0  0  0  0
   38.1490   23.9590   34.2400 N   0  0  0  0  0  0  0  0  0  0  0  0
   37.8330   25.2870   34.2030 C   0  0  0  0  0  0  0  0  0  0  0  0
   37.1490   25.5310   33.0150 C   0  0  0  0  0  0  0  0  0  0  0  0
   37.0710   24.3590   32.3740 N   0  0  0  0  0  0  0  0  0  0  0  0
   37.6800   23.3890   33.1150 C   0  0  0  0  0  0  0  0  0  0  0  0
   37.7250   22.0060   32.7640 C   0  0  0  0  0  0  0  0  0  0  0  0
   38.9030   21.4430   32.1150 C   0  0  0  0  0  0  0  0  0  0  0  0
   38.6130   20.1380   31.8170 N   0  0  0  0  0  0  0  0  0  0  0  0
   37.3360   19.8990   32.2580 C   0  0  0  0  0  0  0  0  0  0  0  0
   36.8620   21.0110   32.8090 N   0  0  0  0  0  0  0  0  0  0  0  0
   35.6040   20.6770   33.4250 C   0  0  0  0  0  0  0  0  0  0  0  0
   35.4940   20.9160   34.7720 F   0  0  0  0  0  0  0  0  0  0  0  0
   34.5140   20.9510   32.6400 F   0  0  0  0  0  0  0  0  0  0  0  0
   35.3960   19.2360   33.5030 F   0  0  0  0  0  0  0  0  0  0  0  0
   38.6950   22.9530   38.9610 N   0  0  0  0  0  0  0  0  0  0  0  0
   41.1304   22.0831   38.1382 H   0  0  0  0  0  0  0  0  0  0  0  0
   41.9152   22.2066   35.7336 H   0  0  0  0  0  0  0  0  0  0  0  0
   38.0758   26.0320   34.9750 H   0  0  0  0  0  0  0  0  0  0  0  0
   36.7511   26.4971   32.6711 H   0  0  0  0  0  0  0  0  0  0  0  0
   39.8467   21.9675   31.9044 H   0  0  0  0  0  0  0  0  0  0  0  0
   36.7948   18.9454   32.1700 H   0  0  0  0  0  0  0  0  0  0  0  0
   37.7442   23.2903   39.1684 H   0  0  0  0  0  0  0  0  0  0  0  0
   39.3012   22.6200   39.7242 H   0  0  0  0  0  0  0  0  0  0  0  0
  1 21  1  0
  2  1  2  0
  3  2  1  0
  4  5  1  0
  4  3  2  0
  5  6  2  0
  6  1  1  0
  7  5  1  0
  8  7  1  0
  9  8  2  0
 10  9  1  0
 10 11  2  0
 11  7  1  0
 12 16  1  0
 12 11  1  0
 13 12  2  0
 14 13  1  0
 14 15  2  0
 15 16  1  0
 16 17  1  0
 17 20  1  0
 17 18  1  0
 19 17  1  0
  2 22  1  0
  3 23  1  0
  8 24  1  0
  9 25  1  0
 13 26  1  0
 15 27  1  0
 21 28  1  0
 21 29  1  0
M  ISO  6  22  14  23  14  24  14  25  14  26  14  27  14
M  END
>  <minimizedAffinity>  (1) 
-5.77262211

>  <minimizedRMSD>  (1) 
3.33115911

$$$$
