
     RDKit          3D

 50 53  0  0  1  0  0  0  0  0999 V2000
   39.2860   26.3820   34.5360 C   0  0  1  0  0  0  0  0  0  0  0  0
   39.3580   27.0340   33.2410 C   0  0  0  0  0  0  0  0  0  0  0  0
   37.9220   27.1330   32.6910 C   0  0  0  0  0  0  0  0  0  0  0  0
   37.0960   27.8050   33.7490 C   0  0  0  0  0  0  0  0  0  0  0  0
   37.0000   27.0350   35.0270 C   0  0  0  0  0  0  0  0  0  0  0  0
   37.9090   25.8130   34.8850 C   0  0  2  0  0  0  0  0  0  0  0  0
   37.9350   25.0340   36.1240 C   0  0  0  0  0  0  0  0  0  0  0  0
   37.8030   23.6450   36.0440 C   0  0  0  0  0  0  0  0  0  0  0  0
   37.8150   22.8130   37.1660 C   0  0  0  0  0  0  0  0  0  0  0  0
   37.9660   23.4090   38.4020 C   0  0  0  0  0  0  0  0  0  0  0  0
   38.1020   24.7880   38.5500 C   0  0  0  0  0  0  0  0  0  0  0  0
   38.0810   25.5450   37.3950 C   0  0  0  0  0  0  0  0  0  0  0  0
   40.3530   25.2900   34.6790 C   0  0  0  0  0  0  0  0  0  0  0  0
   39.4390   23.0630   31.8650 C   0  0  0  0  0  0  0  0  0  0  0  0
   40.4540   23.3060   30.9520 C   0  0  0  0  0  0  0  0  0  0  0  0
   41.4190   24.2170   31.3190 C   0  0  0  0  0  0  0  0  0  0  0  0
   41.3270   24.8170   32.5290 N   0  0  0  0  0  0  0  0  0  0  0  0
   40.3490   24.5740   33.3900 C   0  0  0  0  0  0  0  0  0  0  0  0
   39.3770   23.6780   33.0620 N   0  0  0  0  0  0  0  0  0  0  0  0
   40.3970   22.5950   29.7410 N   0  0  0  0  0  0  0  0  0  0  0  0
   40.9650   21.3660   29.7420 C   0  0  0  0  0  0  0  0  0  0  0  0
   40.9300   20.6430   28.5710 C   0  0  0  0  0  0  0  0  0  0  0  0
   40.3180   21.2150   27.4740 C   0  0  0  0  0  0  0  0  0  0  0  0
   40.2810   20.4890   26.2800 N   0  0  0  0  0  0  0  0  0  0  0  0
   39.7750   22.4310   27.5350 N   0  0  0  0  0  0  0  0  0  0  0  0
   39.8070   23.1460   28.6820 C   0  0  0  0  0  0  0  0  0  0  0  0
   39.2850   24.2860   28.6940 O   0  0  0  0  0  0  0  0  0  0  0  0
   39.4818   27.1869   35.2597 H   0  0  0  0  0  0  0  0  0  0  0  0
   39.7882   28.0404   33.3508 H   0  0  0  0  0  0  0  0  0  0  0  0
   39.9971   26.4603   32.5537 H   0  0  0  0  0  0  0  0  0  0  0  0
   37.9111   27.7294   31.7668 H   0  0  0  0  0  0  0  0  0  0  0  0
   37.5218   26.1365   32.4525 H   0  0  0  0  0  0  0  0  0  0  0  0
   37.5458   28.7846   33.9685 H   0  0  0  0  0  0  0  0  0  0  0  0
   36.0742   27.8874   33.3500 H   0  0  0  0  0  0  0  0  0  0  0  0
   37.3347   27.6584   35.8692 H   0  0  0  0  0  0  0  0  0  0  0  0
   35.9615   26.7299   35.2233 H   0  0  0  0  0  0  0  0  0  0  0  0
   37.5565   25.1169   34.1097 H   0  0  0  0  0  0  0  0  0  0  0  0
   37.6842   23.1857   35.0516 H   0  0  0  0  0  0  0  0  0  0  0  0
   37.7080   21.7226   37.0682 H   0  0  0  0  0  0  0  0  0  0  0  0
   37.9794   22.7741   39.3002 H   0  0  0  0  0  0  0  0  0  0  0  0
   38.2205   25.2519   39.5403 H   0  0  0  0  0  0  0  0  0  0  0  0
   38.1887   26.6349   37.4974 H   0  0  0  0  0  0  0  0  0  0  0  0
   41.3398   25.7375   34.8686 H   0  0  0  0  0  0  0  0  0  0  0  0
   40.1421   24.6174   35.5234 H   0  0  0  0  0  0  0  0  0  0  0  0
   38.6534   22.3395   31.6015 H   0  0  0  0  0  0  0  0  0  0  0  0
   42.2514   24.4535   30.6399 H   0  0  0  0  0  0  0  0  0  0  0  0
   41.4384   20.9590   30.6477 H   0  0  0  0  0  0  0  0  0  0  0  0
   41.3764   19.6394   28.5114 H   0  0  0  0  0  0  0  0  0  0  0  0
   40.7012   19.5497   26.2352 H   0  0  0  0  0  0  0  0  0  0  0  0
   39.8336   20.8934   25.4450 H   0  0  0  0  0  0  0  0  0  0  0  0
  1 13  1  0
  1  6  1  0
  2  1  1  0
  3  2  1  0
  3  4  1  0
  4  5  1  0
  6  5  1  0
  6  7  1  0
  7 12  1  0
  8  7  2  0
  8  9  1  0
  9 10  2  0
 10 11  1  0
 12 11  2  0
 14 19  2  0
 15 16  2  0
 15 14  1  0
 16 17  1  0
 17 18  2  0
 18 13  1  0
 19 18  1  0
 20 21  1  0
 20 15  1  0
 22 21  2  0
 23 25  2  0
 23 22  1  0
 24 23  1  0
 25 26  1  0
 26 27  2  0
 26 20  1  0
  1 28  1  1
  2 29  1  0
  2 30  1  0
  3 31  1  0
  3 32  1  0
  4 33  1  0
  4 34  1  0
  5 35  1  0
  5 36  1  0
  6 37  1  6
  8 38  1  0
  9 39  1  0
 10 40  1  0
 11 41  1  0
 12 42  1  0
 13 43  1  0
 13 44  1  0
 14 45  1  0
 16 46  1  0
 21 47  1  0
 22 48  1  0
 24 49  1  0
 24 50  1  0
M  ISO  8  28  13  29  13  30  13  31  13  32  13  33  13  34  13  35  13
M  ISO  8  36  13  37  13  38  14  39  14  40  14  41  14  42  14  43   8
M  ISO  5  44   8  45  14  46  14  47  14  48  14
M  END
>  <minimizedAffinity>  (1) 
-4.38302135

>  <minimizedRMSD>  (1) 
3.27640057

$$$$
