
     RDKit          3D

 35 38  0  0  0  0  0  0  0  0999 V2000
   38.9490   23.2240   37.5390 C   0  0  0  0  0  0  0  0  0  0  0  0
   40.2750   22.8920   37.1460 C   0  0  0  0  0  0  0  0  0  0  0  0
   40.7360   23.4590   35.9900 C   0  0  0  0  0  0  0  0  0  0  0  0
   39.8880   24.2720   35.3390 N   0  0  0  0  0  0  0  0  0  0  0  0
   38.6700   24.5910   35.6760 C   0  0  0  0  0  0  0  0  0  0  0  0
   38.2020   24.0440   36.8100 N   0  0  0  0  0  0  0  0  0  0  0  0
   38.0010   25.4670   34.8170 N   0  0  0  0  0  0  0  0  0  0  0  0
   37.6850   26.7080   35.2800 C   0  0  0  0  0  0  0  0  0  0  0  0
   37.0310   27.3990   34.2680 C   0  0  0  0  0  0  0  0  0  0  0  0
   36.9670   26.5720   33.2270 N   0  0  0  0  0  0  0  0  0  0  0  0
   37.5610   25.3730   33.5470 C   0  0  0  0  0  0  0  0  0  0  0  0
   37.6220   24.2380   32.6930 C   0  0  0  0  0  0  0  0  0  0  0  0
   37.0710   22.9900   33.0870 C   0  0  0  0  0  0  0  0  0  0  0  0
   37.2940   22.0500   32.1030 N   0  0  0  0  0  0  0  0  0  0  0  0
   37.9880   22.7420   31.1090 C   0  0  0  0  0  0  0  0  0  0  0  0
   38.1330   23.9900   31.5170 N   0  0  0  0  0  0  0  0  0  0  0  0
   38.7150   24.6130   30.4170 C   0  0  0  0  0  0  0  0  0  0  0  0
   38.9660   23.7040   29.4190 C   0  0  0  0  0  0  0  0  0  0  0  0
   39.5980   24.0370   28.2140 C   0  0  0  0  0  0  0  0  0  0  0  0
   39.9910   25.3540   28.0230 C   0  0  0  0  0  0  0  0  0  0  0  0
   39.7190   26.2280   29.0490 C   0  0  0  0  0  0  0  0  0  0  0  0
   39.0980   25.8870   30.2220 N   0  0  0  0  0  0  0  0  0  0  0  0
   38.4350   22.6560   38.7570 N   0  0  0  0  0  0  0  0  0  0  0  0
   40.8998   22.2117   37.7433 H   0  0  0  0  0  0  0  0  0  0  0  0
   41.7498   23.2594   35.6126 H   0  0  0  0  0  0  0  0  0  0  0  0
   37.9094   27.0969   36.2842 H   0  0  0  0  0  0  0  0  0  0  0  0
   36.6426   28.4270   34.3172 H   0  0  0  0  0  0  0  0  0  0  0  0
   36.5453   22.8014   34.0347 H   0  0  0  0  0  0  0  0  0  0  0  0
   38.3489   22.3237   30.1578 H   0  0  0  0  0  0  0  0  0  0  0  0
   38.6547   22.6604   29.5737 H   0  0  0  0  0  0  0  0  0  0  0  0
   39.7777   23.2756   27.4407 H   0  0  0  0  0  0  0  0  0  0  0  0
   40.4931   25.6812   27.1006 H   0  0  0  0  0  0  0  0  0  0  0  0
   40.0220   27.2774   28.9187 H   0  0  0  0  0  0  0  0  0  0  0  0
   37.4780   22.8792   39.0657 H   0  0  0  0  0  0  0  0  0  0  0  0
   39.0240   22.0262   39.3202 H   0  0  0  0  0  0  0  0  0  0  0  0
  1 23  1  0
  2  1  2  0
  3  2  1  0
  4  5  1  0
  4  3  2  0
  5  6  2  0
  6  1  1  0
  7  8  1  0
  7  5  1  0
  9  8  2  0
 10 11  2  0
 10  9  1  0
 11  7  1  0
 12 13  2  0
 12 11  1  0
 14 13  1  0
 15 16  1  0
 15 14  2  0
 16 12  1  0
 17 16  1  0
 18 17  2  0
 19 18  1  0
 20 19  2  0
 20 21  1  0
 21 22  2  0
 22 17  1  0
  2 24  1  0
  3 25  1  0
  8 26  1  0
  9 27  1  0
 13 28  1  0
 15 29  1  0
 18 30  1  0
 19 31  1  0
 20 32  1  0
 21 33  1  0
 23 34  1  0
 23 35  1  0
M  ISO  8  24  14  25  14  26  14  27  14  28  14  29  14  30  14  31  14
M  ISO  2  32  14  33  14
M  END
>  <minimizedAffinity>  (1) 
-5.31454802

>  <minimizedRMSD>  (1) 
2.64575839

$$$$
