
     RDKit          3D

 33 36  0  0  0  0  0  0  0  0999 V2000
   38.2340   23.1490   37.5030 C   0  0  0  0  0  0  0  0  0  0  0  0
   39.6320   22.9530   37.5560 C   0  0  0  0  0  0  0  0  0  0  0  0
   40.3670   23.5090   36.5470 C   0  0  0  0  0  0  0  0  0  0  0  0
   39.6910   24.1860   35.6020 N   0  0  0  0  0  0  0  0  0  0  0  0
   38.4060   24.3770   35.5330 C   0  0  0  0  0  0  0  0  0  0  0  0
   37.6650   23.8370   36.5200 N   0  0  0  0  0  0  0  0  0  0  0  0
   37.9460   25.1230   34.4410 N   0  0  0  0  0  0  0  0  0  0  0  0
   37.3890   26.3410   34.6840 C   0  0  0  0  0  0  0  0  0  0  0  0
   37.0060   26.8950   33.4700 C   0  0  0  0  0  0  0  0  0  0  0  0
   37.3360   26.0080   32.5300 N   0  0  0  0  0  0  0  0  0  0  0  0
   37.9170   24.9090   33.1130 C   0  0  0  0  0  0  0  0  0  0  0  0
   38.3480   23.7450   32.4200 C   0  0  0  0  0  0  0  0  0  0  0  0
   39.6870   23.6380   31.9210 C   0  0  0  0  0  0  0  0  0  0  0  0
   39.8350   22.4380   31.2580 N   0  0  0  0  0  0  0  0  0  0  0  0
   38.5910   21.8250   31.3560 C   0  0  0  0  0  0  0  0  0  0  0  0
   37.7900   22.6270   32.0400 N   0  0  0  0  0  0  0  0  0  0  0  0
   36.6350   21.8670   32.2280 C   0  0  0  0  0  0  0  0  0  0  0  0
   35.5040   21.5580   31.5220 C   0  0  0  0  0  0  0  0  0  0  0  0
   34.6840   20.7000   32.2760 C   0  0  0  0  0  0  0  0  0  0  0  0
   35.4320   20.5630   33.4260 C   0  0  0  0  0  0  0  0  0  0  0  0
   36.5510   21.2430   33.3750 O   0  0  0  0  0  0  0  0  0  0  0  0
   37.4240   22.5970   38.5600 N   0  0  0  0  0  0  0  0  0  0  0  0
   40.1050   22.3817   38.3684 H   0  0  0  0  0  0  0  0  0  0  0  0
   41.4617   23.4074   36.5095 H   0  0  0  0  0  0  0  0  0  0  0  0
   37.2638   26.8065   35.6727 H   0  0  0  0  0  0  0  0  0  0  0  0
   36.5255   27.8721   33.3141 H   0  0  0  0  0  0  0  0  0  0  0  0
   40.4745   24.3955   32.0472 H   0  0  0  0  0  0  0  0  0  0  0  0
   38.3196   20.8444   30.9380 H   0  0  0  0  0  0  0  0  0  0  0  0
   35.2706   21.9269   30.5123 H   0  0  0  0  0  0  0  0  0  0  0  0
   33.7102   20.2581   32.0183 H   0  0  0  0  0  0  0  0  0  0  0  0
   35.1246   19.9526   34.2879 H   0  0  0  0  0  0  0  0  0  0  0  0
   36.4021   22.7251   38.5461 H   0  0  0  0  0  0  0  0  0  0  0  0
   37.8672   22.0745   39.3291 H   0  0  0  0  0  0  0  0  0  0  0  0
  1  2  2  0
  1 22  1  0
  3  2  1  0
  4  3  2  0
  5  4  1  0
  5  6  2  0
  6  1  1  0
  7  8  1  0
  7  5  1  0
  9  8  2  0
 10 11  2  0
 10  9  1  0
 11  7  1  0
 12 11  1  0
 13 12  2  0
 14 15  2  0
 14 13  1  0
 15 16  1  0
 16 17  1  0
 16 12  1  0
 17 21  1  0
 18 17  2  0
 18 19  1  0
 19 20  2  0
 21 20  1  0
  2 23  1  0
  3 24  1  0
  8 25  1  0
  9 26  1  0
 13 27  1  0
 15 28  1  0
 18 29  1  0
 19 30  1  0
 20 31  1  0
 22 32  1  0
 22 33  1  0
M  ISO  8  23  14  24  14  25  14  26  14  27  14  28  14  29  14  30  14
M  ISO  1  31  14
M  END
>  <minimizedAffinity>  (1) 
-5.38203764

>  <minimizedRMSD>  (1) 
2.93917561

$$$$
