
     RDKit          3D

 34 37  0  0  0  0  0  0  0  0999 V2000
   38.9750   23.1740   37.6230 C   0  0  0  0  0  0  0  0  0  0  0  0
   40.3070   22.8440   37.2570 C   0  0  0  0  0  0  0  0  0  0  0  0
   40.7770   23.3950   36.1030 C   0  0  0  0  0  0  0  0  0  0  0  0
   39.9360   24.1930   35.4260 N   0  0  0  0  0  0  0  0  0  0  0  0
   38.7140   24.5110   35.7350 C   0  0  0  0  0  0  0  0  0  0  0  0
   38.2280   23.9790   36.8720 N   0  0  0  0  0  0  0  0  0  0  0  0
   38.0440   25.3620   34.8510 N   0  0  0  0  0  0  0  0  0  0  0  0
   37.7070   26.6060   35.2850 C   0  0  0  0  0  0  0  0  0  0  0  0
   37.0490   27.2660   34.2570 C   0  0  0  0  0  0  0  0  0  0  0  0
   37.0010   26.4160   33.2320 N   0  0  0  0  0  0  0  0  0  0  0  0
   37.6120   25.2350   33.5830 C   0  0  0  0  0  0  0  0  0  0  0  0
   37.7100   24.0900   32.7520 C   0  0  0  0  0  0  0  0  0  0  0  0
   37.2000   22.8270   33.1660 C   0  0  0  0  0  0  0  0  0  0  0  0
   37.4390   21.8780   32.1930 N   0  0  0  0  0  0  0  0  0  0  0  0
   38.1020   22.5810   31.1830 C   0  0  0  0  0  0  0  0  0  0  0  0
   38.2120   23.8330   31.5740 N   0  0  0  0  0  0  0  0  0  0  0  0
   38.7620   24.4690   30.4560 C   0  0  0  0  0  0  0  0  0  0  0  0
   39.1530   25.7840   30.3000 C   0  0  0  0  0  0  0  0  0  0  0  0
   39.7420   26.2020   29.0970 C   0  0  0  0  0  0  0  0  0  0  0  0
   39.9110   25.2990   28.1150 N   0  0  0  0  0  0  0  0  0  0  0  0
   39.5210   24.0260   28.2930 C   0  0  0  0  0  0  0  0  0  0  0  0
   38.9460   23.5910   29.4510 N   0  0  0  0  0  0  0  0  0  0  0  0
   38.4400   22.6450   38.8570 N   0  0  0  0  0  0  0  0  0  0  0  0
   40.9276   22.1774   37.8739 H   0  0  0  0  0  0  0  0  0  0  0  0
   41.7971   23.1955   35.7431 H   0  0  0  0  0  0  0  0  0  0  0  0
   37.9200   27.0190   36.2820 H   0  0  0  0  0  0  0  0  0  0  0  0
   36.6463   28.2893   34.2831 H   0  0  0  0  0  0  0  0  0  0  0  0
   36.6900   22.6355   34.1217 H   0  0  0  0  0  0  0  0  0  0  0  0
   38.4661   22.1633   30.2328 H   0  0  0  0  0  0  0  0  0  0  0  0
   39.0028   26.5035   31.1184 H   0  0  0  0  0  0  0  0  0  0  0  0
   40.0589   27.2464   28.9601 H   0  0  0  0  0  0  0  0  0  0  0  0
   39.6710   23.3071   27.4740 H   0  0  0  0  0  0  0  0  0  0  0  0
   37.4762   22.8728   39.1399 H   0  0  0  0  0  0  0  0  0  0  0  0
   39.0226   22.0402   39.4535 H   0  0  0  0  0  0  0  0  0  0  0  0
  1 23  1  0
  2  1  2  0
  3  2  1  0
  4  5  1  0
  4  3  2  0
  5  6  2  0
  6  1  1  0
  7  8  1  0
  7  5  1  0
  9  8  2  0
 10 11  2  0
 10  9  1  0
 11  7  1  0
 12 13  2  0
 12 11  1  0
 14 13  1  0
 15 16  1  0
 15 14  2  0
 16 12  1  0
 17 16  1  0
 18 17  2  0
 19 18  1  0
 20 21  1  0
 20 19  2  0
 21 22  2  0
 22 17  1  0
  2 24  1  0
  3 25  1  0
  8 26  1  0
  9 27  1  0
 13 28  1  0
 15 29  1  0
 18 30  1  0
 19 31  1  0
 21 32  1  0
 23 33  1  0
 23 34  1  0
M  ISO  8  24  14  25  14  26  14  27  14  28  14  29  14  30  14  31  14
M  ISO  1  32  14
M  END
>  <minimizedAffinity>  (1) 
-5.26669645

>  <minimizedRMSD>  (1) 
2.43286562

$$$$
