
     RDKit          3D

 33 36  0  0  0  0  0  0  0  0999 V2000
   38.2900   23.2410   37.3490 C   0  0  0  0  0  0  0  0  0  0  0  0
   39.6730   22.9810   37.2130 C   0  0  0  0  0  0  0  0  0  0  0  0
   40.3130   23.5840   36.1680 C   0  0  0  0  0  0  0  0  0  0  0  0
   39.5650   24.3650   35.3690 N   0  0  0  0  0  0  0  0  0  0  0  0
   38.2940   24.6180   35.4700 C   0  0  0  0  0  0  0  0  0  0  0  0
   37.6500   24.0320   36.4960 N   0  0  0  0  0  0  0  0  0  0  0  0
   37.7520   25.4700   34.5020 N   0  0  0  0  0  0  0  0  0  0  0  0
   37.2960   26.6880   34.9030 C   0  0  0  0  0  0  0  0  0  0  0  0
   36.8040   27.3560   33.7910 C   0  0  0  0  0  0  0  0  0  0  0  0
   36.9710   26.5350   32.7550 N   0  0  0  0  0  0  0  0  0  0  0  0
   37.5550   25.3660   33.1750 C   0  0  0  0  0  0  0  0  0  0  0  0
   37.8400   24.2450   32.3470 C   0  0  0  0  0  0  0  0  0  0  0  0
   38.7300   24.3610   31.2330 C   0  0  0  0  0  0  0  0  0  0  0  0
   38.8010   23.1530   30.5700 N   0  0  0  0  0  0  0  0  0  0  0  0
   37.9540   22.3090   31.2870 C   0  0  0  0  0  0  0  0  0  0  0  0
   37.4460   23.0020   32.2910 N   0  0  0  0  0  0  0  0  0  0  0  0
   35.1360   20.5870   33.2480 N   0  0  0  0  0  0  0  0  0  0  0  0
   35.7450   21.4300   32.4160 N   0  0  0  0  0  0  0  0  0  0  0  0
   36.7500   22.0530   33.0360 C   0  0  0  0  0  0  0  0  0  0  0  0
   36.7420   21.5560   34.3120 C   0  0  0  0  0  0  0  0  0  0  0  0
   35.7080   20.6120   34.4580 C   0  0  0  0  0  0  0  0  0  0  0  0
   37.5830   22.6370   38.4500 N   0  0  0  0  0  0  0  0  0  0  0  0
   40.2079   22.3246   37.9151 H   0  0  0  0  0  0  0  0  0  0  0  0
   41.3884   23.4378   35.9887 H   0  0  0  0  0  0  0  0  0  0  0  0
   37.3144   27.0762   35.9321 H   0  0  0  0  0  0  0  0  0  0  0  0
   36.3634   28.3637   33.7690 H   0  0  0  0  0  0  0  0  0  0  0  0
   39.2744   25.2735   30.9485 H   0  0  0  0  0  0  0  0  0  0  0  0
   37.7456   21.2536   31.0577 H   0  0  0  0  0  0  0  0  0  0  0  0
   34.3323   19.9949   32.9943 H   0  0  0  0  0  0  0  0  0  0  0  0
   37.4420   21.8515   35.1074 H   0  0  0  0  0  0  0  0  0  0  0  0
   35.4352   20.0331   35.3527 H   0  0  0  0  0  0  0  0  0  0  0  0
   36.5750   22.8102   38.5719 H   0  0  0  0  0  0  0  0  0  0  0  0
   38.0857   22.0321   39.1150 H   0  0  0  0  0  0  0  0  0  0  0  0
  1 22  1  0
  2  1  2  0
  3  2  1  0
  4  5  1  0
  4  3  2  0
  5  6  2  0
  6  1  1  0
  7  8  1  0
  7  5  1  0
  9  8  2  0
 10 11  2  0
 10  9  1  0
 11  7  1  0
 12 11  1  0
 13 12  2  0
 14 13  1  0
 14 15  2  0
 15 16  1  0
 16 12  1  0
 16 19  1  0
 17 21  1  0
 18 19  2  0
 18 17  1  0
 19 20  1  0
 20 21  2  0
  2 23  1  0
  3 24  1  0
  8 25  1  0
  9 26  1  0
 13 27  1  0
 15 28  1  0
 17 29  1  0
 20 30  1  0
 21 31  1  0
 22 32  1  0
 22 33  1  0
M  ISO  8  23  14  24  14  25  14  26  14  27  14  28  14  29   9  30  14
M  ISO  1  31  14
M  END
>  <minimizedAffinity>  (1) 
-5.61600447

>  <minimizedRMSD>  (1) 
2.56131911

$$$$
