
     RDKit          3D

 38 40  0  0  0  0  0  0  0  0999 V2000
   38.6680   22.9740   37.3270 C   0  0  0  0  0  0  0  0  0  0  0  0
   40.0380   22.6410   37.2590 C   0  0  0  0  0  0  0  0  0  0  0  0
   40.6110   22.6490   36.0320 C   0  0  0  0  0  0  0  0  0  0  0  0
   39.7840   22.9770   35.0200 N   0  0  0  0  0  0  0  0  0  0  0  0
   38.5410   23.2840   35.0230 C   0  0  0  0  0  0  0  0  0  0  0  0
   37.9760   23.2780   36.2360 N   0  0  0  0  0  0  0  0  0  0  0  0
   37.9690   23.5990   33.7930 N   0  0  0  0  0  0  0  0  0  0  0  0
   37.5330   24.8770   33.5950 C   0  0  0  0  0  0  0  0  0  0  0  0
   37.0020   24.9540   32.3120 C   0  0  0  0  0  0  0  0  0  0  0  0
   37.1300   23.7340   31.7780 N   0  0  0  0  0  0  0  0  0  0  0  0
   37.7210   22.8940   32.6750 C   0  0  0  0  0  0  0  0  0  0  0  0
   37.9300   21.5030   32.4540 C   0  0  0  0  0  0  0  0  0  0  0  0
   39.2580   21.0170   32.0210 C   0  0  0  0  0  0  0  0  0  0  0  0
   39.1060   19.6890   31.7500 N   0  0  0  0  0  0  0  0  0  0  0  0
   37.7930   19.3670   32.0020 C   0  0  0  0  0  0  0  0  0  0  0  0
   37.1500   20.4460   32.4190 N   0  0  0  0  0  0  0  0  0  0  0  0
   35.8660   20.0150   32.9250 C   0  0  0  0  0  0  0  0  0  0  0  0
   35.6570   20.6420   34.2710 C   0  0  0  0  0  0  0  0  0  0  0  0
   35.3520   18.6830   32.6300 C   0  0  0  0  0  0  0  0  0  0  0  0
   34.6720   20.7950   32.1700 C   0  0  0  0  0  0  0  0  0  0  0  0
   38.0130   23.0180   38.6200 N   0  0  0  0  0  0  0  0  0  0  0  0
   40.6137   22.3867   38.1612 H   0  0  0  0  0  0  0  0  0  0  0  0
   41.6720   22.4060   35.8734 H   0  0  0  0  0  0  0  0  0  0  0  0
   37.5913   25.7006   34.3218 H   0  0  0  0  0  0  0  0  0  0  0  0
   36.5639   25.8414   31.8318 H   0  0  0  0  0  0  0  0  0  0  0  0
   40.1820   21.6075   31.9349 H   0  0  0  0  0  0  0  0  0  0  0  0
   37.3472   18.3692   31.8767 H   0  0  0  0  0  0  0  0  0  0  0  0
   35.9003   19.9122   35.0572 H   0  0  0  0  0  0  0  0  0  0  0  0
   36.3108   21.5209   34.3716 H   0  0  0  0  0  0  0  0  0  0  0  0
   34.6066   20.9529   34.3716 H   0  0  0  0  0  0  0  0  0  0  0  0
   35.1472   18.1522   33.5714 H   0  0  0  0  0  0  0  0  0  0  0  0
   34.4226   18.7692   32.0480 H   0  0  0  0  0  0  0  0  0  0  0  0
   36.0984   18.1225   32.0480 H   0  0  0  0  0  0  0  0  0  0  0  0
   33.9945   21.2376   32.9150 H   0  0  0  0  0  0  0  0  0  0  0  0
   35.0950   21.5915   31.5402 H   0  0  0  0  0  0  0  0  0  0  0  0
   34.1126   20.0876   31.5402 H   0  0  0  0  0  0  0  0  0  0  0  0
   37.0137   23.2596   38.6832 H   0  0  0  0  0  0  0  0  0  0  0  0
   38.5470   22.8076   39.4753 H   0  0  0  0  0  0  0  0  0  0  0  0
  1 21  1  0
  2  1  2  0
  3  2  1  0
  4  5  1  0
  4  3  2  0
  5  6  2  0
  6  1  1  0
  7  5  1  0
  8  7  1  0
  9  8  2  0
 10  9  1  0
 10 11  2  0
 11  7  1  0
 12 11  1  0
 13 12  2  0
 14 15  2  0
 14 13  1  0
 15 16  1  0
 16 12  1  0
 16 17  1  0
 17 18  1  0
 19 17  1  0
 20 17  1  0
  2 22  1  0
  3 23  1  0
  8 24  1  0
  9 25  1  0
 13 26  1  0
 15 27  1  0
 18 28  1  0
 18 29  1  0
 18 30  1  0
 19 31  1  0
 19 32  1  0
 19 33  1  0
 20 34  1  0
 20 35  1  0
 20 36  1  0
 21 37  1  0
 21 38  1  0
M  ISO  8  22  14  23  14  24  14  25  14  26  14  27  14  28   8  29   8
M  ISO  7  30   8  31   8  32   8  33   8  34   8  35   8  36   8
M  END
>  <minimizedAffinity>  (1) 
-5.35544682

>  <minimizedRMSD>  (1) 
3.69849205

$$$$
