
     RDKit          3D

 23 24  0  0  0  0  0  0  0  0999 V2000
   36.0640   20.8300   33.0690 C   0  0  0  0  0  0  0  0  0  0  0  0
   35.5920   20.5360   34.3320 C   0  0  0  0  0  0  0  0  0  0  0  0
   36.2880   21.1090   35.3760 C   0  0  0  0  0  0  0  0  0  0  0  0
   37.3900   21.9290   35.2330 C   0  0  0  0  0  0  0  0  0  0  0  0
   37.8060   22.1790   33.9390 C   0  0  0  0  0  0  0  0  0  0  0  0
   37.1720   21.6490   32.8250 C   0  0  0  0  0  0  0  0  0  0  0  0
   39.9780   22.7780   37.6840 C   0  0  0  0  0  0  0  0  0  0  0  0
   39.2660   23.5570   38.6240 C   0  0  0  0  0  0  0  0  0  0  0  0
   37.9070   23.7720   38.3920 C   0  0  0  0  0  0  0  0  0  0  0  0
   37.3410   23.2280   37.2820 N   0  0  0  0  0  0  0  0  0  0  0  0
   38.0580   22.4870   36.4060 C   0  0  0  0  0  0  0  0  0  0  0  0
   39.3650   22.2570   36.5940 N   0  0  0  0  0  0  0  0  0  0  0  0
   35.2350   20.1430   31.7040 S   0  0  0  0  0  0  0  0  0  0  0  0
   36.1110   20.0140   30.4970 O   0  0  0  0  0  0  0  0  0  0  0  0
   34.7170   18.7900   32.1360 O   0  0  0  0  0  0  0  0  0  0  0  0
   34.7185   19.8876   34.4954 H   0  0  0  0  0  0  0  0  0  0  0  0
   35.9396   20.8972   36.3977 H   0  0  0  0  0  0  0  0  0  0  0  0
   38.6805   22.8284   33.7854 H   0  0  0  0  0  0  0  0  0  0  0  0
   37.5217   21.8613   31.8039 H   0  0  0  0  0  0  0  0  0  0  0  0
   41.0507   22.5911   37.8404 H   0  0  0  0  0  0  0  0  0  0  0  0
   39.7660   23.9793   39.5081 H   0  0  0  0  0  0  0  0  0  0  0  0
   37.3057   24.3696   39.0930 H   0  0  0  0  0  0  0  0  0  0  0  0
   34.2135   20.9750   31.3283 H   0  0  0  0  0  0  0  0  0  0  0  0
  1  2  2  0
  2  3  1  0
  4  3  2  0
  4 11  1  0
  5  4  1  0
  6  1  1  0
  6  5  2  0
  7  8  2  0
  9  8  1  0
 10  9  2  0
 11 12  2  0
 11 10  1  0
 12  7  1  0
 13 15  2  0
 13  1  1  0
 14 13  2  0
  2 16  1  0
  3 17  1  0
  5 18  1  0
  6 19  1  0
  7 20  1  0
  8 21  1  0
  9 22  1  0
 13 23  1  0
M  ISO  8  16  14  17  14  18  14  19  14  20  14  21  14  22  14  23  11
M  END
>  <minimizedAffinity>  (1) 
-4.44274664

>  <minimizedRMSD>  (1) 
1.82093227

$$$$
