
     RDKit          3D

 52 55  0  0  1  0  0  0  0  0999 V2000
   40.6330   22.4140   34.9150 C   0  0  0  0  0  0  0  0  0  0  0  0
   40.3140   23.8830   34.6180 C   0  0  1  0  0  0  0  0  0  0  0  0
   40.5620   24.2160   33.2370 C   0  0  0  0  0  0  0  0  0  0  0  0
   39.3700   25.0510   32.7340 C   0  0  0  0  0  0  0  0  0  0  0  0
   39.2090   26.1870   33.6850 C   0  0  0  0  0  0  0  0  0  0  0  0
   38.8420   25.7600   35.0840 C   0  0  0  0  0  0  0  0  0  0  0  0
   38.9120   24.2350   35.1260 C   0  0  2  0  0  0  0  0  0  0  0  0
   38.6470   23.7000   36.4160 N   0  0  0  0  0  0  0  0  0  0  0  0
   37.9570   24.7300   37.2090 C   0  0  0  0  0  0  0  0  0  0  0  0
   37.7330   23.9010   38.4850 C   0  0  0  0  0  0  0  0  0  0  0  0
   39.1030   23.2330   38.6120 C   0  0  0  0  0  0  0  0  0  0  0  0
   39.7840   23.4310   37.2500 C   0  0  0  0  0  0  0  0  0  0  0  0
   38.0800   20.9430   32.6620 C   0  0  0  0  0  0  0  0  0  0  0  0
   38.8590   20.2150   31.7720 C   0  0  0  0  0  0  0  0  0  0  0  0
   40.2210   20.2410   31.9640 C   0  0  0  0  0  0  0  0  0  0  0  0
   40.7300   20.9600   32.9890 N   0  0  0  0  0  0  0  0  0  0  0  0
   39.9680   21.6560   33.8350 C   0  0  0  0  0  0  0  0  0  0  0  0
   38.6150   21.6540   33.6780 N   0  0  0  0  0  0  0  0  0  0  0  0
   38.1780   19.5180   30.7570 N   0  0  0  0  0  0  0  0  0  0  0  0
   37.5190   18.3970   31.1540 C   0  0  0  0  0  0  0  0  0  0  0  0
   36.8400   17.6850   30.1890 C   0  0  0  0  0  0  0  0  0  0  0  0
   36.8730   18.1560   28.8870 C   0  0  0  0  0  0  0  0  0  0  0  0
   36.1940   17.4570   27.8860 N   0  0  0  0  0  0  0  0  0  0  0  0
   37.5420   19.2660   28.5680 N   0  0  0  0  0  0  0  0  0  0  0  0
   38.2120   19.9710   29.5090 C   0  0  0  0  0  0  0  0  0  0  0  0
   38.8250   21.0040   29.1660 O   0  0  0  0  0  0  0  0  0  0  0  0
   41.7193   22.2422   34.8964 H   0  0  0  0  0  0  0  0  0  0  0  0
   40.2842   22.1074   35.9122 H   0  0  0  0  0  0  0  0  0  0  0  0
   41.0069   24.5282   35.1780 H   0  0  0  0  0  0  0  0  0  0  0  0
   41.4902   24.8004   33.1536 H   0  0  0  0  0  0  0  0  0  0  0  0
   40.6729   23.3022   32.6348 H   0  0  0  0  0  0  0  0  0  0  0  0
   39.5736   25.4304   31.7217 H   0  0  0  0  0  0  0  0  0  0  0  0
   38.4544   24.4433   32.6860 H   0  0  0  0  0  0  0  0  0  0  0  0
   40.1587   26.7403   33.7288 H   0  0  0  0  0  0  0  0  0  0  0  0
   38.3798   26.8048   33.3099 H   0  0  0  0  0  0  0  0  0  0  0  0
   39.5511   26.1895   35.8070 H   0  0  0  0  0  0  0  0  0  0  0  0
   37.8331   26.1111   35.3465 H   0  0  0  0  0  0  0  0  0  0  0  0
   38.1294   23.7852   34.4974 H   0  0  0  0  0  0  0  0  0  0  0  0
   38.5906   25.6108   37.3899 H   0  0  0  0  0  0  0  0  0  0  0  0
   37.0570   25.1685   36.7533 H   0  0  0  0  0  0  0  0  0  0  0  0
   37.5081   24.5393   39.3522 H   0  0  0  0  0  0  0  0  0  0  0  0
   36.8811   23.2064   38.4425 H   0  0  0  0  0  0  0  0  0  0  0  0
   39.6914   23.7110   39.4091 H   0  0  0  0  0  0  0  0  0  0  0  0
   39.0151   22.1681   38.8732 H   0  0  0  0  0  0  0  0  0  0  0  0
   40.3163   22.5238   36.9281 H   0  0  0  0  0  0  0  0  0  0  0  0
   40.5542   24.2162   37.2363 H   0  0  0  0  0  0  0  0  0  0  0  0
   36.9874   20.9404   32.5347 H   0  0  0  0  0  0  0  0  0  0  0  0
   40.8883   19.6828   31.2908 H   0  0  0  0  0  0  0  0  0  0  0  0
   37.5275   18.0710   32.2046 H   0  0  0  0  0  0  0  0  0  0  0  0
   36.2877   16.7689   30.4455 H   0  0  0  0  0  0  0  0  0  0  0  0
   36.2130   17.7999   26.9149 H   0  0  0  0  0  0  0  0  0  0  0  0
   35.6744   16.5988   28.1190 H   0  0  0  0  0  0  0  0  0  0  0  0
  2  1  1  0
  2  7  1  0
  3  2  1  0
  4  3  1  0
  4  5  1  0
  5  6  1  0
  6  7  1  0
  7  8  1  0
  8  9  1  0
  8 12  1  0
  9 10  1  0
 10 11  1  0
 12 11  1  0
 13 18  2  0
 14 15  2  0
 14 13  1  0
 15 16  1  0
 16 17  2  0
 17  1  1  0
 18 17  1  0
 19 20  1  0
 19 14  1  0
 21 20  2  0
 22 21  1  0
 23 22  1  0
 24 22  2  0
 24 25  1  0
 25 19  1  0
 26 25  2  0
  1 27  1  0
  1 28  1  0
  2 29  1  1
  3 30  1  0
  3 31  1  0
  4 32  1  0
  4 33  1  0
  5 34  1  0
  5 35  1  0
  6 36  1  0
  6 37  1  0
  7 38  1  6
  9 39  1  0
  9 40  1  0
 10 41  1  0
 10 42  1  0
 11 43  1  0
 11 44  1  0
 12 45  1  0
 12 46  1  0
 13 47  1  0
 15 48  1  0
 20 49  1  0
 21 50  1  0
 23 51  1  0
 23 52  1  0
M  ISO  8  27   8  28   8  29  13  30  13  31  13  32  13  33  13  34  13
M  ISO  8  35  13  36  13  37  13  38  13  39  13  40  13  41  13  42  13
M  ISO  8  43  13  44  13  45  13  46  13  47  14  48  14  49  14  50  14
M  END
>  <minimizedAffinity>  (1) 
-4.37334251

>  <minimizedRMSD>  (1) 
1.77507484

$$$$
