
     RDKit          3D

 37 41  0  0  0  0  0  0  0  0999 V2000
   38.4670   23.5290   36.9310 C   0  0  0  0  0  0  0  0  0  0  0  0
   39.8240   23.3010   36.5160 C   0  0  0  0  0  0  0  0  0  0  0  0
   40.2700   24.0200   35.4530 C   0  0  0  0  0  0  0  0  0  0  0  0
   39.4050   24.8810   34.8760 N   0  0  0  0  0  0  0  0  0  0  0  0
   38.1540   25.0870   35.2560 C   0  0  0  0  0  0  0  0  0  0  0  0
   37.6410   24.4030   36.3170 N   0  0  0  0  0  0  0  0  0  0  0  0
   37.4980   26.0390   34.4770 N   0  0  0  0  0  0  0  0  0  0  0  0
   37.1890   27.2320   35.0480 C   0  0  0  0  0  0  0  0  0  0  0  0
   36.6300   28.0350   34.0740 C   0  0  0  0  0  0  0  0  0  0  0  0
   36.6170   27.3180   32.9690 N   0  0  0  0  0  0  0  0  0  0  0  0
   37.1480   26.0640   33.1930 C   0  0  0  0  0  0  0  0  0  0  0  0
   37.1690   25.0370   32.2250 C   0  0  0  0  0  0  0  0  0  0  0  0
   35.9660   24.3510   31.8750 C   0  0  0  0  0  0  0  0  0  0  0  0
   36.2440   23.4090   30.9380 N   0  0  0  0  0  0  0  0  0  0  0  0
   37.5760   23.4990   30.7070 C   0  0  0  0  0  0  0  0  0  0  0  0
   38.0830   24.4850   31.4970 N   0  0  0  0  0  0  0  0  0  0  0  0
   41.3790   26.6610   29.1510 N   0  0  0  0  0  0  0  0  0  0  0  0
   40.1540   27.1930   28.9740 C   0  0  0  0  0  0  0  0  0  0  0  0
   39.2660   26.4780   29.6890 N   0  0  0  0  0  0  0  0  0  0  0  0
   39.9550   25.4860   30.3190 C   0  0  0  0  0  0  0  0  0  0  0  0
   39.3720   24.5210   31.1690 C   0  0  0  0  0  0  0  0  0  0  0  0
   40.2910   23.6340   31.6740 N   0  0  0  0  0  0  0  0  0  0  0  0
   41.6030   23.7340   31.3500 C   0  0  0  0  0  0  0  0  0  0  0  0
   42.1050   24.6770   30.5350 N   0  0  0  0  0  0  0  0  0  0  0  0
   41.3100   25.6000   29.9770 C   0  0  0  0  0  0  0  0  0  0  0  0
   37.9610   22.8320   38.0840 N   0  0  0  0  0  0  0  0  0  0  0  0
   40.4711   22.5783   37.0347 H   0  0  0  0  0  0  0  0  0  0  0  0
   41.2972   23.9049   35.0767 H   0  0  0  0  0  0  0  0  0  0  0  0
   37.3547   27.5091   36.0995 H   0  0  0  0  0  0  0  0  0  0  0  0
   36.2681   29.0665   34.1962 H   0  0  0  0  0  0  0  0  0  0  0  0
   34.9711   24.5541   32.2981 H   0  0  0  0  0  0  0  0  0  0  0  0
   38.1501   22.8806   30.0013 H   0  0  0  0  0  0  0  0  0  0  0  0
   42.2435   27.0148   28.7171 H   0  0  0  0  0  0  0  0  0  0  0  0
   39.9187   28.0669   28.3487 H   0  0  0  0  0  0  0  0  0  0  0  0
   42.2991   22.9988   31.7802 H   0  0  0  0  0  0  0  0  0  0  0  0
   36.9906   22.9851   38.3935 H   0  0  0  0  0  0  0  0  0  0  0  0
   38.5693   22.1801   38.5997 H   0  0  0  0  0  0  0  0  0  0  0  0
  1 26  1  0
  2  1  2  0
  3  2  1  0
  4  5  1  0
  4  3  2  0
  5  6  2  0
  6  1  1  0
  7  8  1  0
  7  5  1  0
  9  8  2  0
 10 11  2  0
 10  9  1  0
 11  7  1  0
 12 11  1  0
 13 12  2  0
 14 13  1  0
 15 14  2  0
 15 16  1  0
 16 12  1  0
 17 25  1  0
 18 17  1  0
 18 19  2  0
 19 20  1  0
 20 21  1  0
 21 16  1  0
 21 22  2  0
 23 22  1  0
 24 23  2  0
 25 20  2  0
 25 24  1  0
  2 27  1  0
  3 28  1  0
  8 29  1  0
  9 30  1  0
 13 31  1  0
 15 32  1  0
 17 33  1  0
 18 34  1  0
 23 35  1  0
 26 36  1  0
 26 37  1  0
M  ISO  8  27  14  28  14  29  14  30  14  31  14  32  14  33   9  34  14
M  ISO  1  35  14
M  END
>  <minimizedAffinity>  (1) 
-5.19888496

>  <minimizedRMSD>  (1) 
3.44773436

$$$$
