
     RDKit          3D

 42 46  0  0  0  0  0  0  0  0999 V2000
   38.6350   23.2680   37.4920 C   0  0  0  0  0  0  0  0  0  0  0  0
   39.9690   22.9260   37.0730 C   0  0  0  0  0  0  0  0  0  0  0  0
   40.4420   23.5380   35.9550 C   0  0  0  0  0  0  0  0  0  0  0  0
   39.6210   24.4110   35.3320 N   0  0  0  0  0  0  0  0  0  0  0  0
   38.3960   24.7220   35.7120 C   0  0  0  0  0  0  0  0  0  0  0  0
   37.8550   24.1500   36.8270 N   0  0  0  0  0  0  0  0  0  0  0  0
   37.7910   25.6630   34.8770 N   0  0  0  0  0  0  0  0  0  0  0  0
   37.5760   26.9080   35.3700 C   0  0  0  0  0  0  0  0  0  0  0  0
   37.0570   27.6810   34.3490 C   0  0  0  0  0  0  0  0  0  0  0  0
   36.9750   26.8950   33.3010 N   0  0  0  0  0  0  0  0  0  0  0  0
   37.4230   25.6230   33.5990 C   0  0  0  0  0  0  0  0  0  0  0  0
   37.3650   24.5350   32.7030 C   0  0  0  0  0  0  0  0  0  0  0  0
   36.1690   24.2360   32.0140 C   0  0  0  0  0  0  0  0  0  0  0  0
   36.3350   23.1520   31.2260 N   0  0  0  0  0  0  0  0  0  0  0  0
   37.6330   22.7680   31.4170 C   0  0  0  0  0  0  0  0  0  0  0  0
   38.1840   23.6240   32.2960 N   0  0  0  0  0  0  0  0  0  0  0  0
   39.4380   23.1760   32.3810 C   0  0  0  0  0  0  0  0  0  0  0  0
   39.7700   21.8750   32.8260 C   0  0  0  0  0  0  0  0  0  0  0  0
   41.0290   21.2790   32.9040 C   0  0  0  0  0  0  0  0  0  0  0  0
   42.0650   22.0860   32.4850 C   0  0  0  0  0  0  0  0  0  0  0  0
   41.8510   23.3710   32.0330 C   0  0  0  0  0  0  0  0  0  0  0  0
   42.9510   24.1040   31.6360 C   0  0  0  0  0  0  0  0  0  0  0  0
   42.7490   25.3900   31.1830 C   0  0  0  0  0  0  0  0  0  0  0  0
   41.4890   25.9500   31.1200 C   0  0  0  0  0  0  0  0  0  0  0  0
   40.3730   25.2060   31.5230 C   0  0  0  0  0  0  0  0  0  0  0  0
   40.5690   23.9190   31.9770 C   0  0  0  0  0  0  0  0  0  0  0  0
   38.1070   22.6910   38.6970 N   0  0  0  0  0  0  0  0  0  0  0  0
   40.5787   22.2015   37.6327 H   0  0  0  0  0  0  0  0  0  0  0  0
   41.4525   23.3306   35.5732 H   0  0  0  0  0  0  0  0  0  0  0  0
   37.7785   27.2424   36.3982 H   0  0  0  0  0  0  0  0  0  0  0  0
   36.7703   28.7416   34.4035 H   0  0  0  0  0  0  0  0  0  0  0  0
   35.2330   24.8064   32.1063 H   0  0  0  0  0  0  0  0  0  0  0  0
   38.1354   21.9142   30.9388 H   0  0  0  0  0  0  0  0  0  0  0  0
   38.9249   21.2516   33.1534 H   0  0  0  0  0  0  0  0  0  0  0  0
   41.1819   20.2526   33.2688 H   0  0  0  0  0  0  0  0  0  0  0  0
   43.0922   21.6935   32.5120 H   0  0  0  0  0  0  0  0  0  0  0  0
   43.9622   23.6733   31.6800 H   0  0  0  0  0  0  0  0  0  0  0  0
   43.6160   25.9866   30.8628 H   0  0  0  0  0  0  0  0  0  0  0  0
   41.3616   26.9794   30.7537 H   0  0  0  0  0  0  0  0  0  0  0  0
   39.3627   25.6388   31.4783 H   0  0  0  0  0  0  0  0  0  0  0  0
   37.1538   22.9282   39.0069 H   0  0  0  0  0  0  0  0  0  0  0  0
   38.6816   22.0401   39.2511 H   0  0  0  0  0  0  0  0  0  0  0  0
  1 27  1  0
  2  1  2  0
  3  2  1  0
  4  5  1  0
  4  3  2  0
  5  6  2  0
  6  1  1  0
  7  8  1  0
  7  5  1  0
  9  8  2  0
 10 11  2  0
 10  9  1  0
 11  7  1  0
 12 11  1  0
 13 12  2  0
 14 15  2  0
 14 13  1  0
 15 16  1  0
 16 17  1  0
 16 12  1  0
 17 18  2  0
 18 19  1  0
 20 19  2  0
 21 20  1  0
 22 21  2  0
 23 22  1  0
 24 23  2  0
 24 25  1  0
 25 26  2  0
 26 21  1  0
 26 17  1  0
  2 28  1  0
  3 29  1  0
  8 30  1  0
  9 31  1  0
 13 32  1  0
 15 33  1  0
 18 34  1  0
 19 35  1  0
 20 36  1  0
 22 37  1  0
 23 38  1  0
 24 39  1  0
 25 40  1  0
 27 41  1  0
 27 42  1  0
M  ISO  8  28  14  29  14  30  14  31  14  32  14  33  14  34  14  35  14
M  ISO  5  36  14  37  14  38  14  39  14  40  14
M  END
>  <minimizedAffinity>  (1) 
-5.2186985

>  <minimizedRMSD>  (1) 
0.910576224

$$$$
