
     RDKit          3D

 40 44  0  0  0  0  0  0  0  0999 V2000
   38.3720   25.9210   31.9060 C   0  0  0  0  0  0  0  0  0  0  0  0
   38.7610   26.7330   30.8070 C   0  0  0  0  0  0  0  0  0  0  0  0
   39.1480   25.9300   29.7560 N   0  0  0  0  0  0  0  0  0  0  0  0
   38.9920   24.6320   30.2230 C   0  0  0  0  0  0  0  0  0  0  0  0
   38.5490   24.7020   31.4650 N   0  0  0  0  0  0  0  0  0  0  0  0
   38.5390   23.3700   31.8710 C   0  0  0  0  0  0  0  0  0  0  0  0
   39.7160   22.9560   32.3410 N   0  0  0  0  0  0  0  0  0  0  0  0
   39.8760   21.6640   32.7230 C   0  0  0  0  0  0  0  0  0  0  0  0
   38.9140   20.7490   32.6620 N   0  0  0  0  0  0  0  0  0  0  0  0
   37.7100   21.1170   32.1950 C   0  0  0  0  0  0  0  0  0  0  0  0
   36.6200   20.2820   32.0780 C   0  0  0  0  0  0  0  0  0  0  0  0
   35.4140   20.7110   31.6000 C   0  0  0  0  0  0  0  0  0  0  0  0
   35.2690   22.0430   31.2140 C   0  0  0  0  0  0  0  0  0  0  0  0
   36.3130   22.9270   31.3040 C   0  0  0  0  0  0  0  0  0  0  0  0
   37.5080   22.4440   31.7920 C   0  0  0  0  0  0  0  0  0  0  0  0
   39.7180   23.2740   36.0870 C   0  0  0  0  0  0  0  0  0  0  0  0
   41.0930   23.5350   35.8600 C   0  0  0  0  0  0  0  0  0  0  0  0
   41.3970   24.6610   35.1460 C   0  0  0  0  0  0  0  0  0  0  0  0
   40.3590   25.4060   34.7280 N   0  0  0  0  0  0  0  0  0  0  0  0
   39.0890   25.1880   34.9200 C   0  0  0  0  0  0  0  0  0  0  0  0
   38.7680   24.0860   35.6230 N   0  0  0  0  0  0  0  0  0  0  0  0
   38.2130   26.1310   34.3750 N   0  0  0  0  0  0  0  0  0  0  0  0
   37.4830   26.8970   35.2320 C   0  0  0  0  0  0  0  0  0  0  0  0
   36.6920   27.7570   34.4810 C   0  0  0  0  0  0  0  0  0  0  0  0
   36.9590   27.4950   33.2030 N   0  0  0  0  0  0  0  0  0  0  0  0
   37.8960   26.4900   33.1170 C   0  0  0  0  0  0  0  0  0  0  0  0
   39.3480   22.1110   36.8580 N   0  0  0  0  0  0  0  0  0  0  0  0
   38.7543   27.8329   30.7966 H   0  0  0  0  0  0  0  0  0  0  0  0
   39.2001   23.7105   29.6595 H   0  0  0  0  0  0  0  0  0  0  0  0
   40.8600   21.3556   33.1058 H   0  0  0  0  0  0  0  0  0  0  0  0
   36.7248   19.2298   32.3810 H   0  0  0  0  0  0  0  0  0  0  0  0
   34.5671   20.0135   31.5206 H   0  0  0  0  0  0  0  0  0  0  0  0
   34.2987   22.3910   30.8301 H   0  0  0  0  0  0  0  0  0  0  0  0
   36.2015   23.9781   30.9994 H   0  0  0  0  0  0  0  0  0  0  0  0
   41.8775   22.8640   36.2399 H   0  0  0  0  0  0  0  0  0  0  0  0
   42.4372   24.9426   34.9251 H   0  0  0  0  0  0  0  0  0  0  0  0
   37.5143   26.8439   36.3303 H   0  0  0  0  0  0  0  0  0  0  0  0
   35.9848   28.5064   34.8659 H   0  0  0  0  0  0  0  0  0  0  0  0
   38.3544   21.9044   37.0337 H   0  0  0  0  0  0  0  0  0  0  0  0
   40.0776   21.4878   37.2324 H   0  0  0  0  0  0  0  0  0  0  0  0
  1 26  1  0
  2  1  2  0
  3  4  2  0
  3  2  1  0
  4  5  1  0
  5  6  1  0
  5  1  1  0
  6  7  2  0
  7  8  1  0
  9  8  2  0
 10  9  1  0
 11 10  2  0
 12 11  1  0
 13 14  1  0
 13 12  2  0
 14 15  2  0
 15  6  1  0
 15 10  1  0
 16 27  1  0
 17 16  2  0
 18 17  1  0
 19 20  1  0
 19 18  2  0
 20 21  2  0
 21 16  1  0
 22 20  1  0
 22 23  1  0
 24 23  2  0
 25 24  1  0
 26 25  2  0
 26 22  1  0
  2 28  1  0
  4 29  1  0
  8 30  1  0
 11 31  1  0
 12 32  1  0
 13 33  1  0
 14 34  1  0
 17 35  1  0
 18 36  1  0
 23 37  1  0
 24 38  1  0
 27 39  1  0
 27 40  1  0
M  ISO  8  28  14  29  14  30  14  31  14  32  14  33  14  34  14  35  14
M  ISO  3  36  14  37  14  38  14
M  END
>  <minimizedAffinity>  (1) 
-6.00264835

>  <minimizedRMSD>  (1) 
2.91633415

$$$$
