
     RDKit          3D

 33 36  0  0  0  0  0  0  0  0999 V2000
   39.0100   23.1340   37.7130 C   0  0  0  0  0  0  0  0  0  0  0  0
   40.3430   22.8060   37.3760 C   0  0  0  0  0  0  0  0  0  0  0  0
   40.8190   23.3180   36.2000 C   0  0  0  0  0  0  0  0  0  0  0  0
   39.9740   24.0800   35.4860 N   0  0  0  0  0  0  0  0  0  0  0  0
   38.7430   24.3950   35.7770 C   0  0  0  0  0  0  0  0  0  0  0  0
   38.2520   23.9030   36.9300 N   0  0  0  0  0  0  0  0  0  0  0  0
   38.0770   25.2100   34.8560 N   0  0  0  0  0  0  0  0  0  0  0  0
   37.7250   26.4670   35.2460 C   0  0  0  0  0  0  0  0  0  0  0  0
   37.0900   27.0890   34.1800 C   0  0  0  0  0  0  0  0  0  0  0  0
   37.0720   26.2060   33.1830 N   0  0  0  0  0  0  0  0  0  0  0  0
   37.6770   25.0370   33.5820 C   0  0  0  0  0  0  0  0  0  0  0  0
   37.7740   23.8580   32.7950 C   0  0  0  0  0  0  0  0  0  0  0  0
   37.2700   22.6080   33.2730 C   0  0  0  0  0  0  0  0  0  0  0  0
   37.5190   21.6340   32.3300 N   0  0  0  0  0  0  0  0  0  0  0  0
   38.1670   22.2870   31.2940 C   0  0  0  0  0  0  0  0  0  0  0  0
   38.2760   23.5720   31.6310 N   0  0  0  0  0  0  0  0  0  0  0  0
   38.8250   24.1980   30.4250 C   0  0  0  0  0  0  0  0  0  0  0  0
   39.0560   23.5840   29.3540 C   0  0  0  0  0  0  0  0  0  0  0  0
   39.5980   24.0290   28.1880 C   0  0  0  0  0  0  0  0  0  0  0  0
   39.9090   25.4520   28.3480 C   0  0  0  0  0  0  0  0  0  0  0  0
   39.3450   25.8250   30.1550 S   0  0  0  0  0  0  0  0  0  0  0  0
   38.4580   22.6300   38.9510 N   0  0  0  0  0  0  0  0  0  0  0  0
   40.9650   22.1723   38.0253 H   0  0  0  0  0  0  0  0  0  0  0  0
   41.8440   23.1155   35.8558 H   0  0  0  0  0  0  0  0  0  0  0  0
   37.9117   26.9119   36.2345 H   0  0  0  0  0  0  0  0  0  0  0  0
   36.6819   28.1103   34.1621 H   0  0  0  0  0  0  0  0  0  0  0  0
   36.7652   22.4494   34.2374 H   0  0  0  0  0  0  0  0  0  0  0  0
   38.5267   21.8277   30.3614 H   0  0  0  0  0  0  0  0  0  0  0  0
   38.7764   22.5201   29.3595 H   0  0  0  0  0  0  0  0  0  0  0  0
   39.7721   23.4265   27.2843 H   0  0  0  0  0  0  0  0  0  0  0  0
   40.3557   26.1405   27.6156 H   0  0  0  0  0  0  0  0  0  0  0  0
   37.4885   22.8585   39.2133 H   0  0  0  0  0  0  0  0  0  0  0  0
   39.0343   22.0425   39.5704 H   0  0  0  0  0  0  0  0  0  0  0  0
  1 22  1  0
  2  1  2  0
  3  2  1  0
  4  5  1  0
  4  3  2  0
  5  6  2  0
  6  1  1  0
  7  8  1  0
  7  5  1  0
  9  8  2  0
 10 11  2  0
 10  9  1  0
 11  7  1  0
 12 13  2  0
 12 11  1  0
 14 13  1  0
 15 16  1  0
 15 14  2  0
 16 12  1  0
 17 16  1  0
 18 17  2  0
 19 20  2  0
 19 18  1  0
 20 21  1  0
 21 17  1  0
  2 23  1  0
  3 24  1  0
  8 25  1  0
  9 26  1  0
 13 27  1  0
 15 28  1  0
 18 29  1  0
 19 30  1  0
 20 31  1  0
 22 32  1  0
 22 33  1  0
M  ISO  8  23  14  24  14  25  14  26  14  27  14  28  14  29  14  30  14
M  ISO  1  31  14
M  END
>  <minimizedAffinity>  (1) 
-5.19358778

>  <minimizedRMSD>  (1) 
2.38747048

$$$$
