
     RDKit          3D

 43 47  0  0  0  0  0  0  0  0999 V2000
   38.3770   25.9240   31.6820 C   0  0  0  0  0  0  0  0  0  0  0  0
   38.8530   26.6230   30.5570 C   0  0  0  0  0  0  0  0  0  0  0  0
   39.2630   25.7220   29.6050 N   0  0  0  0  0  0  0  0  0  0  0  0
   39.0350   24.4560   30.1550 C   0  0  0  0  0  0  0  0  0  0  0  0
   38.5240   24.6600   31.3590 N   0  0  0  0  0  0  0  0  0  0  0  0
   38.3940   23.3630   31.8660 C   0  0  0  0  0  0  0  0  0  0  0  0
   39.5210   22.9320   32.4370 N   0  0  0  0  0  0  0  0  0  0  0  0
   39.5830   21.6660   32.9280 C   0  0  0  0  0  0  0  0  0  0  0  0
   38.5730   20.8020   32.8800 N   0  0  0  0  0  0  0  0  0  0  0  0
   37.4150   21.1940   32.3130 C   0  0  0  0  0  0  0  0  0  0  0  0
   36.2990   20.4090   32.1920 C   0  0  0  0  0  0  0  0  0  0  0  0
   35.1570   20.8580   31.6050 C   0  0  0  0  0  0  0  0  0  0  0  0
   35.1130   22.1580   31.1070 C   0  0  0  0  0  0  0  0  0  0  0  0
   36.1970   22.9920   31.1980 C   0  0  0  0  0  0  0  0  0  0  0  0
   37.3200   22.4920   31.7970 C   0  0  0  0  0  0  0  0  0  0  0  0
   39.0730   23.4040   36.1030 C   0  0  0  0  0  0  0  0  0  0  0  0
   40.4850   23.5100   35.9870 C   0  0  0  0  0  0  0  0  0  0  0  0
   40.9750   24.5550   35.2390 C   0  0  0  0  0  0  0  0  0  0  0  0
   40.0570   25.3670   34.6960 N   0  0  0  0  0  0  0  0  0  0  0  0
   38.7580   25.2910   34.7870 C   0  0  0  0  0  0  0  0  0  0  0  0
   38.2630   24.2760   35.5130 N   0  0  0  0  0  0  0  0  0  0  0  0
   38.0320   26.2850   34.1160 N   0  0  0  0  0  0  0  0  0  0  0  0
   37.3210   27.1760   34.8560 C   0  0  0  0  0  0  0  0  0  0  0  0
   36.6900   28.0560   34.0040 C   0  0  0  0  0  0  0  0  0  0  0  0
   37.0200   27.6960   32.7760 N   0  0  0  0  0  0  0  0  0  0  0  0
   37.8570   26.5910   32.8290 C   0  0  0  0  0  0  0  0  0  0  0  0
   35.7990   29.2090   34.3120 C   0  0  0  0  0  0  0  0  0  0  0  0
   34.5410   28.7950   34.7210 F   0  0  0  0  0  0  0  0  0  0  0  0
   35.7600   30.0550   33.2290 F   0  0  0  0  0  0  0  0  0  0  0  0
   36.3140   29.9600   35.3750 F   0  0  0  0  0  0  0  0  0  0  0  0
   38.5240   22.3270   36.8930 N   0  0  0  0  0  0  0  0  0  0  0  0
   38.8907   27.7177   30.4562 H   0  0  0  0  0  0  0  0  0  0  0  0
   39.2396   23.4845   29.6813 H   0  0  0  0  0  0  0  0  0  0  0  0
   40.5241   21.3366   33.3925 H   0  0  0  0  0  0  0  0  0  0  0  0
   36.3272   19.3811   32.5826 H   0  0  0  0  0  0  0  0  0  0  0  0
   34.2780   20.2016   31.5245 H   0  0  0  0  0  0  0  0  0  0  0  0
   34.1905   22.5225   30.6315 H   0  0  0  0  0  0  0  0  0  0  0  0
   36.1649   24.0193   30.8060 H   0  0  0  0  0  0  0  0  0  0  0  0
   41.1569   22.7880   36.4741 H   0  0  0  0  0  0  0  0  0  0  0  0
   42.0538   24.7146   35.0952 H   0  0  0  0  0  0  0  0  0  0  0  0
   37.2594   27.1920   35.9542 H   0  0  0  0  0  0  0  0  0  0  0  0
   37.5034   22.2293   36.9920 H   0  0  0  0  0  0  0  0  0  0  0  0
   39.1530   21.6565   37.3575 H   0  0  0  0  0  0  0  0  0  0  0  0
  1 26  1  0
  2  1  2  0
  3  4  2  0
  3  2  1  0
  4  5  1  0
  5  1  1  0
  5  6  1  0
  6  7  2  0
  7  8  1  0
  9  8  2  0
 10  9  1  0
 11 10  2  0
 12 11  1  0
 13 14  1  0
 13 12  2  0
 14 15  2  0
 15  6  1  0
 15 10  1  0
 16 31  1  0
 17 16  2  0
 18 17  1  0
 19 20  1  0
 19 18  2  0
 20 21  2  0
 21 16  1  0
 22 20  1  0
 22 23  1  0
 24 27  1  0
 24 23  2  0
 25 26  2  0
 25 24  1  0
 26 22  1  0
 27 28  1  0
 27 30  1  0
 29 27  1  0
  2 32  1  0
  4 33  1  0
  8 34  1  0
 11 35  1  0
 12 36  1  0
 13 37  1  0
 14 38  1  0
 17 39  1  0
 18 40  1  0
 23 41  1  0
 31 42  1  0
 31 43  1  0
M  ISO  8  32  14  33  14  34  14  35  14  36  14  37  14  38  14  39  14
M  ISO  2  40  14  41  14
M  END
>  <minimizedAffinity>  (1) 
-6.67324066

>  <minimizedRMSD>  (1) 
0.474800587

$$$$
