
     RDKit          3D

 47 52  0  0  0  0  0  0  0  0999 V2000
   39.0530   23.5260   36.1090 C   0  0  0  0  0  0  0  0  0  0  0  0
   40.4640   23.6880   35.9850 C   0  0  0  0  0  0  0  0  0  0  0  0
   40.9070   24.7570   35.2550 C   0  0  0  0  0  0  0  0  0  0  0  0
   39.9590   25.5460   34.7270 N   0  0  0  0  0  0  0  0  0  0  0  0
   38.6640   25.4200   34.8240 C   0  0  0  0  0  0  0  0  0  0  0  0
   38.2060   24.3790   35.5370 N   0  0  0  0  0  0  0  0  0  0  0  0
   37.8990   26.3990   34.1730 N   0  0  0  0  0  0  0  0  0  0  0  0
   37.1610   27.2510   34.9300 C   0  0  0  0  0  0  0  0  0  0  0  0
   36.4960   28.1240   34.0960 C   0  0  0  0  0  0  0  0  0  0  0  0
   36.8350   27.7950   32.8600 N   0  0  0  0  0  0  0  0  0  0  0  0
   37.7090   26.7190   32.8910 C   0  0  0  0  0  0  0  0  0  0  0  0
   38.2480   26.0860   31.7310 C   0  0  0  0  0  0  0  0  0  0  0  0
   38.7010   26.8210   30.6190 C   0  0  0  0  0  0  0  0  0  0  0  0
   39.1330   25.9490   29.6490 N   0  0  0  0  0  0  0  0  0  0  0  0
   38.9420   24.6670   30.1770 C   0  0  0  0  0  0  0  0  0  0  0  0
   38.4290   24.8350   31.3860 N   0  0  0  0  0  0  0  0  0  0  0  0
   38.3430   23.5260   31.8700 C   0  0  0  0  0  0  0  0  0  0  0  0
   39.4870   23.1220   32.4330 N   0  0  0  0  0  0  0  0  0  0  0  0
   39.5910   21.8510   32.9020 C   0  0  0  0  0  0  0  0  0  0  0  0
   38.6080   20.9540   32.8400 N   0  0  0  0  0  0  0  0  0  0  0  0
   37.4400   21.3190   32.2830 C   0  0  0  0  0  0  0  0  0  0  0  0
   36.3470   20.5000   32.1510 C   0  0  0  0  0  0  0  0  0  0  0  0
   35.1880   20.9240   31.5730 C   0  0  0  0  0  0  0  0  0  0  0  0
   35.1000   22.2300   31.0990 C   0  0  0  0  0  0  0  0  0  0  0  0
   36.1580   23.0960   31.2010 C   0  0  0  0  0  0  0  0  0  0  0  0
   37.2980   22.6230   31.7890 C   0  0  0  0  0  0  0  0  0  0  0  0
   35.5870   29.2110   34.4590 C   0  0  0  0  0  0  0  0  0  0  0  0
   35.8980   30.3940   35.0990 C   0  0  0  0  0  0  0  0  0  0  0  0
   34.7480   31.1730   35.2670 C   0  0  0  0  0  0  0  0  0  0  0  0
   33.7630   30.4110   34.7080 N   0  0  0  0  0  0  0  0  0  0  0  0
   34.2680   29.2780   34.2460 N   0  0  0  0  0  0  0  0  0  0  0  0
   38.5480   22.4190   36.8850 N   0  0  0  0  0  0  0  0  0  0  0  0
   41.1660   22.9841   36.4558 H   0  0  0  0  0  0  0  0  0  0  0  0
   41.9786   24.9580   35.1094 H   0  0  0  0  0  0  0  0  0  0  0  0
   37.1033   27.2455   36.0285 H   0  0  0  0  0  0  0  0  0  0  0  0
   38.7080   27.9181   30.5394 H   0  0  0  0  0  0  0  0  0  0  0  0
   39.1722   23.7103   29.6854 H   0  0  0  0  0  0  0  0  0  0  0  0
   40.5431   21.5446   33.3599 H   0  0  0  0  0  0  0  0  0  0  0  0
   36.4083   19.4670   32.5241 H   0  0  0  0  0  0  0  0  0  0  0  0
   34.3305   20.2411   31.4819 H   0  0  0  0  0  0  0  0  0  0  0  0
   34.1642   22.5735   30.6340 H   0  0  0  0  0  0  0  0  0  0  0  0
   36.0924   24.1279   30.8256 H   0  0  0  0  0  0  0  0  0  0  0  0
   36.9065   30.6830   35.4298 H   0  0  0  0  0  0  0  0  0  0  0  0
   34.6589   32.1634   35.7374 H   0  0  0  0  0  0  0  0  0  0  0  0
   32.7700   30.6790   34.6535 H   0  0  0  0  0  0  0  0  0  0  0  0
   37.5322   22.2830   36.9877 H   0  0  0  0  0  0  0  0  0  0  0  0
   39.2034   21.7649   37.3361 H   0  0  0  0  0  0  0  0  0  0  0  0
  1 32  1  0
  2  1  2  0
  3  2  1  0
  4  5  1  0
  4  3  2  0
  5  6  2  0
  6  1  1  0
  7  5  1  0
  7  8  1  0
  9 27  1  0
  9  8  2  0
 10 11  2  0
 10  9  1  0
 11  7  1  0
 12 11  1  0
 13 12  2  0
 14 15  2  0
 14 13  1  0
 15 16  1  0
 16 12  1  0
 16 17  1  0
 17 18  2  0
 18 19  1  0
 20 19  2  0
 21 20  1  0
 22 21  2  0
 23 22  1  0
 24 25  1  0
 24 23  2  0
 25 26  2  0
 26 17  1  0
 26 21  1  0
 27 28  1  0
 28 29  2  0
 30 29  1  0
 31 27  2  0
 31 30  1  0
  2 33  1  0
  3 34  1  0
  8 35  1  0
 13 36  1  0
 15 37  1  0
 19 38  1  0
 22 39  1  0
 23 40  1  0
 24 41  1  0
 25 42  1  0
 28 43  1  0
 29 44  1  0
 30 45  1  0
 32 46  1  0
 32 47  1  0
M  ISO  8  33  14  34  14  35  14  36  14  37  14  38  14  39  14  40  14
M  ISO  5  41  14  42  14  43  14  44  14  45   9
M  END
>  <minimizedAffinity>  (1) 
-6.74070978

>  <minimizedRMSD>  (1) 
0.706246078

$$$$
