
     RDKit          3D

 47 52  0  0  0  0  0  0  0  0999 V2000
   39.0070   23.5280   36.1010 C   0  0  0  0  0  0  0  0  0  0  0  0
   40.4180   23.6720   35.9910 C   0  0  0  0  0  0  0  0  0  0  0  0
   40.8810   24.7210   35.2370 C   0  0  0  0  0  0  0  0  0  0  0  0
   39.9460   25.5050   34.6790 N   0  0  0  0  0  0  0  0  0  0  0  0
   38.6510   25.3920   34.7660 C   0  0  0  0  0  0  0  0  0  0  0  0
   38.1760   24.3730   35.4990 N   0  0  0  0  0  0  0  0  0  0  0  0
   37.9060   26.3610   34.0800 N   0  0  0  0  0  0  0  0  0  0  0  0
   37.1690   27.2440   34.8110 C   0  0  0  0  0  0  0  0  0  0  0  0
   36.5200   28.1020   33.9480 C   0  0  0  0  0  0  0  0  0  0  0  0
   36.8650   27.7360   32.7180 N   0  0  0  0  0  0  0  0  0  0  0  0
   37.7260   26.6530   32.7910 C   0  0  0  0  0  0  0  0  0  0  0  0
   38.2700   25.9860   31.6530 C   0  0  0  0  0  0  0  0  0  0  0  0
   38.7400   26.6880   30.5250 C   0  0  0  0  0  0  0  0  0  0  0  0
   39.1760   25.7890   29.5850 N   0  0  0  0  0  0  0  0  0  0  0  0
   38.9710   24.5220   30.1420 C   0  0  0  0  0  0  0  0  0  0  0  0
   38.4470   24.7240   31.3400 N   0  0  0  0  0  0  0  0  0  0  0  0
   38.3420   23.4300   31.8580 C   0  0  0  0  0  0  0  0  0  0  0  0
   39.4790   23.0290   32.4410 N   0  0  0  0  0  0  0  0  0  0  0  0
   39.5640   21.7670   32.9410 C   0  0  0  0  0  0  0  0  0  0  0  0
   38.5730   20.8790   32.8940 N   0  0  0  0  0  0  0  0  0  0  0  0
   37.4080   21.2420   32.3140 C   0  0  0  0  0  0  0  0  0  0  0  0
   36.3140   20.4300   32.1920 C   0  0  0  0  0  0  0  0  0  0  0  0
   35.1670   20.8480   31.5920 C   0  0  0  0  0  0  0  0  0  0  0  0
   35.0960   22.1430   31.0840 C   0  0  0  0  0  0  0  0  0  0  0  0
   36.1610   23.0030   31.1770 C   0  0  0  0  0  0  0  0  0  0  0  0
   37.2910   22.5340   31.7890 C   0  0  0  0  0  0  0  0  0  0  0  0
   35.6270   29.2010   34.3080 C   0  0  0  0  0  0  0  0  0  0  0  0
   34.3260   29.3750   33.8810 C   0  0  0  0  0  0  0  0  0  0  0  0
   33.8640   30.5240   34.4550 N   0  0  0  0  0  0  0  0  0  0  0  0
   34.8900   30.9830   35.1900 C   0  0  0  0  0  0  0  0  0  0  0  0
   35.9990   30.2000   35.1300 N   0  0  0  0  0  0  0  0  0  0  0  0
   38.4830   22.4450   36.8990 N   0  0  0  0  0  0  0  0  0  0  0  0
   41.1072   22.9736   36.4882 H   0  0  0  0  0  0  0  0  0  0  0  0
   41.9560   24.9082   35.0982 H   0  0  0  0  0  0  0  0  0  0  0  0
   37.1027   27.2684   35.9087 H   0  0  0  0  0  0  0  0  0  0  0  0
   38.7549   27.7825   30.4157 H   0  0  0  0  0  0  0  0  0  0  0  0
   39.1998   23.5518   29.6769 H   0  0  0  0  0  0  0  0  0  0  0  0
   40.5093   21.4612   33.4131 H   0  0  0  0  0  0  0  0  0  0  0  0
   36.3633   19.4064   32.5918 H   0  0  0  0  0  0  0  0  0  0  0  0
   34.3045   20.1704   31.5088 H   0  0  0  0  0  0  0  0  0  0  0  0
   34.1688   22.4825   30.5992 H   0  0  0  0  0  0  0  0  0  0  0  0
   36.1084   24.0261   30.7765 H   0  0  0  0  0  0  0  0  0  0  0  0
   33.7664   28.7120   33.2048 H   0  0  0  0  0  0  0  0  0  0  0  0
   34.8375   31.9066   35.7851 H   0  0  0  0  0  0  0  0  0  0  0  0
   36.9052   30.3376   35.5999 H   0  0  0  0  0  0  0  0  0  0  0  0
   37.4649   22.3206   36.9934 H   0  0  0  0  0  0  0  0  0  0  0  0
   39.1273   21.7967   37.3739 H   0  0  0  0  0  0  0  0  0  0  0  0
  1 32  1  0
  2  1  2  0
  3  2  1  0
  4  5  1  0
  4  3  2  0
  5  6  2  0
  6  1  1  0
  7  5  1  0
  7  8  1  0
  9 27  1  0
  9  8  2  0
 10 11  2  0
 10  9  1  0
 11  7  1  0
 12 11  1  0
 13 12  2  0
 14 15  2  0
 14 13  1  0
 15 16  1  0
 16 12  1  0
 16 17  1  0
 17 18  2  0
 18 19  1  0
 20 19  2  0
 21 20  1  0
 22 21  2  0
 23 22  1  0
 24 25  1  0
 24 23  2  0
 25 26  2  0
 26 17  1  0
 26 21  1  0
 27 31  1  0
 28 27  2  0
 28 29  1  0
 29 30  2  0
 31 30  1  0
  2 33  1  0
  3 34  1  0
  8 35  1  0
 13 36  1  0
 15 37  1  0
 19 38  1  0
 22 39  1  0
 23 40  1  0
 24 41  1  0
 25 42  1  0
 28 43  1  0
 30 44  1  0
 31 45  1  0
 32 46  1  0
 32 47  1  0
M  ISO  8  33  14  34  14  35  14  36  14  37  14  38  14  39  14  40  14
M  ISO  5  41  14  42  14  43  14  44  14  45   9
M  END
>  <minimizedAffinity>  (1) 
-6.60339785

>  <minimizedRMSD>  (1) 
0.645049691

$$$$
