
     RDKit          3D

 46 51  0  0  0  0  0  0  0  0999 V2000
   38.9940   23.5240   36.0980 C   0  0  0  0  0  0  0  0  0  0  0  0
   40.4100   23.6440   35.9910 C   0  0  0  0  0  0  0  0  0  0  0  0
   40.8920   24.6960   35.2600 C   0  0  0  0  0  0  0  0  0  0  0  0
   39.9740   25.5090   34.7170 N   0  0  0  0  0  0  0  0  0  0  0  0
   38.6770   25.4220   34.8000 C   0  0  0  0  0  0  0  0  0  0  0  0
   38.1800   24.3980   35.5120 N   0  0  0  0  0  0  0  0  0  0  0  0
   37.9500   26.4180   34.1350 N   0  0  0  0  0  0  0  0  0  0  0  0
   37.2260   27.2990   34.8820 C   0  0  0  0  0  0  0  0  0  0  0  0
   36.5960   28.1850   34.0350 C   0  0  0  0  0  0  0  0  0  0  0  0
   36.9410   27.8380   32.8080 N   0  0  0  0  0  0  0  0  0  0  0  0
   37.7820   26.7390   32.8520 C   0  0  0  0  0  0  0  0  0  0  0  0
   38.3130   26.0840   31.6980 C   0  0  0  0  0  0  0  0  0  0  0  0
   38.7800   26.8010   30.5810 C   0  0  0  0  0  0  0  0  0  0  0  0
   39.2040   25.9130   29.6230 N   0  0  0  0  0  0  0  0  0  0  0  0
   38.9920   24.6400   30.1640 C   0  0  0  0  0  0  0  0  0  0  0  0
   38.4780   24.8280   31.3690 N   0  0  0  0  0  0  0  0  0  0  0  0
   38.3710   23.5270   31.8660 C   0  0  0  0  0  0  0  0  0  0  0  0
   39.5030   23.1110   32.4380 N   0  0  0  0  0  0  0  0  0  0  0  0
   39.5890   21.8440   32.9210 C   0  0  0  0  0  0  0  0  0  0  0  0
   38.5900   20.9610   32.8640 N   0  0  0  0  0  0  0  0  0  0  0  0
   37.4330   21.3350   32.2990 C   0  0  0  0  0  0  0  0  0  0  0  0
   36.3280   20.5340   32.1750 C   0  0  0  0  0  0  0  0  0  0  0  0
   35.1670   20.9740   31.5870 C   0  0  0  0  0  0  0  0  0  0  0  0
   35.1090   22.2720   31.1010 C   0  0  0  0  0  0  0  0  0  0  0  0
   36.1800   23.1220   31.1950 C   0  0  0  0  0  0  0  0  0  0  0  0
   37.3140   22.6370   31.7920 C   0  0  0  0  0  0  0  0  0  0  0  0
   35.7130   29.2970   34.4600 C   0  0  0  0  0  0  0  0  0  0  0  0
   34.3400   29.3400   34.0080 C   0  0  0  0  0  0  0  0  0  0  0  0
   33.7120   30.8660   34.7970 S   0  0  0  0  0  0  0  0  0  0  0  0
   35.3520   31.1990   35.5910 C   0  0  0  0  0  0  0  0  0  0  0  0
   36.0390   30.3090   35.2430 N   0  0  0  0  0  0  0  0  0  0  0  0
   38.4470   22.4360   36.8730 N   0  0  0  0  0  0  0  0  0  0  0  0
   41.0857   22.9231   36.4745 H   0  0  0  0  0  0  0  0  0  0  0  0
   41.9706   24.8650   35.1256 H   0  0  0  0  0  0  0  0  0  0  0  0
   37.1562   27.3022   35.9798 H   0  0  0  0  0  0  0  0  0  0  0  0
   38.8020   27.8970   30.4897 H   0  0  0  0  0  0  0  0  0  0  0  0
   39.2094   23.6748   29.6832 H   0  0  0  0  0  0  0  0  0  0  0  0
   40.5351   21.5284   33.3850 H   0  0  0  0  0  0  0  0  0  0  0  0
   36.3721   19.5042   32.5592 H   0  0  0  0  0  0  0  0  0  0  0  0
   34.2964   20.3070   31.5028 H   0  0  0  0  0  0  0  0  0  0  0  0
   34.1813   22.6275   30.6289 H   0  0  0  0  0  0  0  0  0  0  0  0
   36.1313   24.1503   30.8075 H   0  0  0  0  0  0  0  0  0  0  0  0
   33.8076   28.6332   33.3545 H   0  0  0  0  0  0  0  0  0  0  0  0
   35.6237   32.0420   36.2434 H   0  0  0  0  0  0  0  0  0  0  0  0
   37.4264   22.3304   36.9636 H   0  0  0  0  0  0  0  0  0  0  0  0
   39.0772   21.7653   37.3354 H   0  0  0  0  0  0  0  0  0  0  0  0
  1 32  1  0
  2  1  2  0
  3  2  1  0
  4  5  1  0
  4  3  2  0
  5  6  2  0
  6  1  1  0
  7  5  1  0
  7  8  1  0
  9 27  1  0
  9  8  2  0
 10 11  2  0
 10  9  1  0
 11  7  1  0
 12 11  1  0
 13 12  2  0
 14 15  2  0
 14 13  1  0
 15 16  1  0
 16 12  1  0
 16 17  1  0
 17 18  2  0
 18 19  1  0
 20 19  2  0
 21 20  1  0
 22 21  2  0
 23 22  1  0
 24 25  1  0
 24 23  2  0
 25 26  2  0
 26 17  1  0
 26 21  1  0
 27 31  1  0
 28 27  2  0
 28 29  1  0
 29 30  1  0
 31 30  2  0
  2 33  1  0
  3 34  1  0
  8 35  1  0
 13 36  1  0
 15 37  1  0
 19 38  1  0
 22 39  1  0
 23 40  1  0
 24 41  1  0
 25 42  1  0
 28 43  1  0
 30 44  1  0
 32 45  1  0
 32 46  1  0
M  ISO  8  33  14  34  14  35  14  36  14  37  14  38  14  39  14  40  14
M  ISO  4  41  14  42  14  43  14  44  14
M  END
>  <minimizedAffinity>  (1) 
-6.64002609

>  <minimizedRMSD>  (1) 
0.592689753

$$$$
