
     RDKit          3D

 53 58  0  0  0  0  0  0  0  0999 V2000
   39.0820   23.5210   36.1130 C   0  0  0  0  0  0  0  0  0  0  0  0
   40.4920   23.6740   35.9860 C   0  0  0  0  0  0  0  0  0  0  0  0
   40.9420   24.7460   35.2610 C   0  0  0  0  0  0  0  0  0  0  0  0
   39.9970   25.5450   34.7430 N   0  0  0  0  0  0  0  0  0  0  0  0
   38.7080   25.4280   34.8430 C   0  0  0  0  0  0  0  0  0  0  0  0
   38.2420   24.3820   35.5500 N   0  0  0  0  0  0  0  0  0  0  0  0
   37.9480   26.4180   34.2010 N   0  0  0  0  0  0  0  0  0  0  0  0
   37.2200   27.2720   34.9700 C   0  0  0  0  0  0  0  0  0  0  0  0
   36.5550   28.1550   34.1470 C   0  0  0  0  0  0  0  0  0  0  0  0
   36.8830   27.8290   32.9010 N   0  0  0  0  0  0  0  0  0  0  0  0
   37.7470   26.7500   32.9250 C   0  0  0  0  0  0  0  0  0  0  0  0
   38.2760   26.1210   31.7570 C   0  0  0  0  0  0  0  0  0  0  0  0
   38.7250   26.8610   30.6470 C   0  0  0  0  0  0  0  0  0  0  0  0
   39.1500   25.9960   29.6710 N   0  0  0  0  0  0  0  0  0  0  0  0
   38.9590   24.7100   30.1890 C   0  0  0  0  0  0  0  0  0  0  0  0
   38.4540   24.8710   31.4020 N   0  0  0  0  0  0  0  0  0  0  0  0
   38.3610   23.5590   31.8780 C   0  0  0  0  0  0  0  0  0  0  0  0
   39.5060   23.1460   32.4320 N   0  0  0  0  0  0  0  0  0  0  0  0
   39.6050   21.8710   32.8900 C   0  0  0  0  0  0  0  0  0  0  0  0
   38.6160   20.9790   32.8280 N   0  0  0  0  0  0  0  0  0  0  0  0
   37.4450   21.3540   32.2790 C   0  0  0  0  0  0  0  0  0  0  0  0
   36.3470   20.5430   32.1460 C   0  0  0  0  0  0  0  0  0  0  0  0
   35.1890   20.9760   31.5790 C   0  0  0  0  0  0  0  0  0  0  0  0
   35.1060   22.2860   31.1130 C   0  0  0  0  0  0  0  0  0  0  0  0
   36.1700   23.1470   31.2170 C   0  0  0  0  0  0  0  0  0  0  0  0
   37.3110   22.6630   31.7960 C   0  0  0  0  0  0  0  0  0  0  0  0
   35.6750   29.2290   34.4680 N   0  0  0  0  0  0  0  0  0  0  0  0
   36.0320   30.2910   35.3890 C   0  0  0  0  0  0  0  0  0  0  0  0
   35.2030   31.5000   35.0480 C   0  0  0  0  0  0  0  0  0  0  0  0
   33.8520   31.2780   35.2840 O   0  0  0  0  0  0  0  0  0  0  0  0
   33.4600   29.9850   34.9670 C   0  0  0  0  0  0  0  0  0  0  0  0
   34.3530   29.3530   33.9060 C   0  0  0  0  0  0  0  0  0  0  0  0
   38.5710   22.4110   36.8820 N   0  0  0  0  0  0  0  0  0  0  0  0
   41.1902   22.9619   36.4502 H   0  0  0  0  0  0  0  0  0  0  0  0
   42.0145   24.9400   35.1125 H   0  0  0  0  0  0  0  0  0  0  0  0
   37.1703   27.2597   36.0688 H   0  0  0  0  0  0  0  0  0  0  0  0
   38.7337   27.9585   30.5739 H   0  0  0  0  0  0  0  0  0  0  0  0
   39.1835   23.7565   29.6885 H   0  0  0  0  0  0  0  0  0  0  0  0
   40.5584   21.5555   33.3390 H   0  0  0  0  0  0  0  0  0  0  0  0
   36.4049   19.5067   32.5104 H   0  0  0  0  0  0  0  0  0  0  0  0
   34.3269   20.2987   31.4894 H   0  0  0  0  0  0  0  0  0  0  0  0
   34.1705   22.6371   30.6531 H   0  0  0  0  0  0  0  0  0  0  0  0
   36.1078   24.1822   30.8503 H   0  0  0  0  0  0  0  0  0  0  0  0
   35.8241   29.9750   36.4219 H   0  0  0  0  0  0  0  0  0  0  0  0
   37.1033   30.5259   35.3049 H   0  0  0  0  0  0  0  0  0  0  0  0
   35.3444   31.7411   33.9841 H   0  0  0  0  0  0  0  0  0  0  0  0
   35.5311   32.3330   35.6871 H   0  0  0  0  0  0  0  0  0  0  0  0
   33.5026   29.3693   35.8775 H   0  0  0  0  0  0  0  0  0  0  0  0
   32.4385   30.0331   34.5616 H   0  0  0  0  0  0  0  0  0  0  0  0
   34.3838   29.9928   33.0118 H   0  0  0  0  0  0  0  0  0  0  0  0
   33.9643   28.3673   33.6104 H   0  0  0  0  0  0  0  0  0  0  0  0
   37.5545   22.2816   36.9867 H   0  0  0  0  0  0  0  0  0  0  0  0
   39.2229   21.7486   37.3259 H   0  0  0  0  0  0  0  0  0  0  0  0
  1 33  1  0
  2  1  2  0
  3  2  1  0
  4  5  1  0
  4  3  2  0
  5  6  2  0
  6  1  1  0
  7  5  1  0
  7  8  1  0
  9 27  1  0
  9  8  2  0
 10 11  2  0
 10  9  1  0
 11  7  1  0
 12 11  1  0
 13 12  2  0
 14 15  2  0
 14 13  1  0
 15 16  1  0
 16 12  1  0
 16 17  1  0
 17 18  2  0
 18 19  1  0
 20 19  2  0
 21 20  1  0
 22 21  2  0
 23 22  1  0
 24 25  1  0
 24 23  2  0
 25 26  2  0
 26 17  1  0
 26 21  1  0
 27 28  1  0
 29 30  1  0
 29 28  1  0
 31 30  1  0
 32 27  1  0
 32 31  1  0
  2 34  1  0
  3 35  1  0
  8 36  1  0
 13 37  1  0
 15 38  1  0
 19 39  1  0
 22 40  1  0
 23 41  1  0
 24 42  1  0
 25 43  1  0
 28 44  1  0
 28 45  1  0
 29 46  1  0
 29 47  1  0
 31 48  1  0
 31 49  1  0
 32 50  1  0
 32 51  1  0
 33 52  1  0
 33 53  1  0
M  ISO  8  34  14  35  14  36  14  37  14  38  14  39  14  40  14  41  14
M  ISO  8  42  14  43  14  44  13  45  13  46  13  47  13  48  13  49  13
M  ISO  2  50  13  51  13
M  END
>  <minimizedAffinity>  (1) 
-6.71031809

>  <minimizedRMSD>  (1) 
0.583123505

$$$$
