
     RDKit          3D

 46 51  0  0  0  0  0  0  0  0999 V2000
   38.2730   26.0830   31.7450 C   0  0  0  0  0  0  0  0  0  0  0  0
   38.7260   26.8150   30.6320 C   0  0  0  0  0  0  0  0  0  0  0  0
   39.1510   25.9430   29.6630 N   0  0  0  0  0  0  0  0  0  0  0  0
   38.9560   24.6590   30.1870 C   0  0  0  0  0  0  0  0  0  0  0  0
   38.4470   24.8310   31.3990 N   0  0  0  0  0  0  0  0  0  0  0  0
   38.3520   23.5210   31.8820 C   0  0  0  0  0  0  0  0  0  0  0  0
   39.4950   23.1090   32.4410 N   0  0  0  0  0  0  0  0  0  0  0  0
   39.5970   21.8380   32.9090 C   0  0  0  0  0  0  0  0  0  0  0  0
   38.6010   20.9460   32.8440 N   0  0  0  0  0  0  0  0  0  0  0  0
   37.4360   21.3170   32.2900 C   0  0  0  0  0  0  0  0  0  0  0  0
   36.3380   20.5070   32.1570 C   0  0  0  0  0  0  0  0  0  0  0  0
   35.1800   20.9380   31.5800 C   0  0  0  0  0  0  0  0  0  0  0  0
   35.1010   22.2450   31.1090 C   0  0  0  0  0  0  0  0  0  0  0  0
   36.1650   23.1060   31.2130 C   0  0  0  0  0  0  0  0  0  0  0  0
   37.3040   22.6240   31.8000 C   0  0  0  0  0  0  0  0  0  0  0  0
   39.0570   23.5080   36.1190 C   0  0  0  0  0  0  0  0  0  0  0  0
   40.4670   23.6590   35.9990 C   0  0  0  0  0  0  0  0  0  0  0  0
   40.9210   24.7270   35.2700 C   0  0  0  0  0  0  0  0  0  0  0  0
   39.9790   25.5240   34.7420 N   0  0  0  0  0  0  0  0  0  0  0  0
   38.6890   25.4080   34.8370 C   0  0  0  0  0  0  0  0  0  0  0  0
   38.2210   24.3670   35.5470 N   0  0  0  0  0  0  0  0  0  0  0  0
   37.9320   26.3920   34.1870 N   0  0  0  0  0  0  0  0  0  0  0  0
   37.1970   27.2510   34.9470 C   0  0  0  0  0  0  0  0  0  0  0  0
   36.5370   28.1280   34.1140 C   0  0  0  0  0  0  0  0  0  0  0  0
   36.8730   27.7970   32.8680 N   0  0  0  0  0  0  0  0  0  0  0  0
   37.7390   26.7180   32.9080 C   0  0  0  0  0  0  0  0  0  0  0  0
   35.6570   29.1940   34.4640 N   0  0  0  0  0  0  0  0  0  0  0  0
   34.3650   29.4240   34.1680 C   0  0  0  0  0  0  0  0  0  0  0  0
   33.9930   30.5950   34.7550 N   0  0  0  0  0  0  0  0  0  0  0  0
   35.0830   31.0810   35.4170 C   0  0  0  0  0  0  0  0  0  0  0  0
   36.1050   30.2020   35.2280 N   0  0  0  0  0  0  0  0  0  0  0  0
   38.5430   22.4050   36.8940 N   0  0  0  0  0  0  0  0  0  0  0  0
   38.7374   27.9120   30.5520 H   0  0  0  0  0  0  0  0  0  0  0  0
   39.1798   23.7019   29.6931 H   0  0  0  0  0  0  0  0  0  0  0  0
   40.5478   21.5253   33.3653 H   0  0  0  0  0  0  0  0  0  0  0  0
   36.3930   19.4732   32.5287 H   0  0  0  0  0  0  0  0  0  0  0  0
   34.3184   20.2604   31.4880 H   0  0  0  0  0  0  0  0  0  0  0  0
   34.1675   22.5951   30.6442 H   0  0  0  0  0  0  0  0  0  0  0  0
   36.1050   24.1393   30.8405 H   0  0  0  0  0  0  0  0  0  0  0  0
   41.1623   22.9492   36.4709 H   0  0  0  0  0  0  0  0  0  0  0  0
   41.9944   24.9197   35.1261 H   0  0  0  0  0  0  0  0  0  0  0  0
   37.1398   27.2454   36.0455 H   0  0  0  0  0  0  0  0  0  0  0  0
   33.7194   28.7767   33.5563 H   0  0  0  0  0  0  0  0  0  0  0  0
   35.1276   32.0140   35.9980 H   0  0  0  0  0  0  0  0  0  0  0  0
   37.5261   22.2760   36.9946 H   0  0  0  0  0  0  0  0  0  0  0  0
   39.1930   21.7466   37.3467 H   0  0  0  0  0  0  0  0  0  0  0  0
  1 26  1  0
  2  1  2  0
  3  4  2  0
  3  2  1  0
  4  5  1  0
  5  1  1  0
  5  6  1  0
  6  7  2  0
  7  8  1  0
  9  8  2  0
 10  9  1  0
 11 10  2  0
 12 11  1  0
 13 14  1  0
 13 12  2  0
 14 15  2  0
 15  6  1  0
 15 10  1  0
 16 32  1  0
 17 16  2  0
 18 17  1  0
 19 20  1  0
 19 18  2  0
 20 21  2  0
 21 16  1  0
 22 20  1  0
 22 23  1  0
 24 27  1  0
 24 23  2  0
 25 26  2  0
 25 24  1  0
 26 22  1  0
 27 31  1  0
 28 27  1  0
 28 29  2  0
 29 30  1  0
 31 30  2  0
  2 33  1  0
  4 34  1  0
  8 35  1  0
 11 36  1  0
 12 37  1  0
 13 38  1  0
 14 39  1  0
 17 40  1  0
 18 41  1  0
 23 42  1  0
 28 43  1  0
 30 44  1  0
 32 45  1  0
 32 46  1  0
M  ISO  8  33  14  34  14  35  14  36  14  37  14  38  14  39  14  40  14
M  ISO  4  41  14  42  14  43  14  44  14
M  END
>  <minimizedAffinity>  (1) 
-6.64962435

>  <minimizedRMSD>  (1) 
0.535370767

$$$$
