
     RDKit          3D

 41 45  0  0  0  0  0  0  0  0999 V2000
   38.3980   25.8430   31.7150 C   0  0  0  0  0  0  0  0  0  0  0  0
   38.8070   26.5970   30.5960 C   0  0  0  0  0  0  0  0  0  0  0  0
   39.2170   25.7450   29.6010 N   0  0  0  0  0  0  0  0  0  0  0  0
   39.0570   24.4510   30.1170 C   0  0  0  0  0  0  0  0  0  0  0  0
   38.5830   24.5970   31.3450 N   0  0  0  0  0  0  0  0  0  0  0  0
   38.5250   23.2820   31.8150 C   0  0  0  0  0  0  0  0  0  0  0  0
   39.6960   22.8840   32.3340 N   0  0  0  0  0  0  0  0  0  0  0  0
   39.8220   21.6050   32.7800 C   0  0  0  0  0  0  0  0  0  0  0  0
   38.8460   20.7010   32.7370 N   0  0  0  0  0  0  0  0  0  0  0  0
   37.6500   21.0630   32.2210 C   0  0  0  0  0  0  0  0  0  0  0  0
   36.5650   20.2350   32.1120 C   0  0  0  0  0  0  0  0  0  0  0  0
   35.3880   20.6530   31.5810 C   0  0  0  0  0  0  0  0  0  0  0  0
   35.2720   21.9610   31.1290 C   0  0  0  0  0  0  0  0  0  0  0  0
   36.3230   22.8420   31.2100 C   0  0  0  0  0  0  0  0  0  0  0  0
   37.4860   22.3720   31.7540 C   0  0  0  0  0  0  0  0  0  0  0  0
   39.5150   23.3190   36.0440 C   0  0  0  0  0  0  0  0  0  0  0  0
   40.9070   23.5330   35.8560 C   0  0  0  0  0  0  0  0  0  0  0  0
   41.2740   24.6190   35.1050 C   0  0  0  0  0  0  0  0  0  0  0  0
   40.2760   25.3710   34.6220 N   0  0  0  0  0  0  0  0  0  0  0  0
   38.9970   25.1960   34.7800 C   0  0  0  0  0  0  0  0  0  0  0  0
   38.6150   24.1390   35.5120 N   0  0  0  0  0  0  0  0  0  0  0  0
   38.1670   26.1450   34.1680 N   0  0  0  0  0  0  0  0  0  0  0  0
   37.4420   26.9720   34.9650 C   0  0  0  0  0  0  0  0  0  0  0  0
   36.6990   27.8210   34.1640 C   0  0  0  0  0  0  0  0  0  0  0  0
   36.9850   27.4980   32.9020 N   0  0  0  0  0  0  0  0  0  0  0  0
   37.8930   26.4580   32.9010 C   0  0  0  0  0  0  0  0  0  0  0  0
   39.0850   22.1930   36.8430 N   0  0  0  0  0  0  0  0  0  0  0  0
   35.8120   28.8340   34.5080 O   0  0  0  0  0  0  0  0  0  0  0  0
   38.7988   27.6950   30.5307 H   0  0  0  0  0  0  0  0  0  0  0  0
   39.2805   23.5038   29.6042 H   0  0  0  0  0  0  0  0  0  0  0  0
   40.7905   21.2989   33.2023 H   0  0  0  0  0  0  0  0  0  0  0  0
   36.6500   19.1971   32.4664 H   0  0  0  0  0  0  0  0  0  0  0  0
   34.5346   19.9627   31.5094 H   0  0  0  0  0  0  0  0  0  0  0  0
   34.3184   22.2988   30.6970 H   0  0  0  0  0  0  0  0  0  0  0  0
   36.2329   23.8787   30.8533 H   0  0  0  0  0  0  0  0  0  0  0  0
   41.6565   22.8572   36.2937 H   0  0  0  0  0  0  0  0  0  0  0  0
   42.3294   24.8599   34.9096 H   0  0  0  0  0  0  0  0  0  0  0  0
   37.4450   26.9676   36.0650 H   0  0  0  0  0  0  0  0  0  0  0  0
   38.0804   22.0205   36.9913 H   0  0  0  0  0  0  0  0  0  0  0  0
   39.7833   21.5635   37.2638 H   0  0  0  0  0  0  0  0  0  0  0  0
   35.3564   29.3547   33.7998 H   0  0  0  0  0  0  0  0  0  0  0  0
  1 26  1  0
  2  1  2  0
  3  4  2  0
  3  2  1  0
  4  5  1  0
  5  1  1  0
  5  6  1  0
  6  7  2  0
  7  8  1  0
  9  8  2  0
 10  9  1  0
 11 10  2  0
 12 11  1  0
 13 14  1  0
 13 12  2  0
 14 15  2  0
 15  6  1  0
 15 10  1  0
 16 27  1  0
 17 16  2  0
 18 17  1  0
 19 20  1  0
 19 18  2  0
 20 21  2  0
 21 16  1  0
 22 20  1  0
 22 23  1  0
 24 28  1  0
 24 23  2  0
 25 24  1  0
 26 25  2  0
 26 22  1  0
  2 29  1  0
  4 30  1  0
  8 31  1  0
 11 32  1  0
 12 33  1  0
 13 34  1  0
 14 35  1  0
 17 36  1  0
 18 37  1  0
 23 38  1  0
 27 39  1  0
 27 40  1  0
 28 41  1  0
M  ISO  8  29  14  30  14  31  14  32  14  33  14  34  14  35  14  36  14
M  ISO  3  37  14  38  14  41   3
M  END
>  <minimizedAffinity>  (1) 
-6.21184397

>  <minimizedRMSD>  (1) 
0.200619191

$$$$
