
     RDKit          3D

 42 46  0  0  0  0  0  0  0  0999 V2000
   38.3910   25.8690   31.6710 C   0  0  0  0  0  0  0  0  0  0  0  0
   38.8170   26.6000   30.5470 C   0  0  0  0  0  0  0  0  0  0  0  0
   39.2350   25.7290   29.5730 N   0  0  0  0  0  0  0  0  0  0  0  0
   39.0630   24.4460   30.1070 C   0  0  0  0  0  0  0  0  0  0  0  0
   38.5740   24.6160   31.3250 N   0  0  0  0  0  0  0  0  0  0  0  0
   38.5050   23.3090   31.8180 C   0  0  0  0  0  0  0  0  0  0  0  0
   39.6640   22.9150   32.3580 N   0  0  0  0  0  0  0  0  0  0  0  0
   39.7830   21.6450   32.8290 C   0  0  0  0  0  0  0  0  0  0  0  0
   38.8030   20.7430   32.7910 N   0  0  0  0  0  0  0  0  0  0  0  0
   37.6160   21.1000   32.2540 C   0  0  0  0  0  0  0  0  0  0  0  0
   36.5300   20.2750   32.1460 C   0  0  0  0  0  0  0  0  0  0  0  0
   35.3590   20.6890   31.5900 C   0  0  0  0  0  0  0  0  0  0  0  0
   35.2560   21.9930   31.1130 C   0  0  0  0  0  0  0  0  0  0  0  0
   36.3110   22.8670   31.1930 C   0  0  0  0  0  0  0  0  0  0  0  0
   37.4640   22.4000   31.7610 C   0  0  0  0  0  0  0  0  0  0  0  0
   39.4050   23.3940   36.0540 C   0  0  0  0  0  0  0  0  0  0  0  0
   40.8030   23.5890   35.8860 C   0  0  0  0  0  0  0  0  0  0  0  0
   41.1960   24.6610   35.1250 C   0  0  0  0  0  0  0  0  0  0  0  0
   40.2120   25.4170   34.6170 N   0  0  0  0  0  0  0  0  0  0  0  0
   38.9290   25.2600   34.7550 C   0  0  0  0  0  0  0  0  0  0  0  0
   38.5210   24.2150   35.4970 N   0  0  0  0  0  0  0  0  0  0  0  0
   38.1190   26.2080   34.1150 N   0  0  0  0  0  0  0  0  0  0  0  0
   37.3860   27.0540   34.8860 C   0  0  0  0  0  0  0  0  0  0  0  0
   36.6690   27.8970   34.0640 C   0  0  0  0  0  0  0  0  0  0  0  0
   36.9720   27.5540   32.8110 N   0  0  0  0  0  0  0  0  0  0  0  0
   37.8730   26.5030   32.8370 C   0  0  0  0  0  0  0  0  0  0  0  0
   38.9520   22.2840   36.8610 N   0  0  0  0  0  0  0  0  0  0  0  0
   35.7680   28.9430   34.4550 N   0  0  0  0  0  0  0  0  0  0  0  0
   38.8152   27.6967   30.4625 H   0  0  0  0  0  0  0  0  0  0  0  0
   39.2889   23.4893   29.6134 H   0  0  0  0  0  0  0  0  0  0  0  0
   40.7459   21.3443   33.2676 H   0  0  0  0  0  0  0  0  0  0  0  0
   36.6058   19.2436   32.5208 H   0  0  0  0  0  0  0  0  0  0  0  0
   34.5035   20.0012   31.5182 H   0  0  0  0  0  0  0  0  0  0  0  0
   34.3102   22.3293   30.6631 H   0  0  0  0  0  0  0  0  0  0  0  0
   36.2327   23.8977   30.8168 H   0  0  0  0  0  0  0  0  0  0  0  0
   41.5370   22.9108   36.3456 H   0  0  0  0  0  0  0  0  0  0  0  0
   42.2569   24.8871   34.9423 H   0  0  0  0  0  0  0  0  0  0  0  0
   37.3679   27.0643   35.9858 H   0  0  0  0  0  0  0  0  0  0  0  0
   37.9436   22.1235   36.9965 H   0  0  0  0  0  0  0  0  0  0  0  0
   39.6375   21.6534   37.3007 H   0  0  0  0  0  0  0  0  0  0  0  0
   35.2903   29.5063   33.7371 H   0  0  0  0  0  0  0  0  0  0  0  0
   35.5990   29.1306   35.4536 H   0  0  0  0  0  0  0  0  0  0  0  0
  1 26  1  0
  2  1  2  0
  3  4  2  0
  3  2  1  0
  4  5  1  0
  5  1  1  0
  5  6  1  0
  6  7  2  0
  7  8  1  0
  9  8  2  0
 10  9  1  0
 11 10  2  0
 12 11  1  0
 13 14  1  0
 13 12  2  0
 14 15  2  0
 15  6  1  0
 15 10  1  0
 16 27  1  0
 17 16  2  0
 18 17  1  0
 19 20  1  0
 19 18  2  0
 20 21  2  0
 21 16  1  0
 22 20  1  0
 22 23  1  0
 24 28  1  0
 24 23  2  0
 25 26  2  0
 25 24  1  0
 26 22  1  0
  2 29  1  0
  4 30  1  0
  8 31  1  0
 11 32  1  0
 12 33  1  0
 13 34  1  0
 14 35  1  0
 17 36  1  0
 18 37  1  0
 23 38  1  0
 27 39  1  0
 27 40  1  0
 28 41  1  0
 28 42  1  0
M  ISO  8  29  14  30  14  31  14  32  14  33  14  34  14  35  14  36  14
M  ISO  2  37  14  38  14
M  END
>  <minimizedAffinity>  (1) 
-6.19254971

>  <minimizedRMSD>  (1) 
0.2688407

$$$$
