
     RDKit          3D

 49 53  0  0  0  0  0  0  0  0999 V2000
   38.2480   25.9230   31.6410 C   0  0  0  0  0  0  0  0  0  0  0  0
   38.6990   26.6350   30.5130 C   0  0  0  0  0  0  0  0  0  0  0  0
   39.1720   25.7480   29.5780 N   0  0  0  0  0  0  0  0  0  0  0  0
   39.0090   24.4770   30.1400 C   0  0  0  0  0  0  0  0  0  0  0  0
   38.4730   24.6640   31.3340 N   0  0  0  0  0  0  0  0  0  0  0  0
   38.4090   23.3700   31.8550 C   0  0  0  0  0  0  0  0  0  0  0  0
   39.5540   23.0100   32.4460 N   0  0  0  0  0  0  0  0  0  0  0  0
   39.6790   21.7550   32.9540 C   0  0  0  0  0  0  0  0  0  0  0  0
   38.7210   20.8360   32.9040 N   0  0  0  0  0  0  0  0  0  0  0  0
   37.5460   21.1540   32.3170 C   0  0  0  0  0  0  0  0  0  0  0  0
   36.4780   20.3050   32.1940 C   0  0  0  0  0  0  0  0  0  0  0  0
   35.3220   20.6820   31.5890 C   0  0  0  0  0  0  0  0  0  0  0  0
   35.2100   21.9710   31.0750 C   0  0  0  0  0  0  0  0  0  0  0  0
   36.2440   22.8680   31.1660 C   0  0  0  0  0  0  0  0  0  0  0  0
   37.3860   22.4390   31.7860 C   0  0  0  0  0  0  0  0  0  0  0  0
   39.0620   23.5180   36.1060 C   0  0  0  0  0  0  0  0  0  0  0  0
   40.4670   23.7120   36.0000 C   0  0  0  0  0  0  0  0  0  0  0  0
   40.8960   24.7720   35.2410 C   0  0  0  0  0  0  0  0  0  0  0  0
   39.9350   25.5170   34.6760 N   0  0  0  0  0  0  0  0  0  0  0  0
   38.6470   25.3610   34.7570 C   0  0  0  0  0  0  0  0  0  0  0  0
   38.2050   24.3290   35.4960 N   0  0  0  0  0  0  0  0  0  0  0  0
   37.8650   26.2990   34.0660 N   0  0  0  0  0  0  0  0  0  0  0  0
   37.0960   27.1550   34.7880 C   0  0  0  0  0  0  0  0  0  0  0  0
   36.4160   27.9820   33.9190 C   0  0  0  0  0  0  0  0  0  0  0  0
   36.7760   27.6230   32.6920 N   0  0  0  0  0  0  0  0  0  0  0  0
   37.6780   26.5740   32.7740 C   0  0  0  0  0  0  0  0  0  0  0  0
   38.5740   22.4200   36.9090 N   0  0  0  0  0  0  0  0  0  0  0  0
   35.4510   29.0840   34.2170 C   0  0  0  0  0  0  0  0  0  0  0  0
   36.0860   30.1310   35.0990 C   0  0  0  0  0  0  0  0  0  0  0  0
   34.9730   29.7530   32.9570 C   0  0  0  0  0  0  0  0  0  0  0  0
   38.6760   27.7288   30.3990 H   0  0  0  0  0  0  0  0  0  0  0  0
   39.2741   23.5137   29.6798 H   0  0  0  0  0  0  0  0  0  0  0  0
   40.6304   21.4844   33.4352 H   0  0  0  0  0  0  0  0  0  0  0  0
   36.5593   19.2852   32.5982 H   0  0  0  0  0  0  0  0  0  0  0  0
   34.4826   19.9760   31.5059 H   0  0  0  0  0  0  0  0  0  0  0  0
   34.2733   22.2765   30.5859 H   0  0  0  0  0  0  0  0  0  0  0  0
   36.1589   23.8863   30.7589 H   0  0  0  0  0  0  0  0  0  0  0  0
   41.1787   23.0418   36.5043 H   0  0  0  0  0  0  0  0  0  0  0  0
   41.9641   24.9968   35.1044 H   0  0  0  0  0  0  0  0  0  0  0  0
   37.0271   27.1837   35.8855 H   0  0  0  0  0  0  0  0  0  0  0  0
   37.5607   22.2596   37.0007 H   0  0  0  0  0  0  0  0  0  0  0  0
   39.2395   21.7979   37.3896 H   0  0  0  0  0  0  0  0  0  0  0  0
   34.5953   28.6254   34.7341 H   0  0  0  0  0  0  0  0  0  0  0  0
   35.9260   29.8671   36.1548 H   0  0  0  0  0  0  0  0  0  0  0  0
   37.1654   30.1788   34.8925 H   0  0  0  0  0  0  0  0  0  0  0  0
   35.6295   31.1103   34.8925 H   0  0  0  0  0  0  0  0  0  0  0  0
   34.3516   30.6227   33.2167 H   0  0  0  0  0  0  0  0  0  0  0  0
   35.8397   30.0848   32.3665 H   0  0  0  0  0  0  0  0  0  0  0  0
   34.3782   29.0406   32.3665 H   0  0  0  0  0  0  0  0  0  0  0  0
  1 26  1  0
  2  1  2  0
  3  4  2  0
  3  2  1  0
  4  5  1  0
  5  1  1  0
  5  6  1  0
  6  7  2  0
  7  8  1  0
  9  8  2  0
 10  9  1  0
 11 10  2  0
 12 11  1  0
 13 14  1  0
 13 12  2  0
 14 15  2  0
 15  6  1  0
 15 10  1  0
 16 27  1  0
 17 16  2  0
 18 17  1  0
 19 20  1  0
 19 18  2  0
 20 21  2  0
 21 16  1  0
 22 20  1  0
 22 23  1  0
 24 28  1  0
 24 23  2  0
 25 26  2  0
 25 24  1  0
 26 22  1  0
 28 29  1  0
 30 28  1  0
  2 31  1  0
  4 32  1  0
  8 33  1  0
 11 34  1  0
 12 35  1  0
 13 36  1  0
 14 37  1  0
 17 38  1  0
 18 39  1  0
 23 40  1  0
 27 41  1  0
 27 42  1  0
 28 43  1  0
 29 44  1  0
 29 45  1  0
 29 46  1  0
 30 47  1  0
 30 48  1  0
 30 49  1  0
M  ISO  8  31  14  32  14  33  14  34  14  35  14  36  14  37  14  38  14
M  ISO  8  39  14  40  14  43   8  44   8  45   8  46   8  47   8  48   8
M  ISO  1  49   8
M  END
>  <minimizedAffinity>  (1) 
-6.32191229

>  <minimizedRMSD>  (1) 
0.716404974

$$$$
