
     RDKit          3D

 52 56  0  0  0  0  0  0  0  0999 V2000
   38.2760   26.2420   31.7070 C   0  0  0  0  0  0  0  0  0  0  0  0
   38.7760   26.9380   30.5890 C   0  0  0  0  0  0  0  0  0  0  0  0
   39.2420   26.0350   29.6670 N   0  0  0  0  0  0  0  0  0  0  0  0
   39.0250   24.7700   30.2260 C   0  0  0  0  0  0  0  0  0  0  0  0
   38.4660   24.9770   31.4070 N   0  0  0  0  0  0  0  0  0  0  0  0
   38.3510   23.6850   31.9280 C   0  0  0  0  0  0  0  0  0  0  0  0
   39.4700   23.2900   32.5450 N   0  0  0  0  0  0  0  0  0  0  0  0
   39.5460   22.0340   33.0550 C   0  0  0  0  0  0  0  0  0  0  0  0
   38.5590   21.1420   32.9810 N   0  0  0  0  0  0  0  0  0  0  0  0
   37.4120   21.4960   32.3680 C   0  0  0  0  0  0  0  0  0  0  0  0
   36.3230   20.6810   32.2200 C   0  0  0  0  0  0  0  0  0  0  0  0
   35.1910   21.0920   31.5880 C   0  0  0  0  0  0  0  0  0  0  0  0
   35.1300   22.3850   31.0710 C   0  0  0  0  0  0  0  0  0  0  0  0
   36.1890   23.2490   31.1880 C   0  0  0  0  0  0  0  0  0  0  0  0
   37.3030   22.7850   31.8330 C   0  0  0  0  0  0  0  0  0  0  0  0
   38.6640   23.6840   36.1460 C   0  0  0  0  0  0  0  0  0  0  0  0
   40.0840   23.7690   36.1160 C   0  0  0  0  0  0  0  0  0  0  0  0
   40.6320   24.8080   35.4080 C   0  0  0  0  0  0  0  0  0  0  0  0
   39.7630   25.6380   34.8130 N   0  0  0  0  0  0  0  0  0  0  0  0
   38.4670   25.5840   34.8250 C   0  0  0  0  0  0  0  0  0  0  0  0
   37.9050   24.5720   35.5130 N   0  0  0  0  0  0  0  0  0  0  0  0
   37.7970   26.5940   34.1190 N   0  0  0  0  0  0  0  0  0  0  0  0
   37.0580   27.4930   34.8240 C   0  0  0  0  0  0  0  0  0  0  0  0
   36.4910   28.3890   33.9430 C   0  0  0  0  0  0  0  0  0  0  0  0
   36.8880   28.0280   32.7260 N   0  0  0  0  0  0  0  0  0  0  0  0
   37.6980   26.9130   32.8270 C   0  0  0  0  0  0  0  0  0  0  0  0
   35.6030   29.5560   34.1990 C   0  0  0  0  0  0  0  0  0  0  0  0
   34.1750   29.1230   34.3380 C   0  0  0  0  0  0  0  0  0  0  0  0
   36.0940   30.3660   35.3810 C   0  0  0  0  0  0  0  0  0  0  0  0
   35.6350   30.5200   33.0060 C   0  0  0  0  0  0  0  0  0  0  0  0
   38.0500   22.6120   36.8940 N   0  0  0  0  0  0  0  0  0  0  0  0
   38.7905   28.0318   30.4735 H   0  0  0  0  0  0  0  0  0  0  0  0
   39.2703   23.7979   29.7735 H   0  0  0  0  0  0  0  0  0  0  0  0
   40.4771   21.7353   33.5589 H   0  0  0  0  0  0  0  0  0  0  0  0
   36.3644   19.6594   32.6257 H   0  0  0  0  0  0  0  0  0  0  0  0
   34.3329   20.4114   31.4860 H   0  0  0  0  0  0  0  0  0  0  0  0
   34.2152   22.7189   30.5594 H   0  0  0  0  0  0  0  0  0  0  0  0
   36.1446   24.2700   30.7812 H   0  0  0  0  0  0  0  0  0  0  0  0
   40.7145   23.0339   36.6376 H   0  0  0  0  0  0  0  0  0  0  0  0
   41.7199   24.9519   35.3327 H   0  0  0  0  0  0  0  0  0  0  0  0
   36.9335   27.5032   35.9169 H   0  0  0  0  0  0  0  0  0  0  0  0
   33.9177   29.0450   35.4046 H   0  0  0  0  0  0  0  0  0  0  0  0
   33.5190   29.8626   33.8557 H   0  0  0  0  0  0  0  0  0  0  0  0
   34.0402   28.1436   33.8557 H   0  0  0  0  0  0  0  0  0  0  0  0
   35.7933   29.8700   36.3157 H   0  0  0  0  0  0  0  0  0  0  0  0
   37.1907   30.4425   35.3429 H   0  0  0  0  0  0  0  0  0  0  0  0
   35.6546   31.3737   35.3429 H   0  0  0  0  0  0  0  0  0  0  0  0
   35.6694   31.5564   33.3729 H   0  0  0  0  0  0  0  0  0  0  0  0
   36.5269   30.3176   32.3948 H   0  0  0  0  0  0  0  0  0  0  0  0
   34.7316   30.3772   32.3948 H   0  0  0  0  0  0  0  0  0  0  0  0
   37.0238   22.5308   36.9297 H   0  0  0  0  0  0  0  0  0  0  0  0
   38.6383   21.9286   37.3918 H   0  0  0  0  0  0  0  0  0  0  0  0
  1 26  1  0
  2  1  2  0
  3  4  2  0
  3  2  1  0
  4  5  1  0
  5  1  1  0
  5  6  1  0
  6  7  2  0
  7  8  1  0
  9  8  2  0
 10  9  1  0
 11 10  2  0
 12 11  1  0
 13 14  1  0
 13 12  2  0
 14 15  2  0
 15  6  1  0
 15 10  1  0
 16 31  1  0
 17 16  2  0
 18 17  1  0
 19 20  1  0
 19 18  2  0
 20 21  2  0
 21 16  1  0
 22 23  1  0
 22 20  1  0
 24 27  1  0
 24 23  2  0
 25 26  2  0
 25 24  1  0
 26 22  1  0
 27 28  1  0
 27 29  1  0
 30 27  1  0
  2 32  1  0
  4 33  1  0
  8 34  1  0
 11 35  1  0
 12 36  1  0
 13 37  1  0
 14 38  1  0
 17 39  1  0
 18 40  1  0
 23 41  1  0
 28 42  1  0
 28 43  1  0
 28 44  1  0
 29 45  1  0
 29 46  1  0
 29 47  1  0
 30 48  1  0
 30 49  1  0
 30 50  1  0
 31 51  1  0
 31 52  1  0
M  ISO  8  32  14  33  14  34  14  35  14  36  14  37  14  38  14  39  14
M  ISO  8  40  14  41  14  42   8  43   8  44   8  45   8  46   8  47   8
M  ISO  3  48   8  49   8  50   8
M  END
>  <minimizedAffinity>  (1) 
-6.42973328

>  <minimizedRMSD>  (1) 
0.782729566

$$$$
