
     RDKit          3D

 23 24  0  0  0  0  0  0  0  0999 V2000
   39.9950   22.6920   37.6670 C   0  0  0  0  0  0  0  0  0  0  0  0
   39.0240   23.2630   38.5310 C   0  0  0  0  0  0  0  0  0  0  0  0
   37.7350   23.4300   38.0140 C   0  0  0  0  0  0  0  0  0  0  0  0
   37.4680   23.0490   36.7380 N   0  0  0  0  0  0  0  0  0  0  0  0
   38.4280   22.5060   35.9450 C   0  0  0  0  0  0  0  0  0  0  0  0
   39.6910   22.3250   36.4040 N   0  0  0  0  0  0  0  0  0  0  0  0
   38.1910   22.0940   34.6030 N   0  0  0  0  0  0  0  0  0  0  0  0
   39.1410   22.3960   33.6880 C   0  0  0  0  0  0  0  0  0  0  0  0
   38.9150   21.9970   32.3750 C   0  0  0  0  0  0  0  0  0  0  0  0
   37.7270   21.3080   32.0740 C   0  0  0  0  0  0  0  0  0  0  0  0
   37.5630   20.9650   30.8750 O   0  0  0  0  0  0  0  0  0  0  0  0
   36.8190   21.0380   33.0380 N   0  0  0  0  0  0  0  0  0  0  0  0
   37.0510   21.4330   34.3120 C   0  0  0  0  0  0  0  0  0  0  0  0
   36.2620   21.2170   35.2370 O   0  0  0  0  0  0  0  0  0  0  0  0
   35.6030   20.3280   32.7040 C   0  0  0  0  0  0  0  0  0  0  0  0
   35.6710   19.7530   31.4490 F   0  0  0  0  0  0  0  0  0  0  0  0
   35.3690   19.3260   33.6270 F   0  0  0  0  0  0  0  0  0  0  0  0
   34.5350   21.2350   32.6760 F   0  0  0  0  0  0  0  0  0  0  0  0
   41.0208   22.5449   38.0360 H   0  0  0  0  0  0  0  0  0  0  0  0
   39.2739   23.5605   39.5601 H   0  0  0  0  0  0  0  0  0  0  0  0
   36.9416   23.8677   38.6377 H   0  0  0  0  0  0  0  0  0  0  0  0
   40.0564   22.9360   33.9716 H   0  0  0  0  0  0  0  0  0  0  0  0
   39.6512   22.2162   31.5876 H   0  0  0  0  0  0  0  0  0  0  0  0
  1  2  2  0
  3  2  1  0
  4  3  2  0
  5  6  2  0
  5  4  1  0
  6  1  1  0
  7  5  1  0
  8  7  1  0
  9  8  2  0
 10  9  1  0
 10 12  1  0
 11 10  2  0
 12 13  1  0
 13  7  1  0
 13 14  2  0
 15 12  1  0
 15 17  1  0
 16 15  1  0
 18 15  1  0
  1 19  1  0
  2 20  1  0
  3 21  1  0
  8 22  1  0
  9 23  1  0
M  ISO  5  19  14  20  14  21  14  22  14  23  14
M  END
>  <minimizedAffinity>  (1) 
-5.09948349

>  <minimizedRMSD>  (1) 
1.94359434

$$$$
