
     RDKit          3D

 41 43  0  0  1  0  0  0  0  0999 V2000
   39.4990   23.4460   35.7120 C   0  0  0  0  0  0  0  0  0  0  0  0
   39.9150   24.7520   35.0120 C   0  0  1  0  0  0  0  0  0  0  0  0
   40.0630   24.5750   33.5920 C   0  0  0  0  0  0  0  0  0  0  0  0
   39.4180   25.8040   32.9280 C   0  0  0  0  0  0  0  0  0  0  0  0
   40.0320   27.0190   33.5270 C   0  0  0  0  0  0  0  0  0  0  0  0
   39.8420   27.1570   34.9940 C   0  0  0  0  0  0  0  0  0  0  0  0
   39.1070   25.8950   35.4930 C   0  0  1  0  0  0  0  0  0  0  0  0
   37.4190   26.1000   35.1850 S   0  0  0  0  0  0  0  0  0  0  0  0
   37.3840   21.7550   33.2020 C   0  0  0  0  0  0  0  0  0  0  0  0
   38.2890   20.9500   32.5280 C   0  0  0  0  0  0  0  0  0  0  0  0
   39.5980   21.0000   32.9480 C   0  0  0  0  0  0  0  0  0  0  0  0
   39.9390   21.8130   33.9760 N   0  0  0  0  0  0  0  0  0  0  0  0
   39.0470   22.5800   34.6080 C   0  0  0  0  0  0  0  0  0  0  0  0
   37.7440   22.5530   34.2180 N   0  0  0  0  0  0  0  0  0  0  0  0
   37.7810   20.1620   31.4810 N   0  0  0  0  0  0  0  0  0  0  0  0
   37.0640   19.0760   31.8480 C   0  0  0  0  0  0  0  0  0  0  0  0
   36.5610   18.2830   30.8330 C   0  0  0  0  0  0  0  0  0  0  0  0
   36.8200   18.6420   29.5300 C   0  0  0  0  0  0  0  0  0  0  0  0
   36.3290   17.8360   28.4960 N   0  0  0  0  0  0  0  0  0  0  0  0
   37.5380   19.7310   29.2300 N   0  0  0  0  0  0  0  0  0  0  0  0
   38.0310   20.5110   30.2140 C   0  0  0  0  0  0  0  0  0  0  0  0
   38.7000   21.5240   29.8880 O   0  0  0  0  0  0  0  0  0  0  0  0
   40.3530   22.9951   36.2386 H   0  0  0  0  0  0  0  0  0  0  0  0
   38.7212   23.6024   36.4740 H   0  0  0  0  0  0  0  0  0  0  0  0
   40.9352   25.0371   35.3084 H   0  0  0  0  0  0  0  0  0  0  0  0
   41.1286   24.5148   33.3257 H   0  0  0  0  0  0  0  0  0  0  0  0
   39.5835   23.6440   33.2555 H   0  0  0  0  0  0  0  0  0  0  0  0
   38.3336   25.8030   33.1125 H   0  0  0  0  0  0  0  0  0  0  0  0
   39.5849   25.7853   31.8409 H   0  0  0  0  0  0  0  0  0  0  0  0
   41.1126   26.9916   33.3234 H   0  0  0  0  0  0  0  0  0  0  0  0
   39.5243   27.8799   33.0676 H   0  0  0  0  0  0  0  0  0  0  0  0
   40.8191   27.2429   35.4918 H   0  0  0  0  0  0  0  0  0  0  0  0
   39.2566   28.0596   35.2233 H   0  0  0  0  0  0  0  0  0  0  0  0
   39.0479   25.6811   36.5704 H   0  0  0  0  0  0  0  0  0  0  0  0
   36.7444   26.1819   36.3746 H   0  0  0  0  0  0  0  0  0  0  0  0
   36.3289   21.7387   32.8913 H   0  0  0  0  0  0  0  0  0  0  0  0
   40.3625   20.3838   32.4522 H   0  0  0  0  0  0  0  0  0  0  0  0
   36.8887   18.8341   32.9067 H   0  0  0  0  0  0  0  0  0  0  0  0
   35.9674   17.3857   31.0619 H   0  0  0  0  0  0  0  0  0  0  0  0
   36.5128   18.0887   27.5145 H   0  0  0  0  0  0  0  0  0  0  0  0
   35.7840   16.9903   28.7167 H   0  0  0  0  0  0  0  0  0  0  0  0
  2  7  1  0
  2  1  1  0
  3  2  1  0
  4  5  1  0
  4  3  1  0
  5  6  1  0
  6  7  1  0
  8  7  1  0
  9 14  2  0
 10 11  2  0
 10  9  1  0
 11 12  1  0
 12 13  2  0
 13  1  1  0
 14 13  1  0
 15 16  1  0
 15 10  1  0
 17 16  2  0
 18 17  1  0
 19 18  1  0
 20 18  2  0
 20 21  1  0
 21 15  1  0
 22 21  2  0
  1 23  1  0
  1 24  1  0
  2 25  1  1
  3 26  1  0
  3 27  1  0
  4 28  1  0
  4 29  1  0
  5 30  1  0
  5 31  1  0
  6 32  1  0
  6 33  1  0
  7 34  1  1
  8 35  1  0
  9 36  1  0
 11 37  1  0
 16 38  1  0
 17 39  1  0
 19 40  1  0
 19 41  1  0
M  ISO  8  23   8  24   8  25  13  26  13  27  13  28  13  29  13  30  13
M  ISO  8  31  13  32  13  33  13  34  13  35  11  36  14  37  14  38  14
M  ISO  1  39  14
M  END
>  <minimizedAffinity>  (1) 
-4.14049101

>  <minimizedRMSD>  (1) 
0.923435807

$$$$
