
     RDKit          3D

 31 33  0  0  0  0  0  0  0  0999 V2000
   40.0150   22.6650   37.5420 C   0  0  0  0  0  0  0  0  0  0  0  0
   39.0730   23.1760   38.4610 C   0  0  0  0  0  0  0  0  0  0  0  0
   37.7430   23.3450   37.9890 C   0  0  0  0  0  0  0  0  0  0  0  0
   37.4790   23.0070   36.7100 N   0  0  0  0  0  0  0  0  0  0  0  0
   38.4100   22.5200   35.8590 C   0  0  0  0  0  0  0  0  0  0  0  0
   39.6670   22.3540   36.2830 N   0  0  0  0  0  0  0  0  0  0  0  0
   38.0980   22.1710   34.5080 N   0  0  0  0  0  0  0  0  0  0  0  0
   39.0490   22.5620   33.5920 C   0  0  0  0  0  0  0  0  0  0  0  0
   38.7880   22.2440   32.2630 C   0  0  0  0  0  0  0  0  0  0  0  0
   37.6140   21.5700   31.9560 C   0  0  0  0  0  0  0  0  0  0  0  0
   37.3800   21.2830   30.7430 O   0  0  0  0  0  0  0  0  0  0  0  0
   36.7390   21.2280   32.9190 N   0  0  0  0  0  0  0  0  0  0  0  0
   36.9840   21.5300   34.2050 C   0  0  0  0  0  0  0  0  0  0  0  0
   36.2260   21.2460   35.1420 O   0  0  0  0  0  0  0  0  0  0  0  0
   35.5390   20.5330   32.5650 C   0  0  0  0  0  0  0  0  0  0  0  0
   35.4450   19.1430   33.1410 C   0  0  0  0  0  0  0  0  0  0  0  0
   35.8370   18.0930   32.1990 C   0  0  0  0  0  0  0  0  0  0  0  0
   35.4220   16.8130   32.3730 N   0  0  0  0  0  0  0  0  0  0  0  0
   35.9060   16.0690   31.4010 O   0  0  0  0  0  0  0  0  0  0  0  0
   36.6200   16.8800   30.6210 C   0  0  0  0  0  0  0  0  0  0  0  0
   36.5990   18.1590   31.0910 N   0  0  0  0  0  0  0  0  0  0  0  0
   41.0565   22.5185   37.8643 H   0  0  0  0  0  0  0  0  0  0  0  0
   39.3549   23.4312   39.4932 H   0  0  0  0  0  0  0  0  0  0  0  0
   36.9537   23.7391   38.6461 H   0  0  0  0  0  0  0  0  0  0  0  0
   39.9626   23.0952   33.8938 H   0  0  0  0  0  0  0  0  0  0  0  0
   39.4986   22.5214   31.4704 H   0  0  0  0  0  0  0  0  0  0  0  0
   34.6806   21.1171   32.9282 H   0  0  0  0  0  0  0  0  0  0  0  0
   35.5439   20.4251   31.4703 H   0  0  0  0  0  0  0  0  0  0  0  0
   36.1032   19.0853   34.0205 H   0  0  0  0  0  0  0  0  0  0  0  0
   34.3895   18.9698   33.3979 H   0  0  0  0  0  0  0  0  0  0  0  0
   37.1563   16.5589   29.7159 H   0  0  0  0  0  0  0  0  0  0  0  0
  1  2  2  0
  3  2  1  0
  4  3  2  0
  5  6  2  0
  5  4  1  0
  6  1  1  0
  7  5  1  0
  8  7  1  0
  9  8  2  0
 10  9  1  0
 10 12  1  0
 11 10  2  0
 12 13  1  0
 13  7  1  0
 13 14  2  0
 15 12  1  0
 15 16  1  0
 17 18  2  0
 17 16  1  0
 19 18  1  0
 20 21  2  0
 20 19  1  0
 21 17  1  0
  1 22  1  0
  2 23  1  0
  3 24  1  0
  8 25  1  0
  9 26  1  0
 15 27  1  0
 15 28  1  0
 16 29  1  0
 16 30  1  0
 20 31  1  0
M  ISO  8  22  14  23  14  24  14  25  14  26  14  27   8  28   8  29   8
M  ISO  2  30   8  31  14
M  END
>  <minimizedAffinity>  (1) 
-4.83172655

>  <minimizedRMSD>  (1) 
0.749620557

$$$$
