
     RDKit          3D

 41 43  0  0  0  0  0  0  0  0999 V2000
   40.0820   23.0620   37.6770 C   0  0  0  0  0  0  0  0  0  0  0  0
   38.9480   23.0920   38.4990 C   0  0  0  0  0  0  0  0  0  0  0  0
   37.6930   23.2900   37.8500 C   0  0  0  0  0  0  0  0  0  0  0  0
   37.6840   23.4340   36.5120 N   0  0  0  0  0  0  0  0  0  0  0  0
   38.8150   23.3980   35.7470 C   0  0  0  0  0  0  0  0  0  0  0  0
   39.9990   23.2130   36.3380 N   0  0  0  0  0  0  0  0  0  0  0  0
   38.7770   23.5520   34.3340 N   0  0  0  0  0  0  0  0  0  0  0  0
   39.7660   24.3460   33.8240 C   0  0  0  0  0  0  0  0  0  0  0  0
   39.7690   24.5270   32.4470 C   0  0  0  0  0  0  0  0  0  0  0  0
   38.7990   23.9100   31.6860 C   0  0  0  0  0  0  0  0  0  0  0  0
   38.7910   24.0660   30.4310 O   0  0  0  0  0  0  0  0  0  0  0  0
   37.8650   23.1490   32.2530 N   0  0  0  0  0  0  0  0  0  0  0  0
   37.8510   22.9650   33.5990 C   0  0  0  0  0  0  0  0  0  0  0  0
   37.0160   22.2720   34.2040 O   0  0  0  0  0  0  0  0  0  0  0  0
   36.8320   22.4890   31.4730 C   0  0  0  0  0  0  0  0  0  0  0  0
   37.2320   21.1270   31.0070 C   0  0  0  0  0  0  0  0  0  0  0  0
   36.1090   20.2840   30.7670 N   0  0  0  0  0  0  0  0  0  0  0  0
   35.3220   20.0560   31.9540 C   0  0  0  0  0  0  0  0  0  0  0  0
   35.0620   18.6150   32.2560 C   0  0  0  0  0  0  0  0  0  0  0  0
   36.3410   17.8120   32.3210 C   0  0  0  0  0  0  0  0  0  0  0  0
   37.1140   18.0600   31.0510 C   0  0  0  0  0  0  0  0  0  0  0  0
   36.3980   19.0310   30.1530 C   0  0  0  0  0  0  0  0  0  0  0  0
   41.0699   22.9108   38.1365 H   0  0  0  0  0  0  0  0  0  0  0  0
   39.0215   22.9691   39.5896 H   0  0  0  0  0  0  0  0  0  0  0  0
   36.7576   23.3241   38.4279 H   0  0  0  0  0  0  0  0  0  0  0  0
   40.5206   24.8173   34.4709 H   0  0  0  0  0  0  0  0  0  0  0  0
   40.5357   25.1548   31.9695 H   0  0  0  0  0  0  0  0  0  0  0  0
   35.9294   22.3956   32.0947 H   0  0  0  0  0  0  0  0  0  0  0  0
   36.6529   23.1032   30.5782 H   0  0  0  0  0  0  0  0  0  0  0  0
   37.8046   21.2271   30.0732 H   0  0  0  0  0  0  0  0  0  0  0  0
   37.8353   20.6641   31.8019 H   0  0  0  0  0  0  0  0  0  0  0  0
   35.8549   20.4960   32.8098 H   0  0  0  0  0  0  0  0  0  0  0  0
   34.3413   20.5207   31.7742 H   0  0  0  0  0  0  0  0  0  0  0  0
   34.5470   18.5423   33.2253 H   0  0  0  0  0  0  0  0  0  0  0  0
   34.4426   18.2036   31.4454 H   0  0  0  0  0  0  0  0  0  0  0  0
   36.9374   18.1302   33.1888 H   0  0  0  0  0  0  0  0  0  0  0  0
   36.1138   16.7409   32.4261 H   0  0  0  0  0  0  0  0  0  0  0  0
   38.1014   18.4713   31.3077 H   0  0  0  0  0  0  0  0  0  0  0  0
   37.2160   17.1044   30.5158 H   0  0  0  0  0  0  0  0  0  0  0  0
   35.4489   18.5739   29.8364 H   0  0  0  0  0  0  0  0  0  0  0  0
   37.0711   19.2385   29.3081 H   0  0  0  0  0  0  0  0  0  0  0  0
  1  2  2  0
  3  2  1  0
  4  3  2  0
  5  6  2  0
  5  4  1  0
  6  1  1  0
  7  5  1  0
  8  7  1  0
  9  8  2  0
 10 12  1  0
 10  9  1  0
 11 10  2  0
 12 13  1  0
 13 14  2  0
 13  7  1  0
 15 12  1  0
 16 15  1  0
 17 16  1  0
 17 18  1  0
 18 19  1  0
 19 20  1  0
 21 20  1  0
 22 17  1  0
 22 21  1  0
  1 23  1  0
  2 24  1  0
  3 25  1  0
  8 26  1  0
  9 27  1  0
 15 28  1  0
 15 29  1  0
 16 30  1  0
 16 31  1  0
 18 32  1  0
 18 33  1  0
 19 34  1  0
 19 35  1  0
 20 36  1  0
 20 37  1  0
 21 38  1  0
 21 39  1  0
 22 40  1  0
 22 41  1  0
M  ISO  8  23  14  24  14  25  14  26  14  27  14  28   8  29   8  30   8
M  ISO  8  31   8  32  13  33  13  34  13  35  13  36  13  37  13  38  13
M  ISO  3  39  13  40  13  41  13
M  END
>  <minimizedAffinity>  (1) 
-4.62388039

>  <minimizedRMSD>  (1) 
2.54882932

$$$$
