
     RDKit          3D

 39 41  0  0  0  0  0  0  0  0999 V2000
   40.0930   23.1540   37.4010 C   0  0  0  0  0  0  0  0  0  0  0  0
   39.0040   23.1020   38.2780 C   0  0  0  0  0  0  0  0  0  0  0  0
   37.7220   23.1620   37.7000 C   0  0  0  0  0  0  0  0  0  0  0  0
   37.6310   23.2630   36.3620 N   0  0  0  0  0  0  0  0  0  0  0  0
   38.6990   23.3110   35.5420 C   0  0  0  0  0  0  0  0  0  0  0  0
   39.9240   23.2550   36.0710 N   0  0  0  0  0  0  0  0  0  0  0  0
   38.5880   23.4160   34.1210 N   0  0  0  0  0  0  0  0  0  0  0  0
   39.4630   24.2780   33.5300 C   0  0  0  0  0  0  0  0  0  0  0  0
   39.3770   24.4030   32.1540 C   0  0  0  0  0  0  0  0  0  0  0  0
   38.4370   23.6690   31.4590 C   0  0  0  0  0  0  0  0  0  0  0  0
   38.3500   23.7730   30.2100 O   0  0  0  0  0  0  0  0  0  0  0  0
   37.6140   22.8450   32.1050 N   0  0  0  0  0  0  0  0  0  0  0  0
   37.6820   22.7080   33.4590 C   0  0  0  0  0  0  0  0  0  0  0  0
   36.9480   21.9600   34.1340 O   0  0  0  0  0  0  0  0  0  0  0  0
   36.6100   22.0570   31.4090 C   0  0  0  0  0  0  0  0  0  0  0  0
   37.1460   20.7500   30.8980 C   0  0  0  0  0  0  0  0  0  0  0  0
   36.1650   19.7360   30.7630 N   0  0  0  0  0  0  0  0  0  0  0  0
   35.1670   19.6520   31.7650 C   0  0  0  0  0  0  0  0  0  0  0  0
   35.3610   18.5420   32.7310 C   0  0  0  0  0  0  0  0  0  0  0  0
   36.2580   17.5830   32.4610 O   0  0  0  0  0  0  0  0  0  0  0  0
   36.7970   17.4100   31.2480 C   0  0  0  0  0  0  0  0  0  0  0  0
   36.5970   18.4830   30.2330 C   0  0  0  0  0  0  0  0  0  0  0  0
   41.1132   23.1112   37.8100 H   0  0  0  0  0  0  0  0  0  0  0  0
   39.1430   23.0183   39.3660 H   0  0  0  0  0  0  0  0  0  0  0  0
   36.8183   23.1272   38.3262 H   0  0  0  0  0  0  0  0  0  0  0  0
   40.2002   24.8456   34.1168 H   0  0  0  0  0  0  0  0  0  0  0  0
   40.0542   25.0837   31.6173 H   0  0  0  0  0  0  0  0  0  0  0  0
   35.7825   21.8499   32.1035 H   0  0  0  0  0  0  0  0  0  0  0  0
   36.2763   22.6408   30.5384 H   0  0  0  0  0  0  0  0  0  0  0  0
   37.6003   20.9248   29.9116 H   0  0  0  0  0  0  0  0  0  0  0  0
   37.8723   20.3919   31.6425 H   0  0  0  0  0  0  0  0  0  0  0  0
   35.1611   20.5987   32.3252 H   0  0  0  0  0  0  0  0  0  0  0  0
   34.2170   19.4551   31.2466 H   0  0  0  0  0  0  0  0  0  0  0  0
   35.6574   18.9978   33.6872 H   0  0  0  0  0  0  0  0  0  0  0  0
   34.3986   18.0097   32.7107 H   0  0  0  0  0  0  0  0  0  0  0  0
   37.8815   17.2889   31.3864 H   0  0  0  0  0  0  0  0  0  0  0  0
   36.2677   16.5389   30.8343 H   0  0  0  0  0  0  0  0  0  0  0  0
   35.8403   18.1367   29.5136 H   0  0  0  0  0  0  0  0  0  0  0  0
   37.5809   18.6633   29.7754 H   0  0  0  0  0  0  0  0  0  0  0  0
  1  2  2  0
  3  2  1  0
  4  3  2  0
  5  6  2  0
  5  4  1  0
  6  1  1  0
  7  5  1  0
  8  7  1  0
  9  8  2  0
 10 12  1  0
 10  9  1  0
 11 10  2  0
 12 13  1  0
 13  7  1  0
 13 14  2  0
 15 12  1  0
 16 15  1  0
 17 16  1  0
 17 18  1  0
 18 19  1  0
 20 19  1  0
 21 20  1  0
 22 17  1  0
 22 21  1  0
  1 23  1  0
  2 24  1  0
  3 25  1  0
  8 26  1  0
  9 27  1  0
 15 28  1  0
 15 29  1  0
 16 30  1  0
 16 31  1  0
 18 32  1  0
 18 33  1  0
 19 34  1  0
 19 35  1  0
 21 36  1  0
 21 37  1  0
 22 38  1  0
 22 39  1  0
M  ISO  8  23  14  24  14  25  14  26  14  27  14  28   8  29   8  30   8
M  ISO  8  31   8  32  13  33  13  34  13  35  13  36  13  37  13  38  13
M  ISO  1  39  13
M  END
>  <minimizedAffinity>  (1) 
-4.54744864

>  <minimizedRMSD>  (1) 
2.37246943

$$$$
