
     RDKit          3D

 42 44  0  0  1  0  0  0  0  0999 V2000
   37.5270   22.8250   31.2370 C   0  0  0  0  0  0  0  0  0  0  0  0
   39.9940   22.9270   37.8200 C   0  0  0  0  0  0  0  0  0  0  0  0
   38.7930   23.2210   38.4900 C   0  0  0  0  0  0  0  0  0  0  0  0
   37.7200   23.6440   37.6910 C   0  0  0  0  0  0  0  0  0  0  0  0
   37.9150   23.7360   36.3600 N   0  0  0  0  0  0  0  0  0  0  0  0
   39.0740   23.4480   35.7470 C   0  0  0  0  0  0  0  0  0  0  0  0
   40.1060   23.0450   36.4860 N   0  0  0  0  0  0  0  0  0  0  0  0
   39.2630   23.5510   34.3470 N   0  0  0  0  0  0  0  0  0  0  0  0
   40.4660   24.0880   33.9500 C   0  0  0  0  0  0  0  0  0  0  0  0
   40.6900   24.2060   32.5900 C   0  0  0  0  0  0  0  0  0  0  0  0
   39.7090   23.7840   31.7230 C   0  0  0  0  0  0  0  0  0  0  0  0
   39.9010   23.8850   30.4770 O   0  0  0  0  0  0  0  0  0  0  0  0
   38.5570   23.2680   32.1600 N   0  0  0  0  0  0  0  0  0  0  0  0
   38.3280   23.1480   33.5000 C   0  0  0  0  0  0  0  0  0  0  0  0
   37.2850   22.6810   33.9870 O   0  0  0  0  0  0  0  0  0  0  0  0
   37.6800   21.4460   30.8130 C   0  0  0  0  0  0  0  0  0  0  0  0
   36.5680   20.5140   31.0890 C   0  0  1  0  0  0  0  0  0  0  0  0
   36.3780   19.5510   29.9410 C   0  0  0  0  0  0  0  0  0  0  0  0
   36.6620   18.1750   30.4480 C   0  0  0  0  0  0  0  0  0  0  0  0
   37.1610   18.3230   31.8480 C   0  0  0  0  0  0  0  0  0  0  0  0
   36.7130   19.7150   32.2930 C   0  0  2  0  0  0  0  0  0  0  0  0
   35.3220   19.5420   32.9220 C   0  0  0  0  0  0  0  0  0  0  0  0
   35.1120   18.1760   33.1390 F   0  0  0  0  0  0  0  0  0  0  0  0
   35.3300   20.1500   34.1670 F   0  0  0  0  0  0  0  0  0  0  0  0
   34.3270   20.0200   32.1080 F   0  0  0  0  0  0  0  0  0  0  0  0
   36.5495   22.9306   31.7303 H   0  0  0  0  0  0  0  0  0  0  0  0
   37.6112   23.4504   30.3360 H   0  0  0  0  0  0  0  0  0  0  0  0
   40.8644   22.5917   38.4030 H   0  0  0  0  0  0  0  0  0  0  0  0
   38.6998   23.1245   39.5818 H   0  0  0  0  0  0  0  0  0  0  0  0
   36.7465   23.8937   38.1381 H   0  0  0  0  0  0  0  0  0  0  0  0
   41.2190   24.4104   34.6842 H   0  0  0  0  0  0  0  0  0  0  0  0
   41.6321   24.6281   32.2102 H   0  0  0  0  0  0  0  0  0  0  0  0
   38.5749   21.0464   31.3125 H   0  0  0  0  0  0  0  0  0  0  0  0
   37.7328   21.4975   29.7155 H   0  0  0  0  0  0  0  0  0  0  0  0
   35.7018   21.1773   31.2294 H   0  0  0  0  0  0  0  0  0  0  0  0
   37.0723   19.7999   29.1249 H   0  0  0  0  0  0  0  0  0  0  0  0
   35.3506   19.6133   29.5531 H   0  0  0  0  0  0  0  0  0  0  0  0
   35.7432   17.5702   30.4358 H   0  0  0  0  0  0  0  0  0  0  0  0
   37.4064   17.6684   29.8161 H   0  0  0  0  0  0  0  0  0  0  0  0
   36.7213   17.5513   32.4970 H   0  0  0  0  0  0  0  0  0  0  0  0
   38.2531   18.2059   31.9078 H   0  0  0  0  0  0  0  0  0  0  0  0
   37.4176   20.1831   32.9962 H   0  0  0  0  0  0  0  0  0  0  0  0
  1 13  1  0
  2  3  2  0
  4  3  1  0
  5  4  2  0
  6  5  1  0
  6  7  2  0
  7  2  1  0
  8  6  1  0
  9  8  1  0
 10  9  2  0
 11 13  1  0
 11 10  1  0
 12 11  2  0
 13 14  1  0
 14 15  2  0
 14  8  1  0
 16 17  1  0
 16  1  1  0
 17 21  1  0
 18 19  1  0
 18 17  1  0
 19 20  1  0
 20 21  1  0
 21 22  1  0
 22 23  1  0
 22 24  1  0
 25 22  1  0
  1 26  1  0
  1 27  1  0
  2 28  1  0
  3 29  1  0
  4 30  1  0
  9 31  1  0
 10 32  1  0
 16 33  1  0
 16 34  1  0
 17 35  1  1
 18 36  1  0
 18 37  1  0
 19 38  1  0
 19 39  1  0
 20 40  1  0
 20 41  1  0
 21 42  1  1
M  ISO  8  26   8  27   8  28  14  29  14  30  14  31  14  32  14  33   8
M  ISO  8  34   8  35  13  36  13  37  13  38  13  39  13  40  13  41  13
M  ISO  1  42  13
M  END
>  <minimizedAffinity>  (1) 
-5.55539465

>  <minimizedRMSD>  (1) 
1.52152252

$$$$
