
     RDKit          3D

 51 53  0  0  1  0  0  0  0  0999 V2000
   35.5240   23.2550   31.9550 C   0  0  0  0  0  0  0  0  0  0  0  0
   41.1190   27.4220   32.8220 C   0  0  0  0  0  0  0  0  0  0  0  0
   41.4640   27.0470   34.1160 C   0  0  0  0  0  0  0  0  0  0  0  0
   40.5130   26.2870   34.8180 C   0  0  0  0  0  0  0  0  0  0  0  0
   39.3550   25.9820   34.1970 N   0  0  0  0  0  0  0  0  0  0  0  0
   39.0550   26.3650   32.9370 C   0  0  0  0  0  0  0  0  0  0  0  0
   39.9450   27.0820   32.2650 N   0  0  0  0  0  0  0  0  0  0  0  0
   37.8320   26.0320   32.3060 N   0  0  0  0  0  0  0  0  0  0  0  0
   37.2710   27.0490   31.5590 C   0  0  0  0  0  0  0  0  0  0  0  0
   36.0760   26.7670   30.9250 C   0  0  0  0  0  0  0  0  0  0  0  0
   35.5220   25.5140   31.0680 C   0  0  0  0  0  0  0  0  0  0  0  0
   34.4350   25.2550   30.4920 O   0  0  0  0  0  0  0  0  0  0  0  0
   36.1110   24.5690   31.8030 N   0  0  0  0  0  0  0  0  0  0  0  0
   37.2900   24.8300   32.4360 C   0  0  0  0  0  0  0  0  0  0  0  0
   37.9030   24.0130   33.1350 O   0  0  0  0  0  0  0  0  0  0  0  0
   36.0680   22.2700   31.0230 C   0  0  0  0  0  0  0  0  0  0  0  0
   36.5460   20.9790   31.5880 C   0  0  1  0  0  0  0  0  0  0  0  0
   36.3380   20.9840   33.0880 C   0  0  0  0  0  0  0  0  0  0  0  0
   35.3850   19.8720   33.4020 C   0  0  0  0  0  0  0  0  0  0  0  0
   34.8690   19.3600   32.1030 C   0  0  0  0  0  0  0  0  0  0  0  0
   35.8850   19.7920   31.0390 C   0  0  2  0  0  0  0  0  0  0  0  0
   36.8150   18.6280   30.7460 C   0  0  0  0  0  0  0  0  0  0  0  0
   36.4630   17.3720   31.4310 C   0  0  0  0  0  0  0  0  0  0  0  0
   38.2210   19.0420   31.1120 C   0  0  0  0  0  0  0  0  0  0  0  0
   36.8610   18.3560   29.2370 C   0  0  0  0  0  0  0  0  0  0  0  0
   35.7104   22.9055   32.9812 H   0  0  0  0  0  0  0  0  0  0  0  0
   34.4495   23.3502   31.7395 H   0  0  0  0  0  0  0  0  0  0  0  0
   41.8326   28.0179   32.2341 H   0  0  0  0  0  0  0  0  0  0  0  0
   42.4276   27.3296   34.5650 H   0  0  0  0  0  0  0  0  0  0  0  0
   40.7078   25.9497   35.8467 H   0  0  0  0  0  0  0  0  0  0  0  0
   37.7516   28.0347   31.4729 H   0  0  0  0  0  0  0  0  0  0  0  0
   35.5742   27.5324   30.3147 H   0  0  0  0  0  0  0  0  0  0  0  0
   36.9191   22.7392   30.5077 H   0  0  0  0  0  0  0  0  0  0  0  0
   35.2197   21.9963   30.3784 H   0  0  0  0  0  0  0  0  0  0  0  0
   37.6085   20.9080   31.3121 H   0  0  0  0  0  0  0  0  0  0  0  0
   37.2958   20.8173   33.6027 H   0  0  0  0  0  0  0  0  0  0  0  0
   35.9373   21.9513   33.4254 H   0  0  0  0  0  0  0  0  0  0  0  0
   35.9067   19.0693   33.9439 H   0  0  0  0  0  0  0  0  0  0  0  0
   34.5614   20.2291   34.0378 H   0  0  0  0  0  0  0  0  0  0  0  0
   34.7884   18.2633   32.1303 H   0  0  0  0  0  0  0  0  0  0  0  0
   33.8668   19.7576   31.8851 H   0  0  0  0  0  0  0  0  0  0  0  0
   35.4405   20.0562   30.0681 H   0  0  0  0  0  0  0  0  0  0  0  0
   36.5055   17.5237   32.5197 H   0  0  0  0  0  0  0  0  0  0  0  0
   35.4455   17.0696   31.1424 H   0  0  0  0  0  0  0  0  0  0  0  0
   37.1752   16.5849   31.1424 H   0  0  0  0  0  0  0  0  0  0  0  0
   38.3212   19.0715   32.2070 H   0  0  0  0  0  0  0  0  0  0  0  0
   38.9365   18.3164   30.6977 H   0  0  0  0  0  0  0  0  0  0  0  0
   38.4291   20.0395   30.6977 H   0  0  0  0  0  0  0  0  0  0  0  0
   37.0421   17.2851   29.0628 H   0  0  0  0  0  0  0  0  0  0  0  0
   35.9014   18.6442   28.7831 H   0  0  0  0  0  0  0  0  0  0  0  0
   37.6725   18.9437   28.7831 H   0  0  0  0  0  0  0  0  0  0  0  0
  2  3  2  0
  3  4  1  0
  5  4  2  0
  6  5  1  0
  7  2  1  0
  7  6  2  0
  8 14  1  0
  8  6  1  0
  9  8  1  0
 10 11  1  0
 10  9  2  0
 11 13  1  0
 12 11  2  0
 13  1  1  0
 13 14  1  0
 14 15  2  0
 16 17  1  0
 16  1  1  0
 17 18  1  0
 18 19  1  0
 20 19  1  0
 21 17  1  0
 21 20  1  0
 22 21  1  0
 22 24  1  0
 22 23  1  0
 25 22  1  0
  1 26  1  0
  1 27  1  0
  2 28  1  0
  3 29  1  0
  4 30  1  0
  9 31  1  0
 10 32  1  0
 16 33  1  0
 16 34  1  0
 17 35  1  1
 18 36  1  0
 18 37  1  0
 19 38  1  0
 19 39  1  0
 20 40  1  0
 20 41  1  0
 21 42  1  6
 23 43  1  0
 23 44  1  0
 23 45  1  0
 24 46  1  0
 24 47  1  0
 24 48  1  0
 25 49  1  0
 25 50  1  0
 25 51  1  0
M  ISO  8  26   8  27   8  28  14  29  14  30  14  31  14  32  14  33   8
M  ISO  8  34   8  35  13  36  13  37  13  38  13  39  13  40  13  41  13
M  ISO  8  42  13  43   8  44   8  45   8  46   8  47   8  48   8  49   8
M  ISO  2  50   8  51   8
M  END
>  <minimizedAffinity>  (1) 
-5.65370321

>  <minimizedRMSD>  (1) 
3.760571

$$$$
