
     RDKit          3D

 50 53  0  0  1  0  0  0  0  0999 V2000
   36.7050   22.8390   31.2130 C   0  0  0  0  0  0  0  0  0  0  0  0
   37.8330   22.0680   30.7990 C   0  0  2  0  0  0  0  0  0  0  0  0
   38.9210   22.4590   29.9410 C   0  0  0  0  0  0  0  0  0  0  0  0
   40.0070   21.6150   30.5580 C   0  0  0  0  0  0  0  0  0  0  0  0
   39.3680   20.6280   31.5380 C   0  0  0  0  0  0  0  0  0  0  0  0
   37.9190   20.6720   31.0440 C   0  0  1  0  0  0  0  0  0  0  0  0
   37.1170   19.6240   31.3760 N   0  0  0  0  0  0  0  0  0  0  0  0
   36.2980   19.6760   32.4770 C   0  0  0  0  0  0  0  0  0  0  0  0
   35.4590   18.6350   32.8340 C   0  0  0  0  0  0  0  0  0  0  0  0
   35.5130   17.5590   32.0080 C   0  0  0  0  0  0  0  0  0  0  0  0
   34.6990   16.4180   32.2630 N   0  0  0  0  0  0  0  0  0  0  0  0
   36.2870   17.4710   30.9390 N   0  0  0  0  0  0  0  0  0  0  0  0
   37.0980   18.4870   30.6020 C   0  0  0  0  0  0  0  0  0  0  0  0
   37.8400   18.4160   29.5880 O   0  0  0  0  0  0  0  0  0  0  0  0
   36.5910   23.1850   32.6130 C   0  0  0  0  0  0  0  0  0  0  0  0
   42.8380   24.3110   35.6300 C   0  0  0  0  0  0  0  0  0  0  0  0
   42.7430   23.3490   36.6420 C   0  0  0  0  0  0  0  0  0  0  0  0
   41.4800   22.7730   36.8450 C   0  0  0  0  0  0  0  0  0  0  0  0
   40.4600   23.1820   36.0610 N   0  0  0  0  0  0  0  0  0  0  0  0
   40.5930   24.1190   35.0890 C   0  0  0  0  0  0  0  0  0  0  0  0
   41.7800   24.6710   34.8870 N   0  0  0  0  0  0  0  0  0  0  0  0
   39.5110   24.5290   34.2870 N   0  0  0  0  0  0  0  0  0  0  0  0
   39.4420   25.8980   34.0540 C   0  0  0  0  0  0  0  0  0  0  0  0
   38.3790   26.3540   33.2990 C   0  0  0  0  0  0  0  0  0  0  0  0
   37.4600   25.4510   32.8230 C   0  0  0  0  0  0  0  0  0  0  0  0
   36.4900   25.8710   32.1340 O   0  0  0  0  0  0  0  0  0  0  0  0
   37.5860   24.1320   33.0860 N   0  0  0  0  0  0  0  0  0  0  0  0
   38.6210   23.6600   33.8240 C   0  0  0  0  0  0  0  0  0  0  0  0
   38.7900   22.4780   34.0930 O   0  0  0  0  0  0  0  0  0  0  0  0
   35.8036   22.2692   30.9433 H   0  0  0  0  0  0  0  0  0  0  0  0
   36.8326   23.8051   30.7027 H   0  0  0  0  0  0  0  0  0  0  0  0
   37.7015   22.9300   31.4696 H   0  0  0  0  0  0  0  0  0  0  0  0
   39.1403   23.5345   30.0138 H   0  0  0  0  0  0  0  0  0  0  0  0
   38.7560   22.3119   28.8634 H   0  0  0  0  0  0  0  0  0  0  0  0
   40.5380   21.0616   29.7695 H   0  0  0  0  0  0  0  0  0  0  0  0
   40.7237   22.2583   31.0895 H   0  0  0  0  0  0  0  0  0  0  0  0
   39.8014   19.6212   31.4456 H   0  0  0  0  0  0  0  0  0  0  0  0
   39.5048   20.8736   32.6015 H   0  0  0  0  0  0  0  0  0  0  0  0
   37.2999   20.2868   30.2204 H   0  0  0  0  0  0  0  0  0  0  0  0
   36.3093   20.5821   33.1006 H   0  0  0  0  0  0  0  0  0  0  0  0
   34.8019   18.6760   33.7152 H   0  0  0  0  0  0  0  0  0  0  0  0
   34.7426   15.6034   31.6342 H   0  0  0  0  0  0  0  0  0  0  0  0
   34.0669   16.4077   33.0762 H   0  0  0  0  0  0  0  0  0  0  0  0
   35.5954   23.6226   32.7781 H   0  0  0  0  0  0  0  0  0  0  0  0
   36.7532   22.2550   33.1777 H   0  0  0  0  0  0  0  0  0  0  0  0
   43.8107   24.7872   35.4375 H   0  0  0  0  0  0  0  0  0  0  0  0
   43.6144   23.0592   37.2475 H   0  0  0  0  0  0  0  0  0  0  0  0
   41.3252   22.0093   37.6214 H   0  0  0  0  0  0  0  0  0  0  0  0
   40.2004   26.5875   34.4533 H   0  0  0  0  0  0  0  0  0  0  0  0
   38.2698   27.4268   33.0817 H   0  0  0  0  0  0  0  0  0  0  0  0
  1 15  1  0
  2  6  1  0
  2  1  1  0
  3  4  1  0
  3  2  1  0
  4  5  1  0
  6  7  1  0
  6  5  1  0
  7  8  1  0
  8  9  2  0
 10 11  1  0
 10  9  1  0
 12 10  2  0
 13 12  1  0
 13  7  1  0
 14 13  2  0
 15 27  1  0
 16 17  2  0
 17 18  1  0
 19 18  2  0
 20 19  1  0
 21 20  2  0
 21 16  1  0
 22 20  1  0
 23 22  1  0
 24 23  2  0
 25 27  1  0
 25 24  1  0
 26 25  2  0
 27 28  1  0
 28 29  2  0
 28 22  1  0
  1 30  1  0
  1 31  1  0
  2 32  1  1
  3 33  1  0
  3 34  1  0
  4 35  1  0
  4 36  1  0
  5 37  1  0
  5 38  1  0
  6 39  1  6
  8 40  1  0
  9 41  1  0
 11 42  1  0
 11 43  1  0
 15 44  1  0
 15 45  1  0
 16 46  1  0
 17 47  1  0
 18 48  1  0
 23 49  1  0
 24 50  1  0
M  ISO  8  30   8  31   8  32  13  33  13  34  13  35  13  36  13  37  13
M  ISO  8  38  13  39  13  40  14  41  14  44   8  45   8  46  14  47  14
M  ISO  3  48  14  49  14  50  14
M  END
>  <minimizedAffinity>  (1) 
-5.10736847

>  <minimizedRMSD>  (1) 
3.84692574

$$$$
