
     RDKit          3D

 42 44  0  0  1  0  0  0  0  0999 V2000
   36.0460   22.4500   32.0840 C   0  0  0  0  0  0  0  0  0  0  0  0
   41.8430   23.4860   35.9220 C   0  0  0  0  0  0  0  0  0  0  0  0
   41.5270   22.6760   37.0090 C   0  0  0  0  0  0  0  0  0  0  0  0
   40.1860   22.2270   37.0940 C   0  0  0  0  0  0  0  0  0  0  0  0
   39.3320   22.6170   36.1270 N   0  0  0  0  0  0  0  0  0  0  0  0
   39.6750   23.4000   35.0900 C   0  0  0  0  0  0  0  0  0  0  0  0
   40.9270   23.8250   35.0020 N   0  0  0  0  0  0  0  0  0  0  0  0
   38.7580   23.7960   34.0860 N   0  0  0  0  0  0  0  0  0  0  0  0
   38.8670   25.1130   33.6820 C   0  0  0  0  0  0  0  0  0  0  0  0
   37.9890   25.5420   32.7010 C   0  0  0  0  0  0  0  0  0  0  0  0
   37.0720   24.6490   32.1920 C   0  0  0  0  0  0  0  0  0  0  0  0
   36.2680   25.0370   31.2960 O   0  0  0  0  0  0  0  0  0  0  0  0
   37.0110   23.3850   32.6210 N   0  0  0  0  0  0  0  0  0  0  0  0
   37.8710   22.9490   33.5870 C   0  0  0  0  0  0  0  0  0  0  0  0
   37.8790   21.7970   34.0380 O   0  0  0  0  0  0  0  0  0  0  0  0
   36.5880   21.5860   31.0490 C   0  0  0  0  0  0  0  0  0  0  0  0
   36.0790   20.2050   30.9550 C   0  0  1  0  0  0  0  0  0  0  0  0
   36.6280   19.4920   29.7400 C   0  0  0  0  0  0  0  0  0  0  0  0
   37.4480   18.3460   30.2220 C   0  0  0  0  0  0  0  0  0  0  0  0
   37.5150   18.4500   31.7130 C   0  0  0  0  0  0  0  0  0  0  0  0
   36.3480   19.3610   32.1010 C   0  0  2  0  0  0  0  0  0  0  0  0
   35.1880   18.4100   32.2740 C   0  0  0  0  0  0  0  0  0  0  0  0
   35.3630   17.2670   32.7700 O   0  0  0  0  0  0  0  0  0  0  0  0
   33.9340   18.8870   31.8490 O   0  0  0  0  0  0  0  0  0  0  0  0
   35.6780   21.8190   32.9065 H   0  0  0  0  0  0  0  0  0  0  0  0
   35.2437   23.0438   31.6216 H   0  0  0  0  0  0  0  0  0  0  0  0
   42.8724   23.8586   35.8142 H   0  0  0  0  0  0  0  0  0  0  0  0
   42.2790   22.3990   37.7625 H   0  0  0  0  0  0  0  0  0  0  0  0
   39.8532   21.5823   37.9208 H   0  0  0  0  0  0  0  0  0  0  0  0
   39.6164   25.7891   34.1194 H   0  0  0  0  0  0  0  0  0  0  0  0
   38.0232   26.5785   32.3343 H   0  0  0  0  0  0  0  0  0  0  0  0
   36.3910   22.0724   30.0823 H   0  0  0  0  0  0  0  0  0  0  0  0
   37.6473   21.4675   31.3209 H   0  0  0  0  0  0  0  0  0  0  0  0
   34.9902   20.3486   30.8925 H   0  0  0  0  0  0  0  0  0  0  0  0
   37.2537   20.1799   29.1524 H   0  0  0  0  0  0  0  0  0  0  0  0
   35.8086   19.1372   29.0975 H   0  0  0  0  0  0  0  0  0  0  0  0
   36.9766   17.3957   29.9308 H   0  0  0  0  0  0  0  0  0  0  0  0
   38.4557   18.3728   29.7818 H   0  0  0  0  0  0  0  0  0  0  0  0
   37.4011   17.4582   32.1750 H   0  0  0  0  0  0  0  0  0  0  0  0
   38.4812   18.8487   32.0557 H   0  0  0  0  0  0  0  0  0  0  0  0
   36.5317   19.9773   32.9934 H   0  0  0  0  0  0  0  0  0  0  0  0
   33.1315   18.3136   31.9343 H   0  0  0  0  0  0  0  0  0  0  0  0
  1 13  1  0
  2  3  2  0
  3  4  1  0
  5  4  2  0
  6  5  1  0
  7  6  2  0
  7  2  1  0
  8  6  1  0
  9  8  1  0
 10  9  2  0
 11 13  1  0
 11 10  1  0
 12 11  2  0
 13 14  1  0
 14 15  2  0
 14  8  1  0
 16  1  1  0
 17 16  1  0
 17 21  1  0
 18 19  1  0
 18 17  1  0
 19 20  1  0
 20 21  1  0
 21 22  1  0
 22 23  2  0
 24 22  1  0
  1 25  1  0
  1 26  1  0
  2 27  1  0
  3 28  1  0
  4 29  1  0
  9 30  1  0
 10 31  1  0
 16 32  1  0
 16 33  1  0
 17 34  1  6
 18 35  1  0
 18 36  1  0
 19 37  1  0
 19 38  1  0
 20 39  1  0
 20 40  1  0
 21 41  1  1
 24 42  1  0
M  ISO  8  25   8  26   8  27  14  28  14  29  14  30  14  31  14  32   8
M  ISO  8  33   8  34  13  35  13  36  13  37  13  38  13  39  13  40  13
M  ISO  2  41  13  42   3
M  END
>  <minimizedAffinity>  (1) 
-5.31524277

>  <minimizedRMSD>  (1) 
1.73153734

$$$$
