
     RDKit          3D

 45 48  0  0  1  0  0  0  0  0999 V2000
   38.2450   23.8800   32.7850 C   0  0  0  0  0  0  0  0  0  0  0  0
   36.3240   17.1410   32.2370 C   0  0  0  0  0  0  0  0  0  0  0  0
   37.5890   16.5780   32.0360 C   0  0  0  0  0  0  0  0  0  0  0  0
   38.6380   17.4720   31.7390 C   0  0  0  0  0  0  0  0  0  0  0  0
   38.3440   18.7850   31.6730 N   0  0  0  0  0  0  0  0  0  0  0  0
   37.1240   19.2980   31.8710 C   0  0  0  0  0  0  0  0  0  0  0  0
   36.1320   18.4630   32.1500 N   0  0  0  0  0  0  0  0  0  0  0  0
   36.8330   20.6860   31.7970 N   0  0  0  0  0  0  0  0  0  0  0  0
   35.6530   21.0040   31.1600 C   0  0  0  0  0  0  0  0  0  0  0  0
   35.3400   22.3480   31.0700 C   0  0  0  0  0  0  0  0  0  0  0  0
   36.2060   23.2760   31.6120 C   0  0  0  0  0  0  0  0  0  0  0  0
   35.9260   24.5040   31.5340 O   0  0  0  0  0  0  0  0  0  0  0  0
   37.3390   22.9050   32.2200 N   0  0  0  0  0  0  0  0  0  0  0  0
   37.6570   21.5820   32.3120 C   0  0  0  0  0  0  0  0  0  0  0  0
   38.6850   21.1570   32.8590 O   0  0  0  0  0  0  0  0  0  0  0  0
   37.8220   24.3800   34.0820 C   0  0  0  0  0  0  0  0  0  0  0  0
   38.7180   24.1140   35.2340 C   0  0  1  0  0  0  0  0  0  0  0  0
   38.5450   25.1940   36.2770 C   0  0  0  0  0  0  0  0  0  0  0  0
   37.9970   24.5510   37.5080 C   0  0  0  0  0  0  0  0  0  0  0  0
   37.7110   23.1240   37.1620 C   0  0  0  0  0  0  0  0  0  0  0  0
   38.5160   22.8360   35.8960 C   0  0  2  0  0  0  0  0  0  0  0  0
   39.8420   22.3470   36.3160 N   0  0  0  0  0  0  0  0  0  0  0  0
   40.3160   22.1330   37.5550 C   0  0  0  0  0  0  0  0  0  0  0  0
   41.5750   21.6840   37.5060 N   0  0  0  0  0  0  0  0  0  0  0  0
   41.9090   21.6120   36.2060 C   0  0  0  0  0  0  0  0  0  0  0  0
   40.8610   22.0120   35.5060 N   0  0  0  0  0  0  0  0  0  0  0  0
   38.3186   24.7303   32.0910 H   0  0  0  0  0  0  0  0  0  0  0  0
   39.2121   23.3767   32.9316 H   0  0  0  0  0  0  0  0  0  0  0  0
   35.4720   16.4856   32.4707 H   0  0  0  0  0  0  0  0  0  0  0  0
   37.7566   15.4931   32.1061 H   0  0  0  0  0  0  0  0  0  0  0  0
   39.6622   17.1095   31.5669 H   0  0  0  0  0  0  0  0  0  0  0  0
   34.9935   20.2280   30.7442 H   0  0  0  0  0  0  0  0  0  0  0  0
   34.4138   22.6729   30.5734 H   0  0  0  0  0  0  0  0  0  0  0  0
   37.7083   25.4707   33.9956 H   0  0  0  0  0  0  0  0  0  0  0  0
   36.8956   23.8323   34.3097 H   0  0  0  0  0  0  0  0  0  0  0  0
   39.7283   24.0968   34.7992 H   0  0  0  0  0  0  0  0  0  0  0  0
   39.5163   25.6604   36.4984 H   0  0  0  0  0  0  0  0  0  0  0  0
   37.8618   25.9756   35.9133 H   0  0  0  0  0  0  0  0  0  0  0  0
   38.7349   24.6023   38.3221 H   0  0  0  0  0  0  0  0  0  0  0  0
   37.0853   25.0642   37.8479 H   0  0  0  0  0  0  0  0  0  0  0  0
   38.0302   22.4600   37.9788 H   0  0  0  0  0  0  0  0  0  0  0  0
   36.6357   22.9515   37.0073 H   0  0  0  0  0  0  0  0  0  0  0  0
   38.0101   22.1078   35.2450 H   0  0  0  0  0  0  0  0  0  0  0  0
   39.7475   22.3034   38.4811 H   0  0  0  0  0  0  0  0  0  0  0  0
   42.8761   21.2812   35.7994 H   0  0  0  0  0  0  0  0  0  0  0  0
  1 16  1  0
  3  2  2  0
  4  3  1  0
  5  4  2  0
  5  6  1  0
  6  7  2  0
  7  2  1  0
  8  6  1  0
  8 14  1  0
  9  8  1  0
 10  9  2  0
 10 11  1  0
 11 13  1  0
 12 11  2  0
 13 14  1  0
 13  1  1  0
 14 15  2  0
 16 17  1  0
 17 21  1  0
 17 18  1  0
 18 19  1  0
 20 19  1  0
 21 22  1  0
 21 20  1  0
 22 23  1  0
 24 23  2  0
 25 24  1  0
 26 25  2  0
 26 22  1  0
  1 27  1  0
  1 28  1  0
  2 29  1  0
  3 30  1  0
  4 31  1  0
  9 32  1  0
 10 33  1  0
 16 34  1  0
 16 35  1  0
 17 36  1  6
 18 37  1  0
 18 38  1  0
 19 39  1  0
 19 40  1  0
 20 41  1  0
 20 42  1  0
 21 43  1  6
 23 44  1  0
 25 45  1  0
M  ISO  8  27   8  28   8  29  14  30  14  31  14  32  14  33  14  34   8
M  ISO  8  35   8  36  13  37  13  38  13  39  13  40  13  41  13  42  13
M  ISO  3  43  13  44  14  45  14
M  END
>  <minimizedAffinity>  (1) 
-5.40159607

>  <minimizedRMSD>  (1) 
7.06404114

$$$$
