
     RDKit          3D

 47 50  0  0  1  0  0  0  0  0999 V2000
   36.2020   19.5540   32.5860 C   0  0  0  0  0  0  0  0  0  0  0  0
   35.8640   18.7110   31.4130 C   0  0  1  0  0  0  0  0  0  0  0  0
   36.3170   19.4090   30.1440 C   0  0  0  0  0  0  0  0  0  0  0  0
   37.3780   18.5800   29.5040 C   0  0  0  0  0  0  0  0  0  0  0  0
   37.7430   17.4870   30.4740 C   0  0  0  0  0  0  0  0  0  0  0  0
   36.4910   17.4050   31.3260 C   0  0  1  0  0  0  0  0  0  0  0  0
   36.3000   16.2290   32.0900 C   0  0  0  0  0  0  0  0  0  0  0  0
   37.3690   15.4070   32.4770 C   0  0  0  0  0  0  0  0  0  0  0  0
   37.1920   14.2830   33.2210 C   0  0  0  0  0  0  0  0  0  0  0  0
   35.9830   13.8950   33.6270 N   0  0  0  0  0  0  0  0  0  0  0  0
   34.9370   14.6630   33.2720 C   0  0  0  0  0  0  0  0  0  0  0  0
   35.1160   15.7720   32.5380 N   0  0  0  0  0  0  0  0  0  0  0  0
   36.0470   20.9890   32.3820 C   0  0  0  0  0  0  0  0  0  0  0  0
   40.0200   22.9410   37.8590 C   0  0  0  0  0  0  0  0  0  0  0  0
   38.9910   23.2430   38.7700 C   0  0  0  0  0  0  0  0  0  0  0  0
   37.6720   23.3350   38.2440 C   0  0  0  0  0  0  0  0  0  0  0  0
   37.5000   23.1270   36.9240 N   0  0  0  0  0  0  0  0  0  0  0  0
   38.5000   22.8410   36.0840 C   0  0  0  0  0  0  0  0  0  0  0  0
   39.7480   22.7520   36.5620 N   0  0  0  0  0  0  0  0  0  0  0  0
   38.3030   22.6260   34.6980 N   0  0  0  0  0  0  0  0  0  0  0  0
   39.2560   23.2180   33.8770 C   0  0  0  0  0  0  0  0  0  0  0  0
   39.1140   23.0410   32.5100 C   0  0  0  0  0  0  0  0  0  0  0  0
   38.0490   22.2990   32.0480 C   0  0  0  0  0  0  0  0  0  0  0  0
   37.9140   22.1360   30.8020 O   0  0  0  0  0  0  0  0  0  0  0  0
   37.1590   21.7520   32.9050 N   0  0  0  0  0  0  0  0  0  0  0  0
   37.2870   21.9170   34.2440 C   0  0  0  0  0  0  0  0  0  0  0  0
   36.5260   21.4570   35.0800 O   0  0  0  0  0  0  0  0  0  0  0  0
   35.5488   19.2559   33.4193 H   0  0  0  0  0  0  0  0  0  0  0  0
   37.2708   19.3868   32.7853 H   0  0  0  0  0  0  0  0  0  0  0  0
   34.7802   18.5659   31.5323 H   0  0  0  0  0  0  0  0  0  0  0  0
   35.4656   19.5185   29.4561 H   0  0  0  0  0  0  0  0  0  0  0  0
   36.7104   20.4083   30.3821 H   0  0  0  0  0  0  0  0  0  0  0  0
   36.9995   18.1416   28.5688 H   0  0  0  0  0  0  0  0  0  0  0  0
   38.2579   19.1945   29.2627 H   0  0  0  0  0  0  0  0  0  0  0  0
   37.9376   16.5374   29.9541 H   0  0  0  0  0  0  0  0  0  0  0  0
   38.6615   17.6847   31.0461 H   0  0  0  0  0  0  0  0  0  0  0  0
   35.5063   16.9364   31.1814 H   0  0  0  0  0  0  0  0  0  0  0  0
   38.3879   15.6821   32.1670 H   0  0  0  0  0  0  0  0  0  0  0  0
   38.0690   13.6782   33.4950 H   0  0  0  0  0  0  0  0  0  0  0  0
   33.9224   14.3783   33.5874 H   0  0  0  0  0  0  0  0  0  0  0  0
   35.9637   21.1837   31.3026 H   0  0  0  0  0  0  0  0  0  0  0  0
   35.1437   21.3053   32.9242 H   0  0  0  0  0  0  0  0  0  0  0  0
   41.0573   22.8595   38.2159 H   0  0  0  0  0  0  0  0  0  0  0  0
   39.1966   23.4006   39.8390 H   0  0  0  0  0  0  0  0  0  0  0  0
   36.8177   23.5691   38.8961 H   0  0  0  0  0  0  0  0  0  0  0  0
   40.0885   23.8028   34.2953 H   0  0  0  0  0  0  0  0  0  0  0  0
   39.8364   23.4836   31.8084 H   0  0  0  0  0  0  0  0  0  0  0  0
  2  1  1  0
  3  2  1  0
  4  3  1  0
  4  5  1  0
  5  6  1  0
  6  2  1  0
  6  7  1  0
  7  8  2  0
  7 12  1  0
  8  9  1  0
  9 10  2  0
 11 10  1  0
 12 11  2  0
 13  1  1  0
 13 25  1  0
 14 15  2  0
 16 15  1  0
 17 16  2  0
 18 19  2  0
 18 17  1  0
 19 14  1  0
 20 18  1  0
 21 20  1  0
 22 21  2  0
 23 22  1  0
 23 25  1  0
 24 23  2  0
 25 26  1  0
 26 20  1  0
 26 27  2  0
  1 28  1  0
  1 29  1  0
  2 30  1  6
  3 31  1  0
  3 32  1  0
  4 33  1  0
  4 34  1  0
  5 35  1  0
  5 36  1  0
  6 37  1  6
  8 38  1  0
  9 39  1  0
 11 40  1  0
 13 41  1  0
 13 42  1  0
 14 43  1  0
 15 44  1  0
 16 45  1  0
 21 46  1  0
 22 47  1  0
M  ISO  8  28   8  29   8  30  13  31  13  32  13  33  13  34  13  35  13
M  ISO  8  36  13  37  13  38  14  39  14  40  14  41   8  42   8  43  14
M  ISO  4  44  14  45  14  46  14  47  14
M  END
>  <minimizedAffinity>  (1) 
-5.27086735

>  <minimizedRMSD>  (1) 
3.89607477

$$$$
