
     RDKit          3D

 49 52  0  0  1  0  0  0  0  0999 V2000
   39.6240   22.8630   30.3800 C   0  0  0  0  0  0  0  0  0  0  0  0
   38.6540   21.7450   30.2430 C   0  0  1  0  0  0  0  0  0  0  0  0
   39.0250   20.8810   29.0590 C   0  0  0  0  0  0  0  0  0  0  0  0
   39.3580   19.5300   29.5880 C   0  0  0  0  0  0  0  0  0  0  0  0
   39.3480   19.6260   31.0790 C   0  0  0  0  0  0  0  0  0  0  0  0
   38.5380   20.8860   31.4080 C   0  0  2  0  0  0  0  0  0  0  0  0
   37.1570   20.3710   31.6930 C   0  0  0  0  0  0  0  0  0  0  0  0
   36.0820   21.2650   31.6220 C   0  0  0  0  0  0  0  0  0  0  0  0
   34.7560   20.8900   31.8680 C   0  0  0  0  0  0  0  0  0  0  0  0
   34.5040   19.5740   32.1970 C   0  0  0  0  0  0  0  0  0  0  0  0
   35.5530   18.6810   32.2720 C   0  0  0  0  0  0  0  0  0  0  0  0
   36.8460   19.0900   32.0210 C   0  0  0  0  0  0  0  0  0  0  0  0
   39.1870   24.0490   31.0940 C   0  0  0  0  0  0  0  0  0  0  0  0
   39.6940   22.9700   38.0250 C   0  0  0  0  0  0  0  0  0  0  0  0
   38.3510   23.2320   38.3750 C   0  0  0  0  0  0  0  0  0  0  0  0
   37.5520   23.8380   37.3930 C   0  0  0  0  0  0  0  0  0  0  0  0
   38.1160   24.1230   36.2020 N   0  0  0  0  0  0  0  0  0  0  0  0
   39.3920   23.8650   35.8960 C   0  0  0  0  0  0  0  0  0  0  0  0
   40.1740   23.2880   36.8130 N   0  0  0  0  0  0  0  0  0  0  0  0
   39.9660   24.1720   34.6370 N   0  0  0  0  0  0  0  0  0  0  0  0
   41.2500   24.6970   34.6900 C   0  0  0  0  0  0  0  0  0  0  0  0
   41.8520   25.0120   33.4840 C   0  0  0  0  0  0  0  0  0  0  0  0
   41.1520   24.7890   32.3180 C   0  0  0  0  0  0  0  0  0  0  0  0
   41.6870   25.0700   31.2050 O   0  0  0  0  0  0  0  0  0  0  0  0
   39.9130   24.2780   32.3250 N   0  0  0  0  0  0  0  0  0  0  0  0
   39.3120   23.9650   33.5120 C   0  0  0  0  0  0  0  0  0  0  0  0
   38.1720   23.4910   33.6080 O   0  0  0  0  0  0  0  0  0  0  0  0
   39.9100   23.1766   29.3652 H   0  0  0  0  0  0  0  0  0  0  0  0
   40.4387   22.4519   30.9942 H   0  0  0  0  0  0  0  0  0  0  0  0
   37.6782   22.2351   30.1102 H   0  0  0  0  0  0  0  0  0  0  0  0
   39.8956   21.3074   28.5392 H   0  0  0  0  0  0  0  0  0  0  0  0
   38.1941   20.8253   28.3403 H   0  0  0  0  0  0  0  0  0  0  0  0
   38.6085   18.7982   29.2522 H   0  0  0  0  0  0  0  0  0  0  0  0
   40.3419   19.1992   29.2241 H   0  0  0  0  0  0  0  0  0  0  0  0
   38.8702   18.7375   31.5174 H   0  0  0  0  0  0  0  0  0  0  0  0
   40.3672   19.6797   31.4893 H   0  0  0  0  0  0  0  0  0  0  0  0
   38.8637   21.4845   32.2716 H   0  0  0  0  0  0  0  0  0  0  0  0
   36.2894   22.3131   31.3602 H   0  0  0  0  0  0  0  0  0  0  0  0
   33.9387   21.6232   31.8010 H   0  0  0  0  0  0  0  0  0  0  0  0
   33.4755   19.2396   32.3978 H   0  0  0  0  0  0  0  0  0  0  0  0
   35.3559   17.6312   32.5349 H   0  0  0  0  0  0  0  0  0  0  0  0
   37.6571   18.3500   32.0891 H   0  0  0  0  0  0  0  0  0  0  0  0
   39.3267   24.9217   30.4391 H   0  0  0  0  0  0  0  0  0  0  0  0
   38.1313   23.8962   31.3628 H   0  0  0  0  0  0  0  0  0  0  0  0
   40.3599   22.4957   38.7609 H   0  0  0  0  0  0  0  0  0  0  0  0
   37.9515   22.9742   39.3669 H   0  0  0  0  0  0  0  0  0  0  0  0
   36.4957   24.0737   37.5895 H   0  0  0  0  0  0  0  0  0  0  0  0
   41.7663   24.8557   35.6482 H   0  0  0  0  0  0  0  0  0  0  0  0
   42.8684   25.4318   33.4569 H   0  0  0  0  0  0  0  0  0  0  0  0
  1 13  1  0
  2  1  1  0
  2  6  1  0
  3  4  1  0
  3  2  1  0
  4  5  1  0
  5  6  1  0
  6  7  1  0
  7 12  1  0
  8  7  2  0
  8  9  1  0
  9 10  2  0
 10 11  1  0
 12 11  2  0
 13 25  1  0
 14 15  2  0
 16 15  1  0
 17 16  2  0
 18 17  1  0
 18 19  2  0
 19 14  1  0
 20 21  1  0
 20 18  1  0
 22 21  2  0
 23 25  1  0
 23 22  1  0
 24 23  2  0
 25 26  1  0
 26 27  2  0
 26 20  1  0
  1 28  1  0
  1 29  1  0
  2 30  1  6
  3 31  1  0
  3 32  1  0
  4 33  1  0
  4 34  1  0
  5 35  1  0
  5 36  1  0
  6 37  1  1
  8 38  1  0
  9 39  1  0
 10 40  1  0
 11 41  1  0
 12 42  1  0
 13 43  1  0
 13 44  1  0
 14 45  1  0
 15 46  1  0
 16 47  1  0
 21 48  1  0
 22 49  1  0
M  ISO  8  28   8  29   8  30  13  31  13  32  13  33  13  34  13  35  13
M  ISO  8  36  13  37  13  38  14  39  14  40  14  41  14  42  14  43   8
M  ISO  6  44   8  45  14  46  14  47  14  48  14  49  14
M  END
>  <minimizedAffinity>  (1) 
-5.03248501

>  <minimizedRMSD>  (1) 
3.09108782

$$$$
