
     RDKit          3D

 53 56  0  0  1  0  0  0  0  0999 V2000
   37.6180   22.9270   32.1390 C   0  0  0  0  0  0  0  0  0  0  0  0
   37.4180   21.4620   32.2970 C   0  0  1  0  0  0  0  0  0  0  0  0
   36.6580   21.1690   33.5620 C   0  0  0  0  0  0  0  0  0  0  0  0
   35.3650   20.5420   33.1740 C   0  0  0  0  0  0  0  0  0  0  0  0
   35.2800   20.6080   31.6820 C   0  0  0  0  0  0  0  0  0  0  0  0
   36.7160   20.8120   31.1790 C   0  0  2  0  0  0  0  0  0  0  0  0
   37.3720   19.5650   30.9080 N   0  0  0  0  0  0  0  0  0  0  0  0
   38.6660   19.7580   30.3480 C   0  0  0  0  0  0  0  0  0  0  0  0
   39.0100   18.7730   29.2570 C   0  0  0  0  0  0  0  0  0  0  0  0
   38.0530   18.7200   28.1950 N   0  0  0  0  0  0  0  0  0  0  0  0
   36.7140   19.0130   28.6890 C   0  0  0  0  0  0  0  0  0  0  0  0
   36.6630   18.5960   30.1440 C   0  0  0  0  0  0  0  0  0  0  0  0
   37.2990   23.7780   33.2670 C   0  0  0  0  0  0  0  0  0  0  0  0
   43.9630   24.6520   35.3110 C   0  0  0  0  0  0  0  0  0  0  0  0
   44.0080   23.6760   36.3070 C   0  0  0  0  0  0  0  0  0  0  0  0
   42.7760   23.1360   36.7150 C   0  0  0  0  0  0  0  0  0  0  0  0
   41.6580   23.5980   36.1200 N   0  0  0  0  0  0  0  0  0  0  0  0
   41.6420   24.5350   35.1670 C   0  0  0  0  0  0  0  0  0  0  0  0
   42.8030   25.0540   34.7710 N   0  0  0  0  0  0  0  0  0  0  0  0
   40.4530   25.0060   34.5540 N   0  0  0  0  0  0  0  0  0  0  0  0
   40.4000   26.3710   34.3460 C   0  0  0  0  0  0  0  0  0  0  0  0
   39.2610   26.8730   33.7520 C   0  0  0  0  0  0  0  0  0  0  0  0
   38.2530   25.9960   33.4040 C   0  0  0  0  0  0  0  0  0  0  0  0
   37.2100   26.4480   32.8610 O   0  0  0  0  0  0  0  0  0  0  0  0
   38.3610   24.6860   33.6310 N   0  0  0  0  0  0  0  0  0  0  0  0
   39.4840   24.1730   34.2180 C   0  0  0  0  0  0  0  0  0  0  0  0
   39.6590   22.9750   34.4610 O   0  0  0  0  0  0  0  0  0  0  0  0
   38.6784   23.0889   31.8955 H   0  0  0  0  0  0  0  0  0  0  0  0
   36.9012   23.2217   31.3584 H   0  0  0  0  0  0  0  0  0  0  0  0
   38.4349   21.0437   32.3273 H   0  0  0  0  0  0  0  0  0  0  0  0
   37.2348   20.4786   34.1950 H   0  0  0  0  0  0  0  0  0  0  0  0
   36.4838   22.0938   34.1316 H   0  0  0  0  0  0  0  0  0  0  0  0
   35.3373   19.4944   33.5084 H   0  0  0  0  0  0  0  0  0  0  0  0
   34.5178   21.0665   33.6400 H   0  0  0  0  0  0  0  0  0  0  0  0
   34.8655   19.6709   31.2820 H   0  0  0  0  0  0  0  0  0  0  0  0
   34.6209   21.4254   31.3542 H   0  0  0  0  0  0  0  0  0  0  0  0
   36.7172   21.3940   30.2456 H   0  0  0  0  0  0  0  0  0  0  0  0
   38.7139   20.7730   29.9268 H   0  0  0  0  0  0  0  0  0  0  0  0
   39.3927   19.6046   31.1594 H   0  0  0  0  0  0  0  0  0  0  0  0
   39.9838   19.0558   28.8307 H   0  0  0  0  0  0  0  0  0  0  0  0
   39.0232   17.7763   29.7221 H   0  0  0  0  0  0  0  0  0  0  0  0
   38.0610   17.7773   27.7802 H   0  0  0  0  0  0  0  0  0  0  0  0
   36.5083   20.0899   28.5997 H   0  0  0  0  0  0  0  0  0  0  0  0
   35.9580   18.4689   28.1038 H   0  0  0  0  0  0  0  0  0  0  0  0
   35.6171   18.5480   30.4814 H   0  0  0  0  0  0  0  0  0  0  0  0
   37.1188   17.6030   30.2715 H   0  0  0  0  0  0  0  0  0  0  0  0
   36.4078   24.3707   33.0131 H   0  0  0  0  0  0  0  0  0  0  0  0
   37.1331   23.1167   34.1302 H   0  0  0  0  0  0  0  0  0  0  0  0
   44.9027   25.1032   34.9597 H   0  0  0  0  0  0  0  0  0  0  0  0
   44.9590   23.3459   36.7504 H   0  0  0  0  0  0  0  0  0  0  0  0
   42.7258   22.3615   37.4945 H   0  0  0  0  0  0  0  0  0  0  0  0
   41.2305   27.0290   34.6415 H   0  0  0  0  0  0  0  0  0  0  0  0
   39.1577   27.9510   33.5593 H   0  0  0  0  0  0  0  0  0  0  0  0
  1  2  1  0
  1 13  1  0
  2  3  1  0
  4  3  1  0
  5  4  1  0
  6  5  1  0
  6  2  1  0
  7  6  1  0
  8  7  1  0
  9  8  1  0
 10 11  1  0
 10  9  1  0
 11 12  1  0
 12  7  1  0
 13 25  1  0
 14 15  2  0
 15 16  1  0
 17 16  2  0
 18 17  1  0
 19 18  2  0
 19 14  1  0
 20 18  1  0
 21 20  1  0
 22 21  2  0
 23 25  1  0
 23 22  1  0
 24 23  2  0
 25 26  1  0
 26 27  2  0
 26 20  1  0
  1 28  1  0
  1 29  1  0
  2 30  1  1
  3 31  1  0
  3 32  1  0
  4 33  1  0
  4 34  1  0
  5 35  1  0
  5 36  1  0
  6 37  1  6
  8 38  1  0
  8 39  1  0
  9 40  1  0
  9 41  1  0
 10 42  1  0
 11 43  1  0
 11 44  1  0
 12 45  1  0
 12 46  1  0
 13 47  1  0
 13 48  1  0
 14 49  1  0
 15 50  1  0
 16 51  1  0
 21 52  1  0
 22 53  1  0
M  ISO  8  28   8  29   8  30  13  31  13  32  13  33  13  34  13  35  13
M  ISO  8  36  13  37  13  38  13  39  13  40  13  41  13  42   5  43  13
M  ISO  8  44  13  45  13  46  13  47   8  48   8  49  14  50  14  51  14
M  ISO  2  52  14  53  14
M  END
>  <minimizedAffinity>  (1) 
-4.68973207

>  <minimizedRMSD>  (1) 
4.19298124

$$$$
