
     RDKit          3D

 52 55  0  0  1  0  0  0  0  0999 V2000
   40.9570   21.0260   31.4480 C   0  0  0  0  0  0  0  0  0  0  0  0
   39.8250   21.6610   30.7250 C   0  0  1  0  0  0  0  0  0  0  0  0
   40.3510   22.3850   29.5020 C   0  0  0  0  0  0  0  0  0  0  0  0
   39.7870   21.7270   28.2900 C   0  0  0  0  0  0  0  0  0  0  0  0
   39.0760   20.4590   28.7420 C   0  0  0  0  0  0  0  0  0  0  0  0
   38.7840   20.8060   30.2030 C   0  0  1  0  0  0  0  0  0  0  0  0
   37.7920   20.0900   30.8610 N   0  0  0  0  0  0  0  0  0  0  0  0
   37.9710   18.7800   31.1600 C   0  0  0  0  0  0  0  0  0  0  0  0
   37.0130   18.0370   31.8190 C   0  0  0  0  0  0  0  0  0  0  0  0
   37.2310   16.6030   32.1360 C   0  0  0  0  0  0  0  0  0  0  0  0
   35.8350   18.6430   32.1860 C   0  0  0  0  0  0  0  0  0  0  0  0
   34.9770   17.9710   32.7770 O   0  0  0  0  0  0  0  0  0  0  0  0
   35.7120   19.9340   31.8670 N   0  0  0  0  0  0  0  0  0  0  0  0
   36.6350   20.6750   31.2260 C   0  0  0  0  0  0  0  0  0  0  0  0
   36.3450   21.8550   31.0180 O   0  0  0  0  0  0  0  0  0  0  0  0
   41.8680   21.9470   32.0980 C   0  0  0  0  0  0  0  0  0  0  0  0
   38.0660   25.7430   36.6330 C   0  0  0  0  0  0  0  0  0  0  0  0
   38.2980   27.0170   36.0880 C   0  0  0  0  0  0  0  0  0  0  0  0
   39.3290   27.1200   35.1270 C   0  0  0  0  0  0  0  0  0  0  0  0
   40.0130   26.0030   34.8020 N   0  0  0  0  0  0  0  0  0  0  0  0
   39.7700   24.8000   35.3360 C   0  0  0  0  0  0  0  0  0  0  0  0
   38.7930   24.6830   36.2530 N   0  0  0  0  0  0  0  0  0  0  0  0
   40.4950   23.6450   34.9830 N   0  0  0  0  0  0  0  0  0  0  0  0
   40.8410   22.8300   36.0470 C   0  0  0  0  0  0  0  0  0  0  0  0
   41.5570   21.6730   35.7670 C   0  0  0  0  0  0  0  0  0  0  0  0
   41.8780   21.4050   34.4570 C   0  0  0  0  0  0  0  0  0  0  0  0
   42.5280   20.3590   34.1830 O   0  0  0  0  0  0  0  0  0  0  0  0
   41.5080   22.2460   33.4680 N   0  0  0  0  0  0  0  0  0  0  0  0
   40.8110   23.3770   33.7260 C   0  0  0  0  0  0  0  0  0  0  0  0
   40.4390   24.1860   32.8910 O   0  0  0  0  0  0  0  0  0  0  0  0
   41.5332   20.4318   30.7235 H   0  0  0  0  0  0  0  0  0  0  0  0
   40.5071   20.4237   32.2510 H   0  0  0  0  0  0  0  0  0  0  0  0
   39.3768   22.2858   31.5116 H   0  0  0  0  0  0  0  0  0  0  0  0
   40.0397   23.4396   29.5316 H   0  0  0  0  0  0  0  0  0  0  0  0
   41.4499   22.3421   29.4797 H   0  0  0  0  0  0  0  0  0  0  0  0
   40.5967   21.4735   27.5899 H   0  0  0  0  0  0  0  0  0  0  0  0
   39.0853   22.4007   27.7765 H   0  0  0  0  0  0  0  0  0  0  0  0
   38.1504   20.2880   28.1728 H   0  0  0  0  0  0  0  0  0  0  0  0
   39.6541   19.5343   28.5981 H   0  0  0  0  0  0  0  0  0  0  0  0
   37.9966   21.4064   30.6821 H   0  0  0  0  0  0  0  0  0  0  0  0
   38.9125   18.2924   30.8672 H   0  0  0  0  0  0  0  0  0  0  0  0
   37.2516   16.4678   33.2275 H   0  0  0  0  0  0  0  0  0  0  0  0
   36.4135   16.0044   31.7077 H   0  0  0  0  0  0  0  0  0  0  0  0
   38.1894   16.2744   31.7077 H   0  0  0  0  0  0  0  0  0  0  0  0
   34.8350   20.4032   32.1346 H   0  0  0  0  0  0  0  0  0  0  0  0
   42.8746   21.5036   32.0915 H   0  0  0  0  0  0  0  0  0  0  0  0
   41.8249   22.8931   31.5386 H   0  0  0  0  0  0  0  0  0  0  0  0
   37.2737   25.6132   37.3849 H   0  0  0  0  0  0  0  0  0  0  0  0
   37.7058   27.8919   36.3945 H   0  0  0  0  0  0  0  0  0  0  0  0
   39.5677   28.0851   34.6563 H   0  0  0  0  0  0  0  0  0  0  0  0
   40.5589   23.0894   37.0781 H   0  0  0  0  0  0  0  0  0  0  0  0
   41.8596   20.9883   36.5730 H   0  0  0  0  0  0  0  0  0  0  0  0
  1 16  1  0
  2  1  1  0
  3  2  1  0
  4  5  1  0
  4  3  1  0
  5  6  1  0
  6  2  1  0
  6  7  1  0
  7  8  1  0
  7 14  1  0
  8  9  2  0
  9 10  1  0
  9 11  1  0
 11 12  2  0
 13 11  1  0
 14 13  1  0
 15 14  2  0
 16 28  1  0
 18 17  2  0
 19 18  1  0
 20 19  2  0
 20 21  1  0
 21 22  2  0
 22 17  1  0
 23 21  1  0
 23 24  1  0
 25 24  2  0
 26 25  1  0
 27 26  2  0
 28 29  1  0
 28 26  1  0
 29 23  1  0
 30 29  2  0
  1 31  1  0
  1 32  1  0
  2 33  1  1
  3 34  1  0
  3 35  1  0
  4 36  1  0
  4 37  1  0
  5 38  1  0
  5 39  1  0
  6 40  1  6
  8 41  1  0
 10 42  1  0
 10 43  1  0
 10 44  1  0
 13 45  1  0
 16 46  1  0
 16 47  1  0
 17 48  1  0
 18 49  1  0
 19 50  1  0
 24 51  1  0
 25 52  1  0
M  ISO  8  31   8  32   8  33  13  34  13  35  13  36  13  37  13  38  13
M  ISO  8  39  13  40  13  41  14  42   8  43   8  44   8  45   9  46   8
M  ISO  6  47   8  48  14  49  14  50  14  51  14  52  14
M  END
>  <minimizedAffinity>  (1) 
-4.75498962

>  <minimizedRMSD>  (1) 
4.97701979

$$$$
