
     RDKit          3D

 46 49  0  0  1  0  0  0  0  0999 V2000
   38.5090   21.9860   30.3480 C   0  0  0  0  0  0  0  0  0  0  0  0
   37.7490   20.7190   30.3990 C   0  0  1  0  0  0  0  0  0  0  0  0
   38.1060   19.8400   29.2230 C   0  0  0  0  0  0  0  0  0  0  0  0
   38.7440   18.6020   29.7570 C   0  0  0  0  0  0  0  0  0  0  0  0
   38.9200   18.8010   31.2310 C   0  0  0  0  0  0  0  0  0  0  0  0
   37.9360   19.9180   31.5910 C   0  0  2  0  0  0  0  0  0  0  0  0
   36.6500   19.1620   31.8410 C   0  0  0  0  0  0  0  0  0  0  0  0
   36.5710   17.8750   32.3410 C   0  0  0  0  0  0  0  0  0  0  0  0
   35.2050   17.5790   32.4080 C   0  0  0  0  0  0  0  0  0  0  0  0
   34.5210   18.6630   31.9610 N   0  0  0  0  0  0  0  0  0  0  0  0
   35.3940   19.6100   31.6210 N   0  0  0  0  0  0  0  0  0  0  0  0
   37.9270   23.1380   31.0190 C   0  0  0  0  0  0  0  0  0  0  0  0
   39.9280   23.1070   37.7540 C   0  0  0  0  0  0  0  0  0  0  0  0
   38.6620   23.0620   38.3490 C   0  0  0  0  0  0  0  0  0  0  0  0
   37.5650   23.3150   37.5100 C   0  0  0  0  0  0  0  0  0  0  0  0
   37.8090   23.5800   36.2110 N   0  0  0  0  0  0  0  0  0  0  0  0
   39.0320   23.6180   35.6680 C   0  0  0  0  0  0  0  0  0  0  0  0
   40.0750   23.3790   36.4500 N   0  0  0  0  0  0  0  0  0  0  0  0
   39.2660   23.8990   34.3010 N   0  0  0  0  0  0  0  0  0  0  0  0
   40.3430   24.7310   34.0490 C   0  0  0  0  0  0  0  0  0  0  0  0
   40.6100   25.0330   32.7270 C   0  0  0  0  0  0  0  0  0  0  0  0
   39.8020   24.4970   31.7470 C   0  0  0  0  0  0  0  0  0  0  0  0
   40.0360   24.7660   30.5400 O   0  0  0  0  0  0  0  0  0  0  0  0
   38.7740   23.6980   32.0480 N   0  0  0  0  0  0  0  0  0  0  0  0
   38.5020   23.3940   33.3520 C   0  0  0  0  0  0  0  0  0  0  0  0
   37.5680   22.6600   33.7130 O   0  0  0  0  0  0  0  0  0  0  0  0
   39.4930   21.8002   30.8032 H   0  0  0  0  0  0  0  0  0  0  0  0
   38.5320   22.2601   29.2829 H   0  0  0  0  0  0  0  0  0  0  0  0
   36.7001   21.0503   30.3868 H   0  0  0  0  0  0  0  0  0  0  0  0
   38.8085   20.3675   28.5611 H   0  0  0  0  0  0  0  0  0  0  0  0
   37.2055   19.5891   28.6432 H   0  0  0  0  0  0  0  0  0  0  0  0
   38.0978   17.7322   29.5677 H   0  0  0  0  0  0  0  0  0  0  0  0
   39.7115   18.4165   29.2676 H   0  0  0  0  0  0  0  0  0  0  0  0
   38.6775   17.8785   31.7789 H   0  0  0  0  0  0  0  0  0  0  0  0
   39.9564   19.0570   31.4963 H   0  0  0  0  0  0  0  0  0  0  0  0
   38.2528   20.5539   32.4308 H   0  0  0  0  0  0  0  0  0  0  0  0
   37.4077   17.2204   32.6265 H   0  0  0  0  0  0  0  0  0  0  0  0
   34.7636   16.6351   32.7605 H   0  0  0  0  0  0  0  0  0  0  0  0
   33.4960   18.7405   31.8955 H   0  0  0  0  0  0  0  0  0  0  0  0
   37.7325   23.9168   30.2669 H   0  0  0  0  0  0  0  0  0  0  0  0
   37.0063   22.7927   31.5120 H   0  0  0  0  0  0  0  0  0  0  0  0
   40.8198   22.9154   38.3687 H   0  0  0  0  0  0  0  0  0  0  0  0
   38.5331   22.8399   39.4186 H   0  0  0  0  0  0  0  0  0  0  0  0
   36.5370   23.2975   37.9011 H   0  0  0  0  0  0  0  0  0  0  0  0
   40.9598   25.1344   34.8656 H   0  0  0  0  0  0  0  0  0  0  0  0
   41.4520   25.6892   32.4616 H   0  0  0  0  0  0  0  0  0  0  0  0
  1  2  1  0
  1 12  1  0
  2  6  1  0
  3  4  1  0
  3  2  1  0
  4  5  1  0
  5  6  1  0
  6  7  1  0
  7  8  1  0
  8  9  2  0
 10  9  1  0
 11  7  2  0
 11 10  1  0
 12 24  1  0
 13 14  2  0
 15 14  1  0
 16 15  2  0
 17 16  1  0
 17 18  2  0
 18 13  1  0
 19 17  1  0
 20 19  1  0
 21 20  2  0
 22 24  1  0
 22 21  1  0
 23 22  2  0
 24 25  1  0
 25 26  2  0
 25 19  1  0
  1 27  1  0
  1 28  1  0
  2 29  1  6
  3 30  1  0
  3 31  1  0
  4 32  1  0
  4 33  1  0
  5 34  1  0
  5 35  1  0
  6 36  1  1
  8 37  1  0
  9 38  1  0
 10 39  1  0
 12 40  1  0
 12 41  1  0
 13 42  1  0
 14 43  1  0
 15 44  1  0
 20 45  1  0
 21 46  1  0
M  ISO  8  27   8  28   8  29  13  30  13  31  13  32  13  33  13  34  13
M  ISO  8  35  13  36  13  37  14  38  14  39   9  40   8  41   8  42  14
M  ISO  4  43  14  44  14  45  14  46  14
M  END
>  <minimizedAffinity>  (1) 
-4.84675932

>  <minimizedRMSD>  (1) 
2.24198174

$$$$
