
     RDKit          3D

 48 50  0  0  1  0  0  0  0  0999 V2000
   35.7900   21.5700   31.6080 C   0  0  0  0  0  0  0  0  0  0  0  0
   41.1820   23.8580   35.4970 C   0  0  0  0  0  0  0  0  0  0  0  0
   41.0900   22.9470   36.5500 C   0  0  0  0  0  0  0  0  0  0  0  0
   39.9100   22.1810   36.6140 C   0  0  0  0  0  0  0  0  0  0  0  0
   38.9730   22.3840   35.6660 N   0  0  0  0  0  0  0  0  0  0  0  0
   39.0920   23.2660   34.6670 C   0  0  0  0  0  0  0  0  0  0  0  0
   40.1990   23.9990   34.5910 N   0  0  0  0  0  0  0  0  0  0  0  0
   38.0960   23.4670   33.6790 N   0  0  0  0  0  0  0  0  0  0  0  0
   37.8650   24.7830   33.3310 C   0  0  0  0  0  0  0  0  0  0  0  0
   36.9010   25.0240   32.3700 C   0  0  0  0  0  0  0  0  0  0  0  0
   36.2360   23.9510   31.8200 C   0  0  0  0  0  0  0  0  0  0  0  0
   35.3530   24.1570   30.9400 O   0  0  0  0  0  0  0  0  0  0  0  0
   36.4980   22.6940   32.1930 N   0  0  0  0  0  0  0  0  0  0  0  0
   37.4480   22.4470   33.1420 C   0  0  0  0  0  0  0  0  0  0  0  0
   37.7510   21.3130   33.5440 O   0  0  0  0  0  0  0  0  0  0  0  0
   36.5280   20.9010   30.5530 C   0  0  0  0  0  0  0  0  0  0  0  0
   36.3210   19.4430   30.3920 C   0  0  1  0  0  0  0  0  0  0  0  0
   36.6480   19.0140   28.9800 C   0  0  0  0  0  0  0  0  0  0  0  0
   37.8090   18.0740   29.0510 C   0  0  0  0  0  0  0  0  0  0  0  0
   38.2570   18.0510   30.4780 C   0  0  0  0  0  0  0  0  0  0  0  0
   37.0830   18.5990   31.2900 C   0  0  2  0  0  0  0  0  0  0  0  0
   36.2420   17.3610   31.6250 C   0  0  0  0  0  0  0  0  0  0  0  0
   37.2120   16.3870   32.2740 C   0  0  0  0  0  0  0  0  0  0  0  0
   35.2660   17.8020   32.6940 C   0  0  0  0  0  0  0  0  0  0  0  0
   35.5814   20.8391   32.4032 H   0  0  0  0  0  0  0  0  0  0  0  0
   34.8714   21.9699   31.1539 H   0  0  0  0  0  0  0  0  0  0  0  0
   42.0854   24.4789   35.4056 H   0  0  0  0  0  0  0  0  0  0  0  0
   41.8957   22.8333   37.2902 H   0  0  0  0  0  0  0  0  0  0  0  0
   39.7575   21.4401   37.4126 H   0  0  0  0  0  0  0  0  0  0  0  0
   38.4250   25.6059   33.7992 H   0  0  0  0  0  0  0  0  0  0  0  0
   36.6700   26.0512   32.0514 H   0  0  0  0  0  0  0  0  0  0  0  0
   36.2510   21.3801   29.6023 H   0  0  0  0  0  0  0  0  0  0  0  0
   37.5845   21.0038   30.8415 H   0  0  0  0  0  0  0  0  0  0  0  0
   35.2587   19.3010   30.6398 H   0  0  0  0  0  0  0  0  0  0  0  0
   36.9129   19.8922   28.3729 H   0  0  0  0  0  0  0  0  0  0  0  0
   35.7808   18.5227   28.5146 H   0  0  0  0  0  0  0  0  0  0  0  0
   37.5011   17.0667   28.7341 H   0  0  0  0  0  0  0  0  0  0  0  0
   38.6227   18.3994   28.3861 H   0  0  0  0  0  0  0  0  0  0  0  0
   38.4918   17.0225   30.7896 H   0  0  0  0  0  0  0  0  0  0  0  0
   39.1678   18.6496   30.6269 H   0  0  0  0  0  0  0  0  0  0  0  0
   37.3783   19.1609   32.1884 H   0  0  0  0  0  0  0  0  0  0  0  0
   35.7275   16.9259   30.7556 H   0  0  0  0  0  0  0  0  0  0  0  0
   37.1335   16.4658   33.3684 H   0  0  0  0  0  0  0  0  0  0  0  0
   36.9658   15.3614   31.9616 H   0  0  0  0  0  0  0  0  0  0  0  0
   38.2386   16.6290   31.9616 H   0  0  0  0  0  0  0  0  0  0  0  0
   35.6972   17.6072   33.6870 H   0  0  0  0  0  0  0  0  0  0  0  0
   35.0655   18.8782   32.5860 H   0  0  0  0  0  0  0  0  0  0  0  0
   34.3259   17.2412   32.5860 H   0  0  0  0  0  0  0  0  0  0  0  0
  1 13  1  0
  2  3  2  0
  3  4  1  0
  5  4  2  0
  6  5  1  0
  7  6  2  0
  7  2  1  0
  8  6  1  0
  9  8  1  0
 10  9  2  0
 11 13  1  0
 11 10  1  0
 12 11  2  0
 13 14  1  0
 14 15  2  0
 14  8  1  0
 16  1  1  0
 17 16  1  0
 17 21  1  0
 18 19  1  0
 18 17  1  0
 19 20  1  0
 20 21  1  0
 21 22  1  0
 22 23  1  0
 22 24  1  0
  1 25  1  0
  1 26  1  0
  2 27  1  0
  3 28  1  0
  4 29  1  0
  9 30  1  0
 10 31  1  0
 16 32  1  0
 16 33  1  0
 17 34  1  1
 18 35  1  0
 18 36  1  0
 19 37  1  0
 19 38  1  0
 20 39  1  0
 20 40  1  0
 21 41  1  1
 22 42  1  0
 23 43  1  0
 23 44  1  0
 23 45  1  0
 24 46  1  0
 24 47  1  0
 24 48  1  0
M  ISO  8  25   8  26   8  27  14  28  14  29  14  30  14  31  14  32   8
M  ISO  8  33   8  34  13  35  13  36  13  37  13  38  13  39  13  40  13
M  ISO  8  41  13  42   8  43   8  44   8  45   8  46   8  47   8  48   8
M  END
>  <minimizedAffinity>  (1) 
-4.97017097

>  <minimizedRMSD>  (1) 
2.40122724

$$$$
