
     RDKit          3D

 46 49  0  0  1  0  0  0  0  0999 V2000
   39.1860   22.3410   30.4470 C   0  0  0  0  0  0  0  0  0  0  0  0
   38.2180   21.2180   30.4540 C   0  0  1  0  0  0  0  0  0  0  0  0
   38.4930   20.2570   29.3220 C   0  0  0  0  0  0  0  0  0  0  0  0
   38.8410   18.9430   29.9400 C   0  0  0  0  0  0  0  0  0  0  0  0
   38.9440   19.1650   31.4140 C   0  0  0  0  0  0  0  0  0  0  0  0
   38.1660   20.4560   31.6840 C   0  0  2  0  0  0  0  0  0  0  0  0
   36.7780   20.0010   31.9030 N   0  0  0  0  0  0  0  0  0  0  0  0
   36.3940   18.7950   32.3520 N   0  0  0  0  0  0  0  0  0  0  0  0
   35.0770   18.7030   32.4360 C   0  0  0  0  0  0  0  0  0  0  0  0
   34.5520   19.9100   32.0230 C   0  0  0  0  0  0  0  0  0  0  0  0
   35.6440   20.6910   31.6980 C   0  0  0  0  0  0  0  0  0  0  0  0
   38.7970   23.5830   31.0870 C   0  0  0  0  0  0  0  0  0  0  0  0
   39.7060   23.0080   38.0360 C   0  0  0  0  0  0  0  0  0  0  0  0
   38.4040   23.2800   38.4480 C   0  0  0  0  0  0  0  0  0  0  0  0
   37.5320   23.8150   37.4680 C   0  0  0  0  0  0  0  0  0  0  0  0
   38.0340   24.0110   36.2370 N   0  0  0  0  0  0  0  0  0  0  0  0
   39.2930   23.7390   35.8710 C   0  0  0  0  0  0  0  0  0  0  0  0
   40.1200   23.2370   36.7770 N   0  0  0  0  0  0  0  0  0  0  0  0
   39.7850   23.9600   34.5620 N   0  0  0  0  0  0  0  0  0  0  0  0
   41.0510   24.4940   34.5020 C   0  0  0  0  0  0  0  0  0  0  0  0
   41.5850   24.7320   33.2420 C   0  0  0  0  0  0  0  0  0  0  0  0
   40.8230   24.4240   32.1410 C   0  0  0  0  0  0  0  0  0  0  0  0
   41.2910   24.6330   30.9840 O   0  0  0  0  0  0  0  0  0  0  0  0
   39.5920   23.9040   32.2550 N   0  0  0  0  0  0  0  0  0  0  0  0
   39.0650   23.6680   33.4940 C   0  0  0  0  0  0  0  0  0  0  0  0
   37.9390   23.1910   33.6880 O   0  0  0  0  0  0  0  0  0  0  0  0
   40.0995   21.9878   30.9478 H   0  0  0  0  0  0  0  0  0  0  0  0
   39.2929   22.6031   29.3840 H   0  0  0  0  0  0  0  0  0  0  0  0
   37.2424   21.7127   30.3377 H   0  0  0  0  0  0  0  0  0  0  0  0
   39.3326   20.6219   28.7122 H   0  0  0  0  0  0  0  0  0  0  0  0
   37.6155   20.1621   28.6656 H   0  0  0  0  0  0  0  0  0  0  0  0
   38.0553   18.2042   29.7236 H   0  0  0  0  0  0  0  0  0  0  0  0
   39.7884   18.5580   29.5346 H   0  0  0  0  0  0  0  0  0  0  0  0
   38.4960   18.3234   31.9626 H   0  0  0  0  0  0  0  0  0  0  0  0
   39.9903   19.2401   31.7451 H   0  0  0  0  0  0  0  0  0  0  0  0
   38.5453   21.0549   32.5251 H   0  0  0  0  0  0  0  0  0  0  0  0
   34.5057   17.8255   32.7731 H   0  0  0  0  0  0  0  0  0  0  0  0
   33.4900   20.1907   31.9649 H   0  0  0  0  0  0  0  0  0  0  0  0
   35.5925   21.7250   31.3263 H   0  0  0  0  0  0  0  0  0  0  0  0
   38.9043   24.3993   30.3575 H   0  0  0  0  0  0  0  0  0  0  0  0
   37.7577   23.4611   31.4261 H   0  0  0  0  0  0  0  0  0  0  0  0
   40.4188   22.5925   38.7635 H   0  0  0  0  0  0  0  0  0  0  0  0
   38.0705   23.0897   39.4788 H   0  0  0  0  0  0  0  0  0  0  0  0
   36.4862   24.0601   37.7052 H   0  0  0  0  0  0  0  0  0  0  0  0
   41.6184   24.7236   35.4160 H   0  0  0  0  0  0  0  0  0  0  0  0
   42.5933   25.1567   33.1284 H   0  0  0  0  0  0  0  0  0  0  0  0
  1  2  1  0
  1 12  1  0
  2  6  1  0
  3  4  1  0
  3  2  1  0
  4  5  1  0
  5  6  1  0
  6  7  1  0
  7  8  1  0
  8  9  2  0
 10  9  1  0
 11  7  1  0
 11 10  2  0
 12 24  1  0
 13 14  2  0
 15 14  1  0
 16 15  2  0
 17 16  1  0
 17 18  2  0
 18 13  1  0
 19 17  1  0
 20 19  1  0
 21 20  2  0
 22 24  1  0
 22 21  1  0
 23 22  2  0
 24 25  1  0
 25 26  2  0
 25 19  1  0
  1 27  1  0
  1 28  1  0
  2 29  1  6
  3 30  1  0
  3 31  1  0
  4 32  1  0
  4 33  1  0
  5 34  1  0
  5 35  1  0
  6 36  1  1
  9 37  1  0
 10 38  1  0
 11 39  1  0
 12 40  1  0
 12 41  1  0
 13 42  1  0
 14 43  1  0
 15 44  1  0
 20 45  1  0
 21 46  1  0
M  ISO  8  27   8  28   8  29  13  30  13  31  13  32  13  33  13  34  13
M  ISO  8  35  13  36  13  37  14  38  14  39  14  40   8  41   8  42  14
M  ISO  4  43  14  44  14  45  14  46  14
M  END
>  <minimizedAffinity>  (1) 
-4.68917513

>  <minimizedRMSD>  (1) 
2.62650847

$$$$
