
     RDKit          3D

 53 57  0  0  1  0  0  0  0  0999 V2000
   35.8730   20.7680   31.0970 C   0  0  1  0  0  0  0  0  0  0  0  0
   34.9980   20.2280   32.2040 C   0  0  0  0  0  0  0  0  0  0  0  0
   35.5520   20.7260   33.4970 C   0  0  0  0  0  0  0  0  0  0  0  0
   36.8240   21.4370   33.1760 C   0  0  0  0  0  0  0  0  0  0  0  0
   36.7850   21.7510   31.6800 C   0  0  2  0  0  0  0  0  0  0  0  0
   36.3220   23.1330   31.4610 N   0  0  0  0  0  0  0  0  0  0  0  0
   35.0810   23.6410   31.5600 C   0  0  0  0  0  0  0  0  0  0  0  0
   35.0950   24.9540   31.2760 N   0  0  0  0  0  0  0  0  0  0  0  0
   36.3430   25.3320   30.9860 C   0  0  0  0  0  0  0  0  0  0  0  0
   36.9260   26.5460   30.6280 C   0  0  0  0  0  0  0  0  0  0  0  0
   36.2300   27.5900   30.5200 O   0  0  0  0  0  0  0  0  0  0  0  0
   38.2530   26.4970   30.4160 N   0  0  0  0  0  0  0  0  0  0  0  0
   38.9880   25.3760   30.5340 C   0  0  0  0  0  0  0  0  0  0  0  0
   40.3960   25.5260   30.2650 N   0  0  0  0  0  0  0  0  0  0  0  0
   38.4250   24.2030   30.8790 N   0  0  0  0  0  0  0  0  0  0  0  0
   37.1090   24.1910   31.1030 C   0  0  0  0  0  0  0  0  0  0  0  0
   36.5410   19.6560   30.3750 C   0  0  0  0  0  0  0  0  0  0  0  0
   37.8340   19.9140   29.7710 C   0  0  0  0  0  0  0  0  0  0  0  0
   42.4540   16.7650   34.0360 C   0  0  0  0  0  0  0  0  0  0  0  0
   43.1320   17.8990   34.4880 C   0  0  0  0  0  0  0  0  0  0  0  0
   42.8900   19.1040   33.7850 C   0  0  0  0  0  0  0  0  0  0  0  0
   42.0340   19.0760   32.7430 N   0  0  0  0  0  0  0  0  0  0  0  0
   41.3950   17.9500   32.3370 C   0  0  0  0  0  0  0  0  0  0  0  0
   41.6180   16.8190   32.9910 N   0  0  0  0  0  0  0  0  0  0  0  0
   40.5040   17.9410   31.2460 N   0  0  0  0  0  0  0  0  0  0  0  0
   40.6300   16.8410   30.4050 C   0  0  0  0  0  0  0  0  0  0  0  0
   39.7750   16.7860   29.3140 C   0  0  0  0  0  0  0  0  0  0  0  0
   38.8620   17.8100   29.1280 C   0  0  0  0  0  0  0  0  0  0  0  0
   38.0860   17.7650   28.1420 O   0  0  0  0  0  0  0  0  0  0  0  0
   38.7900   18.8430   29.9710 N   0  0  0  0  0  0  0  0  0  0  0  0
   39.6280   18.9040   31.0470 C   0  0  0  0  0  0  0  0  0  0  0  0
   39.6210   19.8290   31.8760 O   0  0  0  0  0  0  0  0  0  0  0  0
   35.2827   21.2862   30.3270 H   0  0  0  0  0  0  0  0  0  0  0  0
   33.9658   20.5856   32.0751 H   0  0  0  0  0  0  0  0  0  0  0  0
   34.9850   19.1282   32.1860 H   0  0  0  0  0  0  0  0  0  0  0  0
   34.8410   21.4179   33.9721 H   0  0  0  0  0  0  0  0  0  0  0  0
   35.7297   19.8955   34.1961 H   0  0  0  0  0  0  0  0  0  0  0  0
   36.8952   22.3681   33.7573 H   0  0  0  0  0  0  0  0  0  0  0  0
   37.6980   20.8186   33.4283 H   0  0  0  0  0  0  0  0  0  0  0  0
   37.7778   21.6857   31.2109 H   0  0  0  0  0  0  0  0  0  0  0  0
   34.1846   23.0652   31.8337 H   0  0  0  0  0  0  0  0  0  0  0  0
   38.7344   27.3673   30.1480 H   0  0  0  0  0  0  0  0  0  0  0  0
   41.0233   24.7120   30.3350 H   0  0  0  0  0  0  0  0  0  0  0  0
   40.7749   26.4472   30.0028 H   0  0  0  0  0  0  0  0  0  0  0  0
   36.6740   18.8334   31.0931 H   0  0  0  0  0  0  0  0  0  0  0  0
   35.8778   19.4449   29.5231 H   0  0  0  0  0  0  0  0  0  0  0  0
   38.2458   20.8347   30.2100 H   0  0  0  0  0  0  0  0  0  0  0  0
   37.6721   20.0047   28.6868 H   0  0  0  0  0  0  0  0  0  0  0  0
   42.6101   15.8051   34.5501 H   0  0  0  0  0  0  0  0  0  0  0  0
   43.8189   17.8582   35.3462 H   0  0  0  0  0  0  0  0  0  0  0  0
   43.3875   20.0393   34.0811 H   0  0  0  0  0  0  0  0  0  0  0  0
   41.3723   16.0519   30.5957 H   0  0  0  0  0  0  0  0  0  0  0  0
   39.8216   15.9432   28.6087 H   0  0  0  0  0  0  0  0  0  0  0  0
  1  5  1  0
  1  2  1  0
  2  3  1  0
  4  3  1  0
  5  4  1  0
  6  7  1  0
  6  5  1  0
  8  7  2  0
  9 16  2  0
  9  8  1  0
 10  9  1  0
 11 10  2  0
 12 13  1  0
 12 10  1  0
 13 15  2  0
 14 13  1  0
 15 16  1  0
 16  6  1  0
 17  1  1  0
 18 30  1  0
 18 17  1  0
 19 20  2  0
 21 20  1  0
 22 21  2  0
 23 22  1  0
 23 24  2  0
 24 19  1  0
 25 23  1  0
 26 25  1  0
 27 26  2  0
 28 27  1  0
 28 30  1  0
 29 28  2  0
 30 31  1  0
 31 25  1  0
 31 32  2  0
  1 33  1  6
  2 34  1  0
  2 35  1  0
  3 36  1  0
  3 37  1  0
  4 38  1  0
  4 39  1  0
  5 40  1  6
  7 41  1  0
 12 42  1  0
 14 43  1  0
 14 44  1  0
 17 45  1  0
 17 46  1  0
 18 47  1  0
 18 48  1  0
 19 49  1  0
 20 50  1  0
 21 51  1  0
 26 52  1  0
 27 53  1  0
M  ISO  8  33  13  34  13  35  13  36  13  37  13  38  13  39  13  40  13
M  ISO  8  41  14  42   9  45   8  46   8  47   8  48   8  49  14  50  14
M  ISO  3  51  14  52  14  53  14
M  END
>  <minimizedAffinity>  (1) 
-4.58938456

>  <minimizedRMSD>  (1) 
6.60968304

$$$$
