
     RDKit          3D

 40 42  0  0  1  0  0  0  0  0999 V2000
   37.3200   22.3160   31.1530 C   0  0  0  0  0  0  0  0  0  0  0  0
   40.0070   23.0130   37.6130 C   0  0  0  0  0  0  0  0  0  0  0  0
   38.8190   23.1220   38.3310 C   0  0  0  0  0  0  0  0  0  0  0  0
   37.6300   23.3420   37.5810 C   0  0  0  0  0  0  0  0  0  0  0  0
   37.7260   23.4290   36.2320 N   0  0  0  0  0  0  0  0  0  0  0  0
   38.8870   23.3180   35.5810 C   0  0  0  0  0  0  0  0  0  0  0  0
   40.0190   23.1110   36.2760 N   0  0  0  0  0  0  0  0  0  0  0  0
   38.9900   23.4080   34.1690 N   0  0  0  0  0  0  0  0  0  0  0  0
   40.0700   24.1510   33.7080 C   0  0  0  0  0  0  0  0  0  0  0  0
   40.2130   24.2640   32.3370 C   0  0  0  0  0  0  0  0  0  0  0  0
   39.3020   23.6530   31.5170 C   0  0  0  0  0  0  0  0  0  0  0  0
   39.4300   23.7550   30.2670 O   0  0  0  0  0  0  0  0  0  0  0  0
   38.2770   22.9470   32.0360 N   0  0  0  0  0  0  0  0  0  0  0  0
   38.1090   22.8170   33.3780 C   0  0  0  0  0  0  0  0  0  0  0  0
   37.2080   22.1980   33.9230 O   0  0  0  0  0  0  0  0  0  0  0  0
   37.7010   20.9680   30.7550 C   0  0  0  0  0  0  0  0  0  0  0  0
   36.5730   20.1130   30.3080 C   0  0  1  0  0  0  0  0  0  0  0  0
   37.0860   19.0960   29.3050 C   0  0  0  0  0  0  0  0  0  0  0  0
   36.9150   17.7360   29.8870 C   0  0  0  0  0  0  0  0  0  0  0  0
   36.5140   17.9010   31.3280 C   0  0  0  0  0  0  0  0  0  0  0  0
   35.9030   19.3070   31.3090 C   0  0  1  0  0  0  0  0  0  0  0  0
   34.8080   19.7670   32.5690 S   0  0  0  0  0  0  0  0  0  0  0  0
   36.3498   22.2660   31.6690 H   0  0  0  0  0  0  0  0  0  0  0  0
   37.2734   22.9238   30.2373 H   0  0  0  0  0  0  0  0  0  0  0  0
   40.9511   22.8437   38.1516 H   0  0  0  0  0  0  0  0  0  0  0  0
   38.8005   23.0417   39.4279 H   0  0  0  0  0  0  0  0  0  0  0  0
   36.6565   23.4391   38.0839 H   0  0  0  0  0  0  0  0  0  0  0  0
   40.7786   24.6274   34.4016 H   0  0  0  0  0  0  0  0  0  0  0  0
   41.0487   24.8379   31.9102 H   0  0  0  0  0  0  0  0  0  0  0  0
   38.4215   21.0455   29.9275 H   0  0  0  0  0  0  0  0  0  0  0  0
   38.1215   20.4861   31.6500 H   0  0  0  0  0  0  0  0  0  0  0  0
   35.8504   20.8521   29.9318 H   0  0  0  0  0  0  0  0  0  0  0  0
   38.1506   19.2811   29.0993 H   0  0  0  0  0  0  0  0  0  0  0  0
   36.5247   19.1776   28.3625 H   0  0  0  0  0  0  0  0  0  0  0  0
   36.1316   17.1906   29.3404 H   0  0  0  0  0  0  0  0  0  0  0  0
   37.8518   17.1644   29.8113 H   0  0  0  0  0  0  0  0  0  0  0  0
   35.7747   17.1444   31.6297 H   0  0  0  0  0  0  0  0  0  0  0  0
   37.3407   17.7780   32.0432 H   0  0  0  0  0  0  0  0  0  0  0  0
   34.9074   19.7223   31.0937 H   0  0  0  0  0  0  0  0  0  0  0  0
   35.3858   19.5243   33.7873 H   0  0  0  0  0  0  0  0  0  0  0  0
  1 13  1  0
  2  3  2  0
  4  3  1  0
  5  4  2  0
  6  5  1  0
  6  7  2  0
  7  2  1  0
  8  6  1  0
  9  8  1  0
 10  9  2  0
 11 13  1  0
 11 10  1  0
 12 11  2  0
 13 14  1  0
 14 15  2  0
 14  8  1  0
 16  1  1  0
 17 16  1  0
 17 21  1  0
 18 19  1  0
 18 17  1  0
 19 20  1  0
 21 20  1  0
 21 22  1  0
  1 23  1  0
  1 24  1  0
  2 25  1  0
  3 26  1  0
  4 27  1  0
  9 28  1  0
 10 29  1  0
 16 30  1  0
 16 31  1  0
 17 32  1  6
 18 33  1  0
 18 34  1  0
 19 35  1  0
 19 36  1  0
 20 37  1  0
 20 38  1  0
 21 39  1  6
 22 40  1  0
M  ISO  8  23   8  24   8  25  14  26  14  27  14  28  14  29  14  30   8
M  ISO  8  31   8  32  13  33  13  34  13  35  13  36  13  37  13  38  13
M  ISO  2  39  13  40  11
M  END
>  <minimizedAffinity>  (1) 
-4.48694706

>  <minimizedRMSD>  (1) 
1.12683427

$$$$
