
     RDKit          3D

 31 32  0  0  0  0  0  0  0  0999 V2000
   38.3960   26.5040   34.2810 C   0  0  0  0  0  0  0  0  0  0  0  0
   37.2050   27.2900   34.8010 C   0  0  0  0  0  0  0  0  0  0  0  0
   38.6140   26.9440   32.8480 C   0  0  0  0  0  0  0  0  0  0  0  0
   39.5940   26.9750   35.0570 C   0  0  0  0  0  0  0  0  0  0  0  0
   40.8900   26.7930   34.4230 C   0  0  0  0  0  0  0  0  0  0  0  0
   41.5060   27.4960   33.4100 C   0  0  0  0  0  0  0  0  0  0  0  0
   42.7590   27.1770   32.9300 C   0  0  0  0  0  0  0  0  0  0  0  0
   43.3850   26.1160   33.5000 N   0  0  0  0  0  0  0  0  0  0  0  0
   42.8070   25.4130   34.4910 C   0  0  0  0  0  0  0  0  0  0  0  0
   41.5670   25.7380   34.9570 N   0  0  0  0  0  0  0  0  0  0  0  0
   38.2260   24.7530   34.4690 S   0  0  0  0  0  0  0  0  0  0  0  0
   38.0550   24.0320   38.4600 C   0  0  0  0  0  0  0  0  0  0  0  0
   37.7680   24.5310   37.1850 C   0  0  0  0  0  0  0  0  0  0  0  0
   38.5580   24.1400   36.1120 C   0  0  0  0  0  0  0  0  0  0  0  0
   39.5870   23.2790   36.3480 N   0  0  0  0  0  0  0  0  0  0  0  0
   39.8360   22.8150   37.5950 C   0  0  0  0  0  0  0  0  0  0  0  0
   39.0820   23.1850   38.6410 N   0  0  0  0  0  0  0  0  0  0  0  0
   37.2138   27.2842   35.9009 H   0  0  0  0  0  0  0  0  0  0  0  0
   37.2640   28.3272   34.4393 H   0  0  0  0  0  0  0  0  0  0  0  0
   36.2746   26.8279   34.4393 H   0  0  0  0  0  0  0  0  0  0  0  0
   39.1023   27.9296   32.8373 H   0  0  0  0  0  0  0  0  0  0  0  0
   39.2538   26.2122   32.3330 H   0  0  0  0  0  0  0  0  0  0  0  0
   37.6442   27.0097   32.3330 H   0  0  0  0  0  0  0  0  0  0  0  0
   39.4649   28.0500   35.2512 H   0  0  0  0  0  0  0  0  0  0  0  0
   39.6210   26.3477   35.9602 H   0  0  0  0  0  0  0  0  0  0  0  0
   40.9744   28.3497   32.9644 H   0  0  0  0  0  0  0  0  0  0  0  0
   43.2297   27.7561   32.1219 H   0  0  0  0  0  0  0  0  0  0  0  0
   43.3441   24.5610   34.9333 H   0  0  0  0  0  0  0  0  0  0  0  0
   37.4370   24.3345   39.3182 H   0  0  0  0  0  0  0  0  0  0  0  0
   36.9273   25.2242   37.0343 H   0  0  0  0  0  0  0  0  0  0  0  0
   40.6739   22.1202   37.7539 H   0  0  0  0  0  0  0  0  0  0  0  0
  1 11  1  0
  1  2  1  0
  1  4  1  0
  3  1  1  0
  5 10  1  0
  5  4  1  0
  6  5  2  0
  7  6  1  0
  7  8  2  0
  8  9  1  0
  9 10  2  0
 11 14  1  0
 12 17  2  0
 13 12  1  0
 14 15  1  0
 14 13  2  0
 15 16  2  0
 16 17  1  0
  2 18  1  0
  2 19  1  0
  2 20  1  0
  3 21  1  0
  3 22  1  0
  3 23  1  0
  4 24  1  0
  4 25  1  0
  6 26  1  0
  7 27  1  0
  9 28  1  0
 12 29  1  0
 13 30  1  0
 16 31  1  0
M  ISO  8  18   8  19   8  20   8  21   8  22   8  23   8  24   8  25   8
M  ISO  6  26  14  27  14  28  14  29  14  30  14  31  14
M  END
>  <minimizedAffinity>  (1) 
-4.34683609

>  <minimizedRMSD>  (1) 
1.00508356

$$$$
