
     RDKit          3D

 24 24  0  0  0  0  0  0  0  0999 V2000
   39.3890   26.4400   34.4380 C   0  0  0  0  0  0  0  0  0  0  0  0
   38.7940   27.4620   35.3720 C   0  0  0  0  0  0  0  0  0  0  0  0
   39.3200   27.0010   33.0280 C   0  0  0  0  0  0  0  0  0  0  0  0
   40.8800   26.3230   34.7480 C   0  0  0  0  0  0  0  0  0  0  0  0
   41.6200   27.3440   34.2040 O   0  0  0  0  0  0  0  0  0  0  0  0
   38.6850   24.8120   34.5870 S   0  0  0  0  0  0  0  0  0  0  0  0
   37.9050   23.8470   38.4470 C   0  0  0  0  0  0  0  0  0  0  0  0
   37.7940   24.4120   37.1770 C   0  0  0  0  0  0  0  0  0  0  0  0
   38.7740   24.1220   36.2240 C   0  0  0  0  0  0  0  0  0  0  0  0
   39.8010   23.2890   36.5970 N   0  0  0  0  0  0  0  0  0  0  0  0
   39.8650   22.7700   37.8310 C   0  0  0  0  0  0  0  0  0  0  0  0
   38.9360   23.0350   38.7590 N   0  0  0  0  0  0  0  0  0  0  0  0
   38.9726   27.1552   36.4131 H   0  0  0  0  0  0  0  0  0  0  0  0
   39.2637   28.4403   35.1923 H   0  0  0  0  0  0  0  0  0  0  0  0
   37.7113   27.5365   35.1923 H   0  0  0  0  0  0  0  0  0  0  0  0
   39.1858   28.0918   33.0736 H   0  0  0  0  0  0  0  0  0  0  0  0
   40.2535   26.7683   32.4947 H   0  0  0  0  0  0  0  0  0  0  0  0
   38.4707   26.5491   32.4947 H   0  0  0  0  0  0  0  0  0  0  0  0
   41.0137   26.3355   35.8398 H   0  0  0  0  0  0  0  0  0  0  0  0
   41.2372   25.3826   34.3030 H   0  0  0  0  0  0  0  0  0  0  0  0
   42.0148   27.8887   34.9303 H   0  0  0  0  0  0  0  0  0  0  0  0
   37.1400   24.0669   39.2062 H   0  0  0  0  0  0  0  0  0  0  0  0
   36.9507   25.0737   36.9299 H   0  0  0  0  0  0  0  0  0  0  0  0
   40.7043   22.1075   38.0891 H   0  0  0  0  0  0  0  0  0  0  0  0
  1  6  1  0
  1  4  1  0
  1  2  1  0
  3  1  1  0
  5  4  1  0
  6  9  1  0
  7 12  2  0
  8  7  1  0
  9 10  1  0
  9  8  2  0
 10 11  2  0
 11 12  1  0
  2 13  1  0
  2 14  1  0
  2 15  1  0
  3 16  1  0
  3 17  1  0
  3 18  1  0
  4 19  1  0
  4 20  1  0
  5 21  1  0
  7 22  1  0
  8 23  1  0
 11 24  1  0
M  ISO  8  13   8  14   8  15   8  16   8  17   8  18   8  19   8  20   8
M  ISO  4  21   3  22  14  23  14  24  14
M  END
>  <minimizedAffinity>  (1) 
-3.53353095

>  <minimizedRMSD>  (1) 
0.65900743

$$$$
