
     RDKit          3D

 25 25  0  0  0  0  0  0  0  0999 V2000
   38.7790   26.6360   34.4500 C   0  0  0  0  0  0  0  0  0  0  0  0
   38.0120   27.5550   35.3500 C   0  0  0  0  0  0  0  0  0  0  0  0
   38.6770   27.1630   33.0290 C   0  0  0  0  0  0  0  0  0  0  0  0
   40.2680   26.7500   34.8140 C   0  0  0  0  0  0  0  0  0  0  0  0
   41.0420   27.2710   33.7020 N   0  0  0  0  0  0  0  0  0  0  0  0
   38.3670   24.9080   34.5810 S   0  0  0  0  0  0  0  0  0  0  0  0
   38.0960   23.8700   38.5050 C   0  0  0  0  0  0  0  0  0  0  0  0
   37.8240   24.4580   37.2530 C   0  0  0  0  0  0  0  0  0  0  0  0
   38.6630   24.1920   36.1820 C   0  0  0  0  0  0  0  0  0  0  0  0
   39.7250   23.3630   36.3990 N   0  0  0  0  0  0  0  0  0  0  0  0
   39.9580   22.8170   37.6020 C   0  0  0  0  0  0  0  0  0  0  0  0
   39.1560   23.0610   38.6560 N   0  0  0  0  0  0  0  0  0  0  0  0
   38.2236   27.3015   36.3993 H   0  0  0  0  0  0  0  0  0  0  0  0
   38.3141   28.5947   35.1559 H   0  0  0  0  0  0  0  0  0  0  0  0
   36.9350   27.4438   35.1559 H   0  0  0  0  0  0  0  0  0  0  0  0
   38.4680   28.2427   33.0525 H   0  0  0  0  0  0  0  0  0  0  0  0
   39.6263   26.9846   32.5027 H   0  0  0  0  0  0  0  0  0  0  0  0
   37.8628   26.6433   32.5027 H   0  0  0  0  0  0  0  0  0  0  0  0
   40.3762   27.4265   35.6746 H   0  0  0  0  0  0  0  0  0  0  0  0
   40.6442   25.7460   35.0601 H   0  0  0  0  0  0  0  0  0  0  0  0
   41.8422   27.8096   34.0632 H   0  0  0  0  0  0  0  0  0  0  0  0
   41.3861   26.4889   33.1269 H   0  0  0  0  0  0  0  0  0  0  0  0
   37.4369   24.0751   39.3614 H   0  0  0  0  0  0  0  0  0  0  0  0
   36.9552   25.1209   37.1272 H   0  0  0  0  0  0  0  0  0  0  0  0
   40.8258   22.1534   37.7307 H   0  0  0  0  0  0  0  0  0  0  0  0
  1  6  1  0
  1  4  1  0
  1  2  1  0
  3  1  1  0
  5  4  1  0
  6  9  1  0
  7 12  2  0
  8  7  1  0
  9 10  1  0
  9  8  2  0
 10 11  2  0
 11 12  1  0
  2 13  1  0
  2 14  1  0
  2 15  1  0
  3 16  1  0
  3 17  1  0
  3 18  1  0
  4 19  1  0
  4 20  1  0
  5 21  1  0
  5 22  1  0
  7 23  1  0
  8 24  1  0
 11 25  1  0
M  ISO  8  13   8  14   8  15   8  16   8  17   8  18   8  19   8  20   8
M  ISO  5  21   5  22   5  23  14  24  14  25  14
M  END
>  <minimizedAffinity>  (1) 
-3.539258

>  <minimizedRMSD>  (1) 
0.434310943

$$$$
