
     RDKit          3D

 30 31  0  0  0  0  0  0  0  0999 V2000
   38.4920   26.6950   34.3340 C   0  0  0  0  0  0  0  0  0  0  0  0
   37.5650   27.5790   35.1610 C   0  0  0  0  0  0  0  0  0  0  0  0
   38.4090   27.2210   32.9400 C   0  0  0  0  0  0  0  0  0  0  0  0
   39.8860   26.9200   34.8450 C   0  0  0  0  0  0  0  0  0  0  0  0
   41.0100   26.4580   34.0240 C   0  0  0  0  0  0  0  0  0  0  0  0
   42.3660   26.9540   33.9720 C   0  0  0  0  0  0  0  0  0  0  0  0
   42.1230   25.7160   34.7830 C   0  0  0  0  0  0  0  0  0  0  0  0
   38.1020   24.9590   34.5050 S   0  0  0  0  0  0  0  0  0  0  0  0
   38.1480   23.9510   38.4290 C   0  0  0  0  0  0  0  0  0  0  0  0
   37.7950   24.5350   37.1930 C   0  0  0  0  0  0  0  0  0  0  0  0
   38.5260   24.2400   36.0630 C   0  0  0  0  0  0  0  0  0  0  0  0
   39.5750   23.3840   36.1940 N   0  0  0  0  0  0  0  0  0  0  0  0
   39.9010   22.8310   37.3880 C   0  0  0  0  0  0  0  0  0  0  0  0
   39.1990   23.1090   38.4890 N   0  0  0  0  0  0  0  0  0  0  0  0
   37.7492   27.4034   36.2312 H   0  0  0  0  0  0  0  0  0  0  0  0
   37.7584   28.6357   34.9242 H   0  0  0  0  0  0  0  0  0  0  0  0
   36.5187   27.3357   34.9242 H   0  0  0  0  0  0  0  0  0  0  0  0
   38.2376   28.3072   32.9676 H   0  0  0  0  0  0  0  0  0  0  0  0
   39.3513   27.0118   32.4124 H   0  0  0  0  0  0  0  0  0  0  0  0
   37.5769   26.7318   32.4124 H   0  0  0  0  0  0  0  0  0  0  0  0
   40.0100   28.0037   34.9868 H   0  0  0  0  0  0  0  0  0  0  0  0
   39.9441   26.3056   35.7555 H   0  0  0  0  0  0  0  0  0  0  0  0
   40.2891   26.3165   33.2053 H   0  0  0  0  0  0  0  0  0  0  0  0
   42.9330   26.8832   33.0321 H   0  0  0  0  0  0  0  0  0  0  0  0
   42.8281   27.9278   34.1914 H   0  0  0  0  0  0  0  0  0  0  0  0
   42.1685   25.7499   35.8815 H   0  0  0  0  0  0  0  0  0  0  0  0
   42.5214   24.6910   34.8102 H   0  0  0  0  0  0  0  0  0  0  0  0
   37.5699   24.1813   39.3360 H   0  0  0  0  0  0  0  0  0  0  0  0
   36.9391   25.2233   37.1324 H   0  0  0  0  0  0  0  0  0  0  0  0
   40.7569   22.1428   37.4506 H   0  0  0  0  0  0  0  0  0  0  0  0
  1  8  1  0
  1  4  1  0
  1  2  1  0
  3  1  1  0
  5  7  1  0
  5  4  1  0
  6  5  1  0
  6  7  1  0
  8 11  1  0
  9 14  2  0
 10  9  1  0
 11 12  1  0
 11 10  2  0
 12 13  2  0
 13 14  1  0
  2 15  1  0
  2 16  1  0
  2 17  1  0
  3 18  1  0
  3 19  1  0
  3 20  1  0
  4 21  1  0
  4 22  1  0
  5 23  1  0
  6 24  1  0
  6 25  1  0
  7 26  1  0
  7 27  1  0
  9 28  1  0
 10 29  1  0
 13 30  1  0
M  ISO  8  15   8  16   8  17   8  18   8  19   8  20   8  21   8  22   8
M  ISO  8  23  13  24  13  25  13  26  13  27  13  28  14  29  14  30  14
M  END
>  <minimizedAffinity>  (1) 
-3.94135761

>  <minimizedRMSD>  (1) 
0.313893259

$$$$
