
     RDKit          3D

 46 48  0  0  0  0  0  0  0  0999 V2000
   38.5410   26.7650   34.4760 C   0  0  0  0  0  0  0  0  0  0  0  0
   37.7780   27.7280   35.3920 C   0  0  0  0  0  0  0  0  0  0  0  0
   38.4260   27.3240   33.0940 C   0  0  0  0  0  0  0  0  0  0  0  0
   39.9750   26.8570   34.9100 C   0  0  0  0  0  0  0  0  0  0  0  0
   41.0260   26.4030   34.0040 C   0  0  0  0  0  0  0  0  0  0  0  0
   41.9100   25.4200   34.7610 C   0  0  0  0  0  0  0  0  0  0  0  0
   43.3470   25.8210   34.7870 C   0  0  0  0  0  0  0  0  0  0  0  0
   43.9330   25.9880   33.4140 C   0  0  0  0  0  0  0  0  0  0  0  0
   42.9000   26.5870   32.5200 C   0  0  0  0  0  0  0  0  0  0  0  0
   41.9560   27.3980   33.4130 C   0  0  0  0  0  0  0  0  0  0  0  0
   37.9840   25.0950   34.6780 S   0  0  0  0  0  0  0  0  0  0  0  0
   38.4540   23.7170   38.4560 C   0  0  0  0  0  0  0  0  0  0  0  0
   37.9750   24.4080   37.3160 C   0  0  0  0  0  0  0  0  0  0  0  0
   38.5860   24.2350   36.0880 C   0  0  0  0  0  0  0  0  0  0  0  0
   39.6460   23.3890   36.0280 N   0  0  0  0  0  0  0  0  0  0  0  0
   40.0930   22.7380   37.1240 C   0  0  0  0  0  0  0  0  0  0  0  0
   39.5190   22.8890   38.3210 N   0  0  0  0  0  0  0  0  0  0  0  0
   41.2230   21.8240   37.1130 C   0  0  0  0  0  0  0  0  0  0  0  0
   42.0110   21.8780   35.9670 C   0  0  0  0  0  0  0  0  0  0  0  0
   43.0390   20.9480   36.1170 C   0  0  0  0  0  0  0  0  0  0  0  0
   42.7980   20.3820   37.3710 C   0  0  0  0  0  0  0  0  0  0  0  0
   41.7290   20.9180   37.9220 O   0  0  0  0  0  0  0  0  0  0  0  0
   37.9804   27.4725   36.4426 H   0  0  0  0  0  0  0  0  0  0  0  0
   38.1069   28.7591   35.1954 H   0  0  0  0  0  0  0  0  0  0  0  0
   36.6990   27.6436   35.1954 H   0  0  0  0  0  0  0  0  0  0  0  0
   38.2046   28.4000   33.1509 H   0  0  0  0  0  0  0  0  0  0  0  0
   39.3741   27.1726   32.5572 H   0  0  0  0  0  0  0  0  0  0  0  0
   37.6147   26.8106   32.5572 H   0  0  0  0  0  0  0  0  0  0  0  0
   40.1764   27.9157   35.1302 H   0  0  0  0  0  0  0  0  0  0  0  0
   40.0373   26.1546   35.7543 H   0  0  0  0  0  0  0  0  0  0  0  0
   40.4510   26.0063   33.1543 H   0  0  0  0  0  0  0  0  0  0  0  0
   41.5477   25.3505   35.7973 H   0  0  0  0  0  0  0  0  0  0  0  0
   41.8494   24.4551   34.2364 H   0  0  0  0  0  0  0  0  0  0  0  0
   43.4349   26.7767   35.3246 H   0  0  0  0  0  0  0  0  0  0  0  0
   43.9049   25.0162   35.2880 H   0  0  0  0  0  0  0  0  0  0  0  0
   44.8086   26.6520   33.4640 H   0  0  0  0  0  0  0  0  0  0  0  0
   44.2466   25.0100   33.0200 H   0  0  0  0  0  0  0  0  0  0  0  0
   42.3419   25.7933   32.0017 H   0  0  0  0  0  0  0  0  0  0  0  0
   43.3642   27.2261   31.7544 H   0  0  0  0  0  0  0  0  0  0  0  0
   42.5213   27.9141   34.2030 H   0  0  0  0  0  0  0  0  0  0  0  0
   41.4208   28.1742   32.8464 H   0  0  0  0  0  0  0  0  0  0  0  0
   37.9698   23.8500   39.4347 H   0  0  0  0  0  0  0  0  0  0  0  0
   37.1131   25.0852   37.4082 H   0  0  0  0  0  0  0  0  0  0  0  0
   41.8516   22.5355   35.0997 H   0  0  0  0  0  0  0  0  0  0  0  0
   43.8506   20.7145   35.4121 H   0  0  0  0  0  0  0  0  0  0  0  0
   43.4152   19.5978   37.8337 H   0  0  0  0  0  0  0  0  0  0  0  0
  1 11  1  0
  1  4  1  0
  1  2  1  0
  3  1  1  0
  5  6  1  0
  5  4  1  0
  6  7  1  0
  8  7  1  0
  9 10  1  0
  9  8  1  0
 10  5  1  0
 11 14  1  0
 13 12  2  0
 14 13  1  0
 15 14  2  0
 15 16  1  0
 16 17  2  0
 17 12  1  0
 18 16  1  0
 18 22  1  0
 19 20  1  0
 19 18  2  0
 20 21  2  0
 21 22  1  0
  2 23  1  0
  2 24  1  0
  2 25  1  0
  3 26  1  0
  3 27  1  0
  3 28  1  0
  4 29  1  0
  4 30  1  0
  5 31  1  0
  6 32  1  0
  6 33  1  0
  7 34  1  0
  7 35  1  0
  8 36  1  0
  8 37  1  0
  9 38  1  0
  9 39  1  0
 10 40  1  0
 10 41  1  0
 12 42  1  0
 13 43  1  0
 19 44  1  0
 20 45  1  0
 21 46  1  0
M  ISO  8  23   8  24   8  25   8  26   8  27   8  28   8  29   8  30   8
M  ISO  8  31  13  32  13  33  13  34  13  35  13  36  13  37  13  38  13
M  ISO  8  39  13  40  13  41  13  42  14  43  14  44  14  45  14  46  14
M  END
>  <minimizedAffinity>  (1) 
-5.07322741

>  <minimizedRMSD>  (1) 
0.855039597

$$$$
