
     RDKit          3D

 52 54  0  0  0  0  0  0  0  0999 V2000
   38.6340   26.6180   34.5140 C   0  0  0  0  0  0  0  0  0  0  0  0
   37.9050   27.3830   35.6070 C   0  0  0  0  0  0  0  0  0  0  0  0
   38.2530   27.2880   33.2330 C   0  0  0  0  0  0  0  0  0  0  0  0
   40.0940   26.8360   34.7550 C   0  0  0  0  0  0  0  0  0  0  0  0
   41.0550   26.5580   33.6720 C   0  0  0  0  0  0  0  0  0  0  0  0
   42.2270   25.7930   34.2730 C   0  0  0  0  0  0  0  0  0  0  0  0
   43.5390   26.4850   34.0740 C   0  0  0  0  0  0  0  0  0  0  0  0
   43.8670   26.8030   32.6560 C   0  0  0  0  0  0  0  0  0  0  0  0
   42.5940   27.0660   31.9100 C   0  0  0  0  0  0  0  0  0  0  0  0
   41.6500   27.7060   32.9380 C   0  0  0  0  0  0  0  0  0  0  0  0
   38.3050   24.8630   34.5750 S   0  0  0  0  0  0  0  0  0  0  0  0
   39.3250   23.1380   38.1060 C   0  0  0  0  0  0  0  0  0  0  0  0
   38.6340   23.8440   37.1150 C   0  0  0  0  0  0  0  0  0  0  0  0
   39.1740   23.9700   35.8360 C   0  0  0  0  0  0  0  0  0  0  0  0
   40.3780   23.3840   35.6110 N   0  0  0  0  0  0  0  0  0  0  0  0
   41.0350   22.7070   36.5660 C   0  0  0  0  0  0  0  0  0  0  0  0
   40.5150   22.5860   37.7990 N   0  0  0  0  0  0  0  0  0  0  0  0
   42.3010   22.1120   36.2640 N   0  0  0  0  0  0  0  0  0  0  0  0
   42.3500   20.8550   35.7930 C   0  0  0  0  0  0  0  0  0  0  0  0
   43.5510   20.2250   35.4830 C   0  0  0  0  0  0  0  0  0  0  0  0
   43.6260   18.8450   34.9660 C   0  0  0  0  0  0  0  0  0  0  0  0
   44.7270   20.9220   35.6650 C   0  0  0  0  0  0  0  0  0  0  0  0
   45.8380   20.4250   35.4100 O   0  0  0  0  0  0  0  0  0  0  0  0
   44.6040   22.1900   36.1430 N   0  0  0  0  0  0  0  0  0  0  0  0
   43.4320   22.7990   36.4460 C   0  0  0  0  0  0  0  0  0  0  0  0
   43.4380   23.9610   36.8760 O   0  0  0  0  0  0  0  0  0  0  0  0
   38.2435   27.0277   36.5915 H   0  0  0  0  0  0  0  0  0  0  0  0
   38.1222   28.4570   35.5102 H   0  0  0  0  0  0  0  0  0  0  0  0
   36.8218   27.2178   35.5102 H   0  0  0  0  0  0  0  0  0  0  0  0
   37.7203   28.2248   33.4535 H   0  0  0  0  0  0  0  0  0  0  0  0
   39.1599   27.5101   32.6515 H   0  0  0  0  0  0  0  0  0  0  0  0
   37.5985   26.6221   32.6515 H   0  0  0  0  0  0  0  0  0  0  0  0
   40.2190   27.8935   35.0309 H   0  0  0  0  0  0  0  0  0  0  0  0
   40.3449   26.0894   35.5229 H   0  0  0  0  0  0  0  0  0  0  0  0
   40.4485   26.0211   32.9277 H   0  0  0  0  0  0  0  0  0  0  0  0
   42.0526   25.6756   35.3527 H   0  0  0  0  0  0  0  0  0  0  0  0
   42.2851   24.8221   33.7592 H   0  0  0  0  0  0  0  0  0  0  0  0
   43.5184   27.4277   34.6405 H   0  0  0  0  0  0  0  0  0  0  0  0
   44.3142   25.7869   34.4229 H   0  0  0  0  0  0  0  0  0  0  0  0
   44.5090   27.6954   32.6168 H   0  0  0  0  0  0  0  0  0  0  0  0
   44.3991   25.9563   32.1978 H   0  0  0  0  0  0  0  0  0  0  0  0
   42.7738   27.7539   31.0707 H   0  0  0  0  0  0  0  0  0  0  0  0
   42.1713   26.1456   31.4807 H   0  0  0  0  0  0  0  0  0  0  0  0
   42.2096   28.3575   33.6253 H   0  0  0  0  0  0  0  0  0  0  0  0
   40.8846   28.3373   32.4630 H   0  0  0  0  0  0  0  0  0  0  0  0
   38.9043   23.0356   39.1172 H   0  0  0  0  0  0  0  0  0  0  0  0
   37.6607   24.3014   37.3461 H   0  0  0  0  0  0  0  0  0  0  0  0
   41.4085   20.3051   35.6475 H   0  0  0  0  0  0  0  0  0  0  0  0
   43.6644   18.1393   35.8089 H   0  0  0  0  0  0  0  0  0  0  0  0
   42.7380   18.6348   34.3519 H   0  0  0  0  0  0  0  0  0  0  0  0
   44.5316   18.7322   34.3519 H   0  0  0  0  0  0  0  0  0  0  0  0
   45.4698   22.7294   36.2858 H   0  0  0  0  0  0  0  0  0  0  0  0
  1 11  1  0
  1  4  1  0
  1  2  1  0
  3  1  1  0
  5  6  1  0
  5  4  1  0
  7  6  1  0
  8  7  1  0
  9  8  1  0
  9 10  1  0
 10  5  1  0
 11 14  1  0
 13 12  2  0
 14 13  1  0
 15 14  2  0
 15 16  1  0
 16 17  2  0
 17 12  1  0
 18 25  1  0
 18 16  1  0
 19 18  1  0
 20 22  1  0
 20 19  2  0
 21 20  1  0
 22 24  1  0
 23 22  2  0
 24 25  1  0
 25 26  2  0
  2 27  1  0
  2 28  1  0
  2 29  1  0
  3 30  1  0
  3 31  1  0
  3 32  1  0
  4 33  1  0
  4 34  1  0
  5 35  1  0
  6 36  1  0
  6 37  1  0
  7 38  1  0
  7 39  1  0
  8 40  1  0
  8 41  1  0
  9 42  1  0
  9 43  1  0
 10 44  1  0
 10 45  1  0
 12 46  1  0
 13 47  1  0
 19 48  1  0
 21 49  1  0
 21 50  1  0
 21 51  1  0
 24 52  1  0
M  ISO  8  27   8  28   8  29   8  30   8  31   8  32   8  33   8  34   8
M  ISO  8  35  13  36  13  37  13  38  13  39  13  40  13  41  13  42  13
M  ISO  8  43  13  44  13  45  13  46  14  47  14  48  14  49   8  50   8
M  ISO  2  51   8  52   9
M  END
>  <minimizedAffinity>  (1) 
-5.07455683

>  <minimizedRMSD>  (1) 
1.94093823

$$$$
