
     RDKit          3D

 46 48  0  0  0  0  0  0  0  0999 V2000
   38.5260   26.7560   34.4950 C   0  0  0  0  0  0  0  0  0  0  0  0
   37.7660   27.7340   35.3940 C   0  0  0  0  0  0  0  0  0  0  0  0
   38.4290   27.3150   33.1130 C   0  0  0  0  0  0  0  0  0  0  0  0
   39.9530   26.8340   34.9350 C   0  0  0  0  0  0  0  0  0  0  0  0
   41.0180   26.3790   34.0280 C   0  0  0  0  0  0  0  0  0  0  0  0
   41.8950   25.3870   34.7790 C   0  0  0  0  0  0  0  0  0  0  0  0
   43.3320   25.7940   34.8240 C   0  0  0  0  0  0  0  0  0  0  0  0
   43.9540   26.0350   33.4930 C   0  0  0  0  0  0  0  0  0  0  0  0
   42.9040   26.5650   32.5540 C   0  0  0  0  0  0  0  0  0  0  0  0
   41.9460   27.3850   33.4550 C   0  0  0  0  0  0  0  0  0  0  0  0
   37.9620   25.0760   34.6860 S   0  0  0  0  0  0  0  0  0  0  0  0
   38.4680   23.7600   38.4890 C   0  0  0  0  0  0  0  0  0  0  0  0
   37.9860   24.4390   37.3620 C   0  0  0  0  0  0  0  0  0  0  0  0
   38.5600   24.2280   36.1080 C   0  0  0  0  0  0  0  0  0  0  0  0
   39.5930   23.3410   36.0440 N   0  0  0  0  0  0  0  0  0  0  0  0
   40.0470   22.6960   37.1300 C   0  0  0  0  0  0  0  0  0  0  0  0
   39.4980   22.8960   38.3410 N   0  0  0  0  0  0  0  0  0  0  0  0
   41.1550   21.7590   37.0030 C   0  0  0  0  0  0  0  0  0  0  0  0
   41.9590   21.5660   35.9020 C   0  0  0  0  0  0  0  0  0  0  0  0
   42.8720   20.6160   36.1670 N   0  0  0  0  0  0  0  0  0  0  0  0
   42.6590   20.2020   37.4250 C   0  0  0  0  0  0  0  0  0  0  0  0
   41.6130   20.9000   37.9310 N   0  0  0  0  0  0  0  0  0  0  0  0
   37.9577   27.4873   36.4487 H   0  0  0  0  0  0  0  0  0  0  0  0
   38.1062   28.7599   35.1897 H   0  0  0  0  0  0  0  0  0  0  0  0
   36.6878   27.6577   35.1897 H   0  0  0  0  0  0  0  0  0  0  0  0
   38.2412   28.3975   33.1677 H   0  0  0  0  0  0  0  0  0  0  0  0
   39.3721   27.1331   32.5769 H   0  0  0  0  0  0  0  0  0  0  0  0
   37.6023   26.8260   32.5769 H   0  0  0  0  0  0  0  0  0  0  0  0
   40.1591   27.8896   35.1659 H   0  0  0  0  0  0  0  0  0  0  0  0
   40.0042   26.1207   35.7708 H   0  0  0  0  0  0  0  0  0  0  0  0
   40.4530   25.9819   33.1718 H   0  0  0  0  0  0  0  0  0  0  0  0
   41.5227   25.3012   35.8105 H   0  0  0  0  0  0  0  0  0  0  0  0
   41.8416   24.4287   34.2416 H   0  0  0  0  0  0  0  0  0  0  0  0
   43.4068   26.7220   35.4099 H   0  0  0  0  0  0  0  0  0  0  0  0
   43.8787   24.9520   35.2737 H   0  0  0  0  0  0  0  0  0  0  0  0
   44.7659   26.7705   33.5924 H   0  0  0  0  0  0  0  0  0  0  0  0
   44.3670   25.0949   33.0985 H   0  0  0  0  0  0  0  0  0  0  0  0
   42.3659   25.7380   32.0677 H   0  0  0  0  0  0  0  0  0  0  0  0
   43.3375   27.1733   31.7465 H   0  0  0  0  0  0  0  0  0  0  0  0
   42.5053   27.8960   34.2525 H   0  0  0  0  0  0  0  0  0  0  0  0
   41.4163   28.1698   32.8950 H   0  0  0  0  0  0  0  0  0  0  0  0
   38.0161   23.9269   39.4779 H   0  0  0  0  0  0  0  0  0  0  0  0
   37.1483   25.1441   37.4668 H   0  0  0  0  0  0  0  0  0  0  0  0
   41.8678   22.1078   34.9490 H   0  0  0  0  0  0  0  0  0  0  0  0
   43.2344   19.4287   37.9550 H   0  0  0  0  0  0  0  0  0  0  0  0
   41.2282   20.7895   38.8800 H   0  0  0  0  0  0  0  0  0  0  0  0
  1 11  1  0
  1  4  1  0
  1  2  1  0
  3  1  1  0
  5  6  1  0
  5  4  1  0
  6  7  1  0
  8  7  1  0
  9 10  1  0
  9  8  1  0
 10  5  1  0
 11 14  1  0
 13 12  2  0
 14 13  1  0
 15 14  2  0
 15 16  1  0
 16 17  2  0
 17 12  1  0
 18 16  1  0
 18 22  1  0
 19 20  1  0
 19 18  2  0
 20 21  2  0
 21 22  1  0
  2 23  1  0
  2 24  1  0
  2 25  1  0
  3 26  1  0
  3 27  1  0
  3 28  1  0
  4 29  1  0
  4 30  1  0
  5 31  1  0
  6 32  1  0
  6 33  1  0
  7 34  1  0
  7 35  1  0
  8 36  1  0
  8 37  1  0
  9 38  1  0
  9 39  1  0
 10 40  1  0
 10 41  1  0
 12 42  1  0
 13 43  1  0
 19 44  1  0
 21 45  1  0
 22 46  1  0
M  ISO  8  23   8  24   8  25   8  26   8  27   8  28   8  29   8  30   8
M  ISO  8  31  13  32  13  33  13  34  13  35  13  36  13  37  13  38  13
M  ISO  8  39  13  40  13  41  13  42  14  43  14  44  14  45  14  46   9
M  END
>  <minimizedAffinity>  (1) 
-5.27671719

>  <minimizedRMSD>  (1) 
0.761532426

$$$$
