
     RDKit          3D

 49 51  0  0  0  0  0  0  0  0999 V2000
   38.4560   26.7750   34.4400 C   0  0  0  0  0  0  0  0  0  0  0  0
   37.6530   27.6750   35.3620 C   0  0  0  0  0  0  0  0  0  0  0  0
   38.2990   27.3280   33.0550 C   0  0  0  0  0  0  0  0  0  0  0  0
   39.8920   26.9090   34.8600 C   0  0  0  0  0  0  0  0  0  0  0  0
   40.9470   26.4720   33.9400 C   0  0  0  0  0  0  0  0  0  0  0  0
   41.9680   25.6650   34.7340 C   0  0  0  0  0  0  0  0  0  0  0  0
   43.3560   26.2110   34.6590 C   0  0  0  0  0  0  0  0  0  0  0  0
   43.8750   26.3700   33.2690 C   0  0  0  0  0  0  0  0  0  0  0  0
   42.7390   26.7130   32.3610 C   0  0  0  0  0  0  0  0  0  0  0  0
   41.7350   27.5150   33.2200 C   0  0  0  0  0  0  0  0  0  0  0  0
   37.9750   25.0600   34.6060 S   0  0  0  0  0  0  0  0  0  0  0  0
   38.5480   23.7950   38.4250 C   0  0  0  0  0  0  0  0  0  0  0  0
   38.0390   24.4690   37.3010 C   0  0  0  0  0  0  0  0  0  0  0  0
   38.5850   24.2310   36.0470 C   0  0  0  0  0  0  0  0  0  0  0  0
   39.6100   23.3380   35.9520 N   0  0  0  0  0  0  0  0  0  0  0  0
   40.0910   22.6940   37.0430 C   0  0  0  0  0  0  0  0  0  0  0  0
   39.5690   22.9150   38.2720 N   0  0  0  0  0  0  0  0  0  0  0  0
   41.1680   21.7820   36.8120 N   0  0  0  0  0  0  0  0  0  0  0  0
   41.8030   20.9920   37.6750 C   0  0  0  0  0  0  0  0  0  0  0  0
   42.8220   20.1880   37.2190 C   0  0  0  0  0  0  0  0  0  0  0  0
   43.2030   20.1790   35.8920 C   0  0  0  0  0  0  0  0  0  0  0  0
   44.1450   19.4290   35.4950 O   0  0  0  0  0  0  0  0  0  0  0  0
   42.5340   20.9960   35.0450 N   0  0  0  0  0  0  0  0  0  0  0  0
   41.5320   21.7820   35.5110 C   0  0  0  0  0  0  0  0  0  0  0  0
   41.0170   22.4800   34.5810 O   0  0  0  0  0  0  0  0  0  0  0  0
   37.8784   27.4224   36.4086 H   0  0  0  0  0  0  0  0  0  0  0  0
   37.9196   28.7253   35.1727 H   0  0  0  0  0  0  0  0  0  0  0  0
   36.5792   27.5294   35.1727 H   0  0  0  0  0  0  0  0  0  0  0  0
   37.9990   28.3847   33.1139 H   0  0  0  0  0  0  0  0  0  0  0  0
   39.2554   27.2478   32.5176 H   0  0  0  0  0  0  0  0  0  0  0  0
   37.5274   26.7572   32.5176 H   0  0  0  0  0  0  0  0  0  0  0  0
   40.0682   27.9744   35.0693 H   0  0  0  0  0  0  0  0  0  0  0  0
   39.9827   26.2184   35.7114 H   0  0  0  0  0  0  0  0  0  0  0  0
   40.3895   25.9270   33.1640 H   0  0  0  0  0  0  0  0  0  0  0  0
   41.6563   25.6529   35.7889 H   0  0  0  0  0  0  0  0  0  0  0  0
   41.9949   24.6580   34.2921 H   0  0  0  0  0  0  0  0  0  0  0  0
   43.3658   27.1972   35.1461 H   0  0  0  0  0  0  0  0  0  0  0  0
   44.0104   25.4825   35.1600 H   0  0  0  0  0  0  0  0  0  0  0  0
   44.6228   27.1764   33.2447 H   0  0  0  0  0  0  0  0  0  0  0  0
   44.3444   25.4317   32.9383 H   0  0  0  0  0  0  0  0  0  0  0  0
   42.2668   25.7969   31.9765 H   0  0  0  0  0  0  0  0  0  0  0  0
   43.0794   27.2939   31.4911 H   0  0  0  0  0  0  0  0  0  0  0  0
   42.2643   28.1643   33.9329 H   0  0  0  0  0  0  0  0  0  0  0  0
   41.0992   28.1769   32.6136 H   0  0  0  0  0  0  0  0  0  0  0  0
   38.1212   23.9800   39.4218 H   0  0  0  0  0  0  0  0  0  0  0  0
   37.2102   25.1832   37.4149 H   0  0  0  0  0  0  0  0  0  0  0  0
   41.5171   20.9822   38.7372 H   0  0  0  0  0  0  0  0  0  0  0  0
   43.3475   19.5346   37.9310 H   0  0  0  0  0  0  0  0  0  0  0  0
   42.7860   21.0206   34.0466 H   0  0  0  0  0  0  0  0  0  0  0  0
  1 11  1  0
  1  4  1  0
  1  2  1  0
  3  1  1  0
  5  6  1  0
  5  4  1  0
  7  6  1  0
  8  7  1  0
  9 10  1  0
  9  8  1  0
 10  5  1  0
 11 14  1  0
 13 12  2  0
 14 13  1  0
 15 14  2  0
 15 16  1  0
 16 17  2  0
 17 12  1  0
 18 16  1  0
 18 19  1  0
 20 19  2  0
 21 20  1  0
 22 21  2  0
 23 24  1  0
 23 21  1  0
 24 18  1  0
 25 24  2  0
  2 26  1  0
  2 27  1  0
  2 28  1  0
  3 29  1  0
  3 30  1  0
  3 31  1  0
  4 32  1  0
  4 33  1  0
  5 34  1  0
  6 35  1  0
  6 36  1  0
  7 37  1  0
  7 38  1  0
  8 39  1  0
  8 40  1  0
  9 41  1  0
  9 42  1  0
 10 43  1  0
 10 44  1  0
 12 45  1  0
 13 46  1  0
 19 47  1  0
 20 48  1  0
 23 49  1  0
M  ISO  8  26   8  27   8  28   8  29   8  30   8  31   8  32   8  33   8
M  ISO  8  34  13  35  13  36  13  37  13  38  13  39  13  40  13  41  13
M  ISO  8  42  13  43  13  44  13  45  14  46  14  47  14  48  14  49   9
M  END
>  <minimizedAffinity>  (1) 
-5.38012743

>  <minimizedRMSD>  (1) 
0.821247637

$$$$
