
     RDKit          3D

 47 49  0  0  0  0  0  0  0  0999 V2000
   38.5200   26.7530   34.5210 C   0  0  0  0  0  0  0  0  0  0  0  0
   37.7900   27.7160   35.4560 C   0  0  0  0  0  0  0  0  0  0  0  0
   38.3800   27.3290   33.1430 C   0  0  0  0  0  0  0  0  0  0  0  0
   39.9670   26.8130   34.9220 C   0  0  0  0  0  0  0  0  0  0  0  0
   40.9800   26.4110   33.9390 C   0  0  0  0  0  0  0  0  0  0  0  0
   41.9690   25.4870   34.6360 C   0  0  0  0  0  0  0  0  0  0  0  0
   43.3830   25.9480   34.5720 C   0  0  0  0  0  0  0  0  0  0  0  0
   43.8920   26.2290   33.1930 C   0  0  0  0  0  0  0  0  0  0  0  0
   42.7610   26.7400   32.3590 C   0  0  0  0  0  0  0  0  0  0  0  0
   41.8180   27.4810   33.3250 C   0  0  0  0  0  0  0  0  0  0  0  0
   37.9300   25.0880   34.7020 S   0  0  0  0  0  0  0  0  0  0  0  0
   38.7400   23.5360   38.3560 C   0  0  0  0  0  0  0  0  0  0  0  0
   38.1610   24.2820   37.3120 C   0  0  0  0  0  0  0  0  0  0  0  0
   38.6380   24.1650   36.0230 C   0  0  0  0  0  0  0  0  0  0  0  0
   39.6690   23.3100   35.8340 N   0  0  0  0  0  0  0  0  0  0  0  0
   40.2310   22.5940   36.8200 C   0  0  0  0  0  0  0  0  0  0  0  0
   39.7800   22.6960   38.0740 N   0  0  0  0  0  0  0  0  0  0  0  0
   41.3480   21.6880   36.5260 C   0  0  0  0  0  0  0  0  0  0  0  0
   41.9250   20.9600   37.5610 C   0  0  0  0  0  0  0  0  0  0  0  0
   42.9840   20.1170   37.2140 C   0  0  0  0  0  0  0  0  0  0  0  0
   43.4230   20.0120   35.9500 N   0  0  0  0  0  0  0  0  0  0  0  0
   42.8510   20.7220   34.9790 C   0  0  0  0  0  0  0  0  0  0  0  0
   41.8320   21.5370   35.2960 N   0  0  0  0  0  0  0  0  0  0  0  0
   37.9982   27.4413   36.5006 H   0  0  0  0  0  0  0  0  0  0  0  0
   38.1389   28.7425   35.2703 H   0  0  0  0  0  0  0  0  0  0  0  0
   36.7074   27.6574   35.2703 H   0  0  0  0  0  0  0  0  0  0  0  0
   38.1208   28.3955   33.2160 H   0  0  0  0  0  0  0  0  0  0  0  0
   39.3310   27.2190   32.6013 H   0  0  0  0  0  0  0  0  0  0  0  0
   37.5855   26.7948   32.6013 H   0  0  0  0  0  0  0  0  0  0  0  0
   40.1833   27.8537   35.2052 H   0  0  0  0  0  0  0  0  0  0  0  0
   40.0569   26.0660   35.7245 H   0  0  0  0  0  0  0  0  0  0  0  0
   40.3860   25.9730   33.1233 H   0  0  0  0  0  0  0  0  0  0  0  0
   41.6797   25.4070   35.6942 H   0  0  0  0  0  0  0  0  0  0  0  0
   41.9265   24.5225   34.1088 H   0  0  0  0  0  0  0  0  0  0  0  0
   43.4683   26.8720   35.1627 H   0  0  0  0  0  0  0  0  0  0  0  0
   43.9949   25.1225   34.9646 H   0  0  0  0  0  0  0  0  0  0  0  0
   44.6888   26.9859   33.2397 H   0  0  0  0  0  0  0  0  0  0  0  0
   44.2988   25.3085   32.7490 H   0  0  0  0  0  0  0  0  0  0  0  0
   43.1362   27.4292   31.5882 H   0  0  0  0  0  0  0  0  0  0  0  0
   42.2418   25.9203   31.8408 H   0  0  0  0  0  0  0  0  0  0  0  0
   42.3941   28.0122   34.0969 H   0  0  0  0  0  0  0  0  0  0  0  0
   41.2098   28.2392   32.8100 H   0  0  0  0  0  0  0  0  0  0  0  0
   38.3605   23.6281   39.3843 H   0  0  0  0  0  0  0  0  0  0  0  0
   37.3233   24.9622   37.5254 H   0  0  0  0  0  0  0  0  0  0  0  0
   41.5668   21.0434   38.5977 H   0  0  0  0  0  0  0  0  0  0  0  0
   43.4722   19.5220   37.9999 H   0  0  0  0  0  0  0  0  0  0  0  0
   43.2054   20.6425   33.9407 H   0  0  0  0  0  0  0  0  0  0  0  0
  1 11  1  0
  1  4  1  0
  1  2  1  0
  3  1  1  0
  5  6  1  0
  5  4  1  0
  7  6  1  0
  8  7  1  0
  9  8  1  0
  9 10  1  0
 10  5  1  0
 11 14  1  0
 13 12  2  0
 14 13  1  0
 15 14  2  0
 15 16  1  0
 16 17  2  0
 17 12  1  0
 18 16  1  0
 18 19  2  0
 20 19  1  0
 21 20  2  0
 22 23  2  0
 22 21  1  0
 23 18  1  0
  2 24  1  0
  2 25  1  0
  2 26  1  0
  3 27  1  0
  3 28  1  0
  3 29  1  0
  4 30  1  0
  4 31  1  0
  5 32  1  0
  6 33  1  0
  6 34  1  0
  7 35  1  0
  7 36  1  0
  8 37  1  0
  8 38  1  0
  9 39  1  0
  9 40  1  0
 10 41  1  0
 10 42  1  0
 12 43  1  0
 13 44  1  0
 19 45  1  0
 20 46  1  0
 22 47  1  0
M  ISO  8  24   8  25   8  26   8  27   8  28   8  29   8  30   8  31   8
M  ISO  8  32  13  33  13  34  13  35  13  36  13  37  13  38  13  39  13
M  ISO  8  40  13  41  13  42  13  43  14  44  14  45  14  46  14  47  14
M  END
>  <minimizedAffinity>  (1) 
-4.95247459

>  <minimizedRMSD>  (1) 
1.04397917

$$$$
