
     RDKit          3D

 44 46  0  0  0  0  0  0  0  0999 V2000
   38.5650   26.7310   34.5000 C   0  0  0  0  0  0  0  0  0  0  0  0
   37.8040   27.6930   35.4110 C   0  0  0  0  0  0  0  0  0  0  0  0
   38.4480   27.2870   33.1160 C   0  0  0  0  0  0  0  0  0  0  0  0
   39.9990   26.8220   34.9330 C   0  0  0  0  0  0  0  0  0  0  0  0
   41.0550   26.3760   34.0110 C   0  0  0  0  0  0  0  0  0  0  0  0
   41.9500   25.4000   34.7730 C   0  0  0  0  0  0  0  0  0  0  0  0
   43.3910   25.8130   34.7830 C   0  0  0  0  0  0  0  0  0  0  0  0
   43.9740   26.0150   33.4070 C   0  0  0  0  0  0  0  0  0  0  0  0
   42.9130   26.5960   32.5190 C   0  0  0  0  0  0  0  0  0  0  0  0
   41.9800   27.3950   33.4440 C   0  0  0  0  0  0  0  0  0  0  0  0
   38.0090   25.0380   34.6900 S   0  0  0  0  0  0  0  0  0  0  0  0
   38.4670   23.7940   38.5180 C   0  0  0  0  0  0  0  0  0  0  0  0
   37.9970   24.4630   37.3590 C   0  0  0  0  0  0  0  0  0  0  0  0
   38.5850   24.2140   36.1310 C   0  0  0  0  0  0  0  0  0  0  0  0
   39.6060   23.3210   36.1110 N   0  0  0  0  0  0  0  0  0  0  0  0
   40.0560   22.6860   37.2040 C   0  0  0  0  0  0  0  0  0  0  0  0
   39.4900   22.9200   38.4060 N   0  0  0  0  0  0  0  0  0  0  0  0
   41.1640   21.7550   37.0080 C   0  0  0  0  0  0  0  0  0  0  0  0
   41.7030   21.5290   35.7850 N   0  0  0  0  0  0  0  0  0  0  0  0
   42.6780   20.6570   35.8680 O   0  0  0  0  0  0  0  0  0  0  0  0
   42.8080   20.2870   37.1330 C   0  0  0  0  0  0  0  0  0  0  0  0
   41.8790   20.9570   37.8530 N   0  0  0  0  0  0  0  0  0  0  0  0
   38.0050   27.4389   36.4622 H   0  0  0  0  0  0  0  0  0  0  0  0
   38.1340   28.7236   35.2133 H   0  0  0  0  0  0  0  0  0  0  0  0
   36.7252   27.6091   35.2133 H   0  0  0  0  0  0  0  0  0  0  0  0
   38.2218   28.3621   33.1707 H   0  0  0  0  0  0  0  0  0  0  0  0
   39.3970   27.1388   32.5799 H   0  0  0  0  0  0  0  0  0  0  0  0
   37.6392   26.7689   32.5799 H   0  0  0  0  0  0  0  0  0  0  0  0
   40.1989   27.8787   35.1641 H   0  0  0  0  0  0  0  0  0  0  0  0
   40.0656   26.1127   35.7711 H   0  0  0  0  0  0  0  0  0  0  0  0
   40.4924   25.9749   33.1551 H   0  0  0  0  0  0  0  0  0  0  0  0
   41.5958   25.3380   35.8126 H   0  0  0  0  0  0  0  0  0  0  0  0
   41.8894   24.4287   34.2602 H   0  0  0  0  0  0  0  0  0  0  0  0
   43.4773   26.7583   35.3388 H   0  0  0  0  0  0  0  0  0  0  0  0
   43.9561   24.9954   35.2544 H   0  0  0  0  0  0  0  0  0  0  0  0
   44.8285   26.7053   33.4641 H   0  0  0  0  0  0  0  0  0  0  0  0
   44.3199   25.0533   33.0001 H   0  0  0  0  0  0  0  0  0  0  0  0
   43.3648   27.2588   31.7663 H   0  0  0  0  0  0  0  0  0  0  0  0
   42.3671   25.8109   31.9753 H   0  0  0  0  0  0  0  0  0  0  0  0
   42.5533   27.8873   34.2434 H   0  0  0  0  0  0  0  0  0  0  0  0
   41.4452   28.1940   32.9096 H   0  0  0  0  0  0  0  0  0  0  0  0
   38.0033   23.9851   39.4970 H   0  0  0  0  0  0  0  0  0  0  0  0
   37.1657   25.1793   37.4360 H   0  0  0  0  0  0  0  0  0  0  0  0
   43.5390   19.5656   37.5269 H   0  0  0  0  0  0  0  0  0  0  0  0
  1 11  1  0
  1  4  1  0
  1  2  1  0
  3  1  1  0
  5  6  1  0
  5  4  1  0
  6  7  1  0
  8  7  1  0
  9  8  1  0
  9 10  1  0
 10  5  1  0
 11 14  1  0
 13 12  2  0
 14 13  1  0
 15 14  2  0
 15 16  1  0
 16 17  2  0
 17 12  1  0
 18 16  1  0
 18 22  1  0
 19 20  1  0
 19 18  2  0
 20 21  1  0
 21 22  2  0
  2 23  1  0
  2 24  1  0
  2 25  1  0
  3 26  1  0
  3 27  1  0
  3 28  1  0
  4 29  1  0
  4 30  1  0
  5 31  1  0
  6 32  1  0
  6 33  1  0
  7 34  1  0
  7 35  1  0
  8 36  1  0
  8 37  1  0
  9 38  1  0
  9 39  1  0
 10 40  1  0
 10 41  1  0
 12 42  1  0
 13 43  1  0
 21 44  1  0
M  ISO  8  23   8  24   8  25   8  26   8  27   8  28   8  29   8  30   8
M  ISO  8  31  13  32  13  33  13  34  13  35  13  36  13  37  13  38  13
M  ISO  6  39  13  40  13  41  13  42  14  43  14  44  14
M  END
>  <minimizedAffinity>  (1) 
-4.97731781

>  <minimizedRMSD>  (1) 
0.817677677

$$$$
