
     RDKit          3D

 42 43  0  0  0  0  0  0  0  0999 V2000
   38.6360   26.6770   34.4970 C   0  0  0  0  0  0  0  0  0  0  0  0
   37.8400   27.6480   35.3680 C   0  0  0  0  0  0  0  0  0  0  0  0
   38.5570   27.2290   33.1130 C   0  0  0  0  0  0  0  0  0  0  0  0
   40.0540   26.7750   34.9680 C   0  0  0  0  0  0  0  0  0  0  0  0
   41.1370   26.3090   34.1100 C   0  0  0  0  0  0  0  0  0  0  0  0
   41.9570   25.2850   34.8810 C   0  0  0  0  0  0  0  0  0  0  0  0
   43.4010   25.6280   34.9720 C   0  0  0  0  0  0  0  0  0  0  0  0
   44.0690   25.8560   33.6500 C   0  0  0  0  0  0  0  0  0  0  0  0
   43.0790   26.4530   32.7080 C   0  0  0  0  0  0  0  0  0  0  0  0
   42.1200   27.3030   33.5890 C   0  0  0  0  0  0  0  0  0  0  0  0
   38.0830   24.9990   34.6920 S   0  0  0  0  0  0  0  0  0  0  0  0
   38.4300   23.8050   38.5590 C   0  0  0  0  0  0  0  0  0  0  0  0
   37.9840   24.4650   37.3960 C   0  0  0  0  0  0  0  0  0  0  0  0
   38.6060   24.1960   36.1850 C   0  0  0  0  0  0  0  0  0  0  0  0
   39.6340   23.2940   36.1760 N   0  0  0  0  0  0  0  0  0  0  0  0
   40.0380   22.6800   37.3020 C   0  0  0  0  0  0  0  0  0  0  0  0
   39.4620   22.9150   38.4840 N   0  0  0  0  0  0  0  0  0  0  0  0
   41.1440   21.7380   37.1690 C   0  0  0  0  0  0  0  0  0  0  0  0
   41.8110   21.7010   36.1060 O   0  0  0  0  0  0  0  0  0  0  0  0
   41.5420   20.8460   38.1460 O   0  0  0  0  0  0  0  0  0  0  0  0
   38.0238   27.4238   36.4291 H   0  0  0  0  0  0  0  0  0  0  0  0
   38.1562   28.6790   35.1509 H   0  0  0  0  0  0  0  0  0  0  0  0
   36.7670   27.5402   35.1509 H   0  0  0  0  0  0  0  0  0  0  0  0
   38.4013   28.3169   33.1605 H   0  0  0  0  0  0  0  0  0  0  0  0
   39.4948   27.0158   32.5791 H   0  0  0  0  0  0  0  0  0  0  0  0
   37.7166   26.7613   32.5791 H   0  0  0  0  0  0  0  0  0  0  0  0
   40.2476   27.8376   35.1763 H   0  0  0  0  0  0  0  0  0  0  0  0
   40.0878   26.0808   35.8206 H   0  0  0  0  0  0  0  0  0  0  0  0
   40.5976   25.9381   33.2259 H   0  0  0  0  0  0  0  0  0  0  0  0
   41.5518   25.2112   35.9010 H   0  0  0  0  0  0  0  0  0  0  0  0
   41.8844   24.3339   34.3332 H   0  0  0  0  0  0  0  0  0  0  0  0
   43.4992   26.5462   35.5697 H   0  0  0  0  0  0  0  0  0  0  0  0
   43.9006   24.7617   35.4302 H   0  0  0  0  0  0  0  0  0  0  0  0
   44.9181   26.5434   33.7785 H   0  0  0  0  0  0  0  0  0  0  0  0
   44.4384   24.9009   33.2482 H   0  0  0  0  0  0  0  0  0  0  0  0
   42.5205   25.6619   32.1863 H   0  0  0  0  0  0  0  0  0  0  0  0
   43.5700   27.0639   31.9362 H   0  0  0  0  0  0  0  0  0  0  0  0
   42.6676   27.7817   34.4143 H   0  0  0  0  0  0  0  0  0  0  0  0
   41.6414   28.1200   33.0291 H   0  0  0  0  0  0  0  0  0  0  0  0
   37.9467   24.0071   39.5262 H   0  0  0  0  0  0  0  0  0  0  0  0
   37.1533   25.1842   37.4477 H   0  0  0  0  0  0  0  0  0  0  0  0
   42.3045   20.2370   37.9793 H   0  0  0  0  0  0  0  0  0  0  0  0
  1 11  1  0
  1  4  1  0
  1  2  1  0
  3  1  1  0
  5  6  1  0
  5  4  1  0
  6  7  1  0
  8  7  1  0
  9 10  1  0
  9  8  1  0
 10  5  1  0
 11 14  1  0
 13 12  2  0
 14 13  1  0
 15 14  2  0
 15 16  1  0
 16 17  2  0
 17 12  1  0
 18 16  1  0
 18 20  1  0
 19 18  2  0
  2 21  1  0
  2 22  1  0
  2 23  1  0
  3 24  1  0
  3 25  1  0
  3 26  1  0
  4 27  1  0
  4 28  1  0
  5 29  1  0
  6 30  1  0
  6 31  1  0
  7 32  1  0
  7 33  1  0
  8 34  1  0
  8 35  1  0
  9 36  1  0
  9 37  1  0
 10 38  1  0
 10 39  1  0
 12 40  1  0
 13 41  1  0
 20 42  1  0
M  ISO  8  21   8  22   8  23   8  24   8  25   8  26   8  27   8  28   8
M  ISO  8  29  13  30  13  31  13  32  13  33  13  34  13  35  13  36  13
M  ISO  6  37  13  38  13  39  13  40  14  41  14  42   3
M  END
>  <minimizedAffinity>  (1) 
-5.04486752

>  <minimizedRMSD>  (1) 
0.355522007

$$$$
