
     RDKit          3D

 48 49  0  0  0  0  0  0  0  0999 V2000
   38.6040   26.6410   34.5190 C   0  0  0  0  0  0  0  0  0  0  0  0
   37.8570   27.4550   35.5670 C   0  0  0  0  0  0  0  0  0  0  0  0
   38.3090   27.2760   33.1990 C   0  0  0  0  0  0  0  0  0  0  0  0
   40.0620   26.8140   34.8250 C   0  0  0  0  0  0  0  0  0  0  0  0
   41.0600   26.5010   33.7920 C   0  0  0  0  0  0  0  0  0  0  0  0
   42.1400   25.6410   34.4290 C   0  0  0  0  0  0  0  0  0  0  0  0
   43.5110   26.2330   34.3040 C   0  0  0  0  0  0  0  0  0  0  0  0
   43.9250   26.5200   32.8930 C   0  0  0  0  0  0  0  0  0  0  0  0
   42.7110   26.9230   32.1060 C   0  0  0  0  0  0  0  0  0  0  0  0
   41.7620   27.6170   33.1180 C   0  0  0  0  0  0  0  0  0  0  0  0
   38.2030   24.9000   34.5990 S   0  0  0  0  0  0  0  0  0  0  0  0
   39.0190   23.2710   38.2190 C   0  0  0  0  0  0  0  0  0  0  0  0
   38.4030   23.9790   37.1760 C   0  0  0  0  0  0  0  0  0  0  0  0
   38.9680   24.0100   35.9210 C   0  0  0  0  0  0  0  0  0  0  0  0
   40.1260   23.3300   35.7690 N   0  0  0  0  0  0  0  0  0  0  0  0
   40.7240   22.6480   36.7590 C   0  0  0  0  0  0  0  0  0  0  0  0
   40.1900   22.6070   37.9820 N   0  0  0  0  0  0  0  0  0  0  0  0
   42.0140   21.9080   36.5250 C   0  0  0  0  0  0  0  0  0  0  0  0
   42.1290   20.8350   37.5790 C   0  0  0  0  0  0  0  0  0  0  0  0
   43.1840   22.8630   36.5380 C   0  0  0  0  0  0  0  0  0  0  0  0
   38.1597   27.1251   36.5718 H   0  0  0  0  0  0  0  0  0  0  0  0
   38.0976   28.5212   35.4431 H   0  0  0  0  0  0  0  0  0  0  0  0
   36.7741   27.3067   35.4431 H   0  0  0  0  0  0  0  0  0  0  0  0
   37.8506   28.2627   33.3611 H   0  0  0  0  0  0  0  0  0  0  0  0
   39.2441   27.3948   32.6321 H   0  0  0  0  0  0  0  0  0  0  0  0
   37.6151   26.6380   32.6321 H   0  0  0  0  0  0  0  0  0  0  0  0
   40.2080   27.8685   35.1020 H   0  0  0  0  0  0  0  0  0  0  0  0
   40.2533   26.0628   35.6054 H   0  0  0  0  0  0  0  0  0  0  0  0
   40.4605   26.0255   33.0017 H   0  0  0  0  0  0  0  0  0  0  0  0
   41.9068   25.5199   35.4971 H   0  0  0  0  0  0  0  0  0  0  0  0
   42.1485   24.6776   33.8982 H   0  0  0  0  0  0  0  0  0  0  0  0
   43.5333   27.1762   34.8696 H   0  0  0  0  0  0  0  0  0  0  0  0
   44.2168   25.4864   34.6970 H   0  0  0  0  0  0  0  0  0  0  0  0
   44.6608   27.3376   32.8824 H   0  0  0  0  0  0  0  0  0  0  0  0
   44.3796   25.6233   32.4467 H   0  0  0  0  0  0  0  0  0  0  0  0
   42.9898   27.6203   31.3022 H   0  0  0  0  0  0  0  0  0  0  0  0
   42.2307   26.0553   31.6303 H   0  0  0  0  0  0  0  0  0  0  0  0
   42.3356   28.2111   33.8446 H   0  0  0  0  0  0  0  0  0  0  0  0
   41.0663   28.3147   32.6289 H   0  0  0  0  0  0  0  0  0  0  0  0
   38.5630   23.2504   39.2198 H   0  0  0  0  0  0  0  0  0  0  0  0
   37.4602   24.5141   37.3627 H   0  0  0  0  0  0  0  0  0  0  0  0
   42.0209   21.4335   35.5326 H   0  0  0  0  0  0  0  0  0  0  0  0
   42.0797   21.2947   38.5771 H   0  0  0  0  0  0  0  0  0  0  0  0
   41.3025   20.1182   37.4642 H   0  0  0  0  0  0  0  0  0  0  0  0
   43.0886   20.3096   37.4642 H   0  0  0  0  0  0  0  0  0  0  0  0
   43.4611   23.0892   37.5782 H   0  0  0  0  0  0  0  0  0  0  0  0
   44.0394   22.4019   36.0226 H   0  0  0  0  0  0  0  0  0  0  0  0
   42.9036   23.7935   36.0226 H   0  0  0  0  0  0  0  0  0  0  0  0
  1 11  1  0
  1  4  1  0
  1  2  1  0
  3  1  1  0
  5  6  1  0
  5  4  1  0
  7  6  1  0
  8  7  1  0
  9  8  1  0
  9 10  1  0
 10  5  1  0
 11 14  1  0
 13 12  2  0
 14 13  1  0
 15 14  2  0
 15 16  1  0
 16 17  2  0
 17 12  1  0
 18 20  1  0
 18 16  1  0
 18 19  1  0
  2 21  1  0
  2 22  1  0
  2 23  1  0
  3 24  1  0
  3 25  1  0
  3 26  1  0
  4 27  1  0
  4 28  1  0
  5 29  1  0
  6 30  1  0
  6 31  1  0
  7 32  1  0
  7 33  1  0
  8 34  1  0
  8 35  1  0
  9 36  1  0
  9 37  1  0
 10 38  1  0
 10 39  1  0
 12 40  1  0
 13 41  1  0
 18 42  1  0
 19 43  1  0
 19 44  1  0
 19 45  1  0
 20 46  1  0
 20 47  1  0
 20 48  1  0
M  ISO  8  21   8  22   8  23   8  24   8  25   8  26   8  27   8  28   8
M  ISO  8  29  13  30  13  31  13  32  13  33  13  34  13  35  13  36  13
M  ISO  8  37  13  38  13  39  13  40  14  41  14  42   8  43   8  44   8
M  ISO  4  45   8  46   8  47   8  48   8
M  END
>  <minimizedAffinity>  (1) 
-4.73943138

>  <minimizedRMSD>  (1) 
1.05568707

$$$$
