
     RDKit          3D

 45 46  0  0  0  0  0  0  0  0999 V2000
   38.6010   26.6450   34.3480 C   0  0  0  0  0  0  0  0  0  0  0  0
   37.7400   27.5710   35.2210 C   0  0  0  0  0  0  0  0  0  0  0  0
   38.4880   27.1820   32.9610 C   0  0  0  0  0  0  0  0  0  0  0  0
   40.0110   26.8610   34.8280 C   0  0  0  0  0  0  0  0  0  0  0  0
   41.1240   26.3820   34.0030 C   0  0  0  0  0  0  0  0  0  0  0  0
   41.9300   25.3770   34.8150 C   0  0  0  0  0  0  0  0  0  0  0  0
   43.3640   25.7630   34.9650 C   0  0  0  0  0  0  0  0  0  0  0  0
   44.0720   25.9330   33.6450 C   0  0  0  0  0  0  0  0  0  0  0  0
   43.1160   26.5600   32.6870 C   0  0  0  0  0  0  0  0  0  0  0  0
   42.1140   27.3850   33.5140 C   0  0  0  0  0  0  0  0  0  0  0  0
   38.1630   24.9380   34.5630 S   0  0  0  0  0  0  0  0  0  0  0  0
   38.1320   24.0600   38.5110 C   0  0  0  0  0  0  0  0  0  0  0  0
   37.8240   24.6170   37.2550 C   0  0  0  0  0  0  0  0  0  0  0  0
   38.5460   24.2420   36.1430 C   0  0  0  0  0  0  0  0  0  0  0  0
   39.5350   23.3380   36.3350 N   0  0  0  0  0  0  0  0  0  0  0  0
   39.8330   22.8040   37.5290 C   0  0  0  0  0  0  0  0  0  0  0  0
   39.1360   23.1600   38.6270 N   0  0  0  0  0  0  0  0  0  0  0  0
   40.9660   21.8350   37.4600 C   0  0  0  0  0  0  0  0  0  0  0  0
   42.1430   22.3850   36.7220 C   0  0  0  0  0  0  0  0  0  0  0  0
   37.9358   27.3604   36.2828 H   0  0  0  0  0  0  0  0  0  0  0  0
   37.9917   28.6193   35.0026 H   0  0  0  0  0  0  0  0  0  0  0  0
   36.6762   27.3962   35.0026 H   0  0  0  0  0  0  0  0  0  0  0  0
   38.2616   28.2577   33.0016 H   0  0  0  0  0  0  0  0  0  0  0  0
   39.4384   27.0271   32.4293 H   0  0  0  0  0  0  0  0  0  0  0  0
   37.6806   26.6572   32.4293 H   0  0  0  0  0  0  0  0  0  0  0  0
   40.1462   27.9454   34.9534 H   0  0  0  0  0  0  0  0  0  0  0  0
   40.0759   26.2488   35.7396 H   0  0  0  0  0  0  0  0  0  0  0  0
   40.6193   25.9872   33.1089 H   0  0  0  0  0  0  0  0  0  0  0  0
   41.4823   25.2963   35.8165 H   0  0  0  0  0  0  0  0  0  0  0  0
   41.9023   24.4197   34.2739 H   0  0  0  0  0  0  0  0  0  0  0  0
   43.4147   26.7145   35.5145 H   0  0  0  0  0  0  0  0  0  0  0  0
   43.8682   24.9480   35.5050 H   0  0  0  0  0  0  0  0  0  0  0  0
   44.9510   26.5816   33.7736 H   0  0  0  0  0  0  0  0  0  0  0  0
   44.4104   24.9580   33.2644 H   0  0  0  0  0  0  0  0  0  0  0  0
   42.5850   25.7806   32.1207 H   0  0  0  0  0  0  0  0  0  0  0  0
   43.6485   27.2006   31.9686 H   0  0  0  0  0  0  0  0  0  0  0  0
   42.6184   27.8780   34.3581 H   0  0  0  0  0  0  0  0  0  0  0  0
   41.6438   28.1867   32.9257 H   0  0  0  0  0  0  0  0  0  0  0  0
   37.5555   24.3569   39.3995 H   0  0  0  0  0  0  0  0  0  0  0  0
   37.0089   25.3498   37.1618 H   0  0  0  0  0  0  0  0  0  0  0  0
   41.2779   21.5829   38.4843 H   0  0  0  0  0  0  0  0  0  0  0  0
   40.6142   20.9466   36.9150 H   0  0  0  0  0  0  0  0  0  0  0  0
   42.8959   22.7368   37.4426 H   0  0  0  0  0  0  0  0  0  0  0  0
   42.5800   21.5979   36.0900 H   0  0  0  0  0  0  0  0  0  0  0  0
   41.8196   23.2252   36.0900 H   0  0  0  0  0  0  0  0  0  0  0  0
  1 11  1  0
  1  4  1  0
  1  2  1  0
  3  1  1  0
  5  6  1  0
  5  4  1  0
  6  7  1  0
  8  7  1  0
  9 10  1  0
  9  8  1  0
 10  5  1  0
 11 14  1  0
 12 17  2  0
 13 12  1  0
 14 15  1  0
 14 13  2  0
 15 16  2  0
 16 17  1  0
 18 16  1  0
 19 18  1  0
  2 20  1  0
  2 21  1  0
  2 22  1  0
  3 23  1  0
  3 24  1  0
  3 25  1  0
  4 26  1  0
  4 27  1  0
  5 28  1  0
  6 29  1  0
  6 30  1  0
  7 31  1  0
  7 32  1  0
  8 33  1  0
  8 34  1  0
  9 35  1  0
  9 36  1  0
 10 37  1  0
 10 38  1  0
 12 39  1  0
 13 40  1  0
 18 41  1  0
 18 42  1  0
 19 43  1  0
 19 44  1  0
 19 45  1  0
M  ISO  8  20   8  21   8  22   8  23   8  24   8  25   8  26   8  27   8
M  ISO  8  28  13  29  13  30  13  31  13  32  13  33  13  34  13  35  13
M  ISO  8  36  13  37  13  38  13  39  14  40  14  41   8  42   8  43   8
M  ISO  2  44   8  45   8
M  END
>  <minimizedAffinity>  (1) 
-4.8231411

>  <minimizedRMSD>  (1) 
0.303304672

$$$$
