
     RDKit          3D

 41 42  0  0  0  0  0  0  0  0999 V2000
   38.5720   26.6880   34.3440 C   0  0  0  0  0  0  0  0  0  0  0  0
   37.7200   27.6370   35.1830 C   0  0  0  0  0  0  0  0  0  0  0  0
   38.5030   27.2090   32.9450 C   0  0  0  0  0  0  0  0  0  0  0  0
   39.9870   26.8470   34.8520 C   0  0  0  0  0  0  0  0  0  0  0  0
   41.0930   26.3740   34.0130 C   0  0  0  0  0  0  0  0  0  0  0  0
   41.8830   25.3380   34.8040 C   0  0  0  0  0  0  0  0  0  0  0  0
   43.3220   25.7070   34.9710 C   0  0  0  0  0  0  0  0  0  0  0  0
   44.0480   25.9330   33.6820 C   0  0  0  0  0  0  0  0  0  0  0  0
   43.0970   26.5170   32.6940 C   0  0  0  0  0  0  0  0  0  0  0  0
   42.0940   27.3620   33.5100 C   0  0  0  0  0  0  0  0  0  0  0  0
   38.0880   24.9760   34.5570 S   0  0  0  0  0  0  0  0  0  0  0  0
   38.1210   23.9960   38.4840 C   0  0  0  0  0  0  0  0  0  0  0  0
   37.7750   24.5860   37.2450 C   0  0  0  0  0  0  0  0  0  0  0  0
   38.4880   24.2650   36.1140 C   0  0  0  0  0  0  0  0  0  0  0  0
   39.5070   23.3820   36.2420 N   0  0  0  0  0  0  0  0  0  0  0  0
   39.8350   22.8190   37.4330 C   0  0  0  0  0  0  0  0  0  0  0  0
   39.1550   23.1190   38.5430 N   0  0  0  0  0  0  0  0  0  0  0  0
   40.9470   21.8770   37.4950 C   0  0  0  0  0  0  0  0  0  0  0  0
   42.0650   22.1220   36.9760 O   0  0  0  0  0  0  0  0  0  0  0  0
   37.8961   27.4408   36.2509 H   0  0  0  0  0  0  0  0  0  0  0  0
   37.9933   28.6770   34.9513 H   0  0  0  0  0  0  0  0  0  0  0  0
   36.6566   27.4770   34.9513 H   0  0  0  0  0  0  0  0  0  0  0  0
   38.3586   28.2993   32.9665 H   0  0  0  0  0  0  0  0  0  0  0  0
   39.4402   26.9735   32.4194 H   0  0  0  0  0  0  0  0  0  0  0  0
   37.6594   26.7377   32.4194 H   0  0  0  0  0  0  0  0  0  0  0  0
   40.1495   27.9207   35.0272 H   0  0  0  0  0  0  0  0  0  0  0  0
   40.0273   26.1975   35.7389 H   0  0  0  0  0  0  0  0  0  0  0  0
   40.5748   26.0110   33.1131 H   0  0  0  0  0  0  0  0  0  0  0  0
   41.4288   25.2362   35.8007 H   0  0  0  0  0  0  0  0  0  0  0  0
   41.8475   24.3944   34.2397 H   0  0  0  0  0  0  0  0  0  0  0  0
   43.3749   26.6319   35.5641 H   0  0  0  0  0  0  0  0  0  0  0  0
   43.8124   24.8561   35.4665 H   0  0  0  0  0  0  0  0  0  0  0  0
   44.8850   26.6278   33.8455 H   0  0  0  0  0  0  0  0  0  0  0  0
   44.4440   24.9794   33.3027 H   0  0  0  0  0  0  0  0  0  0  0  0
   42.5703   25.7172   32.1527 H   0  0  0  0  0  0  0  0  0  0  0  0
   43.6216   27.1291   31.9456 H   0  0  0  0  0  0  0  0  0  0  0  0
   42.6000   27.8636   34.3481 H   0  0  0  0  0  0  0  0  0  0  0  0
   41.6301   28.1569   32.9075 H   0  0  0  0  0  0  0  0  0  0  0  0
   37.5554   24.2467   39.3935 H   0  0  0  0  0  0  0  0  0  0  0  0
   36.9390   25.2985   37.1870 H   0  0  0  0  0  0  0  0  0  0  0  0
   40.8018   20.9183   38.0144 H   0  0  0  0  0  0  0  0  0  0  0  0
  1 11  1  0
  1  4  1  0
  1  2  1  0
  3  1  1  0
  5  6  1  0
  5  4  1  0
  6  7  1  0
  8  7  1  0
  9 10  1  0
  9  8  1  0
 10  5  1  0
 11 14  1  0
 12 17  2  0
 13 12  1  0
 14 15  1  0
 14 13  2  0
 15 16  2  0
 16 18  1  0
 16 17  1  0
 19 18  2  0
  2 20  1  0
  2 21  1  0
  2 22  1  0
  3 23  1  0
  3 24  1  0
  3 25  1  0
  4 26  1  0
  4 27  1  0
  5 28  1  0
  6 29  1  0
  6 30  1  0
  7 31  1  0
  7 32  1  0
  8 33  1  0
  8 34  1  0
  9 35  1  0
  9 36  1  0
 10 37  1  0
 10 38  1  0
 12 39  1  0
 13 40  1  0
 18 41  1  0
M  ISO  8  20   8  21   8  22   8  23   8  24   8  25   8  26   8  27   8
M  ISO  8  28  13  29  13  30  13  31  13  32  13  33  13  34  13  35  13
M  ISO  6  36  13  37  13  38  13  39  14  40  14  41   6
M  END
>  <minimizedAffinity>  (1) 
-4.63591766

>  <minimizedRMSD>  (1) 
0.358586103

$$$$
