
     RDKit          3D

 51 52  0  0  0  0  0  0  0  0999 V2000
   38.6030   26.6340   34.5130 C   0  0  0  0  0  0  0  0  0  0  0  0
   37.8510   27.4470   35.5580 C   0  0  0  0  0  0  0  0  0  0  0  0
   38.3130   27.2890   33.1920 C   0  0  0  0  0  0  0  0  0  0  0  0
   40.0550   26.8150   34.8160 C   0  0  0  0  0  0  0  0  0  0  0  0
   41.0470   26.4990   33.7750 C   0  0  0  0  0  0  0  0  0  0  0  0
   42.1370   25.6350   34.3960 C   0  0  0  0  0  0  0  0  0  0  0  0
   43.5060   26.2250   34.2610 C   0  0  0  0  0  0  0  0  0  0  0  0
   43.9110   26.5200   32.8540 C   0  0  0  0  0  0  0  0  0  0  0  0
   42.6950   26.9450   32.0860 C   0  0  0  0  0  0  0  0  0  0  0  0
   41.7640   27.6280   33.1080 C   0  0  0  0  0  0  0  0  0  0  0  0
   38.1990   24.9010   34.6030 S   0  0  0  0  0  0  0  0  0  0  0  0
   39.0550   23.2590   38.2140 C   0  0  0  0  0  0  0  0  0  0  0  0
   38.4080   23.9780   37.1770 C   0  0  0  0  0  0  0  0  0  0  0  0
   38.9760   24.0150   35.9220 C   0  0  0  0  0  0  0  0  0  0  0  0
   40.1500   23.3490   35.7350 N   0  0  0  0  0  0  0  0  0  0  0  0
   40.7520   22.6720   36.7280 C   0  0  0  0  0  0  0  0  0  0  0  0
   40.2320   22.6130   37.9580 N   0  0  0  0  0  0  0  0  0  0  0  0
   42.0410   21.9560   36.4770 C   0  0  0  0  0  0  0  0  0  0  0  0
   42.2470   20.8180   37.4330 C   0  0  0  0  0  0  0  0  0  0  0  0
   43.1690   22.9530   36.5890 C   0  0  0  0  0  0  0  0  0  0  0  0
   42.0420   21.4540   35.0270 C   0  0  0  0  0  0  0  0  0  0  0  0
   38.1532   27.1203   36.5639 H   0  0  0  0  0  0  0  0  0  0  0  0
   38.0876   28.5139   35.4325 H   0  0  0  0  0  0  0  0  0  0  0  0
   36.7689   27.2942   35.4325 H   0  0  0  0  0  0  0  0  0  0  0  0
   37.8732   28.2824   33.3640 H   0  0  0  0  0  0  0  0  0  0  0  0
   39.2480   27.3956   32.6225 H   0  0  0  0  0  0  0  0  0  0  0  0
   37.6055   26.6684   32.6225 H   0  0  0  0  0  0  0  0  0  0  0  0
   40.1982   27.8713   35.0875 H   0  0  0  0  0  0  0  0  0  0  0  0
   40.2542   26.0733   35.6035 H   0  0  0  0  0  0  0  0  0  0  0  0
   40.4358   26.0269   32.9917 H   0  0  0  0  0  0  0  0  0  0  0  0
   41.9151   25.5078   35.4659 H   0  0  0  0  0  0  0  0  0  0  0  0
   42.1400   24.6758   33.8576 H   0  0  0  0  0  0  0  0  0  0  0  0
   43.5342   27.1647   34.8321 H   0  0  0  0  0  0  0  0  0  0  0  0
   44.2126   25.4728   34.6416 H   0  0  0  0  0  0  0  0  0  0  0  0
   44.6567   27.3286   32.8447 H   0  0  0  0  0  0  0  0  0  0  0  0
   44.3522   25.6236   32.3938 H   0  0  0  0  0  0  0  0  0  0  0  0
   42.9732   27.6518   31.2904 H   0  0  0  0  0  0  0  0  0  0  0  0
   42.2033   26.0876   31.6033 H   0  0  0  0  0  0  0  0  0  0  0  0
   42.3476   28.2047   33.8407 H   0  0  0  0  0  0  0  0  0  0  0  0
   41.0727   28.3398   32.6332 H   0  0  0  0  0  0  0  0  0  0  0  0
   38.6116   23.2213   39.2200 H   0  0  0  0  0  0  0  0  0  0  0  0
   37.4607   24.5018   37.3727 H   0  0  0  0  0  0  0  0  0  0  0  0
   42.1796   21.1901   38.4660 H   0  0  0  0  0  0  0  0  0  0  0  0
   41.4724   20.0548   37.2669 H   0  0  0  0  0  0  0  0  0  0  0  0
   43.2400   20.3748   37.2669 H   0  0  0  0  0  0  0  0  0  0  0  0
   43.3853   23.1442   37.6504 H   0  0  0  0  0  0  0  0  0  0  0  0
   44.0666   22.5477   36.0991 H   0  0  0  0  0  0  0  0  0  0  0  0
   42.8770   23.8936   36.0991 H   0  0  0  0  0  0  0  0  0  0  0  0
   42.0442   20.3540   35.0198 H   0  0  0  0  0  0  0  0  0  0  0  0
   41.1431   21.8223   34.5109 H   0  0  0  0  0  0  0  0  0  0  0  0
   42.9394   21.8258   34.5109 H   0  0  0  0  0  0  0  0  0  0  0  0
  1 11  1  0
  1  4  1  0
  1  2  1  0
  3  1  1  0
  5  6  1  0
  5  4  1  0
  7  6  1  0
  8  7  1  0
  9  8  1  0
  9 10  1  0
 10  5  1  0
 11 14  1  0
 13 12  2  0
 14 13  1  0
 15 14  2  0
 15 16  1  0
 16 17  2  0
 17 12  1  0
 18 20  1  0
 18 16  1  0
 18 19  1  0
 21 18  1  0
  2 22  1  0
  2 23  1  0
  2 24  1  0
  3 25  1  0
  3 26  1  0
  3 27  1  0
  4 28  1  0
  4 29  1  0
  5 30  1  0
  6 31  1  0
  6 32  1  0
  7 33  1  0
  7 34  1  0
  8 35  1  0
  8 36  1  0
  9 37  1  0
  9 38  1  0
 10 39  1  0
 10 40  1  0
 12 41  1  0
 13 42  1  0
 19 43  1  0
 19 44  1  0
 19 45  1  0
 20 46  1  0
 20 47  1  0
 20 48  1  0
 21 49  1  0
 21 50  1  0
 21 51  1  0
M  ISO  8  22   8  23   8  24   8  25   8  26   8  27   8  28   8  29   8
M  ISO  8  30  13  31  13  32  13  33  13  34  13  35  13  36  13  37  13
M  ISO  8  38  13  39  13  40  13  41  14  42  14  43   8  44   8  45   8
M  ISO  6  46   8  47   8  48   8  49   8  50   8  51   8
M  END
>  <minimizedAffinity>  (1) 
-4.86154366

>  <minimizedRMSD>  (1) 
1.1998117

$$$$
