
     RDKit          3D

 46 48  0  0  0  0  0  0  0  0999 V2000
   38.4870   26.7070   34.3460 C   0  0  0  0  0  0  0  0  0  0  0  0
   37.6540   27.6720   35.1950 C   0  0  0  0  0  0  0  0  0  0  0  0
   38.4240   27.2330   32.9500 C   0  0  0  0  0  0  0  0  0  0  0  0
   39.9020   26.8530   34.8510 C   0  0  0  0  0  0  0  0  0  0  0  0
   41.0010   26.3990   34.0040 C   0  0  0  0  0  0  0  0  0  0  0  0
   41.7880   25.3540   34.7840 C   0  0  0  0  0  0  0  0  0  0  0  0
   43.2370   25.6850   34.9350 C   0  0  0  0  0  0  0  0  0  0  0  0
   43.9590   25.9200   33.6490 C   0  0  0  0  0  0  0  0  0  0  0  0
   43.0030   26.5530   32.6800 C   0  0  0  0  0  0  0  0  0  0  0  0
   42.0150   27.3800   33.5310 C   0  0  0  0  0  0  0  0  0  0  0  0
   37.9780   25.0090   34.5610 S   0  0  0  0  0  0  0  0  0  0  0  0
   38.1780   23.9150   38.4670 C   0  0  0  0  0  0  0  0  0  0  0  0
   37.7750   24.5230   37.2650 C   0  0  0  0  0  0  0  0  0  0  0  0
   38.4580   24.2590   36.0970 C   0  0  0  0  0  0  0  0  0  0  0  0
   39.5040   23.4100   36.1600 N   0  0  0  0  0  0  0  0  0  0  0  0
   39.9000   22.8220   37.3020 C   0  0  0  0  0  0  0  0  0  0  0  0
   39.2430   23.0680   38.4590 N   0  0  0  0  0  0  0  0  0  0  0  0
   41.0620   21.8860   37.3340 C   0  0  0  0  0  0  0  0  0  0  0  0
   41.7090   21.4860   36.0570 C   0  0  0  0  0  0  0  0  0  0  0  0
   42.4370   22.4050   36.9780 C   0  0  0  0  0  0  0  0  0  0  0  0
   37.8302   27.4678   36.2614 H   0  0  0  0  0  0  0  0  0  0  0  0
   37.9466   28.7075   34.9667 H   0  0  0  0  0  0  0  0  0  0  0  0
   36.5869   27.5337   34.9667 H   0  0  0  0  0  0  0  0  0  0  0  0
   38.2932   28.3249   32.9751 H   0  0  0  0  0  0  0  0  0  0  0  0
   39.3580   26.9876   32.4232 H   0  0  0  0  0  0  0  0  0  0  0  0
   37.5744   26.7740   32.4232 H   0  0  0  0  0  0  0  0  0  0  0  0
   40.0662   27.9227   35.0481 H   0  0  0  0  0  0  0  0  0  0  0  0
   39.9438   26.1836   35.7229 H   0  0  0  0  0  0  0  0  0  0  0  0
   40.4784   26.0656   33.0953 H   0  0  0  0  0  0  0  0  0  0  0  0
   41.3458   25.2631   35.7871 H   0  0  0  0  0  0  0  0  0  0  0  0
   41.7297   24.4150   34.2140 H   0  0  0  0  0  0  0  0  0  0  0  0
   43.3188   26.5962   35.5457 H   0  0  0  0  0  0  0  0  0  0  0  0
   43.7097   24.8083   35.4019 H   0  0  0  0  0  0  0  0  0  0  0  0
   44.8140   26.5907   33.8197 H   0  0  0  0  0  0  0  0  0  0  0  0
   44.3328   24.9676   33.2449 H   0  0  0  0  0  0  0  0  0  0  0  0
   42.4641   25.7786   32.1144 H   0  0  0  0  0  0  0  0  0  0  0  0
   43.5304   27.1844   31.9498 H   0  0  0  0  0  0  0  0  0  0  0  0
   42.5327   27.8429   34.3840 H   0  0  0  0  0  0  0  0  0  0  0  0
   41.5603   28.2003   32.9563 H   0  0  0  0  0  0  0  0  0  0  0  0
   37.6386   24.1216   39.4031 H   0  0  0  0  0  0  0  0  0  0  0  0
   36.9151   25.2090   37.2566 H   0  0  0  0  0  0  0  0  0  0  0  0
   40.6280   21.3482   38.1898 H   0  0  0  0  0  0  0  0  0  0  0  0
   41.3165   21.8662   35.1023 H   0  0  0  0  0  0  0  0  0  0  0  0
   41.9465   20.5233   35.5808 H   0  0  0  0  0  0  0  0  0  0  0  0
   43.3207   22.0491   37.5280 H   0  0  0  0  0  0  0  0  0  0  0  0
   42.8977   23.3997   36.8868 H   0  0  0  0  0  0  0  0  0  0  0  0
  1 11  1  0
  1  4  1  0
  1  2  1  0
  3  1  1  0
  5  6  1  0
  5  4  1  0
  6  7  1  0
  8  7  1  0
  9 10  1  0
  9  8  1  0
 10  5  1  0
 11 14  1  0
 13 12  2  0
 14 15  2  0
 14 13  1  0
 15 16  1  0
 16 18  1  0
 16 17  2  0
 17 12  1  0
 19 20  1  0
 19 18  1  0
 20 18  1  0
  2 21  1  0
  2 22  1  0
  2 23  1  0
  3 24  1  0
  3 25  1  0
  3 26  1  0
  4 27  1  0
  4 28  1  0
  5 29  1  0
  6 30  1  0
  6 31  1  0
  7 32  1  0
  7 33  1  0
  8 34  1  0
  8 35  1  0
  9 36  1  0
  9 37  1  0
 10 38  1  0
 10 39  1  0
 12 40  1  0
 13 41  1  0
 18 42  1  0
 19 43  1  0
 19 44  1  0
 20 45  1  0
 20 46  1  0
M  ISO  8  21   8  22   8  23   8  24   8  25   8  26   8  27   8  28   8
M  ISO  8  29  13  30  13  31  13  32  13  33  13  34  13  35  13  36  13
M  ISO  8  37  13  38  13  39  13  40  14  41  14  42  13  43  13  44  13
M  ISO  2  45  13  46  13
M  END
>  <minimizedAffinity>  (1) 
-4.85323048

>  <minimizedRMSD>  (1) 
0.565828443

$$$$
