
     RDKit          3D

 47 49  0  0  0  0  0  0  0  0999 V2000
   38.5140   26.7510   34.5100 C   0  0  0  0  0  0  0  0  0  0  0  0
   37.7950   27.6550   35.4960 C   0  0  0  0  0  0  0  0  0  0  0  0
   38.2950   27.3560   33.1580 C   0  0  0  0  0  0  0  0  0  0  0  0
   39.9820   26.8640   34.8490 C   0  0  0  0  0  0  0  0  0  0  0  0
   40.9750   26.5250   33.8310 C   0  0  0  0  0  0  0  0  0  0  0  0
   42.0250   25.6220   34.4690 C   0  0  0  0  0  0  0  0  0  0  0  0
   43.4100   26.1660   34.3580 C   0  0  0  0  0  0  0  0  0  0  0  0
   43.8440   26.4200   32.9370 C   0  0  0  0  0  0  0  0  0  0  0  0
   42.6600   26.8770   32.1550 C   0  0  0  0  0  0  0  0  0  0  0  0
   41.7230   27.6030   33.1430 C   0  0  0  0  0  0  0  0  0  0  0  0
   38.0250   25.0360   34.6680 S   0  0  0  0  0  0  0  0  0  0  0  0
   38.6420   23.5400   38.3840 C   0  0  0  0  0  0  0  0  0  0  0  0
   38.0860   24.2270   37.2900 C   0  0  0  0  0  0  0  0  0  0  0  0
   38.6990   24.1860   36.0530 C   0  0  0  0  0  0  0  0  0  0  0  0
   39.8430   23.4610   35.9560 N   0  0  0  0  0  0  0  0  0  0  0  0
   40.3740   22.8030   37.0110 C   0  0  0  0  0  0  0  0  0  0  0  0
   39.7830   22.8390   38.2130 N   0  0  0  0  0  0  0  0  0  0  0  0
   41.6050   22.0390   36.8470 C   0  0  0  0  0  0  0  0  0  0  0  0
   42.6620   22.5220   36.1060 C   0  0  0  0  0  0  0  0  0  0  0  0
   43.8210   21.7810   35.9640 C   0  0  0  0  0  0  0  0  0  0  0  0
   43.9420   20.5840   36.5390 N   0  0  0  0  0  0  0  0  0  0  0  0
   42.8860   20.1340   37.2630 C   0  0  0  0  0  0  0  0  0  0  0  0
   41.7510   20.8290   37.4180 N   0  0  0  0  0  0  0  0  0  0  0  0
   38.0405   27.3463   36.5228 H   0  0  0  0  0  0  0  0  0  0  0  0
   38.1148   28.6958   35.3397 H   0  0  0  0  0  0  0  0  0  0  0  0
   36.7089   27.5777   35.3397 H   0  0  0  0  0  0  0  0  0  0  0  0
   37.9226   28.3847   33.2726 H   0  0  0  0  0  0  0  0  0  0  0  0
   39.2453   27.3696   32.6041 H   0  0  0  0  0  0  0  0  0  0  0  0
   37.5562   26.7582   32.6041 H   0  0  0  0  0  0  0  0  0  0  0  0
   40.1652   27.9083   35.1421 H   0  0  0  0  0  0  0  0  0  0  0  0
   40.1316   26.1003   35.6264 H   0  0  0  0  0  0  0  0  0  0  0  0
   40.3512   26.0795   33.0421 H   0  0  0  0  0  0  0  0  0  0  0  0
   41.7811   25.5001   35.5347 H   0  0  0  0  0  0  0  0  0  0  0  0
   42.0048   24.6635   33.9297 H   0  0  0  0  0  0  0  0  0  0  0  0
   43.4565   27.1156   34.9113 H   0  0  0  0  0  0  0  0  0  0  0  0
   44.0898   25.4075   34.7733 H   0  0  0  0  0  0  0  0  0  0  0  0
   44.6223   27.1972   32.9201 H   0  0  0  0  0  0  0  0  0  0  0  0
   44.2529   25.4983   32.4975 H   0  0  0  0  0  0  0  0  0  0  0  0
   42.9762   27.5659   31.3579 H   0  0  0  0  0  0  0  0  0  0  0  0
   42.1490   26.0260   31.6809 H   0  0  0  0  0  0  0  0  0  0  0  0
   42.3063   28.1907   33.8671 H   0  0  0  0  0  0  0  0  0  0  0  0
   41.0514   28.3077   32.6309 H   0  0  0  0  0  0  0  0  0  0  0  0
   38.1524   23.5735   39.3685 H   0  0  0  0  0  0  0  0  0  0  0  0
   37.1567   24.8009   37.4204 H   0  0  0  0  0  0  0  0  0  0  0  0
   42.5829   23.5069   35.6226 H   0  0  0  0  0  0  0  0  0  0  0  0
   44.6538   22.1842   35.3691 H   0  0  0  0  0  0  0  0  0  0  0  0
   42.9659   19.1493   37.7468 H   0  0  0  0  0  0  0  0  0  0  0  0
  1 11  1  0
  1  4  1  0
  1  2  1  0
  3  1  1  0
  5  6  1  0
  5  4  1  0
  7  6  1  0
  8  7  1  0
  9  8  1  0
  9 10  1  0
 10  5  1  0
 11 14  1  0
 13 12  2  0
 14 13  1  0
 15 14  2  0
 15 16  1  0
 16 17  2  0
 17 12  1  0
 18 16  1  0
 18 23  1  0
 19 18  2  0
 20 19  1  0
 20 21  2  0
 21 22  1  0
 22 23  2  0
  2 24  1  0
  2 25  1  0
  2 26  1  0
  3 27  1  0
  3 28  1  0
  3 29  1  0
  4 30  1  0
  4 31  1  0
  5 32  1  0
  6 33  1  0
  6 34  1  0
  7 35  1  0
  7 36  1  0
  8 37  1  0
  8 38  1  0
  9 39  1  0
  9 40  1  0
 10 41  1  0
 10 42  1  0
 12 43  1  0
 13 44  1  0
 19 45  1  0
 20 46  1  0
 22 47  1  0
M  ISO  8  24   8  25   8  26   8  27   8  28   8  29   8  30   8  31   8
M  ISO  8  32  13  33  13  34  13  35  13  36  13  37  13  38  13  39  13
M  ISO  8  40  13  41  13  42  13  43  14  44  14  45  14  46  14  47  14
M  END
>  <minimizedAffinity>  (1) 
-4.92947483

>  <minimizedRMSD>  (1) 
1.14747751

$$$$
