
     RDKit          3D

 36 39  0  0  1  0  0  0  0  0999 V2000
   40.5740   22.0970   37.4860 C   0  0  0  0  0  0  0  0  0  0  0  0
   39.8230   23.2370   37.1960 C   0  0  0  0  0  0  0  0  0  0  0  0
   39.9670   23.8120   35.9300 C   0  0  0  0  0  0  0  0  0  0  0  0
   40.8370   23.2430   35.0160 N   0  0  0  0  0  0  0  0  0  0  0  0
   41.5480   22.1260   35.3560 C   0  0  0  0  0  0  0  0  0  0  0  0
   41.4170   21.5620   36.5740 N   0  0  0  0  0  0  0  0  0  0  0  0
   39.2590   24.9670   35.5250 N   0  0  0  0  0  0  0  0  0  0  0  0
   39.7180   26.2800   35.1290 C   0  0  0  0  0  0  0  0  0  0  0  0
   38.6750   27.1350   35.8250 C   0  0  0  0  0  0  0  0  0  0  0  0
   37.4040   26.4540   35.3060 C   0  0  2  0  0  0  0  0  0  0  0  0
   37.7990   25.0010   35.4440 C   0  0  0  0  0  0  0  0  0  0  0  0
   37.1700   26.7660   33.8820 C   0  0  0  0  0  0  0  0  0  0  0  0
   37.5700   25.8870   32.9330 N   0  0  0  0  0  0  0  0  0  0  0  0
   37.3820   26.1190   31.6340 C   0  0  0  0  0  0  0  0  0  0  0  0
   36.7870   27.2350   31.1610 N   0  0  0  0  0  0  0  0  0  0  0  0
   36.3700   28.1450   32.0580 C   0  0  0  0  0  0  0  0  0  0  0  0
   35.7440   29.3260   31.6520 C   0  0  0  0  0  0  0  0  0  0  0  0
   35.3170   30.2580   32.5760 C   0  0  0  0  0  0  0  0  0  0  0  0
   35.5190   30.0010   33.9190 C   0  0  0  0  0  0  0  0  0  0  0  0
   36.1360   28.8350   34.3130 C   0  0  0  0  0  0  0  0  0  0  0  0
   36.5600   27.9100   33.4040 C   0  0  0  0  0  0  0  0  0  0  0  0
   40.4784   21.6248   38.4749 H   0  0  0  0  0  0  0  0  0  0  0  0
   39.1388   23.6698   37.9407 H   0  0  0  0  0  0  0  0  0  0  0  0
   42.2380   21.6801   34.6245 H   0  0  0  0  0  0  0  0  0  0  0  0
   40.7324   26.4884   35.4998 H   0  0  0  0  0  0  0  0  0  0  0  0
   39.8017   26.4374   34.0435 H   0  0  0  0  0  0  0  0  0  0  0  0
   38.7567   27.0718   36.9201 H   0  0  0  0  0  0  0  0  0  0  0  0
   38.7438   28.2143   35.6240 H   0  0  0  0  0  0  0  0  0  0  0  0
   36.4861   26.7546   35.8324 H   0  0  0  0  0  0  0  0  0  0  0  0
   37.3588   24.5738   36.3571 H   0  0  0  0  0  0  0  0  0  0  0  0
   37.4367   24.4102   34.5898 H   0  0  0  0  0  0  0  0  0  0  0  0
   37.7284   25.3647   30.9122 H   0  0  0  0  0  0  0  0  0  0  0  0
   35.5891   29.5160   30.5797 H   0  0  0  0  0  0  0  0  0  0  0  0
   34.8258   31.1867   32.2502 H   0  0  0  0  0  0  0  0  0  0  0  0
   35.1864   30.7288   34.6738 H   0  0  0  0  0  0  0  0  0  0  0  0
   36.2907   28.6447   35.3853 H   0  0  0  0  0  0  0  0  0  0  0  0
  2  1  2  0
  3  2  1  0
  4  5  1  0
  4  3  2  0
  5  6  2  0
  6  1  1  0
  7  3  1  0
  8  7  1  0
  8  9  1  0
 10 11  1  0
 10  9  1  0
 11  7  1  0
 12 10  1  0
 13 12  2  0
 14 13  1  0
 15 14  2  0
 15 16  1  0
 16 21  2  0
 17 16  1  0
 17 18  2  0
 18 19  1  0
 19 20  2  0
 21 12  1  0
 21 20  1  0
  1 22  1  0
  2 23  1  0
  5 24  1  0
  8 25  1  0
  8 26  1  0
  9 27  1  0
  9 28  1  0
 10 29  1  1
 11 30  1  0
 11 31  1  0
 14 32  1  0
 17 33  1  0
 18 34  1  0
 19 35  1  0
 20 36  1  0
M  ISO  8  22  14  23  14  24  14  25  13  26  13  27  13  28  13  29  13
M  ISO  7  30  13  31  13  32  14  33  14  34  14  35  14  36  14
M  END
>  <minimizedAffinity>  (1) 
-5.81526279

>  <minimizedRMSD>  (1) 
2.25365591

$$$$
