
     RDKit          3D

 29 31  0  0  1  0  0  0  0  0999 V2000
   38.6700   27.4240   30.7100 C   0  0  0  0  0  0  0  0  0  0  0  0
   38.7800   26.8410   31.9800 C   0  0  0  0  0  0  0  0  0  0  0  0
   37.6040   26.5950   32.7080 C   0  0  0  0  0  0  0  0  0  0  0  0
   36.4170   26.9430   32.1350 N   0  0  0  0  0  0  0  0  0  0  0  0
   36.3420   27.5060   30.9020 C   0  0  0  0  0  0  0  0  0  0  0  0
   37.4590   27.7450   30.1970 N   0  0  0  0  0  0  0  0  0  0  0  0
   37.6230   26.0150   33.9860 N   0  0  0  0  0  0  0  0  0  0  0  0
   37.1430   26.5450   35.2530 C   0  0  0  0  0  0  0  0  0  0  0  0
   38.2760   26.0140   36.1470 C   0  0  0  0  0  0  0  0  0  0  0  0
   38.1960   24.5520   35.7580 C   0  0  1  0  0  0  0  0  0  0  0  0
   38.1630   24.7020   34.2480 C   0  0  0  0  0  0  0  0  0  0  0  0
   39.3600   23.8130   36.1980 N   0  0  0  0  0  0  0  0  0  0  0  0
   39.2040   23.1250   37.3510 C   0  0  0  0  0  0  0  0  0  0  0  0
   40.4230   22.4860   37.6030 C   0  0  0  0  0  0  0  0  0  0  0  0
   41.2560   22.8110   36.6030 N   0  0  0  0  0  0  0  0  0  0  0  0
   40.6120   23.6120   35.7540 C   0  0  0  0  0  0  0  0  0  0  0  0
   39.5788   27.6231   30.1230 H   0  0  0  0  0  0  0  0  0  0  0  0
   39.7644   26.5821   32.3969 H   0  0  0  0  0  0  0  0  0  0  0  0
   35.3611   27.7676   30.4786 H   0  0  0  0  0  0  0  0  0  0  0  0
   37.0919   27.6438   35.2529 H   0  0  0  0  0  0  0  0  0  0  0  0
   36.1221   26.2555   35.5428 H   0  0  0  0  0  0  0  0  0  0  0  0
   39.2492   26.4588   35.8921 H   0  0  0  0  0  0  0  0  0  0  0  0
   38.1804   26.2302   37.2213 H   0  0  0  0  0  0  0  0  0  0  0  0
   37.3545   23.9947   36.1953 H   0  0  0  0  0  0  0  0  0  0  0  0
   37.5199   23.9291   33.8019 H   0  0  0  0  0  0  0  0  0  0  0  0
   39.1660   24.5864   33.8114 H   0  0  0  0  0  0  0  0  0  0  0  0
   38.2961   23.0769   37.9702 H   0  0  0  0  0  0  0  0  0  0  0  0
   40.6550   21.8380   38.4611 H   0  0  0  0  0  0  0  0  0  0  0  0
   41.0383   24.0407   34.8351 H   0  0  0  0  0  0  0  0  0  0  0  0
  1  2  2  0
  2  3  1  0
  3  7  1  0
  4  3  2  0
  5  4  1  0
  6  1  1  0
  6  5  2  0
  7 11  1  0
  7  8  1  0
  8  9  1  0
 10  9  1  0
 10 12  1  0
 11 10  1  0
 12 13  1  0
 13 14  2  0
 15 14  1  0
 16 12  1  0
 16 15  2  0
  1 17  1  0
  2 18  1  0
  5 19  1  0
  8 20  1  0
  8 21  1  0
  9 22  1  0
  9 23  1  0
 10 24  1  1
 11 25  1  0
 11 26  1  0
 13 27  1  0
 14 28  1  0
 16 29  1  0
M  ISO  8  17  14  18  14  19  14  20  13  21  13  22  13  23  13  24  13
M  ISO  5  25  13  26  13  27  14  28  14  29  14
M  END
>  <minimizedAffinity>  (1) 
-4.27382803

>  <minimizedRMSD>  (1) 
6.01928616

$$$$
