
     RDKit          3D

 29 31  0  0  1  0  0  0  0  0999 V2000
   40.3220   27.1810   30.9980 C   0  0  0  0  0  0  0  0  0  0  0  0
   39.9170   26.8100   32.2800 C   0  0  0  0  0  0  0  0  0  0  0  0
   38.6330   27.1630   32.7120 C   0  0  0  0  0  0  0  0  0  0  0  0
   37.8530   27.8600   31.8350 N   0  0  0  0  0  0  0  0  0  0  0  0
   38.2550   28.2130   30.6000 C   0  0  0  0  0  0  0  0  0  0  0  0
   39.4900   27.8750   30.1780 N   0  0  0  0  0  0  0  0  0  0  0  0
   38.1380   26.8360   33.9830 N   0  0  0  0  0  0  0  0  0  0  0  0
   37.6420   27.7140   35.0460 C   0  0  0  0  0  0  0  0  0  0  0  0
   38.2730   26.9940   36.2350 C   0  0  0  0  0  0  0  0  0  0  0  0
   37.6980   25.6030   35.9520 C   0  0  1  0  0  0  0  0  0  0  0  0
   38.0370   25.4790   34.4680 C   0  0  0  0  0  0  0  0  0  0  0  0
   38.3510   24.5430   36.7160 C   0  0  0  0  0  0  0  0  0  0  0  0
   38.1040   24.1470   38.0260 C   0  0  0  0  0  0  0  0  0  0  0  0
   38.9360   23.1220   38.3420 N   0  0  0  0  0  0  0  0  0  0  0  0
   39.6930   22.8870   37.2310 C   0  0  0  0  0  0  0  0  0  0  0  0
   39.3250   23.7580   36.2550 N   0  0  0  0  0  0  0  0  0  0  0  0
   41.3279   26.9083   30.6462 H   0  0  0  0  0  0  0  0  0  0  0  0
   40.5950   26.2495   32.9405 H   0  0  0  0  0  0  0  0  0  0  0  0
   37.5792   28.7745   29.9382 H   0  0  0  0  0  0  0  0  0  0  0  0
   38.0114   28.7447   34.9402 H   0  0  0  0  0  0  0  0  0  0  0  0
   36.5511   27.8483   35.0889 H   0  0  0  0  0  0  0  0  0  0  0  0
   39.3723   27.0084   36.1983 H   0  0  0  0  0  0  0  0  0  0  0  0
   38.0631   27.4161   37.2289 H   0  0  0  0  0  0  0  0  0  0  0  0
   36.6362   25.4999   36.2202 H   0  0  0  0  0  0  0  0  0  0  0  0
   37.2410   24.9381   33.9353 H   0  0  0  0  0  0  0  0  0  0  0  0
   38.9684   24.9165   34.3067 H   0  0  0  0  0  0  0  0  0  0  0  0
   37.3553   24.5924   38.6977 H   0  0  0  0  0  0  0  0  0  0  0  0
   40.4740   22.1177   37.1403 H   0  0  0  0  0  0  0  0  0  0  0  0
   39.7331   23.8043   35.3105 H   0  0  0  0  0  0  0  0  0  0  0  0
  1  2  2  0
  2  3  1  0
  3  7  1  0
  4  3  2  0
  5  4  1  0
  6  5  2  0
  6  1  1  0
  7 11  1  0
  7  8  1  0
  8  9  1  0
 10  9  1  0
 10 12  1  0
 11 10  1  0
 12 13  2  0
 13 14  1  0
 15 14  2  0
 16 12  1  0
 16 15  1  0
  1 17  1  0
  2 18  1  0
  5 19  1  0
  8 20  1  0
  8 21  1  0
  9 22  1  0
  9 23  1  0
 10 24  1  6
 11 25  1  0
 11 26  1  0
 13 27  1  0
 15 28  1  0
 16 29  1  0
M  ISO  8  17  14  18  14  19  14  20  13  21  13  22  13  23  13  24  13
M  ISO  5  25  13  26  13  27  14  28  14  29   9
M  END
>  <minimizedAffinity>  (1) 
-4.50575209

>  <minimizedRMSD>  (1) 
5.3843689

$$$$
