
     RDKit          3D

 35 37  0  0  1  0  0  0  0  0999 V2000
   42.8620   27.2060   33.5810 C   0  0  0  0  0  0  0  0  0  0  0  0
   41.7460   26.6220   34.2080 C   0  0  0  0  0  0  0  0  0  0  0  0
   40.5530   26.5900   33.4740 C   0  0  0  0  0  0  0  0  0  0  0  0
   40.5260   27.1160   32.2050 N   0  0  0  0  0  0  0  0  0  0  0  0
   41.6360   27.6680   31.6520 C   0  0  0  0  0  0  0  0  0  0  0  0
   42.7920   27.7100   32.3360 N   0  0  0  0  0  0  0  0  0  0  0  0
   39.3620   26.0320   33.9850 N   0  0  0  0  0  0  0  0  0  0  0  0
   38.0430   26.6220   34.2110 C   0  0  0  0  0  0  0  0  0  0  0  0
   37.7540   25.9740   35.5830 C   0  0  0  0  0  0  0  0  0  0  0  0
   37.9570   24.5270   35.1720 C   0  0  1  0  0  0  0  0  0  0  0  0
   39.2550   24.6390   34.4110 C   0  0  0  0  0  0  0  0  0  0  0  0
   38.1780   23.6450   36.3800 C   0  0  0  0  0  0  0  0  0  0  0  0
   39.6420   23.1950   36.4550 C   0  0  0  0  0  0  0  0  0  0  0  0
   39.8780   22.8950   37.9170 C   0  0  0  0  0  0  0  0  0  0  0  0
   38.6360   23.3550   38.6560 C   0  0  0  0  0  0  0  0  0  0  0  0
   38.0580   24.3810   37.6720 C   0  0  0  0  0  0  0  0  0  0  0  0
   43.8177   27.2516   34.1238 H   0  0  0  0  0  0  0  0  0  0  0  0
   41.8072   26.2101   35.2261 H   0  0  0  0  0  0  0  0  0  0  0  0
   41.5888   28.0846   30.6350 H   0  0  0  0  0  0  0  0  0  0  0  0
   38.0812   27.7199   34.2678 H   0  0  0  0  0  0  0  0  0  0  0  0
   37.2933   26.4468   33.4254 H   0  0  0  0  0  0  0  0  0  0  0  0
   38.4696   26.2934   36.3550 H   0  0  0  0  0  0  0  0  0  0  0  0
   36.7834   26.2172   36.0399 H   0  0  0  0  0  0  0  0  0  0  0  0
   37.1080   24.0949   34.6220 H   0  0  0  0  0  0  0  0  0  0  0  0
   39.2419   23.9730   33.5356 H   0  0  0  0  0  0  0  0  0  0  0  0
   40.1113   24.3453   35.0359 H   0  0  0  0  0  0  0  0  0  0  0  0
   37.4334   22.8440   36.2613 H   0  0  0  0  0  0  0  0  0  0  0  0
   39.8027   22.2948   35.8437 H   0  0  0  0  0  0  0  0  0  0  0  0
   40.3323   23.9605   36.0710 H   0  0  0  0  0  0  0  0  0  0  0  0
   40.0298   21.8155   38.0639 H   0  0  0  0  0  0  0  0  0  0  0  0
   40.7762   23.4096   38.2891 H   0  0  0  0  0  0  0  0  0  0  0  0
   37.9374   22.5224   38.8251 H   0  0  0  0  0  0  0  0  0  0  0  0
   38.8346   23.7584   39.6599 H   0  0  0  0  0  0  0  0  0  0  0  0
   38.6492   25.3086   37.6636 H   0  0  0  0  0  0  0  0  0  0  0  0
   37.0355   24.7086   37.9110 H   0  0  0  0  0  0  0  0  0  0  0  0
  1  2  2  0
  3  7  1  0
  3  2  1  0
  4  3  2  0
  5  4  1  0
  5  6  2  0
  6  1  1  0
  7  8  1  0
  7 11  1  0
  8  9  1  0
 10  9  1  0
 10 12  1  0
 11 10  1  0
 12 13  1  0
 12 16  1  0
 13 14  1  0
 14 15  1  0
 16 15  1  0
  1 17  1  0
  2 18  1  0
  5 19  1  0
  8 20  1  0
  8 21  1  0
  9 22  1  0
  9 23  1  0
 10 24  1  6
 11 25  1  0
 11 26  1  0
 12 27  1  0
 13 28  1  0
 13 29  1  0
 14 30  1  0
 14 31  1  0
 15 32  1  0
 15 33  1  0
 16 34  1  0
 16 35  1  0
M  ISO  8  17  14  18  14  19  14  20  13  21  13  22  13  23  13  24  13
M  ISO  8  25  13  26  13  27  13  28  13  29  13  30  13  31  13  32  13
M  ISO  3  33  13  34  13  35  13
M  END
>  <minimizedAffinity>  (1) 
-4.26896954

>  <minimizedRMSD>  (1) 
4.98763323

$$$$
