
     RDKit          3D

 29 30  0  0  1  0  0  0  0  0999 V2000
   39.2160   22.8970   37.6780 C   0  0  0  0  0  0  0  0  0  0  0  0
   38.8790   23.7950   36.6510 C   0  0  0  0  0  0  0  0  0  0  0  0
   39.9190   24.1280   35.7550 C   0  0  0  0  0  0  0  0  0  0  0  0
   41.1640   23.5790   35.9230 N   0  0  0  0  0  0  0  0  0  0  0  0
   41.4140   22.7170   36.9400 C   0  0  0  0  0  0  0  0  0  0  0  0
   40.4470   22.3840   37.8070 N   0  0  0  0  0  0  0  0  0  0  0  0
   39.7200   25.0230   34.6770 N   0  0  0  0  0  0  0  0  0  0  0  0
   40.3520   26.3100   34.3820 C   0  0  0  0  0  0  0  0  0  0  0  0
   39.1140   27.0790   33.9280 C   0  0  0  0  0  0  0  0  0  0  0  0
   38.6350   26.1080   32.8630 C   0  0  1  0  0  0  0  0  0  0  0  0
   38.7760   24.7800   33.6080 C   0  0  0  0  0  0  0  0  0  0  0  0
   37.2240   26.2670   32.5930 N   0  0  0  0  0  0  0  0  0  0  0  0
   36.9520   26.1560   31.1960 C   0  0  0  0  0  0  0  0  0  0  0  0
   37.7130   26.1550   30.1620 N   0  0  0  0  0  0  0  0  0  0  0  0
   35.6230   26.0120   30.6670 N   0  0  0  0  0  0  0  0  0  0  0  0
   38.7420   26.2390   30.1460 H   0  0  0  0  0  0  0  0  0  0  0  0
   38.4412   22.6047   38.4021 H   0  0  0  0  0  0  0  0  0  0  0  0
   37.8666   24.2133   36.5509 H   0  0  0  0  0  0  0  0  0  0  0  0
   42.4199   22.2869   37.0546 H   0  0  0  0  0  0  0  0  0  0  0  0
   40.8129   26.7584   35.2745 H   0  0  0  0  0  0  0  0  0  0  0  0
   41.1821   26.2775   33.6610 H   0  0  0  0  0  0  0  0  0  0  0  0
   38.3806   27.2024   34.7385 H   0  0  0  0  0  0  0  0  0  0  0  0
   39.2856   28.1129   33.5941 H   0  0  0  0  0  0  0  0  0  0  0  0
   39.1752   26.2211   31.9115 H   0  0  0  0  0  0  0  0  0  0  0  0
   37.8049   24.4669   34.0190 H   0  0  0  0  0  0  0  0  0  0  0  0
   39.1205   23.9769   32.9399 H   0  0  0  0  0  0  0  0  0  0  0  0
   36.5086   26.4380   33.3140 H   0  0  0  0  0  0  0  0  0  0  0  0
   35.4790   25.9357   29.6500 H   0  0  0  0  0  0  0  0  0  0  0  0
   34.8148   25.9851   31.3050 H   0  0  0  0  0  0  0  0  0  0  0  0
  1  6  2  0
  2  1  1  0
  3  4  1  0
  3  2  2  0
  4  5  2  0
  5  6  1  0
  7  3  1  0
  8  7  1  0
  9  8  1  0
 10 11  1  0
 10  9  1  0
 11  7  1  0
 12 10  1  0
 13 12  1  0
 14 13  2  0
 15 13  1  0
 16 14  1  0
  1 17  1  0
  2 18  1  0
  5 19  1  0
  8 20  1  0
  8 21  1  0
  9 22  1  0
  9 23  1  0
 10 24  1  6
 11 25  1  0
 11 26  1  0
 12 27  1  0
 15 28  1  0
 15 29  1  0
M  ISO  8  17  14  18  14  19  14  20  13  21  13  22  13  23  13  24  13
M  ISO  2  25  13  26  13
M  END
>  <minimizedAffinity>  (1) 
-4.12655783

>  <minimizedRMSD>  (1) 
2.90923882

$$$$
