
     RDKit          3D

 23 24  0  0  1  0  0  0  0  0999 V2000
   40.3230   22.1340   37.5510 C   0  0  0  0  0  0  0  0  0  0  0  0
   39.6850   23.2850   37.0600 C   0  0  0  0  0  0  0  0  0  0  0  0
   40.1630   23.8250   35.8530 C   0  0  0  0  0  0  0  0  0  0  0  0
   41.2240   23.2070   35.2150 N   0  0  0  0  0  0  0  0  0  0  0  0
   41.7960   22.0910   35.7480 C   0  0  0  0  0  0  0  0  0  0  0  0
   41.3480   21.5670   36.9010 N   0  0  0  0  0  0  0  0  0  0  0  0
   39.6220   24.9710   35.2440 N   0  0  0  0  0  0  0  0  0  0  0  0
   40.2030   26.2520   34.9130 C   0  0  0  0  0  0  0  0  0  0  0  0
   39.0370   27.1520   35.3240 C   0  0  0  0  0  0  0  0  0  0  0  0
   37.9390   26.4880   34.5040 C   0  0  1  0  0  0  0  0  0  0  0  0
   38.2240   25.0280   34.8100 C   0  0  0  0  0  0  0  0  0  0  0  0
   36.7360   26.8950   35.0240 O   0  0  0  0  0  0  0  0  0  0  0  0
   39.9722   21.6870   38.4929 H   0  0  0  0  0  0  0  0  0  0  0  0
   38.8441   23.7460   37.5988 H   0  0  0  0  0  0  0  0  0  0  0  0
   42.6375   21.6118   35.2262 H   0  0  0  0  0  0  0  0  0  0  0  0
   41.1105   26.4580   35.4995 H   0  0  0  0  0  0  0  0  0  0  0  0
   40.5453   26.3636   33.8736 H   0  0  0  0  0  0  0  0  0  0  0  0
   38.8354   27.1017   36.4042 H   0  0  0  0  0  0  0  0  0  0  0  0
   39.1796   28.2285   35.1482 H   0  0  0  0  0  0  0  0  0  0  0  0
   37.9081   26.7082   33.4267 H   0  0  0  0  0  0  0  0  0  0  0  0
   37.5605   24.6688   35.6105 H   0  0  0  0  0  0  0  0  0  0  0  0
   38.0492   24.3908   33.9306 H   0  0  0  0  0  0  0  0  0  0  0  0
   36.7817   26.8795   36.0128 H   0  0  0  0  0  0  0  0  0  0  0  0
  2  1  2  0
  3  2  1  0
  4  5  1  0
  4  3  2  0
  5  6  2  0
  6  1  1  0
  7  3  1  0
  8  7  1  0
  8  9  1  0
 10 11  1  0
 10 12  1  0
 10  9  1  0
 11  7  1  0
  1 13  1  0
  2 14  1  0
  5 15  1  0
  8 16  1  0
  8 17  1  0
  9 18  1  0
  9 19  1  0
 10 20  1  6
 11 21  1  0
 11 22  1  0
 12 23  1  0
M  ISO  8  13  14  14  14  15  14  16  13  17  13  18  13  19  13  20  13
M  ISO  3  21  13  22  13  23   3
M  END
>  <minimizedAffinity>  (1) 
-3.41264343

>  <minimizedRMSD>  (1) 
0.677538395

$$$$
