
     RDKit          3D

 24 25  0  0  1  0  0  0  0  0999 V2000
   40.3600   22.1930   37.5190 C   0  0  0  0  0  0  0  0  0  0  0  0
   39.6710   23.3580   37.1900 C   0  0  0  0  0  0  0  0  0  0  0  0
   39.8360   23.8990   35.9170 C   0  0  0  0  0  0  0  0  0  0  0  0
   40.6760   23.2590   35.0300 N   0  0  0  0  0  0  0  0  0  0  0  0
   41.3340   22.1220   35.3850 C   0  0  0  0  0  0  0  0  0  0  0  0
   41.1720   21.5980   36.6240 N   0  0  0  0  0  0  0  0  0  0  0  0
   39.1830   25.0720   35.4920 N   0  0  0  0  0  0  0  0  0  0  0  0
   39.7090   26.3500   35.0420 C   0  0  0  0  0  0  0  0  0  0  0  0
   38.7070   27.2630   35.7370 C   0  0  0  0  0  0  0  0  0  0  0  0
   37.4200   26.6510   35.2170 C   0  0  2  0  0  0  0  0  0  0  0  0
   37.7300   25.1850   35.4350 C   0  0  0  0  0  0  0  0  0  0  0  0
   37.2560   26.8980   33.7690 C   0  0  0  0  0  0  0  0  0  0  0  0
   36.7870   26.2760   32.8330 O   0  0  0  0  0  0  0  0  0  0  0  0
   40.2397   21.7542   38.5205 H   0  0  0  0  0  0  0  0  0  0  0  0
   39.0084   23.8422   37.9224 H   0  0  0  0  0  0  0  0  0  0  0  0
   42.0000   21.6264   34.6633 H   0  0  0  0  0  0  0  0  0  0  0  0
   40.7378   26.5212   35.3917 H   0  0  0  0  0  0  0  0  0  0  0  0
   39.7938   26.4750   33.9524 H   0  0  0  0  0  0  0  0  0  0  0  0
   38.7809   27.1970   36.8325 H   0  0  0  0  0  0  0  0  0  0  0  0
   38.8318   28.3376   35.5379 H   0  0  0  0  0  0  0  0  0  0  0  0
   36.5071   27.0363   35.6946 H   0  0  0  0  0  0  0  0  0  0  0  0
   37.2848   24.8390   36.3795 H   0  0  0  0  0  0  0  0  0  0  0  0
   37.3148   24.5664   34.6257 H   0  0  0  0  0  0  0  0  0  0  0  0
   37.6523   27.8778   33.4640 H   0  0  0  0  0  0  0  0  0  0  0  0
  2  1  2  0
  3  2  1  0
  4  5  1  0
  4  3  2  0
  5  6  2  0
  6  1  1  0
  7  3  1  0
  8  7  1  0
  8  9  1  0
 10 11  1  0
 10  9  1  0
 11  7  1  0
 12 10  1  0
 13 12  2  0
  1 14  1  0
  2 15  1  0
  5 16  1  0
  8 17  1  0
  8 18  1  0
  9 19  1  0
  9 20  1  0
 10 21  1  1
 11 22  1  0
 11 23  1  0
 12 24  1  0
M  ISO  8  14  14  15  14  16  14  17  13  18  13  19  13  20  13  21  13
M  ISO  3  22  13  23  13  24   6
M  END
>  <minimizedAffinity>  (1) 
-3.71314907

>  <minimizedRMSD>  (1) 
0.679587781

$$$$
