
     RDKit          3D

 34 36  0  0  1  0  0  0  0  0999 V2000
   41.0440   21.8590   37.4710 C   0  0  0  0  0  0  0  0  0  0  0  0
   40.8360   23.0320   36.7350 C   0  0  0  0  0  0  0  0  0  0  0  0
   41.6100   23.2260   35.5720 C   0  0  0  0  0  0  0  0  0  0  0  0
   42.5130   22.2590   35.2360 N   0  0  0  0  0  0  0  0  0  0  0  0
   42.6880   21.1330   35.9730 C   0  0  0  0  0  0  0  0  0  0  0  0
   41.9530   20.9360   37.0890 N   0  0  0  0  0  0  0  0  0  0  0  0
   41.4930   24.3660   34.7480 N   0  0  0  0  0  0  0  0  0  0  0  0
   42.4700   25.3900   34.4050 C   0  0  0  0  0  0  0  0  0  0  0  0
   41.5310   26.6080   34.5020 C   0  0  0  0  0  0  0  0  0  0  0  0
   40.4280   26.1340   33.5770 C   0  0  1  0  0  0  0  0  0  0  0  0
   40.2490   24.7020   34.0640 C   0  0  0  0  0  0  0  0  0  0  0  0
   39.2250   26.8320   33.9530 N   0  0  0  0  0  0  0  0  0  0  0  0
   38.0080   26.1170   33.6760 C   0  0  0  0  0  0  0  0  0  0  0  0
   36.9870   27.0390   34.3480 C   0  0  0  0  0  0  0  0  0  0  0  0
   37.7630   27.7030   35.4830 C   0  0  0  0  0  0  0  0  0  0  0  0
   39.1530   27.1020   35.3710 C   0  0  0  0  0  0  0  0  0  0  0  0
   40.4528   21.6851   38.3822 H   0  0  0  0  0  0  0  0  0  0  0  0
   40.0930   23.7780   37.0536 H   0  0  0  0  0  0  0  0  0  0  0  0
   43.4281   20.3811   35.6617 H   0  0  0  0  0  0  0  0  0  0  0  0
   42.8784   25.2562   33.3924 H   0  0  0  0  0  0  0  0  0  0  0  0
   43.3773   25.4244   35.0259 H   0  0  0  0  0  0  0  0  0  0  0  0
   41.1681   26.7679   35.5280 H   0  0  0  0  0  0  0  0  0  0  0  0
   41.9839   27.5756   34.2399 H   0  0  0  0  0  0  0  0  0  0  0  0
   40.6305   26.2629   32.5035 H   0  0  0  0  0  0  0  0  0  0  0  0
   39.3982   24.6352   34.7581 H   0  0  0  0  0  0  0  0  0  0  0  0
   40.0396   24.0112   33.2339 H   0  0  0  0  0  0  0  0  0  0  0  0
   37.8258   26.0281   32.5948 H   0  0  0  0  0  0  0  0  0  0  0  0
   37.9942   25.0772   34.0347 H   0  0  0  0  0  0  0  0  0  0  0  0
   36.6161   27.7923   33.6374 H   0  0  0  0  0  0  0  0  0  0  0  0
   36.1028   26.4929   34.7084 H   0  0  0  0  0  0  0  0  0  0  0  0
   37.7959   28.7943   35.3493 H   0  0  0  0  0  0  0  0  0  0  0  0
   37.3042   27.5335   36.4683 H   0  0  0  0  0  0  0  0  0  0  0  0
   39.2426   26.1791   35.9627 H   0  0  0  0  0  0  0  0  0  0  0  0
   39.9579   27.7488   35.7502 H   0  0  0  0  0  0  0  0  0  0  0  0
  2  1  2  0
  3  2  1  0
  4  3  2  0
  4  5  1  0
  5  6  2  0
  6  1  1  0
  7  3  1  0
  8  9  1  0
  8  7  1  0
 10 12  1  0
 10 11  1  0
 10  9  1  0
 11  7  1  0
 12 13  1  0
 12 16  1  0
 13 14  1  0
 14 15  1  0
 16 15  1  0
  1 17  1  0
  2 18  1  0
  5 19  1  0
  8 20  1  0
  8 21  1  0
  9 22  1  0
  9 23  1  0
 10 24  1  6
 11 25  1  0
 11 26  1  0
 13 27  1  0
 13 28  1  0
 14 29  1  0
 14 30  1  0
 15 31  1  0
 15 32  1  0
 16 33  1  0
 16 34  1  0
M  ISO  8  17  14  18  14  19  14  20  13  21  13  22  13  23  13  24  13
M  ISO  8  25  13  26  13  27  13  28  13  29  13  30  13  31  13  32  13
M  ISO  2  33  13  34  13
M  END
>  <minimizedAffinity>  (1) 
-3.90914559

>  <minimizedRMSD>  (1) 
2.89127564

$$$$
