
     RDKit          3D

 40 42  0  0  1  0  0  0  0  0999 V2000
   37.8300   24.2370   37.8250 C   0  0  0  0  0  0  0  0  0  0  0  0
   37.9240   24.4350   36.4450 C   0  0  0  0  0  0  0  0  0  0  0  0
   38.9550   23.8110   35.7440 C   0  0  0  0  0  0  0  0  0  0  0  0
   39.8120   23.0410   36.4560 N   0  0  0  0  0  0  0  0  0  0  0  0
   39.7040   22.8600   37.7940 C   0  0  0  0  0  0  0  0  0  0  0  0
   38.7110   23.4610   38.4730 N   0  0  0  0  0  0  0  0  0  0  0  0
   39.1400   23.9520   34.3610 N   0  0  0  0  0  0  0  0  0  0  0  0
   40.2800   24.4810   33.6040 C   0  0  0  0  0  0  0  0  0  0  0  0
   39.5070   25.2010   32.5080 C   0  0  0  0  0  0  0  0  0  0  0  0
   38.5310   24.2130   32.1080 C   0  0  1  0  0  0  0  0  0  0  0  0
   38.1420   23.5530   33.3900 C   0  0  0  0  0  0  0  0  0  0  0  0
   37.3200   24.8240   31.6600 N   0  0  0  0  0  0  0  0  0  0  0  0
   36.2020   24.0190   31.6400 C   0  0  0  0  0  0  0  0  0  0  0  0
   35.1470   25.0090   31.1610 C   0  0  0  0  0  0  0  0  0  0  0  0
   35.7750   26.3700   31.4020 C   0  0  0  0  0  0  0  0  0  0  0  0
   37.1090   26.0850   32.1010 C   0  0  1  0  0  0  0  0  0  0  0  0
   36.9490   26.6780   33.3920 C   0  0  0  0  0  0  0  0  0  0  0  0
   36.5050   28.1390   33.1280 C   0  0  0  0  0  0  0  0  0  0  0  0
   37.0211   24.7251   38.3884 H   0  0  0  0  0  0  0  0  0  0  0  0
   37.1969   25.0724   35.9206 H   0  0  0  0  0  0  0  0  0  0  0  0
   40.4271   22.2227   38.3241 H   0  0  0  0  0  0  0  0  0  0  0  0
   40.8908   25.1723   34.2032 H   0  0  0  0  0  0  0  0  0  0  0  0
   41.0135   23.7362   33.2615 H   0  0  0  0  0  0  0  0  0  0  0  0
   39.0186   26.1069   32.8963 H   0  0  0  0  0  0  0  0  0  0  0  0
   40.1429   25.5474   31.6800 H   0  0  0  0  0  0  0  0  0  0  0  0
   38.9470   23.5698   31.3186 H   0  0  0  0  0  0  0  0  0  0  0  0
   37.1440   23.8903   33.7065 H   0  0  0  0  0  0  0  0  0  0  0  0
   38.0969   22.4591   33.2835 H   0  0  0  0  0  0  0  0  0  0  0  0
   36.3192   23.1806   30.9376 H   0  0  0  0  0  0  0  0  0  0  0  0
   35.9709   23.5360   32.6009 H   0  0  0  0  0  0  0  0  0  0  0  0
   34.2184   24.9000   31.7404 H   0  0  0  0  0  0  0  0  0  0  0  0
   34.8713   24.8533   30.1076 H   0  0  0  0  0  0  0  0  0  0  0  0
   35.9441   26.8902   30.4477 H   0  0  0  0  0  0  0  0  0  0  0  0
   35.1257   27.0184   32.0087 H   0  0  0  0  0  0  0  0  0  0  0  0
   38.1205   26.4911   31.9530 H   0  0  0  0  0  0  0  0  0  0  0  0
   36.1808   26.1415   33.9683 H   0  0  0  0  0  0  0  0  0  0  0  0
   37.8792   26.6350   33.9775 H   0  0  0  0  0  0  0  0  0  0  0  0
   36.3486   28.6537   34.0875 H   0  0  0  0  0  0  0  0  0  0  0  0
   37.2850   28.6613   32.5546 H   0  0  0  0  0  0  0  0  0  0  0  0
   35.5663   28.1390   32.5546 H   0  0  0  0  0  0  0  0  0  0  0  0
  1  6  2  0
  2  1  1  0
  3  2  2  0
  3  4  1  0
  4  5  2  0
  5  6  1  0
  7  3  1  0
  8  7  1  0
  9  8  1  0
 10  9  1  0
 10 11  1  0
 11  7  1  0
 12 13  1  0
 12 16  1  0
 12 10  1  0
 14 15  1  0
 14 13  1  0
 15 16  1  0
 16 17  1  0
 18 17  1  0
  1 19  1  0
  2 20  1  0
  5 21  1  0
  8 22  1  0
  8 23  1  0
  9 24  1  0
  9 25  1  0
 10 26  1  6
 11 27  1  0
 11 28  1  0
 13 29  1  0
 13 30  1  0
 14 31  1  0
 14 32  1  0
 15 33  1  0
 15 34  1  0
 16 35  1  6
 17 36  1  0
 17 37  1  0
 18 38  1  0
 18 39  1  0
 18 40  1  0
M  ISO  8  19  14  20  14  21  14  22  13  23  13  24  13  25  13  26  13
M  ISO  8  27  13  28  13  29  13  30  13  31  13  32  13  33  13  34  13
M  ISO  6  35  13  36   8  37   8  38   8  39   8  40   8
M  END
>  <minimizedAffinity>  (1) 
-4.7478404

>  <minimizedRMSD>  (1) 
3.697155

$$$$
