
     RDKit          3D

 43 45  0  0  1  0  0  0  0  0999 V2000
   39.5340   22.7660   37.2520 C   0  0  0  0  0  0  0  0  0  0  0  0
   39.5190   23.7370   36.2420 C   0  0  0  0  0  0  0  0  0  0  0  0
   40.6820   24.0370   35.5390 C   0  0  0  0  0  0  0  0  0  0  0  0
   41.8000   23.3510   35.8820 N   0  0  0  0  0  0  0  0  0  0  0  0
   41.8030   22.4090   36.8650 C   0  0  0  0  0  0  0  0  0  0  0  0
   40.6700   22.1200   37.5460 N   0  0  0  0  0  0  0  0  0  0  0  0
   40.7430   24.9940   34.5210 N   0  0  0  0  0  0  0  0  0  0  0  0
   41.5450   26.2100   34.4230 C   0  0  0  0  0  0  0  0  0  0  0  0
   40.4880   27.1160   33.7560 C   0  0  0  0  0  0  0  0  0  0  0  0
   40.0000   26.2750   32.6930 C   0  0  1  0  0  0  0  0  0  0  0  0
   39.9560   24.9010   33.3090 C   0  0  0  0  0  0  0  0  0  0  0  0
   38.6090   26.5430   32.4180 N   0  0  0  0  0  0  0  0  0  0  0  0
   37.8720   25.4870   31.9270 C   0  0  0  0  0  0  0  0  0  0  0  0
   36.5120   26.1590   31.7630 C   0  0  0  0  0  0  0  0  0  0  0  0
   36.6050   27.3820   32.6220 C   0  0  0  0  0  0  0  0  0  0  0  0
   37.9800   27.3340   33.3120 C   0  0  1  0  0  0  0  0  0  0  0  0
   37.5650   27.2060   34.7030 C   0  0  0  0  0  0  0  0  0  0  0  0
   38.6040   27.4890   35.7660 C   0  0  0  0  0  0  0  0  0  0  0  0
   37.2130   25.7250   34.9180 C   0  0  0  0  0  0  0  0  0  0  0  0
   38.6115   22.5338   37.8043 H   0  0  0  0  0  0  0  0  0  0  0  0
   38.5837   24.2646   36.0036 H   0  0  0  0  0  0  0  0  0  0  0  0
   42.7352   21.8779   37.1079 H   0  0  0  0  0  0  0  0  0  0  0  0
   41.8524   26.5863   35.4099 H   0  0  0  0  0  0  0  0  0  0  0  0
   42.5021   26.1137   33.8894 H   0  0  0  0  0  0  0  0  0  0  0  0
   39.6841   27.3773   34.4599 H   0  0  0  0  0  0  0  0  0  0  0  0
   40.8861   28.0814   33.4103 H   0  0  0  0  0  0  0  0  0  0  0  0
   40.6166   26.4094   31.7920 H   0  0  0  0  0  0  0  0  0  0  0  0
   38.9193   24.6186   33.5447 H   0  0  0  0  0  0  0  0  0  0  0  0
   40.3497   24.1347   32.6250 H   0  0  0  0  0  0  0  0  0  0  0  0
   38.2669   25.1269   30.9656 H   0  0  0  0  0  0  0  0  0  0  0  0
   37.8695   24.5905   32.5645 H   0  0  0  0  0  0  0  0  0  0  0  0
   36.3352   26.4320   30.7122 H   0  0  0  0  0  0  0  0  0  0  0  0
   35.6782   25.5021   32.0514 H   0  0  0  0  0  0  0  0  0  0  0  0
   36.5230   28.2874   32.0027 H   0  0  0  0  0  0  0  0  0  0  0  0
   35.7916   27.4087   33.3620 H   0  0  0  0  0  0  0  0  0  0  0  0
   38.7858   28.0616   33.4889 H   0  0  0  0  0  0  0  0  0  0  0  0
   36.7633   27.9494   34.8241 H   0  0  0  0  0  0  0  0  0  0  0  0
   38.1528   27.3661   36.7617 H   0  0  0  0  0  0  0  0  0  0  0  0
   39.4433   26.7867   35.6546 H   0  0  0  0  0  0  0  0  0  0  0  0
   38.9712   28.5199   35.6546 H   0  0  0  0  0  0  0  0  0  0  0  0
   37.1626   25.5129   35.9962 H   0  0  0  0  0  0  0  0  0  0  0  0
   36.2385   25.5089   34.4558 H   0  0  0  0  0  0  0  0  0  0  0  0
   37.9861   25.0935   34.4558 H   0  0  0  0  0  0  0  0  0  0  0  0
  1  6  2  0
  2  1  1  0
  3  4  1  0
  3  2  2  0
  4  5  2  0
  5  6  1  0
  7  3  1  0
  8  7  1  0
  9  8  1  0
 10 11  1  0
 10  9  1  0
 11  7  1  0
 12 13  1  0
 12 10  1  0
 12 16  1  0
 14 13  1  0
 14 15  1  0
 15 16  1  0
 16 17  1  0
 17 19  1  0
 17 18  1  0
  1 20  1  0
  2 21  1  0
  5 22  1  0
  8 23  1  0
  8 24  1  0
  9 25  1  0
  9 26  1  0
 10 27  1  6
 11 28  1  0
 11 29  1  0
 13 30  1  0
 13 31  1  0
 14 32  1  0
 14 33  1  0
 15 34  1  0
 15 35  1  0
 16 36  1  1
 17 37  1  0
 18 38  1  0
 18 39  1  0
 18 40  1  0
 19 41  1  0
 19 42  1  0
 19 43  1  0
M  ISO  8  20  14  21  14  22  14  23  13  24  13  25  13  26  13  27  13
M  ISO  8  28  13  29  13  30  13  31  13  32  13  33  13  34  13  35  13
M  ISO  8  36  13  37   8  38   8  39   8  40   8  41   8  42   8  43   8
M  END
>  <minimizedAffinity>  (1) 
-4.60586262

>  <minimizedRMSD>  (1) 
1.98816538

$$$$
