
     RDKit          3D

 52 55  0  0  1  0  0  0  0  0999 V2000
   45.4800   25.6630   38.5310 C   0  0  0  0  0  0  0  0  0  0  0  0
   44.5320   25.6290   37.4880 C   0  0  0  0  0  0  0  0  0  0  0  0
   44.7250   24.8100   36.3840 C   0  0  0  0  0  0  0  0  0  0  0  0
   45.8430   24.0620   36.3600 N   0  0  0  0  0  0  0  0  0  0  0  0
   46.7620   24.0870   37.3590 C   0  0  0  0  0  0  0  0  0  0  0  0
   46.5830   24.8820   38.4380 N   0  0  0  0  0  0  0  0  0  0  0  0
   43.8150   24.7380   35.3290 N   0  0  0  0  0  0  0  0  0  0  0  0
   43.9900   25.0220   33.8980 C   0  0  0  0  0  0  0  0  0  0  0  0
   42.6340   25.6970   33.6560 C   0  0  0  0  0  0  0  0  0  0  0  0
   41.7140   24.7560   34.2610 C   0  0  1  0  0  0  0  0  0  0  0  0
   42.4300   24.3310   35.4920 C   0  0  0  0  0  0  0  0  0  0  0  0
   40.5390   25.3990   34.7530 N   0  0  0  0  0  0  0  0  0  0  0  0
   40.5220   26.7450   34.8270 C   0  0  0  0  0  0  0  0  0  0  0  0
   39.1020   26.9930   35.3260 C   0  0  0  0  0  0  0  0  0  0  0  0
   38.3420   25.7110   35.0020 C   0  0  0  0  0  0  0  0  0  0  0  0
   39.3640   24.8630   34.2500 C   0  0  1  0  0  0  0  0  0  0  0  0
   39.0510   25.0020   32.9110 N   0  0  0  0  0  0  0  0  0  0  0  0
   37.7150   25.1270   32.4720 C   0  0  0  0  0  0  0  0  0  0  0  0
   37.0430   23.7860   32.2190 C   0  0  0  0  0  0  0  0  0  0  0  0
   36.0690   23.7980   31.0820 C   0  0  0  0  0  0  0  0  0  0  0  0
   35.1940   24.9970   30.9870 C   0  0  0  0  0  0  0  0  0  0  0  0
   35.8210   26.2530   31.5230 C   0  0  0  0  0  0  0  0  0  0  0  0
   37.3510   26.0560   31.3910 C   0  0  0  0  0  0  0  0  0  0  0  0
   45.3266   26.3126   39.4054 H   0  0  0  0  0  0  0  0  0  0  0  0
   43.6312   26.2572   37.5497 H   0  0  0  0  0  0  0  0  0  0  0  0
   47.6598   23.4552   37.2900 H   0  0  0  0  0  0  0  0  0  0  0  0
   44.8346   25.7002   33.7066 H   0  0  0  0  0  0  0  0  0  0  0  0
   44.2250   24.1598   33.2566 H   0  0  0  0  0  0  0  0  0  0  0  0
   42.5830   26.6787   34.1496 H   0  0  0  0  0  0  0  0  0  0  0  0
   42.4244   25.9012   32.5956 H   0  0  0  0  0  0  0  0  0  0  0  0
   41.4330   23.9763   33.5377 H   0  0  0  0  0  0  0  0  0  0  0  0
   42.3668   23.2392   35.6098 H   0  0  0  0  0  0  0  0  0  0  0  0
   41.9850   24.7893   36.3875 H   0  0  0  0  0  0  0  0  0  0  0  0
   41.2715   27.1196   35.5397 H   0  0  0  0  0  0  0  0  0  0  0  0
   40.7652   27.2535   33.8824 H   0  0  0  0  0  0  0  0  0  0  0  0
   39.1000   27.1805   36.4099 H   0  0  0  0  0  0  0  0  0  0  0  0
   38.6455   27.8753   34.8536 H   0  0  0  0  0  0  0  0  0  0  0  0
   38.0150   25.2058   35.9228 H   0  0  0  0  0  0  0  0  0  0  0  0
   37.4282   25.8940   34.4177 H   0  0  0  0  0  0  0  0  0  0  0  0
   39.4146   23.7706   34.3685 H   0  0  0  0  0  0  0  0  0  0  0  0
   39.5438   25.8453   32.5840 H   0  0  0  0  0  0  0  0  0  0  0  0
   37.3262   25.6391   33.3645 H   0  0  0  0  0  0  0  0  0  0  0  0
   37.8242   23.0439   31.9975 H   0  0  0  0  0  0  0  0  0  0  0  0
   36.4707   23.5406   33.1258 H   0  0  0  0  0  0  0  0  0  0  0  0
   36.6427   23.7248   30.1463 H   0  0  0  0  0  0  0  0  0  0  0  0
   35.3921   22.9498   31.2618 H   0  0  0  0  0  0  0  0  0  0  0  0
   34.9433   25.1597   29.9284 H   0  0  0  0  0  0  0  0  0  0  0  0
   34.3069   24.7944   31.6051 H   0  0  0  0  0  0  0  0  0  0  0  0
   35.4956   27.1237   30.9348 H   0  0  0  0  0  0  0  0  0  0  0  0
   35.5269   26.4363   32.5670 H   0  0  0  0  0  0  0  0  0  0  0  0
   37.6012   25.6242   30.4107 H   0  0  0  0  0  0  0  0  0  0  0  0
   37.8962   27.0084   31.4665 H   0  0  0  0  0  0  0  0  0  0  0  0
  2  1  2  0
  3  2  1  0
  4  3  2  0
  4  5  1  0
  5  6  2  0
  6  1  1  0
  7 11  1  0
  7  3  1  0
  8  7  1  0
  9  8  1  0
  9 10  1  0
 10 12  1  0
 10 11  1  0
 12 13  1  0
 13 14  1  0
 15 14  1  0
 16 12  1  0
 16 15  1  0
 17 16  1  0
 18 17  1  0
 19 18  1  0
 20 19  1  0
 21 20  1  0
 21 22  1  0
 23 22  1  0
 23 18  1  0
  1 24  1  0
  2 25  1  0
  5 26  1  0
  8 27  1  0
  8 28  1  0
  9 29  1  0
  9 30  1  0
 10 31  1  6
 11 32  1  0
 11 33  1  0
 13 34  1  0
 13 35  1  0
 14 36  1  0
 14 37  1  0
 15 38  1  0
 15 39  1  0
 16 40  1  1
 17 41  1  0
 18 42  1  0
 19 43  1  0
 19 44  1  0
 20 45  1  0
 20 46  1  0
 21 47  1  0
 21 48  1  0
 22 49  1  0
 22 50  1  0
 23 51  1  0
 23 52  1  0
M  ISO  8  24  14  25  14  26  14  27  13  28  13  29  13  30  13  31  13
M  ISO  8  32  13  33  13  34  13  35  13  36  13  37  13  38  13  39  13
M  ISO  8  40  13  41   5  42  13  43  13  44  13  45  13  46  13  47  13
M  ISO  5  48  13  49  13  50  13  51  13  52  13
M  END
>  <minimizedAffinity>  (1) 
-5.21466446

>  <minimizedRMSD>  (1) 
4.96940327

$$$$
