
     RDKit          3D

 39 41  0  0  1  0  0  0  0  0999 V2000
   37.8310   24.2260   37.7970 C   0  0  0  0  0  0  0  0  0  0  0  0
   37.9380   24.3410   36.4030 C   0  0  0  0  0  0  0  0  0  0  0  0
   38.9780   23.6700   35.7310 C   0  0  0  0  0  0  0  0  0  0  0  0
   39.8310   22.9410   36.4800 N   0  0  0  0  0  0  0  0  0  0  0  0
   39.7240   22.8350   37.8260 C   0  0  0  0  0  0  0  0  0  0  0  0
   38.7230   23.4780   38.4790 N   0  0  0  0  0  0  0  0  0  0  0  0
   39.1490   23.7290   34.3400 N   0  0  0  0  0  0  0  0  0  0  0  0
   40.2610   24.2000   33.5390 C   0  0  0  0  0  0  0  0  0  0  0  0
   39.4530   24.9090   32.4360 C   0  0  0  0  0  0  0  0  0  0  0  0
   38.5060   23.8680   32.0770 C   0  0  1  0  0  0  0  0  0  0  0  0
   38.1430   23.2820   33.3970 C   0  0  0  0  0  0  0  0  0  0  0  0
   37.2740   24.3950   31.5950 N   0  0  0  0  0  0  0  0  0  0  0  0
   36.1550   23.6640   31.7190 C   0  0  0  0  0  0  0  0  0  0  0  0
   35.1020   24.6300   31.1690 C   0  0  0  0  0  0  0  0  0  0  0  0
   35.7770   25.9960   31.2050 C   0  0  0  0  0  0  0  0  0  0  0  0
   37.0870   25.7570   31.9190 C   0  0  1  0  0  0  0  0  0  0  0  0
   36.9110   26.1150   33.2440 N   0  0  0  0  0  0  0  0  0  0  0  0
   37.1640   27.4780   33.5600 C   0  0  0  0  0  0  0  0  0  0  0  0
   36.0910   28.2680   33.8770 F   0  0  0  0  0  0  0  0  0  0  0  0
   37.8580   28.1430   32.5490 F   0  0  0  0  0  0  0  0  0  0  0  0
   38.0050   27.5690   34.6950 F   0  0  0  0  0  0  0  0  0  0  0  0
   37.0220   24.7443   38.3326 H   0  0  0  0  0  0  0  0  0  0  0  0
   37.2158   24.9501   35.8396 H   0  0  0  0  0  0  0  0  0  0  0  0
   40.4480   22.2281   38.3895 H   0  0  0  0  0  0  0  0  0  0  0  0
   40.9074   24.8962   34.0935 H   0  0  0  0  0  0  0  0  0  0  0  0
   40.9676   23.4294   33.1972 H   0  0  0  0  0  0  0  0  0  0  0  0
   38.9430   25.8045   32.8206 H   0  0  0  0  0  0  0  0  0  0  0  0
   40.0590   25.2811   31.5968 H   0  0  0  0  0  0  0  0  0  0  0  0
   38.9431   23.2046   31.3162 H   0  0  0  0  0  0  0  0  0  0  0  0
   37.1484   23.6342   33.7079 H   0  0  0  0  0  0  0  0  0  0  0  0
   38.1069   22.1837   33.3467 H   0  0  0  0  0  0  0  0  0  0  0  0
   36.2077   22.7426   31.1204 H   0  0  0  0  0  0  0  0  0  0  0  0
   35.9556   23.3164   32.7434 H   0  0  0  0  0  0  0  0  0  0  0  0
   34.2021   24.6248   31.8016 H   0  0  0  0  0  0  0  0  0  0  0  0
   34.7717   24.3546   30.1566 H   0  0  0  0  0  0  0  0  0  0  0  0
   35.9533   26.3687   30.1852 H   0  0  0  0  0  0  0  0  0  0  0  0
   35.1591   26.7527   31.7106 H   0  0  0  0  0  0  0  0  0  0  0  0
   37.9877   26.3291   31.6518 H   0  0  0  0  0  0  0  0  0  0  0  0
   35.9348   25.9082   33.4994 H   0  0  0  0  0  0  0  0  0  0  0  0
  1  6  2  0
  2  1  1  0
  3  2  2  0
  3  4  1  0
  4  5  2  0
  5  6  1  0
  7  3  1  0
  8  7  1  0
  9  8  1  0
 10  9  1  0
 10 11  1  0
 11  7  1  0
 12 13  1  0
 12 16  1  0
 12 10  1  0
 14 15  1  0
 14 13  1  0
 15 16  1  0
 16 17  1  0
 17 18  1  0
 18 19  1  0
 18 21  1  0
 20 18  1  0
  1 22  1  0
  2 23  1  0
  5 24  1  0
  8 25  1  0
  8 26  1  0
  9 27  1  0
  9 28  1  0
 10 29  1  6
 11 30  1  0
 11 31  1  0
 13 32  1  0
 13 33  1  0
 14 34  1  0
 14 35  1  0
 15 36  1  0
 15 37  1  0
 16 38  1  6
 17 39  1  0
M  ISO  8  22  14  23  14  24  14  25  13  26  13  27  13  28  13  29  13
M  ISO  8  30  13  31  13  32  13  33  13  34  13  35  13  36  13  37  13
M  ISO  2  38  13  39   5
M  END
>  <minimizedAffinity>  (1) 
-5.1872201

>  <minimizedRMSD>  (1) 
3.39947915

$$$$
