
     RDKit          3D

 46 49  0  0  1  0  0  0  0  0999 V2000
   38.3430   24.7850   31.9570 N   0  0  0  0  0  0  0  0  0  0  0  0
   39.6390   24.7350   31.6660 C   0  0  0  0  0  0  0  0  0  0  0  0
   39.6160   24.0160   30.3120 C   0  0  0  0  0  0  0  0  0  0  0  0
   38.2710   23.3460   30.2530 C   0  0  0  0  0  0  0  0  0  0  0  0
   37.6100   23.6330   31.6160 C   0  0  1  0  0  0  0  0  0  0  0  0
   35.6000   30.3590   31.7000 C   0  0  0  0  0  0  0  0  0  0  0  0
   36.3180   29.1900   31.9820 C   0  0  0  0  0  0  0  0  0  0  0  0
   36.2170   28.5720   33.2110 C   0  0  0  0  0  0  0  0  0  0  0  0
   35.3960   29.1600   34.1040 N   0  0  0  0  0  0  0  0  0  0  0  0
   34.6940   30.2850   33.8610 C   0  0  0  0  0  0  0  0  0  0  0  0
   34.7940   30.8850   32.6610 N   0  0  0  0  0  0  0  0  0  0  0  0
   36.8930   27.4110   33.5390 N   0  0  0  0  0  0  0  0  0  0  0  0
   37.8830   27.1600   34.6110 C   0  0  0  0  0  0  0  0  0  0  0  0
   38.8200   26.2530   33.8130 C   0  0  0  0  0  0  0  0  0  0  0  0
   37.8940   25.3110   33.2040 C   0  0  1  0  0  0  0  0  0  0  0  0
   36.7340   26.1350   32.8700 C   0  0  0  0  0  0  0  0  0  0  0  0
   37.8730   22.4510   32.3340 N   0  0  0  0  0  0  0  0  0  0  0  0
   36.9280   21.3750   32.2460 C   0  0  0  0  0  0  0  0  0  0  0  0
   35.5500   21.6080   32.2380 C   0  0  0  0  0  0  0  0  0  0  0  0
   34.6180   20.6070   32.1570 C   0  0  0  0  0  0  0  0  0  0  0  0
   35.0080   19.3040   32.0770 C   0  0  0  0  0  0  0  0  0  0  0  0
   36.3530   19.0040   32.0800 C   0  0  0  0  0  0  0  0  0  0  0  0
   37.2600   20.0370   32.1630 C   0  0  0  0  0  0  0  0  0  0  0  0
   40.0713   25.7428   31.5794 H   0  0  0  0  0  0  0  0  0  0  0  0
   40.2531   24.2363   32.4303 H   0  0  0  0  0  0  0  0  0  0  0  0
   39.7256   24.7373   29.4888 H   0  0  0  0  0  0  0  0  0  0  0  0
   40.4420   23.2966   30.2109 H   0  0  0  0  0  0  0  0  0  0  0  0
   37.6668   23.7673   29.4360 H   0  0  0  0  0  0  0  0  0  0  0  0
   38.3600   22.2666   30.0609 H   0  0  0  0  0  0  0  0  0  0  0  0
   36.5348   23.8291   31.7406 H   0  0  0  0  0  0  0  0  0  0  0  0
   35.6866   30.8442   30.7166 H   0  0  0  0  0  0  0  0  0  0  0  0
   36.9729   28.7578   31.2111 H   0  0  0  0  0  0  0  0  0  0  0  0
   34.0432   30.7099   34.6394 H   0  0  0  0  0  0  0  0  0  0  0  0
   38.3793   28.0826   34.9464 H   0  0  0  0  0  0  0  0  0  0  0  0
   37.4883   26.7457   35.5504 H   0  0  0  0  0  0  0  0  0  0  0  0
   39.3699   26.8218   33.0488 H   0  0  0  0  0  0  0  0  0  0  0  0
   39.5971   25.7733   34.4262 H   0  0  0  0  0  0  0  0  0  0  0  0
   37.7357   24.4661   33.8903 H   0  0  0  0  0  0  0  0  0  0  0  0
   36.6827   26.2863   31.7817 H   0  0  0  0  0  0  0  0  0  0  0  0
   35.8053   25.6428   33.1944 H   0  0  0  0  0  0  0  0  0  0  0  0
   38.7231   22.3608   32.9085 H   0  0  0  0  0  0  0  0  0  0  0  0
   35.1958   22.6476   32.2999 H   0  0  0  0  0  0  0  0  0  0  0  0
   33.5468   20.8572   32.1566 H   0  0  0  0  0  0  0  0  0  0  0  0
   34.2586   18.5015   32.0108 H   0  0  0  0  0  0  0  0  0  0  0  0
   36.6953   17.9605   32.0174 H   0  0  0  0  0  0  0  0  0  0  0  0
   38.3288   19.7769   32.1632 H   0  0  0  0  0  0  0  0  0  0  0  0
  1  2  1  0
  1 15  1  0
  3  2  1  0
  4  3  1  0
  4  5  1  0
  5  1  1  0
  5 17  1  0
  6  7  2  0
  6 11  1  0
  7  8  1  0
  8 12  1  0
  8  9  2  0
 10  9  1  0
 11 10  2  0
 12 13  1  0
 14 13  1  0
 15 14  1  0
 16 15  1  0
 16 12  1  0
 18 17  1  0
 19 18  2  0
 20 19  1  0
 21 22  1  0
 21 20  2  0
 22 23  2  0
 23 18  1  0
  2 24  1  0
  2 25  1  0
  3 26  1  0
  3 27  1  0
  4 28  1  0
  4 29  1  0
  5 30  1  6
  6 31  1  0
  7 32  1  0
 10 33  1  0
 13 34  1  0
 13 35  1  0
 14 36  1  0
 14 37  1  0
 15 38  1  1
 16 39  1  0
 16 40  1  0
 17 41  1  0
 19 42  1  0
 20 43  1  0
 21 44  1  0
 22 45  1  0
 23 46  1  0
M  ISO  8  24  13  25  13  26  13  27  13  28  13  29  13  30  13  31  14
M  ISO  8  32  14  33  14  34  13  35  13  36  13  37  13  38  13  39  13
M  ISO  6  40  13  42  14  43  14  44  14  45  14  46  14
M  END
>  <minimizedAffinity>  (1) 
-4.84920454

>  <minimizedRMSD>  (1) 
8.00231266

$$$$
