
     RDKit          3D

 38 40  0  0  1  0  0  0  0  0999 V2000
   37.8110   24.1960   37.8240 C   0  0  0  0  0  0  0  0  0  0  0  0
   37.9480   24.4040   36.4460 C   0  0  0  0  0  0  0  0  0  0  0  0
   38.9920   23.8200   35.7470 C   0  0  0  0  0  0  0  0  0  0  0  0
   39.8500   23.0540   36.4640 N   0  0  0  0  0  0  0  0  0  0  0  0
   39.7180   22.8520   37.7990 C   0  0  0  0  0  0  0  0  0  0  0  0
   38.7050   23.4200   38.4730 N   0  0  0  0  0  0  0  0  0  0  0  0
   39.1830   23.9760   34.3820 N   0  0  0  0  0  0  0  0  0  0  0  0
   40.3170   24.5500   33.6410 C   0  0  0  0  0  0  0  0  0  0  0  0
   39.5130   25.2620   32.5410 C   0  0  0  0  0  0  0  0  0  0  0  0
   38.5660   24.2460   32.1250 C   0  0  1  0  0  0  0  0  0  0  0  0
   38.2240   23.5520   33.3700 C   0  0  0  0  0  0  0  0  0  0  0  0
   37.3480   24.8010   31.6470 N   0  0  0  0  0  0  0  0  0  0  0  0
   36.2430   24.0360   31.6590 C   0  0  0  0  0  0  0  0  0  0  0  0
   35.1830   25.0330   31.1710 C   0  0  0  0  0  0  0  0  0  0  0  0
   35.7990   26.3850   31.3960 C   0  0  0  0  0  0  0  0  0  0  0  0
   37.1510   26.1060   32.0920 C   0  0  1  0  0  0  0  0  0  0  0  0
   36.8510   26.3260   33.4460 N   0  0  0  0  0  0  0  0  0  0  0  0
   37.1080   27.4190   34.3420 C   0  0  0  0  0  0  0  0  0  0  0  0
   36.2250   28.3420   34.4160 O   0  0  0  0  0  0  0  0  0  0  0  0
   36.9802   24.6619   38.3742 H   0  0  0  0  0  0  0  0  0  0  0  0
   37.2212   25.0359   35.9145 H   0  0  0  0  0  0  0  0  0  0  0  0
   40.4440   22.2202   38.3316 H   0  0  0  0  0  0  0  0  0  0  0  0
   40.9011   25.2537   34.2522 H   0  0  0  0  0  0  0  0  0  0  0  0
   41.0804   23.8367   33.2969 H   0  0  0  0  0  0  0  0  0  0  0  0
   38.9950   26.1470   32.9390 H   0  0  0  0  0  0  0  0  0  0  0  0
   40.1391   25.6363   31.7177 H   0  0  0  0  0  0  0  0  0  0  0  0
   39.0026   23.6289   31.3259 H   0  0  0  0  0  0  0  0  0  0  0  0
   37.2041   23.8206   33.6824 H   0  0  0  0  0  0  0  0  0  0  0  0
   38.2627   22.4616   33.2304 H   0  0  0  0  0  0  0  0  0  0  0  0
   36.3376   23.1809   30.9736 H   0  0  0  0  0  0  0  0  0  0  0  0
   36.0194   23.5822   32.6358 H   0  0  0  0  0  0  0  0  0  0  0  0
   34.2549   24.9280   31.7521 H   0  0  0  0  0  0  0  0  0  0  0  0
   34.9113   24.8694   30.1177 H   0  0  0  0  0  0  0  0  0  0  0  0
   35.9582   26.9003   30.4373 H   0  0  0  0  0  0  0  0  0  0  0  0
   35.1515   27.0350   32.0029 H   0  0  0  0  0  0  0  0  0  0  0  0
   38.0665   26.6861   31.9038 H   0  0  0  0  0  0  0  0  0  0  0  0
   36.3436   25.5451   33.8861 H   0  0  0  0  0  0  0  0  0  0  0  0
   38.0291   27.4609   34.9418 H   0  0  0  0  0  0  0  0  0  0  0  0
  1  6  2  0
  2  1  1  0
  3  2  2  0
  3  4  1  0
  4  5  2  0
  5  6  1  0
  7  3  1  0
  8  7  1  0
  9  8  1  0
 10  9  1  0
 10 11  1  0
 11  7  1  0
 12 13  1  0
 12 16  1  0
 12 10  1  0
 14 15  1  0
 14 13  1  0
 15 16  1  0
 16 17  1  0
 17 18  1  0
 18 19  2  0
  1 20  1  0
  2 21  1  0
  5 22  1  0
  8 23  1  0
  8 24  1  0
  9 25  1  0
  9 26  1  0
 10 27  1  6
 11 28  1  0
 11 29  1  0
 13 30  1  0
 13 31  1  0
 14 32  1  0
 14 33  1  0
 15 34  1  0
 15 35  1  0
 16 36  1  6
 17 37  1  0
 18 38  1  0
M  ISO  8  20  14  21  14  22  14  23  13  24  13  25  13  26  13  27  13
M  ISO  8  28  13  29  13  30  13  31  13  32  13  33  13  34  13  35  13
M  ISO  2  36  13  38   6
M  END
>  <minimizedAffinity>  (1) 
-4.91230488

>  <minimizedRMSD>  (1) 
3.10681415

$$$$
