
     RDKit          3D

 48 51  0  0  1  0  0  0  0  0999 V2000
   38.7680   23.3520   37.4900 C   0  0  0  0  0  0  0  0  0  0  0  0
   38.7230   23.2040   36.0960 C   0  0  0  0  0  0  0  0  0  0  0  0
   39.7530   22.5220   35.4460 C   0  0  0  0  0  0  0  0  0  0  0  0
   40.7500   22.0360   36.2060 N   0  0  0  0  0  0  0  0  0  0  0  0
   40.7930   22.1780   37.5500 C   0  0  0  0  0  0  0  0  0  0  0  0
   39.7980   22.8390   38.1900 N   0  0  0  0  0  0  0  0  0  0  0  0
   39.7790   22.3260   34.0630 N   0  0  0  0  0  0  0  0  0  0  0  0
   40.7500   22.7350   33.0570 C   0  0  0  0  0  0  0  0  0  0  0  0
   39.7660   23.1300   31.9470 C   0  0  0  0  0  0  0  0  0  0  0  0
   38.9010   21.9640   31.9050 C   0  0  1  0  0  0  0  0  0  0  0  0
   38.7420   21.6090   33.3330 C   0  0  0  0  0  0  0  0  0  0  0  0
   37.5870   22.2850   31.4620 N   0  0  0  0  0  0  0  0  0  0  0  0
   36.5660   21.5080   31.8550 C   0  0  0  0  0  0  0  0  0  0  0  0
   35.3640   22.2560   31.2770 C   0  0  0  0  0  0  0  0  0  0  0  0
   35.8930   23.6490   30.9720 C   0  0  0  0  0  0  0  0  0  0  0  0
   37.2940   23.6640   31.5500 C   0  0  1  0  0  0  0  0  0  0  0  0
   37.2110   24.2690   32.7980 N   0  0  0  0  0  0  0  0  0  0  0  0
   37.1550   26.3250   34.0310 N   0  0  0  0  0  0  0  0  0  0  0  0
   36.8170   27.7030   33.6480 C   0  0  0  0  0  0  0  0  0  0  0  0
   37.6070   27.8880   32.3670 C   0  0  0  0  0  0  0  0  0  0  0  0
   37.9620   26.4660   31.9140 C   0  0  0  0  0  0  0  0  0  0  0  0
   36.9470   25.6810   32.7100 C   0  0  1  0  0  0  0  0  0  0  0  0
   37.9614   23.8875   38.0121 H   0  0  0  0  0  0  0  0  0  0  0  0
   37.8838   23.6215   35.5203 H   0  0  0  0  0  0  0  0  0  0  0  0
   41.6333   21.7581   38.1223 H   0  0  0  0  0  0  0  0  0  0  0  0
   41.3618   23.5856   33.3918 H   0  0  0  0  0  0  0  0  0  0  0  0
   41.5043   21.9823   32.7841 H   0  0  0  0  0  0  0  0  0  0  0  0
   39.2047   24.0384   32.2110 H   0  0  0  0  0  0  0  0  0  0  0  0
   40.2441   23.3710   30.9861 H   0  0  0  0  0  0  0  0  0  0  0  0
   39.3245   21.1964   31.2406 H   0  0  0  0  0  0  0  0  0  0  0  0
   37.7474   21.9140   33.6906 H   0  0  0  0  0  0  0  0  0  0  0  0
   38.8333   20.5230   33.4823 H   0  0  0  0  0  0  0  0  0  0  0  0
   36.6480   20.4952   31.4336 H   0  0  0  0  0  0  0  0  0  0  0  0
   36.5150   21.3557   32.9432 H   0  0  0  0  0  0  0  0  0  0  0  0
   35.0060   21.7665   30.3593 H   0  0  0  0  0  0  0  0  0  0  0  0
   34.5104   22.2753   31.9705 H   0  0  0  0  0  0  0  0  0  0  0  0
   35.9194   23.8248   29.8865 H   0  0  0  0  0  0  0  0  0  0  0  0
   35.2578   24.4383   31.4004 H   0  0  0  0  0  0  0  0  0  0  0  0
   38.1038   24.2382   31.0761 H   0  0  0  0  0  0  0  0  0  0  0  0
   36.4506   23.8235   33.3311 H   0  0  0  0  0  0  0  0  0  0  0  0
   38.1282   26.2391   34.3571 H   0  0  0  0  0  0  0  0  0  0  0  0
   35.7372   27.8128   33.4690 H   0  0  0  0  0  0  0  0  0  0  0  0
   37.0563   28.4459   34.4231 H   0  0  0  0  0  0  0  0  0  0  0  0
   36.9966   28.3958   31.6057 H   0  0  0  0  0  0  0  0  0  0  0  0
   38.5015   28.5101   32.5181 H   0  0  0  0  0  0  0  0  0  0  0  0
   37.8222   26.3350   30.8308 H   0  0  0  0  0  0  0  0  0  0  0  0
   39.0094   26.1733   32.0789 H   0  0  0  0  0  0  0  0  0  0  0  0
   35.9352   25.7088   32.2792 H   0  0  0  0  0  0  0  0  0  0  0  0
  1  6  2  0
  2  1  1  0
  3  2  2  0
  3  4  1  0
  4  5  2  0
  5  6  1  0
  7  3  1  0
  8  7  1  0
  9  8  1  0
 10  9  1  0
 10 11  1  0
 11  7  1  0
 12 16  1  0
 12 13  1  0
 12 10  1  0
 14 13  1  0
 15 14  1  0
 15 16  1  0
 16 17  1  0
 19 18  1  0
 20 19  1  0
 21 20  1  0
 21 22  1  0
 22 17  1  0
 22 18  1  0
  1 23  1  0
  2 24  1  0
  5 25  1  0
  8 26  1  0
  8 27  1  0
  9 28  1  0
  9 29  1  0
 10 30  1  6
 11 31  1  0
 11 32  1  0
 13 33  1  0
 13 34  1  0
 14 35  1  0
 14 36  1  0
 15 37  1  0
 15 38  1  0
 16 39  1  6
 17 40  1  0
 18 41  1  0
 19 42  1  0
 19 43  1  0
 20 44  1  0
 20 45  1  0
 21 46  1  0
 21 47  1  0
 22 48  1  6
M  ISO  8  23  14  24  14  25  14  26  13  27  13  28  13  29  13  30  13
M  ISO  8  31  13  32  13  33  13  34  13  35  13  36  13  37  13  38  13
M  ISO  8  39  13  40   5  41   5  42  13  43  13  44  13  45  13  46  13
M  ISO  2  47  13  48  13
M  END
>  <minimizedAffinity>  (1) 
-4.71710396

>  <minimizedRMSD>  (1) 
4.09420156

$$$$
