
     RDKit          3D

 51 54  0  0  1  0  0  0  0  0999 V2000
   37.6540   25.8570   31.8770 N   0  0  0  0  0  0  0  0  0  0  0  0
   36.7920   24.8410   31.9720 C   0  0  0  0  0  0  0  0  0  0  0  0
   35.5500   25.4010   31.2640 C   0  0  0  0  0  0  0  0  0  0  0  0
   35.8220   26.8990   31.1810 C   0  0  0  0  0  0  0  0  0  0  0  0
   37.0540   27.1110   32.0180 C   0  0  1  0  0  0  0  0  0  0  0  0
   39.3280   25.1380   34.7400 N   0  0  0  0  0  0  0  0  0  0  0  0
   40.1310   26.3180   34.4260 C   0  0  0  0  0  0  0  0  0  0  0  0
   39.2140   26.9310   33.3470 C   0  0  0  0  0  0  0  0  0  0  0  0
   38.9120   25.8080   32.5480 C   0  0  1  0  0  0  0  0  0  0  0  0
   38.7750   24.6820   33.4870 C   0  0  0  0  0  0  0  0  0  0  0  0
   37.8950   24.2680   38.0480 C   0  0  0  0  0  0  0  0  0  0  0  0
   38.0870   24.9330   36.8280 C   0  0  0  0  0  0  0  0  0  0  0  0
   39.0960   24.5170   35.9680 C   0  0  0  0  0  0  0  0  0  0  0  0
   39.8450   23.4820   36.3600 N   0  0  0  0  0  0  0  0  0  0  0  0
   39.6590   22.8390   37.5420 C   0  0  0  0  0  0  0  0  0  0  0  0
   38.6910   23.2300   38.3800 N   0  0  0  0  0  0  0  0  0  0  0  0
   36.6230   27.5350   33.2860 N   0  0  0  0  0  0  0  0  0  0  0  0
   35.9430   28.7990   33.1640 C   0  0  0  0  0  0  0  0  0  0  0  0
   35.2210   29.1360   34.3780 N   0  0  0  0  0  0  0  0  0  0  0  0
   35.8230   30.2760   35.0430 C   0  0  0  0  0  0  0  0  0  0  0  0
   34.7220   31.2930   35.2880 C   0  0  0  0  0  0  0  0  0  0  0  0
   33.4790   30.3910   35.2150 C   0  0  0  0  0  0  0  0  0  0  0  0
   33.8810   29.5330   34.0340 C   0  0  0  0  0  0  0  0  0  0  0  0
   37.1732   23.9455   31.4595 H   0  0  0  0  0  0  0  0  0  0  0  0
   36.6024   24.5185   33.0064 H   0  0  0  0  0  0  0  0  0  0  0  0
   35.4424   24.9662   30.2593 H   0  0  0  0  0  0  0  0  0  0  0  0
   34.6160   25.1674   31.7960 H   0  0  0  0  0  0  0  0  0  0  0  0
   36.0036   27.2031   30.1396 H   0  0  0  0  0  0  0  0  0  0  0  0
   34.9698   27.4968   31.5364 H   0  0  0  0  0  0  0  0  0  0  0  0
   37.7885   27.8879   31.7592 H   0  0  0  0  0  0  0  0  0  0  0  0
   40.2513   26.9818   35.2949 H   0  0  0  0  0  0  0  0  0  0  0  0
   41.1694   26.1240   34.1194 H   0  0  0  0  0  0  0  0  0  0  0  0
   38.3048   27.3612   33.7922 H   0  0  0  0  0  0  0  0  0  0  0  0
   39.6755   27.7604   32.7910 H   0  0  0  0  0  0  0  0  0  0  0  0
   39.7023   25.7398   31.7859 H   0  0  0  0  0  0  0  0  0  0  0  0
   37.7151   24.4153   33.6117 H   0  0  0  0  0  0  0  0  0  0  0  0
   39.2962   23.7857   33.1195 H   0  0  0  0  0  0  0  0  0  0  0  0
   37.0973   24.5919   38.7327 H   0  0  0  0  0  0  0  0  0  0  0  0
   37.4415   25.7803   36.5532 H   0  0  0  0  0  0  0  0  0  0  0  0
   40.3073   21.9924   37.8121 H   0  0  0  0  0  0  0  0  0  0  0  0
   35.9788   26.8353   33.6814 H   0  0  0  0  0  0  0  0  0  0  0  0
   36.6846   29.5853   32.9596 H   0  0  0  0  0  0  0  0  0  0  0  0
   35.2166   28.7214   32.3416 H   0  0  0  0  0  0  0  0  0  0  0  0
   36.2650   29.9625   36.0003 H   0  0  0  0  0  0  0  0  0  0  0  0
   36.6214   30.7100   34.4231 H   0  0  0  0  0  0  0  0  0  0  0  0
   34.8210   31.7675   36.2755 H   0  0  0  0  0  0  0  0  0  0  0  0
   34.7153   32.1373   34.5829 H   0  0  0  0  0  0  0  0  0  0  0  0
   33.3459   29.7965   36.1309 H   0  0  0  0  0  0  0  0  0  0  0  0
   32.5177   30.9160   35.1140 H   0  0  0  0  0  0  0  0  0  0  0  0
   33.8658   30.1119   33.0988 H   0  0  0  0  0  0  0  0  0  0  0  0
   33.2039   28.6840   33.8586 H   0  0  0  0  0  0  0  0  0  0  0  0
  1  2  1  0
  1  5  1  0
  1  9  1  0
  3  2  1  0
  4  3  1  0
  4  5  1  0
  5 17  1  0
  6 13  1  0
  7  6  1  0
  8  7  1  0
  9  8  1  0
  9 10  1  0
 10  6  1  0
 11 16  2  0
 12 11  1  0
 13 14  1  0
 13 12  2  0
 14 15  2  0
 15 16  1  0
 18 17  1  0
 18 19  1  0
 19 20  1  0
 20 21  1  0
 22 21  1  0
 23 19  1  0
 23 22  1  0
  2 24  1  0
  2 25  1  0
  3 26  1  0
  3 27  1  0
  4 28  1  0
  4 29  1  0
  5 30  1  6
  7 31  1  0
  7 32  1  0
  8 33  1  0
  8 34  1  0
  9 35  1  6
 10 36  1  0
 10 37  1  0
 11 38  1  0
 12 39  1  0
 15 40  1  0
 17 41  1  0
 18 42  1  0
 18 43  1  0
 20 44  1  0
 20 45  1  0
 21 46  1  0
 21 47  1  0
 22 48  1  0
 22 49  1  0
 23 50  1  0
 23 51  1  0
M  ISO  8  24  13  25  13  26  13  27  13  28  13  29  13  30  13  31  13
M  ISO  8  32  13  33  13  34  13  35  13  36  13  37  13  38  14  39  14
M  ISO  8  40  14  41   5  42   8  43   8  44  13  45  13  46  13  47  13
M  ISO  4  48  13  49  13  50  13  51  13
M  END
>  <minimizedAffinity>  (1) 
-5.1176219

>  <minimizedRMSD>  (1) 
2.66240788

$$$$
