
     RDKit          3D

 49 52  0  0  1  0  0  0  0  0999 V2000
   38.9240   27.0500   33.1830 N   0  0  0  0  0  0  0  0  0  0  0  0
   40.1680   27.2280   32.7490 C   0  0  0  0  0  0  0  0  0  0  0  0
   39.9190   27.3910   31.2370 C   0  0  0  0  0  0  0  0  0  0  0  0
   38.5450   26.8200   31.0050 C   0  0  0  0  0  0  0  0  0  0  0  0
   38.1350   26.2670   32.3590 C   0  0  1  0  0  0  0  0  0  0  0  0
   39.3110   24.8090   35.7190 N   0  0  0  0  0  0  0  0  0  0  0  0
   37.9420   25.1930   36.1090 C   0  0  0  0  0  0  0  0  0  0  0  0
   37.5580   25.9380   34.8150 C   0  0  0  0  0  0  0  0  0  0  0  0
   38.6860   26.7470   34.5600 C   0  0  1  0  0  0  0  0  0  0  0  0
   39.8420   25.9310   34.9680 C   0  0  0  0  0  0  0  0  0  0  0  0
   41.4670   21.8250   35.3270 C   0  0  0  0  0  0  0  0  0  0  0  0
   40.7570   22.9900   35.0040 C   0  0  0  0  0  0  0  0  0  0  0  0
   40.0290   23.6470   35.9740 C   0  0  0  0  0  0  0  0  0  0  0  0
   40.0400   23.1220   37.2100 N   0  0  0  0  0  0  0  0  0  0  0  0
   40.7260   21.9980   37.5210 C   0  0  0  0  0  0  0  0  0  0  0  0
   41.4340   21.3540   36.5880 N   0  0  0  0  0  0  0  0  0  0  0  0
   38.3680   24.8810   32.2930 N   0  0  0  0  0  0  0  0  0  0  0  0
   37.3420   24.2800   31.4820 C   0  0  0  0  0  0  0  0  0  0  0  0
   36.7410   23.0950   32.1200 C   0  0  0  0  0  0  0  0  0  0  0  0
   35.5680   22.4340   31.7460 C   0  0  0  0  0  0  0  0  0  0  0  0
   35.1010   21.3340   32.4200 C   0  0  0  0  0  0  0  0  0  0  0  0
   35.7760   20.8240   33.5070 C   0  0  0  0  0  0  0  0  0  0  0  0
   36.9350   21.4200   33.9310 C   0  0  0  0  0  0  0  0  0  0  0  0
   37.3480   22.5110   33.2200 C   0  0  0  0  0  0  0  0  0  0  0  0
   40.6248   28.1289   33.1845 H   0  0  0  0  0  0  0  0  0  0  0  0
   40.8653   26.4194   33.0136 H   0  0  0  0  0  0  0  0  0  0  0  0
   39.9495   28.4531   30.9523 H   0  0  0  0  0  0  0  0  0  0  0  0
   40.6855   26.8816   30.6345 H   0  0  0  0  0  0  0  0  0  0  0  0
   37.8472   27.6046   30.6770 H   0  0  0  0  0  0  0  0  0  0  0  0
   38.5364   26.0522   30.2173 H   0  0  0  0  0  0  0  0  0  0  0  0
   37.0952   26.3240   32.7134 H   0  0  0  0  0  0  0  0  0  0  0  0
   37.2999   24.3193   36.2941 H   0  0  0  0  0  0  0  0  0  0  0  0
   37.8463   25.7643   37.0441 H   0  0  0  0  0  0  0  0  0  0  0  0
   37.3851   25.2314   33.9899 H   0  0  0  0  0  0  0  0  0  0  0  0
   36.6266   26.5154   34.9106 H   0  0  0  0  0  0  0  0  0  0  0  0
   38.5276   27.7000   35.0860 H   0  0  0  0  0  0  0  0  0  0  0  0
   40.3851   25.5717   34.0815 H   0  0  0  0  0  0  0  0  0  0  0  0
   40.5477   26.5171   35.5750 H   0  0  0  0  0  0  0  0  0  0  0  0
   42.0475   21.2989   34.5549 H   0  0  0  0  0  0  0  0  0  0  0  0
   40.7805   23.3805   33.9759 H   0  0  0  0  0  0  0  0  0  0  0  0
   40.7008   21.6109   38.5503 H   0  0  0  0  0  0  0  0  0  0  0  0
   39.2911   24.7042   31.8717 H   0  0  0  0  0  0  0  0  0  0  0  0
   37.7837   23.9775   30.5210 H   0  0  0  0  0  0  0  0  0  0  0  0
   36.5453   25.0257   31.3436 H   0  0  0  0  0  0  0  0  0  0  0  0
   34.9997   22.8084   30.8818 H   0  0  0  0  0  0  0  0  0  0  0  0
   34.1709   20.8507   32.0863 H   0  0  0  0  0  0  0  0  0  0  0  0
   35.3858   19.9405   34.0335 H   0  0  0  0  0  0  0  0  0  0  0  0
   37.5008   21.0413   34.7950 H   0  0  0  0  0  0  0  0  0  0  0  0
   38.2791   22.9852   33.5639 H   0  0  0  0  0  0  0  0  0  0  0  0
  1  2  1  0
  1  9  1  0
  3  2  1  0
  4  3  1  0
  4  5  1  0
  5  1  1  0
  6 13  1  0
  6  7  1  0
  8  7  1  0
  9  8  1  0
  9 10  1  0
 10  6  1  0
 11 16  2  0
 12 11  1  0
 12 13  2  0
 13 14  1  0
 14 15  2  0
 16 15  1  0
 17  5  1  0
 18 19  1  0
 18 17  1  0
 19 24  1  0
 20 19  2  0
 20 21  1  0
 21 22  2  0
 22 23  1  0
 24 23  2  0
  2 25  1  0
  2 26  1  0
  3 27  1  0
  3 28  1  0
  4 29  1  0
  4 30  1  0
  5 31  1  1
  7 32  1  0
  7 33  1  0
  8 34  1  0
  8 35  1  0
  9 36  1  1
 10 37  1  0
 10 38  1  0
 11 39  1  0
 12 40  1  0
 15 41  1  0
 17 42  1  0
 18 43  1  0
 18 44  1  0
 20 45  1  0
 21 46  1  0
 22 47  1  0
 23 48  1  0
 24 49  1  0
M  ISO  8  25  13  26  13  27  13  28  13  29  13  30  13  31  13  32  13
M  ISO  8  33  13  34  13  35  13  36  13  37  13  38  13  39  14  40  14
M  ISO  8  41  14  42   5  43   8  44   8  45  14  46  14  47  14  48  14
M  ISO  1  49  14
M  END
>  <minimizedAffinity>  (1) 
-4.99728441

>  <minimizedRMSD>  (1) 
4.38865757

$$$$
