
     RDKit          3D

 53 57  0  0  1  0  0  0  0  0999 V2000
   38.6960   25.3300   33.3710 N   0  0  0  0  0  0  0  0  0  0  0  0
   38.3460   25.2290   34.6490 C   0  0  0  0  0  0  0  0  0  0  0  0
   38.4010   23.7100   34.8620 C   0  0  0  0  0  0  0  0  0  0  0  0
   38.3910   23.1310   33.4510 C   0  0  0  0  0  0  0  0  0  0  0  0
   38.1940   24.3260   32.5430 C   0  0  1  0  0  0  0  0  0  0  0  0
   36.8830   28.1360   32.7200 N   0  0  0  0  0  0  0  0  0  0  0  0
   37.4480   28.0490   31.3710 C   0  0  0  0  0  0  0  0  0  0  0  0
   38.0090   26.6120   31.4670 C   0  0  0  0  0  0  0  0  0  0  0  0
   38.6480   26.5990   32.7240 C   0  0  1  0  0  0  0  0  0  0  0  0
   37.8040   27.4310   33.5940 C   0  0  0  0  0  0  0  0  0  0  0  0
   34.4500   30.0480   34.7500 C   0  0  0  0  0  0  0  0  0  0  0  0
   35.6570   29.4420   34.3680 C   0  0  0  0  0  0  0  0  0  0  0  0
   35.7180   28.7500   33.1660 C   0  0  0  0  0  0  0  0  0  0  0  0
   34.6030   28.6920   32.4150 N   0  0  0  0  0  0  0  0  0  0  0  0
   33.4390   29.2810   32.7960 C   0  0  0  0  0  0  0  0  0  0  0  0
   33.3640   29.9550   33.9540 N   0  0  0  0  0  0  0  0  0  0  0  0
   36.8250   24.3130   32.2240 N   0  0  0  0  0  0  0  0  0  0  0  0
   36.5710   23.3410   31.1980 C   0  0  0  0  0  0  0  0  0  0  0  0
   36.0620   22.0720   31.5880 N   0  0  0  0  0  0  0  0  0  0  0  0
   35.0530   21.7630   32.4340 C   0  0  0  0  0  0  0  0  0  0  0  0
   34.9050   20.4490   32.5340 N   0  0  0  0  0  0  0  0  0  0  0  0
   35.8150   19.8390   31.7560 C   0  0  0  0  0  0  0  0  0  0  0  0
   36.0410   18.5050   31.5420 C   0  0  0  0  0  0  0  0  0  0  0  0
   35.3330   17.6460   32.1230 O   0  0  0  0  0  0  0  0  0  0  0  0
   37.0080   18.1200   30.7180 N   0  0  0  0  0  0  0  0  0  0  0  0
   37.7010   19.1250   30.1530 C   0  0  0  0  0  0  0  0  0  0  0  0
   38.7600   18.8390   29.2550 N   0  0  0  0  0  0  0  0  0  0  0  0
   37.5150   20.4490   30.3340 N   0  0  0  0  0  0  0  0  0  0  0  0
   36.5350   20.8580   31.1680 C   0  0  0  0  0  0  0  0  0  0  0  0
   39.0585   25.7526   35.3034 H   0  0  0  0  0  0  0  0  0  0  0  0
   37.3705   25.6799   34.8839 H   0  0  0  0  0  0  0  0  0  0  0  0
   39.3204   23.4242   35.3940 H   0  0  0  0  0  0  0  0  0  0  0  0
   37.5646   23.3408   35.4737 H   0  0  0  0  0  0  0  0  0  0  0  0
   39.3455   22.6305   33.2309 H   0  0  0  0  0  0  0  0  0  0  0  0
   37.6031   22.3749   33.3184 H   0  0  0  0  0  0  0  0  0  0  0  0
   38.6851   24.4061   31.5620 H   0  0  0  0  0  0  0  0  0  0  0  0
   38.2386   28.7948   31.2012 H   0  0  0  0  0  0  0  0  0  0  0  0
   36.7513   28.2416   30.5418 H   0  0  0  0  0  0  0  0  0  0  0  0
   37.1989   25.8689   31.4286 H   0  0  0  0  0  0  0  0  0  0  0  0
   38.6842   26.3561   30.6371 H   0  0  0  0  0  0  0  0  0  0  0  0
   39.6852   26.9281   32.5629 H   0  0  0  0  0  0  0  0  0  0  0  0
   38.4237   28.1485   34.1518 H   0  0  0  0  0  0  0  0  0  0  0  0
   37.2641   26.8176   34.3304 H   0  0  0  0  0  0  0  0  0  0  0  0
   34.3890   30.5997   35.6997 H   0  0  0  0  0  0  0  0  0  0  0  0
   36.5446   29.5145   35.0137 H   0  0  0  0  0  0  0  0  0  0  0  0
   32.5517   29.2047   32.1503 H   0  0  0  0  0  0  0  0  0  0  0  0
   36.2808   24.0722   33.0647 H   0  0  0  0  0  0  0  0  0  0  0  0
   37.5215   23.1643   30.6732 H   0  0  0  0  0  0  0  0  0  0  0  0
   35.7655   23.7848   30.5945 H   0  0  0  0  0  0  0  0  0  0  0  0
   34.4377   22.5024   32.9675 H   0  0  0  0  0  0  0  0  0  0  0  0
   37.2118   17.1288   30.5262 H   0  0  0  0  0  0  0  0  0  0  0  0
   38.9992   17.8615   29.0354 H   0  0  0  0  0  0  0  0  0  0  0  0
   39.2902   19.6087   28.8221 H   0  0  0  0  0  0  0  0  0  0  0  0
  1  2  1  0
  2  3  1  0
  4  3  1  0
  5  1  1  0
  5  4  1  0
  6 13  1  0
  6 10  1  0
  7  8  1  0
  7  6  1  0
  8  9  1  0
  9  1  1  0
  9 10  1  0
 12 11  2  0
 13 12  1  0
 14 15  1  0
 14 13  2  0
 15 16  2  0
 16 11  1  0
 17  5  1  0
 18 19  1  0
 18 17  1  0
 19 20  1  0
 20 21  2  0
 22 21  1  0
 23 22  1  0
 23 24  2  0
 25 23  1  0
 26 28  2  0
 26 25  1  0
 27 26  1  0
 28 29  1  0
 29 19  1  0
 29 22  2  0
  2 30  1  0
  2 31  1  0
  3 32  1  0
  3 33  1  0
  4 34  1  0
  4 35  1  0
  5 36  1  6
  7 37  1  0
  7 38  1  0
  8 39  1  0
  8 40  1  0
  9 41  1  6
 10 42  1  0
 10 43  1  0
 11 44  1  0
 12 45  1  0
 15 46  1  0
 17 47  1  0
 18 48  1  0
 18 49  1  0
 20 50  1  0
 25 51  1  0
 27 52  1  0
 27 53  1  0
M  ISO  8  30  13  31  13  32  13  33  13  34  13  35  13  36  13  37  13
M  ISO  8  38  13  39  13  40  13  41  13  42  13  43  13  44  14  45  14
M  ISO  6  46  14  47   5  48   8  49   8  50  14  51   9
M  END
>  <minimizedAffinity>  (1) 
-5.06040955

>  <minimizedRMSD>  (1) 
9.30389786

$$$$
