
     RDKit          3D

 48 51  0  0  1  0  0  0  0  0999 V2000
   37.3990   25.6180   32.5030 N   0  0  0  0  0  0  0  0  0  0  0  0
   37.7980   25.5250   31.2400 C   0  0  0  0  0  0  0  0  0  0  0  0
   37.0940   24.2260   30.7900 C   0  0  0  0  0  0  0  0  0  0  0  0
   36.6890   23.5460   32.0890 C   0  0  0  0  0  0  0  0  0  0  0  0
   37.3200   24.4100   33.1670 C   0  0  1  0  0  0  0  0  0  0  0  0
   40.0890   26.7090   34.2840 N   0  0  0  0  0  0  0  0  0  0  0  0
   39.1020   27.1300   35.2940 C   0  0  0  0  0  0  0  0  0  0  0  0
   37.8840   26.3670   34.7300 C   0  0  0  0  0  0  0  0  0  0  0  0
   37.9460   26.6380   33.3450 C   0  0  1  0  0  0  0  0  0  0  0  0
   39.3800   26.6630   33.0210 C   0  0  0  0  0  0  0  0  0  0  0  0
   43.2530   25.0360   35.2300 C   0  0  0  0  0  0  0  0  0  0  0  0
   41.8820   25.3010   35.1230 C   0  0  0  0  0  0  0  0  0  0  0  0
   41.4370   26.4060   34.4250 C   0  0  0  0  0  0  0  0  0  0  0  0
   42.3630   27.1960   33.8670 N   0  0  0  0  0  0  0  0  0  0  0  0
   43.7000   26.9430   33.9670 C   0  0  0  0  0  0  0  0  0  0  0  0
   44.1410   25.8720   34.6430 N   0  0  0  0  0  0  0  0  0  0  0  0
   38.5020   23.7400   33.5410 N   0  0  0  0  0  0  0  0  0  0  0  0
   38.1640   22.6380   34.4050 C   0  0  0  0  0  0  0  0  0  0  0  0
   38.4710   22.8650   35.8400 C   0  0  0  0  0  0  0  0  0  0  0  0
   37.6260   23.3990   36.7910 C   0  0  0  0  0  0  0  0  0  0  0  0
   37.9660   23.5820   38.0960 C   0  0  0  0  0  0  0  0  0  0  0  0
   39.2210   23.2290   38.5460 C   0  0  0  0  0  0  0  0  0  0  0  0
   40.0660   22.6960   37.5990 C   0  0  0  0  0  0  0  0  0  0  0  0
   39.7050   22.5260   36.3150 N   0  0  0  0  0  0  0  0  0  0  0  0
   37.4630   26.3895   30.6480 H   0  0  0  0  0  0  0  0  0  0  0  0
   38.8907   25.5097   31.1147 H   0  0  0  0  0  0  0  0  0  0  0  0
   36.2091   24.4547   30.1780 H   0  0  0  0  0  0  0  0  0  0  0  0
   37.7427   23.5910   30.1687 H   0  0  0  0  0  0  0  0  0  0  0  0
   35.5943   23.5255   32.1950 H   0  0  0  0  0  0  0  0  0  0  0  0
   37.0185   22.4977   32.1392 H   0  0  0  0  0  0  0  0  0  0  0  0
   36.8196   24.5864   34.1306 H   0  0  0  0  0  0  0  0  0  0  0  0
   39.3720   26.7949   36.3063 H   0  0  0  0  0  0  0  0  0  0  0  0
   38.9756   28.2149   35.4245 H   0  0  0  0  0  0  0  0  0  0  0  0
   37.9698   25.2878   34.9249 H   0  0  0  0  0  0  0  0  0  0  0  0
   36.9324   26.6753   35.1876 H   0  0  0  0  0  0  0  0  0  0  0  0
   37.3748   27.5610   33.1663 H   0  0  0  0  0  0  0  0  0  0  0  0
   39.6587   25.7575   32.4621 H   0  0  0  0  0  0  0  0  0  0  0  0
   39.6299   27.5315   32.3939 H   0  0  0  0  0  0  0  0  0  0  0  0
   43.6055   24.1552   35.7868 H   0  0  0  0  0  0  0  0  0  0  0  0
   41.1556   24.6250   35.5977 H   0  0  0  0  0  0  0  0  0  0  0  0
   44.4215   27.6225   33.4897 H   0  0  0  0  0  0  0  0  0  0  0  0
   38.9788   23.3854   32.6997 H   0  0  0  0  0  0  0  0  0  0  0  0
   37.0851   22.4456   34.3106 H   0  0  0  0  0  0  0  0  0  0  0  0
   38.7821   21.7868   34.0833 H   0  0  0  0  0  0  0  0  0  0  0  0
   36.6149   23.6952   36.4748 H   0  0  0  0  0  0  0  0  0  0  0  0
   37.2356   24.0140   38.7960 H   0  0  0  0  0  0  0  0  0  0  0  0
   39.5269   23.3646   39.5939 H   0  0  0  0  0  0  0  0  0  0  0  0
   41.0791   22.3966   37.9056 H   0  0  0  0  0  0  0  0  0  0  0  0
  1  2  1  0
  1  5  1  0
  1  9  1  0
  3  2  1  0
  3  4  1  0
  4  5  1  0
  5 17  1  0
  6 13  1  0
  6  7  1  0
  8  7  1  0
  9  8  1  0
 10  9  1  0
 10  6  1  0
 12 11  2  0
 13 12  1  0
 14 15  1  0
 14 13  2  0
 15 16  2  0
 16 11  1  0
 17 18  1  0
 18 19  1  0
 19 24  1  0
 19 20  2  0
 20 21  1  0
 21 22  2  0
 23 22  1  0
 24 23  2  0
  2 25  1  0
  2 26  1  0
  3 27  1  0
  3 28  1  0
  4 29  1  0
  4 30  1  0
  5 31  1  1
  7 32  1  0
  7 33  1  0
  8 34  1  0
  8 35  1  0
  9 36  1  1
 10 37  1  0
 10 38  1  0
 11 39  1  0
 12 40  1  0
 15 41  1  0
 17 42  1  0
 18 43  1  0
 18 44  1  0
 20 45  1  0
 21 46  1  0
 22 47  1  0
 23 48  1  0
M  ISO  8  25  13  26  13  27  13  28  13  29  13  30  13  31  13  32  13
M  ISO  8  33  13  34  13  35  13  36  13  37  13  38  13  39  14  40  14
M  ISO  8  41  14  42   5  43   8  44   8  45  14  46  14  47  14  48  14
M  END
>  <minimizedAffinity>  (1) 
-5.12156391

>  <minimizedRMSD>  (1) 
3.6748755

$$$$
