
     RDKit          3D

 47 50  0  0  1  0  0  0  0  0999 V2000
   38.8740   25.8930   31.6980 N   0  0  0  0  0  0  0  0  0  0  0  0
   38.7760   24.8990   30.8250 C   0  0  0  0  0  0  0  0  0  0  0  0
   37.2680   24.5680   30.8950 C   0  0  0  0  0  0  0  0  0  0  0  0
   36.7940   25.2600   32.1690 C   0  0  0  0  0  0  0  0  0  0  0  0
   38.0730   25.7550   32.8140 C   0  0  1  0  0  0  0  0  0  0  0  0
   41.6850   25.5200   33.5660 N   0  0  0  0  0  0  0  0  0  0  0  0
   41.6320   26.9840   33.7360 C   0  0  0  0  0  0  0  0  0  0  0  0
   40.1940   27.1980   33.2140 C   0  0  0  0  0  0  0  0  0  0  0  0
   40.1600   26.4130   32.0420 C   0  0  1  0  0  0  0  0  0  0  0  0
   40.9710   25.2170   32.3440 C   0  0  0  0  0  0  0  0  0  0  0  0
   42.9660   22.2960   34.8700 C   0  0  0  0  0  0  0  0  0  0  0  0
   42.3460   23.2240   34.0240 C   0  0  0  0  0  0  0  0  0  0  0  0
   42.2860   24.5590   34.3750 C   0  0  0  0  0  0  0  0  0  0  0  0
   42.8420   24.9150   35.5420 N   0  0  0  0  0  0  0  0  0  0  0  0
   43.4480   24.0090   36.3670 C   0  0  0  0  0  0  0  0  0  0  0  0
   43.5100   22.7150   36.0360 N   0  0  0  0  0  0  0  0  0  0  0  0
   38.4010   24.8030   33.7980 N   0  0  0  0  0  0  0  0  0  0  0  0
   37.8550   25.2190   35.0600 C   0  0  0  0  0  0  0  0  0  0  0  0
   38.3640   24.4560   36.2320 C   0  0  0  0  0  0  0  0  0  0  0  0
   39.4050   23.5510   36.2260 C   0  0  0  0  0  0  0  0  0  0  0  0
   39.8180   22.8820   37.3580 C   0  0  0  0  0  0  0  0  0  0  0  0
   39.2010   23.0960   38.5430 N   0  0  0  0  0  0  0  0  0  0  0  0
   38.1870   23.9790   38.5450 C   0  0  0  0  0  0  0  0  0  0  0  0
   37.7750   24.6370   37.4530 N   0  0  0  0  0  0  0  0  0  0  0  0
   39.0692   25.2219   29.8152 H   0  0  0  0  0  0  0  0  0  0  0  0
   39.4316   24.0439   31.0465 H   0  0  0  0  0  0  0  0  0  0  0  0
   36.7399   24.9648   30.0154 H   0  0  0  0  0  0  0  0  0  0  0  0
   37.0734   23.4854   30.9052 H   0  0  0  0  0  0  0  0  0  0  0  0
   36.1249   26.1003   31.9319 H   0  0  0  0  0  0  0  0  0  0  0  0
   36.2196   24.5905   32.8262 H   0  0  0  0  0  0  0  0  0  0  0  0
   38.1052   26.7009   33.3745 H   0  0  0  0  0  0  0  0  0  0  0  0
   41.7450   27.2875   34.7873 H   0  0  0  0  0  0  0  0  0  0  0  0
   42.4228   27.5612   33.2345 H   0  0  0  0  0  0  0  0  0  0  0  0
   39.4517   26.8473   33.9461 H   0  0  0  0  0  0  0  0  0  0  0  0
   39.9519   28.2558   33.0336 H   0  0  0  0  0  0  0  0  0  0  0  0
   40.4993   27.0552   31.2159 H   0  0  0  0  0  0  0  0  0  0  0  0
   40.3217   24.3407   32.4875 H   0  0  0  0  0  0  0  0  0  0  0  0
   41.6613   24.9789   31.5214 H   0  0  0  0  0  0  0  0  0  0  0  0
   43.0105   21.2336   34.5885 H   0  0  0  0  0  0  0  0  0  0  0  0
   41.9041   22.8880   33.0743 H   0  0  0  0  0  0  0  0  0  0  0  0
   43.8902   24.3488   37.3151 H   0  0  0  0  0  0  0  0  0  0  0  0
   38.0064   23.8881   33.5370 H   0  0  0  0  0  0  0  0  0  0  0  0
   38.1008   26.2809   35.2078 H   0  0  0  0  0  0  0  0  0  0  0  0
   36.7721   25.0322   35.0102 H   0  0  0  0  0  0  0  0  0  0  0  0
   39.9274   23.3550   35.2780 H   0  0  0  0  0  0  0  0  0  0  0  0
   40.6542   22.1699   37.2977 H   0  0  0  0  0  0  0  0  0  0  0  0
   37.6673   24.1717   39.4951 H   0  0  0  0  0  0  0  0  0  0  0  0
  1  2  1  0
  1  9  1  0
  1  5  1  0
  2  3  1  0
  3  4  1  0
  4  5  1  0
  5 17  1  0
  6  7  1  0
  6 13  1  0
  8  7  1  0
  9 10  1  0
  9  8  1  0
 10  6  1  0
 11 16  2  0
 12 13  2  0
 12 11  1  0
 13 14  1  0
 14 15  2  0
 16 15  1  0
 17 18  1  0
 18 19  1  0
 19 24  1  0
 20 19  2  0
 20 21  1  0
 21 22  2  0
 22 23  1  0
 24 23  2  0
  2 25  1  0
  2 26  1  0
  3 27  1  0
  3 28  1  0
  4 29  1  0
  4 30  1  0
  5 31  1  1
  7 32  1  0
  7 33  1  0
  8 34  1  0
  8 35  1  0
  9 36  1  6
 10 37  1  0
 10 38  1  0
 11 39  1  0
 12 40  1  0
 15 41  1  0
 17 42  1  0
 18 43  1  0
 18 44  1  0
 20 45  1  0
 21 46  1  0
 23 47  1  0
M  ISO  8  25  13  26  13  27  13  28  13  29  13  30  13  31  13  32  13
M  ISO  8  33  13  34  13  35  13  36  13  37  13  38  13  39  14  40  14
M  ISO  7  41  14  42   5  43   8  44   8  45  14  46  14  47  14
M  END
>  <minimizedAffinity>  (1) 
-4.40702868

>  <minimizedRMSD>  (1) 
2.38794732

$$$$
