
     RDKit          3D

 53 56  0  0  1  0  0  0  0  0999 V2000
   39.2800   27.0910   33.0330 N   0  0  0  0  0  0  0  0  0  0  0  0
   38.4040   26.5780   32.1770 C   0  0  0  0  0  0  0  0  0  0  0  0
   37.0700   27.0060   32.8280 C   0  0  0  0  0  0  0  0  0  0  0  0
   37.4410   27.3700   34.2540 C   0  0  0  0  0  0  0  0  0  0  0  0
   38.9080   27.0000   34.3600 C   0  0  1  0  0  0  0  0  0  0  0  0
   41.9130   25.1230   33.9030 N   0  0  0  0  0  0  0  0  0  0  0  0
   42.7000   26.3700   33.8930 C   0  0  0  0  0  0  0  0  0  0  0  0
   41.5180   27.3630   33.8520 C   0  0  0  0  0  0  0  0  0  0  0  0
   40.6750   26.8050   32.8670 C   0  0  1  0  0  0  0  0  0  0  0  0
   40.7770   25.3490   33.0420 C   0  0  0  0  0  0  0  0  0  0  0  0
   42.1600   21.5240   34.7490 C   0  0  0  0  0  0  0  0  0  0  0  0
   41.8890   22.6970   34.0240 C   0  0  0  0  0  0  0  0  0  0  0  0
   42.1590   23.9310   34.5800 C   0  0  0  0  0  0  0  0  0  0  0  0
   42.6780   23.9510   35.8150 N   0  0  0  0  0  0  0  0  0  0  0  0
   42.9390   22.8100   36.5170 C   0  0  0  0  0  0  0  0  0  0  0  0
   42.6800   21.6100   35.9820 N   0  0  0  0  0  0  0  0  0  0  0  0
   38.9270   25.7500   35.0090 N   0  0  0  0  0  0  0  0  0  0  0  0
   38.1560   25.8380   36.2280 C   0  0  0  0  0  0  0  0  0  0  0  0
   37.8900   24.5300   36.7950 N   0  0  0  0  0  0  0  0  0  0  0  0
   37.9610   24.4820   38.2090 C   0  0  0  0  0  0  0  0  0  0  0  0
   38.3630   23.1750   38.8040 C   0  0  0  0  0  0  0  0  0  0  0  0
   39.6100   22.7820   38.1270 N   0  0  0  0  0  0  0  0  0  0  0  0
   39.2030   22.4240   36.7950 C   0  0  0  0  0  0  0  0  0  0  0  0
   38.4360   23.4580   36.0560 C   0  0  0  0  0  0  0  0  0  0  0  0
   38.5202   27.0105   31.1723 H   0  0  0  0  0  0  0  0  0  0  0  0
   38.5047   25.4939   32.0204 H   0  0  0  0  0  0  0  0  0  0  0  0
   36.6427   27.8737   32.3041 H   0  0  0  0  0  0  0  0  0  0  0  0
   36.3099   26.2120   32.7838 H   0  0  0  0  0  0  0  0  0  0  0  0
   37.2956   28.4455   34.4330 H   0  0  0  0  0  0  0  0  0  0  0  0
   36.8195   26.8501   34.9979 H   0  0  0  0  0  0  0  0  0  0  0  0
   39.6172   27.5985   34.9506 H   0  0  0  0  0  0  0  0  0  0  0  0
   43.3110   26.4854   34.8004 H   0  0  0  0  0  0  0  0  0  0  0  0
   43.4434   26.4677   33.0881 H   0  0  0  0  0  0  0  0  0  0  0  0
   41.0095   27.4141   34.8261 H   0  0  0  0  0  0  0  0  0  0  0  0
   41.8243   28.3957   33.6290 H   0  0  0  0  0  0  0  0  0  0  0  0
   40.9934   27.2162   31.8977 H   0  0  0  0  0  0  0  0  0  0  0  0
   39.8615   24.9564   33.5085 H   0  0  0  0  0  0  0  0  0  0  0  0
   40.8998   24.8379   32.0757 H   0  0  0  0  0  0  0  0  0  0  0  0
   41.9465   20.5396   34.3069 H   0  0  0  0  0  0  0  0  0  0  0  0
   41.4614   22.6316   33.0126 H   0  0  0  0  0  0  0  0  0  0  0  0
   43.3649   22.8766   37.5290 H   0  0  0  0  0  0  0  0  0  0  0  0
   38.5162   25.0348   34.3920 H   0  0  0  0  0  0  0  0  0  0  0  0
   38.7169   26.4361   36.9612 H   0  0  0  0  0  0  0  0  0  0  0  0
   37.1910   26.3082   35.9879 H   0  0  0  0  0  0  0  0  0  0  0  0
   38.6913   25.2376   38.5342 H   0  0  0  0  0  0  0  0  0  0  0  0
   36.9349   24.6628   38.5616 H   0  0  0  0  0  0  0  0  0  0  0  0
   38.5342   23.2846   39.8851 H   0  0  0  0  0  0  0  0  0  0  0  0
   37.5782   22.4157   38.6713 H   0  0  0  0  0  0  0  0  0  0  0  0
   40.2750   23.5682   38.1049 H   0  0  0  0  0  0  0  0  0  0  0  0
   40.1092   22.1963   36.2145 H   0  0  0  0  0  0  0  0  0  0  0  0
   38.5201   21.5694   36.9099 H   0  0  0  0  0  0  0  0  0  0  0  0
   37.6012   22.9488   35.5521 H   0  0  0  0  0  0  0  0  0  0  0  0
   39.1765   23.9292   35.3929 H   0  0  0  0  0  0  0  0  0  0  0  0
  1  2  1  0
  1  5  1  0
  2  3  1  0
  3  4  1  0
  4  5  1  0
  5 17  1  0
  6 13  1  0
  7  6  1  0
  8  7  1  0
  9  1  1  0
  9 10  1  0
  9  8  1  0
 10  6  1  0
 11 16  2  0
 12 13  2  0
 12 11  1  0
 13 14  1  0
 14 15  2  0
 16 15  1  0
 17 18  1  0
 18 19  1  0
 19 20  1  0
 20 21  1  0
 22 21  1  0
 23 22  1  0
 24 19  1  0
 24 23  1  0
  2 25  1  0
  2 26  1  0
  3 27  1  0
  3 28  1  0
  4 29  1  0
  4 30  1  0
  5 31  1  1
  7 32  1  0
  7 33  1  0
  8 34  1  0
  8 35  1  0
  9 36  1  6
 10 37  1  0
 10 38  1  0
 11 39  1  0
 12 40  1  0
 15 41  1  0
 17 42  1  0
 18 43  1  0
 18 44  1  0
 20 45  1  0
 20 46  1  0
 21 47  1  0
 21 48  1  0
 22 49  1  0
 23 50  1  0
 23 51  1  0
 24 52  1  0
 24 53  1  0
M  ISO  8  25  13  26  13  27  13  28  13  29  13  30  13  31  13  32  13
M  ISO  8  33  13  34  13  35  13  36  13  37  13  38  13  39  14  40  14
M  ISO  8  41  14  42   5  43   8  44   8  45  13  46  13  47  13  48  13
M  ISO  5  49   5  50  13  51  13  52  13  53  13
M  END
>  <minimizedAffinity>  (1) 
-4.74885798

>  <minimizedRMSD>  (1) 
1.99311757

$$$$
