
     RDKit          3D

 54 57  0  0  1  0  0  0  0  0999 V2000
   36.6460   28.2900   32.3520 N   0  0  0  0  0  0  0  0  0  0  0  0
   35.3320   28.4540   32.2900 C   0  0  0  0  0  0  0  0  0  0  0  0
   35.0330   29.0630   33.6790 C   0  0  0  0  0  0  0  0  0  0  0  0
   36.2840   28.7640   34.4970 C   0  0  0  0  0  0  0  0  0  0  0  0
   37.1150   27.8840   33.5850 C   0  0  1  0  0  0  0  0  0  0  0  0
   37.4220   25.3080   30.9150 N   0  0  0  0  0  0  0  0  0  0  0  0
   38.7530   25.8940   30.6850 C   0  0  0  0  0  0  0  0  0  0  0  0
   38.6100   27.1140   31.6230 C   0  0  0  0  0  0  0  0  0  0  0  0
   37.3280   27.6050   31.2920 C   0  0  1  0  0  0  0  0  0  0  0  0
   36.4950   26.4150   31.0360 C   0  0  0  0  0  0  0  0  0  0  0  0
   35.4510   22.2100   31.4410 C   0  0  0  0  0  0  0  0  0  0  0  0
   35.7780   23.5750   31.3680 C   0  0  0  0  0  0  0  0  0  0  0  0
   37.0510   23.9680   31.0070 C   0  0  0  0  0  0  0  0  0  0  0  0
   37.9360   22.9990   30.7370 N   0  0  0  0  0  0  0  0  0  0  0  0
   37.6180   21.6770   30.8080 C   0  0  0  0  0  0  0  0  0  0  0  0
   36.3890   21.2860   31.1570 N   0  0  0  0  0  0  0  0  0  0  0  0
   36.8790   26.5630   34.0240 N   0  0  0  0  0  0  0  0  0  0  0  0
   37.5110   26.3750   35.3040 C   0  0  0  0  0  0  0  0  0  0  0  0
   38.5200   25.3330   35.2870 N   0  0  0  0  0  0  0  0  0  0  0  0
   38.5730   24.7960   36.6360 C   0  0  0  0  0  0  0  0  0  0  0  0
   37.5460   23.6870   36.7320 C   0  0  0  0  0  0  0  0  0  0  0  0
   38.1880   22.4670   36.0670 C   0  0  0  0  0  0  0  0  0  0  0  0
   38.6230   22.9280   34.7120 C   0  0  0  0  0  0  0  0  0  0  0  0
   38.1230   24.3150   34.3570 C   0  0  0  0  0  0  0  0  0  0  0  0
   35.0506   29.1429   31.4799 H   0  0  0  0  0  0  0  0  0  0  0  0
   34.7739   27.5308   32.0749 H   0  0  0  0  0  0  0  0  0  0  0  0
   34.8677   30.1478   33.6017 H   0  0  0  0  0  0  0  0  0  0  0  0
   34.1228   28.6457   34.1344 H   0  0  0  0  0  0  0  0  0  0  0  0
   36.8220   29.6916   34.7423 H   0  0  0  0  0  0  0  0  0  0  0  0
   36.0562   28.2819   35.4591 H   0  0  0  0  0  0  0  0  0  0  0  0
   38.2130   27.9473   33.5648 H   0  0  0  0  0  0  0  0  0  0  0  0
   39.5651   25.2207   30.9966 H   0  0  0  0  0  0  0  0  0  0  0  0
   39.0112   26.1147   29.6387 H   0  0  0  0  0  0  0  0  0  0  0  0
   38.6592   26.8112   32.6794 H   0  0  0  0  0  0  0  0  0  0  0  0
   39.4102   27.8585   31.4994 H   0  0  0  0  0  0  0  0  0  0  0  0
   37.4658   28.3101   30.4590 H   0  0  0  0  0  0  0  0  0  0  0  0
   35.9229   26.5401   30.1048 H   0  0  0  0  0  0  0  0  0  0  0  0
   35.7655   26.2482   31.8422 H   0  0  0  0  0  0  0  0  0  0  0  0
   34.4359   21.8984   31.7281 H   0  0  0  0  0  0  0  0  0  0  0  0
   35.0159   24.3336   31.5996 H   0  0  0  0  0  0  0  0  0  0  0  0
   38.3826   20.9213   30.5751 H   0  0  0  0  0  0  0  0  0  0  0  0
   35.8652   26.4044   34.1127 H   0  0  0  0  0  0  0  0  0  0  0  0
   37.9876   27.3204   35.6025 H   0  0  0  0  0  0  0  0  0  0  0  0
   36.7307   26.0677   36.0158 H   0  0  0  0  0  0  0  0  0  0  0  0
   39.5769   24.3954   36.8404 H   0  0  0  0  0  0  0  0  0  0  0  0
   38.3582   25.5842   37.3726 H   0  0  0  0  0  0  0  0  0  0  0  0
   37.3125   23.4710   37.7850 H   0  0  0  0  0  0  0  0  0  0  0  0
   36.6015   23.9657   36.2418 H   0  0  0  0  0  0  0  0  0  0  0  0
   39.0539   22.1227   36.6515 H   0  0  0  0  0  0  0  0  0  0  0  0
   37.4860   21.6225   36.0030 H   0  0  0  0  0  0  0  0  0  0  0  0
   39.7226   22.9360   34.6831 H   0  0  0  0  0  0  0  0  0  0  0  0
   38.1922   22.2306   33.9786 H   0  0  0  0  0  0  0  0  0  0  0  0
   38.5155   24.5809   33.3644 H   0  0  0  0  0  0  0  0  0  0  0  0
   37.0240   24.2733   34.3800 H   0  0  0  0  0  0  0  0  0  0  0  0
  1  2  1  0
  1  5  1  0
  2  3  1  0
  3  4  1  0
  5 17  1  0
  5  4  1  0
  6 13  1  0
  6 10  1  0
  7  6  1  0
  7  8  1  0
  9  8  1  0
  9  1  1  0
 10  9  1  0
 12 11  2  0
 13 12  1  0
 14 15  1  0
 14 13  2  0
 15 16  2  0
 16 11  1  0
 17 18  1  0
 19 18  1  0
 19 20  1  0
 20 21  1  0
 22 21  1  0
 23 22  1  0
 24 23  1  0
 24 19  1  0
  2 25  1  0
  2 26  1  0
  3 27  1  0
  3 28  1  0
  4 29  1  0
  4 30  1  0
  5 31  1  6
  7 32  1  0
  7 33  1  0
  8 34  1  0
  8 35  1  0
  9 36  1  6
 10 37  1  0
 10 38  1  0
 11 39  1  0
 12 40  1  0
 15 41  1  0
 17 42  1  0
 18 43  1  0
 18 44  1  0
 20 45  1  0
 20 46  1  0
 21 47  1  0
 21 48  1  0
 22 49  1  0
 22 50  1  0
 23 51  1  0
 23 52  1  0
 24 53  1  0
 24 54  1  0
M  ISO  8  25  13  26  13  27  13  28  13  29  13  30  13  31  13  32  13
M  ISO  8  33  13  34  13  35  13  36  13  37  13  38  13  39  14  40  14
M  ISO  8  41  14  42   5  43   8  44   8  45  13  46  13  47  13  48  13
M  ISO  6  49  13  50  13  51  13  52  13  53  13  54  13
M  END
>  <minimizedAffinity>  (1) 
-4.8346405

>  <minimizedRMSD>  (1) 
4.65920591

$$$$
