
     RDKit          3D

 46 49  0  0  1  0  0  0  0  0999 V2000
   39.0340   25.8560   32.0820 N   0  0  0  0  0  0  0  0  0  0  0  0
   38.8910   24.8380   31.2390 C   0  0  0  0  0  0  0  0  0  0  0  0
   37.3770   24.5680   31.3680 C   0  0  0  0  0  0  0  0  0  0  0  0
   36.9720   25.2630   32.6460 C   0  0  0  0  0  0  0  0  0  0  0  0
   38.2860   25.7800   33.2470 C   0  0  1  0  0  0  0  0  0  0  0  0
   41.8860   25.5210   33.9000 N   0  0  0  0  0  0  0  0  0  0  0  0
   41.8710   26.9930   33.9840 C   0  0  0  0  0  0  0  0  0  0  0  0
   40.4300   27.2100   33.4850 C   0  0  0  0  0  0  0  0  0  0  0  0
   40.3400   26.3580   32.3650 C   0  0  1  0  0  0  0  0  0  0  0  0
   41.1350   25.1680   32.7210 C   0  0  0  0  0  0  0  0  0  0  0  0
   42.9620   22.3270   35.4470 C   0  0  0  0  0  0  0  0  0  0  0  0
   42.3370   23.2240   34.5710 C   0  0  0  0  0  0  0  0  0  0  0  0
   42.4840   24.5850   34.7440 C   0  0  0  0  0  0  0  0  0  0  0  0
   43.2430   25.0010   35.7700 N   0  0  0  0  0  0  0  0  0  0  0  0
   43.8500   24.1230   36.6200 C   0  0  0  0  0  0  0  0  0  0  0  0
   43.7110   22.8060   36.4600 N   0  0  0  0  0  0  0  0  0  0  0  0
   38.6320   24.8200   34.2280 N   0  0  0  0  0  0  0  0  0  0  0  0
   37.9590   25.1780   35.4500 C   0  0  0  0  0  0  0  0  0  0  0  0
   38.4210   24.3830   36.5690 N   0  0  0  0  0  0  0  0  0  0  0  0
   39.4420   23.5090   36.5370 N   0  0  0  0  0  0  0  0  0  0  0  0
   39.5850   22.9260   37.7360 C   0  0  0  0  0  0  0  0  0  0  0  0
   38.6510   23.4020   38.6130 C   0  0  0  0  0  0  0  0  0  0  0  0
   37.9500   24.3040   37.8440 C   0  0  0  0  0  0  0  0  0  0  0  0
   39.1660   25.1208   30.2121 H   0  0  0  0  0  0  0  0  0  0  0  0
   39.5294   23.9699   31.4600 H   0  0  0  0  0  0  0  0  0  0  0  0
   36.8334   24.9879   30.5089 H   0  0  0  0  0  0  0  0  0  0  0  0
   37.1459   23.4927   31.3874 H   0  0  0  0  0  0  0  0  0  0  0  0
   36.2888   26.0983   32.4327 H   0  0  0  0  0  0  0  0  0  0  0  0
   36.4389   24.5894   33.3330 H   0  0  0  0  0  0  0  0  0  0  0  0
   38.3581   26.7372   33.7841 H   0  0  0  0  0  0  0  0  0  0  0  0
   42.0167   27.3550   35.0125 H   0  0  0  0  0  0  0  0  0  0  0  0
   42.6623   27.5203   33.4311 H   0  0  0  0  0  0  0  0  0  0  0  0
   39.6993   26.9248   34.2562 H   0  0  0  0  0  0  0  0  0  0  0  0
   40.2129   28.2610   33.2435 H   0  0  0  0  0  0  0  0  0  0  0  0
   40.6663   26.9379   31.4891 H   0  0  0  0  0  0  0  0  0  0  0  0
   40.4719   24.3163   32.9327 H   0  0  0  0  0  0  0  0  0  0  0  0
   41.8005   24.8707   31.8972 H   0  0  0  0  0  0  0  0  0  0  0  0
   42.8426   21.2422   35.3094 H   0  0  0  0  0  0  0  0  0  0  0  0
   41.7256   22.8411   33.7406 H   0  0  0  0  0  0  0  0  0  0  0  0
   44.4627   24.5067   37.4490 H   0  0  0  0  0  0  0  0  0  0  0  0
   38.3307   23.8833   33.9234 H   0  0  0  0  0  0  0  0  0  0  0  0
   38.1500   26.2399   35.6642 H   0  0  0  0  0  0  0  0  0  0  0  0
   36.8834   24.9899   35.3168 H   0  0  0  0  0  0  0  0  0  0  0  0
   40.3469   22.1708   37.9795 H   0  0  0  0  0  0  0  0  0  0  0  0
   38.4977   23.1323   39.6683 H   0  0  0  0  0  0  0  0  0  0  0  0
   37.1021   24.8960   38.2189 H   0  0  0  0  0  0  0  0  0  0  0  0
  1  2  1  0
  1  9  1  0
  1  5  1  0
  2  3  1  0
  3  4  1  0
  4  5  1  0
  5 17  1  0
  6  7  1  0
  6 13  1  0
  8  7  1  0
  9 10  1  0
  9  8  1  0
 10  6  1  0
 11 16  2  0
 12 13  2  0
 12 11  1  0
 13 14  1  0
 14 15  2  0
 16 15  1  0
 17 18  1  0
 18 19  1  0
 19 23  1  0
 20 19  1  0
 20 21  2  0
 21 22  1  0
 23 22  2  0
  2 24  1  0
  2 25  1  0
  3 26  1  0
  3 27  1  0
  4 28  1  0
  4 29  1  0
  5 30  1  1
  7 31  1  0
  7 32  1  0
  8 33  1  0
  8 34  1  0
  9 35  1  6
 10 36  1  0
 10 37  1  0
 11 38  1  0
 12 39  1  0
 15 40  1  0
 17 41  1  0
 18 42  1  0
 18 43  1  0
 21 44  1  0
 22 45  1  0
 23 46  1  0
M  ISO  8  24  13  25  13  26  13  27  13  28  13  29  13  30  13  31  13
M  ISO  8  32  13  33  13  34  13  35  13  36  13  37  13  38  14  39  14
M  ISO  7  40  14  41   5  42   8  43   8  44  14  45  14  46  14
M  END
>  <minimizedAffinity>  (1) 
-4.39854717

>  <minimizedRMSD>  (1) 
2.18761492

$$$$
