
     RDKit          3D

 48 51  0  0  1  0  0  0  0  0999 V2000
   37.8060   27.4230   33.0550 N   0  0  0  0  0  0  0  0  0  0  0  0
   36.5270   27.7820   32.9840 C   0  0  0  0  0  0  0  0  0  0  0  0
   36.2920   28.4010   34.3740 C   0  0  0  0  0  0  0  0  0  0  0  0
   37.4540   27.8920   35.2200 C   0  0  0  0  0  0  0  0  0  0  0  0
   38.1700   26.9240   34.3020 C   0  0  1  0  0  0  0  0  0  0  0  0
   38.0280   24.4340   31.4510 N   0  0  0  0  0  0  0  0  0  0  0  0
   39.4670   24.7140   31.3660 C   0  0  0  0  0  0  0  0  0  0  0  0
   39.5130   25.8730   32.3780 C   0  0  0  0  0  0  0  0  0  0  0  0
   38.4130   26.6750   32.0010 C   0  0  1  0  0  0  0  0  0  0  0  0
   37.3540   25.7120   31.5890 C   0  0  0  0  0  0  0  0  0  0  0  0
   35.4370   21.8030   31.8760 C   0  0  0  0  0  0  0  0  0  0  0  0
   36.0950   23.0420   31.9440 C   0  0  0  0  0  0  0  0  0  0  0  0
   37.3480   23.2140   31.4080 C   0  0  0  0  0  0  0  0  0  0  0  0
   37.9060   22.1440   30.8190 N   0  0  0  0  0  0  0  0  0  0  0  0
   37.2900   20.9370   30.7390 C   0  0  0  0  0  0  0  0  0  0  0  0
   36.0570   20.7710   31.2700 N   0  0  0  0  0  0  0  0  0  0  0  0
   37.7420   25.6330   34.6870 N   0  0  0  0  0  0  0  0  0  0  0  0
   38.2320   25.3620   36.0060 C   0  0  0  0  0  0  0  0  0  0  0  0
   38.8330   24.0260   36.2550 C   0  0  0  0  0  0  0  0  0  0  0  0
   39.5980   23.4380   35.1360 C   0  0  0  0  0  0  0  0  0  0  0  0
   38.8940   22.2180   34.6720 C   0  0  0  0  0  0  0  0  0  0  0  0
   37.6790   22.0310   35.5060 C   0  0  0  0  0  0  0  0  0  0  0  0
   37.7250   23.0520   36.5860 C   0  0  0  0  0  0  0  0  0  0  0  0
   36.3625   28.5197   32.1848 H   0  0  0  0  0  0  0  0  0  0  0  0
   35.8454   26.9519   32.7466 H   0  0  0  0  0  0  0  0  0  0  0  0
   36.3041   29.4995   34.3175 H   0  0  0  0  0  0  0  0  0  0  0  0
   35.3146   28.1236   34.7956 H   0  0  0  0  0  0  0  0  0  0  0  0
   38.1178   28.7189   35.5126 H   0  0  0  0  0  0  0  0  0  0  0  0
   37.1242   27.4238   36.1592 H   0  0  0  0  0  0  0  0  0  0  0  0
   39.2662   26.8346   34.3204 H   0  0  0  0  0  0  0  0  0  0  0  0
   40.0788   23.8570   31.6843 H   0  0  0  0  0  0  0  0  0  0  0  0
   39.8606   24.9307   30.3620 H   0  0  0  0  0  0  0  0  0  0  0  0
   39.3967   25.5027   33.4073 H   0  0  0  0  0  0  0  0  0  0  0  0
   40.4683   26.4182   32.3661 H   0  0  0  0  0  0  0  0  0  0  0  0
   38.7820   27.3879   31.2489 H   0  0  0  0  0  0  0  0  0  0  0  0
   36.9078   26.0172   30.6310 H   0  0  0  0  0  0  0  0  0  0  0  0
   36.5353   25.6657   32.3222 H   0  0  0  0  0  0  0  0  0  0  0  0
   34.4339   21.6772   32.3095 H   0  0  0  0  0  0  0  0  0  0  0  0
   35.5974   23.8908   32.4359 H   0  0  0  0  0  0  0  0  0  0  0  0
   37.7933   20.0942   30.2426 H   0  0  0  0  0  0  0  0  0  0  0  0
   36.7127   25.5938   34.6846 H   0  0  0  0  0  0  0  0  0  0  0  0
   39.0000   26.1160   36.2333 H   0  0  0  0  0  0  0  0  0  0  0  0
   37.3389   25.3908   36.6475 H   0  0  0  0  0  0  0  0  0  0  0  0
   39.5503   24.1917   37.0724 H   0  0  0  0  0  0  0  0  0  0  0  0
   40.5331   23.8382   34.7172 H   0  0  0  0  0  0  0  0  0  0  0  0
   39.2168   21.5626   33.8496 H   0  0  0  0  0  0  0  0  0  0  0  0
   36.8921   21.2777   35.3531 H   0  0  0  0  0  0  0  0  0  0  0  0
   37.0696   23.0916   37.4686 H   0  0  0  0  0  0  0  0  0  0  0  0
  1  2  1  0
  1  5  1  0
  2  3  1  0
  3  4  1  0
  5 17  1  0
  5  4  1  0
  6 10  1  0
  7  6  1  0
  7  8  1  0
  9  8  1  0
  9  1  1  0
 10  9  1  0
 11 12  2  0
 13  6  1  0
 13 12  1  0
 14 13  2  0
 15 14  1  0
 15 16  2  0
 16 11  1  0
 17 18  1  0
 19 18  1  0
 19 23  1  0
 20 19  1  0
 21 20  2  0
 21 22  1  0
 22 23  2  0
  2 24  1  0
  2 25  1  0
  3 26  1  0
  3 27  1  0
  4 28  1  0
  4 29  1  0
  5 30  1  1
  7 31  1  0
  7 32  1  0
  8 33  1  0
  8 34  1  0
  9 35  1  6
 10 36  1  0
 10 37  1  0
 11 38  1  0
 12 39  1  0
 15 40  1  0
 17 41  1  0
 18 42  1  0
 18 43  1  0
 19 44  1  0
 20 45  1  0
 21 46  1  0
 22 47  1  0
 23 48  1  0
M  ISO  8  24  13  25  13  26  13  27  13  28  13  29  13  30  13  31  13
M  ISO  8  32  13  33  13  34  13  35  13  36  13  37  13  38  14  39  14
M  ISO  8  40  14  41   5  42   8  43   8  44  13  45  13  46  13  47  13
M  ISO  1  48  13
M  END
>  <minimizedAffinity>  (1) 
-4.64504671

>  <minimizedRMSD>  (1) 
4.41955328

$$$$
