
     RDKit          3D

 46 49  0  0  1  0  0  0  0  0999 V2000
   38.4010   27.1260   33.3640 N   0  0  0  0  0  0  0  0  0  0  0  0
   39.5080   27.1360   32.6330 C   0  0  0  0  0  0  0  0  0  0  0  0
   38.9250   27.2950   31.2060 C   0  0  0  0  0  0  0  0  0  0  0  0
   37.4600   26.9360   31.3580 C   0  0  0  0  0  0  0  0  0  0  0  0
   37.3390   26.4590   32.7910 C   0  0  1  0  0  0  0  0  0  0  0  0
   39.3400   24.9250   35.7870 N   0  0  0  0  0  0  0  0  0  0  0  0
   38.1000   25.3350   36.4730 C   0  0  0  0  0  0  0  0  0  0  0  0
   37.4380   26.0670   35.2900 C   0  0  0  0  0  0  0  0  0  0  0  0
   38.4910   26.8480   34.7690 C   0  0  1  0  0  0  0  0  0  0  0  0
   39.6970   26.0160   34.9060 C   0  0  0  0  0  0  0  0  0  0  0  0
   41.5800   22.0690   35.0590 C   0  0  0  0  0  0  0  0  0  0  0  0
   40.8530   23.2530   34.8840 C   0  0  0  0  0  0  0  0  0  0  0  0
   40.0770   23.7530   35.9090 C   0  0  0  0  0  0  0  0  0  0  0  0
   40.0550   23.0640   37.0590 N   0  0  0  0  0  0  0  0  0  0  0  0
   40.7660   21.9100   37.2270 C   0  0  0  0  0  0  0  0  0  0  0  0
   41.5170   21.4210   36.2390 N   0  0  0  0  0  0  0  0  0  0  0  0
   37.3550   25.0490   32.7120 N   0  0  0  0  0  0  0  0  0  0  0  0
   36.3000   24.6180   31.8250 C   0  0  0  0  0  0  0  0  0  0  0  0
   36.2810   23.1490   31.5910 C   0  0  0  0  0  0  0  0  0  0  0  0
   37.2630   22.3500   30.9940 C   0  0  0  0  0  0  0  0  0  0  0  0
   36.8270   21.0620   30.9840 N   0  0  0  0  0  0  0  0  0  0  0  0
   35.6020   21.0130   31.5550 C   0  0  0  0  0  0  0  0  0  0  0  0
   35.2890   22.2660   31.9120 N   0  0  0  0  0  0  0  0  0  0  0  0
   40.1591   27.9818   32.8990 H   0  0  0  0  0  0  0  0  0  0  0  0
   40.1439   26.2481   32.7645 H   0  0  0  0  0  0  0  0  0  0  0  0
   39.4230   26.6109   30.5031 H   0  0  0  0  0  0  0  0  0  0  0  0
   39.0699   28.3083   30.8032 H   0  0  0  0  0  0  0  0  0  0  0  0
   36.8230   27.8160   31.1850 H   0  0  0  0  0  0  0  0  0  0  0  0
   37.1360   26.1751   30.6327 H   0  0  0  0  0  0  0  0  0  0  0  0
   36.4458   26.6662   33.3987 H   0  0  0  0  0  0  0  0  0  0  0  0
   37.5077   24.4734   36.8149 H   0  0  0  0  0  0  0  0  0  0  0  0
   38.2276   25.9211   37.3951 H   0  0  0  0  0  0  0  0  0  0  0  0
   37.0679   25.3522   34.5403 H   0  0  0  0  0  0  0  0  0  0  0  0
   36.5620   26.6631   35.5853 H   0  0  0  0  0  0  0  0  0  0  0  0
   38.4802   27.8084   35.3052 H   0  0  0  0  0  0  0  0  0  0  0  0
   40.0052   25.6274   33.9241 H   0  0  0  0  0  0  0  0  0  0  0  0
   40.5395   26.5967   35.3099 H   0  0  0  0  0  0  0  0  0  0  0  0
   42.1974   21.6712   34.2401 H   0  0  0  0  0  0  0  0  0  0  0  0
   40.9010   23.7874   33.9237 H   0  0  0  0  0  0  0  0  0  0  0  0
   40.7188   21.3776   38.1884 H   0  0  0  0  0  0  0  0  0  0  0  0
   38.2647   24.7335   32.3462 H   0  0  0  0  0  0  0  0  0  0  0  0
   35.3351   24.9127   32.2634 H   0  0  0  0  0  0  0  0  0  0  0  0
   36.4814   25.0972   30.8516 H   0  0  0  0  0  0  0  0  0  0  0  0
   38.2264   22.7047   30.5989 H   0  0  0  0  0  0  0  0  0  0  0  0
   34.9814   20.1162   31.6988 H   0  0  0  0  0  0  0  0  0  0  0  0
   34.4069   22.5315   32.3728 H   0  0  0  0  0  0  0  0  0  0  0  0
  1  2  1  0
  1  9  1  0
  3  4  1  0
  3  2  1  0
  4  5  1  0
  5  1  1  0
  6 13  1  0
  6  7  1  0
  8  7  1  0
  9 10  1  0
  9  8  1  0
 10  6  1  0
 11 16  2  0
 12 11  1  0
 12 13  2  0
 13 14  1  0
 14 15  2  0
 16 15  1  0
 17  5  1  0
 18 17  1  0
 19 18  1  0
 19 23  1  0
 20 19  2  0
 21 20  1  0
 21 22  2  0
 22 23  1  0
  2 24  1  0
  2 25  1  0
  3 26  1  0
  3 27  1  0
  4 28  1  0
  4 29  1  0
  5 30  1  1
  7 31  1  0
  7 32  1  0
  8 33  1  0
  8 34  1  0
  9 35  1  1
 10 36  1  0
 10 37  1  0
 11 38  1  0
 12 39  1  0
 15 40  1  0
 17 41  1  0
 18 42  1  0
 18 43  1  0
 20 44  1  0
 22 45  1  0
 23 46  1  0
M  ISO  8  24  13  25  13  26  13  27  13  28  13  29  13  30  13  31  13
M  ISO  8  32  13  33  13  34  13  35  13  36  13  37  13  38  14  39  14
M  ISO  7  40  14  41   5  42   8  43   8  44  14  45  14  46   9
M  END
>  <minimizedAffinity>  (1) 
-4.53818941

>  <minimizedRMSD>  (1) 
4.61866379

$$$$
