
     RDKit          3D

 45 48  0  0  1  0  0  0  0  0999 V2000
   37.6390   26.2550   31.9780 N   0  0  0  0  0  0  0  0  0  0  0  0
   36.8100   25.2450   31.7550 C   0  0  0  0  0  0  0  0  0  0  0  0
   35.5560   25.9690   31.2650 C   0  0  0  0  0  0  0  0  0  0  0  0
   35.7560   27.4170   31.7050 C   0  0  0  0  0  0  0  0  0  0  0  0
   37.0320   27.3930   32.5210 C   0  0  1  0  0  0  0  0  0  0  0  0
   39.3360   25.2260   34.7420 N   0  0  0  0  0  0  0  0  0  0  0  0
   40.2700   26.3170   34.4320 C   0  0  0  0  0  0  0  0  0  0  0  0
   39.3960   27.0590   33.3990 C   0  0  0  0  0  0  0  0  0  0  0  0
   38.9110   26.0170   32.5810 C   0  0  1  0  0  0  0  0  0  0  0  0
   38.6830   24.8860   33.4910 C   0  0  0  0  0  0  0  0  0  0  0  0
   37.8450   24.3020   37.9990 C   0  0  0  0  0  0  0  0  0  0  0  0
   38.0620   24.9990   36.8000 C   0  0  0  0  0  0  0  0  0  0  0  0
   39.0720   24.5870   35.9500 C   0  0  0  0  0  0  0  0  0  0  0  0
   39.8160   23.5240   36.3100 N   0  0  0  0  0  0  0  0  0  0  0  0
   39.5960   22.8550   37.4770 C   0  0  0  0  0  0  0  0  0  0  0  0
   38.6190   23.2410   38.3130 N   0  0  0  0  0  0  0  0  0  0  0  0
   36.5990   27.3800   33.8580 N   0  0  0  0  0  0  0  0  0  0  0  0
   36.9450   28.6200   34.4920 C   0  0  0  0  0  0  0  0  0  0  0  0
   35.7940   29.4940   34.7820 C   0  0  0  0  0  0  0  0  0  0  0  0
   34.4100   29.1950   34.3450 C   0  0  0  0  0  0  0  0  0  0  0  0
   33.5430   30.6330   35.0430 S   0  0  0  0  0  0  0  0  0  0  0  0
   35.0870   31.3790   35.7770 C   0  0  0  0  0  0  0  0  0  0  0  0
   36.1130   30.5750   35.4890 N   0  0  0  0  0  0  0  0  0  0  0  0
   37.2055   24.5649   30.9862 H   0  0  0  0  0  0  0  0  0  0  0  0
   36.6398   24.6070   32.6348 H   0  0  0  0  0  0  0  0  0  0  0  0
   34.6543   25.5425   31.7287 H   0  0  0  0  0  0  0  0  0  0  0  0
   35.4171   25.8770   30.1777 H   0  0  0  0  0  0  0  0  0  0  0  0
   35.8653   28.0771   30.8319 H   0  0  0  0  0  0  0  0  0  0  0  0
   34.8999   27.8017   32.2787 H   0  0  0  0  0  0  0  0  0  0  0  0
   37.7624   28.2151   32.4959 H   0  0  0  0  0  0  0  0  0  0  0  0
   40.4927   26.9379   35.3123 H   0  0  0  0  0  0  0  0  0  0  0  0
   41.2705   26.0140   34.0898 H   0  0  0  0  0  0  0  0  0  0  0  0
   38.5691   27.5915   33.8916 H   0  0  0  0  0  0  0  0  0  0  0  0
   39.9486   27.8269   32.8379 H   0  0  0  0  0  0  0  0  0  0  0  0
   39.6426   25.8757   31.7718 H   0  0  0  0  0  0  0  0  0  0  0  0
   37.6048   24.7395   33.6526 H   0  0  0  0  0  0  0  0  0  0  0  0
   39.0856   23.9515   33.0731 H   0  0  0  0  0  0  0  0  0  0  0  0
   37.0443   24.6202   38.6829 H   0  0  0  0  0  0  0  0  0  0  0  0
   37.4349   25.8643   36.5392 H   0  0  0  0  0  0  0  0  0  0  0  0
   40.2249   21.9906   37.7363 H   0  0  0  0  0  0  0  0  0  0  0  0
   35.5770   27.2552   33.8854 H   0  0  0  0  0  0  0  0  0  0  0  0
   37.4524   28.3921   35.4410 H   0  0  0  0  0  0  0  0  0  0  0  0
   37.5864   29.1672   33.7855 H   0  0  0  0  0  0  0  0  0  0  0  0
   34.0191   28.3463   33.7646 H   0  0  0  0  0  0  0  0  0  0  0  0
   35.1424   32.3178   36.3477 H   0  0  0  0  0  0  0  0  0  0  0  0
  1  2  1  0
  1  5  1  0
  1  9  1  0
  3  4  1  0
  3  2  1  0
  4  5  1  0
  5 17  1  0
  6 13  1  0
  7  6  1  0
  8  7  1  0
  9  8  1  0
  9 10  1  0
 10  6  1  0
 11 16  2  0
 12 11  1  0
 13 14  1  0
 13 12  2  0
 14 15  2  0
 15 16  1  0
 17 18  1  0
 18 19  1  0
 19 23  1  0
 20 19  2  0
 20 21  1  0
 21 22  1  0
 23 22  2  0
  2 24  1  0
  2 25  1  0
  3 26  1  0
  3 27  1  0
  4 28  1  0
  4 29  1  0
  5 30  1  1
  7 31  1  0
  7 32  1  0
  8 33  1  0
  8 34  1  0
  9 35  1  6
 10 36  1  0
 10 37  1  0
 11 38  1  0
 12 39  1  0
 15 40  1  0
 17 41  1  0
 18 42  1  0
 18 43  1  0
 20 44  1  0
 22 45  1  0
M  ISO  8  24  13  25  13  26  13  27  13  28  13  29  13  30  13  31  13
M  ISO  8  32  13  33  13  34  13  35  13  36  13  37  13  38  14  39  14
M  ISO  6  40  14  41   5  42   8  43   8  44  14  45  14
M  END
>  <minimizedAffinity>  (1) 
-4.55330181

>  <minimizedRMSD>  (1) 
2.38890624

$$$$
