
     RDKit          3D

 13 13  0  0  0  0  0  0  0  0999 V2000
   39.8340   22.4820   37.2630 C   0  0  0  0  0  0  0  0  0  0  0  0
   39.3090   23.2100   38.3430 C   0  0  0  0  0  0  0  0  0  0  0  0
   37.9930   23.6970   38.2410 C   0  0  0  0  0  0  0  0  0  0  0  0
   37.3130   23.4290   37.0940 N   0  0  0  0  0  0  0  0  0  0  0  0
   37.8630   22.7230   36.0790 C   0  0  0  0  0  0  0  0  0  0  0  0
   39.1140   22.2510   36.1600 N   0  0  0  0  0  0  0  0  0  0  0  0
   41.2150   21.9550   37.3360 C   0  0  0  0  0  0  0  0  0  0  0  0
   39.9109   23.3946   39.2450 H   0  0  0  0  0  0  0  0  0  0  0  0
   37.5319   24.2723   39.0574 H   0  0  0  0  0  0  0  0  0  0  0  0
   37.2720   22.5332   35.1709 H   0  0  0  0  0  0  0  0  0  0  0  0
   41.5094   21.8427   38.3899 H   0  0  0  0  0  0  0  0  0  0  0  0
   41.2608   20.9762   36.8362 H   0  0  0  0  0  0  0  0  0  0  0  0
   41.9013   22.6544   36.8362 H   0  0  0  0  0  0  0  0  0  0  0  0
  1  7  1  0
  1  2  2  0
  3  2  1  0
  4  3  2  0
  5  6  2  0
  5  4  1  0
  6  1  1  0
  2  8  1  0
  3  9  1  0
  5 10  1  0
  7 11  1  0
  7 12  1  0
  7 13  1  0
M  ISO  6   8  14   9  14  10  14  11   8  12   8  13   8
M  END
>  <minimizedAffinity>  (1) 
-2.84810328

>  <minimizedRMSD>  (1) 
0.751089871

$$$$
