
     RDKit          3D

 23 24  0  0  0  0  0  0  0  0999 V2000
   41.2400   22.0140   36.1950 C   0  0  0  0  0  0  0  0  0  0  0  0
   39.9250   22.4400   36.6990 C   0  0  0  0  0  0  0  0  0  0  0  0
   39.8280   22.9560   38.0070 C   0  0  0  0  0  0  0  0  0  0  0  0
   38.5450   23.3540   38.4530 C   0  0  0  0  0  0  0  0  0  0  0  0
   37.4960   23.2200   37.6120 N   0  0  0  0  0  0  0  0  0  0  0  0
   37.6520   22.7130   36.3550 C   0  0  0  0  0  0  0  0  0  0  0  0
   38.8570   22.3290   35.9080 N   0  0  0  0  0  0  0  0  0  0  0  0
   42.1390   23.1840   35.9990 C   0  0  0  0  0  0  0  0  0  0  0  0
   41.8320   24.2800   35.2190 C   0  0  0  0  0  0  0  0  0  0  0  0
   42.7460   25.3070   35.1130 C   0  0  0  0  0  0  0  0  0  0  0  0
   43.9790   25.3150   35.7490 C   0  0  0  0  0  0  0  0  0  0  0  0
   44.2310   24.1800   36.5230 C   0  0  0  0  0  0  0  0  0  0  0  0
   43.3500   23.1220   36.6640 C   0  0  0  0  0  0  0  0  0  0  0  0
   41.6979   21.3257   36.9206 H   0  0  0  0  0  0  0  0  0  0  0  0
   41.0992   21.5132   35.2258 H   0  0  0  0  0  0  0  0  0  0  0  0
   40.7128   23.0457   38.6544 H   0  0  0  0  0  0  0  0  0  0  0  0
   38.4047   23.7642   39.4640 H   0  0  0  0  0  0  0  0  0  0  0  0
   36.7754   22.6176   35.6974 H   0  0  0  0  0  0  0  0  0  0  0  0
   40.8700   24.3338   34.6883 H   0  0  0  0  0  0  0  0  0  0  0  0
   42.4817   26.1718   34.4866 H   0  0  0  0  0  0  0  0  0  0  0  0
   44.6961   26.1435   35.6521 H   0  0  0  0  0  0  0  0  0  0  0  0
   45.1921   24.1233   37.0551 H   0  0  0  0  0  0  0  0  0  0  0  0
   43.6065   22.2539   37.2891 H   0  0  0  0  0  0  0  0  0  0  0  0
  1  2  1  0
  2  3  2  0
  3  4  1  0
  5  4  2  0
  6  5  1  0
  7  6  2  0
  7  2  1  0
  8  1  1  0
  8 13  1  0
  9  8  2  0
 10  9  1  0
 10 11  2  0
 11 12  1  0
 12 13  2  0
  1 14  1  0
  1 15  1  0
  3 16  1  0
  4 17  1  0
  6 18  1  0
  9 19  1  0
 10 20  1  0
 11 21  1  0
 12 22  1  0
 13 23  1  0
M  ISO  8  14   8  15   8  16  14  17  14  18  14  19  14  20  14  21  14
M  ISO  2  22  14  23  14
M  END
>  <minimizedAffinity>  (1) 
-3.98801279

>  <minimizedRMSD>  (1) 
0.685547471

$$$$
