
     RDKit          3D

 24 25  0  0  0  0  0  0  0  0999 V2000
   40.9960   22.2700   35.8310 C   0  0  0  0  0  0  0  0  0  0  0  0
   41.9460   23.3610   35.8250 N   0  0  0  0  0  0  0  0  0  0  0  0
   43.0180   23.1670   36.6330 C   0  0  0  0  0  0  0  0  0  0  0  0
   44.0320   24.1220   36.7470 C   0  0  0  0  0  0  0  0  0  0  0  0
   43.8470   25.2680   35.9710 C   0  0  0  0  0  0  0  0  0  0  0  0
   44.8990   26.2340   36.1030 N   0  0  0  0  0  0  0  0  0  0  0  0
   42.7660   25.4280   35.1770 N   0  0  0  0  0  0  0  0  0  0  0  0
   41.8240   24.4890   35.1010 C   0  0  0  0  0  0  0  0  0  0  0  0
   40.8070   24.6090   34.3710 O   0  0  0  0  0  0  0  0  0  0  0  0
   39.7610   22.6140   36.5870 C   0  0  0  0  0  0  0  0  0  0  0  0
   39.8560   23.0110   37.9410 C   0  0  0  0  0  0  0  0  0  0  0  0
   38.6700   23.3240   38.6080 C   0  0  0  0  0  0  0  0  0  0  0  0
   37.5120   23.2270   37.9160 N   0  0  0  0  0  0  0  0  0  0  0  0
   37.4670   22.8400   36.6130 C   0  0  0  0  0  0  0  0  0  0  0  0
   38.5870   22.5390   35.9630 N   0  0  0  0  0  0  0  0  0  0  0  0
   41.4659   21.3918   36.2979 H   0  0  0  0  0  0  0  0  0  0  0  0
   40.7110   22.0603   34.7895 H   0  0  0  0  0  0  0  0  0  0  0  0
   43.0911   22.2351   37.2128 H   0  0  0  0  0  0  0  0  0  0  0  0
   44.9079   23.9817   37.3975 H   0  0  0  0  0  0  0  0  0  0  0  0
   44.8582   27.1157   35.5721 H   0  0  0  0  0  0  0  0  0  0  0  0
   45.6953   26.0460   36.7287 H   0  0  0  0  0  0  0  0  0  0  0  0
   40.8291   23.0710   38.4503 H   0  0  0  0  0  0  0  0  0  0  0  0
   38.6772   23.6392   39.6619 H   0  0  0  0  0  0  0  0  0  0  0  0
   36.4991   22.7757   36.0943 H   0  0  0  0  0  0  0  0  0  0  0  0
  1 10  1  0
  2  1  1  0
  2  3  1  0
  3  4  2  0
  5  6  1  0
  5  4  1  0
  7  5  2  0
  8  7  1  0
  8  2  1  0
  9  8  2  0
 10 11  2  0
 11 12  1  0
 13 12  2  0
 14 13  1  0
 15 10  1  0
 15 14  2  0
  1 16  1  0
  1 17  1  0
  3 18  1  0
  4 19  1  0
  6 20  1  0
  6 21  1  0
 11 22  1  0
 12 23  1  0
 14 24  1  0
M  ISO  7  16   8  17   8  18  14  19  14  22  14  23  14  24  14
M  END
>  <minimizedAffinity>  (1) 
-4.13542271

>  <minimizedRMSD>  (1) 
0.982228458

$$$$
