
     RDKit          3D

 29 30  0  0  0  0  0  0  0  0999 V2000
   39.8090   23.2610   36.5330 C   0  0  0  0  0  0  0  0  0  0  0  0
   39.7290   22.9040   37.8800 C   0  0  0  0  0  0  0  0  0  0  0  0
   38.6360   23.3750   38.6300 C   0  0  0  0  0  0  0  0  0  0  0  0
   37.7300   24.1520   37.9740 N   0  0  0  0  0  0  0  0  0  0  0  0
   37.8460   24.4730   36.6690 C   0  0  0  0  0  0  0  0  0  0  0  0
   38.8840   24.0250   35.9610 N   0  0  0  0  0  0  0  0  0  0  0  0
   40.9490   22.7740   35.7380 C   0  0  0  0  0  0  0  0  0  0  0  0
   42.2370   23.3200   36.3120 C   0  0  0  0  0  0  0  0  0  0  0  0
   42.7890   24.4590   35.4910 C   0  0  0  0  0  0  0  0  0  0  0  0
   43.9260   25.0670   36.2770 C   0  0  0  0  0  0  0  0  0  0  0  0
   44.8930   23.9960   36.6410 C   0  0  0  0  0  0  0  0  0  0  0  0
   44.5570   22.6860   35.9280 C   0  0  0  0  0  0  0  0  0  0  0  0
   43.2310   22.2120   36.4790 C   0  0  0  0  0  0  0  0  0  0  0  0
   40.5004   22.2710   38.3429 H   0  0  0  0  0  0  0  0  0  0  0  0
   38.5187   23.1276   39.6954 H   0  0  0  0  0  0  0  0  0  0  0  0
   37.0843   25.1045   36.1884 H   0  0  0  0  0  0  0  0  0  0  0  0
   40.8401   23.1115   34.6967 H   0  0  0  0  0  0  0  0  0  0  0  0
   40.9725   21.6747   35.7679 H   0  0  0  0  0  0  0  0  0  0  0  0
   42.0199   23.7424   37.3042 H   0  0  0  0  0  0  0  0  0  0  0  0
   42.0062   25.2120   35.3171 H   0  0  0  0  0  0  0  0  0  0  0  0
   43.1395   24.1002   34.5120 H   0  0  0  0  0  0  0  0  0  0  0  0
   44.4321   25.8277   35.6644 H   0  0  0  0  0  0  0  0  0  0  0  0
   43.5347   25.5393   37.1901 H   0  0  0  0  0  0  0  0  0  0  0  0
   45.9059   24.3130   36.3518 H   0  0  0  0  0  0  0  0  0  0  0  0
   44.8359   23.8277   37.7266 H   0  0  0  0  0  0  0  0  0  0  0  0
   45.3380   21.9370   36.1256 H   0  0  0  0  0  0  0  0  0  0  0  0
   44.5001   22.8342   34.8395 H   0  0  0  0  0  0  0  0  0  0  0  0
   43.3373   21.9636   37.5453 H   0  0  0  0  0  0  0  0  0  0  0  0
   42.8941   21.3127   35.9426 H   0  0  0  0  0  0  0  0  0  0  0  0
  1  2  2  0
  2  3  1  0
  4  3  2  0
  5  4  1  0
  6  1  1  0
  6  5  2  0
  7  8  1  0
  7  1  1  0
  8 13  1  0
  9 10  1  0
  9  8  1  0
 10 11  1  0
 12 13  1  0
 12 11  1  0
  2 14  1  0
  3 15  1  0
  5 16  1  0
  7 17  1  0
  7 18  1  0
  8 19  1  0
  9 20  1  0
  9 21  1  0
 10 22  1  0
 10 23  1  0
 11 24  1  0
 11 25  1  0
 12 26  1  0
 12 27  1  0
 13 28  1  0
 13 29  1  0
M  ISO  8  14  14  15  14  16  14  17   8  18   8  19  13  20  13  21  13
M  ISO  8  22  13  23  13  24  13  25  13  26  13  27  13  28  13  29  13
M  END
>  <minimizedAffinity>  (1) 
-3.97198534

>  <minimizedRMSD>  (1) 
3.30391788

$$$$
