
     RDKit          3D

 20 21  0  0  0  0  0  0  0  0999 V2000
   39.9460   22.4040   36.8490 C   0  0  0  0  0  0  0  0  0  0  0  0
   39.6850   23.0530   38.0630 C   0  0  0  0  0  0  0  0  0  0  0  0
   38.3760   23.4850   38.3320 C   0  0  0  0  0  0  0  0  0  0  0  0
   37.4290   23.2380   37.3710 N   0  0  0  0  0  0  0  0  0  0  0  0
   37.7280   22.6090   36.2160 C   0  0  0  0  0  0  0  0  0  0  0  0
   38.9690   22.1910   35.9460 N   0  0  0  0  0  0  0  0  0  0  0  0
   41.3080   21.9430   36.5460 C   0  0  0  0  0  0  0  0  0  0  0  0
   42.1590   23.1210   36.2200 C   0  0  0  0  0  0  0  0  0  0  0  0
   43.4150   23.5080   36.7150 C   0  0  0  0  0  0  0  0  0  0  0  0
   43.9330   24.6620   36.1970 C   0  0  0  0  0  0  0  0  0  0  0  0
   43.2850   25.3850   35.2680 C   0  0  0  0  0  0  0  0  0  0  0  0
   41.6930   24.4230   34.9820 S   0  0  0  0  0  0  0  0  0  0  0  0
   40.4910   23.2212   38.7924 H   0  0  0  0  0  0  0  0  0  0  0  0
   38.1217   23.9983   39.2711 H   0  0  0  0  0  0  0  0  0  0  0  0
   36.9311   22.4356   35.4778 H   0  0  0  0  0  0  0  0  0  0  0  0
   41.7228   21.4193   37.4199 H   0  0  0  0  0  0  0  0  0  0  0  0
   41.2843   21.2539   35.6889 H   0  0  0  0  0  0  0  0  0  0  0  0
   43.9497   22.9180   37.4739 H   0  0  0  0  0  0  0  0  0  0  0  0
   44.9137   25.0107   36.5527 H   0  0  0  0  0  0  0  0  0  0  0  0
   43.6091   26.3199   34.7874 H   0  0  0  0  0  0  0  0  0  0  0  0
  1  2  2  0
  2  3  1  0
  4  3  2  0
  5  4  1  0
  6  5  2  0
  6  1  1  0
  7  1  1  0
  8  7  1  0
  8  9  2  0
 10  9  1  0
 11 10  2  0
 12 11  1  0
 12  8  1  0
  2 13  1  0
  3 14  1  0
  5 15  1  0
  7 16  1  0
  7 17  1  0
  9 18  1  0
 10 19  1  0
 11 20  1  0
M  ISO  8  13  14  14  14  15  14  16   8  17   8  18  14  19  14  20  14
M  END
>  <minimizedAffinity>  (1) 
-3.62660384

>  <minimizedRMSD>  (1) 
0.593241274

$$$$
