
     RDKit          3D

 15 15  0  0  0  0  0  0  0  0999 V2000
   39.8160   22.4940   37.2480 C   0  0  0  0  0  0  0  0  0  0  0  0
   39.3080   23.2080   38.3340 C   0  0  0  0  0  0  0  0  0  0  0  0
   37.9880   23.6940   38.2470 C   0  0  0  0  0  0  0  0  0  0  0  0
   37.2960   23.4290   37.1000 N   0  0  0  0  0  0  0  0  0  0  0  0
   37.8440   22.7280   36.0770 C   0  0  0  0  0  0  0  0  0  0  0  0
   39.0930   22.2650   36.1520 N   0  0  0  0  0  0  0  0  0  0  0  0
   41.1950   21.9720   37.3110 C   0  0  0  0  0  0  0  0  0  0  0  0
   42.1390   22.9330   36.7440 N   0  0  0  0  0  0  0  0  0  0  0  0
   39.9194   23.3861   39.2309 H   0  0  0  0  0  0  0  0  0  0  0  0
   37.5332   24.2642   39.0704 H   0  0  0  0  0  0  0  0  0  0  0  0
   37.2496   22.5381   35.1711 H   0  0  0  0  0  0  0  0  0  0  0  0
   41.4611   21.7815   38.3612 H   0  0  0  0  0  0  0  0  0  0  0  0
   41.2468   21.0404   36.7284 H   0  0  0  0  0  0  0  0  0  0  0  0
   42.6248   23.4275   37.5058 H   0  0  0  0  0  0  0  0  0  0  0  0
   42.8287   22.4350   36.1633 H   0  0  0  0  0  0  0  0  0  0  0  0
  1  7  1  0
  1  2  2  0
  3  2  1  0
  4  3  2  0
  5  6  2  0
  5  4  1  0
  6  1  1  0
  8  7  1  0
  2  9  1  0
  3 10  1  0
  5 11  1  0
  7 12  1  0
  7 13  1  0
  8 14  1  0
  8 15  1  0
M  ISO  7   9  14  10  14  11  14  12   8  13   8  14   5  15   5
M  END
>  <minimizedAffinity>  (1) 
-2.81818748

>  <minimizedRMSD>  (1) 
0.0326923169

$$$$
