
     RDKit          3D

 26 28  0  0  0  0  0  0  0  0999 V2000
   41.3280   23.0120   36.6710 C   0  0  0  0  0  0  0  0  0  0  0  0
   39.8660   22.9250   36.8300 C   0  0  0  0  0  0  0  0  0  0  0  0
   39.2690   23.2950   38.0430 C   0  0  0  0  0  0  0  0  0  0  0  0
   37.8800   23.2020   38.1680 C   0  0  0  0  0  0  0  0  0  0  0  0
   37.1950   22.7500   37.0800 N   0  0  0  0  0  0  0  0  0  0  0  0
   37.8000   22.4010   35.9250 C   0  0  0  0  0  0  0  0  0  0  0  0
   39.1430   22.4900   35.8020 N   0  0  0  0  0  0  0  0  0  0  0  0
   41.9530   21.6890   36.6380 N   0  0  0  0  0  0  0  0  0  0  0  0
   42.1930   20.8320   37.6450 C   0  0  0  0  0  0  0  0  0  0  0  0
   42.7890   19.7260   37.1550 N   0  0  0  0  0  0  0  0  0  0  0  0
   42.9300   19.8810   35.8340 C   0  0  0  0  0  0  0  0  0  0  0  0
   43.4590   19.0950   34.8290 C   0  0  0  0  0  0  0  0  0  0  0  0
   43.4610   19.5350   33.5370 N   0  0  0  0  0  0  0  0  0  0  0  0
   42.9360   20.7560   33.2460 C   0  0  0  0  0  0  0  0  0  0  0  0
   42.4190   21.5180   34.2360 N   0  0  0  0  0  0  0  0  0  0  0  0
   42.4060   21.1110   35.4990 C   0  0  0  0  0  0  0  0  0  0  0  0
   44.0150   17.8130   35.1070 N   0  0  0  0  0  0  0  0  0  0  0  0
   41.5529   23.5351   35.7298 H   0  0  0  0  0  0  0  0  0  0  0  0
   41.7330   23.5589   37.5352 H   0  0  0  0  0  0  0  0  0  0  0  0
   39.8833   23.6526   38.8825 H   0  0  0  0  0  0  0  0  0  0  0  0
   37.3648   23.4801   39.0993 H   0  0  0  0  0  0  0  0  0  0  0  0
   37.1962   22.0419   35.0785 H   0  0  0  0  0  0  0  0  0  0  0  0
   41.9428   21.0053   38.7020 H   0  0  0  0  0  0  0  0  0  0  0  0
   42.9322   21.1220   32.2087 H   0  0  0  0  0  0  0  0  0  0  0  0
   44.4042   17.2435   34.3420 H   0  0  0  0  0  0  0  0  0  0  0  0
   44.0278   17.4557   36.0729 H   0  0  0  0  0  0  0  0  0  0  0  0
  1  2  1  0
  2  3  2  0
  3  4  1  0
  5  4  2  0
  6  5  1  0
  7  6  2  0
  7  2  1  0
  8  1  1  0
  8  9  1  0
 10  9  2  0
 11 10  1  0
 12 17  1  0
 12 11  2  0
 13 12  1  0
 14 13  2  0
 14 15  1  0
 15 16  2  0
 16 11  1  0
 16  8  1  0
  1 18  1  0
  1 19  1  0
  3 20  1  0
  4 21  1  0
  6 22  1  0
  9 23  1  0
 14 24  1  0
 17 25  1  0
 17 26  1  0
M  ISO  7  18   8  19   8  20  14  21  14  22  14  23  14  24  14
M  END
>  <minimizedAffinity>  (1) 
-3.34584355

>  <minimizedRMSD>  (1) 
2.41934156

$$$$
