
     RDKit          3D

 35 38  0  0  0  0  0  0  0  0999 V2000
   41.9030   23.5040   36.2190 C   0  0  0  0  0  0  0  0  0  0  0  0
   43.2130   23.8740   36.4000 C   0  0  0  0  0  0  0  0  0  0  0  0
   43.7530   24.9590   35.7200 C   0  0  0  0  0  0  0  0  0  0  0  0
   42.9680   25.6570   34.8660 N   0  0  0  0  0  0  0  0  0  0  0  0
   41.6800   25.3000   34.6820 C   0  0  0  0  0  0  0  0  0  0  0  0
   41.1750   24.2390   35.3550 N   0  0  0  0  0  0  0  0  0  0  0  0
   40.8460   26.0650   33.7560 C   0  0  0  0  0  0  0  0  0  0  0  0
   41.2270   26.5390   32.5180 C   0  0  0  0  0  0  0  0  0  0  0  0
   40.1870   27.1960   31.9600 N   0  0  0  0  0  0  0  0  0  0  0  0
   39.1580   27.1340   32.8500 C   0  0  0  0  0  0  0  0  0  0  0  0
   37.8830   27.6590   32.7360 C   0  0  0  0  0  0  0  0  0  0  0  0
   37.0280   27.4470   33.8000 C   0  0  0  0  0  0  0  0  0  0  0  0
   37.3360   26.7590   34.9620 C   0  0  0  0  0  0  0  0  0  0  0  0
   38.6260   26.2650   35.0000 C   0  0  0  0  0  0  0  0  0  0  0  0
   39.5350   26.4370   33.9780 C   0  0  0  0  0  0  0  0  0  0  0  0
   41.3050   22.3500   36.9340 C   0  0  0  0  0  0  0  0  0  0  0  0
   39.8600   22.5790   37.0580 C   0  0  0  0  0  0  0  0  0  0  0  0
   39.3550   23.2080   38.1870 C   0  0  0  0  0  0  0  0  0  0  0  0
   37.9640   23.4080   38.2630 C   0  0  0  0  0  0  0  0  0  0  0  0
   37.1950   22.9790   37.2360 N   0  0  0  0  0  0  0  0  0  0  0  0
   37.7480   22.3710   36.1610 C   0  0  0  0  0  0  0  0  0  0  0  0
   39.0560   22.1670   36.0580 N   0  0  0  0  0  0  0  0  0  0  0  0
   43.8455   23.3020   37.0948 H   0  0  0  0  0  0  0  0  0  0  0  0
   44.8036   25.2467   35.8735 H   0  0  0  0  0  0  0  0  0  0  0  0
   42.2176   26.4038   32.0593 H   0  0  0  0  0  0  0  0  0  0  0  0
   40.1746   27.6556   31.0383 H   0  0  0  0  0  0  0  0  0  0  0  0
   37.5660   28.2173   31.8428 H   0  0  0  0  0  0  0  0  0  0  0  0
   36.0124   27.8613   33.7171 H   0  0  0  0  0  0  0  0  0  0  0  0
   36.6170   26.6182   35.7825 H   0  0  0  0  0  0  0  0  0  0  0  0
   38.9440   25.7055   35.8921 H   0  0  0  0  0  0  0  0  0  0  0  0
   41.4872   21.4260   36.3656 H   0  0  0  0  0  0  0  0  0  0  0  0
   41.7581   22.2476   37.9311 H   0  0  0  0  0  0  0  0  0  0  0  0
   40.0209   23.5399   38.9972 H   0  0  0  0  0  0  0  0  0  0  0  0
   37.5129   23.9013   39.1366 H   0  0  0  0  0  0  0  0  0  0  0  0
   37.0918   22.0344   35.3449 H   0  0  0  0  0  0  0  0  0  0  0  0
  1  2  2  0
  1 16  1  0
  3  2  1  0
  4  3  2  0
  5  4  1  0
  5  6  2  0
  6  1  1  0
  7 15  1  0
  7  5  1  0
  8  7  2  0
  9  8  1  0
  9 10  1  0
 10 15  2  0
 11 10  1  0
 11 12  2  0
 12 13  1  0
 13 14  2  0
 15 14  1  0
 16 17  1  0
 17 18  2  0
 18 19  1  0
 20 19  2  0
 21 20  1  0
 22 21  2  0
 22 17  1  0
  2 23  1  0
  3 24  1  0
  8 25  1  0
  9 26  1  0
 11 27  1  0
 12 28  1  0
 13 29  1  0
 14 30  1  0
 16 31  1  0
 16 32  1  0
 18 33  1  0
 19 34  1  0
 21 35  1  0
M  ISO  8  23  14  24  14  25  14  26   9  27  14  28  14  29  14  30  14
M  ISO  5  31   8  32   8  33  14  34  14  35  14
M  END
>  <minimizedAffinity>  (1) 
-5.49742508

>  <minimizedRMSD>  (1) 
0.770370543

$$$$
