
     RDKit          3D

 32 35  0  0  0  0  0  0  0  0999 V2000
   41.9260   23.4700   36.2450 C   0  0  0  0  0  0  0  0  0  0  0  0
   43.2400   23.8320   36.4290 C   0  0  0  0  0  0  0  0  0  0  0  0
   43.7830   24.9150   35.7330 C   0  0  0  0  0  0  0  0  0  0  0  0
   43.0040   25.6040   34.8780 N   0  0  0  0  0  0  0  0  0  0  0  0
   41.7070   25.2420   34.6990 C   0  0  0  0  0  0  0  0  0  0  0  0
   41.2010   24.2050   35.3720 N   0  0  0  0  0  0  0  0  0  0  0  0
   40.9670   26.0320   33.7760 N   0  0  0  0  0  0  0  0  0  0  0  0
   41.3070   26.6810   32.6460 C   0  0  0  0  0  0  0  0  0  0  0  0
   40.1960   27.2920   32.1430 N   0  0  0  0  0  0  0  0  0  0  0  0
   39.1590   27.0250   32.9580 C   0  0  0  0  0  0  0  0  0  0  0  0
   37.8550   27.4430   32.8250 C   0  0  0  0  0  0  0  0  0  0  0  0
   37.0060   27.0230   33.8020 N   0  0  0  0  0  0  0  0  0  0  0  0
   37.4400   26.2480   34.8240 C   0  0  0  0  0  0  0  0  0  0  0  0
   38.7230   25.8670   34.9070 N   0  0  0  0  0  0  0  0  0  0  0  0
   39.6360   26.2410   33.9760 C   0  0  0  0  0  0  0  0  0  0  0  0
   41.3190   22.3140   36.9760 C   0  0  0  0  0  0  0  0  0  0  0  0
   39.8640   22.5650   37.0830 C   0  0  0  0  0  0  0  0  0  0  0  0
   39.3500   23.1970   38.2050 C   0  0  0  0  0  0  0  0  0  0  0  0
   37.9600   23.4170   38.2640 C   0  0  0  0  0  0  0  0  0  0  0  0
   37.2060   22.9980   37.2270 N   0  0  0  0  0  0  0  0  0  0  0  0
   37.7600   22.3860   36.1590 C   0  0  0  0  0  0  0  0  0  0  0  0
   39.0660   22.1650   36.0730 N   0  0  0  0  0  0  0  0  0  0  0  0
   43.8689   23.2639   37.1302 H   0  0  0  0  0  0  0  0  0  0  0  0
   44.8346   25.2013   35.8819 H   0  0  0  0  0  0  0  0  0  0  0  0
   42.3131   26.7130   32.2025 H   0  0  0  0  0  0  0  0  0  0  0  0
   37.5218   28.0730   31.9871 H   0  0  0  0  0  0  0  0  0  0  0  0
   36.7286   25.9257   35.5987 H   0  0  0  0  0  0  0  0  0  0  0  0
   41.4988   21.3824   36.4195 H   0  0  0  0  0  0  0  0  0  0  0  0
   41.7673   22.2109   37.9752 H   0  0  0  0  0  0  0  0  0  0  0  0
   40.0089   23.5174   39.0255 H   0  0  0  0  0  0  0  0  0  0  0  0
   37.5025   23.9162   39.1309 H   0  0  0  0  0  0  0  0  0  0  0  0
   37.1089   22.0603   35.3343 H   0  0  0  0  0  0  0  0  0  0  0  0
  1  2  2  0
  1 16  1  0
  3  2  1  0
  4  3  2  0
  5  4  1  0
  5  6  2  0
  6  1  1  0
  7 15  1  0
  7  5  1  0
  8  7  1  0
  9  8  2  0
  9 10  1  0
 10 15  2  0
 11 10  1  0
 11 12  2  0
 12 13  1  0
 13 14  2  0
 15 14  1  0
 16 17  1  0
 17 18  2  0
 18 19  1  0
 20 19  2  0
 21 20  1  0
 22 21  2  0
 22 17  1  0
  2 23  1  0
  3 24  1  0
  8 25  1  0
 11 26  1  0
 13 27  1  0
 16 28  1  0
 16 29  1  0
 18 30  1  0
 19 31  1  0
 21 32  1  0
M  ISO  8  23  14  24  14  25  14  26  14  27  14  28   8  29   8  30  14
M  ISO  2  31  14  32  14
M  END
>  <minimizedAffinity>  (1) 
-5.35005903

>  <minimizedRMSD>  (1) 
0.697185338

$$$$
