
     RDKit          3D

 36 38  0  0  0  0  0  0  0  0999 V2000
   42.0390   23.2960   36.2980 C   0  0  0  0  0  0  0  0  0  0  0  0
   43.3190   23.6270   36.7190 C   0  0  0  0  0  0  0  0  0  0  0  0
   43.9580   24.7440   36.1740 C   0  0  0  0  0  0  0  0  0  0  0  0
   43.3360   25.4880   35.2530 N   0  0  0  0  0  0  0  0  0  0  0  0
   42.0750   25.1620   34.8390 C   0  0  0  0  0  0  0  0  0  0  0  0
   41.4880   24.0900   35.3750 N   0  0  0  0  0  0  0  0  0  0  0  0
   41.4430   25.9770   33.8560 N   0  0  0  0  0  0  0  0  0  0  0  0
   42.0530   26.1230   32.5780 C   0  0  0  0  0  0  0  0  0  0  0  0
   41.5280   27.2950   31.7850 C   0  0  0  0  0  0  0  0  0  0  0  0
   40.0370   27.3510   31.7760 C   0  0  0  0  0  0  0  0  0  0  0  0
   39.3810   27.1270   33.0910 C   0  0  0  0  0  0  0  0  0  0  0  0
   40.2220   26.6160   34.1910 C   0  0  0  0  0  0  0  0  0  0  0  0
   41.3280   22.1110   36.8570 C   0  0  0  0  0  0  0  0  0  0  0  0
   39.9010   22.4600   36.9820 C   0  0  0  0  0  0  0  0  0  0  0  0
   39.4370   23.1340   38.1060 C   0  0  0  0  0  0  0  0  0  0  0  0
   38.0830   23.4500   38.1930 C   0  0  0  0  0  0  0  0  0  0  0  0
   37.2760   23.0840   37.1720 N   0  0  0  0  0  0  0  0  0  0  0  0
   37.7780   22.4260   36.0910 C   0  0  0  0  0  0  0  0  0  0  0  0
   39.0730   22.1180   35.9950 N   0  0  0  0  0  0  0  0  0  0  0  0
   43.8278   23.0138   37.4773 H   0  0  0  0  0  0  0  0  0  0  0  0
   44.9731   25.0114   36.5027 H   0  0  0  0  0  0  0  0  0  0  0  0
   43.1349   26.2587   32.7231 H   0  0  0  0  0  0  0  0  0  0  0  0
   41.8170   25.2150   32.0037 H   0  0  0  0  0  0  0  0  0  0  0  0
   41.9141   28.2241   32.2295 H   0  0  0  0  0  0  0  0  0  0  0  0
   41.8663   27.1760   30.7451 H   0  0  0  0  0  0  0  0  0  0  0  0
   39.7372   28.3450   31.4125 H   0  0  0  0  0  0  0  0  0  0  0  0
   39.7073   26.5247   31.1290 H   0  0  0  0  0  0  0  0  0  0  0  0
   38.9593   28.0890   33.4175 H   0  0  0  0  0  0  0  0  0  0  0  0
   38.6449   26.3307   32.9063 H   0  0  0  0  0  0  0  0  0  0  0  0
   39.6173   25.8903   34.7547 H   0  0  0  0  0  0  0  0  0  0  0  0
   40.5269   27.5167   34.7440 H   0  0  0  0  0  0  0  0  0  0  0  0
   41.4452   21.2510   36.1812 H   0  0  0  0  0  0  0  0  0  0  0  0
   41.7449   21.8400   37.8382 H   0  0  0  0  0  0  0  0  0  0  0  0
   40.1286   23.4135   38.9144 H   0  0  0  0  0  0  0  0  0  0  0  0
   37.6817   23.9824   39.0679 H   0  0  0  0  0  0  0  0  0  0  0  0
   37.0980   22.1406   35.2748 H   0  0  0  0  0  0  0  0  0  0  0  0
  1  2  2  0
  1 13  1  0
  3  2  1  0
  4  3  2  0
  5  4  1  0
  5  6  2  0
  6  1  1  0
  7 12  1  0
  7  5  1  0
  8  7  1  0
  9  8  1  0
 10  9  1  0
 10 11  1  0
 11 12  1  0
 13 14  1  0
 14 15  2  0
 15 16  1  0
 17 16  2  0
 18 17  1  0
 19 18  2  0
 19 14  1  0
  2 20  1  0
  3 21  1  0
  8 22  1  0
  8 23  1  0
  9 24  1  0
  9 25  1  0
 10 26  1  0
 10 27  1  0
 11 28  1  0
 11 29  1  0
 12 30  1  0
 12 31  1  0
 13 32  1  0
 13 33  1  0
 15 34  1  0
 16 35  1  0
 18 36  1  0
M  ISO  8  20  14  21  14  22  13  23  13  24  13  25  13  26  13  27  13
M  ISO  8  28  13  29  13  30  13  31  13  32   8  33   8  34  14  35  14
M  ISO  1  36  14
M  END
>  <minimizedAffinity>  (1) 
-4.85803986

>  <minimizedRMSD>  (1) 
0.267891675

$$$$
