
     RDKit          3D

 34 36  0  0  0  0  0  0  0  0999 V2000
   41.9280   23.4590   36.2390 C   0  0  0  0  0  0  0  0  0  0  0  0
   43.2230   23.8520   36.4810 C   0  0  0  0  0  0  0  0  0  0  0  0
   43.7860   24.9150   35.7530 C   0  0  0  0  0  0  0  0  0  0  0  0
   43.0350   25.5440   34.8160 N   0  0  0  0  0  0  0  0  0  0  0  0
   41.7480   25.1410   34.5860 C   0  0  0  0  0  0  0  0  0  0  0  0
   41.2520   24.1280   35.2990 N   0  0  0  0  0  0  0  0  0  0  0  0
   40.9890   25.8260   33.5920 N   0  0  0  0  0  0  0  0  0  0  0  0
   41.1840   25.7590   32.2790 C   0  0  0  0  0  0  0  0  0  0  0  0
   40.3760   26.4720   31.4190 C   0  0  0  0  0  0  0  0  0  0  0  0
   40.5760   26.4120   29.9470 C   0  0  0  0  0  0  0  0  0  0  0  0
   39.3360   27.2820   31.8840 C   0  0  0  0  0  0  0  0  0  0  0  0
   38.5680   27.9550   31.1620 O   0  0  0  0  0  0  0  0  0  0  0  0
   39.2120   27.2890   33.2410 N   0  0  0  0  0  0  0  0  0  0  0  0
   40.0000   26.5930   34.0910 C   0  0  0  0  0  0  0  0  0  0  0  0
   39.7200   26.7350   35.3150 O   0  0  0  0  0  0  0  0  0  0  0  0
   41.3210   22.3330   37.0050 C   0  0  0  0  0  0  0  0  0  0  0  0
   39.8670   22.5730   37.0840 C   0  0  0  0  0  0  0  0  0  0  0  0
   39.3440   23.2280   38.2110 C   0  0  0  0  0  0  0  0  0  0  0  0
   37.9540   23.4440   38.2570 C   0  0  0  0  0  0  0  0  0  0  0  0
   37.2040   23.0050   37.2110 N   0  0  0  0  0  0  0  0  0  0  0  0
   37.7710   22.3840   36.1590 C   0  0  0  0  0  0  0  0  0  0  0  0
   39.0860   22.1640   36.0860 N   0  0  0  0  0  0  0  0  0  0  0  0
   43.8200   23.3337   37.2458 H   0  0  0  0  0  0  0  0  0  0  0  0
   44.8223   25.2321   35.9413 H   0  0  0  0  0  0  0  0  0  0  0  0
   41.9934   25.1321   31.8768 H   0  0  0  0  0  0  0  0  0  0  0  0
   41.6088   26.1022   29.7296 H   0  0  0  0  0  0  0  0  0  0  0  0
   39.8755   25.6845   29.5111 H   0  0  0  0  0  0  0  0  0  0  0  0
   40.3917   27.4050   29.5111 H   0  0  0  0  0  0  0  0  0  0  0  0
   38.4632   27.8668   33.6490 H   0  0  0  0  0  0  0  0  0  0  0  0
   41.5156   21.3814   36.4887 H   0  0  0  0  0  0  0  0  0  0  0  0
   41.7563   22.2758   38.0136 H   0  0  0  0  0  0  0  0  0  0  0  0
   39.9986   23.5609   39.0300 H   0  0  0  0  0  0  0  0  0  0  0  0
   37.4881   23.9529   39.1137 H   0  0  0  0  0  0  0  0  0  0  0  0
   37.1291   22.0466   35.3319 H   0  0  0  0  0  0  0  0  0  0  0  0
  1  2  2  0
  1 16  1  0
  3  2  1  0
  4  3  2  0
  5  4  1  0
  5  6  2  0
  6  1  1  0
  7 14  1  0
  7  5  1  0
  8  7  1  0
  9 11  1  0
  9  8  2  0
 10  9  1  0
 11 13  1  0
 12 11  2  0
 13 14  1  0
 14 15  2  0
 16 17  1  0
 17 18  2  0
 18 19  1  0
 20 19  2  0
 21 20  1  0
 22 21  2  0
 22 17  1  0
  2 23  1  0
  3 24  1  0
  8 25  1  0
 10 26  1  0
 10 27  1  0
 10 28  1  0
 13 29  1  0
 16 30  1  0
 16 31  1  0
 18 32  1  0
 19 33  1  0
 21 34  1  0
M  ISO  8  23  14  24  14  25  14  26   8  27   8  28   8  29   9  30   8
M  ISO  4  31   8  32  14  33  14  34  14
M  END
>  <minimizedAffinity>  (1) 
-5.22944641

>  <minimizedRMSD>  (1) 
0.829456031

$$$$
