
     RDKit          3D

 37 39  0  0  0  0  0  0  0  0999 V2000
   42.0210   23.2700   36.2450 C   0  0  0  0  0  0  0  0  0  0  0  0
   43.3770   23.4530   36.4940 C   0  0  0  0  0  0  0  0  0  0  0  0
   44.0250   24.5870   35.9800 C   0  0  0  0  0  0  0  0  0  0  0  0
   43.3250   25.4780   35.2560 N   0  0  0  0  0  0  0  0  0  0  0  0
   42.0120   25.2990   35.0160 C   0  0  0  0  0  0  0  0  0  0  0  0
   41.4070   24.2170   35.5100 N   0  0  0  0  0  0  0  0  0  0  0  0
   41.1450   26.2270   34.2250 C   0  0  0  0  0  0  0  0  0  0  0  0
   39.7090   26.1410   34.6710 C   0  0  0  0  0  0  0  0  0  0  0  0
   38.9160   27.1530   33.8830 C   0  0  0  0  0  0  0  0  0  0  0  0
   39.3120   27.1610   32.4250 C   0  0  0  0  0  0  0  0  0  0  0  0
   39.9720   25.8260   32.1220 C   0  0  0  0  0  0  0  0  0  0  0  0
   41.3320   25.8390   32.7860 C   0  0  0  0  0  0  0  0  0  0  0  0
   41.3100   22.0780   36.7780 C   0  0  0  0  0  0  0  0  0  0  0  0
   39.8890   22.4370   36.9290 C   0  0  0  0  0  0  0  0  0  0  0  0
   39.4630   23.0970   38.0730 C   0  0  0  0  0  0  0  0  0  0  0  0
   38.1010   23.4310   38.1960 C   0  0  0  0  0  0  0  0  0  0  0  0
   37.2760   23.0800   37.1730 N   0  0  0  0  0  0  0  0  0  0  0  0
   37.7410   22.4360   36.0790 C   0  0  0  0  0  0  0  0  0  0  0  0
   39.0320   22.1110   35.9440 N   0  0  0  0  0  0  0  0  0  0  0  0
   43.9366   22.7157   37.0884 H   0  0  0  0  0  0  0  0  0  0  0  0
   45.0972   24.7456   36.1680 H   0  0  0  0  0  0  0  0  0  0  0  0
   41.4257   27.2800   34.3749 H   0  0  0  0  0  0  0  0  0  0  0  0
   39.3187   25.1304   34.4806 H   0  0  0  0  0  0  0  0  0  0  0  0
   39.6300   26.3480   35.7485 H   0  0  0  0  0  0  0  0  0  0  0  0
   37.8467   26.9067   33.9606 H   0  0  0  0  0  0  0  0  0  0  0  0
   39.1222   28.1499   34.2997 H   0  0  0  0  0  0  0  0  0  0  0  0
   38.4199   27.2903   31.7945 H   0  0  0  0  0  0  0  0  0  0  0  0
   40.0036   27.9906   32.2166 H   0  0  0  0  0  0  0  0  0  0  0  0
   39.3630   25.0040   32.5262 H   0  0  0  0  0  0  0  0  0  0  0  0
   40.0685   25.6752   31.0367 H   0  0  0  0  0  0  0  0  0  0  0  0
   41.7861   24.8389   32.7255 H   0  0  0  0  0  0  0  0  0  0  0  0
   41.9958   26.5562   32.2811 H   0  0  0  0  0  0  0  0  0  0  0  0
   41.4117   21.2362   36.0772 H   0  0  0  0  0  0  0  0  0  0  0  0
   41.7365   21.7745   37.7455 H   0  0  0  0  0  0  0  0  0  0  0  0
   40.1768   23.3545   38.8694 H   0  0  0  0  0  0  0  0  0  0  0  0
   37.7189   23.9552   39.0844 H   0  0  0  0  0  0  0  0  0  0  0  0
   37.0372   22.1714   35.2761 H   0  0  0  0  0  0  0  0  0  0  0  0
  1  2  2  0
  1 13  1  0
  3  2  1  0
  4  3  2  0
  5  4  1  0
  5  6  2  0
  6  1  1  0
  7  8  1  0
  7  5  1  0
  9  8  1  0
 10  9  1  0
 11 10  1  0
 11 12  1  0
 12  7  1  0
 13 14  1  0
 14 15  2  0
 15 16  1  0
 17 16  2  0
 18 17  1  0
 19 18  2  0
 19 14  1  0
  2 20  1  0
  3 21  1  0
  7 22  1  0
  8 23  1  0
  8 24  1  0
  9 25  1  0
  9 26  1  0
 10 27  1  0
 10 28  1  0
 11 29  1  0
 11 30  1  0
 12 31  1  0
 12 32  1  0
 13 33  1  0
 13 34  1  0
 15 35  1  0
 16 36  1  0
 18 37  1  0
M  ISO  8  20  14  21  14  22  13  23  13  24  13  25  13  26  13  27  13
M  ISO  8  28  13  29  13  30  13  31  13  32  13  33   8  34   8  35  14
M  ISO  2  36  14  37  14
M  END
>  <minimizedAffinity>  (1) 
-4.80082321

>  <minimizedRMSD>  (1) 
0.584913671

$$$$
