
     RDKit          3D

 34 36  0  0  0  0  0  0  0  0999 V2000
   41.8640   23.5710   36.1140 C   0  0  0  0  0  0  0  0  0  0  0  0
   43.1730   23.9850   36.3190 C   0  0  0  0  0  0  0  0  0  0  0  0
   43.6650   25.0630   35.5910 C   0  0  0  0  0  0  0  0  0  0  0  0
   42.8640   25.6910   34.6960 N   0  0  0  0  0  0  0  0  0  0  0  0
   41.5940   25.2770   34.5070 C   0  0  0  0  0  0  0  0  0  0  0  0
   41.1250   24.2420   35.2070 N   0  0  0  0  0  0  0  0  0  0  0  0
   39.1450   27.4020   31.7290 C   0  0  0  0  0  0  0  0  0  0  0  0
   40.4450   27.0700   31.4070 C   0  0  0  0  0  0  0  0  0  0  0  0
   41.2650   26.3780   32.2940 C   0  0  0  0  0  0  0  0  0  0  0  0
   40.7940   26.0040   33.5270 C   0  0  0  0  0  0  0  0  0  0  0  0
   39.4950   26.3330   33.8560 C   0  0  0  0  0  0  0  0  0  0  0  0
   38.6760   27.0240   32.9700 C   0  0  0  0  0  0  0  0  0  0  0  0
   38.1230   28.2690   30.6170 S   0  0  0  0  0  0  0  0  0  0  0  0
   38.9200   29.1450   29.7030 O   0  0  0  0  0  0  0  0  0  0  0  0
   37.1450   29.1050   31.3760 O   0  0  0  0  0  0  0  0  0  0  0  0
   41.3100   22.4120   36.8840 C   0  0  0  0  0  0  0  0  0  0  0  0
   39.8630   22.6050   37.0170 C   0  0  0  0  0  0  0  0  0  0  0  0
   39.3610   23.2320   38.1680 C   0  0  0  0  0  0  0  0  0  0  0  0
   37.9790   23.4100   38.2840 C   0  0  0  0  0  0  0  0  0  0  0  0
   37.1870   22.9640   37.2710 N   0  0  0  0  0  0  0  0  0  0  0  0
   37.7410   22.3600   36.1780 C   0  0  0  0  0  0  0  0  0  0  0  0
   39.0530   22.1800   36.0460 N   0  0  0  0  0  0  0  0  0  0  0  0
   43.8132   23.4669   37.0482 H   0  0  0  0  0  0  0  0  0  0  0  0
   44.6998   25.4045   35.7409 H   0  0  0  0  0  0  0  0  0  0  0  0
   40.8439   27.3597   30.4237 H   0  0  0  0  0  0  0  0  0  0  0  0
   42.2967   26.1296   32.0045 H   0  0  0  0  0  0  0  0  0  0  0  0
   39.0989   26.0424   34.8402 H   0  0  0  0  0  0  0  0  0  0  0  0
   37.6446   27.2715   33.2613 H   0  0  0  0  0  0  0  0  0  0  0  0
   37.4597   27.3455   29.8528 H   0  0  0  0  0  0  0  0  0  0  0  0
   41.5134   21.4748   36.3453 H   0  0  0  0  0  0  0  0  0  0  0  0
   41.7800   22.3538   37.8768 H   0  0  0  0  0  0  0  0  0  0  0  0
   40.0403   23.5760   38.9619 H   0  0  0  0  0  0  0  0  0  0  0  0
   37.5440   23.8969   39.1693 H   0  0  0  0  0  0  0  0  0  0  0  0
   37.0763   22.0085   35.3752 H   0  0  0  0  0  0  0  0  0  0  0  0
  1  2  2  0
  1 16  1  0
  3  2  1  0
  4  3  2  0
  5  4  1  0
  5  6  2  0
  6  1  1  0
  7 12  2  0
  8  7  1  0
  8  9  2  0
  9 10  1  0
 10 11  2  0
 10  5  1  0
 12 11  1  0
 13 15  2  0
 13  7  1  0
 14 13  2  0
 16 17  1  0
 17 18  2  0
 18 19  1  0
 20 19  2  0
 21 20  1  0
 22 21  2  0
 22 17  1  0
  2 23  1  0
  3 24  1  0
  8 25  1  0
  9 26  1  0
 11 27  1  0
 12 28  1  0
 13 29  1  0
 16 30  1  0
 16 31  1  0
 18 32  1  0
 19 33  1  0
 21 34  1  0
M  ISO  8  23  14  24  14  25  14  26  14  27  14  28  14  29  11  30   8
M  ISO  4  31   8  32  14  33  14  34  14
M  END
>  <minimizedAffinity>  (1) 
-4.78671789

>  <minimizedRMSD>  (1) 
1.0741291

$$$$
