
     RDKit          3D

 31 33  0  0  0  0  0  0  0  0999 V2000
   41.9660   23.3660   36.2410 C   0  0  0  0  0  0  0  0  0  0  0  0
   43.2700   23.7090   36.5790 C   0  0  0  0  0  0  0  0  0  0  0  0
   43.8670   24.8190   35.9480 C   0  0  0  0  0  0  0  0  0  0  0  0
   43.1690   25.5300   35.0300 N   0  0  0  0  0  0  0  0  0  0  0  0
   41.9050   25.1730   34.7210 C   0  0  0  0  0  0  0  0  0  0  0  0
   41.3420   24.1240   35.3190 N   0  0  0  0  0  0  0  0  0  0  0  0
   41.1610   25.9450   33.7300 C   0  0  0  0  0  0  0  0  0  0  0  0
   39.8740   26.3570   34.0070 C   0  0  0  0  0  0  0  0  0  0  0  0
   39.1220   27.0890   33.1090 C   0  0  0  0  0  0  0  0  0  0  0  0
   39.6870   27.4150   31.8940 C   0  0  0  0  0  0  0  0  0  0  0  0
   40.9910   27.0020   31.6050 C   0  0  0  0  0  0  0  0  0  0  0  0
   41.7230   26.2720   32.5160 C   0  0  0  0  0  0  0  0  0  0  0  0
   41.3140   22.2000   36.8910 C   0  0  0  0  0  0  0  0  0  0  0  0
   39.8700   22.5010   37.0080 C   0  0  0  0  0  0  0  0  0  0  0  0
   39.3970   23.1620   38.1310 C   0  0  0  0  0  0  0  0  0  0  0  0
   38.0340   23.4360   38.2200 C   0  0  0  0  0  0  0  0  0  0  0  0
   37.2230   23.0390   37.1930 N   0  0  0  0  0  0  0  0  0  0  0  0
   37.7530   22.3970   36.1240 C   0  0  0  0  0  0  0  0  0  0  0  0
   39.0450   22.1200   36.0070 N   0  0  0  0  0  0  0  0  0  0  0  0
   43.8265   23.1241   37.3262 H   0  0  0  0  0  0  0  0  0  0  0  0
   44.8980   25.1075   36.2005 H   0  0  0  0  0  0  0  0  0  0  0  0
   39.4305   26.0930   34.9784 H   0  0  0  0  0  0  0  0  0  0  0  0
   38.0977   27.4042   33.3569 H   0  0  0  0  0  0  0  0  0  0  0  0
   39.1148   27.9968   31.1563 H   0  0  0  0  0  0  0  0  0  0  0  0
   41.4396   27.2639   30.6354 H   0  0  0  0  0  0  0  0  0  0  0  0
   42.7479   25.9530   32.2755 H   0  0  0  0  0  0  0  0  0  0  0  0
   41.4605   21.2986   36.2778 H   0  0  0  0  0  0  0  0  0  0  0  0
   41.7516   22.0171   37.8835 H   0  0  0  0  0  0  0  0  0  0  0  0
   40.0839   23.4640   38.9354 H   0  0  0  0  0  0  0  0  0  0  0  0
   37.6203   23.9589   39.0949 H   0  0  0  0  0  0  0  0  0  0  0  0
   37.0776   22.0899   35.3119 H   0  0  0  0  0  0  0  0  0  0  0  0
  1  2  2  0
  1 13  1  0
  3  2  1  0
  4  3  2  0
  5  4  1  0
  5  6  2  0
  6  1  1  0
  7  8  2  0
  7  5  1  0
  9  8  1  0
 10  9  2  0
 11 10  1  0
 11 12  2  0
 12  7  1  0
 13 14  1  0
 14 15  2  0
 15 16  1  0
 17 16  2  0
 18 17  1  0
 19 18  2  0
 19 14  1  0
  2 20  1  0
  3 21  1  0
  8 22  1  0
  9 23  1  0
 10 24  1  0
 11 25  1  0
 12 26  1  0
 13 27  1  0
 13 28  1  0
 15 29  1  0
 16 30  1  0
 18 31  1  0
M  ISO  8  20  14  21  14  22  14  23  14  24  14  25  14  26  14  27   8
M  ISO  4  28   8  29  14  30  14  31  14
M  END
>  <minimizedAffinity>  (1) 
-4.6566

>  <minimizedRMSD>  (1) 
0.506741166

$$$$
