
     RDKit          3D

 30 32  0  0  0  0  0  0  0  0999 V2000
   42.0180   23.2930   36.3270 C   0  0  0  0  0  0  0  0  0  0  0  0
   43.3060   23.6420   36.7190 C   0  0  0  0  0  0  0  0  0  0  0  0
   43.9540   24.7210   36.1280 C   0  0  0  0  0  0  0  0  0  0  0  0
   43.3150   25.4280   35.1640 N   0  0  0  0  0  0  0  0  0  0  0  0
   42.0690   25.0840   34.7880 C   0  0  0  0  0  0  0  0  0  0  0  0
   41.4500   24.0480   35.3580 N   0  0  0  0  0  0  0  0  0  0  0  0
   41.4520   25.8850   33.7540 C   0  0  0  0  0  0  0  0  0  0  0  0
   40.1700   26.3900   33.8140 C   0  0  0  0  0  0  0  0  0  0  0  0
   39.5740   27.1440   32.8510 C   0  0  0  0  0  0  0  0  0  0  0  0
   40.3370   27.4100   31.7400 C   0  0  0  0  0  0  0  0  0  0  0  0
   41.6430   26.9220   31.6280 C   0  0  0  0  0  0  0  0  0  0  0  0
   42.1590   26.1750   32.6380 N   0  0  0  0  0  0  0  0  0  0  0  0
   41.3290   22.1380   36.9620 C   0  0  0  0  0  0  0  0  0  0  0  0
   39.8900   22.4640   37.0340 C   0  0  0  0  0  0  0  0  0  0  0  0
   39.4120   23.1470   38.1450 C   0  0  0  0  0  0  0  0  0  0  0  0
   38.0400   23.4570   38.2120 C   0  0  0  0  0  0  0  0  0  0  0  0
   37.2550   23.0650   37.1710 N   0  0  0  0  0  0  0  0  0  0  0  0
   37.7820   22.4050   36.1200 C   0  0  0  0  0  0  0  0  0  0  0  0
   39.0810   22.0970   36.0310 N   0  0  0  0  0  0  0  0  0  0  0  0
   43.8154   23.0606   37.5017 H   0  0  0  0  0  0  0  0  0  0  0  0
   44.9723   24.9974   36.4388 H   0  0  0  0  0  0  0  0  0  0  0  0
   39.5806   26.1645   34.7150 H   0  0  0  0  0  0  0  0  0  0  0  0
   38.5447   27.5176   32.9556 H   0  0  0  0  0  0  0  0  0  0  0  0
   39.9141   28.0164   30.9255 H   0  0  0  0  0  0  0  0  0  0  0  0
   42.2445   27.1405   30.7333 H   0  0  0  0  0  0  0  0  0  0  0  0
   41.4790   21.2320   36.3564 H   0  0  0  0  0  0  0  0  0  0  0  0
   41.7343   21.9500   37.9672 H   0  0  0  0  0  0  0  0  0  0  0  0
   40.0928   23.4404   38.9577 H   0  0  0  0  0  0  0  0  0  0  0  0
   37.6182   23.9958   39.0733 H   0  0  0  0  0  0  0  0  0  0  0  0
   37.1139   22.1063   35.2988 H   0  0  0  0  0  0  0  0  0  0  0  0
  1  2  2  0
  1 13  1  0
  3  2  1  0
  4  3  2  0
  5  4  1  0
  5  6  2  0
  6  1  1  0
  7  8  2  0
  7  5  1  0
  9  8  1  0
 10  9  2  0
 11 10  1  0
 11 12  2  0
 12  7  1  0
 13 14  1  0
 14 15  2  0
 15 16  1  0
 17 16  2  0
 18 17  1  0
 19 18  2  0
 19 14  1  0
  2 20  1  0
  3 21  1  0
  8 22  1  0
  9 23  1  0
 10 24  1  0
 11 25  1  0
 13 26  1  0
 13 27  1  0
 15 28  1  0
 16 29  1  0
 18 30  1  0
M  ISO  8  20  14  21  14  22  14  23  14  24  14  25  14  26   8  27   8
M  ISO  3  28  14  29  14  30  14
M  END
>  <minimizedAffinity>  (1) 
-4.506989

>  <minimizedRMSD>  (1) 
0.510507762

$$$$
