
     RDKit          3D

 22 23  0  0  0  0  0  0  0  0999 V2000
   41.2370   21.9720   36.2540 C   0  0  0  0  0  0  0  0  0  0  0  0
   39.9090   22.4230   36.7330 C   0  0  0  0  0  0  0  0  0  0  0  0
   39.8060   22.9600   38.0260 C   0  0  0  0  0  0  0  0  0  0  0  0
   38.5310   23.3790   38.4510 C   0  0  0  0  0  0  0  0  0  0  0  0
   37.4870   23.2450   37.6040 N   0  0  0  0  0  0  0  0  0  0  0  0
   37.6590   22.7180   36.3690 C   0  0  0  0  0  0  0  0  0  0  0  0
   38.8530   22.3010   35.9110 N   0  0  0  0  0  0  0  0  0  0  0  0
   42.0590   23.1950   36.0170 C   0  0  0  0  0  0  0  0  0  0  0  0
   43.3020   23.3240   36.6100 C   0  0  0  0  0  0  0  0  0  0  0  0
   44.0690   24.4620   36.3910 C   0  0  0  0  0  0  0  0  0  0  0  0
   43.5900   25.4440   35.5930 N   0  0  0  0  0  0  0  0  0  0  0  0
   42.3770   25.3140   35.0170 C   0  0  0  0  0  0  0  0  0  0  0  0
   41.6510   24.2090   35.2390 N   0  0  0  0  0  0  0  0  0  0  0  0
   41.8210   26.6450   33.9850 S   0  0  0  0  0  0  0  0  0  0  0  0
   41.7162   21.3372   37.0139 H   0  0  0  0  0  0  0  0  0  0  0  0
   41.1395   21.3819   35.3308 H   0  0  0  0  0  0  0  0  0  0  0  0
   40.6857   23.0497   38.6803 H   0  0  0  0  0  0  0  0  0  0  0  0
   38.3874   23.8075   39.4539 H   0  0  0  0  0  0  0  0  0  0  0  0
   36.7828   22.6267   35.7103 H   0  0  0  0  0  0  0  0  0  0  0  0
   43.6852   22.5220   37.2580 H   0  0  0  0  0  0  0  0  0  0  0  0
   45.0576   24.5636   36.8626 H   0  0  0  0  0  0  0  0  0  0  0  0
   41.3882   27.6812   34.7698 H   0  0  0  0  0  0  0  0  0  0  0  0
  1  2  1  0
  2  3  2  0
  3  4  1  0
  5  4  2  0
  6  5  1  0
  7  6  2  0
  7  2  1  0
  8  1  1  0
  8  9  2  0
 10  9  1  0
 11 10  2  0
 12 13  2  0
 12 11  1  0
 13  8  1  0
 14 12  1  0
  1 15  1  0
  1 16  1  0
  3 17  1  0
  4 18  1  0
  6 19  1  0
  9 20  1  0
 10 21  1  0
 14 22  1  0
M  ISO  8  15   8  16   8  17  14  18  14  19  14  20  14  21  14  22  11
M  END
>  <minimizedAffinity>  (1) 
-3.92656684

>  <minimizedRMSD>  (1) 
0.287958235

$$$$
