
     RDKit          3D

 24 25  0  0  0  0  0  0  0  0999 V2000
   41.2450   21.9820   36.2110 C   0  0  0  0  0  0  0  0  0  0  0  0
   39.9390   22.4260   36.7180 C   0  0  0  0  0  0  0  0  0  0  0  0
   39.8510   22.9420   38.0080 C   0  0  0  0  0  0  0  0  0  0  0  0
   38.6080   23.3630   38.4810 C   0  0  0  0  0  0  0  0  0  0  0  0
   37.5290   23.2490   37.6590 N   0  0  0  0  0  0  0  0  0  0  0  0
   37.6700   22.7350   36.4040 C   0  0  0  0  0  0  0  0  0  0  0  0
   38.8540   22.3260   35.9290 N   0  0  0  0  0  0  0  0  0  0  0  0
   42.0900   23.1890   36.0060 C   0  0  0  0  0  0  0  0  0  0  0  0
   43.3490   23.2730   36.5770 C   0  0  0  0  0  0  0  0  0  0  0  0
   44.1230   24.4300   36.3650 C   0  0  0  0  0  0  0  0  0  0  0  0
   43.6310   25.4410   35.6070 N   0  0  0  0  0  0  0  0  0  0  0  0
   42.4020   25.3350   35.0620 C   0  0  0  0  0  0  0  0  0  0  0  0
   41.6830   24.2320   35.2750 N   0  0  0  0  0  0  0  0  0  0  0  0
   41.8340   26.4290   34.2240 C   0  0  0  0  0  0  0  0  0  0  0  0
   41.7215   21.3119   36.9417 H   0  0  0  0  0  0  0  0  0  0  0  0
   41.1228   21.4345   35.2648 H   0  0  0  0  0  0  0  0  0  0  0  0
   40.7460   23.0164   38.6432 H   0  0  0  0  0  0  0  0  0  0  0  0
   38.5023   23.7774   39.4945 H   0  0  0  0  0  0  0  0  0  0  0  0
   36.7819   22.6534   35.7600 H   0  0  0  0  0  0  0  0  0  0  0  0
   43.7394   22.4462   37.1885 H   0  0  0  0  0  0  0  0  0  0  0  0
   45.1241   24.5135   36.8131 H   0  0  0  0  0  0  0  0  0  0  0  0
   41.4256   27.2156   34.8755 H   0  0  0  0  0  0  0  0  0  0  0  0
   42.6257   26.8532   33.5890 H   0  0  0  0  0  0  0  0  0  0  0  0
   41.0315   26.0255   33.5890 H   0  0  0  0  0  0  0  0  0  0  0  0
  1  2  1  0
  2  3  2  0
  3  4  1  0
  5  4  2  0
  6  5  1  0
  7  6  2  0
  7  2  1  0
  8  1  1  0
  8  9  2  0
 10  9  1  0
 11 10  2  0
 12 13  2  0
 12 11  1  0
 13  8  1  0
 14 12  1  0
  1 15  1  0
  1 16  1  0
  3 17  1  0
  4 18  1  0
  6 19  1  0
  9 20  1  0
 10 21  1  0
 14 22  1  0
 14 23  1  0
 14 24  1  0
M  ISO  8  15   8  16   8  17  14  18  14  19  14  20  14  21  14  22   8
M  ISO  2  23   8  24   8
M  END
>  <minimizedAffinity>  (1) 
-3.94435549

>  <minimizedRMSD>  (1) 
0.334652573

$$$$
