
     RDKit          3D

 36 38  0  0  1  0  0  0  0  0999 V2000
   42.4440   23.5670   36.2470 N   0  0  0  0  0  0  0  0  0  0  0  0
   42.5110   24.2210   34.9710 C   0  0  0  0  0  0  0  0  0  0  0  0
   43.3990   25.4010   35.2320 C   0  0  0  0  0  0  0  0  0  0  0  0
   44.1650   25.0700   36.5020 C   0  0  0  0  0  0  0  0  0  0  0  0
   43.8070   23.6210   36.7150 C   0  0  2  0  0  0  0  0  0  0  0  0
   44.7530   22.7920   35.9420 C   0  0  0  0  0  0  0  0  0  0  0  0
   46.1160   23.0940   36.0880 C   0  0  0  0  0  0  0  0  0  0  0  0
   47.1660   22.4630   35.4680 C   0  0  0  0  0  0  0  0  0  0  0  0
   46.8840   21.4520   34.6360 N   0  0  0  0  0  0  0  0  0  0  0  0
   45.5930   21.1230   34.4640 C   0  0  0  0  0  0  0  0  0  0  0  0
   44.6350   21.7740   35.0920 N   0  0  0  0  0  0  0  0  0  0  0  0
   41.8580   22.2660   36.2350 C   0  0  0  0  0  0  0  0  0  0  0  0
   41.0980   21.9180   37.4720 C   0  0  0  0  0  0  0  0  0  0  0  0
   37.8420   23.2400   36.1340 C   0  0  0  0  0  0  0  0  0  0  0  0
   39.0790   22.6070   36.2720 C   0  0  0  0  0  0  0  0  0  0  0  0
   39.7980   22.6100   37.4390 C   0  0  0  0  0  0  0  0  0  0  0  0
   39.2270   23.2760   38.4770 N   0  0  0  0  0  0  0  0  0  0  0  0
   38.0490   23.8820   38.3560 C   0  0  0  0  0  0  0  0  0  0  0  0
   37.3550   23.8810   37.2350 N   0  0  0  0  0  0  0  0  0  0  0  0
   41.5127   24.5448   34.6417 H   0  0  0  0  0  0  0  0  0  0  0  0
   42.8899   23.5665   34.1722 H   0  0  0  0  0  0  0  0  0  0  0  0
   44.0946   25.5499   34.3930 H   0  0  0  0  0  0  0  0  0  0  0  0
   42.8180   26.3288   35.3399 H   0  0  0  0  0  0  0  0  0  0  0  0
   45.2483   25.1974   36.3601 H   0  0  0  0  0  0  0  0  0  0  0  0
   43.9133   25.7190   37.3538 H   0  0  0  0  0  0  0  0  0  0  0  0
   43.8767   23.2437   37.7459 H   0  0  0  0  0  0  0  0  0  0  0  0
   46.3686   23.9205   36.7685 H   0  0  0  0  0  0  0  0  0  0  0  0
   48.2045   22.7774   35.6486 H   0  0  0  0  0  0  0  0  0  0  0  0
   45.3312   20.2961   33.7874 H   0  0  0  0  0  0  0  0  0  0  0  0
   41.1682   22.2077   35.3801 H   0  0  0  0  0  0  0  0  0  0  0  0
   42.6894   21.5490   36.1664 H   0  0  0  0  0  0  0  0  0  0  0  0
   40.9374   20.8306   37.5139 H   0  0  0  0  0  0  0  0  0  0  0  0
   41.6660   22.2304   38.3607 H   0  0  0  0  0  0  0  0  0  0  0  0
   37.2876   23.2225   35.1841 H   0  0  0  0  0  0  0  0  0  0  0  0
   39.4969   22.0801   35.4015 H   0  0  0  0  0  0  0  0  0  0  0  0
   37.6357   24.4071   39.2298 H   0  0  0  0  0  0  0  0  0  0  0  0
  1  5  1  0
  2  3  1  0
  2  1  1  0
  3  4  1  0
  4  5  1  0
  6  7  2  0
  6  5  1  0
  8  7  1  0
  9  8  2  0
 10  9  1  0
 10 11  2  0
 11  6  1  0
 12  1  1  0
 12 13  1  0
 14 15  2  0
 14 19  1  0
 15 16  1  0
 16 13  1  0
 16 17  2  0
 18 17  1  0
 19 18  2  0
  2 20  1  0
  2 21  1  0
  3 22  1  0
  3 23  1  0
  4 24  1  0
  4 25  1  0
  5 26  1  1
  7 27  1  0
  8 28  1  0
 10 29  1  0
 12 30  1  0
 12 31  1  0
 13 32  1  0
 13 33  1  0
 14 34  1  0
 15 35  1  0
 18 36  1  0
M  ISO  8  20  13  21  13  22  13  23  13  24  13  25  13  26  13  27  14
M  ISO  8  28  14  29  14  30   8  31   8  32   8  33   8  34  14  35  14
M  ISO  1  36  14
M  END
>  <minimizedAffinity>  (1) 
-3.97406816

>  <minimizedRMSD>  (1) 
0.557733178

$$$$
