
     RDKit          3D

 35 37  0  0  1  0  0  0  0  0999 V2000
   42.5150   23.7440   35.9910 N   0  0  0  0  0  0  0  0  0  0  0  0
   42.8760   24.2180   34.6860 C   0  0  0  0  0  0  0  0  0  0  0  0
   43.6880   25.4420   35.0000 C   0  0  0  0  0  0  0  0  0  0  0  0
   44.1370   25.2810   36.4430 C   0  0  0  0  0  0  0  0  0  0  0  0
   43.7470   23.8510   36.7230 C   0  0  2  0  0  0  0  0  0  0  0  0
   44.8380   22.9810   36.2210 C   0  0  0  0  0  0  0  0  0  0  0  0
   46.1950   23.3230   36.2600 C   0  0  0  0  0  0  0  0  0  0  0  0
   46.9750   22.3210   35.7260 C   0  0  0  0  0  0  0  0  0  0  0  0
   46.0500   21.3850   35.3700 C   0  0  0  0  0  0  0  0  0  0  0  0
   44.8640   21.7980   35.6680 O   0  0  0  0  0  0  0  0  0  0  0  0
   41.9480   22.4230   35.9960 C   0  0  0  0  0  0  0  0  0  0  0  0
   41.3180   22.0310   37.2910 C   0  0  0  0  0  0  0  0  0  0  0  0
   37.8470   22.8310   36.0980 C   0  0  0  0  0  0  0  0  0  0  0  0
   39.1670   22.3800   36.1840 C   0  0  0  0  0  0  0  0  0  0  0  0
   39.9340   22.5410   37.3090 C   0  0  0  0  0  0  0  0  0  0  0  0
   39.3270   23.1730   38.3470 N   0  0  0  0  0  0  0  0  0  0  0  0
   38.0680   23.6090   38.2770 C   0  0  0  0  0  0  0  0  0  0  0  0
   37.3310   23.4540   37.1940 N   0  0  0  0  0  0  0  0  0  0  0  0
   41.9843   24.4731   34.0946 H   0  0  0  0  0  0  0  0  0  0  0  0
   43.4175   23.4744   34.0828 H   0  0  0  0  0  0  0  0  0  0  0  0
   44.5598   25.5052   34.3322 H   0  0  0  0  0  0  0  0  0  0  0  0
   43.1039   26.3632   34.8577 H   0  0  0  0  0  0  0  0  0  0  0  0
   45.2223   25.4285   36.5447 H   0  0  0  0  0  0  0  0  0  0  0  0
   43.6911   26.0106   37.1350 H   0  0  0  0  0  0  0  0  0  0  0  0
   43.6077   23.5592   37.7744 H   0  0  0  0  0  0  0  0  0  0  0  0
   46.5870   24.2680   36.6641 H   0  0  0  0  0  0  0  0  0  0  0  0
   48.0688   22.2851   35.6148 H   0  0  0  0  0  0  0  0  0  0  0  0
   46.2807   20.4187   34.8977 H   0  0  0  0  0  0  0  0  0  0  0  0
   41.1796   22.3747   35.2103 H   0  0  0  0  0  0  0  0  0  0  0  0
   42.7786   21.7225   35.8245 H   0  0  0  0  0  0  0  0  0  0  0  0
   41.3112   20.9350   37.3840 H   0  0  0  0  0  0  0  0  0  0  0  0
   41.8875   22.4541   38.1316 H   0  0  0  0  0  0  0  0  0  0  0  0
   37.2505   22.6890   35.1847 H   0  0  0  0  0  0  0  0  0  0  0  0
   39.6091   21.8747   35.3127 H   0  0  0  0  0  0  0  0  0  0  0  0
   37.6304   24.1141   39.1507 H   0  0  0  0  0  0  0  0  0  0  0  0
  1 11  1  0
  1  5  1  0
  2  3  1  0
  2  1  1  0
  3  4  1  0
  4  5  1  0
  6  7  2  0
  6  5  1  0
  8  7  1  0
  9 10  1  0
  9  8  2  0
 10  6  1  0
 11 12  1  0
 12 15  1  0
 13 14  2  0
 13 18  1  0
 14 15  1  0
 15 16  2  0
 17 16  1  0
 18 17  2  0
  2 19  1  0
  2 20  1  0
  3 21  1  0
  3 22  1  0
  4 23  1  0
  4 24  1  0
  5 25  1  1
  7 26  1  0
  8 27  1  0
  9 28  1  0
 11 29  1  0
 11 30  1  0
 12 31  1  0
 12 32  1  0
 13 33  1  0
 14 34  1  0
 17 35  1  0
M  ISO  8  19  13  20  13  21  13  22  13  23  13  24  13  25  13  26  14
M  ISO  8  27  14  28  14  29   8  30   8  31   8  32   8  33  14  34  14
M  ISO  1  35  14
M  END
>  <minimizedAffinity>  (1) 
-3.93485332

>  <minimizedRMSD>  (1) 
0.860420585

$$$$
