
     RDKit          3D

 43 46  0  0  1  0  0  0  0  0999 V2000
   41.0800   26.0360   33.8810 C   0  0  2  0  0  0  0  0  0  0  0  0
   41.9690   23.3460   36.2460 C   0  0  0  0  0  0  0  0  0  0  0  0
   43.2870   23.6690   36.5530 C   0  0  0  0  0  0  0  0  0  0  0  0
   43.9090   24.7810   35.9830 C   0  0  0  0  0  0  0  0  0  0  0  0
   43.1930   25.5380   35.1180 N   0  0  0  0  0  0  0  0  0  0  0  0
   41.9020   25.2230   34.8130 C   0  0  0  0  0  0  0  0  0  0  0  0
   41.3220   24.1550   35.3700 N   0  0  0  0  0  0  0  0  0  0  0  0
   41.3070   22.1610   36.8660 C   0  0  0  0  0  0  0  0  0  0  0  0
   39.8730   22.4910   37.0050 C   0  0  0  0  0  0  0  0  0  0  0  0
   39.3750   23.1250   38.1160 C   0  0  0  0  0  0  0  0  0  0  0  0
   38.0190   23.4280   38.2200 C   0  0  0  0  0  0  0  0  0  0  0  0
   37.2290   23.0690   37.1830 N   0  0  0  0  0  0  0  0  0  0  0  0
   37.7450   22.4460   36.1040 C   0  0  0  0  0  0  0  0  0  0  0  0
   39.0320   22.1670   36.0200 N   0  0  0  0  0  0  0  0  0  0  0  0
   41.6100   27.3840   33.5990 C   0  0  0  0  0  0  0  0  0  0  0  0
   39.6280   26.0580   34.4140 C   0  0  0  0  0  0  0  0  0  0  0  0
   38.7200   25.6740   33.3750 N   0  0  0  0  0  0  0  0  0  0  0  0
   38.6890   24.5520   32.6310 C   0  0  0  0  0  0  0  0  0  0  0  0
   37.6350   24.6420   31.7700 N   0  0  0  0  0  0  0  0  0  0  0  0
   37.0050   25.8260   31.9780 C   0  0  0  0  0  0  0  0  0  0  0  0
   35.9060   26.4400   31.4120 C   0  0  0  0  0  0  0  0  0  0  0  0
   35.5110   27.6560   31.8470 N   0  0  0  0  0  0  0  0  0  0  0  0
   36.2050   28.2580   32.8370 C   0  0  0  0  0  0  0  0  0  0  0  0
   37.2710   27.7110   33.4160 N   0  0  0  0  0  0  0  0  0  0  0  0
   37.6890   26.4820   32.9940 C   0  0  0  0  0  0  0  0  0  0  0  0
   35.1780   25.8020   30.3690 N   0  0  0  0  0  0  0  0  0  0  0  0
   41.1129   25.5547   32.8924 H   0  0  0  0  0  0  0  0  0  0  0  0
   43.8485   23.0372   37.2570 H   0  0  0  0  0  0  0  0  0  0  0  0
   44.9505   25.0351   36.2293 H   0  0  0  0  0  0  0  0  0  0  0  0
   41.4308   21.2786   36.2210 H   0  0  0  0  0  0  0  0  0  0  0  0
   41.7532   21.9291   37.8443 H   0  0  0  0  0  0  0  0  0  0  0  0
   40.0560   23.3977   38.9357 H   0  0  0  0  0  0  0  0  0  0  0  0
   37.6097   23.9362   39.1056 H   0  0  0  0  0  0  0  0  0  0  0  0
   37.0784   22.1642   35.2756 H   0  0  0  0  0  0  0  0  0  0  0  0
   41.8142   27.9034   34.5469 H   0  0  0  0  0  0  0  0  0  0  0  0
   42.5413   27.2981   33.0199 H   0  0  0  0  0  0  0  0  0  0  0  0
   40.8696   27.9554   33.0199 H   0  0  0  0  0  0  0  0  0  0  0  0
   39.5378   25.3549   35.2551 H   0  0  0  0  0  0  0  0  0  0  0  0
   39.3820   27.0757   34.7512 H   0  0  0  0  0  0  0  0  0  0  0  0
   39.3918   23.7091   32.7048 H   0  0  0  0  0  0  0  0  0  0  0  0
   35.8729   29.2485   33.1814 H   0  0  0  0  0  0  0  0  0  0  0  0
   35.4705   24.8746   30.0296 H   0  0  0  0  0  0  0  0  0  0  0  0
   34.3586   26.2676   29.9535 H   0  0  0  0  0  0  0  0  0  0  0  0
  1 16  1  0
  1  6  1  0
  2  3  2  0
  2  8  1  0
  4  3  1  0
  5  4  2  0
  6  5  1  0
  6  7  2  0
  7  2  1  0
  8  9  1  0
  9 10  2  0
 10 11  1  0
 12 11  2  0
 13 12  1  0
 14 13  2  0
 14  9  1  0
 15  1  1  0
 17 16  1  0
 18 17  1  0
 19 20  1  0
 19 18  2  0
 20 25  2  0
 21 22  2  0
 21 20  1  0
 22 23  1  0
 23 24  2  0
 25 17  1  0
 25 24  1  0
 26 21  1  0
  1 27  1  6
  3 28  1  0
  4 29  1  0
  8 30  1  0
  8 31  1  0
 10 32  1  0
 11 33  1  0
 13 34  1  0
 15 35  1  0
 15 36  1  0
 15 37  1  0
 16 38  1  0
 16 39  1  0
 18 40  1  0
 23 41  1  0
 26 42  1  0
 26 43  1  0
M  ISO  8  27   8  28  14  29  14  30   8  31   8  32  14  33  14  34  14
M  ISO  7  35   8  36   8  37   8  38   8  39   8  40  14  41  14
M  END
>  <minimizedAffinity>  (1) 
-5.89805698

>  <minimizedRMSD>  (1) 
2.19618702

$$$$
