
     RDKit          3D

 44 47  0  0  1  0  0  0  0  0999 V2000
   41.9670   23.3080   36.1090 C   0  0  0  0  0  0  0  0  0  0  0  0
   43.3290   23.5030   36.2890 C   0  0  0  0  0  0  0  0  0  0  0  0
   43.9640   24.6400   35.7890 C   0  0  0  0  0  0  0  0  0  0  0  0
   43.2240   25.5530   35.1210 N   0  0  0  0  0  0  0  0  0  0  0  0
   41.8850   25.3640   34.9430 C   0  0  0  0  0  0  0  0  0  0  0  0
   41.2940   24.2560   35.4360 N   0  0  0  0  0  0  0  0  0  0  0  0
   41.2910   22.0920   36.6580 C   0  0  0  0  0  0  0  0  0  0  0  0
   39.8690   22.4510   36.8860 C   0  0  0  0  0  0  0  0  0  0  0  0
   39.4520   23.0980   38.0240 C   0  0  0  0  0  0  0  0  0  0  0  0
   38.1130   23.4170   38.2010 C   0  0  0  0  0  0  0  0  0  0  0  0
   37.2560   23.0670   37.2200 N   0  0  0  0  0  0  0  0  0  0  0  0
   37.7080   22.4270   36.1070 C   0  0  0  0  0  0  0  0  0  0  0  0
   38.9840   22.1250   35.9410 N   0  0  0  0  0  0  0  0  0  0  0  0
   41.0160   26.3450   34.2340 C   0  0  2  0  0  0  0  0  0  0  0  0
   41.7420   27.4390   33.5650 C   0  0  0  0  0  0  0  0  0  0  0  0
   39.9160   26.7900   35.1770 C   0  0  0  0  0  0  0  0  0  0  0  0
   38.6520   27.1500   34.5410 C   0  0  0  0  0  0  0  0  0  0  0  0
   37.6220   27.7870   35.2370 C   0  0  0  0  0  0  0  0  0  0  0  0
   36.5670   27.9750   34.4120 N   0  0  0  0  0  0  0  0  0  0  0  0
   36.8420   27.4890   33.1810 C   0  0  0  0  0  0  0  0  0  0  0  0
   36.0790   27.4700   32.0440 C   0  0  0  0  0  0  0  0  0  0  0  0
   36.6660   26.9030   30.9360 C   0  0  0  0  0  0  0  0  0  0  0  0
   37.9540   26.3890   30.9950 C   0  0  0  0  0  0  0  0  0  0  0  0
   38.6850   26.4300   32.1630 C   0  0  0  0  0  0  0  0  0  0  0  0
   38.1150   26.9930   33.2850 C   0  0  0  0  0  0  0  0  0  0  0  0
   43.9168   22.7498   36.8341 H   0  0  0  0  0  0  0  0  0  0  0  0
   45.0438   24.7904   35.9352 H   0  0  0  0  0  0  0  0  0  0  0  0
   41.3605   21.2636   35.9377 H   0  0  0  0  0  0  0  0  0  0  0  0
   41.7684   21.7667   37.5941 H   0  0  0  0  0  0  0  0  0  0  0  0
   40.1844   23.3650   38.8001 H   0  0  0  0  0  0  0  0  0  0  0  0
   37.7641   23.9353   39.1064 H   0  0  0  0  0  0  0  0  0  0  0  0
   36.9889   22.1526   35.3212 H   0  0  0  0  0  0  0  0  0  0  0  0
   40.5489   25.8412   33.3749 H   0  0  0  0  0  0  0  0  0  0  0  0
   42.1830   28.1035   34.3226 H   0  0  0  0  0  0  0  0  0  0  0  0
   42.5408   27.0184   32.9365 H   0  0  0  0  0  0  0  0  0  0  0  0
   41.0441   28.0117   32.9365 H   0  0  0  0  0  0  0  0  0  0  0  0
   39.7194   25.9678   35.8808 H   0  0  0  0  0  0  0  0  0  0  0  0
   40.2840   27.7074   35.6596 H   0  0  0  0  0  0  0  0  0  0  0  0
   37.6627   28.0893   36.2939 H   0  0  0  0  0  0  0  0  0  0  0  0
   35.6806   28.4243   34.6830 H   0  0  0  0  0  0  0  0  0  0  0  0
   35.0596   27.8826   32.0180 H   0  0  0  0  0  0  0  0  0  0  0  0
   36.1065   26.8564   29.9901 H   0  0  0  0  0  0  0  0  0  0  0  0
   38.3991   25.9412   30.0942 H   0  0  0  0  0  0  0  0  0  0  0  0
   39.7053   26.0206   32.1992 H   0  0  0  0  0  0  0  0  0  0  0  0
  1  2  2  0
  1  7  1  0
  3  2  1  0
  4  3  2  0
  5  4  1  0
  5  6  2  0
  6  1  1  0
  7  8  1  0
  8  9  2  0
  9 10  1  0
 11 10  2  0
 12 11  1  0
 13 12  2  0
 13  8  1  0
 14  5  1  0
 14 16  1  0
 15 14  1  0
 17 16  1  0
 17 18  2  0
 19 18  1  0
 20 25  2  0
 20 19  1  0
 21 20  1  0
 22 23  1  0
 22 21  2  0
 23 24  2  0
 24 25  1  0
 25 17  1  0
  2 26  1  0
  3 27  1  0
  7 28  1  0
  7 29  1  0
  9 30  1  0
 10 31  1  0
 12 32  1  0
 14 33  1  6
 15 34  1  0
 15 35  1  0
 15 36  1  0
 16 37  1  0
 16 38  1  0
 18 39  1  0
 19 40  1  0
 21 41  1  0
 22 42  1  0
 23 43  1  0
 24 44  1  0
M  ISO  8  26  14  27  14  28   8  29   8  30  14  31  14  32  14  33   8
M  ISO  8  34   8  35   8  36   8  37   8  38   8  39  14  40   9  41  14
M  ISO  3  42  14  43  14  44  14
M  END
>  <minimizedAffinity>  (1) 
-6.0322752

>  <minimizedRMSD>  (1) 
1.42193568

$$$$
