
     RDKit          3D

 40 42  0  0  1  0  0  0  0  0999 V2000
   42.0270   23.1730   36.2080 C   0  0  0  0  0  0  0  0  0  0  0  0
   43.3610   23.3400   36.5160 C   0  0  0  0  0  0  0  0  0  0  0  0
   44.0700   24.4620   36.0860 C   0  0  0  0  0  0  0  0  0  0  0  0
   43.4050   25.3910   35.3540 N   0  0  0  0  0  0  0  0  0  0  0  0
   42.0860   25.2270   35.0490 C   0  0  0  0  0  0  0  0  0  0  0  0
   41.4280   24.1410   35.4720 N   0  0  0  0  0  0  0  0  0  0  0  0
   41.2780   21.9690   36.6860 C   0  0  0  0  0  0  0  0  0  0  0  0
   39.8680   22.3880   36.8990 C   0  0  0  0  0  0  0  0  0  0  0  0
   39.4700   23.0570   38.0310 C   0  0  0  0  0  0  0  0  0  0  0  0
   38.1360   23.4320   38.1850 C   0  0  0  0  0  0  0  0  0  0  0  0
   37.2840   23.1110   37.1890 N   0  0  0  0  0  0  0  0  0  0  0  0
   37.7060   22.4540   36.0920 C   0  0  0  0  0  0  0  0  0  0  0  0
   38.9700   22.1020   35.9550 N   0  0  0  0  0  0  0  0  0  0  0  0
   41.3240   26.2270   34.2680 C   0  0  2  0  0  0  0  0  0  0  0  0
   42.1330   27.2860   33.6370 C   0  0  0  0  0  0  0  0  0  0  0  0
   40.1700   26.7500   35.1290 C   0  0  0  0  0  0  0  0  0  0  0  0
   38.9700   27.0910   34.3790 C   0  0  0  0  0  0  0  0  0  0  0  0
   37.8770   27.5710   35.0970 C   0  0  0  0  0  0  0  0  0  0  0  0
   36.6640   27.9420   34.5300 C   0  0  0  0  0  0  0  0  0  0  0  0
   36.5430   27.8210   33.1600 C   0  0  0  0  0  0  0  0  0  0  0  0
   37.6020   27.3490   32.4160 C   0  0  0  0  0  0  0  0  0  0  0  0
   38.8120   26.9840   33.0120 C   0  0  0  0  0  0  0  0  0  0  0  0
   43.8764   22.5730   37.1128 H   0  0  0  0  0  0  0  0  0  0  0  0
   45.1344   24.5895   36.3326 H   0  0  0  0  0  0  0  0  0  0  0  0
   41.3245   21.1710   35.9303 H   0  0  0  0  0  0  0  0  0  0  0  0
   41.7157   21.5795   37.6170 H   0  0  0  0  0  0  0  0  0  0  0  0
   40.2032   23.2966   38.8152 H   0  0  0  0  0  0  0  0  0  0  0  0
   37.7920   23.9678   39.0820 H   0  0  0  0  0  0  0  0  0  0  0  0
   36.9859   22.2070   35.2980 H   0  0  0  0  0  0  0  0  0  0  0  0
   40.9107   25.7154   33.3863 H   0  0  0  0  0  0  0  0  0  0  0  0
   42.6036   27.9020   34.4174 H   0  0  0  0  0  0  0  0  0  0  0  0
   42.9132   26.8278   33.0114 H   0  0  0  0  0  0  0  0  0  0  0  0
   41.4857   27.9182   33.0114 H   0  0  0  0  0  0  0  0  0  0  0  0
   39.9085   25.9736   35.8631 H   0  0  0  0  0  0  0  0  0  0  0  0
   40.5233   27.6801   35.5981 H   0  0  0  0  0  0  0  0  0  0  0  0
   37.9815   27.6626   36.1882 H   0  0  0  0  0  0  0  0  0  0  0  0
   35.8342   28.3167   35.1473 H   0  0  0  0  0  0  0  0  0  0  0  0
   35.6024   28.1011   32.6633 H   0  0  0  0  0  0  0  0  0  0  0  0
   37.4923   27.2571   31.3253 H   0  0  0  0  0  0  0  0  0  0  0  0
   39.6397   26.6109   32.3909 H   0  0  0  0  0  0  0  0  0  0  0  0
  1  2  2  0
  1  7  1  0
  3  2  1  0
  4  3  2  0
  5  4  1  0
  5  6  2  0
  6  1  1  0
  7  8  1  0
  8  9  2  0
  9 10  1  0
 11 10  2  0
 12 11  1  0
 13 12  2  0
 13  8  1  0
 14  5  1  0
 14 16  1  0
 15 14  1  0
 17 18  2  0
 17 16  1  0
 19 18  1  0
 20 19  2  0
 21 22  2  0
 21 20  1  0
 22 17  1  0
  2 23  1  0
  3 24  1  0
  7 25  1  0
  7 26  1  0
  9 27  1  0
 10 28  1  0
 12 29  1  0
 14 30  1  6
 15 31  1  0
 15 32  1  0
 15 33  1  0
 16 34  1  0
 16 35  1  0
 18 36  1  0
 19 37  1  0
 20 38  1  0
 21 39  1  0
 22 40  1  0
M  ISO  8  23  14  24  14  25   8  26   8  27  14  28  14  29  14  30   8
M  ISO  8  31   8  32   8  33   8  34   8  35   8  36  14  37  14  38  14
M  ISO  2  39  14  40  14
M  END
>  <minimizedAffinity>  (1) 
-5.82396889

>  <minimizedRMSD>  (1) 
0.822720408

$$$$
