
     RDKit          3D

 37 39  0  0  1  0  0  0  0  0999 V2000
   41.9840   23.2920   36.1390 C   0  0  0  0  0  0  0  0  0  0  0  0
   43.3330   23.5100   36.3900 C   0  0  0  0  0  0  0  0  0  0  0  0
   43.9720   24.6450   35.9090 C   0  0  0  0  0  0  0  0  0  0  0  0
   43.2550   25.5360   35.1900 N   0  0  0  0  0  0  0  0  0  0  0  0
   41.9300   25.3250   34.9410 C   0  0  0  0  0  0  0  0  0  0  0  0
   41.3200   24.2240   35.4100 N   0  0  0  0  0  0  0  0  0  0  0  0
   41.2860   22.0720   36.6640 C   0  0  0  0  0  0  0  0  0  0  0  0
   39.8600   22.4340   36.8820 C   0  0  0  0  0  0  0  0  0  0  0  0
   39.4650   23.0800   38.0270 C   0  0  0  0  0  0  0  0  0  0  0  0
   38.1210   23.4150   38.2110 C   0  0  0  0  0  0  0  0  0  0  0  0
   37.2610   23.0760   37.2210 N   0  0  0  0  0  0  0  0  0  0  0  0
   37.7040   22.4390   36.1130 C   0  0  0  0  0  0  0  0  0  0  0  0
   38.9720   22.1200   35.9360 N   0  0  0  0  0  0  0  0  0  0  0  0
   41.0910   26.2840   34.1760 C   0  0  2  0  0  0  0  0  0  0  0  0
   41.8450   27.3480   33.4840 C   0  0  0  0  0  0  0  0  0  0  0  0
   40.0280   26.8670   35.1410 C   0  0  0  0  0  0  0  0  0  0  0  0
   38.7400   26.9040   34.5180 N   0  0  0  0  0  0  0  0  0  0  0  0
   37.7020   27.6100   35.0410 C   0  0  0  0  0  0  0  0  0  0  0  0
   36.6190   27.4410   34.2130 C   0  0  0  0  0  0  0  0  0  0  0  0
   37.0270   26.6330   33.2040 N   0  0  0  0  0  0  0  0  0  0  0  0
   38.3350   26.2990   33.3860 C   0  0  0  0  0  0  0  0  0  0  0  0
   43.9020   22.7741   36.9772 H   0  0  0  0  0  0  0  0  0  0  0  0
   45.0401   24.8152   36.1093 H   0  0  0  0  0  0  0  0  0  0  0  0
   41.3585   21.2535   35.9326 H   0  0  0  0  0  0  0  0  0  0  0  0
   41.7486   21.7340   37.6030 H   0  0  0  0  0  0  0  0  0  0  0  0
   40.2061   23.3338   38.7992 H   0  0  0  0  0  0  0  0  0  0  0  0
   37.7767   23.9310   39.1194 H   0  0  0  0  0  0  0  0  0  0  0  0
   36.9787   22.1766   35.3287 H   0  0  0  0  0  0  0  0  0  0  0  0
   40.6131   25.7295   33.3550 H   0  0  0  0  0  0  0  0  0  0  0  0
   42.3133   28.0089   34.2282 H   0  0  0  0  0  0  0  0  0  0  0  0
   42.6245   26.8947   32.8541 H   0  0  0  0  0  0  0  0  0  0  0  0
   41.1589   27.9332   32.8541 H   0  0  0  0  0  0  0  0  0  0  0  0
   39.9748   26.2374   36.0415 H   0  0  0  0  0  0  0  0  0  0  0  0
   40.3198   27.8936   35.4074 H   0  0  0  0  0  0  0  0  0  0  0  0
   37.7254   28.2096   35.9629 H   0  0  0  0  0  0  0  0  0  0  0  0
   35.6171   27.8761   34.3432 H   0  0  0  0  0  0  0  0  0  0  0  0
   38.9441   25.6572   32.7324 H   0  0  0  0  0  0  0  0  0  0  0  0
  1  2  2  0
  1  7  1  0
  3  2  1  0
  4  3  2  0
  5  4  1  0
  5  6  2  0
  6  1  1  0
  7  8  1  0
  8  9  2  0
  9 10  1  0
 11 10  2  0
 12 11  1  0
 13 12  2  0
 13  8  1  0
 14  5  1  0
 14 16  1  0
 15 14  1  0
 17 18  1  0
 17 16  1  0
 19 18  2  0
 20 21  2  0
 20 19  1  0
 21 17  1  0
  2 22  1  0
  3 23  1  0
  7 24  1  0
  7 25  1  0
  9 26  1  0
 10 27  1  0
 12 28  1  0
 14 29  1  6
 15 30  1  0
 15 31  1  0
 15 32  1  0
 16 33  1  0
 16 34  1  0
 18 35  1  0
 19 36  1  0
 21 37  1  0
M  ISO  8  22  14  23  14  24   8  25   8  26  14  27  14  28  14  29   8
M  ISO  8  30   8  31   8  32   8  33   8  34   8  35  14  36  14  37  14
M  END
>  <minimizedAffinity>  (1) 
-4.89049006

>  <minimizedRMSD>  (1) 
0.968802869

$$$$
