
     RDKit          3D

 36 38  0  0  1  0  0  0  0  0999 V2000
   42.0110   23.3180   36.1920 C   0  0  0  0  0  0  0  0  0  0  0  0
   43.3340   23.5800   36.5340 C   0  0  0  0  0  0  0  0  0  0  0  0
   43.9720   24.7230   36.0680 C   0  0  0  0  0  0  0  0  0  0  0  0
   43.2760   25.5730   35.2750 N   0  0  0  0  0  0  0  0  0  0  0  0
   41.9830   25.3160   34.9400 C   0  0  0  0  0  0  0  0  0  0  0  0
   41.3710   24.2120   35.3920 N   0  0  0  0  0  0  0  0  0  0  0  0
   41.3090   22.0910   36.6990 C   0  0  0  0  0  0  0  0  0  0  0  0
   39.8890   22.4560   36.9060 C   0  0  0  0  0  0  0  0  0  0  0  0
   39.4540   23.0980   38.0360 C   0  0  0  0  0  0  0  0  0  0  0  0
   38.1110   23.4250   38.1960 C   0  0  0  0  0  0  0  0  0  0  0  0
   37.2650   23.0840   37.1930 N   0  0  0  0  0  0  0  0  0  0  0  0
   37.7270   22.4530   36.0930 C   0  0  0  0  0  0  0  0  0  0  0  0
   39.0020   22.1490   35.9560 N   0  0  0  0  0  0  0  0  0  0  0  0
   41.1860   26.2260   34.0870 C   0  0  2  0  0  0  0  0  0  0  0  0
   41.9270   27.3530   33.4880 C   0  0  0  0  0  0  0  0  0  0  0  0
   39.9520   26.6950   34.8920 C   0  0  0  0  0  0  0  0  0  0  0  0
   38.7670   26.4170   34.0030 C   0  0  0  0  0  0  0  0  0  0  0  0
   38.5050   25.1410   33.4390 C   0  0  0  0  0  0  0  0  0  0  0  0
   37.0040   25.4210   32.5040 S   0  0  0  0  0  0  0  0  0  0  0  0
   36.9410   27.2330   33.0090 C   0  0  0  0  0  0  0  0  0  0  0  0
   37.8890   27.3750   33.6950 N   0  0  0  0  0  0  0  0  0  0  0  0
   43.8798   22.8758   37.1792 H   0  0  0  0  0  0  0  0  0  0  0  0
   45.0178   24.9329   36.3366 H   0  0  0  0  0  0  0  0  0  0  0  0
   41.3862   21.2797   35.9602 H   0  0  0  0  0  0  0  0  0  0  0  0
   41.7636   21.7393   37.6369 H   0  0  0  0  0  0  0  0  0  0  0  0
   40.1747   23.3577   38.8254 H   0  0  0  0  0  0  0  0  0  0  0  0
   37.7505   23.9391   39.0992 H   0  0  0  0  0  0  0  0  0  0  0  0
   37.0224   22.1861   35.2916 H   0  0  0  0  0  0  0  0  0  0  0  0
   40.8761   25.6481   33.2038 H   0  0  0  0  0  0  0  0  0  0  0  0
   42.3424   27.9847   34.2870 H   0  0  0  0  0  0  0  0  0  0  0  0
   42.7459   26.9637   32.8653 H   0  0  0  0  0  0  0  0  0  0  0  0
   41.2450   27.9506   32.8653 H   0  0  0  0  0  0  0  0  0  0  0  0
   39.8686   26.1308   35.8326 H   0  0  0  0  0  0  0  0  0  0  0  0
   40.0200   27.7588   35.1635 H   0  0  0  0  0  0  0  0  0  0  0  0
   39.0814   24.2106   33.5491 H   0  0  0  0  0  0  0  0  0  0  0  0
   36.1910   27.9871   32.7282 H   0  0  0  0  0  0  0  0  0  0  0  0
  1  2  2  0
  1  7  1  0
  3  2  1  0
  4  3  2  0
  5  4  1  0
  5  6  2  0
  6  1  1  0
  7  8  1  0
  8  9  2  0
  9 10  1  0
 11 10  2  0
 12 11  1  0
 13 12  2  0
 13  8  1  0
 14 16  1  0
 14  5  1  0
 15 14  1  0
 17 16  1  0
 18 17  2  0
 19 20  1  0
 19 18  1  0
 20 21  2  0
 21 17  1  0
  2 22  1  0
  3 23  1  0
  7 24  1  0
  7 25  1  0
  9 26  1  0
 10 27  1  0
 12 28  1  0
 14 29  1  6
 15 30  1  0
 15 31  1  0
 15 32  1  0
 16 33  1  0
 16 34  1  0
 18 35  1  0
 20 36  1  0
M  ISO  8  22  14  23  14  24   8  25   8  26  14  27  14  28  14  29   8
M  ISO  7  30   8  31   8  32   8  33   8  34   8  35  14  36  14
M  END
>  <minimizedAffinity>  (1) 
-5.00609779

>  <minimizedRMSD>  (1) 
1.25433946

$$$$
