
     RDKit          3D

 37 39  0  0  1  0  0  0  0  0999 V2000
   41.9970   23.3070   36.1860 C   0  0  0  0  0  0  0  0  0  0  0  0
   43.3110   23.5680   36.5530 C   0  0  0  0  0  0  0  0  0  0  0  0
   43.9680   24.7130   36.1020 C   0  0  0  0  0  0  0  0  0  0  0  0
   43.2820   25.5580   35.2970 N   0  0  0  0  0  0  0  0  0  0  0  0
   42.0020   25.3090   34.9360 C   0  0  0  0  0  0  0  0  0  0  0  0
   41.3820   24.2060   35.3740 N   0  0  0  0  0  0  0  0  0  0  0  0
   41.2980   22.0830   36.6820 C   0  0  0  0  0  0  0  0  0  0  0  0
   39.8830   22.4430   36.8880 C   0  0  0  0  0  0  0  0  0  0  0  0
   39.4610   23.0950   38.0210 C   0  0  0  0  0  0  0  0  0  0  0  0
   38.1190   23.4320   38.1980 C   0  0  0  0  0  0  0  0  0  0  0  0
   37.2660   23.0890   37.2110 N   0  0  0  0  0  0  0  0  0  0  0  0
   37.7100   22.4460   36.1030 C   0  0  0  0  0  0  0  0  0  0  0  0
   38.9830   22.1340   35.9510 N   0  0  0  0  0  0  0  0  0  0  0  0
   41.2170   26.2240   34.0690 C   0  0  2  0  0  0  0  0  0  0  0  0
   41.9790   27.3550   33.5040 C   0  0  0  0  0  0  0  0  0  0  0  0
   39.9840   26.7130   34.8660 C   0  0  0  0  0  0  0  0  0  0  0  0
   38.7390   26.5270   34.0950 C   0  0  0  0  0  0  0  0  0  0  0  0
   38.3180   25.2560   33.7060 C   0  0  0  0  0  0  0  0  0  0  0  0
   37.1690   25.4450   33.0310 N   0  0  0  0  0  0  0  0  0  0  0  0
   36.8830   26.7600   32.9970 C   0  0  0  0  0  0  0  0  0  0  0  0
   37.8420   27.4240   33.6470 N   0  0  0  0  0  0  0  0  0  0  0  0
   43.8412   22.8616   37.2087 H   0  0  0  0  0  0  0  0  0  0  0  0
   45.0086   24.9222   36.3908 H   0  0  0  0  0  0  0  0  0  0  0  0
   41.3773   21.2762   35.9385 H   0  0  0  0  0  0  0  0  0  0  0  0
   41.7510   21.7270   37.6190 H   0  0  0  0  0  0  0  0  0  0  0  0
   40.1923   23.3553   38.8004 H   0  0  0  0  0  0  0  0  0  0  0  0
   37.7719   23.9540   39.1019 H   0  0  0  0  0  0  0  0  0  0  0  0
   36.9928   22.1784   35.3130 H   0  0  0  0  0  0  0  0  0  0  0  0
   40.9103   25.6478   33.1836 H   0  0  0  0  0  0  0  0  0  0  0  0
   42.3901   27.9651   34.3218 H   0  0  0  0  0  0  0  0  0  0  0  0
   42.8022   26.9695   32.8846 H   0  0  0  0  0  0  0  0  0  0  0  0
   41.3125   27.9732   32.8846 H   0  0  0  0  0  0  0  0  0  0  0  0
   39.9137   26.1418   35.8035 H   0  0  0  0  0  0  0  0  0  0  0  0
   40.1074   27.7863   35.0727 H   0  0  0  0  0  0  0  0  0  0  0  0
   38.8202   24.2985   33.9085 H   0  0  0  0  0  0  0  0  0  0  0  0
   36.0046   27.2127   32.5137 H   0  0  0  0  0  0  0  0  0  0  0  0
   37.8871   28.4441   33.7818 H   0  0  0  0  0  0  0  0  0  0  0  0
  1  2  2  0
  1  7  1  0
  3  2  1  0
  4  3  2  0
  5  4  1  0
  5  6  2  0
  6  1  1  0
  7  8  1  0
  8  9  2  0
  9 10  1  0
 11 10  2  0
 12 11  1  0
 13 12  2  0
 13  8  1  0
 14 16  1  0
 14  5  1  0
 15 14  1  0
 17 16  1  0
 18 17  2  0
 19 18  1  0
 20 19  2  0
 20 21  1  0
 21 17  1  0
  2 22  1  0
  3 23  1  0
  7 24  1  0
  7 25  1  0
  9 26  1  0
 10 27  1  0
 12 28  1  0
 14 29  1  6
 15 30  1  0
 15 31  1  0
 15 32  1  0
 16 33  1  0
 16 34  1  0
 18 35  1  0
 20 36  1  0
 21 37  1  0
M  ISO  8  22  14  23  14  24   8  25   8  26  14  27  14  28  14  29   8
M  ISO  8  30   8  31   8  32   8  33   8  34   8  35  14  36  14  37   9
M  END
>  <minimizedAffinity>  (1) 
-4.99690199

>  <minimizedRMSD>  (1) 
1.33162141

$$$$
