
     RDKit          3D

 37 38  0  0  1  0  0  0  0  0999 V2000
   42.0170   23.2590   36.1790 C   0  0  0  0  0  0  0  0  0  0  0  0
   43.3430   23.4860   36.5200 C   0  0  0  0  0  0  0  0  0  0  0  0
   44.0080   24.6200   36.0910 C   0  0  0  0  0  0  0  0  0  0  0  0
   43.3400   25.5090   35.3260 N   0  0  0  0  0  0  0  0  0  0  0  0
   42.0410   25.3010   34.9820 C   0  0  0  0  0  0  0  0  0  0  0  0
   41.4280   24.1890   35.4190 N   0  0  0  0  0  0  0  0  0  0  0  0
   41.2940   22.0360   36.6590 C   0  0  0  0  0  0  0  0  0  0  0  0
   39.8800   22.4220   36.8830 C   0  0  0  0  0  0  0  0  0  0  0  0
   39.4810   23.0890   38.0140 C   0  0  0  0  0  0  0  0  0  0  0  0
   38.1320   23.4300   38.1700 C   0  0  0  0  0  0  0  0  0  0  0  0
   37.2790   23.0790   37.1830 N   0  0  0  0  0  0  0  0  0  0  0  0
   37.7110   22.4230   36.0880 C   0  0  0  0  0  0  0  0  0  0  0  0
   38.9840   22.1030   35.9430 N   0  0  0  0  0  0  0  0  0  0  0  0
   41.2450   26.2570   34.1600 C   0  0  2  0  0  0  0  0  0  0  0  0
   42.0540   27.2900   33.4870 C   0  0  0  0  0  0  0  0  0  0  0  0
   40.1240   26.8170   35.0140 C   0  0  0  0  0  0  0  0  0  0  0  0
   38.9170   27.1320   34.3350 N   0  0  0  0  0  0  0  0  0  0  0  0
   37.6080   26.9320   34.8320 C   0  0  0  0  0  0  0  0  0  0  0  0
   37.4220   25.8980   35.5660 N   0  0  0  0  0  0  0  0  0  0  0  0
   36.6040   27.8610   34.4910 N   0  0  0  0  0  0  0  0  0  0  0  0
   38.1630   25.2140   35.8100 H   0  0  0  0  0  0  0  0  0  0  0  0
   43.8743   22.7510   37.1424 H   0  0  0  0  0  0  0  0  0  0  0  0
   45.0585   24.7938   36.3672 H   0  0  0  0  0  0  0  0  0  0  0  0
   41.3521   21.2417   35.9002 H   0  0  0  0  0  0  0  0  0  0  0  0
   41.7460   21.6540   37.5862 H   0  0  0  0  0  0  0  0  0  0  0  0
   40.2139   23.3532   38.7905 H   0  0  0  0  0  0  0  0  0  0  0  0
   37.7793   23.9646   39.0643 H   0  0  0  0  0  0  0  0  0  0  0  0
   36.9915   22.1496   35.3021 H   0  0  0  0  0  0  0  0  0  0  0  0
   40.8045   25.7069   33.3154 H   0  0  0  0  0  0  0  0  0  0  0  0
   42.5470   27.9195   34.2424 H   0  0  0  0  0  0  0  0  0  0  0  0
   42.8163   26.8068   32.8583 H   0  0  0  0  0  0  0  0  0  0  0  0
   41.4021   27.9143   32.8583 H   0  0  0  0  0  0  0  0  0  0  0  0
   39.8888   26.0730   35.7893 H   0  0  0  0  0  0  0  0  0  0  0  0
   40.5008   27.7738   35.4047 H   0  0  0  0  0  0  0  0  0  0  0  0
   39.0027   27.5437   33.3948 H   0  0  0  0  0  0  0  0  0  0  0  0
   35.6441   27.7341   34.8423 H   0  0  0  0  0  0  0  0  0  0  0  0
   36.8303   28.6667   33.8906 H   0  0  0  0  0  0  0  0  0  0  0  0
  1  2  2  0
  1  7  1  0
  3  2  1  0
  4  3  2  0
  5  4  1  0
  5  6  2  0
  6  1  1  0
  7  8  1  0
  8  9  2  0
  9 10  1  0
 11 10  2  0
 12 11  1  0
 13 12  2  0
 13  8  1  0
 14  5  1  0
 14 16  1  0
 15 14  1  0
 17 18  1  0
 17 16  1  0
 18 19  2  0
 19 21  1  0
 20 18  1  0
  2 22  1  0
  3 23  1  0
  7 24  1  0
  7 25  1  0
  9 26  1  0
 10 27  1  0
 12 28  1  0
 14 29  1  6
 15 30  1  0
 15 31  1  0
 15 32  1  0
 16 33  1  0
 16 34  1  0
 17 35  1  0
 20 36  1  0
 20 37  1  0
M  ISO  8  22  14  23  14  24   8  25   8  26  14  27  14  28  14  29   8
M  ISO  5  30   8  31   8  32   8  33   8  34   8
M  END
>  <minimizedAffinity>  (1) 
-4.8557477

>  <minimizedRMSD>  (1) 
0.868083

$$$$
