
     RDKit          3D

 51 55  0  0  1  0  0  0  0  0999 V2000
   40.7490   26.3900   34.2230 C   0  0  2  0  0  0  0  0  0  0  0  0
   41.9130   23.4100   36.0880 C   0  0  0  0  0  0  0  0  0  0  0  0
   43.2890   23.6440   36.1520 C   0  0  0  0  0  0  0  0  0  0  0  0
   43.8650   24.7830   35.5790 C   0  0  0  0  0  0  0  0  0  0  0  0
   43.0370   25.6490   34.9610 N   0  0  0  0  0  0  0  0  0  0  0  0
   41.7040   25.4370   34.8890 C   0  0  0  0  0  0  0  0  0  0  0  0
   41.1670   24.3320   35.4470 N   0  0  0  0  0  0  0  0  0  0  0  0
   41.3140   22.1950   36.7140 C   0  0  0  0  0  0  0  0  0  0  0  0
   39.8800   22.5080   36.9500 C   0  0  0  0  0  0  0  0  0  0  0  0
   39.4080   23.1280   38.0670 C   0  0  0  0  0  0  0  0  0  0  0  0
   38.0520   23.3950   38.2180 C   0  0  0  0  0  0  0  0  0  0  0  0
   37.2240   23.0200   37.2210 N   0  0  0  0  0  0  0  0  0  0  0  0
   37.7240   22.4080   36.1270 C   0  0  0  0  0  0  0  0  0  0  0  0
   39.0060   22.1700   36.0130 N   0  0  0  0  0  0  0  0  0  0  0  0
   41.4080   27.4760   33.4970 C   0  0  0  0  0  0  0  0  0  0  0  0
   39.7060   26.8150   35.2550 C   0  0  0  0  0  0  0  0  0  0  0  0
   38.5180   27.4190   34.5990 C   0  0  2  0  0  0  0  0  0  0  0  0
   37.1490   26.9090   34.9460 C   0  0  0  0  0  0  0  0  0  0  0  0
   37.6980   26.8230   33.5560 C   0  0  1  0  0  0  0  0  0  0  0  0
   37.1740   27.7510   32.5150 C   0  0  0  0  0  0  0  0  0  0  0  0
   36.0480   28.4060   32.9240 N   0  0  0  0  0  0  0  0  0  0  0  0
   35.4100   29.2490   32.0920 C   0  0  0  0  0  0  0  0  0  0  0  0
   35.8710   29.4660   30.8260 N   0  0  0  0  0  0  0  0  0  0  0  0
   36.9730   28.8450   30.3810 C   0  0  0  0  0  0  0  0  0  0  0  0
   37.5290   29.0000   29.1290 C   0  0  0  0  0  0  0  0  0  0  0  0
   38.6910   28.3100   28.7700 C   0  0  0  0  0  0  0  0  0  0  0  0
   39.3290   27.4420   29.6630 C   0  0  0  0  0  0  0  0  0  0  0  0
   38.7500   27.3090   30.9070 C   0  0  0  0  0  0  0  0  0  0  0  0
   37.6080   27.9900   31.2480 C   0  0  0  0  0  0  0  0  0  0  0  0
   40.2195   25.8806   33.4044 H   0  0  0  0  0  0  0  0  0  0  0  0
   43.9345   22.9157   36.6648 H   0  0  0  0  0  0  0  0  0  0  0  0
   44.9487   24.9644   35.6306 H   0  0  0  0  0  0  0  0  0  0  0  0
   41.4089   21.3326   36.0378 H   0  0  0  0  0  0  0  0  0  0  0  0
   41.8256   21.9368   37.6530 H   0  0  0  0  0  0  0  0  0  0  0  0
   40.1099   23.4218   38.8613 H   0  0  0  0  0  0  0  0  0  0  0  0
   37.6674   23.8948   39.1193 H   0  0  0  0  0  0  0  0  0  0  0  0
   37.0432   22.1043   35.3181 H   0  0  0  0  0  0  0  0  0  0  0  0
   41.8401   28.1881   34.2155 H   0  0  0  0  0  0  0  0  0  0  0  0
   42.2075   27.0623   32.8649 H   0  0  0  0  0  0  0  0  0  0  0  0
   40.6718   27.9941   32.8649 H   0  0  0  0  0  0  0  0  0  0  0  0
   39.3888   25.9322   35.8295 H   0  0  0  0  0  0  0  0  0  0  0  0
   40.1580   27.5669   35.9186 H   0  0  0  0  0  0  0  0  0  0  0  0
   39.0728   28.3681   34.6354 H   0  0  0  0  0  0  0  0  0  0  0  0
   37.0327   26.0000   35.5544 H   0  0  0  0  0  0  0  0  0  0  0  0
   36.2457   27.3282   35.4132 H   0  0  0  0  0  0  0  0  0  0  0  0
   37.8152   25.9973   32.8388 H   0  0  0  0  0  0  0  0  0  0  0  0
   34.5048   29.7703   32.4367 H   0  0  0  0  0  0  0  0  0  0  0  0
   37.0524   29.6752   28.4031 H   0  0  0  0  0  0  0  0  0  0  0  0
   39.1126   28.4526   27.7641 H   0  0  0  0  0  0  0  0  0  0  0  0
   40.2429   26.8954   29.3874 H   0  0  0  0  0  0  0  0  0  0  0  0
   39.2153   26.6397   31.6456 H   0  0  0  0  0  0  0  0  0  0  0  0
  1  6  1  0
  1 16  1  0
  2  3  2  0
  2  8  1  0
  4  3  1  0
  5  4  2  0
  6  5  1  0
  6  7  2  0
  7  2  1  0
  8  9  1  0
  9 10  2  0
 10 11  1  0
 12 11  2  0
 13 12  1  0
 14 13  2  0
 14  9  1  0
 15  1  1  0
 17 18  1  0
 17 16  1  0
 19 17  1  0
 19 18  1  0
 20 21  2  0
 20 19  1  0
 22 21  1  0
 23 22  2  0
 24 23  1  0
 24 29  2  0
 25 24  1  0
 26 25  2  0
 26 27  1  0
 27 28  2  0
 28 29  1  0
 29 20  1  0
  1 30  1  6
  3 31  1  0
  4 32  1  0
  8 33  1  0
  8 34  1  0
 10 35  1  0
 11 36  1  0
 13 37  1  0
 15 38  1  0
 15 39  1  0
 15 40  1  0
 16 41  1  0
 16 42  1  0
 17 43  1  6
 18 44  1  0
 18 45  1  0
 19 46  1  6
 22 47  1  0
 25 48  1  0
 26 49  1  0
 27 50  1  0
 28 51  1  0
M  ISO  8  30   8  31  14  32  14  33   8  34   8  35  14  36  14  37  14
M  ISO  8  38   8  39   8  40   8  41   8  42   8  43  13  44  13  45  13
M  ISO  6  46  13  47  14  48  14  49  14  50  14  51  14
M  END
>  <minimizedAffinity>  (1) 
-6.56037283

>  <minimizedRMSD>  (1) 
3.42591476

$$$$
