
     RDKit          3D

 44 47  0  0  1  0  0  0  0  0999 V2000
   36.1540   29.4710   32.4430 C   0  0  0  0  0  0  0  0  0  0  0  0
   36.8600   28.4890   31.7920 C   0  0  0  0  0  0  0  0  0  0  0  0
   37.2240   27.3560   32.5180 C   0  0  0  0  0  0  0  0  0  0  0  0
   36.8790   27.2380   33.8550 C   0  0  0  0  0  0  0  0  0  0  0  0
   36.1770   28.2170   34.4950 C   0  0  0  0  0  0  0  0  0  0  0  0
   35.8080   29.3410   33.7970 C   0  0  0  0  0  0  0  0  0  0  0  0
   37.3590   25.9670   34.4380 C   0  0  0  0  0  0  0  0  0  0  0  0
   38.7690   26.0130   34.9070 C   0  0  2  0  0  0  0  0  0  0  0  0
   40.7330   23.1740   36.1250 C   0  0  0  0  0  0  0  0  0  0  0  0
   39.9360   22.6480   37.1860 C   0  0  0  0  0  0  0  0  0  0  0  0
   38.7120   23.2920   37.4720 C   0  0  0  0  0  0  0  0  0  0  0  0
   38.3780   24.3790   36.7040 N   0  0  0  0  0  0  0  0  0  0  0  0
   39.1680   24.8390   35.7080 C   0  0  0  0  0  0  0  0  0  0  0  0
   40.3370   24.2480   35.4140 N   0  0  0  0  0  0  0  0  0  0  0  0
   38.9420   27.2600   35.7880 C   0  0  0  0  0  0  0  0  0  0  0  0
   35.6870   30.9050   31.5440 S   0  0  0  0  0  0  0  0  0  0  0  0
   36.2550   30.7580   30.1430 O   0  0  0  0  0  0  0  0  0  0  0  0
   36.2680   32.1380   32.1590 O   0  0  0  0  0  0  0  0  0  0  0  0
   33.9530   31.0460   31.4750 C   0  0  0  0  0  0  0  0  0  0  0  0
   32.9400   30.4970   32.1620 N   0  0  0  0  0  0  0  0  0  0  0  0
   31.8040   30.9380   31.7150 O   0  0  0  0  0  0  0  0  0  0  0  0
   32.0240   31.7860   30.7240 C   0  0  0  0  0  0  0  0  0  0  0  0
   33.3330   31.8460   30.5840 N   0  0  0  0  0  0  0  0  0  0  0  0
   30.8910   32.3780   30.1010 N   0  0  0  0  0  0  0  0  0  0  0  0
   30.8730   33.7030   30.0020 N   0  0  0  0  0  0  0  0  0  0  0  0
   29.7340   34.1200   29.3890 C   0  0  0  0  0  0  0  0  0  0  0  0
   29.0130   32.9950   29.0940 C   0  0  0  0  0  0  0  0  0  0  0  0
   29.7600   31.9330   29.5510 C   0  0  0  0  0  0  0  0  0  0  0  0
   37.1298   28.5934   30.7307 H   0  0  0  0  0  0  0  0  0  0  0  0
   37.7888   26.5502   32.0264 H   0  0  0  0  0  0  0  0  0  0  0  0
   35.9099   28.1077   35.5565 H   0  0  0  0  0  0  0  0  0  0  0  0
   35.2414   30.1391   34.2991 H   0  0  0  0  0  0  0  0  0  0  0  0
   36.7171   25.7150   35.2950 H   0  0  0  0  0  0  0  0  0  0  0  0
   37.3131   25.2122   33.6391 H   0  0  0  0  0  0  0  0  0  0  0  0
   39.4036   26.0295   34.0087 H   0  0  0  0  0  0  0  0  0  0  0  0
   41.6916   22.6920   35.8824 H   0  0  0  0  0  0  0  0  0  0  0  0
   40.2643   21.7701   37.7618 H   0  0  0  0  0  0  0  0  0  0  0  0
   38.0530   22.9366   38.2779 H   0  0  0  0  0  0  0  0  0  0  0  0
   38.9016   26.9686   36.8479 H   0  0  0  0  0  0  0  0  0  0  0  0
   39.9138   27.7286   35.5734 H   0  0  0  0  0  0  0  0  0  0  0  0
   38.1345   27.9755   35.5734 H   0  0  0  0  0  0  0  0  0  0  0  0
   29.4474   35.1596   29.1722 H   0  0  0  0  0  0  0  0  0  0  0  0
   28.0347   32.9487   28.5932 H   0  0  0  0  0  0  0  0  0  0  0  0
   29.4680   30.8753   29.4742 H   0  0  0  0  0  0  0  0  0  0  0  0
  1  6  1  0
  2  1  2  0
  2  3  1  0
  3  4  2  0
  4  7  1  0
  4  5  1  0
  6  5  2  0
  7  8  1  0
  8 13  1  0
  8 15  1  0
  9 10  2  0
 10 11  1  0
 12 11  2  0
 13 12  1  0
 14 13  2  0
 14  9  1  0
 16 18  2  0
 16  1  1  0
 17 16  2  0
 19 16  1  0
 19 20  2  0
 21 20  1  0
 22 21  1  0
 23 22  2  0
 23 19  1  0
 24 22  1  0
 25 24  1  0
 26 25  2  0
 27 26  1  0
 27 28  2  0
 28 24  1  0
  2 29  1  0
  3 30  1  0
  5 31  1  0
  6 32  1  0
  7 33  1  0
  7 34  1  0
  8 35  1  6
  9 36  1  0
 10 37  1  0
 11 38  1  0
 15 39  1  0
 15 40  1  0
 15 41  1  0
 26 42  1  0
 27 43  1  0
 28 44  1  0
M  ISO  8  29  14  30  14  31  14  32  14  33   8  34   8  35   8  36  14
M  ISO  8  37  14  38  14  39   8  40   8  41   8  42  14  43  14  44  14
M  END
>  <minimizedAffinity>  (1) 
-5.42865086

>  <minimizedRMSD>  (1) 
0.672577381

$$$$
