
     RDKit          3D

 47 50  0  0  1  0  0  0  0  0999 V2000
   41.2660   26.1740   34.2210 C   0  0  2  0  0  0  0  0  0  0  0  0
   42.0220   23.1880   36.2790 C   0  0  0  0  0  0  0  0  0  0  0  0
   43.3680   23.4020   36.5870 C   0  0  0  0  0  0  0  0  0  0  0  0
   44.0540   24.5200   36.1250 C   0  0  0  0  0  0  0  0  0  0  0  0
   43.3700   25.3980   35.3620 N   0  0  0  0  0  0  0  0  0  0  0  0
   42.0660   25.2090   35.0520 C   0  0  0  0  0  0  0  0  0  0  0  0
   41.4180   24.1200   35.5090 N   0  0  0  0  0  0  0  0  0  0  0  0
   41.2930   21.9890   36.7910 C   0  0  0  0  0  0  0  0  0  0  0  0
   39.8770   22.4040   36.9780 C   0  0  0  0  0  0  0  0  0  0  0  0
   39.4190   23.0730   38.0740 C   0  0  0  0  0  0  0  0  0  0  0  0
   38.0820   23.4370   38.1880 C   0  0  0  0  0  0  0  0  0  0  0  0
   37.2680   23.1060   37.1790 N   0  0  0  0  0  0  0  0  0  0  0  0
   37.7400   22.4430   36.1020 C   0  0  0  0  0  0  0  0  0  0  0  0
   39.0060   22.1120   36.0240 N   0  0  0  0  0  0  0  0  0  0  0  0
   42.0580   27.2700   33.6620 C   0  0  0  0  0  0  0  0  0  0  0  0
   40.0330   26.5810   35.0260 C   0  0  0  0  0  0  0  0  0  0  0  0
   39.0500   27.2870   34.1880 C   0  0  2  0  0  0  0  0  0  0  0  0
   37.5940   27.2720   34.5400 C   0  0  0  0  0  0  0  0  0  0  0  0
   38.0830   26.6710   33.2780 C   0  0  1  0  0  0  0  0  0  0  0  0
   37.8770   27.3380   32.0080 N   0  0  0  0  0  0  0  0  0  0  0  0
   37.0960   28.4230   31.8380 C   0  0  0  0  0  0  0  0  0  0  0  0
   36.9210   29.0360   30.6140 C   0  0  0  0  0  0  0  0  0  0  0  0
   37.5760   28.5180   29.4920 C   0  0  0  0  0  0  0  0  0  0  0  0
   37.4330   29.0580   28.3650 O   0  0  0  0  0  0  0  0  0  0  0  0
   38.3390   27.4470   29.6950 N   0  0  0  0  0  0  0  0  0  0  0  0
   38.5020   26.8530   30.9100 C   0  0  0  0  0  0  0  0  0  0  0  0
   39.2630   25.8350   30.9500 O   0  0  0  0  0  0  0  0  0  0  0  0
   40.9153   25.6815   33.3021 H   0  0  0  0  0  0  0  0  0  0  0  0
   43.8985   22.6675   37.2108 H   0  0  0  0  0  0  0  0  0  0  0  0
   45.1135   24.6824   36.3721 H   0  0  0  0  0  0  0  0  0  0  0  0
   41.3551   21.1668   36.0629 H   0  0  0  0  0  0  0  0  0  0  0  0
   41.7304   21.6302   37.7344 H   0  0  0  0  0  0  0  0  0  0  0  0
   40.1196   23.3293   38.8824 H   0  0  0  0  0  0  0  0  0  0  0  0
   37.7086   23.9752   39.0717 H   0  0  0  0  0  0  0  0  0  0  0  0
   37.0560   22.1781   35.2823 H   0  0  0  0  0  0  0  0  0  0  0  0
   42.4885   27.8658   34.4803 H   0  0  0  0  0  0  0  0  0  0  0  0
   42.8684   26.8580   33.0427 H   0  0  0  0  0  0  0  0  0  0  0  0
   41.4125   27.9101   33.0427 H   0  0  0  0  0  0  0  0  0  0  0  0
   39.5640   25.6774   35.4427 H   0  0  0  0  0  0  0  0  0  0  0  0
   40.3541   27.2614   35.8285 H   0  0  0  0  0  0  0  0  0  0  0  0
   39.8426   28.0349   34.0380 H   0  0  0  0  0  0  0  0  0  0  0  0
   37.2283   26.6286   35.3538 H   0  0  0  0  0  0  0  0  0  0  0  0
   36.8440   28.0305   34.8087 H   0  0  0  0  0  0  0  0  0  0  0  0
   37.9383   25.6820   32.8188 H   0  0  0  0  0  0  0  0  0  0  0  0
   36.5751   28.8383   32.7133 H   0  0  0  0  0  0  0  0  0  0  0  0
   36.2743   29.9211   30.5219 H   0  0  0  0  0  0  0  0  0  0  0  0
   38.8348   27.0440   28.8871 H   0  0  0  0  0  0  0  0  0  0  0  0
  1 16  1  0
  1  6  1  0
  2  3  2  0
  2  8  1  0
  4  3  1  0
  5  4  2  0
  6  5  1  0
  6  7  2  0
  7  2  1  0
  8  9  1  0
  9 10  2  0
 10 11  1  0
 12 11  2  0
 13 12  1  0
 14 13  2  0
 14  9  1  0
 15  1  1  0
 17 18  1  0
 17 16  1  0
 19 17  1  0
 19 18  1  0
 20 19  1  0
 21 20  1  0
 22 21  2  0
 23 25  1  0
 23 22  1  0
 24 23  2  0
 25 26  1  0
 26 27  2  0
 26 20  1  0
  1 28  1  6
  3 29  1  0
  4 30  1  0
  8 31  1  0
  8 32  1  0
 10 33  1  0
 11 34  1  0
 13 35  1  0
 15 36  1  0
 15 37  1  0
 15 38  1  0
 16 39  1  0
 16 40  1  0
 17 41  1  6
 18 42  1  0
 18 43  1  0
 19 44  1  6
 21 45  1  0
 22 46  1  0
 25 47  1  0
M  ISO  8  28   8  29  14  30  14  31   8  32   8  33  14  34  14  35  14
M  ISO  8  36   8  37   8  38   8  39   8  40   8  41  13  42  13  43  13
M  ISO  4  44  13  45  14  46  14  47   9
M  END
>  <minimizedAffinity>  (1) 
-6.02839088

>  <minimizedRMSD>  (1) 
2.97864842

$$$$
