
     RDKit          3D

 34 36  0  0  1  0  0  0  0  0999 V2000
   42.4660   23.5380   36.2770 N   0  0  0  0  0  0  0  0  0  0  0  0
   42.4520   24.2350   35.0270 C   0  0  0  0  0  0  0  0  0  0  0  0
   43.3420   25.4170   35.2690 C   0  0  0  0  0  0  0  0  0  0  0  0
   44.1820   25.0600   36.4800 C   0  0  0  0  0  0  0  0  0  0  0  0
   43.8500   23.6080   36.6880 C   0  0  2  0  0  0  0  0  0  0  0  0
   44.7650   22.7290   35.9280 C   0  0  0  0  0  0  0  0  0  0  0  0
   46.0410   23.3380   35.3660 C   0  0  0  0  0  0  0  0  0  0  0  0
   46.7960   21.8720   34.5370 S   0  0  0  0  0  0  0  0  0  0  0  0
   45.4210   20.7750   35.0210 C   0  0  0  0  0  0  0  0  0  0  0  0
   44.5820   21.4460   35.6820 N   0  0  0  0  0  0  0  0  0  0  0  0
   41.9010   22.2300   36.2620 C   0  0  0  0  0  0  0  0  0  0  0  0
   41.1190   21.8940   37.4910 C   0  0  0  0  0  0  0  0  0  0  0  0
   37.8790   23.2020   36.1040 C   0  0  0  0  0  0  0  0  0  0  0  0
   39.1140   22.5690   36.2560 C   0  0  0  0  0  0  0  0  0  0  0  0
   39.8220   22.5840   37.4300 C   0  0  0  0  0  0  0  0  0  0  0  0
   39.2410   23.2580   38.4460 N   0  0  0  0  0  0  0  0  0  0  0  0
   38.0630   23.8680   38.3240 C   0  0  0  0  0  0  0  0  0  0  0  0
   37.3850   23.8530   37.1950 N   0  0  0  0  0  0  0  0  0  0  0  0
   41.4325   24.5579   34.7694 H   0  0  0  0  0  0  0  0  0  0  0  0
   42.7913   23.6109   34.1872 H   0  0  0  0  0  0  0  0  0  0  0  0
   43.9860   25.5969   34.3956 H   0  0  0  0  0  0  0  0  0  0  0  0
   42.7596   26.3350   35.4364 H   0  0  0  0  0  0  0  0  0  0  0  0
   45.2540   25.1975   36.2751 H   0  0  0  0  0  0  0  0  0  0  0  0
   43.9746   25.6881   37.3589 H   0  0  0  0  0  0  0  0  0  0  0  0
   43.9802   23.2521   37.7207 H   0  0  0  0  0  0  0  0  0  0  0  0
   46.4125   24.3711   35.4350 H   0  0  0  0  0  0  0  0  0  0  0  0
   45.3375   19.7057   34.7769 H   0  0  0  0  0  0  0  0  0  0  0  0
   41.2310   22.1520   35.3931 H   0  0  0  0  0  0  0  0  0  0  0  0
   42.7400   21.5202   36.2133 H   0  0  0  0  0  0  0  0  0  0  0  0
   40.9576   20.8070   37.5410 H   0  0  0  0  0  0  0  0  0  0  0  0
   41.6721   22.2157   38.3858 H   0  0  0  0  0  0  0  0  0  0  0  0
   37.3313   23.1767   35.1504 H   0  0  0  0  0  0  0  0  0  0  0  0
   39.5387   22.0335   35.3941 H   0  0  0  0  0  0  0  0  0  0  0  0
   37.6445   24.3996   39.1913 H   0  0  0  0  0  0  0  0  0  0  0  0
  1  5  1  0
  2  3  1  0
  2  1  1  0
  3  4  1  0
  4  5  1  0
  6  5  1  0
  7  6  2  0
  8  9  1  0
  8  7  1  0
  9 10  2  0
 10  6  1  0
 11  1  1  0
 11 12  1  0
 13 14  2  0
 13 18  1  0
 14 15  1  0
 15 12  1  0
 15 16  2  0
 17 16  1  0
 18 17  2  0
  2 19  1  0
  2 20  1  0
  3 21  1  0
  3 22  1  0
  4 23  1  0
  4 24  1  0
  5 25  1  1
  7 26  1  0
  9 27  1  0
 11 28  1  0
 11 29  1  0
 12 30  1  0
 12 31  1  0
 13 32  1  0
 14 33  1  0
 17 34  1  0
M  ISO  8  19  13  20  13  21  13  22  13  23  13  24  13  25  13  26  14
M  ISO  8  27  14  28   8  29   8  30   8  31   8  32  14  33  14  34  14
M  END
>  <minimizedAffinity>  (1) 
-3.88002324

>  <minimizedRMSD>  (1) 
0.651527405

$$$$
