
     RDKit          3D

 50 54  0  0  1  0  0  0  0  0999 V2000
   41.0290   26.2090   34.1700 C   0  0  2  0  0  0  0  0  0  0  0  0
   41.9670   23.2850   36.2370 C   0  0  0  0  0  0  0  0  0  0  0  0
   43.3260   23.5220   36.4550 C   0  0  0  0  0  0  0  0  0  0  0  0
   43.9660   24.6480   35.9210 C   0  0  0  0  0  0  0  0  0  0  0  0
   43.2170   25.4960   35.1860 N   0  0  0  0  0  0  0  0  0  0  0  0
   41.8990   25.2790   34.9660 C   0  0  0  0  0  0  0  0  0  0  0  0
   41.2970   24.1880   35.4880 N   0  0  0  0  0  0  0  0  0  0  0  0
   41.2960   22.0860   36.8230 C   0  0  0  0  0  0  0  0  0  0  0  0
   39.8660   22.4550   37.0080 C   0  0  0  0  0  0  0  0  0  0  0  0
   39.3820   23.1090   38.1020 C   0  0  0  0  0  0  0  0  0  0  0  0
   38.0350   23.4270   38.2080 C   0  0  0  0  0  0  0  0  0  0  0  0
   37.2350   23.0680   37.2000 N   0  0  0  0  0  0  0  0  0  0  0  0
   37.7310   22.4210   36.1240 C   0  0  0  0  0  0  0  0  0  0  0  0
   39.0070   22.1340   36.0510 N   0  0  0  0  0  0  0  0  0  0  0  0
   41.7540   27.3400   33.5860 C   0  0  0  0  0  0  0  0  0  0  0  0
   39.8200   26.5790   35.0260 C   0  0  0  0  0  0  0  0  0  0  0  0
   38.8510   27.3920   34.2720 C   0  0  2  0  0  0  0  0  0  0  0  0
   37.4100   27.4370   34.6820 C   0  0  0  0  0  0  0  0  0  0  0  0
   37.8160   26.9010   33.3580 C   0  0  1  0  0  0  0  0  0  0  0  0
   37.6300   27.6260   32.1390 N   0  0  0  0  0  0  0  0  0  0  0  0
   36.7140   28.6000   31.9300 C   0  0  0  0  0  0  0  0  0  0  0  0
   36.7750   29.1070   30.6690 N   0  0  0  0  0  0  0  0  0  0  0  0
   37.7670   28.4220   30.0680 C   0  0  0  0  0  0  0  0  0  0  0  0
   38.2690   28.5170   28.7810 C   0  0  0  0  0  0  0  0  0  0  0  0
   39.2820   27.6940   28.4420 N   0  0  0  0  0  0  0  0  0  0  0  0
   39.7790   26.8170   29.3360 C   0  0  0  0  0  0  0  0  0  0  0  0
   39.2930   26.7150   30.6030 N   0  0  0  0  0  0  0  0  0  0  0  0
   38.2850   27.5190   30.9700 C   0  0  0  0  0  0  0  0  0  0  0  0
   37.7050   29.4620   27.8800 N   0  0  0  0  0  0  0  0  0  0  0  0
   40.6616   25.6949   33.2696 H   0  0  0  0  0  0  0  0  0  0  0  0
   43.9064   22.8091   37.0591 H   0  0  0  0  0  0  0  0  0  0  0  0
   45.0364   24.8333   36.0940 H   0  0  0  0  0  0  0  0  0  0  0  0
   41.3826   21.2289   36.1389 H   0  0  0  0  0  0  0  0  0  0  0  0
   41.7600   21.7950   37.7769 H   0  0  0  0  0  0  0  0  0  0  0  0
   40.0698   23.3891   38.9135 H   0  0  0  0  0  0  0  0  0  0  0  0
   37.6410   23.9548   39.0890 H   0  0  0  0  0  0  0  0  0  0  0  0
   37.0587   22.1327   35.3025 H   0  0  0  0  0  0  0  0  0  0  0  0
   42.1586   27.9712   34.3909 H   0  0  0  0  0  0  0  0  0  0  0  0
   42.5800   26.9644   32.9643 H   0  0  0  0  0  0  0  0  0  0  0  0
   41.0678   27.9338   32.9643 H   0  0  0  0  0  0  0  0  0  0  0  0
   39.3257   25.6562   35.3636 H   0  0  0  0  0  0  0  0  0  0  0  0
   40.1732   27.1713   35.8830 H   0  0  0  0  0  0  0  0  0  0  0  0
   39.6834   28.0986   34.1385 H   0  0  0  0  0  0  0  0  0  0  0  0
   37.0354   26.7583   35.4624 H   0  0  0  0  0  0  0  0  0  0  0  0
   36.7185   28.2165   35.0344 H   0  0  0  0  0  0  0  0  0  0  0  0
   37.5792   25.9603   32.8394 H   0  0  0  0  0  0  0  0  0  0  0  0
   36.0005   28.9431   32.6937 H   0  0  0  0  0  0  0  0  0  0  0  0
   40.6069   26.1602   29.0309 H   0  0  0  0  0  0  0  0  0  0  0  0
   38.0710   29.5407   26.9205 H   0  0  0  0  0  0  0  0  0  0  0  0
   36.9305   30.0676   28.1870 H   0  0  0  0  0  0  0  0  0  0  0  0
  1  6  1  0
  1 16  1  0
  2  3  2  0
  2  8  1  0
  4  3  1  0
  5  4  2  0
  6  5  1  0
  6  7  2  0
  7  2  1  0
  8  9  1  0
  9 10  2  0
 10 11  1  0
 12 11  2  0
 13 12  1  0
 14 13  2  0
 14  9  1  0
 15  1  1  0
 17 18  1  0
 17 16  1  0
 19 17  1  0
 19 18  1  0
 20 19  1  0
 21 20  1  0
 22 21  2  0
 23 22  1  0
 23 28  2  0
 24 23  1  0
 25 24  2  0
 25 26  1  0
 26 27  2  0
 27 28  1  0
 28 20  1  0
 29 24  1  0
  1 30  1  6
  3 31  1  0
  4 32  1  0
  8 33  1  0
  8 34  1  0
 10 35  1  0
 11 36  1  0
 13 37  1  0
 15 38  1  0
 15 39  1  0
 15 40  1  0
 16 41  1  0
 16 42  1  0
 17 43  1  6
 18 44  1  0
 18 45  1  0
 19 46  1  6
 21 47  1  0
 26 48  1  0
 29 49  1  0
 29 50  1  0
M  ISO  8  30   8  31  14  32  14  33   8  34   8  35  14  36  14  37  14
M  ISO  8  38   8  39   8  40   8  41   8  42   8  43  13  44  13  45  13
M  ISO  3  46  13  47  14  48  14
M  END
>  <minimizedAffinity>  (1) 
-6.18776751

>  <minimizedRMSD>  (1) 
3.7419672

$$$$
