
     RDKit          3D

 53 56  0  0  1  0  0  0  0  0999 V2000
   41.1270   26.3060   34.0470 C   0  0  2  0  0  0  0  0  0  0  0  0
   41.9500   23.3190   36.0810 C   0  0  0  0  0  0  0  0  0  0  0  0
   43.2630   23.6030   36.4700 C   0  0  0  0  0  0  0  0  0  0  0  0
   43.9070   24.7760   36.0690 C   0  0  0  0  0  0  0  0  0  0  0  0
   43.2130   25.6320   35.2870 N   0  0  0  0  0  0  0  0  0  0  0  0
   41.9410   25.3700   34.9010 C   0  0  0  0  0  0  0  0  0  0  0  0
   41.3390   24.2340   35.3000 N   0  0  0  0  0  0  0  0  0  0  0  0
   41.2740   22.0670   36.5260 C   0  0  0  0  0  0  0  0  0  0  0  0
   39.8630   22.4310   36.8230 C   0  0  0  0  0  0  0  0  0  0  0  0
   39.4810   23.0740   37.9620 C   0  0  0  0  0  0  0  0  0  0  0  0
   38.1470   23.4000   38.1940 C   0  0  0  0  0  0  0  0  0  0  0  0
   37.2520   23.0540   37.2460 N   0  0  0  0  0  0  0  0  0  0  0  0
   37.6660   22.4170   36.1310 C   0  0  0  0  0  0  0  0  0  0  0  0
   38.9270   22.1210   35.9370 N   0  0  0  0  0  0  0  0  0  0  0  0
   41.9250   27.1310   33.1430 C   0  0  0  0  0  0  0  0  0  0  0  0
   40.1630   27.0560   34.9630 C   0  0  0  0  0  0  0  0  0  0  0  0
   38.7530   26.8280   34.5810 C   0  0  2  0  0  0  0  0  0  0  0  0
   37.8640   26.0230   35.4800 C   0  0  0  0  0  0  0  0  0  0  0  0
   38.1540   25.6080   34.0670 C   0  0  1  0  0  0  0  0  0  0  0  0
   36.9660   25.6830   33.1250 C   0  0  0  0  0  0  0  0  0  0  0  0
   37.0780   26.8150   32.1200 C   0  0  0  0  0  0  0  0  0  0  0  0
   35.7540   26.8700   31.3860 C   0  0  0  0  0  0  0  0  0  0  0  0
   35.3500   25.6130   30.7160 C   0  0  0  0  0  0  0  0  0  0  0  0
   35.6480   24.3640   31.5060 C   0  0  0  0  0  0  0  0  0  0  0  0
   36.9470   24.4270   32.2300 C   0  0  0  0  0  0  0  0  0  0  0  0
   40.5270   25.7335   33.3244 H   0  0  0  0  0  0  0  0  0  0  0  0
   43.8014   22.8857   37.1068 H   0  0  0  0  0  0  0  0  0  0  0  0
   44.9398   24.9945   36.3781 H   0  0  0  0  0  0  0  0  0  0  0  0
   41.3114   21.3108   35.7280 H   0  0  0  0  0  0  0  0  0  0  0  0
   41.7693   21.6407   37.4108 H   0  0  0  0  0  0  0  0  0  0  0  0
   40.2402   23.3405   38.7120 H   0  0  0  0  0  0  0  0  0  0  0  0
   37.8359   23.9185   39.1129 H   0  0  0  0  0  0  0  0  0  0  0  0
   36.9261   22.1394   35.3659 H   0  0  0  0  0  0  0  0  0  0  0  0
   42.5714   27.7993   33.7309 H   0  0  0  0  0  0  0  0  0  0  0  0
   42.5478   26.4830   32.5088 H   0  0  0  0  0  0  0  0  0  0  0  0
   41.2566   27.7319   32.5088 H   0  0  0  0  0  0  0  0  0  0  0  0
   40.3122   26.7103   35.9965 H   0  0  0  0  0  0  0  0  0  0  0  0
   40.3722   28.1321   34.8719 H   0  0  0  0  0  0  0  0  0  0  0  0
   38.7960   27.8441   34.1617 H   0  0  0  0  0  0  0  0  0  0  0  0
   38.2901   25.4595   36.3232 H   0  0  0  0  0  0  0  0  0  0  0  0
   36.9603   26.2168   36.0765 H   0  0  0  0  0  0  0  0  0  0  0  0
   38.5787   24.7298   33.5587 H   0  0  0  0  0  0  0  0  0  0  0  0
   36.0859   25.8060   33.7733 H   0  0  0  0  0  0  0  0  0  0  0  0
   37.2649   27.7668   32.6388 H   0  0  0  0  0  0  0  0  0  0  0  0
   37.9127   26.6478   31.4234 H   0  0  0  0  0  0  0  0  0  0  0  0
   34.9725   27.1337   32.1138 H   0  0  0  0  0  0  0  0  0  0  0  0
   35.8800   27.6145   30.5861 H   0  0  0  0  0  0  0  0  0  0  0  0
   34.2662   25.6538   30.5323 H   0  0  0  0  0  0  0  0  0  0  0  0
   35.9392   25.5471   29.7894 H   0  0  0  0  0  0  0  0  0  0  0  0
   34.8440   24.2150   32.2418 H   0  0  0  0  0  0  0  0  0  0  0  0
   35.7113   23.5308   30.7907 H   0  0  0  0  0  0  0  0  0  0  0  0
   37.0650   23.5286   32.8536 H   0  0  0  0  0  0  0  0  0  0  0  0
   37.7730   24.4761   31.5052 H   0  0  0  0  0  0  0  0  0  0  0  0
  1  6  1  0
  1 16  1  0
  2  3  2  0
  2  8  1  0
  4  3  1  0
  5  4  2  0
  6  5  1  0
  6  7  2  0
  7  2  1  0
  8  9  1  0
  9 10  2  0
 10 11  1  0
 12 11  2  0
 13 12  1  0
 14 13  2  0
 14  9  1  0
 15  1  1  0
 17 16  1  0
 17 18  1  0
 19 17  1  0
 19 18  1  0
 20 19  1  0
 21 20  1  0
 22 21  1  0
 23 22  1  0
 23 24  1  0
 24 25  1  0
 25 20  1  0
  1 26  1  6
  3 27  1  0
  4 28  1  0
  8 29  1  0
  8 30  1  0
 10 31  1  0
 11 32  1  0
 13 33  1  0
 15 34  1  0
 15 35  1  0
 15 36  1  0
 16 37  1  0
 16 38  1  0
 17 39  1  6
 18 40  1  0
 18 41  1  0
 19 42  1  1
 20 43  1  0
 21 44  1  0
 21 45  1  0
 22 46  1  0
 22 47  1  0
 23 48  1  0
 23 49  1  0
 24 50  1  0
 24 51  1  0
 25 52  1  0
 25 53  1  0
M  ISO  8  26   8  27  14  28  14  29   8  30   8  31  14  32  14  33  14
M  ISO  8  34   8  35   8  36   8  37   8  38   8  39  13  40  13  41  13
M  ISO  8  42  13  43  13  44  13  45  13  46  13  47  13  48  13  49  13
M  ISO  4  50  13  51  13  52  13  53  13
M  END
>  <minimizedAffinity>  (1) 
-5.84428501

>  <minimizedRMSD>  (1) 
0.953813016

$$$$
