
     RDKit          3D

 47 50  0  0  1  0  0  0  0  0999 V2000
   41.0840   26.3520   34.0830 C   0  0  2  0  0  0  0  0  0  0  0  0
   41.9310   23.3390   36.0690 C   0  0  0  0  0  0  0  0  0  0  0  0
   43.2530   23.6220   36.4390 C   0  0  0  0  0  0  0  0  0  0  0  0
   43.8930   24.8040   36.0400 C   0  0  0  0  0  0  0  0  0  0  0  0
   43.1800   25.6610   35.2810 N   0  0  0  0  0  0  0  0  0  0  0  0
   41.9090   25.4100   34.9140 C   0  0  0  0  0  0  0  0  0  0  0  0
   41.3130   24.2650   35.3100 N   0  0  0  0  0  0  0  0  0  0  0  0
   41.2680   22.0870   36.5110 C   0  0  0  0  0  0  0  0  0  0  0  0
   39.8620   22.4500   36.8280 C   0  0  0  0  0  0  0  0  0  0  0  0
   39.4800   23.1140   37.9560 C   0  0  0  0  0  0  0  0  0  0  0  0
   38.1430   23.4230   38.1830 C   0  0  0  0  0  0  0  0  0  0  0  0
   37.2540   23.0440   37.2550 N   0  0  0  0  0  0  0  0  0  0  0  0
   37.6560   22.3890   36.1480 C   0  0  0  0  0  0  0  0  0  0  0  0
   38.9210   22.1110   35.9600 N   0  0  0  0  0  0  0  0  0  0  0  0
   41.8740   27.2770   33.2720 C   0  0  0  0  0  0  0  0  0  0  0  0
   40.0320   26.9910   34.9890 C   0  0  0  0  0  0  0  0  0  0  0  0
   38.6700   26.6980   34.4770 C   0  0  2  0  0  0  0  0  0  0  0  0
   37.6550   26.0960   35.4350 C   0  0  0  0  0  0  0  0  0  0  0  0
   38.1020   25.3640   34.2100 C   0  0  1  0  0  0  0  0  0  0  0  0
   37.1950   25.3790   33.0030 C   0  0  0  0  0  0  0  0  0  0  0  0
   36.7830   26.6950   32.7440 C   0  0  0  0  0  0  0  0  0  0  0  0
   35.9560   27.0110   31.6870 C   0  0  0  0  0  0  0  0  0  0  0  0
   35.5230   25.9970   30.8620 C   0  0  0  0  0  0  0  0  0  0  0  0
   35.9270   24.7060   31.1170 C   0  0  0  0  0  0  0  0  0  0  0  0
   36.7460   24.3820   32.1610 C   0  0  0  0  0  0  0  0  0  0  0  0
   40.5529   25.7905   33.3003 H   0  0  0  0  0  0  0  0  0  0  0  0
   43.8026   22.8980   37.0585 H   0  0  0  0  0  0  0  0  0  0  0  0
   44.9305   25.0226   36.3330 H   0  0  0  0  0  0  0  0  0  0  0  0
   41.2958   21.3368   35.7070 H   0  0  0  0  0  0  0  0  0  0  0  0
   41.7757   21.6522   37.3846 H   0  0  0  0  0  0  0  0  0  0  0  0
   40.2388   23.4090   38.6958 H   0  0  0  0  0  0  0  0  0  0  0  0
   37.8273   23.9585   39.0905 H   0  0  0  0  0  0  0  0  0  0  0  0
   36.9138   22.0851   35.3952 H   0  0  0  0  0  0  0  0  0  0  0  0
   42.4457   27.9464   33.9315 H   0  0  0  0  0  0  0  0  0  0  0  0
   42.5683   26.7070   32.6372 H   0  0  0  0  0  0  0  0  0  0  0  0
   41.2024   27.8735   32.6372 H   0  0  0  0  0  0  0  0  0  0  0  0
   40.1332   26.5848   36.0062 H   0  0  0  0  0  0  0  0  0  0  0  0
   40.1839   28.0804   35.0034 H   0  0  0  0  0  0  0  0  0  0  0  0
   38.7790   27.5865   33.8376 H   0  0  0  0  0  0  0  0  0  0  0  0
   37.9696   25.7524   36.4315 H   0  0  0  0  0  0  0  0  0  0  0  0
   36.6877   26.4094   35.8547 H   0  0  0  0  0  0  0  0  0  0  0  0
   38.4770   24.3403   34.0636 H   0  0  0  0  0  0  0  0  0  0  0  0
   37.1313   27.5013   33.4062 H   0  0  0  0  0  0  0  0  0  0  0  0
   35.6484   28.0516   31.5065 H   0  0  0  0  0  0  0  0  0  0  0  0
   34.8626   26.2159   30.0100 H   0  0  0  0  0  0  0  0  0  0  0  0
   35.5759   23.9025   30.4529 H   0  0  0  0  0  0  0  0  0  0  0  0
   37.0447   23.3368   32.3290 H   0  0  0  0  0  0  0  0  0  0  0  0
  1  6  1  0
  1 16  1  0
  2  3  2  0
  2  8  1  0
  4  3  1  0
  5  4  2  0
  6  5  1  0
  6  7  2  0
  7  2  1  0
  8  9  1  0
  9 10  2  0
 10 11  1  0
 12 11  2  0
 13 12  1  0
 14 13  2  0
 14  9  1  0
 15  1  1  0
 17 16  1  0
 17 18  1  0
 19 17  1  0
 19 18  1  0
 20 19  1  0
 21 20  2  0
 22 21  1  0
 23 24  1  0
 23 22  2  0
 24 25  2  0
 25 20  1  0
  1 26  1  6
  3 27  1  0
  4 28  1  0
  8 29  1  0
  8 30  1  0
 10 31  1  0
 11 32  1  0
 13 33  1  0
 15 34  1  0
 15 35  1  0
 15 36  1  0
 16 37  1  0
 16 38  1  0
 17 39  1  6
 18 40  1  0
 18 41  1  0
 19 42  1  1
 21 43  1  0
 22 44  1  0
 23 45  1  0
 24 46  1  0
 25 47  1  0
M  ISO  8  26   8  27  14  28  14  29   8  30   8  31  14  32  14  33  14
M  ISO  8  34   8  35   8  36   8  37   8  38   8  39  13  40  13  41  13
M  ISO  6  42  13  43  14  44  14  45  14  46  14  47  14
M  END
>  <minimizedAffinity>  (1) 
-5.92159224

>  <minimizedRMSD>  (1) 
0.891284645

$$$$
