
     RDKit          3D

 44 47  0  0  1  0  0  0  0  0999 V2000
   41.1090   26.3110   34.1590 C   0  0  2  0  0  0  0  0  0  0  0  0
   41.9810   23.3020   36.1330 C   0  0  0  0  0  0  0  0  0  0  0  0
   43.3310   23.5420   36.4190 C   0  0  0  0  0  0  0  0  0  0  0  0
   43.9800   24.6900   35.9660 C   0  0  0  0  0  0  0  0  0  0  0  0
   43.2570   25.5660   35.2380 N   0  0  0  0  0  0  0  0  0  0  0  0
   41.9520   25.3510   34.9510 C   0  0  0  0  0  0  0  0  0  0  0  0
   41.3470   24.2350   35.4000 N   0  0  0  0  0  0  0  0  0  0  0  0
   41.2980   22.0730   36.6340 C   0  0  0  0  0  0  0  0  0  0  0  0
   39.8840   22.4540   36.8850 C   0  0  0  0  0  0  0  0  0  0  0  0
   39.4590   23.0930   38.0120 C   0  0  0  0  0  0  0  0  0  0  0  0
   38.1200   23.4280   38.1860 C   0  0  0  0  0  0  0  0  0  0  0  0
   37.2690   23.1030   37.2120 N   0  0  0  0  0  0  0  0  0  0  0  0
   37.7100   22.4690   36.1010 C   0  0  0  0  0  0  0  0  0  0  0  0
   38.9770   22.1650   35.9640 N   0  0  0  0  0  0  0  0  0  0  0  0
   41.8810   27.3420   33.4640 C   0  0  0  0  0  0  0  0  0  0  0  0
   39.9830   26.8070   35.0590 C   0  0  0  0  0  0  0  0  0  0  0  0
   38.7350   27.0140   34.3020 C   0  0  2  0  0  0  0  0  0  0  0  0
   37.4810   27.4430   35.0050 C   0  0  0  0  0  0  0  0  0  0  0  0
   37.5630   26.1420   34.2810 C   0  0  1  0  0  0  0  0  0  0  0  0
   36.8970   25.9800   33.0010 N   0  0  0  0  0  0  0  0  0  0  0  0
   36.5350   24.9530   32.2410 N   0  0  0  0  0  0  0  0  0  0  0  0
   35.9320   25.4010   31.1240 C   0  0  0  0  0  0  0  0  0  0  0  0
   35.9120   26.7990   31.1800 C   0  0  0  0  0  0  0  0  0  0  0  0
   36.5250   27.1320   32.3680 C   0  0  0  0  0  0  0  0  0  0  0  0
   40.6453   25.7922   33.3070 H   0  0  0  0  0  0  0  0  0  0  0  0
   43.8925   22.8075   37.0150 H   0  0  0  0  0  0  0  0  0  0  0  0
   45.0404   24.8742   36.1934 H   0  0  0  0  0  0  0  0  0  0  0  0
   41.3490   21.2745   35.8791 H   0  0  0  0  0  0  0  0  0  0  0  0
   41.7779   21.6937   37.5482 H   0  0  0  0  0  0  0  0  0  0  0  0
   40.1868   23.3478   38.7965 H   0  0  0  0  0  0  0  0  0  0  0  0
   37.7753   23.9428   39.0949 H   0  0  0  0  0  0  0  0  0  0  0  0
   36.9977   22.2062   35.3050 H   0  0  0  0  0  0  0  0  0  0  0  0
   42.3696   27.9945   34.2026 H   0  0  0  0  0  0  0  0  0  0  0  0
   42.6458   26.8649   32.8335 H   0  0  0  0  0  0  0  0  0  0  0  0
   41.2079   27.9415   32.8335 H   0  0  0  0  0  0  0  0  0  0  0  0
   39.8025   26.0624   35.8483 H   0  0  0  0  0  0  0  0  0  0  0  0
   40.2874   27.7716   35.4913 H   0  0  0  0  0  0  0  0  0  0  0  0
   39.3901   27.3875   33.5011 H   0  0  0  0  0  0  0  0  0  0  0  0
   37.4413   27.4641   36.1041 H   0  0  0  0  0  0  0  0  0  0  0  0
   36.8212   28.3224   34.9702 H   0  0  0  0  0  0  0  0  0  0  0  0
   37.3425   25.1045   34.5726 H   0  0  0  0  0  0  0  0  0  0  0  0
   35.5272   24.7790   30.3120 H   0  0  0  0  0  0  0  0  0  0  0  0
   35.4940   27.4883   30.4316 H   0  0  0  0  0  0  0  0  0  0  0  0
   36.6875   28.1531   32.7435 H   0  0  0  0  0  0  0  0  0  0  0  0
  1  6  1  0
  1 16  1  0
  2  3  2  0
  2  8  1  0
  4  3  1  0
  5  4  2  0
  6  5  1  0
  6  7  2  0
  7  2  1  0
  8  9  1  0
  9 10  2  0
 10 11  1  0
 12 11  2  0
 13 12  1  0
 14 13  2  0
 14  9  1  0
 15  1  1  0
 17 18  1  0
 17 16  1  0
 19 17  1  0
 19 18  1  0
 20 19  1  0
 21 20  1  0
 22 23  1  0
 22 21  2  0
 23 24  2  0
 24 20  1  0
  1 25  1  6
  3 26  1  0
  4 27  1  0
  8 28  1  0
  8 29  1  0
 10 30  1  0
 11 31  1  0
 13 32  1  0
 15 33  1  0
 15 34  1  0
 15 35  1  0
 16 36  1  0
 16 37  1  0
 17 38  1  6
 18 39  1  0
 18 40  1  0
 19 41  1  1
 22 42  1  0
 23 43  1  0
 24 44  1  0
M  ISO  8  25   8  26  14  27  14  28   8  29   8  30  14  31  14  32  14
M  ISO  8  33   8  34   8  35   8  36   8  37   8  38  13  39  13  40  13
M  ISO  4  41  13  42  14  43  14  44  14
M  END
>  <minimizedAffinity>  (1) 
-5.83020115

>  <minimizedRMSD>  (1) 
0.992806494

$$$$
