
     RDKit          3D

 50 53  0  0  1  0  0  0  0  0999 V2000
   40.9920   26.3350   34.1710 C   0  0  2  0  0  0  0  0  0  0  0  0
   41.9580   23.3310   36.1170 C   0  0  0  0  0  0  0  0  0  0  0  0
   43.3220   23.5740   36.3310 C   0  0  0  0  0  0  0  0  0  0  0  0
   43.9500   24.7240   35.8380 C   0  0  0  0  0  0  0  0  0  0  0  0
   43.1890   25.5930   35.1440 N   0  0  0  0  0  0  0  0  0  0  0  0
   41.8750   25.3790   34.9250 C   0  0  0  0  0  0  0  0  0  0  0  0
   41.2890   24.2610   35.4110 N   0  0  0  0  0  0  0  0  0  0  0  0
   41.3090   22.1100   36.6580 C   0  0  0  0  0  0  0  0  0  0  0  0
   39.8870   22.4710   36.9060 C   0  0  0  0  0  0  0  0  0  0  0  0
   39.4470   23.1040   38.0300 C   0  0  0  0  0  0  0  0  0  0  0  0
   38.1010   23.4150   38.1920 C   0  0  0  0  0  0  0  0  0  0  0  0
   37.2520   23.0680   37.2020 N   0  0  0  0  0  0  0  0  0  0  0  0
   37.7220   22.4420   36.1040 C   0  0  0  0  0  0  0  0  0  0  0  0
   38.9940   22.1620   35.9780 N   0  0  0  0  0  0  0  0  0  0  0  0
   41.7230   27.3890   33.4710 C   0  0  0  0  0  0  0  0  0  0  0  0
   39.8780   26.7910   35.1120 C   0  0  0  0  0  0  0  0  0  0  0  0
   38.6770   27.2080   34.3490 C   0  0  2  0  0  0  0  0  0  0  0  0
   37.3870   27.4650   35.0740 C   0  0  0  0  0  0  0  0  0  0  0  0
   37.5060   26.4110   34.0130 C   0  0  1  0  0  0  0  0  0  0  0  0
   36.9330   26.6860   32.6310 C   0  0  0  0  0  0  0  0  0  0  0  0
   36.3190   28.0640   32.5540 C   0  0  0  0  0  0  0  0  0  0  0  0
   36.4300   28.3810   31.0770 C   0  0  0  0  0  0  0  0  0  0  0  0
   37.9150   28.0520   30.8700 C   0  0  0  0  0  0  0  0  0  0  0  0
   38.0140   26.7090   31.5790 C   0  0  0  0  0  0  0  0  0  0  0  0
   40.5152   25.8238   33.3217 H   0  0  0  0  0  0  0  0  0  0  0  0
   43.9139   22.8425   36.9008 H   0  0  0  0  0  0  0  0  0  0  0  0
   45.0203   24.9105   36.0100 H   0  0  0  0  0  0  0  0  0  0  0  0
   41.3724   21.2893   35.9283 H   0  0  0  0  0  0  0  0  0  0  0  0
   41.8026   21.7686   37.5799 H   0  0  0  0  0  0  0  0  0  0  0  0
   40.1652   23.3722   38.8188 H   0  0  0  0  0  0  0  0  0  0  0  0
   37.7406   23.9266   39.0967 H   0  0  0  0  0  0  0  0  0  0  0  0
   37.0245   22.1621   35.3008 H   0  0  0  0  0  0  0  0  0  0  0  0
   42.1896   28.0617   34.2057 H   0  0  0  0  0  0  0  0  0  0  0  0
   42.5029   26.9375   32.8402 H   0  0  0  0  0  0  0  0  0  0  0  0
   41.0268   27.9612   32.8402 H   0  0  0  0  0  0  0  0  0  0  0  0
   39.6090   25.9600   35.7807 H   0  0  0  0  0  0  0  0  0  0  0  0
   40.2403   27.6513   35.6939 H   0  0  0  0  0  0  0  0  0  0  0  0
   39.3869   27.7551   33.7113 H   0  0  0  0  0  0  0  0  0  0  0  0
   37.2773   27.1796   36.1306 H   0  0  0  0  0  0  0  0  0  0  0  0
   36.7412   28.3378   35.2506 H   0  0  0  0  0  0  0  0  0  0  0  0
   37.2458   25.3424   33.9910 H   0  0  0  0  0  0  0  0  0  0  0  0
   36.1975   25.8863   32.4594 H   0  0  0  0  0  0  0  0  0  0  0  0
   35.2690   28.0518   32.8816 H   0  0  0  0  0  0  0  0  0  0  0  0
   36.8108   28.8037   33.2028 H   0  0  0  0  0  0  0  0  0  0  0  0
   35.7768   27.7393   30.4675 H   0  0  0  0  0  0  0  0  0  0  0  0
   36.1267   29.3981   30.7880 H   0  0  0  0  0  0  0  0  0  0  0  0
   38.1649   27.9650   29.8023 H   0  0  0  0  0  0  0  0  0  0  0  0
   38.6073   28.8181   31.2493 H   0  0  0  0  0  0  0  0  0  0  0  0
   37.8599   25.8902   30.8608 H   0  0  0  0  0  0  0  0  0  0  0  0
   39.0071   26.5766   32.0331 H   0  0  0  0  0  0  0  0  0  0  0  0
  1  6  1  0
  1 16  1  0
  2  3  2  0
  2  8  1  0
  4  3  1  0
  5  4  2  0
  6  5  1  0
  6  7  2  0
  7  2  1  0
  8  9  1  0
  9 10  2  0
 10 11  1  0
 12 11  2  0
 13 12  1  0
 14 13  2  0
 14  9  1  0
 15  1  1  0
 17 18  1  0
 17 16  1  0
 19 17  1  0
 19 18  1  0
 20 19  1  0
 21 20  1  0
 22 21  1  0
 23 22  1  0
 23 24  1  0
 24 20  1  0
  1 25  1  6
  3 26  1  0
  4 27  1  0
  8 28  1  0
  8 29  1  0
 10 30  1  0
 11 31  1  0
 13 32  1  0
 15 33  1  0
 15 34  1  0
 15 35  1  0
 16 36  1  0
 16 37  1  0
 17 38  1  6
 18 39  1  0
 18 40  1  0
 19 41  1  1
 20 42  1  0
 21 43  1  0
 21 44  1  0
 22 45  1  0
 22 46  1  0
 23 47  1  0
 23 48  1  0
 24 49  1  0
 24 50  1  0
M  ISO  8  25   8  26  14  27  14  28   8  29   8  30  14  31  14  32  14
M  ISO  8  33   8  34   8  35   8  36   8  37   8  38  13  39  13  40  13
M  ISO  8  41  13  42  13  43  13  44  13  45  13  46  13  47  13  48  13
M  ISO  2  49  13  50  13
M  END
>  <minimizedAffinity>  (1) 
-5.81612062

>  <minimizedRMSD>  (1) 
1.20363641

$$$$
