
     RDKit          3D

 46 48  0  0  1  0  0  0  0  0999 V2000
   41.9830   23.3000   36.1470 C   0  0  0  0  0  0  0  0  0  0  0  0
   43.3490   23.5210   36.3580 C   0  0  0  0  0  0  0  0  0  0  0  0
   43.9840   24.6620   35.8600 C   0  0  0  0  0  0  0  0  0  0  0  0
   43.2360   25.5460   35.1660 N   0  0  0  0  0  0  0  0  0  0  0  0
   41.9130   25.3410   34.9560 C   0  0  0  0  0  0  0  0  0  0  0  0
   41.3140   24.2330   35.4440 N   0  0  0  0  0  0  0  0  0  0  0  0
   41.3130   22.0790   36.6920 C   0  0  0  0  0  0  0  0  0  0  0  0
   39.8910   22.4470   36.9160 C   0  0  0  0  0  0  0  0  0  0  0  0
   39.4450   23.0930   38.0320 C   0  0  0  0  0  0  0  0  0  0  0  0
   38.1020   23.4160   38.1840 C   0  0  0  0  0  0  0  0  0  0  0  0
   37.2690   23.0660   37.1990 N   0  0  0  0  0  0  0  0  0  0  0  0
   37.7280   22.4270   36.1030 C   0  0  0  0  0  0  0  0  0  0  0  0
   38.9990   22.1370   35.9870 N   0  0  0  0  0  0  0  0  0  0  0  0
   41.0320   26.3020   34.2060 C   0  0  2  0  0  0  0  0  0  0  0  0
   41.7650   27.3670   33.5260 C   0  0  0  0  0  0  0  0  0  0  0  0
   39.9090   26.7400   35.1430 C   0  0  0  0  0  0  0  0  0  0  0  0
   38.7950   27.3690   34.4220 C   0  0  2  0  0  0  0  0  0  0  0  0
   37.4510   27.4750   35.0810 C   0  0  0  0  0  0  0  0  0  0  0  0
   37.6410   26.7280   33.7940 C   0  0  1  0  0  0  0  0  0  0  0  0
   36.9520   27.3730   32.6130 C   0  0  0  0  0  0  0  0  0  0  0  0
   36.1940   28.5830   33.1020 C   0  0  0  0  0  0  0  0  0  0  0  0
   37.8950   27.7790   31.5300 C   0  0  0  0  0  0  0  0  0  0  0  0
   43.9336   22.7827   36.9265 H   0  0  0  0  0  0  0  0  0  0  0  0
   45.0574   24.8341   36.0279 H   0  0  0  0  0  0  0  0  0  0  0  0
   41.3830   21.2521   35.9700 H   0  0  0  0  0  0  0  0  0  0  0  0
   41.7905   21.7442   37.6247 H   0  0  0  0  0  0  0  0  0  0  0  0
   40.1596   23.3623   38.8237 H   0  0  0  0  0  0  0  0  0  0  0  0
   37.7384   23.9396   39.0805 H   0  0  0  0  0  0  0  0  0  0  0  0
   37.0289   22.1477   35.3010 H   0  0  0  0  0  0  0  0  0  0  0  0
   40.5640   25.8007   33.3459 H   0  0  0  0  0  0  0  0  0  0  0  0
   42.2227   28.0320   34.2732 H   0  0  0  0  0  0  0  0  0  0  0  0
   42.5520   26.9263   32.8964 H   0  0  0  0  0  0  0  0  0  0  0  0
   41.0723   27.9447   32.8964 H   0  0  0  0  0  0  0  0  0  0  0  0
   39.5302   25.8568   35.6782 H   0  0  0  0  0  0  0  0  0  0  0  0
   40.3226   27.4847   35.8389 H   0  0  0  0  0  0  0  0  0  0  0  0
   39.5670   28.0324   34.0049 H   0  0  0  0  0  0  0  0  0  0  0  0
   37.2461   26.9294   36.0139 H   0  0  0  0  0  0  0  0  0  0  0  0
   36.8061   28.2961   35.4273 H   0  0  0  0  0  0  0  0  0  0  0  0
   37.4860   25.7071   33.4148 H   0  0  0  0  0  0  0  0  0  0  0  0
   36.2753   26.6249   32.1743 H   0  0  0  0  0  0  0  0  0  0  0  0
   36.1882   28.5922   34.2019 H   0  0  0  0  0  0  0  0  0  0  0  0
   36.6818   29.4962   32.7302 H   0  0  0  0  0  0  0  0  0  0  0  0
   35.1595   28.5425   32.7302 H   0  0  0  0  0  0  0  0  0  0  0  0
   38.8180   28.1764   31.9774 H   0  0  0  0  0  0  0  0  0  0  0  0
   38.1362   26.9050   30.9071 H   0  0  0  0  0  0  0  0  0  0  0  0
   37.4259   28.5549   30.9071 H   0  0  0  0  0  0  0  0  0  0  0  0
  1  2  2  0
  1  7  1  0
  3  2  1  0
  4  3  2  0
  5  4  1  0
  5  6  2  0
  6  1  1  0
  7  8  1  0
  8  9  2  0
  9 10  1  0
 11 10  2  0
 12 11  1  0
 13 12  2  0
 13  8  1  0
 14  5  1  0
 14 16  1  0
 15 14  1  0
 17 18  1  0
 17 16  1  0
 19 17  1  0
 19 18  1  0
 20 21  1  0
 20 19  1  0
 22 20  1  0
  2 23  1  0
  3 24  1  0
  7 25  1  0
  7 26  1  0
  9 27  1  0
 10 28  1  0
 12 29  1  0
 14 30  1  6
 15 31  1  0
 15 32  1  0
 15 33  1  0
 16 34  1  0
 16 35  1  0
 17 36  1  6
 18 37  1  0
 18 38  1  0
 19 39  1  1
 20 40  1  0
 21 41  1  0
 21 42  1  0
 21 43  1  0
 22 44  1  0
 22 45  1  0
 22 46  1  0
M  ISO  8  23  14  24  14  25   8  26   8  27  14  28  14  29  14  30   8
M  ISO  8  31   8  32   8  33   8  34   8  35   8  36  13  37  13  38  13
M  ISO  8  39  13  40   8  41   8  42   8  43   8  44   8  45   8  46   8
M  END
>  <minimizedAffinity>  (1) 
-5.42529869

>  <minimizedRMSD>  (1) 
1.1094352

$$$$
