
     RDKit          3D

 40 42  0  0  1  0  0  0  0  0999 V2000
   41.9840   23.2920   36.1450 C   0  0  0  0  0  0  0  0  0  0  0  0
   43.3310   23.5210   36.3980 C   0  0  0  0  0  0  0  0  0  0  0  0
   43.9810   24.6650   35.9260 C   0  0  0  0  0  0  0  0  0  0  0  0
   43.2460   25.5450   35.2130 N   0  0  0  0  0  0  0  0  0  0  0  0
   41.9380   25.3370   34.9590 C   0  0  0  0  0  0  0  0  0  0  0  0
   41.3310   24.2270   35.4230 N   0  0  0  0  0  0  0  0  0  0  0  0
   41.3010   22.0690   36.6660 C   0  0  0  0  0  0  0  0  0  0  0  0
   39.8830   22.4500   36.9100 C   0  0  0  0  0  0  0  0  0  0  0  0
   39.4450   23.0910   38.0290 C   0  0  0  0  0  0  0  0  0  0  0  0
   38.1060   23.4200   38.1890 C   0  0  0  0  0  0  0  0  0  0  0  0
   37.2640   23.0830   37.2040 N   0  0  0  0  0  0  0  0  0  0  0  0
   37.7170   22.4480   36.1030 C   0  0  0  0  0  0  0  0  0  0  0  0
   38.9870   22.1510   35.9800 N   0  0  0  0  0  0  0  0  0  0  0  0
   41.0820   26.3030   34.1850 C   0  0  2  0  0  0  0  0  0  0  0  0
   41.8430   27.3510   33.5030 C   0  0  0  0  0  0  0  0  0  0  0  0
   39.9680   26.7960   35.1060 C   0  0  0  0  0  0  0  0  0  0  0  0
   38.7480   27.1210   34.3420 C   0  0  2  0  0  0  0  0  0  0  0  0
   37.4760   27.4650   35.0590 C   0  0  0  0  0  0  0  0  0  0  0  0
   37.5700   26.2740   34.1630 C   0  0  1  0  0  0  0  0  0  0  0  0
   36.9420   26.3240   32.7810 C   0  0  0  0  0  0  0  0  0  0  0  0
   36.2930   25.1670   32.4530 F   0  0  0  0  0  0  0  0  0  0  0  0
   37.9550   26.6300   31.8920 F   0  0  0  0  0  0  0  0  0  0  0  0
   36.0820   27.4290   32.7200 F   0  0  0  0  0  0  0  0  0  0  0  0
   43.8997   22.7840   36.9840 H   0  0  0  0  0  0  0  0  0  0  0  0
   45.0480   24.8411   36.1273 H   0  0  0  0  0  0  0  0  0  0  0  0
   41.3547   21.2584   35.9244 H   0  0  0  0  0  0  0  0  0  0  0  0
   41.7804   21.7070   37.5875 H   0  0  0  0  0  0  0  0  0  0  0  0
   40.1643   23.3523   38.8191 H   0  0  0  0  0  0  0  0  0  0  0  0
   37.7499   23.9383   39.0915 H   0  0  0  0  0  0  0  0  0  0  0  0
   37.0137   22.1773   35.3017 H   0  0  0  0  0  0  0  0  0  0  0  0
   40.6134   25.7852   33.3352 H   0  0  0  0  0  0  0  0  0  0  0  0
   42.3175   28.0045   34.2498 H   0  0  0  0  0  0  0  0  0  0  0  0
   42.6184   26.8903   32.8733 H   0  0  0  0  0  0  0  0  0  0  0  0
   41.1649   27.9458   32.8733 H   0  0  0  0  0  0  0  0  0  0  0  0
   39.7337   26.0095   35.8384 H   0  0  0  0  0  0  0  0  0  0  0  0
   40.3142   27.7084   35.6137 H   0  0  0  0  0  0  0  0  0  0  0  0
   39.4314   27.5923   33.6204 H   0  0  0  0  0  0  0  0  0  0  0  0
   37.4012   27.3343   36.1486 H   0  0  0  0  0  0  0  0  0  0  0  0
   36.8254   28.3494   35.1264 H   0  0  0  0  0  0  0  0  0  0  0  0
   37.3218   25.2117   34.3043 H   0  0  0  0  0  0  0  0  0  0  0  0
  1  2  2  0
  1  7  1  0
  3  2  1  0
  4  3  2  0
  5  4  1  0
  5  6  2  0
  6  1  1  0
  7  8  1  0
  8  9  2  0
  9 10  1  0
 11 10  2  0
 12 11  1  0
 13 12  2  0
 13  8  1  0
 14  5  1  0
 14 16  1  0
 15 14  1  0
 17 18  1  0
 17 16  1  0
 19 17  1  0
 19 18  1  0
 20 19  1  0
 21 20  1  0
 22 20  1  0
 23 20  1  0
  2 24  1  0
  3 25  1  0
  7 26  1  0
  7 27  1  0
  9 28  1  0
 10 29  1  0
 12 30  1  0
 14 31  1  6
 15 32  1  0
 15 33  1  0
 15 34  1  0
 16 35  1  0
 16 36  1  0
 17 37  1  6
 18 38  1  0
 18 39  1  0
 19 40  1  1
M  ISO  8  24  14  25  14  26   8  27   8  28  14  29  14  30  14  31   8
M  ISO  8  32   8  33   8  34   8  35   8  36   8  37  13  38  13  39  13
M  ISO  1  40  13
M  END
>  <minimizedAffinity>  (1) 
-5.5127039

>  <minimizedRMSD>  (1) 
0.923639596

$$$$
