
     RDKit          3D

 49 52  0  0  1  0  0  0  0  0999 V2000
   41.1610   26.3090   34.1570 C   0  0  2  0  0  0  0  0  0  0  0  0
   41.9800   23.2900   36.1370 C   0  0  0  0  0  0  0  0  0  0  0  0
   43.3250   23.5290   36.4600 C   0  0  0  0  0  0  0  0  0  0  0  0
   43.9810   24.6740   36.0290 C   0  0  0  0  0  0  0  0  0  0  0  0
   43.2860   25.5580   35.2880 N   0  0  0  0  0  0  0  0  0  0  0  0
   41.9880   25.3440   34.9660 C   0  0  0  0  0  0  0  0  0  0  0  0
   41.3610   24.2200   35.3930 N   0  0  0  0  0  0  0  0  0  0  0  0
   41.2780   22.0570   36.6110 C   0  0  0  0  0  0  0  0  0  0  0  0
   39.8660   22.4510   36.8730 C   0  0  0  0  0  0  0  0  0  0  0  0
   39.4590   23.0900   38.0050 C   0  0  0  0  0  0  0  0  0  0  0  0
   38.1260   23.4390   38.1930 C   0  0  0  0  0  0  0  0  0  0  0  0
   37.2750   23.1200   37.2200 N   0  0  0  0  0  0  0  0  0  0  0  0
   37.7020   22.4850   36.1020 C   0  0  0  0  0  0  0  0  0  0  0  0
   38.9660   22.1630   35.9430 N   0  0  0  0  0  0  0  0  0  0  0  0
   41.9540   27.3220   33.4620 C   0  0  0  0  0  0  0  0  0  0  0  0
   40.0410   26.8350   35.0550 C   0  0  0  0  0  0  0  0  0  0  0  0
   38.7690   26.9280   34.2870 C   0  0  2  0  0  0  0  0  0  0  0  0
   37.5310   27.4450   34.9940 C   0  0  0  0  0  0  0  0  0  0  0  0
   37.5980   26.0730   34.4360 C   0  0  1  0  0  0  0  0  0  0  0  0
   36.9650   25.7040   33.2020 N   0  0  0  0  0  0  0  0  0  0  0  0
   37.8320   24.9300   32.3220 C   0  0  0  0  0  0  0  0  0  0  0  0
   36.9430   24.8690   31.0640 C   0  0  0  0  0  0  0  0  0  0  0  0
   36.0670   26.1010   31.1540 C   0  0  0  0  0  0  0  0  0  0  0  0
   36.6000   26.8380   32.3790 C   0  0  0  0  0  0  0  0  0  0  0  0
   40.6917   25.7906   33.3079 H   0  0  0  0  0  0  0  0  0  0  0  0
   43.8712   22.7928   37.0680 H   0  0  0  0  0  0  0  0  0  0  0  0
   45.0357   24.8536   36.2848 H   0  0  0  0  0  0  0  0  0  0  0  0
   41.3176   21.2757   35.8377 H   0  0  0  0  0  0  0  0  0  0  0  0
   41.7530   21.6510   37.5162 H   0  0  0  0  0  0  0  0  0  0  0  0
   40.1969   23.3340   38.7834 H   0  0  0  0  0  0  0  0  0  0  0  0
   37.7899   23.9552   39.1043 H   0  0  0  0  0  0  0  0  0  0  0  0
   36.9775   22.2345   35.3131 H   0  0  0  0  0  0  0  0  0  0  0  0
   42.4567   27.9642   34.2002 H   0  0  0  0  0  0  0  0  0  0  0  0
   42.7081   26.8283   32.8315 H   0  0  0  0  0  0  0  0  0  0  0  0
   41.2937   27.9356   32.8315 H   0  0  0  0  0  0  0  0  0  0  0  0
   39.9037   26.1496   35.9043 H   0  0  0  0  0  0  0  0  0  0  0  0
   40.3138   27.8357   35.4213 H   0  0  0  0  0  0  0  0  0  0  0  0
   39.3869   27.1768   33.4116 H   0  0  0  0  0  0  0  0  0  0  0  0
   37.5385   27.6025   36.0826 H   0  0  0  0  0  0  0  0  0  0  0  0
   36.8618   28.3106   34.8806 H   0  0  0  0  0  0  0  0  0  0  0  0
   37.3524   25.1014   34.8895 H   0  0  0  0  0  0  0  0  0  0  0  0
   38.7828   25.4474   32.1262 H   0  0  0  0  0  0  0  0  0  0  0  0
   38.1440   23.9526   32.7187 H   0  0  0  0  0  0  0  0  0  0  0  0
   36.3298   23.9558   31.0659 H   0  0  0  0  0  0  0  0  0  0  0  0
   37.5342   24.8448   30.1367 H   0  0  0  0  0  0  0  0  0  0  0  0
   36.1671   26.7198   30.2501 H   0  0  0  0  0  0  0  0  0  0  0  0
   34.9975   25.8574   31.2362 H   0  0  0  0  0  0  0  0  0  0  0  0
   37.4706   27.4642   32.1342 H   0  0  0  0  0  0  0  0  0  0  0  0
   35.8960   27.5448   32.8425 H   0  0  0  0  0  0  0  0  0  0  0  0
  1  6  1  0
  1 16  1  0
  2  3  2  0
  2  8  1  0
  4  3  1  0
  5  4  2  0
  6  5  1  0
  6  7  2  0
  7  2  1  0
  8  9  1  0
  9 10  2  0
 10 11  1  0
 12 11  2  0
 13 12  1  0
 14 13  2  0
 14  9  1  0
 15  1  1  0
 17 19  1  0
 17 18  1  0
 17 16  1  0
 19 18  1  0
 20 21  1  0
 20 19  1  0
 22 23  1  0
 22 21  1  0
 23 24  1  0
 24 20  1  0
  1 25  1  6
  3 26  1  0
  4 27  1  0
  8 28  1  0
  8 29  1  0
 10 30  1  0
 11 31  1  0
 13 32  1  0
 15 33  1  0
 15 34  1  0
 15 35  1  0
 16 36  1  0
 16 37  1  0
 17 38  1  6
 18 39  1  0
 18 40  1  0
 19 41  1  1
 21 42  1  0
 21 43  1  0
 22 44  1  0
 22 45  1  0
 23 46  1  0
 23 47  1  0
 24 48  1  0
 24 49  1  0
M  ISO  8  25   8  26  14  27  14  28   8  29   8  30  14  31  14  32  14
M  ISO  8  33   8  34   8  35   8  36   8  37   8  38  13  39  13  40  13
M  ISO  8  41  13  42  13  43  13  44  13  45  13  46  13  47  13  48  13
M  ISO  1  49  13
M  END
>  <minimizedAffinity>  (1) 
-5.70064974

>  <minimizedRMSD>  (1) 
0.82316339

$$$$
