
     RDKit          3D

 40 42  0  0  1  0  0  0  0  0999 V2000
   40.4450   25.2240   34.6530 N   0  0  0  0  0  0  0  0  0  0  0  0
   41.8740   25.4540   34.8600 C   0  0  0  0  0  0  0  0  0  0  0  0
   42.1380   26.6060   33.9310 C   0  0  0  0  0  0  0  0  0  0  0  0
   40.7940   27.2980   33.7620 C   0  0  0  0  0  0  0  0  0  0  0  0
   39.9410   26.5520   34.7450 C   0  0  1  0  0  0  0  0  0  0  0  0
   38.5790   26.6270   34.6000 N   0  0  0  0  0  0  0  0  0  0  0  0
   37.8830   26.3140   33.4420 C   0  0  0  0  0  0  0  0  0  0  0  0
   37.1580   27.6270   33.1300 C   0  0  0  0  0  0  0  0  0  0  0  0
   36.6600   27.9700   34.5390 C   0  0  0  0  0  0  0  0  0  0  0  0
   37.8160   27.4880   35.4080 C   0  0  0  0  0  0  0  0  0  0  0  0
   39.9200   24.3350   35.6640 C   0  0  0  0  0  0  0  0  0  0  0  0
   39.7060   22.9450   35.1810 C   0  0  0  0  0  0  0  0  0  0  0  0
   41.9320   21.1100   37.5930 C   0  0  0  0  0  0  0  0  0  0  0  0
   40.9140   21.8920   37.0460 C   0  0  0  0  0  0  0  0  0  0  0  0
   40.8260   22.1010   35.6950 C   0  0  0  0  0  0  0  0  0  0  0  0
   41.7720   21.5170   34.8960 N   0  0  0  0  0  0  0  0  0  0  0  0
   42.7430   20.7680   35.4330 C   0  0  0  0  0  0  0  0  0  0  0  0
   42.8430   20.5560   36.7450 N   0  0  0  0  0  0  0  0  0  0  0  0
   42.0890   25.7243   35.9044 H   0  0  0  0  0  0  0  0  0  0  0  0
   42.5002   24.5712   34.6639 H   0  0  0  0  0  0  0  0  0  0  0  0
   42.8741   27.2951   34.3705 H   0  0  0  0  0  0  0  0  0  0  0  0
   42.5521   26.2714   32.9684 H   0  0  0  0  0  0  0  0  0  0  0  0
   40.8583   28.3662   34.0168 H   0  0  0  0  0  0  0  0  0  0  0  0
   40.4086   27.2786   32.7319 H   0  0  0  0  0  0  0  0  0  0  0  0
   40.0257   27.0116   35.7408 H   0  0  0  0  0  0  0  0  0  0  0  0
   38.5688   26.0349   32.6285 H   0  0  0  0  0  0  0  0  0  0  0  0
   37.2065   25.4539   33.5543 H   0  0  0  0  0  0  0  0  0  0  0  0
   37.8432   28.3928   32.7374 H   0  0  0  0  0  0  0  0  0  0  0  0
   36.3786   27.5636   32.3563 H   0  0  0  0  0  0  0  0  0  0  0  0
   36.4977   29.0519   34.6535 H   0  0  0  0  0  0  0  0  0  0  0  0
   35.6928   27.5113   34.7921 H   0  0  0  0  0  0  0  0  0  0  0  0
   37.4336   26.9478   36.2866 H   0  0  0  0  0  0  0  0  0  0  0  0
   38.4186   28.3305   35.7783 H   0  0  0  0  0  0  0  0  0  0  0  0
   40.6296   24.3059   36.5041 H   0  0  0  0  0  0  0  0  0  0  0  0
   38.9366   24.7286   35.9607 H   0  0  0  0  0  0  0  0  0  0  0  0
   38.7463   22.5621   35.5584 H   0  0  0  0  0  0  0  0  0  0  0  0
   39.6828   22.9215   34.0815 H   0  0  0  0  0  0  0  0  0  0  0  0
   41.9971   20.9454   38.6787 H   0  0  0  0  0  0  0  0  0  0  0  0
   40.1679   22.3494   37.7124 H   0  0  0  0  0  0  0  0  0  0  0  0
   43.4874   20.3096   34.7653 H   0  0  0  0  0  0  0  0  0  0  0  0
  1  5  1  0
  1  2  1  0
  1 11  1  0
  3  2  1  0
  4  3  1  0
  4  5  1  0
  6  7  1  0
  6  5  1  0
  6 10  1  0
  8  7  1  0
  8  9  1  0
  9 10  1  0
 12 11  1  0
 12 15  1  0
 14 13  2  0
 15 14  1  0
 16 17  1  0
 16 15  2  0
 17 18  2  0
 18 13  1  0
  2 19  1  0
  2 20  1  0
  3 21  1  0
  3 22  1  0
  4 23  1  0
  4 24  1  0
  5 25  1  1
  7 26  1  0
  7 27  1  0
  8 28  1  0
  8 29  1  0
  9 30  1  0
  9 31  1  0
 10 32  1  0
 10 33  1  0
 11 34  1  0
 11 35  1  0
 12 36  1  0
 12 37  1  0
 13 38  1  0
 14 39  1  0
 17 40  1  0
M  ISO  8  19  13  20  13  21  13  22  13  23  13  24  13  25  13  26  13
M  ISO  8  27  13  28  13  29  13  30  13  31  13  32  13  33  13  34   8
M  ISO  6  35   8  36   8  37   8  38  14  39  14  40  14
M  END
>  <minimizedAffinity>  (1) 
-3.84773827

>  <minimizedRMSD>  (1) 
6.39477396

$$$$
