
     RDKit          3D

 44 47  0  0  1  0  0  0  0  0999 V2000
   40.9840   26.2400   34.2030 C   0  0  2  0  0  0  0  0  0  0  0  0
   41.9710   23.2960   36.2100 C   0  0  0  0  0  0  0  0  0  0  0  0
   43.3460   23.5160   36.3650 C   0  0  0  0  0  0  0  0  0  0  0  0
   43.9770   24.6310   35.8110 C   0  0  0  0  0  0  0  0  0  0  0  0
   43.2090   25.4950   35.1150 N   0  0  0  0  0  0  0  0  0  0  0  0
   41.8800   25.2990   34.9550 C   0  0  0  0  0  0  0  0  0  0  0  0
   41.2890   24.2130   35.5000 N   0  0  0  0  0  0  0  0  0  0  0  0
   41.3180   22.1010   36.8190 C   0  0  0  0  0  0  0  0  0  0  0  0
   39.8860   22.4570   36.9970 C   0  0  0  0  0  0  0  0  0  0  0  0
   39.4010   23.1050   38.0930 C   0  0  0  0  0  0  0  0  0  0  0  0
   38.0500   23.4190   38.2070 C   0  0  0  0  0  0  0  0  0  0  0  0
   37.2490   23.0570   37.1980 N   0  0  0  0  0  0  0  0  0  0  0  0
   37.7490   22.4160   36.1200 C   0  0  0  0  0  0  0  0  0  0  0  0
   39.0260   22.1350   36.0440 N   0  0  0  0  0  0  0  0  0  0  0  0
   41.6890   27.3700   33.6000 C   0  0  0  0  0  0  0  0  0  0  0  0
   39.7920   26.5740   35.0940 C   0  0  0  0  0  0  0  0  0  0  0  0
   38.7960   27.3970   34.3980 C   0  0  2  0  0  0  0  0  0  0  0  0
   37.4480   27.6390   35.0090 C   0  0  0  0  0  0  0  0  0  0  0  0
   37.5940   26.9440   33.6850 C   0  0  1  0  0  0  0  0  0  0  0  0
   37.0800   27.8020   32.5530 C   0  0  0  0  0  0  0  0  0  0  0  0
   36.0630   28.6380   32.3030 C   0  0  0  0  0  0  0  0  0  0  0  0
   35.9320   29.2500   31.1100 C   0  0  0  0  0  0  0  0  0  0  0  0
   36.8990   28.9910   30.1090 C   0  0  0  0  0  0  0  0  0  0  0  0
   38.0770   27.7810   30.9560 S   0  0  0  0  0  0  0  0  0  0  0  0
   40.5854   25.7509   33.3019 H   0  0  0  0  0  0  0  0  0  0  0  0
   43.9435   22.7916   36.9379 H   0  0  0  0  0  0  0  0  0  0  0  0
   45.0569   24.7986   35.9367 H   0  0  0  0  0  0  0  0  0  0  0  0
   41.4148   21.2319   36.1517 H   0  0  0  0  0  0  0  0  0  0  0  0
   41.7866   21.8328   37.7774 H   0  0  0  0  0  0  0  0  0  0  0  0
   40.0903   23.3853   38.9031 H   0  0  0  0  0  0  0  0  0  0  0  0
   37.6567   23.9433   39.0904 H   0  0  0  0  0  0  0  0  0  0  0  0
   37.0776   22.1271   35.2979 H   0  0  0  0  0  0  0  0  0  0  0  0
   42.0922   28.0163   34.3935 H   0  0  0  0  0  0  0  0  0  0  0  0
   42.5146   26.9965   32.9764 H   0  0  0  0  0  0  0  0  0  0  0  0
   40.9906   27.9474   32.9764 H   0  0  0  0  0  0  0  0  0  0  0  0
   39.3153   25.6361   35.4150 H   0  0  0  0  0  0  0  0  0  0  0  0
   40.1635   27.1482   35.9556 H   0  0  0  0  0  0  0  0  0  0  0  0
   39.6628   27.9879   34.0671 H   0  0  0  0  0  0  0  0  0  0  0  0
   37.1340   27.0743   35.8993 H   0  0  0  0  0  0  0  0  0  0  0  0
   36.8991   28.5174   35.3792 H   0  0  0  0  0  0  0  0  0  0  0  0
   37.3190   25.9767   33.2392 H   0  0  0  0  0  0  0  0  0  0  0  0
   35.3182   28.8289   33.0897 H   0  0  0  0  0  0  0  0  0  0  0  0
   35.0931   29.9351   30.9181 H   0  0  0  0  0  0  0  0  0  0  0  0
   36.9516   29.3955   29.0874 H   0  0  0  0  0  0  0  0  0  0  0  0
  1  6  1  0
  1 16  1  0
  2  3  2  0
  2  8  1  0
  4  3  1  0
  5  4  2  0
  6  5  1  0
  6  7  2  0
  7  2  1  0
  8  9  1  0
  9 10  2  0
 10 11  1  0
 12 11  2  0
 13 12  1  0
 14 13  2  0
 14  9  1  0
 15  1  1  0
 17 18  1  0
 17 16  1  0
 19 17  1  0
 19 18  1  0
 20 19  1  0
 21 20  2  0
 22 21  1  0
 23 24  1  0
 23 22  2  0
 24 20  1  0
  1 25  1  6
  3 26  1  0
  4 27  1  0
  8 28  1  0
  8 29  1  0
 10 30  1  0
 11 31  1  0
 13 32  1  0
 15 33  1  0
 15 34  1  0
 15 35  1  0
 16 36  1  0
 16 37  1  0
 17 38  1  6
 18 39  1  0
 18 40  1  0
 19 41  1  1
 21 42  1  0
 22 43  1  0
 23 44  1  0
M  ISO  8  25   8  26  14  27  14  28   8  29   8  30  14  31  14  32  14
M  ISO  8  33   8  34   8  35   8  36   8  37   8  38  13  39  13  40  13
M  ISO  4  41  13  42  14  43  14  44  14
M  END
>  <minimizedAffinity>  (1) 
-5.71451426

>  <minimizedRMSD>  (1) 
2.02194476

$$$$
