
     RDKit          3D

 44 46  0  0  1  0  0  0  0  0999 V2000
   41.0420   26.3140   34.0770 C   0  0  2  0  0  0  0  0  0  0  0  0
   41.9470   23.3640   36.1180 C   0  0  0  0  0  0  0  0  0  0  0  0
   43.2850   23.6430   36.4350 C   0  0  0  0  0  0  0  0  0  0  0  0
   43.9130   24.8030   35.9770 C   0  0  0  0  0  0  0  0  0  0  0  0
   43.1840   25.6480   35.2170 N   0  0  0  0  0  0  0  0  0  0  0  0
   41.8920   25.3900   34.9040 C   0  0  0  0  0  0  0  0  0  0  0  0
   41.3060   24.2650   35.3560 N   0  0  0  0  0  0  0  0  0  0  0  0
   41.2870   22.1250   36.6260 C   0  0  0  0  0  0  0  0  0  0  0  0
   39.8630   22.4800   36.8820 C   0  0  0  0  0  0  0  0  0  0  0  0
   39.4450   23.1120   38.0140 C   0  0  0  0  0  0  0  0  0  0  0  0
   38.1010   23.4300   38.2040 C   0  0  0  0  0  0  0  0  0  0  0  0
   37.2360   23.0830   37.2180 N   0  0  0  0  0  0  0  0  0  0  0  0
   37.7040   22.4590   36.1190 C   0  0  0  0  0  0  0  0  0  0  0  0
   38.9710   22.1680   35.9550 N   0  0  0  0  0  0  0  0  0  0  0  0
   41.7890   27.4010   33.4450 C   0  0  0  0  0  0  0  0  0  0  0  0
   39.8370   26.7320   34.9190 C   0  0  0  0  0  0  0  0  0  0  0  0
   38.6520   26.9660   34.0610 C   0  0  2  0  0  0  0  0  0  0  0  0
   37.4280   27.6170   34.6610 C   0  0  0  0  0  0  0  0  0  0  0  0
   37.3830   26.2510   34.0880 C   0  0  1  0  0  0  0  0  0  0  0  0
   36.8420   25.9830   32.7760 N   0  0  0  0  0  0  0  0  0  0  0  0
   36.2930   26.9320   31.8770 C   0  0  0  0  0  0  0  0  0  0  0  0
   35.6110   27.8960   32.3720 N   0  0  0  0  0  0  0  0  0  0  0  0
   36.4900   26.8230   30.4500 N   0  0  0  0  0  0  0  0  0  0  0  0
   35.2050   28.5950   31.7240 H   0  0  0  0  0  0  0  0  0  0  0  0
   40.6616   25.7822   33.1924 H   0  0  0  0  0  0  0  0  0  0  0  0
   43.8507   22.9336   37.0569 H   0  0  0  0  0  0  0  0  0  0  0  0
   44.9622   25.0202   36.2260 H   0  0  0  0  0  0  0  0  0  0  0  0
   41.3500   21.3249   35.8738 H   0  0  0  0  0  0  0  0  0  0  0  0
   41.7768   21.7593   37.5405 H   0  0  0  0  0  0  0  0  0  0  0  0
   40.1789   23.3754   38.7899 H   0  0  0  0  0  0  0  0  0  0  0  0
   37.7563   23.9408   39.1152 H   0  0  0  0  0  0  0  0  0  0  0  0
   36.9928   22.1825   35.3267 H   0  0  0  0  0  0  0  0  0  0  0  0
   42.2301   28.0429   34.2218 H   0  0  0  0  0  0  0  0  0  0  0  0
   42.5896   26.9802   32.8189 H   0  0  0  0  0  0  0  0  0  0  0  0
   41.1092   27.9975   32.8189 H   0  0  0  0  0  0  0  0  0  0  0  0
   39.6076   25.9347   35.6413 H   0  0  0  0  0  0  0  0  0  0  0  0
   40.0815   27.6664   35.4454 H   0  0  0  0  0  0  0  0  0  0  0  0
   39.3719   27.1439   33.2486 H   0  0  0  0  0  0  0  0  0  0  0  0
   37.3552   27.7651   35.7486 H   0  0  0  0  0  0  0  0  0  0  0  0
   36.8777   28.5562   34.5030 H   0  0  0  0  0  0  0  0  0  0  0  0
   36.9807   25.3140   34.5006 H   0  0  0  0  0  0  0  0  0  0  0  0
   36.8565   25.0024   32.4613 H   0  0  0  0  0  0  0  0  0  0  0  0
   37.0407   26.0427   30.0643 H   0  0  0  0  0  0  0  0  0  0  0  0
   36.0797   27.5256   29.8183 H   0  0  0  0  0  0  0  0  0  0  0  0
  1  6  1  0
  1 16  1  0
  2  3  2  0
  2  8  1  0
  4  3  1  0
  5  4  2  0
  6  5  1  0
  6  7  2  0
  7  2  1  0
  8  9  1  0
  9 10  2  0
 10 11  1  0
 12 11  2  0
 13 12  1  0
 14 13  2  0
 14  9  1  0
 15  1  1  0
 17 19  1  0
 17 18  1  0
 17 16  1  0
 19 18  1  0
 20 19  1  0
 21 22  2  0
 21 20  1  0
 23 21  1  0
 24 22  1  0
  1 25  1  6
  3 26  1  0
  4 27  1  0
  8 28  1  0
  8 29  1  0
 10 30  1  0
 11 31  1  0
 13 32  1  0
 15 33  1  0
 15 34  1  0
 15 35  1  0
 16 36  1  0
 16 37  1  0
 17 38  1  6
 18 39  1  0
 18 40  1  0
 19 41  1  1
 20 42  1  0
 23 43  1  0
 23 44  1  0
M  ISO  8  25   8  26  14  27  14  28   8  29   8  30  14  31  14  32  14
M  ISO  8  33   8  34   8  35   8  36   8  37   8  38  13  39  13  40  13
M  ISO  1  41  13
M  END
>  <minimizedAffinity>  (1) 
-5.61098433

>  <minimizedRMSD>  (1) 
0.88640213

$$$$
