
     RDKit          3D

 49 51  0  0  1  0  0  0  0  0999 V2000
   41.9950   23.2820   36.1630 C   0  0  0  0  0  0  0  0  0  0  0  0
   43.3430   23.5130   36.4300 C   0  0  0  0  0  0  0  0  0  0  0  0
   43.9940   24.6560   35.9590 C   0  0  0  0  0  0  0  0  0  0  0  0
   43.2680   25.5320   35.2330 N   0  0  0  0  0  0  0  0  0  0  0  0
   41.9570   25.3210   34.9650 C   0  0  0  0  0  0  0  0  0  0  0  0
   41.3520   24.2120   35.4300 N   0  0  0  0  0  0  0  0  0  0  0  0
   41.3070   22.0600   36.6810 C   0  0  0  0  0  0  0  0  0  0  0  0
   39.8890   22.4430   36.9170 C   0  0  0  0  0  0  0  0  0  0  0  0
   39.4470   23.0930   38.0300 C   0  0  0  0  0  0  0  0  0  0  0  0
   38.1080   23.4230   38.1840 C   0  0  0  0  0  0  0  0  0  0  0  0
   37.2710   23.0800   37.1970 N   0  0  0  0  0  0  0  0  0  0  0  0
   37.7290   22.4380   36.1030 C   0  0  0  0  0  0  0  0  0  0  0  0
   38.9970   22.1390   35.9850 N   0  0  0  0  0  0  0  0  0  0  0  0
   41.1100   26.2820   34.1790 C   0  0  2  0  0  0  0  0  0  0  0  0
   41.8700   27.3480   33.5280 C   0  0  0  0  0  0  0  0  0  0  0  0
   39.9540   26.7260   35.0740 C   0  0  0  0  0  0  0  0  0  0  0  0
   38.8350   27.2710   34.2810 C   0  0  2  0  0  0  0  0  0  0  0  0
   37.4960   27.4230   34.9450 C   0  0  0  0  0  0  0  0  0  0  0  0
   37.6810   26.5540   33.7400 C   0  0  1  0  0  0  0  0  0  0  0  0
   37.0520   27.1520   32.4790 C   0  0  0  0  0  0  0  0  0  0  0  0
   38.1100   27.7640   31.5910 C   0  0  0  0  0  0  0  0  0  0  0  0
   36.2060   26.1290   31.7540 C   0  0  0  0  0  0  0  0  0  0  0  0
   36.0830   28.2770   32.8120 C   0  0  0  0  0  0  0  0  0  0  0  0
   43.9070   22.7793   37.0247 H   0  0  0  0  0  0  0  0  0  0  0  0
   45.0582   24.8352   36.1719 H   0  0  0  0  0  0  0  0  0  0  0  0
   41.3635   21.2490   35.9400 H   0  0  0  0  0  0  0  0  0  0  0  0
   41.7808   21.6978   37.6053 H   0  0  0  0  0  0  0  0  0  0  0  0
   40.1640   23.3608   38.8201 H   0  0  0  0  0  0  0  0  0  0  0  0
   37.7482   23.9462   39.0822 H   0  0  0  0  0  0  0  0  0  0  0  0
   37.0284   22.1627   35.3009 H   0  0  0  0  0  0  0  0  0  0  0  0
   40.6778   25.7790   33.3014 H   0  0  0  0  0  0  0  0  0  0  0  0
   42.3287   27.9913   34.2934 H   0  0  0  0  0  0  0  0  0  0  0  0
   42.6579   26.9060   32.9004 H   0  0  0  0  0  0  0  0  0  0  0  0
   41.1952   27.9487   32.9004 H   0  0  0  0  0  0  0  0  0  0  0  0
   39.5954   25.8605   35.6505 H   0  0  0  0  0  0  0  0  0  0  0  0
   40.3204   27.5179   35.7439 H   0  0  0  0  0  0  0  0  0  0  0  0
   39.5917   27.8933   33.7810 H   0  0  0  0  0  0  0  0  0  0  0  0
   37.3116   26.9717   35.9311 H   0  0  0  0  0  0  0  0  0  0  0  0
   36.8423   28.2654   35.2154 H   0  0  0  0  0  0  0  0  0  0  0  0
   37.4972   25.4995   33.4867 H   0  0  0  0  0  0  0  0  0  0  0  0
   38.8944   28.2178   32.2145 H   0  0  0  0  0  0  0  0  0  0  0  0
   38.5527   26.9825   30.9560 H   0  0  0  0  0  0  0  0  0  0  0  0
   37.6532   28.5374   30.9560 H   0  0  0  0  0  0  0  0  0  0  0  0
   35.6841   25.4979   32.4884 H   0  0  0  0  0  0  0  0  0  0  0  0
   35.4672   26.6449   31.1232 H   0  0  0  0  0  0  0  0  0  0  0  0
   36.8514   25.5002   31.1232 H   0  0  0  0  0  0  0  0  0  0  0  0
   35.9976   28.3761   33.9042 H   0  0  0  0  0  0  0  0  0  0  0  0
   36.4560   29.2202   32.3863 H   0  0  0  0  0  0  0  0  0  0  0  0
   35.0949   28.0479   32.3863 H   0  0  0  0  0  0  0  0  0  0  0  0
  1  2  2  0
  1  7  1  0
  3  2  1  0
  4  3  2  0
  5  4  1  0
  5  6  2  0
  6  1  1  0
  7  8  1  0
  8  9  2  0
  9 10  1  0
 11 10  2  0
 12 11  1  0
 13 12  2  0
 13  8  1  0
 14  5  1  0
 14 16  1  0
 15 14  1  0
 17 18  1  0
 17 16  1  0
 19 17  1  0
 19 18  1  0
 20 23  1  0
 20 19  1  0
 21 20  1  0
 22 20  1  0
  2 24  1  0
  3 25  1  0
  7 26  1  0
  7 27  1  0
  9 28  1  0
 10 29  1  0
 12 30  1  0
 14 31  1  6
 15 32  1  0
 15 33  1  0
 15 34  1  0
 16 35  1  0
 16 36  1  0
 17 37  1  6
 18 38  1  0
 18 39  1  0
 19 40  1  1
 21 41  1  0
 21 42  1  0
 21 43  1  0
 22 44  1  0
 22 45  1  0
 22 46  1  0
 23 47  1  0
 23 48  1  0
 23 49  1  0
M  ISO  8  24  14  25  14  26   8  27   8  28  14  29  14  30  14  31   8
M  ISO  8  32   8  33   8  34   8  35   8  36   8  37  13  38  13  39  13
M  ISO  8  40  13  41   8  42   8  43   8  44   8  45   8  46   8  47   8
M  ISO  2  48   8  49   8
M  END
>  <minimizedAffinity>  (1) 
-5.58903265

>  <minimizedRMSD>  (1) 
1.23092663

$$$$
