
     RDKit          3D

 43 46  0  0  1  0  0  0  0  0999 V2000
   41.1710   26.3130   34.1370 C   0  0  2  0  0  0  0  0  0  0  0  0
   41.9660   23.2890   36.1260 C   0  0  0  0  0  0  0  0  0  0  0  0
   43.2950   23.5410   36.4910 C   0  0  0  0  0  0  0  0  0  0  0  0
   43.9570   24.7080   36.0830 C   0  0  0  0  0  0  0  0  0  0  0  0
   43.2600   25.5790   35.3260 N   0  0  0  0  0  0  0  0  0  0  0  0
   41.9810   25.3530   34.9660 C   0  0  0  0  0  0  0  0  0  0  0  0
   41.3630   24.2260   35.3670 N   0  0  0  0  0  0  0  0  0  0  0  0
   41.2780   22.0510   36.5770 C   0  0  0  0  0  0  0  0  0  0  0  0
   39.8640   22.4310   36.8530 C   0  0  0  0  0  0  0  0  0  0  0  0
   39.4720   23.0990   37.9750 C   0  0  0  0  0  0  0  0  0  0  0  0
   38.1360   23.4340   38.1770 C   0  0  0  0  0  0  0  0  0  0  0  0
   37.2510   23.0730   37.2200 N   0  0  0  0  0  0  0  0  0  0  0  0
   37.6860   22.4120   36.1260 C   0  0  0  0  0  0  0  0  0  0  0  0
   38.9470   22.1070   35.9550 N   0  0  0  0  0  0  0  0  0  0  0  0
   41.9780   27.3130   33.4380 C   0  0  0  0  0  0  0  0  0  0  0  0
   40.0520   26.8720   35.0110 C   0  0  0  0  0  0  0  0  0  0  0  0
   38.7220   26.6450   34.3790 C   0  0  2  0  0  0  0  0  0  0  0  0
   37.6200   26.0830   35.2620 C   0  0  0  0  0  0  0  0  0  0  0  0
   38.1190   25.3740   34.0280 C   0  0  1  0  0  0  0  0  0  0  0  0
   37.1550   25.3550   32.8560 C   0  0  0  0  0  0  0  0  0  0  0  0
   36.6250   26.6040   32.3640 C   0  0  0  0  0  0  0  0  0  0  0  0
   35.5500   26.0820   31.0260 S   0  0  0  0  0  0  0  0  0  0  0  0
   35.9620   24.2490   31.3120 C   0  0  0  0  0  0  0  0  0  0  0  0
   36.7630   24.2490   32.2660 N   0  0  0  0  0  0  0  0  0  0  0  0
   40.7068   25.7766   33.2963 H   0  0  0  0  0  0  0  0  0  0  0  0
   43.8309   22.8074   37.1112 H   0  0  0  0  0  0  0  0  0  0  0  0
   45.0010   24.9044   36.3686 H   0  0  0  0  0  0  0  0  0  0  0  0
   41.3189   21.2846   35.7889 H   0  0  0  0  0  0  0  0  0  0  0  0
   41.7597   21.6312   37.4724 H   0  0  0  0  0  0  0  0  0  0  0  0
   40.2214   23.3770   38.7307 H   0  0  0  0  0  0  0  0  0  0  0  0
   37.8124   23.9718   39.0804 H   0  0  0  0  0  0  0  0  0  0  0  0
   36.9579   22.1209   35.3546 H   0  0  0  0  0  0  0  0  0  0  0  0
   42.4915   27.9493   34.1738 H   0  0  0  0  0  0  0  0  0  0  0  0
   42.7236   26.8068   32.8073 H   0  0  0  0  0  0  0  0  0  0  0  0
   41.3257   27.9349   32.8073 H   0  0  0  0  0  0  0  0  0  0  0  0
   40.0757   26.3719   35.9905 H   0  0  0  0  0  0  0  0  0  0  0  0
   40.2053   27.9548   35.1295 H   0  0  0  0  0  0  0  0  0  0  0  0
   38.9233   27.5320   33.7603 H   0  0  0  0  0  0  0  0  0  0  0  0
   37.8531   25.6909   36.2630 H   0  0  0  0  0  0  0  0  0  0  0  0
   36.6473   26.4335   35.6374 H   0  0  0  0  0  0  0  0  0  0  0  0
   38.5302   24.3767   33.8127 H   0  0  0  0  0  0  0  0  0  0  0  0
   36.8297   27.6241   32.7212 H   0  0  0  0  0  0  0  0  0  0  0  0
   35.5780   23.3800   30.7576 H   0  0  0  0  0  0  0  0  0  0  0  0
  1  6  1  0
  1 16  1  0
  2  3  2  0
  2  8  1  0
  4  3  1  0
  5  4  2  0
  6  5  1  0
  6  7  2  0
  7  2  1  0
  8  9  1  0
  9 10  2  0
 10 11  1  0
 12 11  2  0
 13 12  1  0
 14 13  2  0
 14  9  1  0
 15  1  1  0
 17 16  1  0
 17 18  1  0
 19 17  1  0
 19 18  1  0
 20 19  1  0
 21 20  2  0
 22 23  1  0
 22 21  1  0
 23 24  2  0
 24 20  1  0
  1 25  1  6
  3 26  1  0
  4 27  1  0
  8 28  1  0
  8 29  1  0
 10 30  1  0
 11 31  1  0
 13 32  1  0
 15 33  1  0
 15 34  1  0
 15 35  1  0
 16 36  1  0
 16 37  1  0
 17 38  1  6
 18 39  1  0
 18 40  1  0
 19 41  1  1
 21 42  1  0
 23 43  1  0
M  ISO  8  25   8  26  14  27  14  28   8  29   8  30  14  31  14  32  14
M  ISO  8  33   8  34   8  35   8  36   8  37   8  38  13  39  13  40  13
M  ISO  3  41  13  42  14  43  14
M  END
>  <minimizedAffinity>  (1) 
-5.64529419

>  <minimizedRMSD>  (1) 
0.96436882

$$$$
