
     RDKit          3D

 44 47  0  0  1  0  0  0  0  0999 V2000
   41.9620   23.3290   36.1230 C   0  0  0  0  0  0  0  0  0  0  0  0
   43.3150   23.5800   36.3890 C   0  0  0  0  0  0  0  0  0  0  0  0
   43.9480   24.7290   35.9160 C   0  0  0  0  0  0  0  0  0  0  0  0
   43.2010   25.5880   35.1910 N   0  0  0  0  0  0  0  0  0  0  0  0
   41.9010   25.3660   34.9240 C   0  0  0  0  0  0  0  0  0  0  0  0
   41.3070   24.2510   35.3890 N   0  0  0  0  0  0  0  0  0  0  0  0
   41.2940   22.1000   36.6450 C   0  0  0  0  0  0  0  0  0  0  0  0
   39.8740   22.4650   36.8930 C   0  0  0  0  0  0  0  0  0  0  0  0
   39.4470   23.0990   38.0210 C   0  0  0  0  0  0  0  0  0  0  0  0
   38.1050   23.4240   38.2000 C   0  0  0  0  0  0  0  0  0  0  0  0
   37.2470   23.0840   37.2130 N   0  0  0  0  0  0  0  0  0  0  0  0
   37.7100   22.4560   36.1130 C   0  0  0  0  0  0  0  0  0  0  0  0
   38.9780   22.1610   35.9670 N   0  0  0  0  0  0  0  0  0  0  0  0
   41.0390   26.3150   34.1350 C   0  0  2  0  0  0  0  0  0  0  0  0
   41.7880   27.3650   33.4500 C   0  0  0  0  0  0  0  0  0  0  0  0
   39.9180   26.8080   35.0480 C   0  0  0  0  0  0  0  0  0  0  0  0
   38.6700   27.0630   34.2770 C   0  0  2  0  0  0  0  0  0  0  0  0
   37.3670   27.1350   35.0320 C   0  0  0  0  0  0  0  0  0  0  0  0
   37.6220   26.1090   33.9600 C   0  0  1  0  0  0  0  0  0  0  0  0
   36.8250   26.2600   32.6630 C   0  0  0  0  0  0  0  0  0  0  0  0
   36.5200   24.9870   31.9430 C   0  0  0  0  0  0  0  0  0  0  0  0
   37.4370   25.9950   31.3480 C   0  0  0  0  0  0  0  0  0  0  0  0
   43.8900   22.8550   36.9837 H   0  0  0  0  0  0  0  0  0  0  0  0
   45.0098   24.9266   36.1247 H   0  0  0  0  0  0  0  0  0  0  0  0
   41.3543   21.2902   35.9029 H   0  0  0  0  0  0  0  0  0  0  0  0
   41.7798   21.7432   37.5652 H   0  0  0  0  0  0  0  0  0  0  0  0
   40.1751   23.3585   38.8037 H   0  0  0  0  0  0  0  0  0  0  0  0
   37.7571   23.9371   39.1087 H   0  0  0  0  0  0  0  0  0  0  0  0
   37.0028   22.1837   35.3157 H   0  0  0  0  0  0  0  0  0  0  0  0
   40.5828   25.7814   33.2881 H   0  0  0  0  0  0  0  0  0  0  0  0
   42.2585   28.0246   34.1939 H   0  0  0  0  0  0  0  0  0  0  0  0
   42.5660   26.9090   32.8200 H   0  0  0  0  0  0  0  0  0  0  0  0
   41.1036   27.9522   32.8200 H   0  0  0  0  0  0  0  0  0  0  0  0
   39.7171   26.0447   35.8141 H   0  0  0  0  0  0  0  0  0  0  0  0
   40.2381   27.7509   35.5154 H   0  0  0  0  0  0  0  0  0  0  0  0
   39.2816   27.7013   33.6224 H   0  0  0  0  0  0  0  0  0  0  0  0
   37.3192   26.8351   36.0892 H   0  0  0  0  0  0  0  0  0  0  0  0
   36.6058   27.9052   35.2255 H   0  0  0  0  0  0  0  0  0  0  0  0
   37.5981   25.0111   33.8970 H   0  0  0  0  0  0  0  0  0  0  0  0
   36.2682   27.1201   33.0632 H   0  0  0  0  0  0  0  0  0  0  0  0
   36.9176   24.0322   32.3175 H   0  0  0  0  0  0  0  0  0  0  0  0
   35.6037   24.4739   31.6157 H   0  0  0  0  0  0  0  0  0  0  0  0
   38.5139   25.7824   31.2772 H   0  0  0  0  0  0  0  0  0  0  0  0
   37.4781   26.5344   30.3902 H   0  0  0  0  0  0  0  0  0  0  0  0
  1  2  2  0
  1  7  1  0
  3  2  1  0
  4  3  2  0
  5  4  1  0
  5  6  2  0
  6  1  1  0
  7  8  1  0
  8  9  2  0
  9 10  1  0
 11 10  2  0
 12 11  1  0
 13 12  2  0
 13  8  1  0
 14  5  1  0
 14 16  1  0
 15 14  1  0
 17 18  1  0
 17 16  1  0
 19 17  1  0
 19 18  1  0
 20 19  1  0
 21 20  1  0
 22 21  1  0
 22 20  1  0
  2 23  1  0
  3 24  1  0
  7 25  1  0
  7 26  1  0
  9 27  1  0
 10 28  1  0
 12 29  1  0
 14 30  1  6
 15 31  1  0
 15 32  1  0
 15 33  1  0
 16 34  1  0
 16 35  1  0
 17 36  1  6
 18 37  1  0
 18 38  1  0
 19 39  1  1
 20 40  1  0
 21 41  1  0
 21 42  1  0
 22 43  1  0
 22 44  1  0
M  ISO  8  23  14  24  14  25   8  26   8  27  14  28  14  29  14  30   8
M  ISO  8  31   8  32   8  33   8  34   8  35   8  36  13  37  13  38  13
M  ISO  6  39  13  40  13  41  13  42  13  43  13  44  13
M  END
>  <minimizedAffinity>  (1) 
-5.33281183

>  <minimizedRMSD>  (1) 
0.819518387

$$$$
