
     RDKit          3D

 39 41  0  0  1  0  0  0  0  0999 V2000
   41.9930   23.2930   36.1480 C   0  0  0  0  0  0  0  0  0  0  0  0
   43.3370   23.5270   36.4380 C   0  0  0  0  0  0  0  0  0  0  0  0
   43.9900   24.6730   35.9820 C   0  0  0  0  0  0  0  0  0  0  0  0
   43.2670   25.5450   35.2500 N   0  0  0  0  0  0  0  0  0  0  0  0
   41.9680   25.3360   34.9600 C   0  0  0  0  0  0  0  0  0  0  0  0
   41.3530   24.2250   35.4080 N   0  0  0  0  0  0  0  0  0  0  0  0
   41.3010   22.0660   36.6520 C   0  0  0  0  0  0  0  0  0  0  0  0
   39.8880   22.4460   36.8900 C   0  0  0  0  0  0  0  0  0  0  0  0
   39.4550   23.0900   38.0090 C   0  0  0  0  0  0  0  0  0  0  0  0
   38.1200   23.4300   38.1880 C   0  0  0  0  0  0  0  0  0  0  0  0
   37.2630   23.0980   37.2020 N   0  0  0  0  0  0  0  0  0  0  0  0
   37.7170   22.4610   36.1010 C   0  0  0  0  0  0  0  0  0  0  0  0
   38.9830   22.1540   35.9670 N   0  0  0  0  0  0  0  0  0  0  0  0
   41.1320   26.2990   34.1620 C   0  0  2  0  0  0  0  0  0  0  0  0
   41.9100   27.3400   33.4920 C   0  0  0  0  0  0  0  0  0  0  0  0
   40.0000   26.7990   35.0570 C   0  0  0  0  0  0  0  0  0  0  0  0
   38.7640   27.0460   34.2810 C   0  0  2  0  0  0  0  0  0  0  0  0
   37.4930   27.4070   34.9930 C   0  0  0  0  0  0  0  0  0  0  0  0
   37.6110   26.1670   34.1780 C   0  0  1  0  0  0  0  0  0  0  0  0
   36.9440   26.0740   32.8530 C   0  0  0  0  0  0  0  0  0  0  0  0
   36.4560   25.1270   32.2640 O   0  0  0  0  0  0  0  0  0  0  0  0
   43.8940   22.7929   37.0387 H   0  0  0  0  0  0  0  0  0  0  0  0
   45.0502   24.8574   36.2101 H   0  0  0  0  0  0  0  0  0  0  0  0
   41.3573   21.2632   35.9021 H   0  0  0  0  0  0  0  0  0  0  0  0
   41.7729   21.6938   37.5733 H   0  0  0  0  0  0  0  0  0  0  0  0
   40.1824   23.3481   38.7928 H   0  0  0  0  0  0  0  0  0  0  0  0
   37.7769   23.9481   39.0957 H   0  0  0  0  0  0  0  0  0  0  0  0
   37.0098   22.1950   35.3015 H   0  0  0  0  0  0  0  0  0  0  0  0
   40.6804   25.7789   33.3044 H   0  0  0  0  0  0  0  0  0  0  0  0
   42.3896   27.9817   34.2458 H   0  0  0  0  0  0  0  0  0  0  0  0
   42.6823   26.8731   32.8631 H   0  0  0  0  0  0  0  0  0  0  0  0
   41.2434   27.9484   32.8631 H   0  0  0  0  0  0  0  0  0  0  0  0
   39.7929   26.0421   35.8279 H   0  0  0  0  0  0  0  0  0  0  0  0
   40.3155   27.7480   35.5150 H   0  0  0  0  0  0  0  0  0  0  0  0
   39.4257   27.4825   33.5184 H   0  0  0  0  0  0  0  0  0  0  0  0
   37.4350   27.3468   36.0898 H   0  0  0  0  0  0  0  0  0  0  0  0
   36.8198   28.2767   35.0121 H   0  0  0  0  0  0  0  0  0  0  0  0
   37.4065   25.1069   34.3885 H   0  0  0  0  0  0  0  0  0  0  0  0
   36.8801   27.0281   32.3093 H   0  0  0  0  0  0  0  0  0  0  0  0
  1  2  2  0
  1  7  1  0
  3  2  1  0
  4  3  2  0
  5  4  1  0
  5  6  2  0
  6  1  1  0
  7  8  1  0
  8  9  2  0
  9 10  1  0
 11 10  2  0
 12 11  1  0
 13 12  2  0
 13  8  1  0
 14  5  1  0
 14 16  1  0
 15 14  1  0
 17 18  1  0
 17 16  1  0
 19 17  1  0
 19 18  1  0
 20 19  1  0
 21 20  2  0
  2 22  1  0
  3 23  1  0
  7 24  1  0
  7 25  1  0
  9 26  1  0
 10 27  1  0
 12 28  1  0
 14 29  1  6
 15 30  1  0
 15 31  1  0
 15 32  1  0
 16 33  1  0
 16 34  1  0
 17 35  1  6
 18 36  1  0
 18 37  1  0
 19 38  1  1
 20 39  1  0
M  ISO  8  22  14  23  14  24   8  25   8  26  14  27  14  28  14  29   8
M  ISO  8  30   8  31   8  32   8  33   8  34   8  35  13  36  13  37  13
M  ISO  2  38  13  39   6
M  END
>  <minimizedAffinity>  (1) 
-5.18944025

>  <minimizedRMSD>  (1) 
0.688814163

$$$$
