
     RDKit          3D

 34 37  0  0  0  0  0  0  0  0999 V2000
   37.9950   24.3810   34.6900 C   0  0  0  0  0  0  0  0  0  0  0  0
   38.0990   23.4590   33.6490 C   0  0  0  0  0  0  0  0  0  0  0  0
   37.7620   23.8440   32.3810 C   0  0  0  0  0  0  0  0  0  0  0  0
   37.3340   25.1050   32.1430 N   0  0  0  0  0  0  0  0  0  0  0  0
   37.2400   25.9860   33.1650 C   0  0  0  0  0  0  0  0  0  0  0  0
   37.5670   25.6340   34.4340 N   0  0  0  0  0  0  0  0  0  0  0  0
   36.8030   27.3280   33.0240 N   0  0  0  0  0  0  0  0  0  0  0  0
   36.2310   27.9280   34.1020 C   0  0  0  0  0  0  0  0  0  0  0  0
   35.9090   29.1750   33.7210 N   0  0  0  0  0  0  0  0  0  0  0  0
   36.2600   29.3810   32.4390 C   0  0  0  0  0  0  0  0  0  0  0  0
   36.2000   30.4030   31.5080 C   0  0  0  0  0  0  0  0  0  0  0  0
   35.6920   31.4850   31.8680 O   0  0  0  0  0  0  0  0  0  0  0  0
   36.6910   30.1710   30.2780 N   0  0  0  0  0  0  0  0  0  0  0  0
   37.2420   29.0260   29.8550 C   0  0  0  0  0  0  0  0  0  0  0  0
   37.6960   28.9980   28.5150 N   0  0  0  0  0  0  0  0  0  0  0  0
   37.3080   28.0100   30.7620 N   0  0  0  0  0  0  0  0  0  0  0  0
   36.8280   28.2000   32.0060 C   0  0  0  0  0  0  0  0  0  0  0  0
   38.3420   24.0120   36.0470 C   0  0  0  0  0  0  0  0  0  0  0  0
   39.3390   23.0610   36.1970 C   0  0  0  0  0  0  0  0  0  0  0  0
   39.6760   22.7010   37.5120 C   0  0  0  0  0  0  0  0  0  0  0  0
   39.0130   23.3000   38.5370 N   0  0  0  0  0  0  0  0  0  0  0  0
   38.0480   24.2230   38.3600 C   0  0  0  0  0  0  0  0  0  0  0  0
   37.7310   24.5610   37.1140 N   0  0  0  0  0  0  0  0  0  0  0  0
   40.6700   21.7470   37.8550 N   0  0  0  0  0  0  0  0  0  0  0  0
   38.4479   22.4345   33.8455 H   0  0  0  0  0  0  0  0  0  0  0  0
   37.8392   23.1257   31.5515 H   0  0  0  0  0  0  0  0  0  0  0  0
   36.0645   27.4796   35.0926 H   0  0  0  0  0  0  0  0  0  0  0  0
   36.6386   30.9441   29.5994 H   0  0  0  0  0  0  0  0  0  0  0  0
   38.1283   28.1436   28.1355 H   0  0  0  0  0  0  0  0  0  0  0  0
   37.5941   29.8320   27.9192 H   0  0  0  0  0  0  0  0  0  0  0  0
   39.8417   22.6103   35.3286 H   0  0  0  0  0  0  0  0  0  0  0  0
   37.5382   24.6827   39.2196 H   0  0  0  0  0  0  0  0  0  0  0  0
   40.8610   21.5355   38.8448 H   0  0  0  0  0  0  0  0  0  0  0  0
   41.2001   21.2664   37.1141 H   0  0  0  0  0  0  0  0  0  0  0  0
  1 18  1  0
  2  1  2  0
  3  2  1  0
  4  3  2  0
  4  5  1  0
  5  6  2  0
  6  1  1  0
  7  5  1  0
  7  8  1  0
  9  8  2  0
 10  9  1  0
 11 12  2  0
 11 10  1  0
 13 11  1  0
 14 13  1  0
 14 16  2  0
 15 14  1  0
 16 17  1  0
 17 10  2  0
 17  7  1  0
 18 19  2  0
 18 23  1  0
 19 20  1  0
 20 24  1  0
 20 21  2  0
 22 21  1  0
 23 22  2  0
  2 25  1  0
  3 26  1  0
  8 27  1  0
 13 28  1  0
 15 29  1  0
 15 30  1  0
 19 31  1  0
 22 32  1  0
 24 33  1  0
 24 34  1  0
M  ISO  6  25  14  26  14  27  14  28   9  31  14  32  14
M  END
>  <minimizedAffinity>  (1) 
-6.58485794

>  <minimizedRMSD>  (1) 
1.3121109

$$$$
