
     RDKit          3D

 36 39  0  0  0  0  0  0  0  0999 V2000
   38.1170   24.5510   34.6950 C   0  0  0  0  0  0  0  0  0  0  0  0
   38.3760   23.7310   33.6250 C   0  0  0  0  0  0  0  0  0  0  0  0
   38.1160   24.1760   32.3580 C   0  0  0  0  0  0  0  0  0  0  0  0
   37.6130   25.4030   32.1730 N   0  0  0  0  0  0  0  0  0  0  0  0
   37.3600   26.2050   33.2120 C   0  0  0  0  0  0  0  0  0  0  0  0
   37.6220   25.7500   34.4400 N   0  0  0  0  0  0  0  0  0  0  0  0
   38.3830   24.1400   36.0730 C   0  0  0  0  0  0  0  0  0  0  0  0
   39.3640   23.1550   36.2260 C   0  0  0  0  0  0  0  0  0  0  0  0
   39.6370   22.7540   37.5400 C   0  0  0  0  0  0  0  0  0  0  0  0
   38.9450   23.3370   38.5590 N   0  0  0  0  0  0  0  0  0  0  0  0
   37.9970   24.2950   38.3680 C   0  0  0  0  0  0  0  0  0  0  0  0
   37.7320   24.6820   37.1150 N   0  0  0  0  0  0  0  0  0  0  0  0
   40.5870   21.7820   37.9010 N   0  0  0  0  0  0  0  0  0  0  0  0
   36.8060   27.5780   33.2460 C   0  0  0  0  0  0  0  0  0  0  0  0
   36.2420   28.1410   34.3990 C   0  0  0  0  0  0  0  0  0  0  0  0
   35.7230   29.3960   34.4640 C   0  0  0  0  0  0  0  0  0  0  0  0
   35.7310   30.1990   33.3500 C   0  0  0  0  0  0  0  0  0  0  0  0
   36.2700   29.6970   32.1950 C   0  0  0  0  0  0  0  0  0  0  0  0
   36.2580   30.5300   31.0960 C   0  0  0  0  0  0  0  0  0  0  0  0
   36.7730   30.1130   29.8930 C   0  0  0  0  0  0  0  0  0  0  0  0
   37.3000   28.8190   29.8510 C   0  0  0  0  0  0  0  0  0  0  0  0
   37.2780   28.0440   30.9890 C   0  0  0  0  0  0  0  0  0  0  0  0
   36.7750   28.4350   32.1850 C   0  0  0  0  0  0  0  0  0  0  0  0
   38.7893   22.7243   33.7852 H   0  0  0  0  0  0  0  0  0  0  0  0
   38.3196   23.5274   31.4932 H   0  0  0  0  0  0  0  0  0  0  0  0
   39.8909   22.7201   35.3639 H   0  0  0  0  0  0  0  0  0  0  0  0
   37.4631   24.7391   39.2210 H   0  0  0  0  0  0  0  0  0  0  0  0
   40.7281   21.5433   38.8930 H   0  0  0  0  0  0  0  0  0  0  0  0
   41.1417   21.3088   37.1734 H   0  0  0  0  0  0  0  0  0  0  0  0
   36.2176   27.5271   35.3114 H   0  0  0  0  0  0  0  0  0  0  0  0
   35.2972   29.7677   35.4077 H   0  0  0  0  0  0  0  0  0  0  0  0
   35.3161   31.2172   33.3842 H   0  0  0  0  0  0  0  0  0  0  0  0
   35.8311   31.5400   31.1839 H   0  0  0  0  0  0  0  0  0  0  0  0
   36.7709   30.7647   29.0069 H   0  0  0  0  0  0  0  0  0  0  0  0
   37.7281   28.4237   28.9180 H   0  0  0  0  0  0  0  0  0  0  0  0
   37.7008   27.0307   30.9222 H   0  0  0  0  0  0  0  0  0  0  0  0
  1  7  1  0
  2  1  2  0
  3  2  1  0
  4  3  2  0
  4  5  1  0
  5 14  1  0
  5  6  2  0
  6  1  1  0
  7  8  2  0
  7 12  1  0
  8  9  1  0
  9 13  1  0
  9 10  2  0
 11 10  1  0
 12 11  2  0
 14 15  2  0
 15 16  1  0
 17 16  2  0
 18 17  1  0
 19 18  2  0
 20 19  1  0
 21 20  2  0
 21 22  1  0
 22 23  2  0
 23 18  1  0
 23 14  1  0
  2 24  1  0
  3 25  1  0
  8 26  1  0
 11 27  1  0
 13 28  1  0
 13 29  1  0
 15 30  1  0
 16 31  1  0
 17 32  1  0
 19 33  1  0
 20 34  1  0
 21 35  1  0
 22 36  1  0
M  ISO  8  24  14  25  14  26  14  27  14  30  14  31  14  32  14  33  14
M  ISO  3  34  14  35  14  36  14
M  END
>  <minimizedAffinity>  (1) 
-6.83292913

>  <minimizedRMSD>  (1) 
1.25010538

$$$$
