
     RDKit          3D

 30 32  0  0  0  0  0  0  0  0999 V2000
   38.0910   24.7270   34.8460 C   0  0  0  0  0  0  0  0  0  0  0  0
   38.3330   23.9590   33.7110 C   0  0  0  0  0  0  0  0  0  0  0  0
   38.0460   24.4490   32.4740 C   0  0  0  0  0  0  0  0  0  0  0  0
   37.5230   25.6900   32.3630 N   0  0  0  0  0  0  0  0  0  0  0  0
   37.2900   26.4320   33.4760 C   0  0  0  0  0  0  0  0  0  0  0  0
   37.5690   25.9610   34.7010 N   0  0  0  0  0  0  0  0  0  0  0  0
   38.3910   24.2220   36.1730 C   0  0  0  0  0  0  0  0  0  0  0  0
   39.3650   23.2430   36.2640 C   0  0  0  0  0  0  0  0  0  0  0  0
   39.6450   22.7680   37.5520 C   0  0  0  0  0  0  0  0  0  0  0  0
   38.9630   23.2830   38.5990 N   0  0  0  0  0  0  0  0  0  0  0  0
   38.0180   24.2360   38.4800 C   0  0  0  0  0  0  0  0  0  0  0  0
   37.7510   24.6870   37.2630 N   0  0  0  0  0  0  0  0  0  0  0  0
   40.6090   21.7660   37.8520 N   0  0  0  0  0  0  0  0  0  0  0  0
   36.7220   27.7800   33.3460 C   0  0  0  0  0  0  0  0  0  0  0  0
   36.2060   28.4270   34.4490 C   0  0  0  0  0  0  0  0  0  0  0  0
   35.6590   29.7060   34.3600 C   0  0  0  0  0  0  0  0  0  0  0  0
   35.6420   30.3270   33.1280 C   0  0  0  0  0  0  0  0  0  0  0  0
   36.1540   29.6970   32.0090 C   0  0  0  0  0  0  0  0  0  0  0  0
   36.6970   28.4200   32.1090 C   0  0  0  0  0  0  0  0  0  0  0  0
   38.7587   22.9500   33.8141 H   0  0  0  0  0  0  0  0  0  0  0  0
   38.2373   23.8427   31.5764 H   0  0  0  0  0  0  0  0  0  0  0  0
   39.8892   22.8598   35.3761 H   0  0  0  0  0  0  0  0  0  0  0  0
   37.4873   24.6256   39.3613 H   0  0  0  0  0  0  0  0  0  0  0  0
   40.7573   21.4695   38.8272 H   0  0  0  0  0  0  0  0  0  0  0  0
   41.1588   21.3369   37.0940 H   0  0  0  0  0  0  0  0  0  0  0  0
   36.2266   27.9203   35.4251 H   0  0  0  0  0  0  0  0  0  0  0  0
   35.2510   30.2078   35.2498 H   0  0  0  0  0  0  0  0  0  0  0  0
   35.2154   31.3366   33.0349 H   0  0  0  0  0  0  0  0  0  0  0  0
   36.1320   30.2078   31.0350 H   0  0  0  0  0  0  0  0  0  0  0  0
   37.1036   27.9194   31.2179 H   0  0  0  0  0  0  0  0  0  0  0  0
  1  7  1  0
  2  1  2  0
  3  2  1  0
  4  3  2  0
  4  5  1  0
  5  6  2  0
  6  1  1  0
  7  8  2  0
  7 12  1  0
  8  9  1  0
  9 13  1  0
  9 10  2  0
 11 10  1  0
 12 11  2  0
 14  5  1  0
 14 15  2  0
 16 15  1  0
 17 16  2  0
 18 19  2  0
 18 17  1  0
 19 14  1  0
  2 20  1  0
  3 21  1  0
  8 22  1  0
 11 23  1  0
 13 24  1  0
 13 25  1  0
 15 26  1  0
 16 27  1  0
 17 28  1  0
 18 29  1  0
 19 30  1  0
M  ISO  8  20  14  21  14  22  14  23  14  26  14  27  14  28  14  29  14
M  ISO  1  30  14
M  END
>  <minimizedAffinity>  (1) 
-5.96097517

>  <minimizedRMSD>  (1) 
0.57175827

$$$$
