
     RDKit          3D

 30 32  0  0  0  0  0  0  0  0999 V2000
   38.2240   24.8070   34.8190 C   0  0  0  0  0  0  0  0  0  0  0  0
   38.7320   24.1920   33.6890 C   0  0  0  0  0  0  0  0  0  0  0  0
   38.4870   24.7150   32.4540 C   0  0  0  0  0  0  0  0  0  0  0  0
   37.7360   25.8500   32.3530 N   0  0  0  0  0  0  0  0  0  0  0  0
   37.2460   26.4410   33.4550 C   0  0  0  0  0  0  0  0  0  0  0  0
   37.4890   25.9240   34.6670 N   0  0  0  0  0  0  0  0  0  0  0  0
   36.4670   27.6230   33.3170 N   0  0  0  0  0  0  0  0  0  0  0  0
   36.2750   28.4500   34.3600 C   0  0  0  0  0  0  0  0  0  0  0  0
   35.5300   29.5890   34.2510 C   0  0  0  0  0  0  0  0  0  0  0  0
   34.9400   29.9400   33.0520 C   0  0  0  0  0  0  0  0  0  0  0  0
   34.2470   30.9630   32.8750 O   0  0  0  0  0  0  0  0  0  0  0  0
   35.1590   29.0850   32.0380 N   0  0  0  0  0  0  0  0  0  0  0  0
   35.8910   27.9660   32.1500 C   0  0  0  0  0  0  0  0  0  0  0  0
   36.0770   27.1800   31.1700 O   0  0  0  0  0  0  0  0  0  0  0  0
   38.4650   24.2760   36.1440 C   0  0  0  0  0  0  0  0  0  0  0  0
   39.4320   23.2900   36.2590 C   0  0  0  0  0  0  0  0  0  0  0  0
   39.6850   22.7600   37.5170 C   0  0  0  0  0  0  0  0  0  0  0  0
   38.9730   23.2360   38.5560 N   0  0  0  0  0  0  0  0  0  0  0  0
   38.0200   24.2100   38.4320 C   0  0  0  0  0  0  0  0  0  0  0  0
   37.7820   24.7150   37.2210 N   0  0  0  0  0  0  0  0  0  0  0  0
   40.6170   21.7620   37.8510 N   0  0  0  0  0  0  0  0  0  0  0  0
   39.3358   23.2778   33.7871 H   0  0  0  0  0  0  0  0  0  0  0  0
   38.8887   24.2294   31.5524 H   0  0  0  0  0  0  0  0  0  0  0  0
   36.7316   28.2015   35.3294 H   0  0  0  0  0  0  0  0  0  0  0  0
   35.3976   30.2364   35.1304 H   0  0  0  0  0  0  0  0  0  0  0  0
   34.7407   29.3014   31.1220 H   0  0  0  0  0  0  0  0  0  0  0  0
   39.9849   22.9364   35.3762 H   0  0  0  0  0  0  0  0  0  0  0  0
   37.4633   24.5680   39.3106 H   0  0  0  0  0  0  0  0  0  0  0  0
   40.7112   21.4517   38.8286 H   0  0  0  0  0  0  0  0  0  0  0  0
   41.2057   21.3411   37.1181 H   0  0  0  0  0  0  0  0  0  0  0  0
  1 15  1  0
  2  1  2  0
  3  2  1  0
  4  3  2  0
  4  5  1  0
  5  6  2  0
  6  1  1  0
  7  5  1  0
  7  8  1  0
  9  8  2  0
 10  9  1  0
 11 10  2  0
 12 13  1  0
 12 10  1  0
 13  7  1  0
 14 13  2  0
 15 16  2  0
 15 20  1  0
 16 17  1  0
 17 21  1  0
 17 18  2  0
 19 18  1  0
 20 19  2  0
  2 22  1  0
  3 23  1  0
  8 24  1  0
  9 25  1  0
 12 26  1  0
 16 27  1  0
 19 28  1  0
 21 29  1  0
 21 30  1  0
M  ISO  7  22  14  23  14  24  14  25  14  26   9  27  14  28  14
M  END
>  <minimizedAffinity>  (1) 
-6.2031889

>  <minimizedRMSD>  (1) 
0.685829997

$$$$
