
     RDKit          3D

 30 31  0  0  1  0  0  0  0  0999 V2000
   41.9290   22.2050   36.3020 C   0  0  0  0  0  0  0  0  0  0  0  0
   42.4960   23.5350   36.3670 N   0  0  0  0  0  0  0  0  0  0  0  0
   42.4690   24.1930   35.0750 C   0  0  0  0  0  0  0  0  0  0  0  0
   43.3460   25.3950   35.3450 C   0  0  0  0  0  0  0  0  0  0  0  0
   44.2520   24.9840   36.5190 C   0  0  0  0  0  0  0  0  0  0  0  0
   43.9080   23.5170   36.6560 C   0  0  2  0  0  0  0  0  0  0  0  0
   44.6350   22.6810   35.6720 C   0  0  0  0  0  0  0  0  0  0  0  0
   45.7540   22.3650   35.9860 O   0  0  0  0  0  0  0  0  0  0  0  0
   41.1150   21.8330   37.4920 C   0  0  0  0  0  0  0  0  0  0  0  0
   37.9080   23.1820   36.0850 C   0  0  0  0  0  0  0  0  0  0  0  0
   39.1390   22.5260   36.2470 C   0  0  0  0  0  0  0  0  0  0  0  0
   39.8290   22.5480   37.4290 C   0  0  0  0  0  0  0  0  0  0  0  0
   39.2520   23.2450   38.4480 N   0  0  0  0  0  0  0  0  0  0  0  0
   38.0790   23.8720   38.3020 C   0  0  0  0  0  0  0  0  0  0  0  0
   37.4120   23.8530   37.1650 N   0  0  0  0  0  0  0  0  0  0  0  0
   41.2859   22.1466   35.4115 H   0  0  0  0  0  0  0  0  0  0  0  0
   42.7736   21.5014   36.2625 H   0  0  0  0  0  0  0  0  0  0  0  0
   41.4481   24.4924   34.7954 H   0  0  0  0  0  0  0  0  0  0  0  0
   42.8071   23.5637   34.2385 H   0  0  0  0  0  0  0  0  0  0  0  0
   43.9507   25.6372   34.4586 H   0  0  0  0  0  0  0  0  0  0  0  0
   42.7519   26.2903   35.5805 H   0  0  0  0  0  0  0  0  0  0  0  0
   45.3154   25.1278   36.2771 H   0  0  0  0  0  0  0  0  0  0  0  0
   44.0972   25.5716   37.4359 H   0  0  0  0  0  0  0  0  0  0  0  0
   44.1757   23.0893   37.6335 H   0  0  0  0  0  0  0  0  0  0  0  0
   44.1830   22.3699   34.7186 H   0  0  0  0  0  0  0  0  0  0  0  0
   40.9351   20.7478   37.4924 H   0  0  0  0  0  0  0  0  0  0  0  0
   41.6510   22.1078   38.4125 H   0  0  0  0  0  0  0  0  0  0  0  0
   37.3663   23.1561   35.1280 H   0  0  0  0  0  0  0  0  0  0  0  0
   39.5635   21.9754   35.3946 H   0  0  0  0  0  0  0  0  0  0  0  0
   37.6580   24.4205   39.1575 H   0  0  0  0  0  0  0  0  0  0  0  0
  1  2  1  0
  1  9  1  0
  2  6  1  0
  3  4  1  0
  3  2  1  0
  4  5  1  0
  5  6  1  0
  7  8  2  0
  7  6  1  0
 10 11  2  0
 10 15  1  0
 11 12  1  0
 12  9  1  0
 12 13  2  0
 14 13  1  0
 15 14  2  0
  1 16  1  0
  1 17  1  0
  3 18  1  0
  3 19  1  0
  4 20  1  0
  4 21  1  0
  5 22  1  0
  5 23  1  0
  6 24  1  1
  7 25  1  0
  9 26  1  0
  9 27  1  0
 10 28  1  0
 11 29  1  0
 14 30  1  0
M  ISO  8  16   8  17   8  18  13  19  13  20  13  21  13  22  13  23  13
M  ISO  7  24  13  25   6  26   8  27   8  28  14  29  14  30  14
M  END
>  <minimizedAffinity>  (1) 
-3.72051835

>  <minimizedRMSD>  (1) 
0.474914968

$$$$
