
     RDKit          3D

 27 29  0  0  0  0  0  0  0  0999 V2000
   38.0780   24.7060   34.9230 C   0  0  0  0  0  0  0  0  0  0  0  0
   38.3240   23.9360   33.7880 C   0  0  0  0  0  0  0  0  0  0  0  0
   38.0090   24.4420   32.5580 C   0  0  0  0  0  0  0  0  0  0  0  0
   37.4670   25.6740   32.4470 N   0  0  0  0  0  0  0  0  0  0  0  0
   37.2350   26.4050   33.5460 C   0  0  0  0  0  0  0  0  0  0  0  0
   37.5350   25.9310   34.7780 N   0  0  0  0  0  0  0  0  0  0  0  0
   38.3970   24.2060   36.2430 C   0  0  0  0  0  0  0  0  0  0  0  0
   39.3720   23.2300   36.3230 C   0  0  0  0  0  0  0  0  0  0  0  0
   39.6920   22.7370   37.5960 C   0  0  0  0  0  0  0  0  0  0  0  0
   39.0210   23.2500   38.6670 N   0  0  0  0  0  0  0  0  0  0  0  0
   38.0690   24.2060   38.5600 C   0  0  0  0  0  0  0  0  0  0  0  0
   37.7720   24.6700   37.3450 N   0  0  0  0  0  0  0  0  0  0  0  0
   40.6580   21.7440   37.8710 N   0  0  0  0  0  0  0  0  0  0  0  0
   36.6470   27.7260   33.3570 C   0  0  0  0  0  0  0  0  0  0  0  0
   36.4280   28.4820   32.2230 C   0  0  0  0  0  0  0  0  0  0  0  0
   35.8300   29.6700   32.6550 C   0  0  0  0  0  0  0  0  0  0  0  0
   35.7120   29.5910   34.0050 N   0  0  0  0  0  0  0  0  0  0  0  0
   36.2050   28.4210   34.4230 N   0  0  0  0  0  0  0  0  0  0  0  0
   38.7663   22.9331   33.8808 H   0  0  0  0  0  0  0  0  0  0  0  0
   38.1977   23.8433   31.6547 H   0  0  0  0  0  0  0  0  0  0  0  0
   39.8781   22.8539   35.4217 H   0  0  0  0  0  0  0  0  0  0  0  0
   37.5532   24.5906   39.4522 H   0  0  0  0  0  0  0  0  0  0  0  0
   40.8257   21.4435   38.8418 H   0  0  0  0  0  0  0  0  0  0  0  0
   41.1948   21.3204   37.1007 H   0  0  0  0  0  0  0  0  0  0  0  0
   36.6744   28.2054   31.1873 H   0  0  0  0  0  0  0  0  0  0  0  0
   35.5144   30.5109   32.0199 H   0  0  0  0  0  0  0  0  0  0  0  0
   35.3065   30.3180   34.6116 H   0  0  0  0  0  0  0  0  0  0  0  0
  1  7  1  0
  2  1  2  0
  3  2  1  0
  4  3  2  0
  4  5  1  0
  5  6  2  0
  6  1  1  0
  7  8  2  0
  7 12  1  0
  8  9  1  0
  9 13  1  0
  9 10  2  0
 11 10  1  0
 12 11  2  0
 14  5  1  0
 14 18  2  0
 15 16  2  0
 15 14  1  0
 16 17  1  0
 17 18  1  0
  2 19  1  0
  3 20  1  0
  8 21  1  0
 11 22  1  0
 13 23  1  0
 13 24  1  0
 15 25  1  0
 16 26  1  0
 17 27  1  0
M  ISO  7  19  14  20  14  21  14  22  14  25  14  26  14  27   9
M  END
>  <minimizedAffinity>  (1) 
-5.3198328

>  <minimizedRMSD>  (1) 
0.577593207

$$$$
