
     RDKit          3D

 27 29  0  0  0  0  0  0  0  0999 V2000
   38.3770   24.0920   36.0890 C   0  0  0  0  0  0  0  0  0  0  0  0
   39.3670   23.1340   36.2350 C   0  0  0  0  0  0  0  0  0  0  0  0
   39.6690   22.7100   37.5270 C   0  0  0  0  0  0  0  0  0  0  0  0
   38.9830   23.2540   38.5500 N   0  0  0  0  0  0  0  0  0  0  0  0
   38.0160   24.1930   38.3780 C   0  0  0  0  0  0  0  0  0  0  0  0
   37.7270   24.5970   37.1470 N   0  0  0  0  0  0  0  0  0  0  0  0
   40.6380   21.7520   37.8830 N   0  0  0  0  0  0  0  0  0  0  0  0
   38.0770   24.5180   34.7320 C   0  0  0  0  0  0  0  0  0  0  0  0
   38.0590   23.6080   33.6840 C   0  0  0  0  0  0  0  0  0  0  0  0
   37.7730   24.0450   32.4190 C   0  0  0  0  0  0  0  0  0  0  0  0
   37.5110   25.3530   32.1980 N   0  0  0  0  0  0  0  0  0  0  0  0
   37.5320   26.2200   33.2150 C   0  0  0  0  0  0  0  0  0  0  0  0
   37.8110   25.8120   34.4720 N   0  0  0  0  0  0  0  0  0  0  0  0
   37.2520   27.6690   33.0300 C   0  0  0  0  0  0  0  0  0  0  0  0
   36.3030   28.3590   33.9430 C   0  0  0  0  0  0  0  0  0  0  0  0
   35.9080   28.1060   32.5250 C   0  0  0  0  0  0  0  0  0  0  0  0
   39.8955   22.7230   35.3622 H   0  0  0  0  0  0  0  0  0  0  0  0
   37.4819   24.6112   39.2439 H   0  0  0  0  0  0  0  0  0  0  0  0
   40.7827   21.5094   38.8735 H   0  0  0  0  0  0  0  0  0  0  0  0
   41.2019   21.2940   37.1529 H   0  0  0  0  0  0  0  0  0  0  0  0
   38.2727   22.5449   33.8686 H   0  0  0  0  0  0  0  0  0  0  0  0
   37.7563   23.3319   31.5817 H   0  0  0  0  0  0  0  0  0  0  0  0
   38.2934   27.8384   32.7189 H   0  0  0  0  0  0  0  0  0  0  0  0
   35.8181   27.7987   34.7560 H   0  0  0  0  0  0  0  0  0  0  0  0
   36.3552   29.2501   34.5858 H   0  0  0  0  0  0  0  0  0  0  0  0
   35.8311   28.9437   31.8163 H   0  0  0  0  0  0  0  0  0  0  0  0
   35.0621   27.6095   32.0271 H   0  0  0  0  0  0  0  0  0  0  0  0
  1  2  2  0
  1  6  1  0
  2  3  1  0
  3  7  1  0
  3  4  2  0
  5  4  1  0
  6  5  2  0
  8  1  1  0
  9  8  2  0
 10  9  1  0
 11 10  2  0
 11 12  1  0
 12 13  2  0
 13  8  1  0
 14 12  1  0
 14 15  1  0
 16 14  1  0
 16 15  1  0
  2 17  1  0
  5 18  1  0
  7 19  1  0
  7 20  1  0
  9 21  1  0
 10 22  1  0
 14 23  1  0
 15 24  1  0
 15 25  1  0
 16 26  1  0
 16 27  1  0
M  ISO  8  17  14  18  14  21  14  22  14  23  13  24  13  25  13  26  13
M  ISO  1  27  13
M  END
>  <minimizedAffinity>  (1) 
-4.95806074

>  <minimizedRMSD>  (1) 
0.727284074

$$$$
