
     RDKit          3D

 40 41  0  0  1  0  0  0  0  0999 V2000
   42.2580   24.6260   34.2140 N   0  0  0  0  0  0  0  0  0  0  0  0
   42.0830   24.3590   32.7850 C   0  0  0  0  0  0  0  0  0  0  0  0
   43.3330   23.5970   32.4460 C   0  0  0  0  0  0  0  0  0  0  0  0
   43.7970   22.9930   33.7840 C   0  0  0  0  0  0  0  0  0  0  0  0
   42.6170   23.3300   34.6550 C   0  0  1  0  0  0  0  0  0  0  0  0
   42.9480   23.0470   36.0440 C   0  0  0  0  0  0  0  0  0  0  0  0
   43.7680   24.0590   36.7830 C   0  0  0  0  0  0  0  0  0  0  0  0
   43.8660   21.8040   35.9940 C   0  0  0  0  0  0  0  0  0  0  0  0
   41.8180   22.6110   36.9470 C   0  0  0  0  0  0  0  0  0  0  0  0
   41.0470   25.1450   34.7920 C   0  0  0  0  0  0  0  0  0  0  0  0
   40.9300   26.6200   34.7260 C   0  0  0  0  0  0  0  0  0  0  0  0
   37.3340   27.6000   35.1210 C   0  0  0  0  0  0  0  0  0  0  0  0
   38.6730   27.2480   35.3690 C   0  0  0  0  0  0  0  0  0  0  0  0
   39.5520   26.9810   34.3520 C   0  0  0  0  0  0  0  0  0  0  0  0
   39.0610   27.0740   33.0860 N   0  0  0  0  0  0  0  0  0  0  0  0
   37.7860   27.4100   32.8440 C   0  0  0  0  0  0  0  0  0  0  0  0
   36.9280   27.6700   33.8200 N   0  0  0  0  0  0  0  0  0  0  0  0
   41.1842   23.7523   32.6003 H   0  0  0  0  0  0  0  0  0  0  0  0
   41.9437   25.2677   32.1810 H   0  0  0  0  0  0  0  0  0  0  0  0
   43.1174   22.8030   31.7159 H   0  0  0  0  0  0  0  0  0  0  0  0
   44.1013   24.2390   31.9903 H   0  0  0  0  0  0  0  0  0  0  0  0
   43.9500   21.9063   33.7086 H   0  0  0  0  0  0  0  0  0  0  0  0
   44.7625   23.3722   34.1500 H   0  0  0  0  0  0  0  0  0  0  0  0
   41.6996   22.7279   34.5778 H   0  0  0  0  0  0  0  0  0  0  0  0
   43.6466   23.9092   37.8660 H   0  0  0  0  0  0  0  0  0  0  0  0
   44.8277   23.9402   36.5129 H   0  0  0  0  0  0  0  0  0  0  0  0
   43.4320   25.0710   36.5129 H   0  0  0  0  0  0  0  0  0  0  0  0
   44.1036   21.4822   37.0187 H   0  0  0  0  0  0  0  0  0  0  0  0
   43.3513   20.9891   35.4639 H   0  0  0  0  0  0  0  0  0  0  0  0
   44.7962   22.0563   35.4639 H   0  0  0  0  0  0  0  0  0  0  0  0
   42.1221   22.7283   37.9976 H   0  0  0  0  0  0  0  0  0  0  0  0
   40.9313   23.2315   36.7504 H   0  0  0  0  0  0  0  0  0  0  0  0
   41.5779   21.5557   36.7504 H   0  0  0  0  0  0  0  0  0  0  0  0
   40.1925   24.7062   34.2559 H   0  0  0  0  0  0  0  0  0  0  0  0
   41.0631   24.8752   35.8583 H   0  0  0  0  0  0  0  0  0  0  0  0
   41.1696   27.0523   35.7087 H   0  0  0  0  0  0  0  0  0  0  0  0
   41.6313   27.0128   33.9751 H   0  0  0  0  0  0  0  0  0  0  0  0
   36.6386   27.8114   35.9466 H   0  0  0  0  0  0  0  0  0  0  0  0
   39.0248   27.1852   36.4093 H   0  0  0  0  0  0  0  0  0  0  0  0
   37.4407   27.4719   31.8014 H   0  0  0  0  0  0  0  0  0  0  0  0
  1  5  1  0
  1 10  1  0
  2  1  1  0
  3  2  1  0
  3  4  1  0
  4  5  1  0
  5  6  1  0
  6  7  1  0
  6  9  1  0
  8  6  1  0
 11 10  1  0
 12 13  2  0
 14 11  1  0
 14 13  1  0
 15 14  2  0
 16 15  1  0
 16 17  2  0
 17 12  1  0
  2 18  1  0
  2 19  1  0
  3 20  1  0
  3 21  1  0
  4 22  1  0
  4 23  1  0
  5 24  1  6
  7 25  1  0
  7 26  1  0
  7 27  1  0
  8 28  1  0
  8 29  1  0
  8 30  1  0
  9 31  1  0
  9 32  1  0
  9 33  1  0
 10 34  1  0
 10 35  1  0
 11 36  1  0
 11 37  1  0
 12 38  1  0
 13 39  1  0
 16 40  1  0
M  ISO  8  18  13  19  13  20  13  21  13  22  13  23  13  24  13  25   8
M  ISO  8  26   8  27   8  28   8  29   8  30   8  31   8  32   8  33   8
M  ISO  7  34   8  35   8  36   8  37   8  38  14  39  14  40  14
M  END
>  <minimizedAffinity>  (1) 
-3.55005002

>  <minimizedRMSD>  (1) 
4.14251471

$$$$
