
     RDKit          3D

 31 33  0  0  0  0  0  0  0  0999 V2000
   37.9920   24.4590   34.8500 C   0  0  0  0  0  0  0  0  0  0  0  0
   38.0390   23.5670   33.7900 C   0  0  0  0  0  0  0  0  0  0  0  0
   37.6780   23.9820   32.5360 C   0  0  0  0  0  0  0  0  0  0  0  0
   37.2800   25.2640   32.3610 N   0  0  0  0  0  0  0  0  0  0  0  0
   37.2350   26.1290   33.3950 C   0  0  0  0  0  0  0  0  0  0  0  0
   37.5880   25.7380   34.6450 N   0  0  0  0  0  0  0  0  0  0  0  0
   38.3690   24.0360   36.1820 C   0  0  0  0  0  0  0  0  0  0  0  0
   39.3540   23.0870   36.2990 C   0  0  0  0  0  0  0  0  0  0  0  0
   39.7200   22.6780   37.5820 C   0  0  0  0  0  0  0  0  0  0  0  0
   39.0780   23.2420   38.6340 N   0  0  0  0  0  0  0  0  0  0  0  0
   38.1050   24.1790   38.5120 C   0  0  0  0  0  0  0  0  0  0  0  0
   37.7760   24.5520   37.2860 N   0  0  0  0  0  0  0  0  0  0  0  0
   40.7050   21.7190   37.8890 N   0  0  0  0  0  0  0  0  0  0  0  0
   36.7080   27.7940   33.1140 S   0  0  0  0  0  0  0  0  0  0  0  0
   37.2380   28.4600   31.5800 C   0  0  0  0  0  0  0  0  0  0  0  0
   36.4280   29.5520   31.2360 C   0  0  0  0  0  0  0  0  0  0  0  0
   36.6280   30.2730   30.0570 C   0  0  0  0  0  0  0  0  0  0  0  0
   37.6460   29.9150   29.1950 C   0  0  0  0  0  0  0  0  0  0  0  0
   38.4470   28.8410   29.5270 C   0  0  0  0  0  0  0  0  0  0  0  0
   38.2370   28.1470   30.6850 C   0  0  0  0  0  0  0  0  0  0  0  0
   38.3651   22.5296   33.9556 H   0  0  0  0  0  0  0  0  0  0  0  0
   37.7109   23.2855   31.6853 H   0  0  0  0  0  0  0  0  0  0  0  0
   39.8400   22.6619   35.4085 H   0  0  0  0  0  0  0  0  0  0  0  0
   37.6105   24.6104   39.3948 H   0  0  0  0  0  0  0  0  0  0  0  0
   40.9052   21.4826   38.8713 H   0  0  0  0  0  0  0  0  0  0  0  0
   41.2251   21.2541   37.1312 H   0  0  0  0  0  0  0  0  0  0  0  0
   35.6133   29.8485   31.9131 H   0  0  0  0  0  0  0  0  0  0  0  0
   35.9756   31.1250   29.8151 H   0  0  0  0  0  0  0  0  0  0  0  0
   37.8150   30.4743   28.2630 H   0  0  0  0  0  0  0  0  0  0  0  0
   39.2625   28.5409   28.8526 H   0  0  0  0  0  0  0  0  0  0  0  0
   38.8975   27.2975   30.9135 H   0  0  0  0  0  0  0  0  0  0  0  0
  1  7  1  0
  2  1  2  0
  3  2  1  0
  4  3  2  0
  4  5  1  0
  5  6  2  0
  6  1  1  0
  7  8  2  0
  7 12  1  0
  8  9  1  0
  9 13  1  0
  9 10  2  0
 11 10  1  0
 12 11  2  0
 14  5  1  0
 15 14  1  0
 16 15  2  0
 17 16  1  0
 18 19  1  0
 18 17  2  0
 19 20  2  0
 20 15  1  0
  2 21  1  0
  3 22  1  0
  8 23  1  0
 11 24  1  0
 13 25  1  0
 13 26  1  0
 16 27  1  0
 17 28  1  0
 18 29  1  0
 19 30  1  0
 20 31  1  0
M  ISO  8  21  14  22  14  23  14  24  14  27  14  28  14  29  14  30  14
M  ISO  1  31  14
M  END
>  <minimizedAffinity>  (1) 
-5.48500204

>  <minimizedRMSD>  (1) 
1.34167385

$$$$
