
     RDKit          3D

 28 30  0  0  0  0  0  0  0  0999 V2000
   37.9820   24.7960   35.0920 C   0  0  0  0  0  0  0  0  0  0  0  0
   38.1250   24.0610   33.9260 C   0  0  0  0  0  0  0  0  0  0  0  0
   37.7570   24.6000   32.7230 C   0  0  0  0  0  0  0  0  0  0  0  0
   37.2500   25.8720   32.6990 N   0  0  0  0  0  0  0  0  0  0  0  0
   37.1160   26.5740   33.8320 C   0  0  0  0  0  0  0  0  0  0  0  0
   37.4730   26.0550   35.0200 N   0  0  0  0  0  0  0  0  0  0  0  0
   38.3600   24.2530   36.3690 C   0  0  0  0  0  0  0  0  0  0  0  0
   39.3200   23.2720   36.3840 C   0  0  0  0  0  0  0  0  0  0  0  0
   39.6890   22.7410   37.6240 C   0  0  0  0  0  0  0  0  0  0  0  0
   39.0820   23.2230   38.7270 N   0  0  0  0  0  0  0  0  0  0  0  0
   38.1490   24.1800   38.7050 C   0  0  0  0  0  0  0  0  0  0  0  0
   37.8000   24.6800   37.5270 N   0  0  0  0  0  0  0  0  0  0  0  0
   40.6690   21.7180   37.7930 N   0  0  0  0  0  0  0  0  0  0  0  0
   36.4510   28.2170   33.7350 S   0  0  0  0  0  0  0  0  0  0  0  0
   36.4940   28.8090   32.0520 C   0  0  0  0  0  0  0  0  0  0  0  0
   37.5460   28.6260   31.1970 C   0  0  0  0  0  0  0  0  0  0  0  0
   37.2440   29.2030   29.9990 C   0  0  0  0  0  0  0  0  0  0  0  0
   36.0130   29.7350   30.1230 N   0  0  0  0  0  0  0  0  0  0  0  0
   35.5760   29.4940   31.3500 N   0  0  0  0  0  0  0  0  0  0  0  0
   38.5355   23.0413   33.9674 H   0  0  0  0  0  0  0  0  0  0  0  0
   37.8664   24.0226   31.7932 H   0  0  0  0  0  0  0  0  0  0  0  0
   39.7834   22.9156   35.4522 H   0  0  0  0  0  0  0  0  0  0  0  0
   37.6852   24.5415   39.6346 H   0  0  0  0  0  0  0  0  0  0  0  0
   40.8939   21.3711   38.7364 H   0  0  0  0  0  0  0  0  0  0  0  0
   41.1516   21.3264   36.9716 H   0  0  0  0  0  0  0  0  0  0  0  0
   38.4818   28.0998   31.4365 H   0  0  0  0  0  0  0  0  0  0  0  0
   37.8827   29.2289   29.1038 H   0  0  0  0  0  0  0  0  0  0  0  0
   35.4990   30.2427   29.3889 H   0  0  0  0  0  0  0  0  0  0  0  0
  1  7  1  0
  2  1  2  0
  3  2  1  0
  4  3  2  0
  4  5  1  0
  5  6  2  0
  6  1  1  0
  7  8  2  0
  7 12  1  0
  8  9  1  0
  9 13  1  0
  9 10  2  0
 11 10  1  0
 12 11  2  0
 14  5  1  0
 15 14  1  0
 16 15  1  0
 17 18  1  0
 17 16  2  0
 18 19  1  0
 19 15  2  0
  2 20  1  0
  3 21  1  0
  8 22  1  0
 11 23  1  0
 13 24  1  0
 13 25  1  0
 16 26  1  0
 17 27  1  0
 18 28  1  0
M  ISO  7  20  14  21  14  22  14  23  14  26  14  27  14  28   9
M  END
>  <minimizedAffinity>  (1) 
-5.32798958

>  <minimizedRMSD>  (1) 
0.432867527

$$$$
