
     RDKit          3D

 36 38  0  0  0  0  0  0  0  0999 V2000
   38.0720   24.2390   34.6230 C   0  0  0  0  0  0  0  0  0  0  0  0
   37.8400   23.2560   33.6770 C   0  0  0  0  0  0  0  0  0  0  0  0
   37.5310   23.5730   32.3930 C   0  0  0  0  0  0  0  0  0  0  0  0
   37.4520   24.8850   32.0530 N   0  0  0  0  0  0  0  0  0  0  0  0
   37.6750   25.8380   32.9640 C   0  0  0  0  0  0  0  0  0  0  0  0
   37.9860   25.5430   34.2570 N   0  0  0  0  0  0  0  0  0  0  0  0
   38.3970   23.8990   35.9840 C   0  0  0  0  0  0  0  0  0  0  0  0
   39.4000   22.9680   36.1930 C   0  0  0  0  0  0  0  0  0  0  0  0
   39.6860   22.6620   37.5300 C   0  0  0  0  0  0  0  0  0  0  0  0
   38.9840   23.2790   38.5170 N   0  0  0  0  0  0  0  0  0  0  0  0
   38.0090   24.1860   38.2830 C   0  0  0  0  0  0  0  0  0  0  0  0
   37.7360   24.4760   37.0220 N   0  0  0  0  0  0  0  0  0  0  0  0
   40.6770   21.7360   37.9280 N   0  0  0  0  0  0  0  0  0  0  0  0
   37.5600   27.5270   32.4520 S   0  0  0  0  0  0  0  0  0  0  0  0
   34.3110   30.4930   33.4500 N   0  0  0  0  0  0  0  0  0  0  0  0
   34.4810   30.0320   32.0960 C   0  0  0  0  0  0  0  0  0  0  0  0
   35.9310   29.5790   31.9800 C   0  0  0  0  0  0  0  0  0  0  0  0
   36.0190   28.3340   32.8720 C   0  0  0  0  0  0  0  0  0  0  0  0
   35.9760   28.8700   34.2910 C   0  0  0  0  0  0  0  0  0  0  0  0
   34.6210   29.5220   34.4510 C   0  0  0  0  0  0  0  0  0  0  0  0
   37.9071   22.1980   33.9705 H   0  0  0  0  0  0  0  0  0  0  0  0
   37.3491   22.7857   31.6466 H   0  0  0  0  0  0  0  0  0  0  0  0
   39.9403   22.4965   35.3589 H   0  0  0  0  0  0  0  0  0  0  0  0
   37.4637   24.6644   39.1099 H   0  0  0  0  0  0  0  0  0  0  0  0
   40.8398   21.5542   38.9287 H   0  0  0  0  0  0  0  0  0  0  0  0
   41.2363   21.2430   37.2173 H   0  0  0  0  0  0  0  0  0  0  0  0
   33.3287   30.7778   33.5717 H   0  0  0  0  0  0  0  0  0  0  0  0
   33.8014   29.1916   31.8912 H   0  0  0  0  0  0  0  0  0  0  0  0
   34.2498   30.8257   31.3704 H   0  0  0  0  0  0  0  0  0  0  0  0
   36.1775   29.3283   30.9377 H   0  0  0  0  0  0  0  0  0  0  0  0
   36.6391   30.3630   32.2863 H   0  0  0  0  0  0  0  0  0  0  0  0
   35.2148   27.5937   32.7486 H   0  0  0  0  0  0  0  0  0  0  0  0
   36.0923   28.0485   35.0133 H   0  0  0  0  0  0  0  0  0  0  0  0
   36.7910   29.5853   34.4757 H   0  0  0  0  0  0  0  0  0  0  0  0
   34.5918   30.0182   35.4323 H   0  0  0  0  0  0  0  0  0  0  0  0
   33.8737   28.7208   34.3530 H   0  0  0  0  0  0  0  0  0  0  0  0
  1  7  1  0
  2  1  2  0
  3  2  1  0
  4  3  2  0
  4  5  1  0
  5  6  2  0
  6  1  1  0
  7  8  2  0
  7 12  1  0
  8  9  1  0
  9 13  1  0
  9 10  2  0
 11 10  1  0
 12 11  2  0
 14 18  1  0
 14  5  1  0
 15 20  1  0
 16 15  1  0
 17 16  1  0
 17 18  1  0
 18 19  1  0
 19 20  1  0
  2 21  1  0
  3 22  1  0
  8 23  1  0
 11 24  1  0
 13 25  1  0
 13 26  1  0
 15 27  1  0
 16 28  1  0
 16 29  1  0
 17 30  1  0
 17 31  1  0
 18 32  1  0
 19 33  1  0
 19 34  1  0
 20 35  1  0
 20 36  1  0
M  ISO  8  21  14  22  14  23  14  24  14  27   5  28  13  29  13  30  13
M  ISO  6  31  13  32  13  33  13  34  13  35  13  36  13
M  END
>  <minimizedAffinity>  (1) 
-5.36643982

>  <minimizedRMSD>  (1) 
1.63184834

$$$$
