
     RDKit          3D

 31 33  0  0  0  0  0  0  0  0999 V2000
   38.1430   24.0930   34.4900 C   0  0  0  0  0  0  0  0  0  0  0  0
   37.7490   23.0700   33.6220 C   0  0  0  0  0  0  0  0  0  0  0  0
   37.4680   23.3510   32.3130 C   0  0  0  0  0  0  0  0  0  0  0  0
   37.5790   24.6330   31.8680 N   0  0  0  0  0  0  0  0  0  0  0  0
   37.9620   25.6130   32.7180 C   0  0  0  0  0  0  0  0  0  0  0  0
   38.2470   25.3670   34.0240 N   0  0  0  0  0  0  0  0  0  0  0  0
   38.4410   23.8070   35.8710 C   0  0  0  0  0  0  0  0  0  0  0  0
   39.4370   22.8920   36.1270 C   0  0  0  0  0  0  0  0  0  0  0  0
   39.7100   22.6290   37.4800 C   0  0  0  0  0  0  0  0  0  0  0  0
   38.9820   23.2890   38.4290 N   0  0  0  0  0  0  0  0  0  0  0  0
   38.0190   24.1750   38.1510 C   0  0  0  0  0  0  0  0  0  0  0  0
   37.7700   24.4140   36.8790 N   0  0  0  0  0  0  0  0  0  0  0  0
   40.6980   21.7180   37.9180 N   0  0  0  0  0  0  0  0  0  0  0  0
   38.0980   27.2820   32.1140 S   0  0  0  0  0  0  0  0  0  0  0  0
   36.7420   28.3090   32.6470 C   0  0  0  0  0  0  0  0  0  0  0  0
   36.2690   28.3880   33.9410 C   0  0  0  0  0  0  0  0  0  0  0  0
   35.2080   29.2190   34.2480 C   0  0  0  0  0  0  0  0  0  0  0  0
   34.6440   29.9570   33.2290 C   0  0  0  0  0  0  0  0  0  0  0  0
   35.0720   29.9200   31.9210 C   0  0  0  0  0  0  0  0  0  0  0  0
   36.1450   29.0700   31.6500 C   0  0  0  0  0  0  0  0  0  0  0  0
   37.6649   22.0376   33.9923 H   0  0  0  0  0  0  0  0  0  0  0  0
   37.1557   22.5497   31.6272 H   0  0  0  0  0  0  0  0  0  0  0  0
   39.9892   22.3938   35.3165 H   0  0  0  0  0  0  0  0  0  0  0  0
   37.4588   24.6825   38.9501 H   0  0  0  0  0  0  0  0  0  0  0  0
   40.8505   21.5688   38.9257 H   0  0  0  0  0  0  0  0  0  0  0  0
   41.2655   21.2034   37.2295 H   0  0  0  0  0  0  0  0  0  0  0  0
   36.7391   27.7862   34.7327 H   0  0  0  0  0  0  0  0  0  0  0  0
   34.8243   29.2896   35.2765 H   0  0  0  0  0  0  0  0  0  0  0  0
   33.7992   30.6166   33.4766 H   0  0  0  0  0  0  0  0  0  0  0  0
   34.5959   30.5251   31.1354 H   0  0  0  0  0  0  0  0  0  0  0  0
   36.5277   29.0009   30.6210 H   0  0  0  0  0  0  0  0  0  0  0  0
  1  7  1  0
  2  1  2  0
  3  2  1  0
  4  3  2  0
  4  5  1  0
  5  6  2  0
  6  1  1  0
  7  8  2  0
  7 12  1  0
  8  9  1  0
  9 13  1  0
  9 10  2  0
 11 10  1  0
 12 11  2  0
 14 15  1  0
 14  5  1  0
 15 16  2  0
 16 17  1  0
 18 17  2  0
 19 18  1  0
 20 19  2  0
 20 15  1  0
  2 21  1  0
  3 22  1  0
  8 23  1  0
 11 24  1  0
 13 25  1  0
 13 26  1  0
 16 27  1  0
 17 28  1  0
 18 29  1  0
 19 30  1  0
 20 31  1  0
M  ISO  8  21  14  22  14  23  14  24  14  27  14  28  14  29  14  30  14
M  ISO  1  31  14
M  END
>  <minimizedAffinity>  (1) 
-5.43887234

>  <minimizedRMSD>  (1) 
1.95933318

$$$$
