
     RDKit          3D

 29 30  0  0  1  0  0  0  0  0999 V2000
   41.8460   22.6800   35.7870 C   0  0  0  0  0  0  0  0  0  0  0  0
   42.2190   24.0720   35.6520 N   0  0  0  0  0  0  0  0  0  0  0  0
   41.4080   24.7430   34.6620 C   0  0  0  0  0  0  0  0  0  0  0  0
   42.1630   26.0480   34.5070 C   0  0  0  0  0  0  0  0  0  0  0  0
   43.6070   25.7360   34.9270 C   0  0  0  0  0  0  0  0  0  0  0  0
   43.5510   24.2490   35.1310 C   0  0  1  0  0  0  0  0  0  0  0  0
   44.7950   23.8100   36.3790 S   0  0  0  0  0  0  0  0  0  0  0  0
   41.3560   22.3150   37.1470 C   0  0  0  0  0  0  0  0  0  0  0  0
   37.7440   22.5070   36.1240 C   0  0  0  0  0  0  0  0  0  0  0  0
   39.1270   22.2690   36.1570 C   0  0  0  0  0  0  0  0  0  0  0  0
   39.9140   22.6110   37.2240 C   0  0  0  0  0  0  0  0  0  0  0  0
   39.2760   23.2000   38.2640 N   0  0  0  0  0  0  0  0  0  0  0  0
   37.9570   23.4340   38.2510 C   0  0  0  0  0  0  0  0  0  0  0  0
   37.1980   23.1050   37.2220 N   0  0  0  0  0  0  0  0  0  0  0  0
   42.7267   22.0617   35.5587 H   0  0  0  0  0  0  0  0  0  0  0  0
   41.0138   22.5034   35.0897 H   0  0  0  0  0  0  0  0  0  0  0  0
   41.3755   24.1803   33.7174 H   0  0  0  0  0  0  0  0  0  0  0  0
   40.3516   24.8608   34.9450 H   0  0  0  0  0  0  0  0  0  0  0  0
   42.1314   26.3891   33.4617 H   0  0  0  0  0  0  0  0  0  0  0  0
   41.7234   26.8501   35.1181 H   0  0  0  0  0  0  0  0  0  0  0  0
   44.3218   26.0054   34.1355 H   0  0  0  0  0  0  0  0  0  0  0  0
   43.9452   26.2954   35.8117 H   0  0  0  0  0  0  0  0  0  0  0  0
   43.7485   23.6374   34.2383 H   0  0  0  0  0  0  0  0  0  0  0  0
   44.2708   23.9950   37.6311 H   0  0  0  0  0  0  0  0  0  0  0  0
   41.5240   21.2427   37.3257 H   0  0  0  0  0  0  0  0  0  0  0  0
   41.8989   22.8933   37.9091 H   0  0  0  0  0  0  0  0  0  0  0  0
   37.1306   22.2252   35.2555 H   0  0  0  0  0  0  0  0  0  0  0  0
   39.5989   21.7869   35.2881 H   0  0  0  0  0  0  0  0  0  0  0  0
   37.4921   23.9149   39.1243 H   0  0  0  0  0  0  0  0  0  0  0  0
  1  8  1  0
  2  1  1  0
  3  2  1  0
  4  3  1  0
  4  5  1  0
  5  6  1  0
  6  2  1  0
  6  7  1  0
  8 11  1  0
  9 10  2  0
  9 14  1  0
 10 11  1  0
 11 12  2  0
 13 12  1  0
 14 13  2  0
  1 15  1  0
  1 16  1  0
  3 17  1  0
  3 18  1  0
  4 19  1  0
  4 20  1  0
  5 21  1  0
  5 22  1  0
  6 23  1  6
  7 24  1  0
  8 25  1  0
  8 26  1  0
  9 27  1  0
 10 28  1  0
 13 29  1  0
M  ISO  8  15   8  16   8  17  13  18  13  19  13  20  13  21  13  22  13
M  ISO  7  23  13  24  11  25   8  26   8  27  14  28  14  29  14
M  END
>  <minimizedAffinity>  (1) 
-3.47856808

>  <minimizedRMSD>  (1) 
1.1892457

$$$$
