
     RDKit          3D

 29 31  0  0  0  0  0  0  0  0999 V2000
   38.0780   24.2270   34.6030 C   0  0  0  0  0  0  0  0  0  0  0  0
   37.8130   23.2430   33.6680 C   0  0  0  0  0  0  0  0  0  0  0  0
   37.5290   23.5690   32.3850 C   0  0  0  0  0  0  0  0  0  0  0  0
   37.5030   24.8730   32.0160 N   0  0  0  0  0  0  0  0  0  0  0  0
   37.7640   25.8320   32.9340 C   0  0  0  0  0  0  0  0  0  0  0  0
   38.0520   25.5340   34.2280 N   0  0  0  0  0  0  0  0  0  0  0  0
   38.3880   23.8980   35.9800 C   0  0  0  0  0  0  0  0  0  0  0  0
   39.3860   22.9710   36.1910 C   0  0  0  0  0  0  0  0  0  0  0  0
   39.6770   22.6670   37.5240 C   0  0  0  0  0  0  0  0  0  0  0  0
   38.9650   23.2950   38.5010 N   0  0  0  0  0  0  0  0  0  0  0  0
   38.0020   24.1900   38.2710 C   0  0  0  0  0  0  0  0  0  0  0  0
   37.7320   24.4740   37.0160 N   0  0  0  0  0  0  0  0  0  0  0  0
   40.6720   21.7380   37.9220 N   0  0  0  0  0  0  0  0  0  0  0  0
   37.7280   27.5440   32.4400 S   0  0  0  0  0  0  0  0  0  0  0  0
   36.1840   28.3220   32.8930 C   0  0  0  0  0  0  0  0  0  0  0  0
   36.1450   28.7540   34.2140 C   0  0  0  0  0  0  0  0  0  0  0  0
   34.9960   29.3810   34.7040 C   0  0  0  0  0  0  0  0  0  0  0  0
   33.9380   29.5630   33.9000 N   0  0  0  0  0  0  0  0  0  0  0  0
   34.0180   29.1270   32.6170 C   0  0  0  0  0  0  0  0  0  0  0  0
   35.0970   28.5170   32.0910 N   0  0  0  0  0  0  0  0  0  0  0  0
   37.8332   22.1854   33.9696 H   0  0  0  0  0  0  0  0  0  0  0  0
   37.3207   22.7806   31.6467 H   0  0  0  0  0  0  0  0  0  0  0  0
   39.9236   22.4967   35.3567 H   0  0  0  0  0  0  0  0  0  0  0  0
   37.4569   24.6701   39.0971 H   0  0  0  0  0  0  0  0  0  0  0  0
   40.8380   21.5582   38.9225 H   0  0  0  0  0  0  0  0  0  0  0  0
   41.2286   21.2431   37.2105 H   0  0  0  0  0  0  0  0  0  0  0  0
   37.0146   28.6030   34.8705 H   0  0  0  0  0  0  0  0  0  0  0  0
   34.9594   29.7249   35.7482 H   0  0  0  0  0  0  0  0  0  0  0  0
   33.1455   29.2819   31.9653 H   0  0  0  0  0  0  0  0  0  0  0  0
  1  7  1  0
  2  1  2  0
  3  2  1  0
  4  3  2  0
  4  5  1  0
  5  6  2  0
  6  1  1  0
  7  8  2  0
  7 12  1  0
  8  9  1  0
  9 13  1  0
  9 10  2  0
 11 10  1  0
 12 11  2  0
 14 15  1  0
 14  5  1  0
 15 16  2  0
 16 17  1  0
 18 17  2  0
 19 18  1  0
 20 19  2  0
 20 15  1  0
  2 21  1  0
  3 22  1  0
  8 23  1  0
 11 24  1  0
 13 25  1  0
 13 26  1  0
 16 27  1  0
 17 28  1  0
 19 29  1  0
M  ISO  7  21  14  22  14  23  14  24  14  27  14  28  14  29  14
M  END
>  <minimizedAffinity>  (1) 
-5.218575

>  <minimizedRMSD>  (1) 
1.57038343

$$$$
