
     RDKit          3D

 34 36  0  0  0  0  0  0  0  0999 V2000
   38.0770   24.2310   34.5780 C   0  0  0  0  0  0  0  0  0  0  0  0
   37.8450   23.2400   33.6390 C   0  0  0  0  0  0  0  0  0  0  0  0
   37.5610   23.5730   32.3520 C   0  0  0  0  0  0  0  0  0  0  0  0
   37.5050   24.8960   31.9930 N   0  0  0  0  0  0  0  0  0  0  0  0
   37.7330   25.8390   32.9160 C   0  0  0  0  0  0  0  0  0  0  0  0
   38.0180   25.5350   34.2040 N   0  0  0  0  0  0  0  0  0  0  0  0
   38.3850   23.9060   35.9540 C   0  0  0  0  0  0  0  0  0  0  0  0
   39.3750   22.9840   36.1800 C   0  0  0  0  0  0  0  0  0  0  0  0
   39.6860   22.6600   37.4980 C   0  0  0  0  0  0  0  0  0  0  0  0
   38.9890   23.2780   38.4750 N   0  0  0  0  0  0  0  0  0  0  0  0
   38.0140   24.1860   38.2400 C   0  0  0  0  0  0  0  0  0  0  0  0
   37.7300   24.4830   36.9930 N   0  0  0  0  0  0  0  0  0  0  0  0
   40.6640   21.7410   37.9170 N   0  0  0  0  0  0  0  0  0  0  0  0
   37.6560   27.5420   32.4040 S   0  0  0  0  0  0  0  0  0  0  0  0
   36.0630   28.2240   32.8260 C   0  0  0  0  0  0  0  0  0  0  0  0
   36.0480   28.8430   34.2310 C   0  0  0  0  0  0  0  0  0  0  0  0
   34.6040   29.3670   34.2150 C   0  0  0  0  0  0  0  0  0  0  0  0
   34.4780   29.9780   32.8120 C   0  0  0  0  0  0  0  0  0  0  0  0
   35.6930   29.4740   32.0330 C   0  0  0  0  0  0  0  0  0  0  0  0
   37.8906   22.1816   33.9350 H   0  0  0  0  0  0  0  0  0  0  0  0
   37.3775   22.7876   31.6040 H   0  0  0  0  0  0  0  0  0  0  0  0
   39.9094   22.5128   35.3419 H   0  0  0  0  0  0  0  0  0  0  0  0
   37.4738   24.6626   39.0713 H   0  0  0  0  0  0  0  0  0  0  0  0
   40.8160   21.5730   38.9218 H   0  0  0  0  0  0  0  0  0  0  0  0
   41.2285   21.2357   37.2192 H   0  0  0  0  0  0  0  0  0  0  0  0
   35.4031   27.3592   32.6626 H   0  0  0  0  0  0  0  0  0  0  0  0
   36.2109   28.0930   35.0190 H   0  0  0  0  0  0  0  0  0  0  0  0
   36.8305   29.5872   34.4402 H   0  0  0  0  0  0  0  0  0  0  0  0
   33.8838   28.5476   34.3562 H   0  0  0  0  0  0  0  0  0  0  0  0
   34.3924   30.0837   35.0222 H   0  0  0  0  0  0  0  0  0  0  0  0
   33.5474   29.6440   32.3300 H   0  0  0  0  0  0  0  0  0  0  0  0
   34.4452   31.0769   32.8483 H   0  0  0  0  0  0  0  0  0  0  0  0
   35.4305   29.2278   30.9936 H   0  0  0  0  0  0  0  0  0  0  0  0
   36.5073   30.2084   31.9462 H   0  0  0  0  0  0  0  0  0  0  0  0
  1  7  1  0
  2  1  2  0
  3  2  1  0
  4  3  2  0
  4  5  1  0
  5  6  2  0
  6  1  1  0
  7  8  2  0
  7 12  1  0
  8  9  1  0
  9 13  1  0
  9 10  2  0
 11 10  1  0
 12 11  2  0
 14 15  1  0
 14  5  1  0
 15 16  1  0
 17 16  1  0
 18 17  1  0
 19 18  1  0
 19 15  1  0
  2 20  1  0
  3 21  1  0
  8 22  1  0
 11 23  1  0
 13 24  1  0
 13 25  1  0
 15 26  1  0
 16 27  1  0
 16 28  1  0
 17 29  1  0
 17 30  1  0
 18 31  1  0
 18 32  1  0
 19 33  1  0
 19 34  1  0
M  ISO  8  20  14  21  14  22  14  23  14  26  13  27  13  28  13  29  13
M  ISO  5  30  13  31  13  32  13  33  13  34  13
M  END
>  <minimizedAffinity>  (1) 
-5.23167515

>  <minimizedRMSD>  (1) 
1.51877522

$$$$
