
     RDKit          3D

 29 31  0  0  0  0  0  0  0  0999 V2000
   37.8500   26.6860   33.6960 C   0  0  0  0  0  0  0  0  0  0  0  0
   38.6100   26.8920   32.5580 C   0  0  0  0  0  0  0  0  0  0  0  0
   38.1900   27.8180   31.6390 C   0  0  0  0  0  0  0  0  0  0  0  0
   37.0450   28.5170   31.8490 N   0  0  0  0  0  0  0  0  0  0  0  0
   36.3100   28.3010   32.9710 C   0  0  0  0  0  0  0  0  0  0  0  0
   36.7280   27.3950   33.8650 N   0  0  0  0  0  0  0  0  0  0  0  0
   38.2430   25.7250   34.6960 C   0  0  0  0  0  0  0  0  0  0  0  0
   39.2800   24.8650   34.3790 C   0  0  0  0  0  0  0  0  0  0  0  0
   39.6600   23.9350   35.3500 C   0  0  0  0  0  0  0  0  0  0  0  0
   38.9930   23.9300   36.5390 N   0  0  0  0  0  0  0  0  0  0  0  0
   37.9830   24.7800   36.8270 C   0  0  0  0  0  0  0  0  0  0  0  0
   37.6280   25.6580   35.9020 N   0  0  0  0  0  0  0  0  0  0  0  0
   40.6930   22.9890   35.1910 N   0  0  0  0  0  0  0  0  0  0  0  0
   34.8300   29.2460   33.1780 S   0  0  0  0  0  0  0  0  0  0  0  0
   34.8270   30.2890   34.6150 C   0  0  0  0  0  0  0  0  0  0  0  0
   35.8170   31.0080   35.2490 C   0  0  0  0  0  0  0  0  0  0  0  0
   35.5190   31.7470   36.3720 C   0  0  0  0  0  0  0  0  0  0  0  0
   34.2890   31.7920   36.8750 N   0  0  0  0  0  0  0  0  0  0  0  0
   33.3130   31.0830   36.2480 C   0  0  0  0  0  0  0  0  0  0  0  0
   33.5670   30.3430   35.1410 N   0  0  0  0  0  0  0  0  0  0  0  0
   39.5362   26.3218   32.3937 H   0  0  0  0  0  0  0  0  0  0  0  0
   38.7820   27.9954   30.7290 H   0  0  0  0  0  0  0  0  0  0  0  0
   39.7844   24.9117   33.4026 H   0  0  0  0  0  0  0  0  0  0  0  0
   37.4714   24.7436   37.8001 H   0  0  0  0  0  0  0  0  0  0  0  0
   40.9144   22.3349   35.9552 H   0  0  0  0  0  0  0  0  0  0  0  0
   41.2263   22.9519   34.3106 H   0  0  0  0  0  0  0  0  0  0  0  0
   36.8451   30.9916   34.8581 H   0  0  0  0  0  0  0  0  0  0  0  0
   36.3204   32.3156   36.8665 H   0  0  0  0  0  0  0  0  0  0  0  0
   32.2894   31.1106   36.6499 H   0  0  0  0  0  0  0  0  0  0  0  0
  1  6  1  0
  1  7  1  0
  2  1  2  0
  3  4  2  0
  3  2  1  0
  4  5  1  0
  5 14  1  0
  5  6  2  0
  7 12  1  0
  8  7  2  0
  8  9  1  0
  9 10  2  0
 10 11  1  0
 12 11  2  0
 13  9  1  0
 14 15  1  0
 15 20  1  0
 15 16  2  0
 16 17  1  0
 17 18  2  0
 19 18  1  0
 20 19  2  0
  2 21  1  0
  3 22  1  0
  8 23  1  0
 11 24  1  0
 13 25  1  0
 13 26  1  0
 16 27  1  0
 17 28  1  0
 19 29  1  0
M  ISO  7  21  14  22  14  23  14  24  14  27  14  28  14  29  14
M  END
>  <minimizedAffinity>  (1) 
-4.58388758

>  <minimizedRMSD>  (1) 
2.26294851

$$$$
