
     RDKit          3D

 41 44  0  0  0  0  0  0  0  0999 V2000
   38.3680   26.4610   33.4750 C   0  0  0  0  0  0  0  0  0  0  0  0
   39.3470   26.5560   32.5170 C   0  0  0  0  0  0  0  0  0  0  0  0
   39.1580   27.3990   31.4500 C   0  0  0  0  0  0  0  0  0  0  0  0
   38.0220   28.1220   31.3460 N   0  0  0  0  0  0  0  0  0  0  0  0
   37.0620   28.0200   32.2980 C   0  0  0  0  0  0  0  0  0  0  0  0
   37.2610   27.1980   33.3270 N   0  0  0  0  0  0  0  0  0  0  0  0
   38.5060   25.6030   34.6120 C   0  0  0  0  0  0  0  0  0  0  0  0
   39.5980   24.7750   34.6780 C   0  0  0  0  0  0  0  0  0  0  0  0
   39.7480   23.9420   35.7760 C   0  0  0  0  0  0  0  0  0  0  0  0
   38.7840   23.9930   36.7460 N   0  0  0  0  0  0  0  0  0  0  0  0
   37.7090   24.8090   36.6800 C   0  0  0  0  0  0  0  0  0  0  0  0
   37.5970   25.5910   35.6190 N   0  0  0  0  0  0  0  0  0  0  0  0
   40.8090   23.0480   35.9800 N   0  0  0  0  0  0  0  0  0  0  0  0
   35.6140   29.0010   32.0850 S   0  0  0  0  0  0  0  0  0  0  0  0
   35.0240   29.7860   33.5410 C   0  0  0  0  0  0  0  0  0  0  0  0
   35.5300   30.8370   34.2790 C   0  0  0  0  0  0  0  0  0  0  0  0
   34.8650   31.2790   35.3980 C   0  0  0  0  0  0  0  0  0  0  0  0
   33.7190   30.7110   35.8010 N   0  0  0  0  0  0  0  0  0  0  0  0
   33.2210   29.6750   35.0720 C   0  0  0  0  0  0  0  0  0  0  0  0
   33.8560   29.2180   33.9640 N   0  0  0  0  0  0  0  0  0  0  0  0
   31.9950   29.0900   35.5280 N   0  0  0  0  0  0  0  0  0  0  0  0
   30.8830   28.7570   34.6600 C   0  0  0  0  0  0  0  0  0  0  0  0
   30.4830   27.4030   35.2070 C   0  0  0  0  0  0  0  0  0  0  0  0
   30.9120   27.4260   36.6590 C   0  0  0  0  0  0  0  0  0  0  0  0
   31.6430   28.7310   36.8900 C   0  0  0  0  0  0  0  0  0  0  0  0
   40.2704   25.9646   32.6033 H   0  0  0  0  0  0  0  0  0  0  0  0
   39.9352   27.4859   30.6764 H   0  0  0  0  0  0  0  0  0  0  0  0
   40.3447   24.7721   33.8703 H   0  0  0  0  0  0  0  0  0  0  0  0
   36.9541   24.8225   37.4799 H   0  0  0  0  0  0  0  0  0  0  0  0
   40.8365   22.4667   36.8298 H   0  0  0  0  0  0  0  0  0  0  0  0
   41.5608   22.9727   35.2800 H   0  0  0  0  0  0  0  0  0  0  0  0
   36.4679   31.3222   33.9709 H   0  0  0  0  0  0  0  0  0  0  0  0
   35.2821   32.1171   35.9756 H   0  0  0  0  0  0  0  0  0  0  0  0
   31.1978   28.6905   33.6081 H   0  0  0  0  0  0  0  0  0  0  0  0
   30.0729   29.5012   34.6561 H   0  0  0  0  0  0  0  0  0  0  0  0
   29.3953   27.2595   35.1272 H   0  0  0  0  0  0  0  0  0  0  0  0
   30.9507   26.5774   34.6505 H   0  0  0  0  0  0  0  0  0  0  0  0
   30.0298   27.3674   37.3134 H   0  0  0  0  0  0  0  0  0  0  0  0
   31.5625   26.5688   36.8872 H   0  0  0  0  0  0  0  0  0  0  0  0
   32.5369   28.5892   37.5152 H   0  0  0  0  0  0  0  0  0  0  0  0
   31.0571   29.4929   37.4250 H   0  0  0  0  0  0  0  0  0  0  0  0
  1  7  1  0
  2  1  2  0
  3  2  1  0
  4  3  2  0
  4  5  1  0
  5  6  2  0
  6  1  1  0
  7  8  2  0
  7 12  1  0
  8  9  1  0
  9 13  1  0
  9 10  2  0
 11 10  1  0
 12 11  2  0
 14  5  1  0
 14 15  1  0
 15 20  1  0
 15 16  2  0
 16 17  1  0
 17 18  2  0
 19 21  1  0
 19 18  1  0
 20 19  2  0
 21 25  1  0
 22 23  1  0
 22 21  1  0
 23 24  1  0
 24 25  1  0
  2 26  1  0
  3 27  1  0
  8 28  1  0
 11 29  1  0
 13 30  1  0
 13 31  1  0
 16 32  1  0
 17 33  1  0
 22 34  1  0
 22 35  1  0
 23 36  1  0
 23 37  1  0
 24 38  1  0
 24 39  1  0
 25 40  1  0
 25 41  1  0
M  ISO  8  26  14  27  14  28  14  29  14  32  14  33  14  34  13  35  13
M  ISO  6  36  13  37  13  38  13  39  13  40  13  41  13
M  END
>  <minimizedAffinity>  (1) 
-5.50332451

>  <minimizedRMSD>  (1) 
1.60142291

$$$$
