
     RDKit          3D

 41 44  0  0  0  0  0  0  0  0999 V2000
   38.0680   26.4660   33.7420 C   0  0  0  0  0  0  0  0  0  0  0  0
   38.8970   26.6360   32.6600 C   0  0  0  0  0  0  0  0  0  0  0  0
   38.5750   27.5400   31.6870 C   0  0  0  0  0  0  0  0  0  0  0  0
   37.4280   28.2730   31.7980 N   0  0  0  0  0  0  0  0  0  0  0  0
   36.6240   28.0940   32.8680 C   0  0  0  0  0  0  0  0  0  0  0  0
   36.9550   27.2030   33.8120 N   0  0  0  0  0  0  0  0  0  0  0  0
   38.3690   25.5310   34.7810 C   0  0  0  0  0  0  0  0  0  0  0  0
   39.3610   24.6080   34.5670 C   0  0  0  0  0  0  0  0  0  0  0  0
   39.6590   23.6970   35.5730 C   0  0  0  0  0  0  0  0  0  0  0  0
   38.9350   23.7760   36.7360 N   0  0  0  0  0  0  0  0  0  0  0  0
   37.9670   24.6780   36.9390 C   0  0  0  0  0  0  0  0  0  0  0  0
   37.6990   25.5390   35.9640 N   0  0  0  0  0  0  0  0  0  0  0  0
   40.6430   22.6990   35.5010 N   0  0  0  0  0  0  0  0  0  0  0  0
   35.1560   29.0800   32.9420 S   0  0  0  0  0  0  0  0  0  0  0  0
   35.0160   30.1050   34.3690 C   0  0  0  0  0  0  0  0  0  0  0  0
   35.9240   30.9260   34.9840 C   0  0  0  0  0  0  0  0  0  0  0  0
   35.5580   31.6450   36.1010 C   0  0  0  0  0  0  0  0  0  0  0  0
   34.3400   31.5670   36.6050 N   0  0  0  0  0  0  0  0  0  0  0  0
   33.4210   30.7490   35.9990 C   0  0  0  0  0  0  0  0  0  0  0  0
   33.7560   30.0300   34.8990 N   0  0  0  0  0  0  0  0  0  0  0  0
   32.1090   30.6820   36.5660 N   0  0  0  0  0  0  0  0  0  0  0  0
   31.6650   29.5350   37.3410 C   0  0  0  0  0  0  0  0  0  0  0  0
   30.4020   29.0940   36.5970 C   0  0  0  0  0  0  0  0  0  0  0  0
   29.4110   30.0880   36.9070 N   0  0  0  0  0  0  0  0  0  0  0  0
   29.7580   31.4350   36.5840 C   0  0  0  0  0  0  0  0  0  0  0  0
   31.1780   31.7380   36.3990 C   0  0  0  0  0  0  0  0  0  0  0  0
   39.8205   26.0442   32.5767 H   0  0  0  0  0  0  0  0  0  0  0  0
   39.2364   27.6766   30.8187 H   0  0  0  0  0  0  0  0  0  0  0  0
   39.9114   24.5894   33.6148 H   0  0  0  0  0  0  0  0  0  0  0  0
   37.4092   24.7053   37.8867 H   0  0  0  0  0  0  0  0  0  0  0  0
   40.7941   22.0662   36.2995 H   0  0  0  0  0  0  0  0  0  0  0  0
   41.2141   22.5993   34.6496 H   0  0  0  0  0  0  0  0  0  0  0  0
   36.9459   31.0113   34.5859 H   0  0  0  0  0  0  0  0  0  0  0  0
   36.2981   32.2996   36.5844 H   0  0  0  0  0  0  0  0  0  0  0  0
   32.4238   28.7386   37.3409 H   0  0  0  0  0  0  0  0  0  0  0  0
   31.4880   29.7671   38.4016 H   0  0  0  0  0  0  0  0  0  0  0  0
   30.0758   28.1031   36.9459 H   0  0  0  0  0  0  0  0  0  0  0  0
   30.5731   29.0102   35.5136 H   0  0  0  0  0  0  0  0  0  0  0  0
   28.5068   29.8438   37.3355 H   0  0  0  0  0  0  0  0  0  0  0  0
   28.9886   32.2140   36.4784 H   0  0  0  0  0  0  0  0  0  0  0  0
   31.5122   32.7531   36.1386 H   0  0  0  0  0  0  0  0  0  0  0  0
  1  6  1  0
  1  7  1  0
  2  1  2  0
  3  4  2  0
  3  2  1  0
  4  5  1  0
  5 14  1  0
  5  6  2  0
  7 12  1  0
  8  7  2  0
  8  9  1  0
  9 10  2  0
 10 11  1  0
 12 11  2  0
 13  9  1  0
 14 15  1  0
 15 20  1  0
 15 16  2  0
 16 17  1  0
 17 18  2  0
 19 21  1  0
 19 18  1  0
 20 19  2  0
 21 22  1  0
 23 24  1  0
 23 22  1  0
 25 24  1  0
 26 21  1  0
 26 25  2  0
  2 27  1  0
  3 28  1  0
  8 29  1  0
 11 30  1  0
 13 31  1  0
 13 32  1  0
 16 33  1  0
 17 34  1  0
 22 35  1  0
 22 36  1  0
 23 37  1  0
 23 38  1  0
 24 39  1  0
 25 40  1  0
 26 41  1  0
M  ISO  8  27  14  28  14  29  14  30  14  33  14  34  14  35  13  36  13
M  ISO  4  37  13  38  13  40  13  41  13
M  END
>  <minimizedAffinity>  (1) 
-5.65279102

>  <minimizedRMSD>  (1) 
0.451430321

$$$$
