
     RDKit          3D

 45 48  0  0  0  0  0  0  0  0999 V2000
   38.1600   26.4210   33.7750 C   0  0  0  0  0  0  0  0  0  0  0  0
   39.0760   26.6230   32.7740 C   0  0  0  0  0  0  0  0  0  0  0  0
   38.7970   27.5020   31.7630 C   0  0  0  0  0  0  0  0  0  0  0  0
   37.6160   28.1720   31.7530 N   0  0  0  0  0  0  0  0  0  0  0  0
   36.7200   27.9670   32.7410 C   0  0  0  0  0  0  0  0  0  0  0  0
   37.0100   27.1050   33.7200 N   0  0  0  0  0  0  0  0  0  0  0  0
   38.4060   25.5140   34.8520 C   0  0  0  0  0  0  0  0  0  0  0  0
   39.5600   24.7770   34.8370 C   0  0  0  0  0  0  0  0  0  0  0  0
   39.8180   23.8900   35.8750 C   0  0  0  0  0  0  0  0  0  0  0  0
   38.8930   23.8020   36.8680 N   0  0  0  0  0  0  0  0  0  0  0  0
   37.7460   24.5310   36.8890 C   0  0  0  0  0  0  0  0  0  0  0  0
   37.5360   25.3630   35.8820 N   0  0  0  0  0  0  0  0  0  0  0  0
   40.9610   23.0720   35.9870 N   0  0  0  0  0  0  0  0  0  0  0  0
   35.1980   28.8710   32.6760 S   0  0  0  0  0  0  0  0  0  0  0  0
   34.8350   29.8320   34.0890 C   0  0  0  0  0  0  0  0  0  0  0  0
   35.6040   30.7370   34.7940 C   0  0  0  0  0  0  0  0  0  0  0  0
   35.0900   31.3940   35.8950 C   0  0  0  0  0  0  0  0  0  0  0  0
   33.8420   31.1740   36.3080 N   0  0  0  0  0  0  0  0  0  0  0  0
   33.0780   30.2760   35.6100 C   0  0  0  0  0  0  0  0  0  0  0  0
   33.5580   29.6200   34.5270 N   0  0  0  0  0  0  0  0  0  0  0  0
   31.6700   30.0510   36.1050 C   0  0  0  0  0  0  0  0  0  0  0  0
   30.9220   29.4190   34.9560 C   0  0  0  0  0  0  0  0  0  0  0  0
   29.4960   29.0920   35.3070 C   0  0  0  0  0  0  0  0  0  0  0  0
   29.3020   28.8260   36.7760 C   0  0  0  0  0  0  0  0  0  0  0  0
   30.5230   28.2920   37.4720 C   0  0  0  0  0  0  0  0  0  0  0  0
   31.7670   29.1040   37.2540 C   0  0  0  0  0  0  0  0  0  0  0  0
   40.0324   26.0797   32.7840 H   0  0  0  0  0  0  0  0  0  0  0  0
   39.5293   27.6658   30.9586 H   0  0  0  0  0  0  0  0  0  0  0  0
   40.2770   24.8863   34.0099 H   0  0  0  0  0  0  0  0  0  0  0  0
   37.0212   24.4331   37.7106 H   0  0  0  0  0  0  0  0  0  0  0  0
   41.0667   22.4427   36.7956 H   0  0  0  0  0  0  0  0  0  0  0  0
   41.6902   23.1037   35.2603 H   0  0  0  0  0  0  0  0  0  0  0  0
   36.6376   30.9369   34.4751 H   0  0  0  0  0  0  0  0  0  0  0  0
   35.7214   32.1110   36.4402 H   0  0  0  0  0  0  0  0  0  0  0  0
   31.1595   30.9699   36.4292 H   0  0  0  0  0  0  0  0  0  0  0  0
   31.4364   28.4901   34.6686 H   0  0  0  0  0  0  0  0  0  0  0  0
   30.9047   30.1443   34.1292 H   0  0  0  0  0  0  0  0  0  0  0  0
   28.8593   29.9407   35.0166 H   0  0  0  0  0  0  0  0  0  0  0  0
   29.2245   28.1736   34.7659 H   0  0  0  0  0  0  0  0  0  0  0  0
   29.0127   29.7694   37.2622 H   0  0  0  0  0  0  0  0  0  0  0  0
   28.5270   28.0496   36.8571 H   0  0  0  0  0  0  0  0  0  0  0  0
   30.3173   28.2612   38.5522 H   0  0  0  0  0  0  0  0  0  0  0  0
   30.7184   27.2978   37.0438 H   0  0  0  0  0  0  0  0  0  0  0  0
   32.6035   28.4147   37.0666 H   0  0  0  0  0  0  0  0  0  0  0  0
   31.9185   29.7104   38.1592 H   0  0  0  0  0  0  0  0  0  0  0  0
  1  7  1  0
  2  1  2  0
  3  2  1  0
  4  3  2  0
  4  5  1  0
  5  6  2  0
  6  1  1  0
  7 12  1  0
  8  7  2  0
  8  9  1  0
  9 13  1  0
  9 10  2  0
 10 11  1  0
 12 11  2  0
 14  5  1  0
 14 15  1  0
 15 20  1  0
 15 16  2  0
 16 17  1  0
 17 18  2  0
 19 21  1  0
 19 18  1  0
 20 19  2  0
 21 26  1  0
 22 23  1  0
 22 21  1  0
 23 24  1  0
 24 25  1  0
 26 25  1  0
  2 27  1  0
  3 28  1  0
  8 29  1  0
 11 30  1  0
 13 31  1  0
 13 32  1  0
 16 33  1  0
 17 34  1  0
 21 35  1  0
 22 36  1  0
 22 37  1  0
 23 38  1  0
 23 39  1  0
 24 40  1  0
 24 41  1  0
 25 42  1  0
 25 43  1  0
 26 44  1  0
 26 45  1  0
M  ISO  8  27  14  28  14  29  14  30  14  33  14  34  14  35  13  36  13
M  ISO  8  37  13  38  13  39  13  40  13  41  13  42  13  43  13  44  13
M  ISO  1  45  13
M  END
>  <minimizedAffinity>  (1) 
-5.50978947

>  <minimizedRMSD>  (1) 
0.966018319

$$$$
