
     RDKit          3D

 39 42  0  0  0  0  0  0  0  0999 V2000
   38.4040   26.0610   34.0390 C   0  0  0  0  0  0  0  0  0  0  0  0
   39.5000   26.3990   33.2860 C   0  0  0  0  0  0  0  0  0  0  0  0
   39.3540   27.2400   32.2130 C   0  0  0  0  0  0  0  0  0  0  0  0
   38.1250   27.7360   31.9020 N   0  0  0  0  0  0  0  0  0  0  0  0
   37.0570   27.3950   32.6520 C   0  0  0  0  0  0  0  0  0  0  0  0
   37.2190   26.5730   33.6930 N   0  0  0  0  0  0  0  0  0  0  0  0
   38.5060   25.1880   35.1660 C   0  0  0  0  0  0  0  0  0  0  0  0
   39.3260   24.0920   35.0740 C   0  0  0  0  0  0  0  0  0  0  0  0
   39.4380   23.2350   36.1590 C   0  0  0  0  0  0  0  0  0  0  0  0
   38.7200   23.5260   37.2710 N   0  0  0  0  0  0  0  0  0  0  0  0
   37.9070   24.6080   37.3680 C   0  0  0  0  0  0  0  0  0  0  0  0
   37.8180   25.4110   36.3170 N   0  0  0  0  0  0  0  0  0  0  0  0
   40.2370   22.0850   36.2070 N   0  0  0  0  0  0  0  0  0  0  0  0
   35.4850   28.0750   32.1970 S   0  0  0  0  0  0  0  0  0  0  0  0
   34.8620   29.3170   33.2670 C   0  0  0  0  0  0  0  0  0  0  0  0
   33.7220   29.3610   34.0260 C   0  0  0  0  0  0  0  0  0  0  0  0
   33.4320   30.4560   34.8130 C   0  0  0  0  0  0  0  0  0  0  0  0
   34.2610   31.5100   34.8540 N   0  0  0  0  0  0  0  0  0  0  0  0
   35.3950   31.4690   34.0990 C   0  0  0  0  0  0  0  0  0  0  0  0
   35.7010   30.3940   33.3130 N   0  0  0  0  0  0  0  0  0  0  0  0
   36.3030   32.6400   34.1510 C   0  0  0  0  0  0  0  0  0  0  0  0
   36.7220   33.1260   35.3490 C   0  0  0  0  0  0  0  0  0  0  0  0
   37.5780   34.2270   35.3980 C   0  0  0  0  0  0  0  0  0  0  0  0
   37.9540   34.7690   34.1650 C   0  0  0  0  0  0  0  0  0  0  0  0
   37.5330   34.2810   32.9290 C   0  0  0  0  0  0  0  0  0  0  0  0
   36.6810   33.1820   32.9420 C   0  0  0  0  0  0  0  0  0  0  0  0
   40.4914   25.9971   33.5420 H   0  0  0  0  0  0  0  0  0  0  0  0
   40.2286   27.5135   31.6044 H   0  0  0  0  0  0  0  0  0  0  0  0
   39.8887   23.8949   34.1496 H   0  0  0  0  0  0  0  0  0  0  0  0
   37.3404   24.8121   38.2885 H   0  0  0  0  0  0  0  0  0  0  0  0
   40.2570   21.5070   37.0593 H   0  0  0  0  0  0  0  0  0  0  0  0
   40.8044   21.8176   35.3900 H   0  0  0  0  0  0  0  0  0  0  0  0
   33.0266   28.5089   34.0074 H   0  0  0  0  0  0  0  0  0  0  0  0
   32.5106   30.4652   35.4138 H   0  0  0  0  0  0  0  0  0  0  0  0
   36.3856   32.6504   36.2821 H   0  0  0  0  0  0  0  0  0  0  0  0
   37.9360   34.6441   36.3508 H   0  0  0  0  0  0  0  0  0  0  0  0
   38.6272   35.6389   34.1708 H   0  0  0  0  0  0  0  0  0  0  0  0
   37.8598   34.7441   31.9863 H   0  0  0  0  0  0  0  0  0  0  0  0
   36.3135   32.7509   31.9991 H   0  0  0  0  0  0  0  0  0  0  0  0
  1  7  1  0
  2  1  2  0
  3  2  1  0
  4  3  2  0
  4  5  1  0
  5  6  2  0
  6  1  1  0
  7 12  1  0
  8  7  2  0
  8  9  1  0
  9 13  1  0
  9 10  2  0
 10 11  1  0
 12 11  2  0
 14  5  1  0
 14 15  1  0
 15 20  1  0
 15 16  2  0
 16 17  1  0
 17 18  2  0
 19 21  1  0
 19 18  1  0
 20 19  2  0
 21 22  2  0
 22 23  1  0
 24 23  2  0
 25 26  2  0
 25 24  1  0
 26 21  1  0
  2 27  1  0
  3 28  1  0
  8 29  1  0
 11 30  1  0
 13 31  1  0
 13 32  1  0
 16 33  1  0
 17 34  1  0
 22 35  1  0
 23 36  1  0
 24 37  1  0
 25 38  1  0
 26 39  1  0
M  ISO  8  27  14  28  14  29  14  30  14  33  14  34  14  35  14  36  14
M  ISO  3  37  14  38  14  39  14
M  END
>  <minimizedAffinity>  (1) 
-5.44820881

>  <minimizedRMSD>  (1) 
4.06619072

$$$$
