
     RDKit          3D

 37 40  0  0  0  0  0  0  0  0999 V2000
   38.3850   26.1120   33.9990 C   0  0  0  0  0  0  0  0  0  0  0  0
   39.4050   26.3310   33.1060 C   0  0  0  0  0  0  0  0  0  0  0  0
   39.2320   27.1950   32.0620 C   0  0  0  0  0  0  0  0  0  0  0  0
   38.0440   27.8350   31.9130 N   0  0  0  0  0  0  0  0  0  0  0  0
   37.0440   27.6180   32.7920 C   0  0  0  0  0  0  0  0  0  0  0  0
   37.2410   26.7690   33.8040 N   0  0  0  0  0  0  0  0  0  0  0  0
   38.5370   25.2180   35.1050 C   0  0  0  0  0  0  0  0  0  0  0  0
   39.6370   24.3970   35.1460 C   0  0  0  0  0  0  0  0  0  0  0  0
   39.7800   23.5320   36.2300 C   0  0  0  0  0  0  0  0  0  0  0  0
   38.8160   23.5480   37.1930 N   0  0  0  0  0  0  0  0  0  0  0  0
   37.7400   24.3530   37.1450 C   0  0  0  0  0  0  0  0  0  0  0  0
   37.6160   25.1730   36.1090 N   0  0  0  0  0  0  0  0  0  0  0  0
   40.8530   22.6490   36.3970 N   0  0  0  0  0  0  0  0  0  0  0  0
   35.5250   28.4900   32.5350 S   0  0  0  0  0  0  0  0  0  0  0  0
   35.0180   29.5180   33.8690 C   0  0  0  0  0  0  0  0  0  0  0  0
   35.6980   30.4620   34.5910 C   0  0  0  0  0  0  0  0  0  0  0  0
   35.0790   31.1580   35.6060 C   0  0  0  0  0  0  0  0  0  0  0  0
   33.7960   30.9310   35.9110 N   0  0  0  0  0  0  0  0  0  0  0  0
   33.1140   29.9930   35.1970 C   0  0  0  0  0  0  0  0  0  0  0  0
   33.7090   29.2900   34.1850 N   0  0  0  0  0  0  0  0  0  0  0  0
   31.6940   29.7500   35.5440 C   0  0  0  0  0  0  0  0  0  0  0  0
   31.0310   30.7220   36.2660 C   0  0  0  0  0  0  0  0  0  0  0  0
   29.7140   30.4170   36.5470 C   0  0  0  0  0  0  0  0  0  0  0  0
   29.1660   29.2610   36.1350 N   0  0  0  0  0  0  0  0  0  0  0  0
   29.8760   28.3410   35.4240 C   0  0  0  0  0  0  0  0  0  0  0  0
   31.1640   28.5890   35.1230 N   0  0  0  0  0  0  0  0  0  0  0  0
   40.3649   25.8088   33.2318 H   0  0  0  0  0  0  0  0  0  0  0  0
   40.0494   27.3709   31.3472 H   0  0  0  0  0  0  0  0  0  0  0  0
   40.3877   24.4213   34.3424 H   0  0  0  0  0  0  0  0  0  0  0  0
   36.9831   24.3324   37.9429 H   0  0  0  0  0  0  0  0  0  0  0  0
   40.8929   22.0377   37.2250 H   0  0  0  0  0  0  0  0  0  0  0  0
   41.6028   22.6104   35.6918 H   0  0  0  0  0  0  0  0  0  0  0  0
   36.7531   30.6675   34.3573 H   0  0  0  0  0  0  0  0  0  0  0  0
   35.6469   31.9102   36.1732 H   0  0  0  0  0  0  0  0  0  0  0  0
   31.5101   31.6579   36.5893 H   0  0  0  0  0  0  0  0  0  0  0  0
   29.1031   31.1320   37.1176 H   0  0  0  0  0  0  0  0  0  0  0  0
   29.4007   27.4038   35.0988 H   0  0  0  0  0  0  0  0  0  0  0  0
  1  7  1  0
  2  1  2  0
  3  2  1  0
  4  3  2  0
  4  5  1  0
  5  6  2  0
  6  1  1  0
  7  8  2  0
  7 12  1  0
  8  9  1  0
  9 13  1  0
  9 10  2  0
 11 10  1  0
 12 11  2  0
 14  5  1  0
 14 15  1  0
 15 20  1  0
 15 16  2  0
 16 17  1  0
 17 18  2  0
 19 21  1  0
 19 18  1  0
 20 19  2  0
 21 22  2  0
 22 23  1  0
 24 23  2  0
 25 24  1  0
 26 25  2  0
 26 21  1  0
  2 27  1  0
  3 28  1  0
  8 29  1  0
 11 30  1  0
 13 31  1  0
 13 32  1  0
 16 33  1  0
 17 34  1  0
 22 35  1  0
 23 36  1  0
 25 37  1  0
M  ISO  8  27  14  28  14  29  14  30  14  33  14  34  14  35  14  36  14
M  ISO  1  37  14
M  END
>  <minimizedAffinity>  (1) 
-5.29517555

>  <minimizedRMSD>  (1) 
1.44377422

$$$$
