
     RDKit          3D

 36 39  0  0  0  0  0  0  0  0999 V2000
   38.3680   26.1770   33.9280 C   0  0  0  0  0  0  0  0  0  0  0  0
   39.3770   26.4100   33.0290 C   0  0  0  0  0  0  0  0  0  0  0  0
   39.1780   27.2800   31.9910 C   0  0  0  0  0  0  0  0  0  0  0  0
   37.9760   27.9120   31.8570 N   0  0  0  0  0  0  0  0  0  0  0  0
   36.9880   27.6730   32.7530 C   0  0  0  0  0  0  0  0  0  0  0  0
   37.2090   26.8210   33.7540 N   0  0  0  0  0  0  0  0  0  0  0  0
   38.5310   25.2780   35.0280 C   0  0  0  0  0  0  0  0  0  0  0  0
   39.6230   24.4500   35.0420 C   0  0  0  0  0  0  0  0  0  0  0  0
   39.7960   23.5730   36.1030 C   0  0  0  0  0  0  0  0  0  0  0  0
   38.8620   23.5800   37.0870 N   0  0  0  0  0  0  0  0  0  0  0  0
   37.7850   24.3960   37.0760 C   0  0  0  0  0  0  0  0  0  0  0  0
   37.6430   25.2230   36.0520 N   0  0  0  0  0  0  0  0  0  0  0  0
   40.8660   22.6720   36.2460 N   0  0  0  0  0  0  0  0  0  0  0  0
   35.4580   28.5260   32.5220 S   0  0  0  0  0  0  0  0  0  0  0  0
   34.9630   29.5480   33.8650 C   0  0  0  0  0  0  0  0  0  0  0  0
   35.6580   30.5000   34.6020 C   0  0  0  0  0  0  0  0  0  0  0  0
   35.0380   31.1720   35.6150 C   0  0  0  0  0  0  0  0  0  0  0  0
   33.7540   30.9430   35.9310 N   0  0  0  0  0  0  0  0  0  0  0  0
   33.0790   30.0140   35.2090 C   0  0  0  0  0  0  0  0  0  0  0  0
   33.6570   29.3150   34.1870 N   0  0  0  0  0  0  0  0  0  0  0  0
   31.7240   29.8430   35.6200 N   0  0  0  0  0  0  0  0  0  0  0  0
   31.0630   28.9270   34.8520 C   0  0  0  0  0  0  0  0  0  0  0  0
   29.7570   28.8390   35.3380 C   0  0  0  0  0  0  0  0  0  0  0  0
   29.6750   29.7030   36.3790 N   0  0  0  0  0  0  0  0  0  0  0  0
   30.8670   30.3060   36.5460 C   0  0  0  0  0  0  0  0  0  0  0  0
   40.3444   25.8988   33.1418 H   0  0  0  0  0  0  0  0  0  0  0  0
   39.9845   27.4690   31.2672 H   0  0  0  0  0  0  0  0  0  0  0  0
   40.3544   24.4804   34.2209 H   0  0  0  0  0  0  0  0  0  0  0  0
   37.0487   24.3738   37.8929 H   0  0  0  0  0  0  0  0  0  0  0  0
   40.9137   22.0557   37.0699 H   0  0  0  0  0  0  0  0  0  0  0  0
   41.6021   22.6283   35.5268 H   0  0  0  0  0  0  0  0  0  0  0  0
   36.7116   30.7124   34.3677 H   0  0  0  0  0  0  0  0  0  0  0  0
   35.6053   31.9207   36.1873 H   0  0  0  0  0  0  0  0  0  0  0  0
   31.4824   28.3625   34.0062 H   0  0  0  0  0  0  0  0  0  0  0  0
   28.9530   28.1952   34.9520 H   0  0  0  0  0  0  0  0  0  0  0  0
   31.1015   31.0561   37.3156 H   0  0  0  0  0  0  0  0  0  0  0  0
  1  7  1  0
  2  1  2  0
  3  2  1  0
  4  3  2  0
  4  5  1  0
  5  6  2  0
  6  1  1  0
  7  8  2  0
  7 12  1  0
  8  9  1  0
  9 13  1  0
  9 10  2  0
 11 10  1  0
 12 11  2  0
 14  5  1  0
 14 15  1  0
 15 20  1  0
 15 16  2  0
 16 17  1  0
 17 18  2  0
 19 21  1  0
 19 18  1  0
 20 19  2  0
 21 25  1  0
 22 23  2  0
 22 21  1  0
 23 24  1  0
 24 25  2  0
  2 26  1  0
  3 27  1  0
  8 28  1  0
 11 29  1  0
 13 30  1  0
 13 31  1  0
 16 32  1  0
 17 33  1  0
 22 34  1  0
 23 35  1  0
 25 36  1  0
M  ISO  8  26  14  27  14  28  14  29  14  32  14  33  14  34  14  35  14
M  ISO  1  36  14
M  END
>  <minimizedAffinity>  (1) 
-5.33859062

>  <minimizedRMSD>  (1) 
1.33254468

$$$$
