
     RDKit          3D

 36 39  0  0  0  0  0  0  0  0999 V2000
   38.1760   26.3890   33.8370 C   0  0  0  0  0  0  0  0  0  0  0  0
   39.0730   26.5820   32.8170 C   0  0  0  0  0  0  0  0  0  0  0  0
   38.7810   27.4690   31.8170 C   0  0  0  0  0  0  0  0  0  0  0  0
   37.6010   28.1590   31.8390 N   0  0  0  0  0  0  0  0  0  0  0  0
   36.7290   27.9580   32.8510 C   0  0  0  0  0  0  0  0  0  0  0  0
   37.0350   27.0900   33.8120 N   0  0  0  0  0  0  0  0  0  0  0  0
   38.4310   25.4770   34.9070 C   0  0  0  0  0  0  0  0  0  0  0  0
   39.5860   24.7380   34.8720 C   0  0  0  0  0  0  0  0  0  0  0  0
   39.8540   23.8460   35.9010 C   0  0  0  0  0  0  0  0  0  0  0  0
   38.9390   23.7520   36.9090 N   0  0  0  0  0  0  0  0  0  0  0  0
   37.7980   24.4810   36.9450 C   0  0  0  0  0  0  0  0  0  0  0  0
   37.5750   25.3210   35.9460 N   0  0  0  0  0  0  0  0  0  0  0  0
   40.9950   23.0340   35.9870 N   0  0  0  0  0  0  0  0  0  0  0  0
   35.2200   28.8850   32.8190 S   0  0  0  0  0  0  0  0  0  0  0  0
   34.9490   29.9070   34.2270 C   0  0  0  0  0  0  0  0  0  0  0  0
   35.8220   30.6550   35.0010 C   0  0  0  0  0  0  0  0  0  0  0  0
   35.3300   31.3800   36.0600 C   0  0  0  0  0  0  0  0  0  0  0  0
   34.0470   31.3880   36.3690 N   0  0  0  0  0  0  0  0  0  0  0  0
   33.1840   30.6590   35.6170 C   0  0  0  0  0  0  0  0  0  0  0  0
   33.6190   29.9190   34.5530 N   0  0  0  0  0  0  0  0  0  0  0  0
   31.7850   30.7300   36.0340 C   0  0  0  0  0  0  0  0  0  0  0  0
   30.6940   31.5440   35.8890 C   0  0  0  0  0  0  0  0  0  0  0  0
   29.6710   30.9460   36.5970 C   0  0  0  0  0  0  0  0  0  0  0  0
   30.1360   29.8090   37.1480 N   0  0  0  0  0  0  0  0  0  0  0  0
   31.4270   29.6650   36.8120 N   0  0  0  0  0  0  0  0  0  0  0  0
   40.0223   26.0264   32.8032 H   0  0  0  0  0  0  0  0  0  0  0  0
   39.4954   27.6269   30.9956 H   0  0  0  0  0  0  0  0  0  0  0  0
   40.2928   24.8512   34.0368 H   0  0  0  0  0  0  0  0  0  0  0  0
   37.0825   24.3789   37.7742 H   0  0  0  0  0  0  0  0  0  0  0  0
   41.1152   22.3979   36.7881 H   0  0  0  0  0  0  0  0  0  0  0  0
   41.7124   23.0740   35.2490 H   0  0  0  0  0  0  0  0  0  0  0  0
   36.8974   30.6683   34.7702 H   0  0  0  0  0  0  0  0  0  0  0  0
   36.0281   31.9726   36.6695 H   0  0  0  0  0  0  0  0  0  0  0  0
   30.6428   32.4854   35.3222 H   0  0  0  0  0  0  0  0  0  0  0  0
   28.6463   31.3339   36.6948 H   0  0  0  0  0  0  0  0  0  0  0  0
   29.5911   29.1577   37.7308 H   0  0  0  0  0  0  0  0  0  0  0  0
  1  7  1  0
  2  1  2  0
  3  4  2  0
  3  2  1  0
  4  5  1  0
  5  6  2  0
  6  1  1  0
  7 12  1  0
  8  7  2  0
  8  9  1  0
  9 13  1  0
  9 10  2  0
 10 11  1  0
 12 11  2  0
 14  5  1  0
 14 15  1  0
 15 20  1  0
 15 16  2  0
 16 17  1  0
 17 18  2  0
 19 21  1  0
 19 18  1  0
 20 19  2  0
 21 25  2  0
 22 21  1  0
 22 23  2  0
 23 24  1  0
 25 24  1  0
  2 26  1  0
  3 27  1  0
  8 28  1  0
 11 29  1  0
 13 30  1  0
 13 31  1  0
 16 32  1  0
 17 33  1  0
 22 34  1  0
 23 35  1  0
 24 36  1  0
M  ISO  8  26  14  27  14  28  14  29  14  32  14  33  14  34  14  35  14
M  ISO  1  36   9
M  END
>  <minimizedAffinity>  (1) 
-5.23602152

>  <minimizedRMSD>  (1) 
0.753999531

$$$$
