
     RDKit          3D

 38 41  0  0  0  0  0  0  0  0999 V2000
   38.3860   26.1200   34.0020 C   0  0  0  0  0  0  0  0  0  0  0  0
   39.4060   26.3380   33.1090 C   0  0  0  0  0  0  0  0  0  0  0  0
   39.2220   27.2010   32.0640 C   0  0  0  0  0  0  0  0  0  0  0  0
   38.0330   27.8410   31.9110 N   0  0  0  0  0  0  0  0  0  0  0  0
   37.0330   27.6160   32.8010 C   0  0  0  0  0  0  0  0  0  0  0  0
   37.2340   26.7700   33.8120 N   0  0  0  0  0  0  0  0  0  0  0  0
   38.5310   25.2280   35.1100 C   0  0  0  0  0  0  0  0  0  0  0  0
   39.6300   24.4090   35.1520 C   0  0  0  0  0  0  0  0  0  0  0  0
   39.7790   23.5400   36.2230 C   0  0  0  0  0  0  0  0  0  0  0  0
   38.8150   23.5460   37.1880 N   0  0  0  0  0  0  0  0  0  0  0  0
   37.7390   24.3470   37.1470 C   0  0  0  0  0  0  0  0  0  0  0  0
   37.6160   25.1700   36.1130 N   0  0  0  0  0  0  0  0  0  0  0  0
   40.8630   22.6440   36.3900 N   0  0  0  0  0  0  0  0  0  0  0  0
   35.5080   28.4800   32.5470 S   0  0  0  0  0  0  0  0  0  0  0  0
   35.0070   29.5190   33.8800 C   0  0  0  0  0  0  0  0  0  0  0  0
   35.7030   30.4470   34.6080 C   0  0  0  0  0  0  0  0  0  0  0  0
   35.0800   31.1530   35.6150 C   0  0  0  0  0  0  0  0  0  0  0  0
   33.7990   30.9540   35.9040 N   0  0  0  0  0  0  0  0  0  0  0  0
   33.0970   30.0300   35.1840 C   0  0  0  0  0  0  0  0  0  0  0  0
   33.6910   29.3160   34.1800 N   0  0  0  0  0  0  0  0  0  0  0  0
   31.6790   29.8330   35.5300 C   0  0  0  0  0  0  0  0  0  0  0  0
   31.0280   30.8340   36.2240 C   0  0  0  0  0  0  0  0  0  0  0  0
   29.7030   30.6160   36.5310 C   0  0  0  0  0  0  0  0  0  0  0  0
   29.1310   29.4290   36.1280 C   0  0  0  0  0  0  0  0  0  0  0  0
   29.7840   28.4290   35.4350 C   0  0  0  0  0  0  0  0  0  0  0  0
   31.0930   28.7080   35.1630 N   0  0  0  0  0  0  0  0  0  0  0  0
   40.3684   25.8200   33.2337 H   0  0  0  0  0  0  0  0  0  0  0  0
   40.0372   27.3772   31.3468 H   0  0  0  0  0  0  0  0  0  0  0  0
   40.3814   24.4406   34.3493 H   0  0  0  0  0  0  0  0  0  0  0  0
   36.9827   24.3222   37.9454 H   0  0  0  0  0  0  0  0  0  0  0  0
   40.9006   22.0294   37.2157 H   0  0  0  0  0  0  0  0  0  0  0  0
   41.6137   22.6070   35.6858 H   0  0  0  0  0  0  0  0  0  0  0  0
   36.7651   30.6301   34.3880 H   0  0  0  0  0  0  0  0  0  0  0  0
   35.6543   31.8946   36.1896 H   0  0  0  0  0  0  0  0  0  0  0  0
   31.5428   31.7607   36.5175 H   0  0  0  0  0  0  0  0  0  0  0  0
   29.1185   31.3676   37.0819 H   0  0  0  0  0  0  0  0  0  0  0  0
   28.0723   29.2654   36.3776 H   0  0  0  0  0  0  0  0  0  0  0  0
   29.2943   27.4925   35.1297 H   0  0  0  0  0  0  0  0  0  0  0  0
  1  7  1  0
  2  1  2  0
  3  2  1  0
  4  3  2  0
  4  5  1  0
  5  6  2  0
  6  1  1  0
  7  8  2  0
  7 12  1  0
  8  9  1  0
  9 13  1  0
  9 10  2  0
 11 10  1  0
 12 11  2  0
 14  5  1  0
 14 15  1  0
 15 20  1  0
 15 16  2  0
 16 17  1  0
 17 18  2  0
 19 21  1  0
 19 18  1  0
 20 19  2  0
 21 22  2  0
 22 23  1  0
 24 23  2  0
 25 24  1  0
 26 25  2  0
 26 21  1  0
  2 27  1  0
  3 28  1  0
  8 29  1  0
 11 30  1  0
 13 31  1  0
 13 32  1  0
 16 33  1  0
 17 34  1  0
 22 35  1  0
 23 36  1  0
 24 37  1  0
 25 38  1  0
M  ISO  8  27  14  28  14  29  14  30  14  33  14  34  14  35  14  36  14
M  ISO  2  37  14  38  14
M  END
>  <minimizedAffinity>  (1) 
-5.31699467

>  <minimizedRMSD>  (1) 
1.42657411

$$$$
