
     RDKit          3D

 32 34  0  0  0  0  0  0  0  0999 V2000
   37.8740   26.6680   33.6890 C   0  0  0  0  0  0  0  0  0  0  0  0
   38.6020   26.8440   32.5380 C   0  0  0  0  0  0  0  0  0  0  0  0
   38.1990   27.7650   31.6110 C   0  0  0  0  0  0  0  0  0  0  0  0
   37.0800   28.5010   31.8340 N   0  0  0  0  0  0  0  0  0  0  0  0
   36.3670   28.3190   32.9750 C   0  0  0  0  0  0  0  0  0  0  0  0
   36.7770   27.4110   33.8720 N   0  0  0  0  0  0  0  0  0  0  0  0
   38.2600   25.7170   34.6830 C   0  0  0  0  0  0  0  0  0  0  0  0
   39.2910   24.8550   34.4050 C   0  0  0  0  0  0  0  0  0  0  0  0
   39.6710   23.9300   35.3670 C   0  0  0  0  0  0  0  0  0  0  0  0
   38.9910   23.9220   36.5570 N   0  0  0  0  0  0  0  0  0  0  0  0
   37.9850   24.7660   36.8210 C   0  0  0  0  0  0  0  0  0  0  0  0
   37.6360   25.6460   35.8880 N   0  0  0  0  0  0  0  0  0  0  0  0
   40.7080   22.9870   35.2190 N   0  0  0  0  0  0  0  0  0  0  0  0
   34.9220   29.3110   33.2020 S   0  0  0  0  0  0  0  0  0  0  0  0
   34.9440   30.3590   34.6050 C   0  0  0  0  0  0  0  0  0  0  0  0
   35.9400   31.1600   35.1210 C   0  0  0  0  0  0  0  0  0  0  0  0
   35.7170   31.9160   36.2530 C   0  0  0  0  0  0  0  0  0  0  0  0
   34.5550   31.9020   36.8800 N   0  0  0  0  0  0  0  0  0  0  0  0
   33.5590   31.1080   36.3750 C   0  0  0  0  0  0  0  0  0  0  0  0
   33.7450   30.3530   35.2640 N   0  0  0  0  0  0  0  0  0  0  0  0
   32.2480   31.0780   37.0660 C   0  0  0  0  0  0  0  0  0  0  0  0
   31.4380   32.0370   36.9290 O   0  0  0  0  0  0  0  0  0  0  0  0
   31.9360   29.9860   37.8570 O   0  0  0  0  0  0  0  0  0  0  0  0
   39.5078   26.2452   32.3620 H   0  0  0  0  0  0  0  0  0  0  0  0
   38.7794   27.9091   30.6878 H   0  0  0  0  0  0  0  0  0  0  0  0
   39.8080   24.8967   33.4349 H   0  0  0  0  0  0  0  0  0  0  0  0
   37.4601   24.7317   37.7871 H   0  0  0  0  0  0  0  0  0  0  0  0
   40.9245   22.3349   35.9864 H   0  0  0  0  0  0  0  0  0  0  0  0
   41.2493   22.9499   34.3435 H   0  0  0  0  0  0  0  0  0  0  0  0
   36.9215   31.1967   34.6256 H   0  0  0  0  0  0  0  0  0  0  0  0
   36.5287   32.5473   36.6438 H   0  0  0  0  0  0  0  0  0  0  0  0
   31.0653   29.9476   38.3266 H   0  0  0  0  0  0  0  0  0  0  0  0
  1  6  1  0
  1  7  1  0
  2  1  2  0
  3  4  2  0
  3  2  1  0
  4  5  1  0
  5 14  1  0
  5  6  2  0
  7 12  1  0
  8  7  2  0
  8  9  1  0
  9 10  2  0
 10 11  1  0
 12 11  2  0
 13  9  1  0
 14 15  1  0
 15 16  2  0
 15 20  1  0
 16 17  1  0
 17 18  2  0
 19 18  1  0
 19 21  1  0
 20 19  2  0
 21 23  1  0
 22 21  2  0
  2 24  1  0
  3 25  1  0
  8 26  1  0
 11 27  1  0
 13 28  1  0
 13 29  1  0
 16 30  1  0
 17 31  1  0
 23 32  1  0
M  ISO  7  24  14  25  14  26  14  27  14  30  14  31  14  32   3
M  END
>  <minimizedAffinity>  (1) 
-5.22821331

>  <minimizedRMSD>  (1) 
0.206253663

$$$$
