
     RDKit          3D

 38 40  0  0  0  0  0  0  0  0999 V2000
   37.8680   26.6770   33.6820 C   0  0  0  0  0  0  0  0  0  0  0  0
   38.5990   26.8600   32.5350 C   0  0  0  0  0  0  0  0  0  0  0  0
   38.1930   27.7850   31.6110 C   0  0  0  0  0  0  0  0  0  0  0  0
   37.0700   28.5160   31.8340 N   0  0  0  0  0  0  0  0  0  0  0  0
   36.3510   28.3300   32.9680 C   0  0  0  0  0  0  0  0  0  0  0  0
   36.7720   27.4250   33.8460 N   0  0  0  0  0  0  0  0  0  0  0  0
   38.2480   25.7260   34.6790 C   0  0  0  0  0  0  0  0  0  0  0  0
   39.2750   24.8630   34.3990 C   0  0  0  0  0  0  0  0  0  0  0  0
   39.6590   23.9310   35.3620 C   0  0  0  0  0  0  0  0  0  0  0  0
   38.9850   23.9300   36.5440 N   0  0  0  0  0  0  0  0  0  0  0  0
   37.9730   24.7840   36.8170 C   0  0  0  0  0  0  0  0  0  0  0  0
   37.6270   25.6580   35.8840 N   0  0  0  0  0  0  0  0  0  0  0  0
   40.6880   22.9950   35.2100 N   0  0  0  0  0  0  0  0  0  0  0  0
   34.9080   29.3170   33.1860 S   0  0  0  0  0  0  0  0  0  0  0  0
   34.9250   30.3640   34.5990 C   0  0  0  0  0  0  0  0  0  0  0  0
   35.9160   31.1900   35.1170 C   0  0  0  0  0  0  0  0  0  0  0  0
   35.6620   31.9140   36.2520 C   0  0  0  0  0  0  0  0  0  0  0  0
   34.5060   31.8650   36.8880 N   0  0  0  0  0  0  0  0  0  0  0  0
   33.5280   31.0540   36.3810 C   0  0  0  0  0  0  0  0  0  0  0  0
   33.7290   30.3100   35.2510 N   0  0  0  0  0  0  0  0  0  0  0  0
   32.2520   31.0520   37.1520 C   0  0  0  0  0  0  0  0  0  0  0  0
   31.6980   29.6360   37.0480 C   0  0  0  0  0  0  0  0  0  0  0  0
   31.2320   31.9900   36.5630 C   0  0  0  0  0  0  0  0  0  0  0  0
   39.5077   26.2657   32.3587 H   0  0  0  0  0  0  0  0  0  0  0  0
   38.7750   27.9360   30.6899 H   0  0  0  0  0  0  0  0  0  0  0  0
   39.7894   24.9051   33.4276 H   0  0  0  0  0  0  0  0  0  0  0  0
   37.4523   24.7538   37.7855 H   0  0  0  0  0  0  0  0  0  0  0  0
   40.9063   22.3408   35.9751 H   0  0  0  0  0  0  0  0  0  0  0  0
   41.2271   22.9602   34.3331 H   0  0  0  0  0  0  0  0  0  0  0  0
   36.8948   31.2616   34.6202 H   0  0  0  0  0  0  0  0  0  0  0  0
   36.4550   32.5639   36.6505 H   0  0  0  0  0  0  0  0  0  0  0  0
   32.4478   31.3745   38.1853 H   0  0  0  0  0  0  0  0  0  0  0  0
   31.5389   29.2294   38.0577 H   0  0  0  0  0  0  0  0  0  0  0  0
   30.7412   29.6555   36.5056 H   0  0  0  0  0  0  0  0  0  0  0  0
   32.4140   29.0010   36.5056 H   0  0  0  0  0  0  0  0  0  0  0  0
   30.6850   32.4930   37.3740 H   0  0  0  0  0  0  0  0  0  0  0  0
   31.7409   32.7422   35.9423 H   0  0  0  0  0  0  0  0  0  0  0  0
   30.5250   31.4200   35.9423 H   0  0  0  0  0  0  0  0  0  0  0  0
  1  6  1  0
  1  7  1  0
  2  1  2  0
  3  4  2  0
  3  2  1  0
  4  5  1  0
  5 14  1  0
  5  6  2  0
  7 12  1  0
  8  7  2  0
  8  9  1  0
  9 10  2  0
 10 11  1  0
 12 11  2  0
 13  9  1  0
 14 15  1  0
 15 16  2  0
 15 20  1  0
 16 17  1  0
 17 18  2  0
 19 18  1  0
 19 21  1  0
 20 19  2  0
 22 21  1  0
 23 21  1  0
  2 24  1  0
  3 25  1  0
  8 26  1  0
 11 27  1  0
 13 28  1  0
 13 29  1  0
 16 30  1  0
 17 31  1  0
 21 32  1  0
 22 33  1  0
 22 34  1  0
 22 35  1  0
 23 36  1  0
 23 37  1  0
 23 38  1  0
M  ISO  8  24  14  25  14  26  14  27  14  30  14  31  14  32   8  33   8
M  ISO  5  34   8  35   8  36   8  37   8  38   8
M  END
>  <minimizedAffinity>  (1) 
-5.17970085

>  <minimizedRMSD>  (1) 
0.340208471

$$$$
