
     RDKit          3D

 34 37  0  0  0  0  0  0  0  0999 V2000
   38.2330   26.2100   34.0450 C   0  0  0  0  0  0  0  0  0  0  0  0
   39.1670   26.3940   33.0560 C   0  0  0  0  0  0  0  0  0  0  0  0
   38.9160   27.2900   32.0500 C   0  0  0  0  0  0  0  0  0  0  0  0
   37.7530   27.9850   32.0390 N   0  0  0  0  0  0  0  0  0  0  0  0
   36.8390   27.7950   33.0200 C   0  0  0  0  0  0  0  0  0  0  0  0
   37.0990   26.9180   33.9930 N   0  0  0  0  0  0  0  0  0  0  0  0
   38.4580   25.2850   35.1130 C   0  0  0  0  0  0  0  0  0  0  0  0
   39.5620   24.4720   35.0740 C   0  0  0  0  0  0  0  0  0  0  0  0
   39.7740   23.5740   36.1220 C   0  0  0  0  0  0  0  0  0  0  0  0
   38.8730   23.5490   37.1320 N   0  0  0  0  0  0  0  0  0  0  0  0
   37.7840   24.3520   37.1690 C   0  0  0  0  0  0  0  0  0  0  0  0
   37.5940   25.2020   36.1660 N   0  0  0  0  0  0  0  0  0  0  0  0
   40.8630   22.7070   36.1970 N   0  0  0  0  0  0  0  0  0  0  0  0
   35.3470   28.7440   32.9310 S   0  0  0  0  0  0  0  0  0  0  0  0
   35.0780   29.8270   34.2880 C   0  0  0  0  0  0  0  0  0  0  0  0
   35.9550   30.6030   35.0280 C   0  0  0  0  0  0  0  0  0  0  0  0
   35.4640   31.3850   36.0540 C   0  0  0  0  0  0  0  0  0  0  0  0
   34.1810   31.4280   36.3660 N   0  0  0  0  0  0  0  0  0  0  0  0
   33.3170   30.6590   35.6310 C   0  0  0  0  0  0  0  0  0  0  0  0
   33.7490   29.8690   34.6080 N   0  0  0  0  0  0  0  0  0  0  0  0
   31.9160   30.7640   36.0400 C   0  0  0  0  0  0  0  0  0  0  0  0
   31.1680   31.7820   36.5130 N   0  0  0  0  0  0  0  0  0  0  0  0
   29.9540   31.3600   36.7310 O   0  0  0  0  0  0  0  0  0  0  0  0
   29.8600   30.0890   36.4210 C   0  0  0  0  0  0  0  0  0  0  0  0
   31.0840   29.6830   35.9800 N   0  0  0  0  0  0  0  0  0  0  0  0
   40.1094   25.8268   33.0709 H   0  0  0  0  0  0  0  0  0  0  0  0
   39.6577   27.4448   31.2525 H   0  0  0  0  0  0  0  0  0  0  0  0
   40.2678   24.5265   34.2321 H   0  0  0  0  0  0  0  0  0  0  0  0
   37.0745   24.3020   38.0081 H   0  0  0  0  0  0  0  0  0  0  0  0
   40.9589   22.0688   36.9998 H   0  0  0  0  0  0  0  0  0  0  0  0
   41.5718   22.7045   35.4496 H   0  0  0  0  0  0  0  0  0  0  0  0
   37.0312   30.5961   34.8004 H   0  0  0  0  0  0  0  0  0  0  0  0
   36.1694   31.9970   36.6352 H   0  0  0  0  0  0  0  0  0  0  0  0
   28.9579   29.4647   36.5021 H   0  0  0  0  0  0  0  0  0  0  0  0
  1  7  1  0
  2  1  2  0
  3  2  1  0
  4  3  2  0
  4  5  1  0
  5  6  2  0
  6  1  1  0
  7 12  1  0
  8  7  2  0
  8  9  1  0
  9 13  1  0
  9 10  2  0
 10 11  1  0
 12 11  2  0
 14  5  1  0
 14 15  1  0
 15 20  1  0
 15 16  2  0
 16 17  1  0
 17 18  2  0
 19 21  1  0
 19 18  1  0
 20 19  2  0
 21 22  2  0
 22 23  1  0
 24 23  1  0
 25 21  1  0
 25 24  2  0
  2 26  1  0
  3 27  1  0
  8 28  1  0
 11 29  1  0
 13 30  1  0
 13 31  1  0
 16 32  1  0
 17 33  1  0
 24 34  1  0
M  ISO  7  26  14  27  14  28  14  29  14  32  14  33  14  34  14
M  END
>  <minimizedAffinity>  (1) 
-5.09792805

>  <minimizedRMSD>  (1) 
0.933075428

$$$$
