
     RDKit          3D

 36 39  0  0  0  0  0  0  0  0999 V2000
   38.3790   26.1310   33.9950 C   0  0  0  0  0  0  0  0  0  0  0  0
   39.3990   26.3500   33.1060 C   0  0  0  0  0  0  0  0  0  0  0  0
   39.2090   27.2160   32.0610 C   0  0  0  0  0  0  0  0  0  0  0  0
   38.0180   27.8490   31.9130 N   0  0  0  0  0  0  0  0  0  0  0  0
   37.0150   27.6260   32.7990 C   0  0  0  0  0  0  0  0  0  0  0  0
   37.2230   26.7800   33.8070 N   0  0  0  0  0  0  0  0  0  0  0  0
   38.5180   25.2390   35.1040 C   0  0  0  0  0  0  0  0  0  0  0  0
   39.6200   24.4220   35.1480 C   0  0  0  0  0  0  0  0  0  0  0  0
   39.7650   23.5510   36.2250 C   0  0  0  0  0  0  0  0  0  0  0  0
   38.8090   23.5520   37.1830 N   0  0  0  0  0  0  0  0  0  0  0  0
   37.7240   24.3570   37.1390 C   0  0  0  0  0  0  0  0  0  0  0  0
   37.6080   25.1740   36.1070 N   0  0  0  0  0  0  0  0  0  0  0  0
   40.8530   22.6580   36.3900 N   0  0  0  0  0  0  0  0  0  0  0  0
   35.4890   28.4870   32.5470 S   0  0  0  0  0  0  0  0  0  0  0  0
   34.9920   29.5150   33.8790 C   0  0  0  0  0  0  0  0  0  0  0  0
   35.6820   30.4690   34.6180 C   0  0  0  0  0  0  0  0  0  0  0  0
   35.0370   31.1500   35.6200 C   0  0  0  0  0  0  0  0  0  0  0  0
   33.7570   30.9240   35.9130 N   0  0  0  0  0  0  0  0  0  0  0  0
   33.0820   29.9910   35.1920 C   0  0  0  0  0  0  0  0  0  0  0  0
   33.6790   29.2890   34.1870 N   0  0  0  0  0  0  0  0  0  0  0  0
   31.6890   29.8200   35.5920 C   0  0  0  0  0  0  0  0  0  0  0  0
   30.9730   28.7700   35.0080 C   0  0  0  0  0  0  0  0  0  0  0  0
   29.6860   28.8100   35.5390 C   0  0  0  0  0  0  0  0  0  0  0  0
   29.7010   29.8890   36.4190 C   0  0  0  0  0  0  0  0  0  0  0  0
   30.8790   30.4270   36.4040 O   0  0  0  0  0  0  0  0  0  0  0  0
   40.3628   25.8346   33.2304 H   0  0  0  0  0  0  0  0  0  0  0  0
   40.0218   27.3979   31.3424 H   0  0  0  0  0  0  0  0  0  0  0  0
   40.3742   24.4545   34.3479 H   0  0  0  0  0  0  0  0  0  0  0  0
   36.9644   24.3328   37.9343 H   0  0  0  0  0  0  0  0  0  0  0  0
   40.8931   22.0418   37.2144 H   0  0  0  0  0  0  0  0  0  0  0  0
   41.6037   22.6251   35.6855 H   0  0  0  0  0  0  0  0  0  0  0  0
   36.7400   30.6772   34.4007 H   0  0  0  0  0  0  0  0  0  0  0  0
   35.5925   31.9036   36.1975 H   0  0  0  0  0  0  0  0  0  0  0  0
   31.3540   28.0493   34.2694 H   0  0  0  0  0  0  0  0  0  0  0  0
   28.8446   28.1384   35.3133 H   0  0  0  0  0  0  0  0  0  0  0  0
   28.8505   30.2292   37.0280 H   0  0  0  0  0  0  0  0  0  0  0  0
  1  7  1  0
  2  1  2  0
  3  2  1  0
  4  3  2  0
  4  5  1  0
  5  6  2  0
  6  1  1  0
  7  8  2  0
  7 12  1  0
  8  9  1  0
  9 13  1  0
  9 10  2  0
 11 10  1  0
 12 11  2  0
 14  5  1  0
 14 15  1  0
 15 20  1  0
 15 16  2  0
 16 17  1  0
 17 18  2  0
 19 21  1  0
 19 18  1  0
 20 19  2  0
 21 25  1  0
 22 23  1  0
 22 21  2  0
 23 24  2  0
 25 24  1  0
  2 26  1  0
  3 27  1  0
  8 28  1  0
 11 29  1  0
 13 30  1  0
 13 31  1  0
 16 32  1  0
 17 33  1  0
 22 34  1  0
 23 35  1  0
 24 36  1  0
M  ISO  8  26  14  27  14  28  14  29  14  32  14  33  14  34  14  35  14
M  ISO  1  36  14
M  END
>  <minimizedAffinity>  (1) 
-5.15483236

>  <minimizedRMSD>  (1) 
1.39775288

$$$$
