
     RDKit          3D

 30 32  0  0  0  0  0  0  0  0999 V2000
   37.8140   26.7080   33.7140 C   0  0  0  0  0  0  0  0  0  0  0  0
   38.5490   26.9160   32.5720 C   0  0  0  0  0  0  0  0  0  0  0  0
   38.1100   27.8470   31.6610 C   0  0  0  0  0  0  0  0  0  0  0  0
   36.9690   28.5470   31.8920 N   0  0  0  0  0  0  0  0  0  0  0  0
   36.2570   28.3290   33.0250 C   0  0  0  0  0  0  0  0  0  0  0  0
   36.6880   27.4220   33.9070 N   0  0  0  0  0  0  0  0  0  0  0  0
   38.2140   25.7540   34.7010 C   0  0  0  0  0  0  0  0  0  0  0  0
   39.2350   24.8920   34.3980 C   0  0  0  0  0  0  0  0  0  0  0  0
   39.6310   23.9580   35.3440 C   0  0  0  0  0  0  0  0  0  0  0  0
   38.9780   23.9460   36.5410 N   0  0  0  0  0  0  0  0  0  0  0  0
   37.9790   24.7900   36.8360 C   0  0  0  0  0  0  0  0  0  0  0  0
   37.6240   25.6660   35.9170 N   0  0  0  0  0  0  0  0  0  0  0  0
   40.6680   23.0140   35.1350 N   0  0  0  0  0  0  0  0  0  0  0  0
   34.7800   29.2770   33.2580 S   0  0  0  0  0  0  0  0  0  0  0  0
   34.7880   30.3130   34.6810 C   0  0  0  0  0  0  0  0  0  0  0  0
   35.7970   31.0610   35.2600 C   0  0  0  0  0  0  0  0  0  0  0  0
   35.5190   31.8080   36.3860 C   0  0  0  0  0  0  0  0  0  0  0  0
   34.3130   31.8370   36.9380 N   0  0  0  0  0  0  0  0  0  0  0  0
   33.3180   31.0950   36.3630 C   0  0  0  0  0  0  0  0  0  0  0  0
   33.5510   30.3420   35.2480 N   0  0  0  0  0  0  0  0  0  0  0  0
   32.0930   31.1880   37.0100 O   0  0  0  0  0  0  0  0  0  0  0  0
   39.4728   26.3473   32.3899 H   0  0  0  0  0  0  0  0  0  0  0  0
   38.6853   28.0260   30.7407 H   0  0  0  0  0  0  0  0  0  0  0  0
   39.7335   24.9399   33.4186 H   0  0  0  0  0  0  0  0  0  0  0  0
   37.4727   24.7528   37.8118 H   0  0  0  0  0  0  0  0  0  0  0  0
   40.9141   22.3460   35.8794 H   0  0  0  0  0  0  0  0  0  0  0  0
   41.1753   22.9962   34.2387 H   0  0  0  0  0  0  0  0  0  0  0  0
   36.8086   31.0603   34.8280 H   0  0  0  0  0  0  0  0  0  0  0  0
   36.3257   32.4005   36.8422 H   0  0  0  0  0  0  0  0  0  0  0  0
   31.3123   30.6856   36.6663 H   0  0  0  0  0  0  0  0  0  0  0  0
  1  6  1  0
  1  7  1  0
  2  1  2  0
  3  4  2  0
  3  2  1  0
  4  5  1  0
  5 14  1  0
  5  6  2  0
  7 12  1  0
  8  7  2  0
  8  9  1  0
  9 10  2  0
 10 11  1  0
 12 11  2  0
 13  9  1  0
 14 15  1  0
 15 20  1  0
 15 16  2  0
 16 17  1  0
 17 18  2  0
 19 18  1  0
 19 21  1  0
 20 19  2  0
  2 22  1  0
  3 23  1  0
  8 24  1  0
 11 25  1  0
 13 26  1  0
 13 27  1  0
 16 28  1  0
 17 29  1  0
 21 30  1  0
M  ISO  7  22  14  23  14  24  14  25  14  28  14  29  14  30   3
M  END
>  <minimizedAffinity>  (1) 
-4.80945921

>  <minimizedRMSD>  (1) 
0.0794717073

$$$$
