
     RDKit          3D

 31 33  0  0  0  0  0  0  0  0999 V2000
   37.7210   26.8860   33.6180 C   0  0  0  0  0  0  0  0  0  0  0  0
   38.3920   27.1240   32.4440 C   0  0  0  0  0  0  0  0  0  0  0  0
   37.9060   28.0500   31.5610 C   0  0  0  0  0  0  0  0  0  0  0  0
   36.7730   28.7250   31.8480 N   0  0  0  0  0  0  0  0  0  0  0  0
   36.1110   28.4900   33.0070 C   0  0  0  0  0  0  0  0  0  0  0  0
   36.6080   27.5810   33.8470 N   0  0  0  0  0  0  0  0  0  0  0  0
   38.1920   25.9300   34.5730 C   0  0  0  0  0  0  0  0  0  0  0  0
   39.3290   25.2190   34.2860 C   0  0  0  0  0  0  0  0  0  0  0  0
   39.7800   24.2990   35.2230 C   0  0  0  0  0  0  0  0  0  0  0  0
   39.0650   24.1530   36.3810 N   0  0  0  0  0  0  0  0  0  0  0  0
   37.9550   24.8530   36.6530 C   0  0  0  0  0  0  0  0  0  0  0  0
   37.5460   25.7170   35.7520 N   0  0  0  0  0  0  0  0  0  0  0  0
   40.9390   23.4960   35.0590 N   0  0  0  0  0  0  0  0  0  0  0  0
   34.6410   29.4200   33.2980 S   0  0  0  0  0  0  0  0  0  0  0  0
   34.6670   30.4190   34.7420 C   0  0  0  0  0  0  0  0  0  0  0  0
   35.6650   31.2130   35.2950 C   0  0  0  0  0  0  0  0  0  0  0  0
   35.4260   31.9110   36.4490 C   0  0  0  0  0  0  0  0  0  0  0  0
   34.2440   31.8560   37.0790 N   0  0  0  0  0  0  0  0  0  0  0  0
   33.2730   31.0770   36.5320 C   0  0  0  0  0  0  0  0  0  0  0  0
   33.4620   30.3650   35.3870 N   0  0  0  0  0  0  0  0  0  0  0  0
   32.0530   31.0830   37.2720 N   0  0  0  0  0  0  0  0  0  0  0  0
   39.3159   26.5730   32.2141 H   0  0  0  0  0  0  0  0  0  0  0  0
   38.4384   28.2439   30.6182 H   0  0  0  0  0  0  0  0  0  0  0  0
   39.8686   25.3733   33.3399 H   0  0  0  0  0  0  0  0  0  0  0  0
   37.4068   24.7094   37.5958 H   0  0  0  0  0  0  0  0  0  0  0  0
   41.2149   22.8330   35.7974 H   0  0  0  0  0  0  0  0  0  0  0  0
   41.5041   23.5764   34.2016 H   0  0  0  0  0  0  0  0  0  0  0  0
   36.6477   31.2808   34.8053 H   0  0  0  0  0  0  0  0  0  0  0  0
   36.2275   32.5350   36.8712 H   0  0  0  0  0  0  0  0  0  0  0  0
   31.2502   30.5261   36.9460 H   0  0  0  0  0  0  0  0  0  0  0  0
   31.9751   31.6443   38.1321 H   0  0  0  0  0  0  0  0  0  0  0  0
  1  6  1  0
  1  7  1  0
  2  1  2  0
  3  4  2  0
  3  2  1  0
  4  5  1  0
  5 14  1  0
  5  6  2  0
  7 12  1  0
  8  7  2  0
  8  9  1  0
  9 10  2  0
 10 11  1  0
 12 11  2  0
 13  9  1  0
 14 15  1  0
 15 16  2  0
 15 20  1  0
 16 17  1  0
 17 18  2  0
 19 18  1  0
 19 21  1  0
 20 19  2  0
  2 22  1  0
  3 23  1  0
  8 24  1  0
 11 25  1  0
 13 26  1  0
 13 27  1  0
 16 28  1  0
 17 29  1  0
 21 30  1  0
 21 31  1  0
M  ISO  6  22  14  23  14  24  14  25  14  28  14  29  14
M  END
>  <minimizedAffinity>  (1) 
-4.93800926

>  <minimizedRMSD>  (1) 
0.312131703

$$$$
