
     RDKit          3D

 30 32  0  0  0  0  0  0  0  0999 V2000
   38.0340   26.5030   33.8030 C   0  0  0  0  0  0  0  0  0  0  0  0
   38.8350   26.6900   32.7040 C   0  0  0  0  0  0  0  0  0  0  0  0
   38.4830   27.5890   31.7390 C   0  0  0  0  0  0  0  0  0  0  0  0
   37.3260   28.3000   31.8800 N   0  0  0  0  0  0  0  0  0  0  0  0
   36.5400   28.1120   32.9620 C   0  0  0  0  0  0  0  0  0  0  0  0
   36.9150   27.2270   33.8820 N   0  0  0  0  0  0  0  0  0  0  0  0
   38.3670   25.5720   34.8340 C   0  0  0  0  0  0  0  0  0  0  0  0
   39.5270   24.8510   34.7160 C   0  0  0  0  0  0  0  0  0  0  0  0
   39.8500   23.9490   35.7200 C   0  0  0  0  0  0  0  0  0  0  0  0
   38.9970   23.8250   36.7770 N   0  0  0  0  0  0  0  0  0  0  0  0
   37.8630   24.5330   36.8880 C   0  0  0  0  0  0  0  0  0  0  0  0
   37.5760   25.3860   35.9200 N   0  0  0  0  0  0  0  0  0  0  0  0
   41.0180   23.1380   35.7250 N   0  0  0  0  0  0  0  0  0  0  0  0
   35.0620   29.0760   33.0630 S   0  0  0  0  0  0  0  0  0  0  0  0
   34.9520   30.1200   34.4770 C   0  0  0  0  0  0  0  0  0  0  0  0
   35.9220   30.8510   35.1410 C   0  0  0  0  0  0  0  0  0  0  0  0
   35.5620   31.6050   36.2370 C   0  0  0  0  0  0  0  0  0  0  0  0
   34.2990   31.6570   36.6860 N   0  0  0  0  0  0  0  0  0  0  0  0
   33.3630   30.9390   36.0290 C   0  0  0  0  0  0  0  0  0  0  0  0
   33.6640   30.1750   34.9360 N   0  0  0  0  0  0  0  0  0  0  0  0
   31.7120   31.0700   36.7000 S   0  0  0  0  0  0  0  0  0  0  0  0
   39.7654   26.1124   32.6004 H   0  0  0  0  0  0  0  0  0  0  0  0
   39.1242   27.7389   30.8579 H   0  0  0  0  0  0  0  0  0  0  0  0
   40.1864   24.9843   33.8457 H   0  0  0  0  0  0  0  0  0  0  0  0
   37.1959   24.4081   37.7536 H   0  0  0  0  0  0  0  0  0  0  0  0
   41.1916   22.4898   36.5064 H   0  0  0  0  0  0  0  0  0  0  0  0
   41.6905   23.1988   34.9472 H   0  0  0  0  0  0  0  0  0  0  0  0
   36.9670   30.8303   34.7982 H   0  0  0  0  0  0  0  0  0  0  0  0
   36.3366   32.1838   36.7614 H   0  0  0  0  0  0  0  0  0  0  0  0
   31.7736   31.0651   38.0686 H   0  0  0  0  0  0  0  0  0  0  0  0
  1  6  1  0
  1  7  1  0
  2  1  2  0
  3  4  2  0
  3  2  1  0
  4  5  1  0
  5 14  1  0
  5  6  2  0
  7 12  1  0
  8  7  2  0
  8  9  1  0
  9 13  1  0
  9 10  2  0
 10 11  1  0
 12 11  2  0
 14 15  1  0
 15 20  1  0
 15 16  2  0
 16 17  1  0
 17 18  2  0
 19 18  1  0
 19 21  1  0
 20 19  2  0
  2 22  1  0
  3 23  1  0
  8 24  1  0
 11 25  1  0
 13 26  1  0
 13 27  1  0
 16 28  1  0
 17 29  1  0
 21 30  1  0
M  ISO  7  22  14  23  14  24  14  25  14  28  14  29  14  30  11
M  END
>  <minimizedAffinity>  (1) 
-4.79389524

>  <minimizedRMSD>  (1) 
0.329494387

$$$$
