
     RDKit          3D

 36 39  0  0  0  0  0  0  0  0999 V2000
   37.8650   26.6730   33.6930 C   0  0  0  0  0  0  0  0  0  0  0  0
   38.5930   26.8600   32.5460 C   0  0  0  0  0  0  0  0  0  0  0  0
   38.1790   27.7860   31.6240 C   0  0  0  0  0  0  0  0  0  0  0  0
   37.0510   28.5120   31.8520 N   0  0  0  0  0  0  0  0  0  0  0  0
   36.3400   28.3190   32.9870 C   0  0  0  0  0  0  0  0  0  0  0  0
   36.7630   27.4120   33.8700 N   0  0  0  0  0  0  0  0  0  0  0  0
   38.2520   25.7220   34.6870 C   0  0  0  0  0  0  0  0  0  0  0  0
   39.2800   24.8590   34.4000 C   0  0  0  0  0  0  0  0  0  0  0  0
   39.6670   23.9280   35.3540 C   0  0  0  0  0  0  0  0  0  0  0  0
   38.9930   23.9210   36.5510 N   0  0  0  0  0  0  0  0  0  0  0  0
   37.9870   24.7690   36.8250 C   0  0  0  0  0  0  0  0  0  0  0  0
   37.6350   25.6500   35.8960 N   0  0  0  0  0  0  0  0  0  0  0  0
   40.6990   22.9890   35.1980 N   0  0  0  0  0  0  0  0  0  0  0  0
   34.8880   29.2970   33.2170 S   0  0  0  0  0  0  0  0  0  0  0  0
   34.9130   30.3470   34.6260 C   0  0  0  0  0  0  0  0  0  0  0  0
   35.9230   31.1290   35.1750 C   0  0  0  0  0  0  0  0  0  0  0  0
   35.6620   31.8720   36.2980 C   0  0  0  0  0  0  0  0  0  0  0  0
   34.4760   31.8770   36.8920 N   0  0  0  0  0  0  0  0  0  0  0  0
   33.4820   31.1070   36.3530 C   0  0  0  0  0  0  0  0  0  0  0  0
   33.6870   30.3480   35.2340 N   0  0  0  0  0  0  0  0  0  0  0  0
   32.1890   31.1760   37.0840 C   0  0  0  0  0  0  0  0  0  0  0  0
   31.0820   30.2970   36.6340 C   0  0  0  0  0  0  0  0  0  0  0  0
   31.0140   31.7770   36.4600 C   0  0  0  0  0  0  0  0  0  0  0  0
   39.5041   26.2702   32.3668 H   0  0  0  0  0  0  0  0  0  0  0  0
   38.7576   27.9419   30.7015 H   0  0  0  0  0  0  0  0  0  0  0  0
   39.7905   24.9046   33.4267 H   0  0  0  0  0  0  0  0  0  0  0  0
   37.4683   24.7341   37.7944 H   0  0  0  0  0  0  0  0  0  0  0  0
   40.9187   22.3336   35.9616 H   0  0  0  0  0  0  0  0  0  0  0  0
   41.2364   22.9555   34.3200 H   0  0  0  0  0  0  0  0  0  0  0  0
   36.9212   31.1516   34.7134 H   0  0  0  0  0  0  0  0  0  0  0  0
   36.4681   32.4881   36.7229 H   0  0  0  0  0  0  0  0  0  0  0  0
   32.7177   31.3523   38.0323 H   0  0  0  0  0  0  0  0  0  0  0  0
   31.2154   29.6426   35.7599 H   0  0  0  0  0  0  0  0  0  0  0  0
   30.4466   29.5319   37.1039 H   0  0  0  0  0  0  0  0  0  0  0  0
   31.0904   32.2157   35.4542 H   0  0  0  0  0  0  0  0  0  0  0  0
   30.2973   32.5600   36.7485 H   0  0  0  0  0  0  0  0  0  0  0  0
  1  6  1  0
  1  7  1  0
  2  1  2  0
  3  4  2  0
  3  2  1  0
  4  5  1  0
  5 14  1  0
  5  6  2  0
  7 12  1  0
  8  7  2  0
  8  9  1  0
  9 10  2  0
 10 11  1  0
 12 11  2  0
 13  9  1  0
 14 15  1  0
 15 16  2  0
 15 20  1  0
 16 17  1  0
 17 18  2  0
 19 18  1  0
 19 21  1  0
 20 19  2  0
 22 21  1  0
 23 22  1  0
 23 21  1  0
  2 24  1  0
  3 25  1  0
  8 26  1  0
 11 27  1  0
 13 28  1  0
 13 29  1  0
 16 30  1  0
 17 31  1  0
 21 32  1  0
 22 33  1  0
 22 34  1  0
 23 35  1  0
 23 36  1  0
M  ISO  8  24  14  25  14  26  14  27  14  30  14  31  14  32  13  33  13
M  ISO  3  34  13  35  13  36  13
M  END
>  <minimizedAffinity>  (1) 
-5.12483168

>  <minimizedRMSD>  (1) 
0.15818724

$$$$
