
     RDKit          3D

 35 38  0  0  0  0  0  0  0  0999 V2000
   38.3820   26.1230   34.0060 C   0  0  0  0  0  0  0  0  0  0  0  0
   39.3950   26.3370   33.1070 C   0  0  0  0  0  0  0  0  0  0  0  0
   39.1940   27.2050   32.0650 C   0  0  0  0  0  0  0  0  0  0  0  0
   38.0100   27.8450   31.9250 N   0  0  0  0  0  0  0  0  0  0  0  0
   37.0140   27.6260   32.8200 C   0  0  0  0  0  0  0  0  0  0  0  0
   37.2300   26.7780   33.8230 N   0  0  0  0  0  0  0  0  0  0  0  0
   38.5240   25.2310   35.1140 C   0  0  0  0  0  0  0  0  0  0  0  0
   39.6250   24.4130   35.1540 C   0  0  0  0  0  0  0  0  0  0  0  0
   39.7800   23.5370   36.2270 C   0  0  0  0  0  0  0  0  0  0  0  0
   38.8170   23.5390   37.1930 N   0  0  0  0  0  0  0  0  0  0  0  0
   37.7380   24.3430   37.1490 C   0  0  0  0  0  0  0  0  0  0  0  0
   37.6120   25.1700   36.1150 N   0  0  0  0  0  0  0  0  0  0  0  0
   40.8550   22.6530   36.3900 N   0  0  0  0  0  0  0  0  0  0  0  0
   35.4930   28.4940   32.5780 S   0  0  0  0  0  0  0  0  0  0  0  0
   35.0100   29.5340   33.8970 C   0  0  0  0  0  0  0  0  0  0  0  0
   35.7280   30.4740   34.6260 C   0  0  0  0  0  0  0  0  0  0  0  0
   35.1140   31.1880   35.6330 C   0  0  0  0  0  0  0  0  0  0  0  0
   33.8220   31.0020   35.9390 N   0  0  0  0  0  0  0  0  0  0  0  0
   33.1370   30.0840   35.2200 C   0  0  0  0  0  0  0  0  0  0  0  0
   33.6930   29.3520   34.2150 N   0  0  0  0  0  0  0  0  0  0  0  0
   31.7150   29.9300   35.6090 C   0  0  0  0  0  0  0  0  0  0  0  0
   30.9940   30.7950   36.4480 C   0  0  0  0  0  0  0  0  0  0  0  0
   29.3510   30.0040   36.4820 S   0  0  0  0  0  0  0  0  0  0  0  0
   29.9320   28.6140   35.3360 C   0  0  0  0  0  0  0  0  0  0  0  0
   31.0640   28.8850   35.1260 N   0  0  0  0  0  0  0  0  0  0  0  0
   40.3582   25.8180   33.2206 H   0  0  0  0  0  0  0  0  0  0  0  0
   40.0004   27.3823   31.3381 H   0  0  0  0  0  0  0  0  0  0  0  0
   40.3751   24.4481   34.3502 H   0  0  0  0  0  0  0  0  0  0  0  0
   36.9810   24.3166   37.9467 H   0  0  0  0  0  0  0  0  0  0  0  0
   40.8946   22.0368   37.2144 H   0  0  0  0  0  0  0  0  0  0  0  0
   41.6056   22.6195   35.6854 H   0  0  0  0  0  0  0  0  0  0  0  0
   36.7900   30.6491   34.3989 H   0  0  0  0  0  0  0  0  0  0  0  0
   35.6984   31.9283   36.1991 H   0  0  0  0  0  0  0  0  0  0  0  0
   31.3323   31.7116   36.9534 H   0  0  0  0  0  0  0  0  0  0  0  0
   29.3546   27.7583   34.9560 H   0  0  0  0  0  0  0  0  0  0  0  0
  1  7  1  0
  2  1  2  0
  3  2  1  0
  4  3  2  0
  4  5  1  0
  5  6  2  0
  6  1  1  0
  7  8  2  0
  7 12  1  0
  8  9  1  0
  9 13  1  0
  9 10  2  0
 11 10  1  0
 12 11  2  0
 14  5  1  0
 14 15  1  0
 15 20  1  0
 15 16  2  0
 16 17  1  0
 17 18  2  0
 19 21  1  0
 19 18  1  0
 20 19  2  0
 21 22  2  0
 22 23  1  0
 24 23  1  0
 25 24  2  0
 25 21  1  0
  2 26  1  0
  3 27  1  0
  8 28  1  0
 11 29  1  0
 13 30  1  0
 13 31  1  0
 16 32  1  0
 17 33  1  0
 22 34  1  0
 24 35  1  0
M  ISO  8  26  14  27  14  28  14  29  14  32  14  33  14  34  14  35  14
M  END
>  <minimizedAffinity>  (1) 
-5.1074419

>  <minimizedRMSD>  (1) 
1.32476926

$$$$
