
     RDKit          3D

 30 31  0  0  0  0  0  0  0  0999 V2000
   38.6360   23.3780   36.7490 C   0  0  0  0  0  0  0  0  0  0  0  0
   39.0650   24.6550   36.0730 C   0  0  0  0  0  0  0  0  0  0  0  0
   38.2270   25.7560   36.3730 C   0  0  0  0  0  0  0  0  0  0  0  0
   38.5350   26.9940   35.7940 C   0  0  0  0  0  0  0  0  0  0  0  0
   39.6210   27.0690   34.9770 N   0  0  0  0  0  0  0  0  0  0  0  0
   40.3980   25.9860   34.7170 C   0  0  0  0  0  0  0  0  0  0  0  0
   40.1240   24.7950   35.2580 N   0  0  0  0  0  0  0  0  0  0  0  0
   37.2040   23.4230   37.1540 C   0  0  0  0  0  0  0  0  0  0  0  0
   39.4770   23.1490   37.9890 C   0  0  0  0  0  0  0  0  0  0  0  0
   38.8980   22.2550   35.7850 C   0  0  0  0  0  0  0  0  0  0  0  0
   37.7170   21.8280   35.0200 C   0  0  0  0  0  0  0  0  0  0  0  0
   37.6220   22.1680   33.6860 C   0  0  0  0  0  0  0  0  0  0  0  0
   36.5550   21.8140   32.8850 C   0  0  0  0  0  0  0  0  0  0  0  0
   35.5340   21.0910   33.4290 N   0  0  0  0  0  0  0  0  0  0  0  0
   35.6340   20.7600   34.7410 C   0  0  0  0  0  0  0  0  0  0  0  0
   36.6920   21.1150   35.5220 N   0  0  0  0  0  0  0  0  0  0  0  0
   37.3601   25.6428   37.0406 H   0  0  0  0  0  0  0  0  0  0  0  0
   37.9161   27.8811   35.9942 H   0  0  0  0  0  0  0  0  0  0  0  0
   41.2668   26.0907   34.0505 H   0  0  0  0  0  0  0  0  0  0  0  0
   37.1333   23.4252   38.2517 H   0  0  0  0  0  0  0  0  0  0  0  0
   36.7386   24.3362   36.7548 H   0  0  0  0  0  0  0  0  0  0  0  0
   36.6821   22.5408   36.7548 H   0  0  0  0  0  0  0  0  0  0  0  0
   38.8618   23.3165   38.8854 H   0  0  0  0  0  0  0  0  0  0  0  0
   39.8538   22.1156   37.9908 H   0  0  0  0  0  0  0  0  0  0  0  0
   40.3257   23.8487   37.9908 H   0  0  0  0  0  0  0  0  0  0  0  0
   39.6692   22.5845   35.0732 H   0  0  0  0  0  0  0  0  0  0  0  0
   39.2141   21.3900   36.3865 H   0  0  0  0  0  0  0  0  0  0  0  0
   38.4394   22.7517   33.2374 H   0  0  0  0  0  0  0  0  0  0  0  0
   36.5284   22.1099   31.8259 H   0  0  0  0  0  0  0  0  0  0  0  0
   34.8205   20.1762   35.1964 H   0  0  0  0  0  0  0  0  0  0  0  0
  1  8  1  0
  1  9  1  0
  2  3  2  0
  2  1  1  0
  4  3  1  0
  5  4  2  0
  6  5  1  0
  6  7  2  0
  7  2  1  0
 10  1  1  0
 11 16  1  0
 11 10  1  0
 12 11  2  0
 13 14  2  0
 13 12  1  0
 14 15  1  0
 15 16  2  0
  3 17  1  0
  4 18  1  0
  6 19  1  0
  8 20  1  0
  8 21  1  0
  8 22  1  0
  9 23  1  0
  9 24  1  0
  9 25  1  0
 10 26  1  0
 10 27  1  0
 12 28  1  0
 13 29  1  0
 15 30  1  0
M  ISO  8  17  14  18  14  19  14  20   8  21   8  22   8  23   8  24   8
M  ISO  6  25   8  26   8  27   8  28  14  29  14  30  14
M  END
>  <minimizedAffinity>  (1) 
-4.11935711

>  <minimizedRMSD>  (1) 
3.9093771

$$$$
