
     RDKit          3D

 32 33  0  0  0  0  0  0  0  0999 V2000
   39.4510   25.2060   34.8640 C   0  0  0  0  0  0  0  0  0  0  0  0
   39.2210   24.4480   36.1360 C   0  0  0  0  0  0  0  0  0  0  0  0
   38.1720   24.9650   36.9340 C   0  0  0  0  0  0  0  0  0  0  0  0
   37.9010   24.2910   38.1530 C   0  0  0  0  0  0  0  0  0  0  0  0
   38.6620   23.2000   38.4770 N   0  0  0  0  0  0  0  0  0  0  0  0
   39.6570   22.7520   37.6720 C   0  0  0  0  0  0  0  0  0  0  0  0
   39.9230   23.3740   36.5220 N   0  0  0  0  0  0  0  0  0  0  0  0
   39.6440   26.6720   35.1490 C   0  0  0  0  0  0  0  0  0  0  0  0
   38.2290   25.1010   33.9660 C   0  0  0  0  0  0  0  0  0  0  0  0
   40.6440   24.6480   34.1780 C   0  0  0  0  0  0  0  0  0  0  0  0
   41.8180   25.4630   34.1890 N   0  0  0  0  0  0  0  0  0  0  0  0
   41.8720   26.4210   33.2440 C   0  0  0  0  0  0  0  0  0  0  0  0
   42.9740   27.2740   33.1630 C   0  0  0  0  0  0  0  0  0  0  0  0
   43.9930   27.0850   34.0930 C   0  0  0  0  0  0  0  0  0  0  0  0
   45.0310   27.8110   34.0960 O   0  0  0  0  0  0  0  0  0  0  0  0
   43.9430   26.1330   35.0340 N   0  0  0  0  0  0  0  0  0  0  0  0
   42.8480   25.3530   35.0450 C   0  0  0  0  0  0  0  0  0  0  0  0
   42.7830   24.4540   35.9220 O   0  0  0  0  0  0  0  0  0  0  0  0
   37.5940   25.8479   36.6236 H   0  0  0  0  0  0  0  0  0  0  0  0
   37.0988   24.6368   38.8215 H   0  0  0  0  0  0  0  0  0  0  0  0
   40.2472   21.8723   37.9683 H   0  0  0  0  0  0  0  0  0  0  0  0
   39.6654   26.8344   36.2367 H   0  0  0  0  0  0  0  0  0  0  0  0
   40.5943   27.0090   34.7092 H   0  0  0  0  0  0  0  0  0  0  0  0
   38.8133   27.2435   34.7092 H   0  0  0  0  0  0  0  0  0  0  0  0
   37.3238   25.0232   34.5862 H   0  0  0  0  0  0  0  0  0  0  0  0
   38.1626   25.9967   33.3310 H   0  0  0  0  0  0  0  0  0  0  0  0
   38.3163   24.2070   33.3310 H   0  0  0  0  0  0  0  0  0  0  0  0
   40.3723   24.4654   33.1279 H   0  0  0  0  0  0  0  0  0  0  0  0
   40.9101   23.7416   34.7416 H   0  0  0  0  0  0  0  0  0  0  0  0
   41.0418   26.5321   32.5309 H   0  0  0  0  0  0  0  0  0  0  0  0
   43.0348   28.0616   32.3975 H   0  0  0  0  0  0  0  0  0  0  0  0
   44.7051   26.0050   35.7149 H   0  0  0  0  0  0  0  0  0  0  0  0
  1  8  1  0
  1  2  1  0
  2  7  1  0
  2  3  2  0
  3  4  1  0
  4  5  2  0
  6  5  1  0
  7  6  2  0
  9  1  1  0
 10 11  1  0
 10  1  1  0
 11 17  1  0
 12 11  1  0
 13 12  2  0
 13 14  1  0
 14 15  2  0
 14 16  1  0
 16 17  1  0
 17 18  2  0
  3 19  1  0
  4 20  1  0
  6 21  1  0
  8 22  1  0
  8 23  1  0
  8 24  1  0
  9 25  1  0
  9 26  1  0
  9 27  1  0
 10 28  1  0
 10 29  1  0
 12 30  1  0
 13 31  1  0
 16 32  1  0
M  ISO  8  19  14  20  14  21  14  22   8  23   8  24   8  25   8  26   8
M  ISO  6  27   8  28   8  29   8  30  14  31  14  32   9
M  END
>  <minimizedAffinity>  (1) 
-4.14744997

>  <minimizedRMSD>  (1) 
7.14168167

$$$$
