
     RDKit          3D

 28 29  0  0  0  0  0  0  0  0999 V2000
   38.6330   23.3020   36.7400 C   0  0  0  0  0  0  0  0  0  0  0  0
   39.0040   24.5870   36.0770 C   0  0  0  0  0  0  0  0  0  0  0  0
   38.2160   25.6840   36.4630 C   0  0  0  0  0  0  0  0  0  0  0  0
   38.4770   26.9420   35.9040 C   0  0  0  0  0  0  0  0  0  0  0  0
   39.4980   27.0200   35.0020 N   0  0  0  0  0  0  0  0  0  0  0  0
   40.2360   25.9430   34.6530 C   0  0  0  0  0  0  0  0  0  0  0  0
   39.9890   24.7390   35.1870 N   0  0  0  0  0  0  0  0  0  0  0  0
   37.2030   23.3250   37.2080 C   0  0  0  0  0  0  0  0  0  0  0  0
   39.4970   23.0830   37.9820 C   0  0  0  0  0  0  0  0  0  0  0  0
   38.8600   22.1750   35.8030 C   0  0  0  0  0  0  0  0  0  0  0  0
   37.6510   21.7270   35.1360 N   0  0  0  0  0  0  0  0  0  0  0  0
   36.5520   21.0720   35.5530 C   0  0  0  0  0  0  0  0  0  0  0  0
   35.6990   20.8910   34.5270 N   0  0  0  0  0  0  0  0  0  0  0  0
   36.3210   21.4650   33.4580 C   0  0  0  0  0  0  0  0  0  0  0  0
   37.5000   21.9670   33.8370 N   0  0  0  0  0  0  0  0  0  0  0  0
   37.4045   25.5570   37.1947 H   0  0  0  0  0  0  0  0  0  0  0  0
   37.8853   27.8273   36.1799 H   0  0  0  0  0  0  0  0  0  0  0  0
   41.0496   26.0561   33.9214 H   0  0  0  0  0  0  0  0  0  0  0  0
   37.1771   23.3254   38.3077 H   0  0  0  0  0  0  0  0  0  0  0  0
   36.7078   24.2312   36.8292 H   0  0  0  0  0  0  0  0  0  0  0  0
   36.6789   22.4352   36.8292 H   0  0  0  0  0  0  0  0  0  0  0  0
   38.8875   23.2375   38.8846 H   0  0  0  0  0  0  0  0  0  0  0  0
   39.8919   22.0563   37.9776 H   0  0  0  0  0  0  0  0  0  0  0  0
   40.3333   23.7976   37.9776 H   0  0  0  0  0  0  0  0  0  0  0  0
   39.5812   22.4978   35.0377 H   0  0  0  0  0  0  0  0  0  0  0  0
   39.2352   21.3290   36.3976 H   0  0  0  0  0  0  0  0  0  0  0  0
   36.3757   20.7329   36.5845 H   0  0  0  0  0  0  0  0  0  0  0  0
   35.9136   21.5083   32.4372 H   0  0  0  0  0  0  0  0  0  0  0  0
  1  8  1  0
  1  9  1  0
  2  3  2  0
  2  1  1  0
  4  3  1  0
  5  4  2  0
  6  5  1  0
  6  7  2  0
  7  2  1  0
 10  1  1  0
 11 12  1  0
 11 10  1  0
 13 12  2  0
 14 15  2  0
 14 13  1  0
 15 11  1  0
  3 16  1  0
  4 17  1  0
  6 18  1  0
  8 19  1  0
  8 20  1  0
  8 21  1  0
  9 22  1  0
  9 23  1  0
  9 24  1  0
 10 25  1  0
 10 26  1  0
 12 27  1  0
 14 28  1  0
M  ISO  8  16  14  17  14  18  14  19   8  20   8  21   8  22   8  23   8
M  ISO  5  24   8  25   8  26   8  27  14  28  14
M  END
>  <minimizedAffinity>  (1) 
-3.81258321

>  <minimizedRMSD>  (1) 
3.74317384

$$$$
