
     RDKit          3D

 36 38  0  0  0  0  0  0  0  0999 V2000
   39.7720   24.0890   35.8080 C   0  0  0  0  0  0  0  0  0  0  0  0
   40.8050   23.1100   36.2760 C   0  0  0  0  0  0  0  0  0  0  0  0
   42.1350   23.4700   35.9680 C   0  0  0  0  0  0  0  0  0  0  0  0
   43.1650   22.6100   36.3710 C   0  0  0  0  0  0  0  0  0  0  0  0
   42.8230   21.4710   37.0390 N   0  0  0  0  0  0  0  0  0  0  0  0
   41.5350   21.1600   37.3160 C   0  0  0  0  0  0  0  0  0  0  0  0
   40.5450   21.9740   36.9360 N   0  0  0  0  0  0  0  0  0  0  0  0
   40.4150   25.2410   35.0890 C   0  0  0  0  0  0  0  0  0  0  0  0
   39.0350   24.6790   37.0040 C   0  0  0  0  0  0  0  0  0  0  0  0
   38.8160   23.3790   34.9210 C   0  0  0  0  0  0  0  0  0  0  0  0
   38.5000   24.1140   33.7170 N   0  0  0  0  0  0  0  0  0  0  0  0
   38.6690   23.6430   32.4630 C   0  0  0  0  0  0  0  0  0  0  0  0
   38.2790   24.5690   31.5630 N   0  0  0  0  0  0  0  0  0  0  0  0
   37.8500   25.6590   32.2270 C   0  0  0  0  0  0  0  0  0  0  0  0
   37.3590   26.8600   31.7580 C   0  0  0  0  0  0  0  0  0  0  0  0
   37.2370   27.1110   30.5370 O   0  0  0  0  0  0  0  0  0  0  0  0
   37.0150   27.7500   32.7250 N   0  0  0  0  0  0  0  0  0  0  0  0
   37.1570   27.4520   34.0230 C   0  0  0  0  0  0  0  0  0  0  0  0
   36.7780   28.4330   34.9930 N   0  0  0  0  0  0  0  0  0  0  0  0
   37.6380   26.2800   34.4710 N   0  0  0  0  0  0  0  0  0  0  0  0
   37.9970   25.3530   33.5640 C   0  0  0  0  0  0  0  0  0  0  0  0
   42.3567   24.4011   35.4259 H   0  0  0  0  0  0  0  0  0  0  0  0
   44.2175   22.8461   36.1553 H   0  0  0  0  0  0  0  0  0  0  0  0
   41.3014   20.2314   37.8573 H   0  0  0  0  0  0  0  0  0  0  0  0
   40.8138   25.9555   35.8242 H   0  0  0  0  0  0  0  0  0  0  0  0
   41.2352   24.8677   34.4582 H   0  0  0  0  0  0  0  0  0  0  0  0
   39.6667   25.7432   34.4582 H   0  0  0  0  0  0  0  0  0  0  0  0
   39.4931   24.3122   37.9344 H   0  0  0  0  0  0  0  0  0  0  0  0
   39.1012   25.7765   36.9705 H   0  0  0  0  0  0  0  0  0  0  0  0
   37.9786   24.3742   36.9705 H   0  0  0  0  0  0  0  0  0  0  0  0
   39.2568   22.4127   34.6347 H   0  0  0  0  0  0  0  0  0  0  0  0
   37.8787   23.2563   35.4836 H   0  0  0  0  0  0  0  0  0  0  0  0
   39.0669   22.6487   32.2118 H   0  0  0  0  0  0  0  0  0  0  0  0
   36.6384   28.6700   32.4553 H   0  0  0  0  0  0  0  0  0  0  0  0
   36.8772   28.2290   35.9977 H   0  0  0  0  0  0  0  0  0  0  0  0
   36.4060   29.3433   34.6866 H   0  0  0  0  0  0  0  0  0  0  0  0
  1  2  1  0
  1  9  1  0
  2  7  1  0
  3  2  2  0
  3  4  1  0
  4  5  2  0
  5  6  1  0
  7  6  2  0
  8  1  1  0
 10  1  1  0
 11 10  1  0
 12 11  1  0
 13 14  1  0
 13 12  2  0
 14 21  2  0
 15 14  1  0
 15 17  1  0
 16 15  2  0
 17 18  1  0
 18 20  2  0
 18 19  1  0
 21 11  1  0
 21 20  1  0
  3 22  1  0
  4 23  1  0
  6 24  1  0
  8 25  1  0
  8 26  1  0
  8 27  1  0
  9 28  1  0
  9 29  1  0
  9 30  1  0
 10 31  1  0
 10 32  1  0
 12 33  1  0
 17 34  1  0
 19 35  1  0
 19 36  1  0
M  ISO  8  22  14  23  14  24  14  25   8  26   8  27   8  28   8  29   8
M  ISO  5  30   8  31   8  32   8  33  14  34   9
M  END
>  <minimizedAffinity>  (1) 
-3.7019639

>  <minimizedRMSD>  (1) 
5.710289

$$$$
