
     RDKit          3D

 49 52  0  0  0  0  0  0  0  0999 V2000
   37.5130   21.7220   34.9380 C   0  0  0  0  0  0  0  0  0  0  0  0
   36.5730   21.0390   35.7530 C   0  0  0  0  0  0  0  0  0  0  0  0
   35.5130   20.6040   35.0460 N   0  0  0  0  0  0  0  0  0  0  0  0
   35.6780   20.9580   33.7610 C   0  0  0  0  0  0  0  0  0  0  0  0
   34.9620   20.8020   32.6130 C   0  0  0  0  0  0  0  0  0  0  0  0
   35.3650   21.2680   31.3670 C   0  0  0  0  0  0  0  0  0  0  0  0
   36.5910   21.9240   31.3740 C   0  0  0  0  0  0  0  0  0  0  0  0
   37.3330   22.0940   32.5250 C   0  0  0  0  0  0  0  0  0  0  0  0
   36.8980   21.6300   33.7240 C   0  0  0  0  0  0  0  0  0  0  0  0
   38.5350   22.6680   32.0740 N   0  0  0  0  0  0  0  0  0  0  0  0
   38.7820   23.9640   31.7830 C   0  0  0  0  0  0  0  0  0  0  0  0
   39.9660   24.5800   31.4590 C   0  0  0  0  0  0  0  0  0  0  0  0
   40.0350   26.0240   31.1720 C   0  0  0  0  0  0  0  0  0  0  0  0
   41.0410   23.7210   31.4330 C   0  0  0  0  0  0  0  0  0  0  0  0
   42.1810   24.1930   31.1450 O   0  0  0  0  0  0  0  0  0  0  0  0
   40.9190   22.4100   31.7030 N   0  0  0  0  0  0  0  0  0  0  0  0
   39.6860   21.9170   32.0130 C   0  0  0  0  0  0  0  0  0  0  0  0
   39.5870   20.6790   32.2620 O   0  0  0  0  0  0  0  0  0  0  0  0
   38.7220   22.3390   35.4500 C   0  0  0  0  0  0  0  0  0  0  0  0
   38.5520   23.3750   36.5190 C   0  0  0  0  0  0  0  0  0  0  0  0
   39.0060   24.6960   35.9650 C   0  0  0  0  0  0  0  0  0  0  0  0
   38.1980   25.7800   36.2580 C   0  0  0  0  0  0  0  0  0  0  0  0
   38.5320   27.0490   35.7860 C   0  0  0  0  0  0  0  0  0  0  0  0
   39.6670   27.1470   35.0450 N   0  0  0  0  0  0  0  0  0  0  0  0
   40.4350   26.0820   34.7760 C   0  0  0  0  0  0  0  0  0  0  0  0
   40.1170   24.8700   35.2240 N   0  0  0  0  0  0  0  0  0  0  0  0
   37.1980   23.4750   37.0800 C   0  0  0  0  0  0  0  0  0  0  0  0
   39.4710   22.9880   37.7050 C   0  0  0  0  0  0  0  0  0  0  0  0
   36.6960   20.8834   36.8350 H   0  0  0  0  0  0  0  0  0  0  0  0
   34.7088   20.0856   35.4274 H   0  0  0  0  0  0  0  0  0  0  0  0
   34.0003   20.2717   32.6761 H   0  0  0  0  0  0  0  0  0  0  0  0
   34.7661   21.1298   30.4547 H   0  0  0  0  0  0  0  0  0  0  0  0
   36.9840   22.3222   30.4269 H   0  0  0  0  0  0  0  0  0  0  0  0
   37.9031   24.6249   31.8095 H   0  0  0  0  0  0  0  0  0  0  0  0
   40.0618   26.5850   32.1178 H   0  0  0  0  0  0  0  0  0  0  0  0
   40.9445   26.2395   30.5920 H   0  0  0  0  0  0  0  0  0  0  0  0
   39.1502   26.3252   30.5920 H   0  0  0  0  0  0  0  0  0  0  0  0
   41.7409   21.7898   31.6763 H   0  0  0  0  0  0  0  0  0  0  0  0
   39.3558   21.5389   35.8600 H   0  0  0  0  0  0  0  0  0  0  0  0
   39.1547   22.8775   34.5940 H   0  0  0  0  0  0  0  0  0  0  0  0
   37.2907   25.6407   36.8642 H   0  0  0  0  0  0  0  0  0  0  0  0
   37.9072   27.9279   36.0029 H   0  0  0  0  0  0  0  0  0  0  0  0
   41.3458   26.2123   34.1732 H   0  0  0  0  0  0  0  0  0  0  0  0
   37.2550   23.4708   38.1785 H   0  0  0  0  0  0  0  0  0  0  0  0
   36.7287   24.4103   36.7408 H   0  0  0  0  0  0  0  0  0  0  0  0
   36.5964   22.6188   36.7408 H   0  0  0  0  0  0  0  0  0  0  0  0
   38.9569   23.2045   38.6531 H   0  0  0  0  0  0  0  0  0  0  0  0
   39.7057   21.9146   37.6519 H   0  0  0  0  0  0  0  0  0  0  0  0
   40.4028   23.5701   37.6519 H   0  0  0  0  0  0  0  0  0  0  0  0
  1 19  1  0
  1  2  2  0
  3  2  1  0
  4  3  1  0
  5  4  2  0
  6  7  2  0
  6  5  1  0
  7  8  1  0
  8  9  2  0
  9  4  1  0
  9  1  1  0
 10  8  1  0
 11 10  1  0
 12 11  2  0
 13 12  1  0
 14 12  1  0
 14 16  1  0
 15 14  2  0
 16 17  1  0
 17 10  1  0
 17 18  2  0
 19 20  1  0
 20 27  1  0
 20 28  1  0
 21 22  2  0
 21 20  1  0
 23 22  1  0
 24 23  2  0
 25 24  1  0
 25 26  2  0
 26 21  1  0
  2 29  1  0
  3 30  1  0
  5 31  1  0
  6 32  1  0
  7 33  1  0
 11 34  1  0
 13 35  1  0
 13 36  1  0
 13 37  1  0
 16 38  1  0
 19 39  1  0
 19 40  1  0
 22 41  1  0
 23 42  1  0
 25 43  1  0
 27 44  1  0
 27 45  1  0
 27 46  1  0
 28 47  1  0
 28 48  1  0
 28 49  1  0
M  ISO  8  29  14  30   9  31  14  32  14  33  14  34  14  35   8  36   8
M  ISO  8  37   8  38   9  39   8  40   8  41  14  42  14  43  14  44   8
M  ISO  5  45   8  46   8  47   8  48   8  49   8
M  END
>  <minimizedAffinity>  (1) 
-5.77229834

>  <minimizedRMSD>  (1) 
1.1318208

$$$$
