
     RDKit          3D

 43 46  0  0  1  0  0  0  0  0999 V2000
   36.1600   29.4580   32.4470 C   0  0  0  0  0  0  0  0  0  0  0  0
   36.8720   28.4850   31.7900 C   0  0  0  0  0  0  0  0  0  0  0  0
   37.2440   27.3470   32.5060 C   0  0  0  0  0  0  0  0  0  0  0  0
   36.9000   27.2170   33.8300 C   0  0  0  0  0  0  0  0  0  0  0  0
   36.1900   28.1870   34.4870 C   0  0  0  0  0  0  0  0  0  0  0  0
   35.8120   29.3220   33.7960 C   0  0  0  0  0  0  0  0  0  0  0  0
   37.3830   25.9450   34.4170 C   0  0  0  0  0  0  0  0  0  0  0  0
   38.7870   25.9980   34.9020 C   0  0  2  0  0  0  0  0  0  0  0  0
   40.7500   23.1650   36.1330 C   0  0  0  0  0  0  0  0  0  0  0  0
   39.9430   22.6490   37.2070 C   0  0  0  0  0  0  0  0  0  0  0  0
   38.7190   23.2960   37.4870 C   0  0  0  0  0  0  0  0  0  0  0  0
   38.3910   24.3760   36.7080 N   0  0  0  0  0  0  0  0  0  0  0  0
   39.1830   24.8270   35.7070 C   0  0  0  0  0  0  0  0  0  0  0  0
   40.3540   24.2360   35.4130 N   0  0  0  0  0  0  0  0  0  0  0  0
   38.9480   27.2510   35.7820 C   0  0  0  0  0  0  0  0  0  0  0  0
   35.6820   30.8980   31.5640 S   0  0  0  0  0  0  0  0  0  0  0  0
   36.2290   30.7500   30.1450 O   0  0  0  0  0  0  0  0  0  0  0  0
   36.2650   32.1220   32.1680 O   0  0  0  0  0  0  0  0  0  0  0  0
   33.9520   31.0360   31.5050 C   0  0  0  0  0  0  0  0  0  0  0  0
   32.9390   30.4910   32.2090 N   0  0  0  0  0  0  0  0  0  0  0  0
   31.7990   30.9250   31.7640 O   0  0  0  0  0  0  0  0  0  0  0  0
   32.0070   31.7570   30.7680 C   0  0  0  0  0  0  0  0  0  0  0  0
   33.3200   31.8230   30.6130 N   0  0  0  0  0  0  0  0  0  0  0  0
   30.8790   32.3490   30.1360 N   0  0  0  0  0  0  0  0  0  0  0  0
   30.8470   33.6450   29.7340 C   0  0  0  0  0  0  0  0  0  0  0  0
   29.6640   33.9350   29.1710 N   0  0  0  0  0  0  0  0  0  0  0  0
   28.9390   32.8000   29.2210 C   0  0  0  0  0  0  0  0  0  0  0  0
   29.6880   31.8480   29.8080 N   0  0  0  0  0  0  0  0  0  0  0  0
   37.1413   28.5995   30.7296 H   0  0  0  0  0  0  0  0  0  0  0  0
   37.8155   26.5498   32.0082 H   0  0  0  0  0  0  0  0  0  0  0  0
   35.9252   28.0642   35.5476 H   0  0  0  0  0  0  0  0  0  0  0  0
   35.2411   30.1140   34.3028 H   0  0  0  0  0  0  0  0  0  0  0  0
   36.7331   25.6871   35.2662 H   0  0  0  0  0  0  0  0  0  0  0  0
   37.3512   25.1922   33.6156 H   0  0  0  0  0  0  0  0  0  0  0  0
   39.4312   26.0156   34.0105 H   0  0  0  0  0  0  0  0  0  0  0  0
   41.7069   22.6778   35.8944 H   0  0  0  0  0  0  0  0  0  0  0  0
   40.2696   21.7768   37.7924 H   0  0  0  0  0  0  0  0  0  0  0  0
   38.0578   22.9488   38.2946 H   0  0  0  0  0  0  0  0  0  0  0  0
   38.9108   26.9615   36.8426 H   0  0  0  0  0  0  0  0  0  0  0  0
   39.9149   27.7289   35.5661 H   0  0  0  0  0  0  0  0  0  0  0  0
   38.1333   27.9579   35.5661 H   0  0  0  0  0  0  0  0  0  0  0  0
   31.6757   34.3585   29.8532 H   0  0  0  0  0  0  0  0  0  0  0  0
   27.9124   32.6734   28.8467 H   0  0  0  0  0  0  0  0  0  0  0  0
  1  6  1  0
  2  1  2  0
  2  3  1  0
  3  4  2  0
  4  7  1  0
  4  5  1  0
  6  5  2  0
  7  8  1  0
  8 13  1  0
  8 15  1  0
  9 10  2  0
 10 11  1  0
 12 11  2  0
 13 12  1  0
 14 13  2  0
 14  9  1  0
 16 18  2  0
 16  1  1  0
 17 16  2  0
 19 16  1  0
 19 20  2  0
 21 20  1  0
 22 21  1  0
 23 22  2  0
 23 19  1  0
 24 22  1  0
 25 24  1  0
 26 27  1  0
 26 25  2  0
 27 28  2  0
 28 24  1  0
  2 29  1  0
  3 30  1  0
  5 31  1  0
  6 32  1  0
  7 33  1  0
  7 34  1  0
  8 35  1  6
  9 36  1  0
 10 37  1  0
 11 38  1  0
 15 39  1  0
 15 40  1  0
 15 41  1  0
 25 42  1  0
 27 43  1  0
M  ISO  8  29  14  30  14  31  14  32  14  33   8  34   8  35   8  36  14
M  ISO  7  37  14  38  14  39   8  40   8  41   8  42  14  43  14
M  END
>  <minimizedAffinity>  (1) 
-5.42372751

>  <minimizedRMSD>  (1) 
0.689288974

$$$$
