
     RDKit          3D

 43 45  0  0  0  0  0  0  0  0999 V2000
   37.5070   21.7210   34.9690 C   0  0  0  0  0  0  0  0  0  0  0  0
   36.5610   21.0200   35.7590 C   0  0  0  0  0  0  0  0  0  0  0  0
   35.5200   20.5950   35.0350 N   0  0  0  0  0  0  0  0  0  0  0  0
   35.7020   20.9730   33.7560 C   0  0  0  0  0  0  0  0  0  0  0  0
   34.9900   20.8410   32.5970 C   0  0  0  0  0  0  0  0  0  0  0  0
   35.3840   21.3370   31.3680 C   0  0  0  0  0  0  0  0  0  0  0  0
   36.5960   21.9980   31.4030 C   0  0  0  0  0  0  0  0  0  0  0  0
   37.3370   22.1510   32.5420 C   0  0  0  0  0  0  0  0  0  0  0  0
   36.9070   21.6480   33.7360 C   0  0  0  0  0  0  0  0  0  0  0  0
   38.6000   22.7380   32.3150 N   0  0  0  0  0  0  0  0  0  0  0  0
   38.8170   24.1230   31.9920 C   0  0  0  0  0  0  0  0  0  0  0  0
   38.0240   24.9950   32.5840 N   0  0  0  0  0  0  0  0  0  0  0  0
   39.8120   24.6630   31.0980 N   0  0  0  0  0  0  0  0  0  0  0  0
   38.1110   26.0120   32.4080 H   0  0  0  0  0  0  0  0  0  0  0  0
   38.7050   22.3140   35.5250 C   0  0  0  0  0  0  0  0  0  0  0  0
   38.5200   23.4020   36.5340 C   0  0  0  0  0  0  0  0  0  0  0  0
   39.0270   24.6910   35.9740 C   0  0  0  0  0  0  0  0  0  0  0  0
   38.2390   25.7940   36.2520 C   0  0  0  0  0  0  0  0  0  0  0  0
   38.6360   27.0450   35.7550 C   0  0  0  0  0  0  0  0  0  0  0  0
   39.7850   27.1070   35.0210 N   0  0  0  0  0  0  0  0  0  0  0  0
   40.5310   26.0120   34.7690 C   0  0  0  0  0  0  0  0  0  0  0  0
   40.1210   24.8600   35.2550 N   0  0  0  0  0  0  0  0  0  0  0  0
   37.1430   23.5160   37.0430 C   0  0  0  0  0  0  0  0  0  0  0  0
   39.3830   23.0300   37.7750 C   0  0  0  0  0  0  0  0  0  0  0  0
   36.6704   20.8463   36.8397 H   0  0  0  0  0  0  0  0  0  0  0  0
   34.7131   20.0663   35.3960 H   0  0  0  0  0  0  0  0  0  0  0  0
   34.0332   20.3005   32.6454 H   0  0  0  0  0  0  0  0  0  0  0  0
   34.7892   21.2167   30.4505 H   0  0  0  0  0  0  0  0  0  0  0  0
   36.9854   22.4234   30.4663 H   0  0  0  0  0  0  0  0  0  0  0  0
   39.4281   22.1296   32.3858 H   0  0  0  0  0  0  0  0  0  0  0  0
   39.8702   25.6801   30.9461 H   0  0  0  0  0  0  0  0  0  0  0  0
   40.4643   24.0315   30.6115 H   0  0  0  0  0  0  0  0  0  0  0  0
   39.2804   21.5096   36.0065 H   0  0  0  0  0  0  0  0  0  0  0  0
   39.2057   22.7973   34.6731 H   0  0  0  0  0  0  0  0  0  0  0  0
   37.3211   25.6925   36.8497 H   0  0  0  0  0  0  0  0  0  0  0  0
   38.0393   27.9481   35.9511 H   0  0  0  0  0  0  0  0  0  0  0  0
   41.4544   26.0799   34.1751 H   0  0  0  0  0  0  0  0  0  0  0  0
   37.1574   23.5148   38.1429 H   0  0  0  0  0  0  0  0  0  0  0  0
   36.6956   24.4543   36.6832 H   0  0  0  0  0  0  0  0  0  0  0  0
   36.5474   22.6641   36.6832 H   0  0  0  0  0  0  0  0  0  0  0  0
   38.8270   23.2697   38.6934 H   0  0  0  0  0  0  0  0  0  0  0  0
   39.6104   21.9540   37.7543 H   0  0  0  0  0  0  0  0  0  0  0  0
   40.3214   23.6035   37.7543 H   0  0  0  0  0  0  0  0  0  0  0  0
  1 15  1  0
  1  2  2  0
  3  2  1  0
  4  3  1  0
  5  4  2  0
  6  7  2  0
  6  5  1  0
  7  8  1  0
  8  9  2  0
  9  4  1  0
  9  1  1  0
 10  8  1  0
 11 10  1  0
 11 12  2  0
 13 11  1  0
 14 12  1  0
 15 16  1  0
 16 23  1  0
 16 24  1  0
 17 18  2  0
 17 16  1  0
 19 18  1  0
 20 19  2  0
 21 20  1  0
 21 22  2  0
 22 17  1  0
  2 25  1  0
  3 26  1  0
  5 27  1  0
  6 28  1  0
  7 29  1  0
 10 30  1  0
 13 31  1  0
 13 32  1  0
 15 33  1  0
 15 34  1  0
 18 35  1  0
 19 36  1  0
 21 37  1  0
 23 38  1  0
 23 39  1  0
 23 40  1  0
 24 41  1  0
 24 42  1  0
 24 43  1  0
M  ISO  8  25  14  26   9  27  14  28  14  29  14  33   8  34   8  35  14
M  ISO  8  36  14  37  14  38   8  39   8  40   8  41   8  42   8  43   8
M  END
>  <minimizedAffinity>  (1) 
-5.47106934

>  <minimizedRMSD>  (1) 
0.591234684

$$$$
