
     RDKit          3D

 44 47  0  0  0  0  0  0  0  0999 V2000
   38.7180   22.3220   35.4970 C   0  0  0  0  0  0  0  0  0  0  0  0
   37.5260   21.7160   34.9500 C   0  0  0  0  0  0  0  0  0  0  0  0
   36.5740   21.0210   35.7430 C   0  0  0  0  0  0  0  0  0  0  0  0
   35.5190   20.6020   35.0220 N   0  0  0  0  0  0  0  0  0  0  0  0
   35.7050   20.9800   33.7460 C   0  0  0  0  0  0  0  0  0  0  0  0
   34.9720   20.8560   32.5940 C   0  0  0  0  0  0  0  0  0  0  0  0
   35.3660   21.3590   31.3620 C   0  0  0  0  0  0  0  0  0  0  0  0
   36.5970   22.0100   31.3920 C   0  0  0  0  0  0  0  0  0  0  0  0
   37.3610   22.1470   32.5420 C   0  0  0  0  0  0  0  0  0  0  0  0
   36.9250   21.6460   33.7290 C   0  0  0  0  0  0  0  0  0  0  0  0
   38.6030   22.7690   32.1250 C   0  0  0  0  0  0  0  0  0  0  0  0
   38.8100   24.1130   31.8020 C   0  0  0  0  0  0  0  0  0  0  0  0
   39.9890   24.7730   31.5610 C   0  0  0  0  0  0  0  0  0  0  0  0
   41.0780   23.9910   31.6570 N   0  0  0  0  0  0  0  0  0  0  0  0
   40.9250   22.6930   31.9670 C   0  0  0  0  0  0  0  0  0  0  0  0
   39.7560   22.0850   32.1950 N   0  0  0  0  0  0  0  0  0  0  0  0
   38.5280   23.3980   36.5380 C   0  0  0  0  0  0  0  0  0  0  0  0
   39.0210   24.6950   35.9690 C   0  0  0  0  0  0  0  0  0  0  0  0
   38.2150   25.7840   36.2440 C   0  0  0  0  0  0  0  0  0  0  0  0
   38.5780   27.0420   35.7550 C   0  0  0  0  0  0  0  0  0  0  0  0
   39.7250   27.1280   35.0210 N   0  0  0  0  0  0  0  0  0  0  0  0
   40.4850   26.0470   34.7740 C   0  0  0  0  0  0  0  0  0  0  0  0
   40.1180   24.8750   35.2470 N   0  0  0  0  0  0  0  0  0  0  0  0
   37.1640   23.4950   37.0620 C   0  0  0  0  0  0  0  0  0  0  0  0
   39.4190   23.0160   37.7510 C   0  0  0  0  0  0  0  0  0  0  0  0
   39.2776   22.7658   34.6604 H   0  0  0  0  0  0  0  0  0  0  0  0
   39.2356   21.5062   36.0230 H   0  0  0  0  0  0  0  0  0  0  0  0
   36.6869   20.8457   36.8231 H   0  0  0  0  0  0  0  0  0  0  0  0
   34.7081   20.0811   35.3853 H   0  0  0  0  0  0  0  0  0  0  0  0
   34.0107   20.3241   32.6498 H   0  0  0  0  0  0  0  0  0  0  0  0
   34.7630   21.2535   30.4481 H   0  0  0  0  0  0  0  0  0  0  0  0
   36.9836   22.4378   30.4552 H   0  0  0  0  0  0  0  0  0  0  0  0
   37.9007   24.7279   31.7310 H   0  0  0  0  0  0  0  0  0  0  0  0
   40.0382   25.8434   31.3122 H   0  0  0  0  0  0  0  0  0  0  0  0
   41.8356   22.0802   32.0392 H   0  0  0  0  0  0  0  0  0  0  0  0
   37.2989   25.6619   36.8406 H   0  0  0  0  0  0  0  0  0  0  0  0
   37.9613   27.9307   35.9547 H   0  0  0  0  0  0  0  0  0  0  0  0
   41.4067   26.1413   34.1810 H   0  0  0  0  0  0  0  0  0  0  0  0
   37.1926   23.4930   38.1616 H   0  0  0  0  0  0  0  0  0  0  0  0
   36.7011   24.4283   36.7090 H   0  0  0  0  0  0  0  0  0  0  0  0
   36.5737   22.6366   36.7090 H   0  0  0  0  0  0  0  0  0  0  0  0
   38.8848   23.2450   38.6849 H   0  0  0  0  0  0  0  0  0  0  0  0
   39.6478   21.9407   37.7137 H   0  0  0  0  0  0  0  0  0  0  0  0
   40.3556   23.5917   37.7137 H   0  0  0  0  0  0  0  0  0  0  0  0
  1 17  1  0
  2  1  1  0
  2  3  2  0
  4  3  1  0
  5  4  1  0
  6  5  2  0
  7  8  2  0
  7  6  1  0
  8  9  1  0
  9 10  2  0
 10  5  1  0
 10  2  1  0
 11 16  1  0
 11  9  1  0
 12 11  2  0
 13 14  2  0
 13 12  1  0
 14 15  1  0
 15 16  2  0
 17 24  1  0
 17 25  1  0
 18 19  2  0
 18 17  1  0
 20 19  1  0
 21 20  2  0
 22 21  1  0
 22 23  2  0
 23 18  1  0
  1 26  1  0
  1 27  1  0
  3 28  1  0
  4 29  1  0
  6 30  1  0
  7 31  1  0
  8 32  1  0
 12 33  1  0
 13 34  1  0
 15 35  1  0
 19 36  1  0
 20 37  1  0
 22 38  1  0
 24 39  1  0
 24 40  1  0
 24 41  1  0
 25 42  1  0
 25 43  1  0
 25 44  1  0
M  ISO  8  26   8  27   8  28  14  29   9  30  14  31  14  32  14  33  14
M  ISO  8  34  14  35  14  36  14  37  14  38  14  39   8  40   8  41   8
M  ISO  3  42   8  43   8  44   8
M  END
>  <minimizedAffinity>  (1) 
-5.47709703

>  <minimizedRMSD>  (1) 
0.693621397

$$$$
