
     RDKit          3D

 43 46  0  0  0  0  0  0  0  0999 V2000
   38.7240   22.2600   35.5470 C   0  0  0  0  0  0  0  0  0  0  0  0
   37.5310   21.6760   34.9830 C   0  0  0  0  0  0  0  0  0  0  0  0
   36.5390   21.0210   35.7660 C   0  0  0  0  0  0  0  0  0  0  0  0
   35.4910   20.6230   35.0290 N   0  0  0  0  0  0  0  0  0  0  0  0
   35.7140   20.9730   33.7590 C   0  0  0  0  0  0  0  0  0  0  0  0
   34.9890   20.8640   32.5930 C   0  0  0  0  0  0  0  0  0  0  0  0
   35.4150   21.3460   31.3620 C   0  0  0  0  0  0  0  0  0  0  0  0
   36.6660   21.9580   31.4020 C   0  0  0  0  0  0  0  0  0  0  0  0
   37.4150   22.0750   32.5650 C   0  0  0  0  0  0  0  0  0  0  0  0
   36.9570   21.6040   33.7470 C   0  0  0  0  0  0  0  0  0  0  0  0
   38.6910   22.6270   32.1920 C   0  0  0  0  0  0  0  0  0  0  0  0
   39.8390   22.1130   31.5630 C   0  0  0  0  0  0  0  0  0  0  0  0
   40.7160   23.0760   31.2330 N   0  0  0  0  0  0  0  0  0  0  0  0
   40.1920   24.2510   31.6240 C   0  0  0  0  0  0  0  0  0  0  0  0
   39.0160   23.9390   32.1750 N   0  0  0  0  0  0  0  0  0  0  0  0
   38.5480   23.3000   36.6230 C   0  0  0  0  0  0  0  0  0  0  0  0
   38.9400   24.6310   36.0620 C   0  0  0  0  0  0  0  0  0  0  0  0
   38.1360   25.6830   36.4570 C   0  0  0  0  0  0  0  0  0  0  0  0
   38.4060   26.9710   35.9810 C   0  0  0  0  0  0  0  0  0  0  0  0
   39.4670   27.1220   35.1380 N   0  0  0  0  0  0  0  0  0  0  0  0
   40.2320   26.0800   34.7720 C   0  0  0  0  0  0  0  0  0  0  0  0
   39.9440   24.8870   35.2410 N   0  0  0  0  0  0  0  0  0  0  0  0
   37.2110   23.3180   37.2220 C   0  0  0  0  0  0  0  0  0  0  0  0
   39.5310   22.9460   37.7680 C   0  0  0  0  0  0  0  0  0  0  0  0
   39.2821   22.7293   34.7234 H   0  0  0  0  0  0  0  0  0  0  0  0
   39.2359   21.4242   36.0463 H   0  0  0  0  0  0  0  0  0  0  0  0
   36.6221   20.8597   36.8509 H   0  0  0  0  0  0  0  0  0  0  0  0
   34.6573   20.1317   35.3818 H   0  0  0  0  0  0  0  0  0  0  0  0
   34.0106   20.3635   32.6397 H   0  0  0  0  0  0  0  0  0  0  0  0
   34.8202   21.2532   30.4414 H   0  0  0  0  0  0  0  0  0  0  0  0
   37.0795   22.3676   30.4686 H   0  0  0  0  0  0  0  0  0  0  0  0
   40.0007   21.0434   31.3637 H   0  0  0  0  0  0  0  0  0  0  0  0
   40.6355   25.2516   31.5140 H   0  0  0  0  0  0  0  0  0  0  0  0
   38.3910   24.6586   32.5655 H   0  0  0  0  0  0  0  0  0  0  0  0
   37.2911   25.5096   37.1397 H   0  0  0  0  0  0  0  0  0  0  0  0
   37.7852   27.8298   36.2760 H   0  0  0  0  0  0  0  0  0  0  0  0
   41.0844   26.2232   34.0917 H   0  0  0  0  0  0  0  0  0  0  0  0
   37.3004   23.3168   38.3184 H   0  0  0  0  0  0  0  0  0  0  0  0
   36.6765   24.2234   36.8987 H   0  0  0  0  0  0  0  0  0  0  0  0
   36.6523   22.4273   36.8987 H   0  0  0  0  0  0  0  0  0  0  0  0
   39.0428   23.1218   38.7379 H   0  0  0  0  0  0  0  0  0  0  0  0
   39.8196   21.8875   37.6893 H   0  0  0  0  0  0  0  0  0  0  0  0
   40.4282   23.5775   37.6893 H   0  0  0  0  0  0  0  0  0  0  0  0
  1 16  1  0
  2  1  1  0
  2  3  2  0
  4  3  1  0
  5  4  1  0
  6  5  2  0
  7  8  2  0
  7  6  1  0
  8  9  1  0
  9 10  2  0
 10  5  1  0
 10  2  1  0
 11  9  1  0
 12 11  2  0
 13 12  1  0
 13 14  2  0
 14 15  1  0
 15 11  1  0
 16 23  1  0
 16 24  1  0
 17 18  2  0
 17 16  1  0
 19 18  1  0
 20 19  2  0
 21 20  1  0
 21 22  2  0
 22 17  1  0
  1 25  1  0
  1 26  1  0
  3 27  1  0
  4 28  1  0
  6 29  1  0
  7 30  1  0
  8 31  1  0
 12 32  1  0
 14 33  1  0
 15 34  1  0
 18 35  1  0
 19 36  1  0
 21 37  1  0
 23 38  1  0
 23 39  1  0
 23 40  1  0
 24 41  1  0
 24 42  1  0
 24 43  1  0
M  ISO  8  25   8  26   8  27  14  28   9  29  14  30  14  31  14  32  14
M  ISO  8  33  14  34   9  35  14  36  14  37  14  38   8  39   8  40   8
M  ISO  3  41   8  42   8  43   8
M  END
>  <minimizedAffinity>  (1) 
-5.48492241

>  <minimizedRMSD>  (1) 
0.671139896

$$$$
