
     RDKit          3D

 37 39  0  0  0  0  0  0  0  0999 V2000
   38.7270   22.2400   35.6000 C   0  0  0  0  0  0  0  0  0  0  0  0
   37.4970   21.6630   35.0560 C   0  0  0  0  0  0  0  0  0  0  0  0
   36.5020   20.9980   35.8170 C   0  0  0  0  0  0  0  0  0  0  0  0
   35.4710   20.6250   35.0680 N   0  0  0  0  0  0  0  0  0  0  0  0
   35.6870   20.9930   33.7950 C   0  0  0  0  0  0  0  0  0  0  0  0
   35.0420   20.8930   32.6020 C   0  0  0  0  0  0  0  0  0  0  0  0
   35.4820   21.3390   31.3880 C   0  0  0  0  0  0  0  0  0  0  0  0
   36.7180   21.9470   31.4430 C   0  0  0  0  0  0  0  0  0  0  0  0
   37.4200   22.0810   32.6220 C   0  0  0  0  0  0  0  0  0  0  0  0
   36.9290   21.6190   33.8100 C   0  0  0  0  0  0  0  0  0  0  0  0
   39.0230   22.7870   32.3410 S   0  0  0  0  0  0  0  0  0  0  0  0
   38.5580   23.3200   36.6180 C   0  0  0  0  0  0  0  0  0  0  0  0
   39.0590   24.5950   36.0080 C   0  0  0  0  0  0  0  0  0  0  0  0
   38.2600   25.7310   36.2470 C   0  0  0  0  0  0  0  0  0  0  0  0
   38.6660   26.9360   35.6810 C   0  0  0  0  0  0  0  0  0  0  0  0
   39.7950   26.9700   34.9360 N   0  0  0  0  0  0  0  0  0  0  0  0
   40.5430   25.8700   34.7230 C   0  0  0  0  0  0  0  0  0  0  0  0
   40.1410   24.7470   35.2650 N   0  0  0  0  0  0  0  0  0  0  0  0
   37.1840   23.4970   37.1480 C   0  0  0  0  0  0  0  0  0  0  0  0
   39.4410   22.9970   37.8330 C   0  0  0  0  0  0  0  0  0  0  0  0
   39.3010   22.6582   34.7600 H   0  0  0  0  0  0  0  0  0  0  0  0
   39.2290   21.4157   36.1277 H   0  0  0  0  0  0  0  0  0  0  0  0
   36.5756   20.8132   36.8989 H   0  0  0  0  0  0  0  0  0  0  0  0
   34.6351   20.1301   35.4105 H   0  0  0  0  0  0  0  0  0  0  0  0
   34.0591   20.3993   32.6160 H   0  0  0  0  0  0  0  0  0  0  0  0
   34.9064   21.2242   30.4577 H   0  0  0  0  0  0  0  0  0  0  0  0
   37.1592   22.3386   30.5146 H   0  0  0  0  0  0  0  0  0  0  0  0
   39.6229   23.0512   33.5440 H   0  0  0  0  0  0  0  0  0  0  0  0
   37.3481   25.6676   36.8590 H   0  0  0  0  0  0  0  0  0  0  0  0
   38.0755   27.8507   35.8376 H   0  0  0  0  0  0  0  0  0  0  0  0
   41.4590   25.9132   34.1154 H   0  0  0  0  0  0  0  0  0  0  0  0
   37.2119   23.4934   38.2476 H   0  0  0  0  0  0  0  0  0  0  0  0
   36.7753   24.4552   36.7947 H   0  0  0  0  0  0  0  0  0  0  0  0
   36.5458   22.6736   36.7947 H   0  0  0  0  0  0  0  0  0  0  0  0
   38.8815   23.2017   38.7577 H   0  0  0  0  0  0  0  0  0  0  0  0
   39.7283   21.9355   37.8056 H   0  0  0  0  0  0  0  0  0  0  0  0
   40.3454   23.6225   37.8056 H   0  0  0  0  0  0  0  0  0  0  0  0
  1 12  1  0
  2  1  1  0
  2  3  2  0
  4  3  1  0
  5 10  2  0
  5  4  1  0
  6  5  1  0
  7  8  1  0
  7  6  2  0
  8  9  2  0
  9 10  1  0
 10  2  1  0
 11  9  1  0
 12 19  1  0
 12 20  1  0
 13 14  2  0
 13 12  1  0
 15 14  1  0
 16 15  2  0
 17 16  1  0
 17 18  2  0
 18 13  1  0
  1 21  1  0
  1 22  1  0
  3 23  1  0
  4 24  1  0
  6 25  1  0
  7 26  1  0
  8 27  1  0
 11 28  1  0
 14 29  1  0
 15 30  1  0
 17 31  1  0
 19 32  1  0
 19 33  1  0
 19 34  1  0
 20 35  1  0
 20 36  1  0
 20 37  1  0
M  ISO  8  21   8  22   8  23  14  24   9  25  14  26  14  27  14  28  11
M  ISO  8  29  14  30  14  31  14  32   8  33   8  34   8  35   8  36   8
M  ISO  1  37   8
M  END
>  <minimizedAffinity>  (1) 
-5.34843111

>  <minimizedRMSD>  (1) 
0.337260306

$$$$
