
     RDKit          3D

 37 39  0  0  0  0  0  0  0  0999 V2000
   38.7040   22.1700   35.7350 C   0  0  0  0  0  0  0  0  0  0  0  0
   37.4830   21.6800   35.0900 C   0  0  0  0  0  0  0  0  0  0  0  0
   36.5080   20.9250   35.7280 C   0  0  0  0  0  0  0  0  0  0  0  0
   35.4870   20.6200   34.9060 N   0  0  0  0  0  0  0  0  0  0  0  0
   35.7400   21.1540   33.6950 C   0  0  0  0  0  0  0  0  0  0  0  0
   35.1090   21.1920   32.4870 C   0  0  0  0  0  0  0  0  0  0  0  0
   35.5870   21.8240   31.3550 C   0  0  0  0  0  0  0  0  0  0  0  0
   36.8030   22.4460   31.5310 C   0  0  0  0  0  0  0  0  0  0  0  0
   37.4630   22.4310   32.7230 C   0  0  0  0  0  0  0  0  0  0  0  0
   36.9540   21.7930   33.8220 C   0  0  0  0  0  0  0  0  0  0  0  0
   38.6780   23.0940   32.7630 O   0  0  0  0  0  0  0  0  0  0  0  0
   38.5360   23.3090   36.6880 C   0  0  0  0  0  0  0  0  0  0  0  0
   38.9710   24.5650   36.0020 C   0  0  0  0  0  0  0  0  0  0  0  0
   38.2550   25.6980   36.3600 C   0  0  0  0  0  0  0  0  0  0  0  0
   38.5880   26.9190   35.7660 C   0  0  0  0  0  0  0  0  0  0  0  0
   39.6090   26.9300   34.8580 N   0  0  0  0  0  0  0  0  0  0  0  0
   40.2850   25.8100   34.5340 C   0  0  0  0  0  0  0  0  0  0  0  0
   39.9460   24.6770   35.1110 N   0  0  0  0  0  0  0  0  0  0  0  0
   37.1860   23.4300   37.2650 C   0  0  0  0  0  0  0  0  0  0  0  0
   39.4810   23.0380   37.8910 C   0  0  0  0  0  0  0  0  0  0  0  0
   39.3949   22.4944   34.9429 H   0  0  0  0  0  0  0  0  0  0  0  0
   39.0731   21.3304   36.3423 H   0  0  0  0  0  0  0  0  0  0  0  0
   36.5635   20.6129   36.7813 H   0  0  0  0  0  0  0  0  0  0  0  0
   34.6531   20.0712   35.1597 H   0  0  0  0  0  0  0  0  0  0  0  0
   34.1401   20.6774   32.4070 H   0  0  0  0  0  0  0  0  0  0  0  0
   35.0444   21.8298   30.3982 H   0  0  0  0  0  0  0  0  0  0  0  0
   37.2575   22.9735   30.6794 H   0  0  0  0  0  0  0  0  0  0  0  0
   39.2022   23.1165   33.6025 H   0  0  0  0  0  0  0  0  0  0  0  0
   37.4408   25.6369   37.0971 H   0  0  0  0  0  0  0  0  0  0  0  0
   38.0455   27.8412   36.0214 H   0  0  0  0  0  0  0  0  0  0  0  0
   41.1046   25.8424   33.8011 H   0  0  0  0  0  0  0  0  0  0  0  0
   37.2546   23.4239   38.3628 H   0  0  0  0  0  0  0  0  0  0  0  0
   36.7279   24.3728   36.9315 H   0  0  0  0  0  0  0  0  0  0  0  0
   36.5675   22.5837   36.9315 H   0  0  0  0  0  0  0  0  0  0  0  0
   38.9321   23.1954   38.8312 H   0  0  0  0  0  0  0  0  0  0  0  0
   39.8424   22.0000   37.8468 H   0  0  0  0  0  0  0  0  0  0  0  0
   40.3376   23.7267   37.8468 H   0  0  0  0  0  0  0  0  0  0  0  0
  1 12  1  0
  2  3  2  0
  2  1  1  0
  4  3  1  0
  5 10  2  0
  5  4  1  0
  6  5  1  0
  7  8  1  0
  7  6  2  0
  8  9  2  0
  9 11  1  0
  9 10  1  0
 10  2  1  0
 12 19  1  0
 12 20  1  0
 13 14  2  0
 13 12  1  0
 15 14  1  0
 16 15  2  0
 17 16  1  0
 17 18  2  0
 18 13  1  0
  1 21  1  0
  1 22  1  0
  3 23  1  0
  4 24  1  0
  6 25  1  0
  7 26  1  0
  8 27  1  0
 11 28  1  0
 14 29  1  0
 15 30  1  0
 17 31  1  0
 19 32  1  0
 19 33  1  0
 19 34  1  0
 20 35  1  0
 20 36  1  0
 20 37  1  0
M  ISO  8  21   8  22   8  23  14  24   9  25  14  26  14  27  14  28   3
M  ISO  8  29  14  30  14  31  14  32   8  33   8  34   8  35   8  36   8
M  ISO  1  37   8
M  END
>  <minimizedAffinity>  (1) 
-5.22354984

>  <minimizedRMSD>  (1) 
0.102805674

$$$$
