
     RDKit          3D

 46 49  0  0  1  0  0  0  0  0999 V2000
   38.4820   23.3730   36.6520 C   0  0  1  0  0  0  0  0  0  0  0  0
   38.8380   24.6620   36.0100 C   0  0  0  0  0  0  0  0  0  0  0  0
   38.2030   25.7890   36.5300 C   0  0  0  0  0  0  0  0  0  0  0  0
   38.4720   27.0390   35.9670 C   0  0  0  0  0  0  0  0  0  0  0  0
   39.3610   27.0830   34.9180 N   0  0  0  0  0  0  0  0  0  0  0  0
   39.9520   25.9800   34.4450 C   0  0  0  0  0  0  0  0  0  0  0  0
   39.6810   24.8240   34.9920 N   0  0  0  0  0  0  0  0  0  0  0  0
   37.1470   23.3870   37.2600 C   0  0  0  0  0  0  0  0  0  0  0  0
   38.6870   22.2480   35.6520 C   0  0  0  0  0  0  0  0  0  0  0  0
   37.4910   21.6830   35.0630 C   0  0  0  0  0  0  0  0  0  0  0  0
   36.5010   21.0200   35.8270 C   0  0  0  0  0  0  0  0  0  0  0  0
   35.4860   20.6160   35.0610 N   0  0  0  0  0  0  0  0  0  0  0  0
   35.7300   20.9720   33.7910 C   0  0  0  0  0  0  0  0  0  0  0  0
   35.0530   20.8260   32.6130 C   0  0  0  0  0  0  0  0  0  0  0  0
   35.5380   21.2980   31.4080 C   0  0  0  0  0  0  0  0  0  0  0  0
   36.7380   21.9210   31.4520 C   0  0  0  0  0  0  0  0  0  0  0  0
   37.4230   22.0750   32.6160 C   0  0  0  0  0  0  0  0  0  0  0  0
   36.9590   21.6220   33.7960 C   0  0  0  0  0  0  0  0  0  0  0  0
   38.7280   22.7480   32.4300 C   0  0  0  0  0  0  0  0  0  0  0  0
   39.4350   23.1350   37.8450 C   0  0  0  0  0  0  0  0  0  0  0  0
   40.7010   22.5210   37.4500 C   0  0  0  0  0  0  0  0  0  0  0  0
   41.8170   22.9040   36.7360 C   0  0  0  0  0  0  0  0  0  0  0  0
   42.7250   21.9150   36.6620 N   0  0  0  0  0  0  0  0  0  0  0  0
   42.2100   20.8670   37.3310 C   0  0  0  0  0  0  0  0  0  0  0  0
   40.9850   21.2360   37.8060 N   0  0  0  0  0  0  0  0  0  0  0  0
   37.5005   25.6954   37.3712 H   0  0  0  0  0  0  0  0  0  0  0  0
   37.9917   27.9525   36.3476 H   0  0  0  0  0  0  0  0  0  0  0  0
   40.6587   26.0451   33.6045 H   0  0  0  0  0  0  0  0  0  0  0  0
   37.2431   23.3860   38.3558 H   0  0  0  0  0  0  0  0  0  0  0  0
   36.6078   24.2908   36.9401 H   0  0  0  0  0  0  0  0  0  0  0  0
   36.5890   22.4947   36.9401 H   0  0  0  0  0  0  0  0  0  0  0  0
   39.3109   22.6372   34.8339 H   0  0  0  0  0  0  0  0  0  0  0  0
   39.1453   21.4284   36.2249 H   0  0  0  0  0  0  0  0  0  0  0  0
   36.5608   20.8585   36.9134 H   0  0  0  0  0  0  0  0  0  0  0  0
   34.6505   20.1124   35.3914 H   0  0  0  0  0  0  0  0  0  0  0  0
   34.0810   20.3111   32.6243 H   0  0  0  0  0  0  0  0  0  0  0  0
   34.9806   21.1743   30.4678 H   0  0  0  0  0  0  0  0  0  0  0  0
   37.1713   22.3137   30.5203 H   0  0  0  0  0  0  0  0  0  0  0  0
   39.1671   22.9745   33.4128 H   0  0  0  0  0  0  0  0  0  0  0  0
   39.4050   22.0866   31.8695 H   0  0  0  0  0  0  0  0  0  0  0  0
   38.5817   23.6831   31.8695 H   0  0  0  0  0  0  0  0  0  0  0  0
   39.6485   24.1030   38.3218 H   0  0  0  0  0  0  0  0  0  0  0  0
   38.9328   22.4401   38.5341 H   0  0  0  0  0  0  0  0  0  0  0  0
   41.9483   23.8975   36.2823 H   0  0  0  0  0  0  0  0  0  0  0  0
   42.6908   19.8875   37.4702 H   0  0  0  0  0  0  0  0  0  0  0  0
   40.3618   20.6283   38.3567 H   0  0  0  0  0  0  0  0  0  0  0  0
  1  9  1  6
  1  8  1  0
  1 20  1  0
  2  3  2  0
  2  1  1  0
  4  3  1  0
  5  4  2  0
  6  5  1  0
  6  7  2  0
  7  2  1  0
 10  9  1  0
 10 11  2  0
 12 11  1  0
 13 18  2  0
 13 12  1  0
 14 13  1  0
 15 16  1  0
 15 14  2  0
 16 17  2  0
 17 18  1  0
 18 10  1  0
 19 17  1  0
 21 25  1  0
 21 20  1  0
 22 21  2  0
 23 22  1  0
 23 24  2  0
 24 25  1  0
  3 26  1  0
  4 27  1  0
  6 28  1  0
  8 29  1  0
  8 30  1  0
  8 31  1  0
  9 32  1  0
  9 33  1  0
 11 34  1  0
 12 35  1  0
 14 36  1  0
 15 37  1  0
 16 38  1  0
 19 39  1  0
 19 40  1  0
 19 41  1  0
 20 42  1  0
 20 43  1  0
 22 44  1  0
 24 45  1  0
 25 46  1  0
M  ISO  8  26  14  27  14  28  14  29   8  30   8  31   8  32   8  33   8
M  ISO  8  34  14  35   9  36  14  37  14  38  14  39   8  40   8  41   8
M  ISO  5  42   8  43   8  44  14  45  14  46   9
M  END
>  <minimizedAffinity>  (1) 
-6.43814898

>  <minimizedRMSD>  (1) 
0.618948519

$$$$
