
     RDKit          3D

 46 49  0  0  1  0  0  0  0  0999 V2000
   38.6140   23.2450   36.5150 C   0  0  1  0  0  0  0  0  0  0  0  0
   38.7710   24.5700   35.7950 C   0  0  0  0  0  0  0  0  0  0  0  0
   37.7800   25.5050   35.9950 C   0  0  0  0  0  0  0  0  0  0  0  0
   37.8510   26.7520   35.3660 C   0  0  0  0  0  0  0  0  0  0  0  0
   38.9320   26.9810   34.5630 N   0  0  0  0  0  0  0  0  0  0  0  0
   39.8900   26.0620   34.3770 C   0  0  0  0  0  0  0  0  0  0  0  0
   39.7720   24.9170   34.9880 N   0  0  0  0  0  0  0  0  0  0  0  0
   37.3500   23.2300   37.2600 C   0  0  0  0  0  0  0  0  0  0  0  0
   38.7470   22.1440   35.4920 C   0  0  0  0  0  0  0  0  0  0  0  0
   37.5120   21.6390   34.9240 C   0  0  0  0  0  0  0  0  0  0  0  0
   36.5360   20.9760   35.6920 C   0  0  0  0  0  0  0  0  0  0  0  0
   35.4690   20.6160   34.9650 N   0  0  0  0  0  0  0  0  0  0  0  0
   35.6850   21.0170   33.6960 C   0  0  0  0  0  0  0  0  0  0  0  0
   34.9620   20.9380   32.5310 C   0  0  0  0  0  0  0  0  0  0  0  0
   35.4030   21.4400   31.3330 C   0  0  0  0  0  0  0  0  0  0  0  0
   36.6260   22.0320   31.3650 C   0  0  0  0  0  0  0  0  0  0  0  0
   37.3570   22.1210   32.5030 C   0  0  0  0  0  0  0  0  0  0  0  0
   36.9250   21.6320   33.6810 C   0  0  0  0  0  0  0  0  0  0  0  0
   38.6690   22.7650   32.2860 C   0  0  0  0  0  0  0  0  0  0  0  0
   39.7360   23.1540   37.5210 C   0  0  0  0  0  0  0  0  0  0  0  0
   40.8970   22.3760   37.3290 C   0  0  0  0  0  0  0  0  0  0  0  0
   41.5000   21.1540   37.4480 C   0  0  0  0  0  0  0  0  0  0  0  0
   42.7950   21.0670   37.0120 C   0  0  0  0  0  0  0  0  0  0  0  0
   42.9950   22.3220   36.5960 N   0  0  0  0  0  0  0  0  0  0  0  0
   41.9380   23.0810   36.7640 N   0  0  0  0  0  0  0  0  0  0  0  0
   36.9295   25.2702   36.6519 H   0  0  0  0  0  0  0  0  0  0  0  0
   37.0713   27.5142   35.5114 H   0  0  0  0  0  0  0  0  0  0  0  0
   40.7524   26.2688   33.7262 H   0  0  0  0  0  0  0  0  0  0  0  0
   37.5607   23.2325   38.3396 H   0  0  0  0  0  0  0  0  0  0  0  0
   36.7602   24.1212   36.9994 H   0  0  0  0  0  0  0  0  0  0  0  0
   36.7815   22.3250   36.9994 H   0  0  0  0  0  0  0  0  0  0  0  0
   39.3632   22.5278   34.6655 H   0  0  0  0  0  0  0  0  0  0  0  0
   39.1887   21.2942   36.0331 H   0  0  0  0  0  0  0  0  0  0  0  0
   36.6377   20.7757   36.7688 H   0  0  0  0  0  0  0  0  0  0  0  0
   34.6347   20.1222   35.3129 H   0  0  0  0  0  0  0  0  0  0  0  0
   33.9783   20.4467   32.5601 H   0  0  0  0  0  0  0  0  0  0  0  0
   34.8081   21.3684   30.4105 H   0  0  0  0  0  0  0  0  0  0  0  0
   37.0367   22.4533   30.4356 H   0  0  0  0  0  0  0  0  0  0  0  0
   39.1313   22.9919   33.2580 H   0  0  0  0  0  0  0  0  0  0  0  0
   39.3220   22.0850   31.7192 H   0  0  0  0  0  0  0  0  0  0  0  0
   38.5305   23.6975   31.7192 H   0  0  0  0  0  0  0  0  0  0  0  0
   40.0877   24.1853   37.6720 H   0  0  0  0  0  0  0  0  0  0  0  0
   39.2450   22.6056   38.3384 H   0  0  0  0  0  0  0  0  0  0  0  0
   40.9723   20.2868   37.8717 H   0  0  0  0  0  0  0  0  0  0  0  0
   43.4793   20.2058   37.0057 H   0  0  0  0  0  0  0  0  0  0  0  0
   43.8803   22.6557   36.1890 H   0  0  0  0  0  0  0  0  0  0  0  0
  1  9  1  6
  1  8  1  0
  1 20  1  0
  2  3  2  0
  2  1  1  0
  4  3  1  0
  5  4  2  0
  6  5  1  0
  6  7  2  0
  7  2  1  0
 10  9  1  0
 10 11  2  0
 12 11  1  0
 13 12  1  0
 14 13  2  0
 15 16  2  0
 15 14  1  0
 16 17  1  0
 17 18  2  0
 18 13  1  0
 18 10  1  0
 19 17  1  0
 21 22  1  0
 21 20  1  0
 23 22  2  0
 24 25  1  0
 24 23  1  0
 25 21  2  0
  3 26  1  0
  4 27  1  0
  6 28  1  0
  8 29  1  0
  8 30  1  0
  8 31  1  0
  9 32  1  0
  9 33  1  0
 11 34  1  0
 12 35  1  0
 14 36  1  0
 15 37  1  0
 16 38  1  0
 19 39  1  0
 19 40  1  0
 19 41  1  0
 20 42  1  0
 20 43  1  0
 22 44  1  0
 23 45  1  0
 24 46  1  0
M  ISO  8  26  14  27  14  28  14  29   8  30   8  31   8  32   8  33   8
M  ISO  8  34  14  35   9  36  14  37  14  38  14  39   8  40   8  41   8
M  ISO  5  42   8  43   8  44  14  45  14  46   9
M  END
>  <minimizedAffinity>  (1) 
-5.67651081

>  <minimizedRMSD>  (1) 
1.77941227

$$$$
