
     RDKit          3D

 45 48  0  0  1  0  0  0  0  0999 V2000
   39.9030   24.0020   34.8060 C   0  0  1  0  0  0  0  0  0  0  0  0
   41.3150   24.3470   35.1190 C   0  0  0  0  0  0  0  0  0  0  0  0
   41.7810   25.5290   34.5530 C   0  0  0  0  0  0  0  0  0  0  0  0
   43.1030   25.9090   34.7900 C   0  0  0  0  0  0  0  0  0  0  0  0
   43.8760   25.0900   35.5770 N   0  0  0  0  0  0  0  0  0  0  0  0
   43.3880   23.9440   36.1140 C   0  0  0  0  0  0  0  0  0  0  0  0
   42.1500   23.6280   35.8660 N   0  0  0  0  0  0  0  0  0  0  0  0
   38.9460   24.9770   35.3160 C   0  0  0  0  0  0  0  0  0  0  0  0
   39.7700   23.7590   33.3150 C   0  0  0  0  0  0  0  0  0  0  0  0
   38.4290   23.6350   32.7920 C   0  0  0  0  0  0  0  0  0  0  0  0
   37.7010   22.4200   32.8390 C   0  0  0  0  0  0  0  0  0  0  0  0
   36.4780   22.5590   32.3210 N   0  0  0  0  0  0  0  0  0  0  0  0
   36.3310   23.8290   31.9140 C   0  0  0  0  0  0  0  0  0  0  0  0
   35.3070   24.5210   31.3260 C   0  0  0  0  0  0  0  0  0  0  0  0
   35.4010   25.8630   30.9940 C   0  0  0  0  0  0  0  0  0  0  0  0
   36.5860   26.4550   31.2910 C   0  0  0  0  0  0  0  0  0  0  0  0
   37.6050   25.7830   31.8710 C   0  0  0  0  0  0  0  0  0  0  0  0
   37.5200   24.4810   32.2000 C   0  0  0  0  0  0  0  0  0  0  0  0
   38.8080   26.6190   32.0580 C   0  0  0  0  0  0  0  0  0  0  0  0
   39.5560   22.6740   35.5290 C   0  0  0  0  0  0  0  0  0  0  0  0
   38.8790   22.9200   36.7670 N   0  0  0  0  0  0  0  0  0  0  0  0
   39.4950   23.0830   37.9730 C   0  0  0  0  0  0  0  0  0  0  0  0
   38.4990   23.2930   38.8800 N   0  0  0  0  0  0  0  0  0  0  0  0
   37.3280   23.2460   38.1830 C   0  0  0  0  0  0  0  0  0  0  0  0
   37.5610   23.0160   36.8790 N   0  0  0  0  0  0  0  0  0  0  0  0
   41.1210   26.1517   33.9312 H   0  0  0  0  0  0  0  0  0  0  0  0
   43.5130   26.8349   34.3603 H   0  0  0  0  0  0  0  0  0  0  0  0
   44.0210   23.2996   36.7417 H   0  0  0  0  0  0  0  0  0  0  0  0
   38.9594   24.9633   36.4158 H   0  0  0  0  0  0  0  0  0  0  0  0
   39.2193   25.9807   34.9584 H   0  0  0  0  0  0  0  0  0  0  0  0
   37.9374   24.7224   34.9584 H   0  0  0  0  0  0  0  0  0  0  0  0
   40.2529   24.6003   32.7964 H   0  0  0  0  0  0  0  0  0  0  0  0
   40.2387   22.7793   33.1402 H   0  0  0  0  0  0  0  0  0  0  0  0
   38.0945   21.4791   33.2511 H   0  0  0  0  0  0  0  0  0  0  0  0
   35.7677   21.8168   32.2465 H   0  0  0  0  0  0  0  0  0  0  0  0
   34.3693   23.9891   31.1076 H   0  0  0  0  0  0  0  0  0  0  0  0
   34.5722   26.4111   30.5221 H   0  0  0  0  0  0  0  0  0  0  0  0
   36.7216   27.5199   31.0509 H   0  0  0  0  0  0  0  0  0  0  0  0
   38.9988   26.7516   33.1332 H   0  0  0  0  0  0  0  0  0  0  0  0
   39.6731   26.1265   31.5901 H   0  0  0  0  0  0  0  0  0  0  0  0
   38.6481   27.6016   31.5901 H   0  0  0  0  0  0  0  0  0  0  0  0
   38.9061   22.0704   34.8784 H   0  0  0  0  0  0  0  0  0  0  0  0
   40.4930   22.1395   35.7445 H   0  0  0  0  0  0  0  0  0  0  0  0
   40.5762   23.0514   38.1732 H   0  0  0  0  0  0  0  0  0  0  0  0
   36.3301   23.3781   38.6265 H   0  0  0  0  0  0  0  0  0  0  0  0
  1  9  1  6
  1  2  1  0
  1  8  1  0
  1 20  1  0
  2  7  2  0
  3  4  2  0
  3  2  1  0
  4  5  1  0
  5  6  2  0
  7  6  1  0
 10 11  2  0
 10  9  1  0
 12 11  1  0
 13 18  2  0
 13 12  1  0
 14 13  1  0
 15 16  1  0
 15 14  2  0
 16 17  2  0
 17 19  1  0
 17 18  1  0
 18 10  1  0
 20 21  1  0
 21 25  1  0
 21 22  1  0
 22 23  2  0
 24 23  1  0
 25 24  2  0
  3 26  1  0
  4 27  1  0
  6 28  1  0
  8 29  1  0
  8 30  1  0
  8 31  1  0
  9 32  1  0
  9 33  1  0
 11 34  1  0
 12 35  1  0
 14 36  1  0
 15 37  1  0
 16 38  1  0
 19 39  1  0
 19 40  1  0
 19 41  1  0
 20 42  1  0
 20 43  1  0
 22 44  1  0
 24 45  1  0
M  ISO  8  26  14  27  14  28  14  29   8  30   8  31   8  32   8  33   8
M  ISO  8  34  14  35   9  36  14  37  14  38  14  39   8  40   8  41   8
M  ISO  4  42   8  43   8  44  14  45  14
M  END
>  <minimizedAffinity>  (1) 
-5.03425455

>  <minimizedRMSD>  (1) 
3.36595392

$$$$
