
     RDKit          3D

 46 49  0  0  1  0  0  0  0  0999 V2000
   40.0580   24.3390   34.5580 C   0  0  1  0  0  0  0  0  0  0  0  0
   41.4520   24.7820   34.8160 C   0  0  0  0  0  0  0  0  0  0  0  0
   41.8500   25.9140   34.1070 C   0  0  0  0  0  0  0  0  0  0  0  0
   43.1530   26.3930   34.2770 C   0  0  0  0  0  0  0  0  0  0  0  0
   43.9700   25.7030   35.1490 N   0  0  0  0  0  0  0  0  0  0  0  0
   43.5500   24.6100   35.8180 C   0  0  0  0  0  0  0  0  0  0  0  0
   42.3220   24.2090   35.6200 N   0  0  0  0  0  0  0  0  0  0  0  0
   39.0510   25.2380   35.1240 C   0  0  0  0  0  0  0  0  0  0  0  0
   39.8780   24.0980   33.0690 C   0  0  0  0  0  0  0  0  0  0  0  0
   38.5290   23.8490   32.6110 C   0  0  0  0  0  0  0  0  0  0  0  0
   37.9180   22.5800   32.6940 C   0  0  0  0  0  0  0  0  0  0  0  0
   36.6520   22.6040   32.2360 N   0  0  0  0  0  0  0  0  0  0  0  0
   36.3720   23.8580   31.8370 C   0  0  0  0  0  0  0  0  0  0  0  0
   35.2580   24.4460   31.3080 C   0  0  0  0  0  0  0  0  0  0  0  0
   35.2210   25.7990   30.9780 C   0  0  0  0  0  0  0  0  0  0  0  0
   36.3770   26.4940   31.2190 C   0  0  0  0  0  0  0  0  0  0  0  0
   37.4740   25.9130   31.7400 C   0  0  0  0  0  0  0  0  0  0  0  0
   37.5170   24.6070   32.0660 C   0  0  0  0  0  0  0  0  0  0  0  0
   38.6080   26.8480   31.8530 C   0  0  0  0  0  0  0  0  0  0  0  0
   39.8320   22.9830   35.2640 C   0  0  0  0  0  0  0  0  0  0  0  0
   39.1930   23.1330   36.5740 C   0  0  0  0  0  0  0  0  0  0  0  0
   37.8130   22.8990   36.5190 C   0  0  0  0  0  0  0  0  0  0  0  0
   37.3350   23.0710   37.8090 C   0  0  0  0  0  0  0  0  0  0  0  0
   38.4190   23.3980   38.5900 C   0  0  0  0  0  0  0  0  0  0  0  0
   39.4770   23.4200   37.8210 O   0  0  0  0  0  0  0  0  0  0  0  0
   41.1515   26.4218   33.4256 H   0  0  0  0  0  0  0  0  0  0  0  0
   43.5114   27.2825   33.7382 H   0  0  0  0  0  0  0  0  0  0  0  0
   44.2187   24.0738   36.5074 H   0  0  0  0  0  0  0  0  0  0  0  0
   39.0979   25.1961   36.2222 H   0  0  0  0  0  0  0  0  0  0  0  0
   39.2473   26.2667   34.7876 H   0  0  0  0  0  0  0  0  0  0  0  0
   38.0510   24.9267   34.7876 H   0  0  0  0  0  0  0  0  0  0  0  0
   40.2512   24.9871   32.5397 H   0  0  0  0  0  0  0  0  0  0  0  0
   40.4317   23.1716   32.8565 H   0  0  0  0  0  0  0  0  0  0  0  0
   38.4154   21.6803   33.0853 H   0  0  0  0  0  0  0  0  0  0  0  0
   36.0086   21.8006   32.1977 H   0  0  0  0  0  0  0  0  0  0  0  0
   34.3617   23.8316   31.1372 H   0  0  0  0  0  0  0  0  0  0  0  0
   34.3256   26.2764   30.5533 H   0  0  0  0  0  0  0  0  0  0  0  0
   36.4099   27.5667   30.9778 H   0  0  0  0  0  0  0  0  0  0  0  0
   38.8287   27.0300   32.9151 H   0  0  0  0  0  0  0  0  0  0  0  0
   39.4921   26.4129   31.3641 H   0  0  0  0  0  0  0  0  0  0  0  0
   38.3494   27.7988   31.3641 H   0  0  0  0  0  0  0  0  0  0  0  0
   39.1896   22.3565   34.6277 H   0  0  0  0  0  0  0  0  0  0  0  0
   40.8172   22.5204   35.4233 H   0  0  0  0  0  0  0  0  0  0  0  0
   37.2250   22.6317   35.6286 H   0  0  0  0  0  0  0  0  0  0  0  0
   36.2921   22.9664   38.1428 H   0  0  0  0  0  0  0  0  0  0  0  0
   38.3997   23.6045   39.6703 H   0  0  0  0  0  0  0  0  0  0  0  0
  1  9  1  6
  1  2  1  0
  1  8  1  0
  1 20  1  0
  2  7  2  0
  3  4  2  0
  3  2  1  0
  4  5  1  0
  5  6  2  0
  7  6  1  0
 10 11  2  0
 10  9  1  0
 12 11  1  0
 13 18  2  0
 13 12  1  0
 14 13  1  0
 15 16  1  0
 15 14  2  0
 16 17  2  0
 17 19  1  0
 17 18  1  0
 18 10  1  0
 20 21  1  0
 21 25  1  0
 22 21  2  0
 22 23  1  0
 23 24  2  0
 25 24  1  0
  3 26  1  0
  4 27  1  0
  6 28  1  0
  8 29  1  0
  8 30  1  0
  8 31  1  0
  9 32  1  0
  9 33  1  0
 11 34  1  0
 12 35  1  0
 14 36  1  0
 15 37  1  0
 16 38  1  0
 19 39  1  0
 19 40  1  0
 19 41  1  0
 20 42  1  0
 20 43  1  0
 22 44  1  0
 23 45  1  0
 24 46  1  0
M  ISO  8  26  14  27  14  28  14  29   8  30   8  31   8  32   8  33   8
M  ISO  8  34  14  35   9  36  14  37  14  38  14  39   8  40   8  41   8
M  ISO  5  42   8  43   8  44  14  45  14  46  14
M  END
>  <minimizedAffinity>  (1) 
-4.96292925

>  <minimizedRMSD>  (1) 
3.49707961

$$$$
