
     RDKit          3D

 49 52  0  0  1  0  0  0  0  0999 V2000
   38.7960   24.3070   33.5810 C   0  0  1  0  0  0  0  0  0  0  0  0
   39.4880   24.6620   32.3140 C   0  0  0  0  0  0  0  0  0  0  0  0
   38.7360   25.3990   31.4290 C   0  0  0  0  0  0  0  0  0  0  0  0
   39.2880   25.7960   30.1940 C   0  0  0  0  0  0  0  0  0  0  0  0
   40.5900   25.3970   29.9610 N   0  0  0  0  0  0  0  0  0  0  0  0
   41.2920   24.6750   30.8490 C   0  0  0  0  0  0  0  0  0  0  0  0
   40.7140   24.3490   31.9680 N   0  0  0  0  0  0  0  0  0  0  0  0
   37.4040   24.7070   33.6300 C   0  0  0  0  0  0  0  0  0  0  0  0
   39.0010   22.8270   33.8450 C   0  0  0  0  0  0  0  0  0  0  0  0
   37.8090   22.0080   33.9270 C   0  0  0  0  0  0  0  0  0  0  0  0
   37.1540   21.7310   35.1480 C   0  0  0  0  0  0  0  0  0  0  0  0
   36.0570   20.9770   34.9640 N   0  0  0  0  0  0  0  0  0  0  0  0
   35.9360   20.7280   33.6560 C   0  0  0  0  0  0  0  0  0  0  0  0
   35.0270   20.0380   32.9040 C   0  0  0  0  0  0  0  0  0  0  0  0
   35.1070   19.9200   31.5140 C   0  0  0  0  0  0  0  0  0  0  0  0
   36.1970   20.5660   30.9560 C   0  0  0  0  0  0  0  0  0  0  0  0
   37.0880   21.2400   31.6910 C   0  0  0  0  0  0  0  0  0  0  0  0
   37.0050   21.3550   33.0290 C   0  0  0  0  0  0  0  0  0  0  0  0
   38.1750   21.7820   30.8600 C   0  0  0  0  0  0  0  0  0  0  0  0
   39.4910   25.0670   34.7450 C   0  0  0  0  0  0  0  0  0  0  0  0
   39.2780   24.4240   36.0270 C   0  0  0  0  0  0  0  0  0  0  0  0
   38.1790   24.8660   36.7770 C   0  0  0  0  0  0  0  0  0  0  0  0
   37.9210   24.2940   38.0080 C   0  0  0  0  0  0  0  0  0  0  0  0
   38.6970   23.2930   38.5550 C   0  0  0  0  0  0  0  0  0  0  0  0
   39.7830   22.8490   37.8290 C   0  0  0  0  0  0  0  0  0  0  0  0
   40.0400   23.4210   36.6000 C   0  0  0  0  0  0  0  0  0  0  0  0
   37.7034   25.6788   31.6850 H   0  0  0  0  0  0  0  0  0  0  0  0
   38.7178   26.3865   29.4618 H   0  0  0  0  0  0  0  0  0  0  0  0
   42.3266   24.3678   30.6364 H   0  0  0  0  0  0  0  0  0  0  0  0
   37.0855   24.7985   34.6789 H   0  0  0  0  0  0  0  0  0  0  0  0
   37.2830   25.6763   33.1241 H   0  0  0  0  0  0  0  0  0  0  0  0
   36.7869   23.9498   33.1241 H   0  0  0  0  0  0  0  0  0  0  0  0
   39.6246   22.4270   33.0319 H   0  0  0  0  0  0  0  0  0  0  0  0
   39.4573   22.7729   34.8444 H   0  0  0  0  0  0  0  0  0  0  0  0
   37.4998   22.0888   36.1290 H   0  0  0  0  0  0  0  0  0  0  0  0
   35.4195   20.6478   35.7030 H   0  0  0  0  0  0  0  0  0  0  0  0
   34.1876   19.5495   33.4206 H   0  0  0  0  0  0  0  0  0  0  0  0
   34.3698   19.3636   30.9165 H   0  0  0  0  0  0  0  0  0  0  0  0
   36.3355   20.5232   29.8656 H   0  0  0  0  0  0  0  0  0  0  0  0
   38.9699   22.1783   31.5089 H   0  0  0  0  0  0  0  0  0  0  0  0
   38.5846   20.9826   30.2250 H   0  0  0  0  0  0  0  0  0  0  0  0
   37.7830   22.5902   30.2250 H   0  0  0  0  0  0  0  0  0  0  0  0
   40.5719   25.1080   34.5451 H   0  0  0  0  0  0  0  0  0  0  0  0
   39.0535   26.0749   34.7973 H   0  0  0  0  0  0  0  0  0  0  0  0
   37.5270   25.6622   36.3883 H   0  0  0  0  0  0  0  0  0  0  0  0
   37.0537   24.6547   38.5804 H   0  0  0  0  0  0  0  0  0  0  0  0
   38.4575   22.8626   39.5386 H   0  0  0  0  0  0  0  0  0  0  0  0
   40.4323   22.0532   38.2229 H   0  0  0  0  0  0  0  0  0  0  0  0
   40.9108   23.0544   36.0367 H   0  0  0  0  0  0  0  0  0  0  0  0
  1  8  1  6
  1  9  1  0
  1 20  1  0
  2  1  1  0
  3  2  2  0
  4  3  1  0
  5  4  2  0
  5  6  1  0
  6  7  2  0
  7  2  1  0
  9 10  1  0
 10 11  2  0
 12 11  1  0
 13 12  1  0
 14 13  2  0
 15 14  1  0
 16 15  2  0
 16 17  1  0
 17 18  2  0
 18 13  1  0
 18 10  1  0
 19 17  1  0
 20 21  1  0
 21 26  1  0
 21 22  2  0
 22 23  1  0
 23 24  2  0
 25 24  1  0
 26 25  2  0
  3 27  1  0
  4 28  1  0
  6 29  1  0
  8 30  1  0
  8 31  1  0
  8 32  1  0
  9 33  1  0
  9 34  1  0
 11 35  1  0
 12 36  1  0
 14 37  1  0
 15 38  1  0
 16 39  1  0
 19 40  1  0
 19 41  1  0
 19 42  1  0
 20 43  1  0
 20 44  1  0
 22 45  1  0
 23 46  1  0
 24 47  1  0
 25 48  1  0
 26 49  1  0
M  ISO  8  27  14  28  14  29  14  30   8  31   8  32   8  33   8  34   8
M  ISO  8  35  14  36   9  37  14  38  14  39  14  40   8  41   8  42   8
M  ISO  7  43   8  44   8  45  14  46  14  47  14  48  14  49  14
M  END
>  <minimizedAffinity>  (1) 
-5.28273106

>  <minimizedRMSD>  (1) 
3.0686481

$$$$
