
     RDKit          3D

 28 30  0  0  0  0  0  0  0  0999 V2000
   37.5840   22.2230   34.8020 C   0  0  0  0  0  0  0  0  0  0  0  0
   38.5520   23.1480   34.4150 C   0  0  0  0  0  0  0  0  0  0  0  0
   39.0830   23.9840   35.4000 C   0  0  0  0  0  0  0  0  0  0  0  0
   38.6360   23.8540   36.6780 N   0  0  0  0  0  0  0  0  0  0  0  0
   37.7030   22.9510   37.0160 C   0  0  0  0  0  0  0  0  0  0  0  0
   37.1870   22.1460   36.0830 N   0  0  0  0  0  0  0  0  0  0  0  0
   40.0720   24.9370   35.0270 N   0  0  0  0  0  0  0  0  0  0  0  0
   39.7150   26.1220   34.5010 C   0  0  0  0  0  0  0  0  0  0  0  0
   40.6900   27.0330   34.1470 C   0  0  0  0  0  0  0  0  0  0  0  0
   41.9830   26.6150   34.3790 C   0  0  0  0  0  0  0  0  0  0  0  0
   43.0430   27.5010   34.0390 N   0  0  0  0  0  0  0  0  0  0  0  0
   42.3520   25.4310   34.9050 N   0  0  0  0  0  0  0  0  0  0  0  0
   41.3510   24.5660   35.2390 C   0  0  0  0  0  0  0  0  0  0  0  0
   41.6350   23.4460   35.7340 O   0  0  0  0  0  0  0  0  0  0  0  0
   36.9470   21.2890   33.8690 C   0  0  0  0  0  0  0  0  0  0  0  0
   35.7300   20.6660   34.1950 C   0  0  0  0  0  0  0  0  0  0  0  0
   35.3800   19.8520   33.1390 C   0  0  0  0  0  0  0  0  0  0  0  0
   36.3900   20.0140   32.2220 C   0  0  0  0  0  0  0  0  0  0  0  0
   37.2770   20.8650   32.7060 O   0  0  0  0  0  0  0  0  0  0  0  0
   38.8865   23.2174   33.3694 H   0  0  0  0  0  0  0  0  0  0  0  0
   37.3635   22.8736   38.0594 H   0  0  0  0  0  0  0  0  0  0  0  0
   38.6521   26.3641   34.3536 H   0  0  0  0  0  0  0  0  0  0  0  0
   40.4535   28.0160   33.7135 H   0  0  0  0  0  0  0  0  0  0  0  0
   44.0208   27.2197   34.1994 H   0  0  0  0  0  0  0  0  0  0  0  0
   42.8326   28.4237   33.6324 H   0  0  0  0  0  0  0  0  0  0  0  0
   35.1595   20.8033   35.1254 H   0  0  0  0  0  0  0  0  0  0  0  0
   34.4886   19.2136   33.0502 H   0  0  0  0  0  0  0  0  0  0  0  0
   36.4504   19.5158   31.2432 H   0  0  0  0  0  0  0  0  0  0  0  0
  1  6  1  0
  2  1  2  0
  2  3  1  0
  3  4  2  0
  4  5  1  0
  6  5  2  0
  7 13  1  0
  7  3  1  0
  8  7  1  0
  9 10  1  0
  9  8  2  0
 10 12  2  0
 11 10  1  0
 12 13  1  0
 13 14  2  0
 15 16  2  0
 15  1  1  0
 17 16  1  0
 18 19  1  0
 18 17  2  0
 19 15  1  0
  2 20  1  0
  5 21  1  0
  8 22  1  0
  9 23  1  0
 11 24  1  0
 11 25  1  0
 16 26  1  0
 17 27  1  0
 18 28  1  0
M  ISO  7  20  14  21  14  22  14  23  14  26  14  27  14  28  14
M  END
>  <minimizedAffinity>  (1) 
-5.23918629

>  <minimizedRMSD>  (1) 
3.5767107

$$$$
