
     RDKit          3D

 31 34  0  0  0  0  0  0  0  0999 V2000
   37.8100   22.7690   34.7100 C   0  0  0  0  0  0  0  0  0  0  0  0
   37.1700   21.5930   34.2740 C   0  0  0  0  0  0  0  0  0  0  0  0
   36.7880   21.5400   32.9260 C   0  0  0  0  0  0  0  0  0  0  0  0
   37.0450   22.6030   32.1220 N   0  0  0  0  0  0  0  0  0  0  0  0
   37.6600   23.7070   32.5840 C   0  0  0  0  0  0  0  0  0  0  0  0
   38.0470   23.8070   33.8700 N   0  0  0  0  0  0  0  0  0  0  0  0
   36.1300   20.3180   32.4970 C   0  0  0  0  0  0  0  0  0  0  0  0
   34.7680   20.0320   32.4050 C   0  0  0  0  0  0  0  0  0  0  0  0
   34.6310   18.7660   31.9570 N   0  0  0  0  0  0  0  0  0  0  0  0
   35.8260   18.2010   31.7500 C   0  0  0  0  0  0  0  0  0  0  0  0
   36.2520   16.9620   31.3080 C   0  0  0  0  0  0  0  0  0  0  0  0
   37.5940   16.6620   31.1930 C   0  0  0  0  0  0  0  0  0  0  0  0
   38.5740   17.6010   31.5190 C   0  0  0  0  0  0  0  0  0  0  0  0
   38.1080   18.8280   31.9570 C   0  0  0  0  0  0  0  0  0  0  0  0
   36.7670   19.1620   32.0840 C   0  0  0  0  0  0  0  0  0  0  0  0
   38.2600   22.9570   36.0890 C   0  0  0  0  0  0  0  0  0  0  0  0
   39.5560   22.5650   36.4680 C   0  0  0  0  0  0  0  0  0  0  0  0
   39.7010   22.8610   37.8200 C   0  0  0  0  0  0  0  0  0  0  0  0
   38.5070   23.4060   38.1840 C   0  0  0  0  0  0  0  0  0  0  0  0
   37.6810   23.4450   37.1310 O   0  0  0  0  0  0  0  0  0  0  0  0
   36.9785   20.7543   34.9595 H   0  0  0  0  0  0  0  0  0  0  0  0
   37.8505   24.5449   31.8973 H   0  0  0  0  0  0  0  0  0  0  0  0
   33.9467   20.7198   32.6546 H   0  0  0  0  0  0  0  0  0  0  0  0
   33.7278   18.2978   31.7961 H   0  0  0  0  0  0  0  0  0  0  0  0
   35.5052   16.1993   31.0424 H   0  0  0  0  0  0  0  0  0  0  0  0
   37.8967   15.6657   30.8383 H   0  0  0  0  0  0  0  0  0  0  0  0
   39.6481   17.3797   31.4332 H   0  0  0  0  0  0  0  0  0  0  0  0
   38.8528   19.5924   32.2233 H   0  0  0  0  0  0  0  0  0  0  0  0
   40.3153   22.1085   35.8160 H   0  0  0  0  0  0  0  0  0  0  0  0
   40.5839   22.6923   38.4540 H   0  0  0  0  0  0  0  0  0  0  0  0
   38.2579   23.7618   39.1946 H   0  0  0  0  0  0  0  0  0  0  0  0
  1 16  1  0
  2  1  2  0
  3  2  1  0
  4  5  1  0
  4  3  2  0
  5  6  2  0
  6  1  1  0
  7  3  1  0
  8  7  2  0
  9  8  1  0
 10  9  1  0
 10 15  2  0
 11 10  1  0
 12 11  2  0
 12 13  1  0
 13 14  2  0
 14 15  1  0
 15  7  1  0
 16 17  2  0
 16 20  1  0
 17 18  1  0
 18 19  2  0
 20 19  1  0
  2 21  1  0
  5 22  1  0
  8 23  1  0
  9 24  1  0
 11 25  1  0
 12 26  1  0
 13 27  1  0
 14 28  1  0
 17 29  1  0
 18 30  1  0
 19 31  1  0
M  ISO  8  21  14  22  14  23  14  24   9  25  14  26  14  27  14  28  14
M  ISO  3  29  14  30  14  31  14
M  END
>  <minimizedAffinity>  (1) 
-5.07271576

>  <minimizedRMSD>  (1) 
8.0388155

$$$$
