
     RDKit          3D

 33 37  0  0  1  0  0  0  0  0999 V2000
   38.1340   23.1680   34.4020 C   0  0  0  0  0  0  0  0  0  0  0  0
   38.1780   23.9830   33.2950 C   0  0  0  0  0  0  0  0  0  0  0  0
   39.1610   24.9490   33.1980 C   0  0  0  0  0  0  0  0  0  0  0  0
   40.0680   25.0550   34.2200 N   0  0  0  0  0  0  0  0  0  0  0  0
   40.0240   24.2590   35.2980 C   0  0  0  0  0  0  0  0  0  0  0  0
   39.0570   23.3460   35.3460 N   0  0  0  0  0  0  0  0  0  0  0  0
   39.4950   25.7500   32.0960 C   0  0  0  0  0  0  0  0  0  0  0  0
   39.7950   26.4730   31.1020 N   0  0  0  0  0  0  0  0  0  0  0  0
   40.1960   27.0710   30.1330 C   0  0  0  0  0  0  0  0  0  0  0  0
   39.2060   27.9460   30.2390 N   0  0  0  0  0  0  0  0  0  0  0  0
   38.2850   27.8330   31.2460 C   0  0  1  0  0  0  0  0  0  0  0  0
   37.3210   28.8810   31.2690 C   0  0  0  0  0  0  0  0  0  0  0  0
   36.4380   28.8380   32.3060 C   0  0  0  0  0  0  0  0  0  0  0  0
   36.3950   27.8970   33.3080 C   0  0  0  0  0  0  0  0  0  0  0  0
   37.3960   26.9660   33.1230 C   0  0  0  0  0  0  0  0  0  0  0  0
   38.4380   26.7530   32.1540 C   0  0  1  0  0  0  0  0  0  0  0  0
   37.1600   22.1250   34.6510 C   0  0  0  0  0  0  0  0  0  0  0  0
   36.7720   21.7670   35.9320 C   0  0  0  0  0  0  0  0  0  0  0  0
   35.8450   20.7630   35.8650 C   0  0  0  0  0  0  0  0  0  0  0  0
   35.7000   20.5440   34.5160 C   0  0  0  0  0  0  0  0  0  0  0  0
   36.4940   21.3680   33.8280 O   0  0  0  0  0  0  0  0  0  0  0  0
   37.4353   23.8665   32.4920 H   0  0  0  0  0  0  0  0  0  0  0  0
   40.7585   24.3568   36.1110 H   0  0  0  0  0  0  0  0  0  0  0  0
   40.1257   26.3773   32.7431 H   0  0  0  0  0  0  0  0  0  0  0  0
   41.0416   26.9419   29.4414 H   0  0  0  0  0  0  0  0  0  0  0  0
   38.9381   28.4192   31.9091 H   0  0  0  0  0  0  0  0  0  0  0  0
   37.2913   29.6701   30.5032 H   0  0  0  0  0  0  0  0  0  0  0  0
   35.6830   29.6370   32.3457 H   0  0  0  0  0  0  0  0  0  0  0  0
   35.6696   27.8880   34.1348 H   0  0  0  0  0  0  0  0  0  0  0  0
   37.3981   26.1974   33.9099 H   0  0  0  0  0  0  0  0  0  0  0  0
   37.1509   22.2202   36.8599 H   0  0  0  0  0  0  0  0  0  0  0  0
   35.3358   20.2516   36.6952 H   0  0  0  0  0  0  0  0  0  0  0  0
   35.0272   19.7979   34.0680 H   0  0  0  0  0  0  0  0  0  0  0  0
  1 17  1  0
  1  6  1  0
  2  1  2  0
  3  2  1  0
  3  4  2  0
  4  5  1  0
  5  6  2  0
 16  7  1  6
  7  3  1  0
  8  7  1  0
  8 16  1  0
  9 10  2  0
  9  8  1  0
 10 11  1  0
 11 12  1  0
 11 16  1  0
 12 13  2  0
 13 14  1  0
 15 14  2  0
 16 15  1  0
 17 18  2  0
 19 18  1  0
 20 19  2  0
 21 20  1  0
 21 17  1  0
  2 22  1  0
  5 23  1  0
  7 24  1  0
  9 25  1  0
 11 26  1  6
 12 27  1  0
 13 28  1  0
 14 29  1  0
 15 30  1  0
 18 31  1  0
 19 32  1  0
 20 33  1  0
M  ISO  8  22  14  23  14  24  13  25  13  26  13  27  13  28  13  29  13
M  ISO  4  30  13  31  14  32  14  33  14
M  END
>  <minimizedAffinity>  (1) 
-4.40922546

>  <minimizedRMSD>  (1) 
6.05945158

$$$$
