
     RDKit          3D

 30 32  0  0  0  0  0  0  0  0999 V2000
   38.0650   22.1630   35.1020 C   0  0  0  0  0  0  0  0  0  0  0  0
   39.4440   22.2110   34.9160 C   0  0  0  0  0  0  0  0  0  0  0  0
   40.2390   22.7290   35.9260 C   0  0  0  0  0  0  0  0  0  0  0  0
   39.6430   23.1730   37.0630 N   0  0  0  0  0  0  0  0  0  0  0  0
   38.3050   23.1200   37.2270 C   0  0  0  0  0  0  0  0  0  0  0  0
   37.5190   22.6200   36.2590 N   0  0  0  0  0  0  0  0  0  0  0  0
   41.6530   22.7960   35.7750 N   0  0  0  0  0  0  0  0  0  0  0  0
   42.4720   23.5820   36.5150 C   0  0  0  0  0  0  0  0  0  0  0  0
   43.8420   23.5720   36.2860 C   0  0  0  0  0  0  0  0  0  0  0  0
   44.7430   24.4320   37.0950 C   0  0  0  0  0  0  0  0  0  0  0  0
   44.3600   22.7560   35.3030 C   0  0  0  0  0  0  0  0  0  0  0  0
   45.6120   22.7060   35.0490 O   0  0  0  0  0  0  0  0  0  0  0  0
   43.5290   21.9700   34.5660 N   0  0  0  0  0  0  0  0  0  0  0  0
   42.1940   22.0160   34.8280 C   0  0  0  0  0  0  0  0  0  0  0  0
   41.5130   21.2390   34.0770 O   0  0  0  0  0  0  0  0  0  0  0  0
   37.1240   21.6470   34.1280 C   0  0  0  0  0  0  0  0  0  0  0  0
   36.0550   20.8220   34.5220 C   0  0  0  0  0  0  0  0  0  0  0  0
   35.3310   20.4880   33.3800 C   0  0  0  0  0  0  0  0  0  0  0  0
   35.9980   21.1270   32.3620 C   0  0  0  0  0  0  0  0  0  0  0  0
   37.0300   21.7840   32.8540 O   0  0  0  0  0  0  0  0  0  0  0  0
   39.8951   21.8437   33.9824 H   0  0  0  0  0  0  0  0  0  0  0  0
   37.8543   23.4889   38.1602 H   0  0  0  0  0  0  0  0  0  0  0  0
   42.0511   24.2292   37.2986 H   0  0  0  0  0  0  0  0  0  0  0  0
   44.5568   24.2543   38.1645 H   0  0  0  0  0  0  0  0  0  0  0  0
   45.7899   24.1896   36.8599 H   0  0  0  0  0  0  0  0  0  0  0  0
   44.5496   25.4890   36.8599 H   0  0  0  0  0  0  0  0  0  0  0  0
   43.9010   21.3553   33.8280 H   0  0  0  0  0  0  0  0  0  0  0  0
   35.8308   20.4983   35.5491 H   0  0  0  0  0  0  0  0  0  0  0  0
   34.4322   19.8578   33.3090 H   0  0  0  0  0  0  0  0  0  0  0  0
   35.7143   21.0952   31.2997 H   0  0  0  0  0  0  0  0  0  0  0  0
  1  6  1  0
  2  1  2  0
  2  3  1  0
  3  4  2  0
  4  5  1  0
  6  5  2  0
  7  3  1  0
  7  8  1  0
  9  8  2  0
  9 10  1  0
 11  9  1  0
 12 11  2  0
 13 14  1  0
 13 11  1  0
 14  7  1  0
 15 14  2  0
 16 17  2  0
 16  1  1  0
 18 17  1  0
 19 20  1  0
 19 18  2  0
 20 16  1  0
  2 21  1  0
  5 22  1  0
  8 23  1  0
 10 24  1  0
 10 25  1  0
 10 26  1  0
 13 27  1  0
 17 28  1  0
 18 29  1  0
 19 30  1  0
M  ISO  8  21  14  22  14  23  14  24   8  25   8  26   8  27   9  28  14
M  ISO  2  29  14  30  14
M  END
>  <minimizedAffinity>  (1) 
-4.62114763

>  <minimizedRMSD>  (1) 
1.75206709

$$$$
