
     RDKit          3D

 20 21  0  0  0  0  0  0  0  0999 V2000
   37.8340   22.2460   35.8390 C   0  0  0  0  0  0  0  0  0  0  0  0
   39.2010   21.9610   36.0310 C   0  0  0  0  0  0  0  0  0  0  0  0
   39.7990   22.4580   37.1770 C   0  0  0  0  0  0  0  0  0  0  0  0
   39.0750   23.1840   38.0600 N   0  0  0  0  0  0  0  0  0  0  0  0
   37.7560   23.4400   37.8400 C   0  0  0  0  0  0  0  0  0  0  0  0
   37.1240   22.9800   36.7410 N   0  0  0  0  0  0  0  0  0  0  0  0
   37.0660   21.7920   34.6800 C   0  0  0  0  0  0  0  0  0  0  0  0
   36.0340   20.8750   34.8150 C   0  0  0  0  0  0  0  0  0  0  0  0
   35.4840   20.6230   33.5820 C   0  0  0  0  0  0  0  0  0  0  0  0
   36.2230   21.4160   32.7400 C   0  0  0  0  0  0  0  0  0  0  0  0
   37.1470   22.0910   33.4320 O   0  0  0  0  0  0  0  0  0  0  0  0
   41.2130   22.1650   37.3820 C   0  0  0  0  0  0  0  0  0  0  0  0
   42.0360   23.0110   36.9450 O   0  0  0  0  0  0  0  0  0  0  0  0
   41.6410   21.0100   38.0250 O   0  0  0  0  0  0  0  0  0  0  0  0
   39.7699   21.3677   35.3000 H   0  0  0  0  0  0  0  0  0  0  0  0
   37.1936   24.0350   38.5746 H   0  0  0  0  0  0  0  0  0  0  0  0
   35.7071   20.4205   35.7619 H   0  0  0  0  0  0  0  0  0  0  0  0
   34.6523   19.9486   33.3301 H   0  0  0  0  0  0  0  0  0  0  0  0
   36.0762   21.4862   31.6521 H   0  0  0  0  0  0  0  0  0  0  0  0
   42.6088   20.8415   38.1478 H   0  0  0  0  0  0  0  0  0  0  0  0
  1  2  2  0
  1  6  1  0
  2  3  1  0
  3 12  1  0
  3  4  2  0
  5  4  1  0
  6  5  2  0
  7  8  2  0
  7  1  1  0
  9  8  1  0
 10 11  1  0
 10  9  2  0
 11  7  1  0
 12 14  1  0
 13 12  2  0
  2 15  1  0
  5 16  1  0
  8 17  1  0
  9 18  1  0
 10 19  1  0
 14 20  1  0
M  ISO  6  15  14  16  14  17  14  18  14  19  14  20   3
M  END
>  <minimizedAffinity>  (1) 
-4.30066442

>  <minimizedRMSD>  (1) 
0.707980931

$$$$
