
     RDKit          3D

 24 26  0  0  0  0  0  0  0  0999 V2000
   37.7790   22.1220   35.2460 C   0  0  0  0  0  0  0  0  0  0  0  0
   39.1440   22.4520   35.0970 C   0  0  0  0  0  0  0  0  0  0  0  0
   39.7300   23.1360   36.1590 C   0  0  0  0  0  0  0  0  0  0  0  0
   39.0070   23.4550   37.2620 N   0  0  0  0  0  0  0  0  0  0  0  0
   37.6920   23.1110   37.3500 C   0  0  0  0  0  0  0  0  0  0  0  0
   37.0910   22.4540   36.3530 N   0  0  0  0  0  0  0  0  0  0  0  0
   37.0310   21.4050   34.2150 C   0  0  0  0  0  0  0  0  0  0  0  0
   35.8270   20.7500   34.5330 C   0  0  0  0  0  0  0  0  0  0  0  0
   35.3470   20.1650   33.3730 C   0  0  0  0  0  0  0  0  0  0  0  0
   36.2620   20.4870   32.4280 C   0  0  0  0  0  0  0  0  0  0  0  0
   37.2240   21.2100   32.9650 O   0  0  0  0  0  0  0  0  0  0  0  0
   41.1320   23.4980   36.0560 C   0  0  0  0  0  0  0  0  0  0  0  0
   42.2240   23.0320   36.6420 C   0  0  0  0  0  0  0  0  0  0  0  0
   43.4630   23.5440   36.3810 C   0  0  0  0  0  0  0  0  0  0  0  0
   43.4730   24.6370   35.4070 C   0  0  0  0  0  0  0  0  0  0  0  0
   41.6430   24.7890   34.9840 S   0  0  0  0  0  0  0  0  0  0  0  0
   39.7118   22.1841   34.1938 H   0  0  0  0  0  0  0  0  0  0  0  0
   37.1188   23.3765   38.2505 H   0  0  0  0  0  0  0  0  0  0  0  0
   35.3524   20.7098   35.5245 H   0  0  0  0  0  0  0  0  0  0  0  0
   34.4290   19.5721   33.2475 H   0  0  0  0  0  0  0  0  0  0  0  0
   36.2100   20.1895   31.3703 H   0  0  0  0  0  0  0  0  0  0  0  0
   42.1303   22.2059   37.3623 H   0  0  0  0  0  0  0  0  0  0  0  0
   44.3772   23.1666   36.8625 H   0  0  0  0  0  0  0  0  0  0  0  0
   44.3250   25.2171   35.0230 H   0  0  0  0  0  0  0  0  0  0  0  0
  1  6  1  0
  2  1  2  0
  2  3  1  0
  3  4  2  0
  4  5  1  0
  6  5  2  0
  7  8  2  0
  7  1  1  0
  9  8  1  0
 10 11  1  0
 10  9  2  0
 11  7  1  0
 12  3  1  0
 12 13  2  0
 14 13  1  0
 15 14  2  0
 16 15  1  0
 16 12  1  0
  2 17  1  0
  5 18  1  0
  8 19  1  0
  9 20  1  0
 10 21  1  0
 13 22  1  0
 14 23  1  0
 15 24  1  0
M  ISO  8  17  14  18  14  19  14  20  14  21  14  22  14  23  14  24  14
M  END
>  <minimizedAffinity>  (1) 
-4.19791031

>  <minimizedRMSD>  (1) 
1.57869792

$$$$
