
     RDKit          3D

 24 26  0  0  0  0  0  0  0  0999 V2000
   37.7590   22.1030   35.2600 C   0  0  0  0  0  0  0  0  0  0  0  0
   39.1110   22.4230   35.1780 C   0  0  0  0  0  0  0  0  0  0  0  0
   39.7200   23.1040   36.2180 C   0  0  0  0  0  0  0  0  0  0  0  0
   38.9720   23.4420   37.2960 N   0  0  0  0  0  0  0  0  0  0  0  0
   37.6510   23.1250   37.3670 C   0  0  0  0  0  0  0  0  0  0  0  0
   37.0590   22.4660   36.3610 N   0  0  0  0  0  0  0  0  0  0  0  0
   37.0120   21.3940   34.2340 C   0  0  0  0  0  0  0  0  0  0  0  0
   35.8220   20.7470   34.5240 C   0  0  0  0  0  0  0  0  0  0  0  0
   35.3380   20.1670   33.3780 C   0  0  0  0  0  0  0  0  0  0  0  0
   36.2760   20.4930   32.4310 C   0  0  0  0  0  0  0  0  0  0  0  0
   37.2600   21.2240   32.9700 O   0  0  0  0  0  0  0  0  0  0  0  0
   41.1360   23.4310   36.1180 C   0  0  0  0  0  0  0  0  0  0  0  0
   42.1790   22.7770   36.7420 C   0  0  0  0  0  0  0  0  0  0  0  0
   43.3300   23.4630   36.3350 C   0  0  0  0  0  0  0  0  0  0  0  0
   42.9080   24.4870   35.4930 C   0  0  0  0  0  0  0  0  0  0  0  0
   41.5810   24.4260   35.3940 O   0  0  0  0  0  0  0  0  0  0  0  0
   39.6934   22.1359   34.2901 H   0  0  0  0  0  0  0  0  0  0  0  0
   37.0661   23.4107   38.2537 H   0  0  0  0  0  0  0  0  0  0  0  0
   35.3423   20.7048   35.5130 H   0  0  0  0  0  0  0  0  0  0  0  0
   34.4166   19.5800   33.2493 H   0  0  0  0  0  0  0  0  0  0  0  0
   36.2264   20.1946   31.3734 H   0  0  0  0  0  0  0  0  0  0  0  0
   42.1192   21.9070   37.4125 H   0  0  0  0  0  0  0  0  0  0  0  0
   44.3666   23.2362   36.6248 H   0  0  0  0  0  0  0  0  0  0  0  0
   43.5584   25.2209   34.9946 H   0  0  0  0  0  0  0  0  0  0  0  0
  1  6  1  0
  2  1  2  0
  2  3  1  0
  3  4  2  0
  4  5  1  0
  6  5  2  0
  7  8  2  0
  7  1  1  0
  9  8  1  0
 10 11  1  0
 10  9  2  0
 11  7  1  0
 12  3  1  0
 12 13  2  0
 14 13  1  0
 15 14  2  0
 16 15  1  0
 16 12  1  0
  2 17  1  0
  5 18  1  0
  8 19  1  0
  9 20  1  0
 10 21  1  0
 13 22  1  0
 14 23  1  0
 15 24  1  0
M  ISO  8  17  14  18  14  19  14  20  14  21  14  22  14  23  14  24  14
M  END
>  <minimizedAffinity>  (1) 
-4.19176483

>  <minimizedRMSD>  (1) 
1.4357295

$$$$
