
     RDKit          3D

 44 47  0  0  1  0  0  0  0  0999 V2000
   36.1630   29.4720   32.4480 C   0  0  0  0  0  0  0  0  0  0  0  0
   36.8930   28.5080   31.7930 C   0  0  0  0  0  0  0  0  0  0  0  0
   37.2660   27.3690   32.5030 C   0  0  0  0  0  0  0  0  0  0  0  0
   36.9100   27.2190   33.8260 C   0  0  0  0  0  0  0  0  0  0  0  0
   36.1830   28.1760   34.4820 C   0  0  0  0  0  0  0  0  0  0  0  0
   35.8070   29.3070   33.7900 C   0  0  0  0  0  0  0  0  0  0  0  0
   37.4050   25.9420   34.3920 C   0  0  0  0  0  0  0  0  0  0  0  0
   38.8020   26.0050   34.8960 C   0  0  2  0  0  0  0  0  0  0  0  0
   40.7550   23.1640   36.1320 C   0  0  0  0  0  0  0  0  0  0  0  0
   39.9430   22.6480   37.2010 C   0  0  0  0  0  0  0  0  0  0  0  0
   38.7200   23.2970   37.4790 C   0  0  0  0  0  0  0  0  0  0  0  0
   38.4010   24.3780   36.7000 N   0  0  0  0  0  0  0  0  0  0  0  0
   39.1920   24.8320   35.7020 C   0  0  0  0  0  0  0  0  0  0  0  0
   40.3690   24.2420   35.4030 N   0  0  0  0  0  0  0  0  0  0  0  0
   38.9340   27.2520   35.7900 C   0  0  0  0  0  0  0  0  0  0  0  0
   35.6850   30.9090   31.5670 S   0  0  0  0  0  0  0  0  0  0  0  0
   36.2350   30.7770   30.1580 O   0  0  0  0  0  0  0  0  0  0  0  0
   36.2650   32.1330   32.1910 O   0  0  0  0  0  0  0  0  0  0  0  0
   33.9440   31.0400   31.5130 C   0  0  0  0  0  0  0  0  0  0  0  0
   32.9470   30.5860   32.2860 N   0  0  0  0  0  0  0  0  0  0  0  0
   31.8060   30.9700   31.7980 O   0  0  0  0  0  0  0  0  0  0  0  0
   32.0040   31.6710   30.7150 C   0  0  0  0  0  0  0  0  0  0  0  0
   33.3070   31.7100   30.5470 N   0  0  0  0  0  0  0  0  0  0  0  0
   30.9760   32.2900   29.8600 C   0  0  0  0  0  0  0  0  0  0  0  0
   30.5790   31.9190   28.6570 C   0  0  0  0  0  0  0  0  0  0  0  0
   29.6000   32.6320   28.0190 C   0  0  0  0  0  0  0  0  0  0  0  0
   29.0720   33.7410   28.7090 C   0  0  0  0  0  0  0  0  0  0  0  0
   30.0650   33.6870   30.3150 S   0  0  0  0  0  0  0  0  0  0  0  0
   37.1747   28.6329   30.7371 H   0  0  0  0  0  0  0  0  0  0  0  0
   37.8500   26.5821   32.0032 H   0  0  0  0  0  0  0  0  0  0  0  0
   35.9051   28.0450   35.5382 H   0  0  0  0  0  0  0  0  0  0  0  0
   35.2213   30.0872   34.2982 H   0  0  0  0  0  0  0  0  0  0  0  0
   36.7486   25.6564   35.2272 H   0  0  0  0  0  0  0  0  0  0  0  0
   37.3947   25.2064   33.5742 H   0  0  0  0  0  0  0  0  0  0  0  0
   39.4611   26.0358   34.0159 H   0  0  0  0  0  0  0  0  0  0  0  0
   41.7117   22.6734   35.8996 H   0  0  0  0  0  0  0  0  0  0  0  0
   40.2652   21.7733   37.7850 H   0  0  0  0  0  0  0  0  0  0  0  0
   38.0545   22.9508   38.2835 H   0  0  0  0  0  0  0  0  0  0  0  0
   38.9021   26.9502   36.8473 H   0  0  0  0  0  0  0  0  0  0  0  0
   39.8903   27.7537   35.5806 H   0  0  0  0  0  0  0  0  0  0  0  0
   38.1040   27.9428   35.5806 H   0  0  0  0  0  0  0  0  0  0  0  0
   31.0319   31.0426   28.1704 H   0  0  0  0  0  0  0  0  0  0  0  0
   29.2431   32.3527   27.0167 H   0  0  0  0  0  0  0  0  0  0  0  0
   28.2905   34.4490   28.3962 H   0  0  0  0  0  0  0  0  0  0  0  0
  1  6  1  0
  2  1  2  0
  2  3  1  0
  3  4  2  0
  4  7  1  0
  4  5  1  0
  6  5  2  0
  7  8  1  0
  8 13  1  0
  8 15  1  0
  9 10  2  0
 10 11  1  0
 12 11  2  0
 13 12  1  0
 14 13  2  0
 14  9  1  0
 16 18  2  0
 16  1  1  0
 17 16  2  0
 19 16  1  0
 19 20  2  0
 21 20  1  0
 22 21  1  0
 23 22  2  0
 23 19  1  0
 24 28  1  0
 24 22  1  0
 25 24  2  0
 26 25  1  0
 26 27  2  0
 27 28  1  0
  2 29  1  0
  3 30  1  0
  5 31  1  0
  6 32  1  0
  7 33  1  0
  7 34  1  0
  8 35  1  6
  9 36  1  0
 10 37  1  0
 11 38  1  0
 15 39  1  0
 15 40  1  0
 15 41  1  0
 25 42  1  0
 26 43  1  0
 27 44  1  0
M  ISO  8  29  14  30  14  31  14  32  14  33   8  34   8  35   8  36  14
M  ISO  8  37  14  38  14  39   8  40   8  41   8  42  14  43  14  44  14
M  END
>  <minimizedAffinity>  (1) 
-5.40742302

>  <minimizedRMSD>  (1) 
0.869874835

$$$$
