
     RDKit          3D

 19 20  0  0  0  0  0  0  0  0999 V2000
   37.9190   22.2800   36.0790 C   0  0  0  0  0  0  0  0  0  0  0  0
   39.3110   22.2020   36.1700 C   0  0  0  0  0  0  0  0  0  0  0  0
   39.9300   22.7350   37.2880 C   0  0  0  0  0  0  0  0  0  0  0  0
   39.1660   23.3160   38.2560 N   0  0  0  0  0  0  0  0  0  0  0  0
   37.8280   23.3780   38.1450 C   0  0  0  0  0  0  0  0  0  0  0  0
   37.2150   22.8650   37.0680 N   0  0  0  0  0  0  0  0  0  0  0  0
   41.3500   22.6300   37.3300 N   0  0  0  0  0  0  0  0  0  0  0  0
   37.1370   21.7610   34.9640 C   0  0  0  0  0  0  0  0  0  0  0  0
   36.0540   20.9040   35.1890 C   0  0  0  0  0  0  0  0  0  0  0  0
   35.5240   20.5910   33.9400 C   0  0  0  0  0  0  0  0  0  0  0  0
   36.3080   21.2690   33.0470 C   0  0  0  0  0  0  0  0  0  0  0  0
   37.2420   21.9420   33.6920 O   0  0  0  0  0  0  0  0  0  0  0  0
   39.9015   21.7282   35.3720 H   0  0  0  0  0  0  0  0  0  0  0  0
   37.2335   23.8512   38.9404 H   0  0  0  0  0  0  0  0  0  0  0  0
   41.8707   23.0070   38.1348 H   0  0  0  0  0  0  0  0  0  0  0  0
   41.8560   22.1771   36.5556 H   0  0  0  0  0  0  0  0  0  0  0  0
   35.6914   20.5466   36.1641 H   0  0  0  0  0  0  0  0  0  0  0  0
   34.6640   19.9414   33.7197 H   0  0  0  0  0  0  0  0  0  0  0  0
   36.1791   21.2552   31.9547 H   0  0  0  0  0  0  0  0  0  0  0  0
  1  2  2  0
  1  6  1  0
  2  3  1  0
  3  7  1  0
  3  4  2  0
  5  4  1  0
  6  5  2  0
  8  9  2  0
  8  1  1  0
 10  9  1  0
 11 12  1  0
 11 10  2  0
 12  8  1  0
  2 13  1  0
  5 14  1  0
  7 15  1  0
  7 16  1  0
  9 17  1  0
 10 18  1  0
 11 19  1  0
M  ISO  5  13  14  14  14  17  14  18  14  19  14
M  END
>  <minimizedAffinity>  (1) 
-3.88675261

>  <minimizedRMSD>  (1) 
0.1494499

$$$$
