
     RDKit          3D

 23 24  0  0  0  0  0  0  0  0999 V2000
   37.8730   22.2300   35.9050 C   0  0  0  0  0  0  0  0  0  0  0  0
   39.2620   22.1640   35.9990 C   0  0  0  0  0  0  0  0  0  0  0  0
   39.8950   22.6870   37.1140 C   0  0  0  0  0  0  0  0  0  0  0  0
   39.1310   23.2500   38.0830 N   0  0  0  0  0  0  0  0  0  0  0  0
   37.7870   23.3100   37.9820 C   0  0  0  0  0  0  0  0  0  0  0  0
   37.1540   22.8070   36.9040 N   0  0  0  0  0  0  0  0  0  0  0  0
   37.0910   21.7220   34.7940 C   0  0  0  0  0  0  0  0  0  0  0  0
   36.0080   20.8690   34.9920 C   0  0  0  0  0  0  0  0  0  0  0  0
   35.4760   20.5660   33.7540 C   0  0  0  0  0  0  0  0  0  0  0  0
   36.2550   21.2430   32.8650 C   0  0  0  0  0  0  0  0  0  0  0  0
   37.1910   21.9090   33.5200 O   0  0  0  0  0  0  0  0  0  0  0  0
   41.3630   22.6350   37.2520 C   0  0  0  0  0  0  0  0  0  0  0  0
   41.9070   21.2450   37.2760 C   0  0  0  0  0  0  0  0  0  0  0  0
   39.8507   21.7001   35.1939 H   0  0  0  0  0  0  0  0  0  0  0  0
   37.2013   23.7748   38.7888 H   0  0  0  0  0  0  0  0  0  0  0  0
   35.6415   20.5019   35.9620 H   0  0  0  0  0  0  0  0  0  0  0  0
   34.6131   19.9201   33.5343 H   0  0  0  0  0  0  0  0  0  0  0  0
   36.1257   21.2367   31.7726 H   0  0  0  0  0  0  0  0  0  0  0  0
   41.8123   23.1707   36.4028 H   0  0  0  0  0  0  0  0  0  0  0  0
   41.6153   23.0993   38.2168 H   0  0  0  0  0  0  0  0  0  0  0  0
   42.0345   20.9191   38.3189 H   0  0  0  0  0  0  0  0  0  0  0  0
   41.2073   20.5685   36.7634 H   0  0  0  0  0  0  0  0  0  0  0  0
   42.8800   21.2232   36.7634 H   0  0  0  0  0  0  0  0  0  0  0  0
  1  2  2  0
  1  6  1  0
  2  3  1  0
  3 12  1  0
  3  4  2  0
  5  4  1  0
  6  5  2  0
  7  8  2  0
  7  1  1  0
  9  8  1  0
 10 11  1  0
 10  9  2  0
 11  7  1  0
 12 13  1  0
  2 14  1  0
  5 15  1  0
  8 16  1  0
  9 17  1  0
 10 18  1  0
 12 19  1  0
 12 20  1  0
 13 21  1  0
 13 22  1  0
 13 23  1  0
M  ISO  8  14  14  15  14  16  14  17  14  18  14  19   8  20   8  21   8
M  ISO  2  22   8  23   8
M  END
>  <minimizedAffinity>  (1) 
-4.09078598

>  <minimizedRMSD>  (1) 
0.64298898

$$$$
