
     RDKit          3D

 37 40  0  0  0  0  0  0  0  0999 V2000
   38.0700   22.2690   36.0000 C   0  0  0  0  0  0  0  0  0  0  0  0
   39.4590   22.1870   36.0100 C   0  0  0  0  0  0  0  0  0  0  0  0
   40.1660   22.6990   37.0700 C   0  0  0  0  0  0  0  0  0  0  0  0
   39.4640   23.2790   38.0880 N   0  0  0  0  0  0  0  0  0  0  0  0
   38.1250   23.3580   38.0780 C   0  0  0  0  0  0  0  0  0  0  0  0
   37.4150   22.8590   37.0440 N   0  0  0  0  0  0  0  0  0  0  0  0
   37.2160   21.7660   34.9420 C   0  0  0  0  0  0  0  0  0  0  0  0
   36.1320   20.9180   35.2190 C   0  0  0  0  0  0  0  0  0  0  0  0
   35.5270   20.6200   34.0120 C   0  0  0  0  0  0  0  0  0  0  0  0
   36.2520   21.2820   33.0760 C   0  0  0  0  0  0  0  0  0  0  0  0
   37.2240   21.9330   33.6720 O   0  0  0  0  0  0  0  0  0  0  0  0
   41.6360   22.6400   37.1370 C   0  0  0  0  0  0  0  0  0  0  0  0
   42.3040   23.5610   36.1680 C   0  0  0  0  0  0  0  0  0  0  0  0
   43.7630   23.6000   36.2960 C   0  0  0  0  0  0  0  0  0  0  0  0
   44.5800   22.7360   35.5560 C   0  0  0  0  0  0  0  0  0  0  0  0
   45.8720   22.9180   35.8160 N   0  0  0  0  0  0  0  0  0  0  0  0
   45.9200   23.8960   36.7230 C   0  0  0  0  0  0  0  0  0  0  0  0
   46.9560   24.5460   37.3950 C   0  0  0  0  0  0  0  0  0  0  0  0
   46.7540   25.5450   38.3010 C   0  0  0  0  0  0  0  0  0  0  0  0
   45.4610   25.9290   38.5640 C   0  0  0  0  0  0  0  0  0  0  0  0
   44.3630   25.3340   37.9380 C   0  0  0  0  0  0  0  0  0  0  0  0
   44.6360   24.3350   37.0370 C   0  0  0  0  0  0  0  0  0  0  0  0
   39.9894   21.7132   35.1708 H   0  0  0  0  0  0  0  0  0  0  0  0
   37.6008   23.8337   38.9200 H   0  0  0  0  0  0  0  0  0  0  0  0
   35.8219   20.5579   36.2110 H   0  0  0  0  0  0  0  0  0  0  0  0
   34.6461   19.9824   33.8462 H   0  0  0  0  0  0  0  0  0  0  0  0
   36.0572   21.2746   31.9934 H   0  0  0  0  0  0  0  0  0  0  0  0
   41.9514   22.9137   38.1546 H   0  0  0  0  0  0  0  0  0  0  0  0
   41.9356   21.6145   36.8750 H   0  0  0  0  0  0  0  0  0  0  0  0
   41.9147   24.5768   36.3308 H   0  0  0  0  0  0  0  0  0  0  0  0
   42.0817   23.1803   35.1602 H   0  0  0  0  0  0  0  0  0  0  0  0
   44.1973   21.9922   34.8417 H   0  0  0  0  0  0  0  0  0  0  0  0
   46.6681   22.4107   35.4039 H   0  0  0  0  0  0  0  0  0  0  0  0
   47.9899   24.2363   37.1827 H   0  0  0  0  0  0  0  0  0  0  0  0
   47.6020   26.0297   38.8069 H   0  0  0  0  0  0  0  0  0  0  0  0
   45.2844   26.7334   39.2933 H   0  0  0  0  0  0  0  0  0  0  0  0
   43.3321   25.6499   38.1560 H   0  0  0  0  0  0  0  0  0  0  0  0
  1  2  2  0
  1  6  1  0
  2  3  1  0
  3 12  1  0
  3  4  2  0
  5  4  1  0
  6  5  2  0
  7  8  2  0
  7  1  1  0
  9  8  1  0
 10 11  1  0
 10  9  2  0
 11  7  1  0
 13 14  1  0
 13 12  1  0
 14 22  1  0
 15 16  1  0
 15 14  2  0
 16 17  1  0
 17 22  2  0
 17 18  1  0
 18 19  2  0
 19 20  1  0
 21 20  2  0
 22 21  1  0
  2 23  1  0
  5 24  1  0
  8 25  1  0
  9 26  1  0
 10 27  1  0
 12 28  1  0
 12 29  1  0
 13 30  1  0
 13 31  1  0
 15 32  1  0
 16 33  1  0
 18 34  1  0
 19 35  1  0
 20 36  1  0
 21 37  1  0
M  ISO  8  23  14  24  14  25  14  26  14  27  14  28   8  29   8  30   8
M  ISO  7  31   8  32  14  33   9  34  14  35  14  36  14  37  14
M  END
>  <minimizedAffinity>  (1) 
-5.89678288

>  <minimizedRMSD>  (1) 
2.15113544

$$$$
