
     RDKit          3D

 37 40  0  0  0  0  0  0  0  0999 V2000
   41.7220   22.4920   37.0260 C   0  0  0  0  0  0  0  0  0  0  0  0
   38.1390   22.2520   35.9340 C   0  0  0  0  0  0  0  0  0  0  0  0
   39.5150   22.1270   35.9430 C   0  0  0  0  0  0  0  0  0  0  0  0
   40.2420   22.6260   37.0170 C   0  0  0  0  0  0  0  0  0  0  0  0
   39.5680   23.2200   38.0190 N   0  0  0  0  0  0  0  0  0  0  0  0
   38.2340   23.3390   38.0090 C   0  0  0  0  0  0  0  0  0  0  0  0
   37.5030   22.8610   36.9730 N   0  0  0  0  0  0  0  0  0  0  0  0
   37.2500   21.7760   34.8820 C   0  0  0  0  0  0  0  0  0  0  0  0
   36.1750   20.9370   35.1420 C   0  0  0  0  0  0  0  0  0  0  0  0
   35.5450   20.6800   33.9390 C   0  0  0  0  0  0  0  0  0  0  0  0
   36.2610   21.3720   33.0030 C   0  0  0  0  0  0  0  0  0  0  0  0
   37.2440   21.9930   33.6150 O   0  0  0  0  0  0  0  0  0  0  0  0
   42.4160   23.5210   36.2130 C   0  0  0  0  0  0  0  0  0  0  0  0
   43.8880   23.3790   36.2690 C   0  0  0  0  0  0  0  0  0  0  0  0
   44.5290   22.4180   35.5430 N   0  0  0  0  0  0  0  0  0  0  0  0
   45.8600   22.2720   35.5550 C   0  0  0  0  0  0  0  0  0  0  0  0
   46.6430   23.0860   36.3040 N   0  0  0  0  0  0  0  0  0  0  0  0
   46.0870   24.0700   37.0580 C   0  0  0  0  0  0  0  0  0  0  0  0
   46.9090   24.8680   37.8050 C   0  0  0  0  0  0  0  0  0  0  0  0
   46.3060   25.8550   38.5660 C   0  0  0  0  0  0  0  0  0  0  0  0
   44.9280   26.0230   38.5670 C   0  0  0  0  0  0  0  0  0  0  0  0
   44.1760   25.1720   37.7840 C   0  0  0  0  0  0  0  0  0  0  0  0
   44.7130   24.1870   37.0190 C   0  0  0  0  0  0  0  0  0  0  0  0
   42.0725   22.5752   38.0653 H   0  0  0  0  0  0  0  0  0  0  0  0
   41.9603   21.5145   36.5814 H   0  0  0  0  0  0  0  0  0  0  0  0
   40.0317   21.6356   35.1054 H   0  0  0  0  0  0  0  0  0  0  0  0
   37.7258   23.8305   38.8517 H   0  0  0  0  0  0  0  0  0  0  0  0
   35.8784   20.5474   36.1270 H   0  0  0  0  0  0  0  0  0  0  0  0
   34.6572   20.0527   33.7709 H   0  0  0  0  0  0  0  0  0  0  0  0
   36.0507   21.4036   31.9238 H   0  0  0  0  0  0  0  0  0  0  0  0
   42.1415   24.5164   36.5922 H   0  0  0  0  0  0  0  0  0  0  0  0
   42.1039   23.3911   35.1662 H   0  0  0  0  0  0  0  0  0  0  0  0
   46.3243   21.4804   34.9485 H   0  0  0  0  0  0  0  0  0  0  0  0
   48.0005   24.7317   37.8014 H   0  0  0  0  0  0  0  0  0  0  0  0
   46.9308   26.5188   39.1816 H   0  0  0  0  0  0  0  0  0  0  0  0
   44.4517   26.8085   39.1720 H   0  0  0  0  0  0  0  0  0  0  0  0
   43.0833   25.2980   37.7791 H   0  0  0  0  0  0  0  0  0  0  0  0
  2  3  2  0
  2  7  1  0
  3  4  1  0
  4  1  1  0
  4  5  2  0
  6  5  1  0
  7  6  2  0
  8  9  2  0
  8  2  1  0
 10  9  1  0
 11 12  1  0
 11 10  2  0
 12  8  1  0
 13 14  1  0
 13  1  1  0
 14 23  2  0
 15 16  2  0
 15 14  1  0
 16 17  1  0
 17 18  2  0
 18 19  1  0
 19 20  2  0
 20 21  1  0
 22 21  2  0
 23 18  1  0
 23 22  1  0
  1 24  1  0
  1 25  1  0
  3 26  1  0
  6 27  1  0
  9 28  1  0
 10 29  1  0
 11 30  1  0
 13 31  1  0
 13 32  1  0
 16 33  1  0
 19 34  1  0
 20 35  1  0
 21 36  1  0
 22 37  1  0
M  ISO  8  24   8  25   8  26  14  27  14  28  14  29  14  30  14  31   8
M  ISO  6  32   8  33  14  34  14  35  14  36  14  37  14
M  END
>  <minimizedAffinity>  (1) 
-5.87192345

>  <minimizedRMSD>  (1) 
2.34457755

$$$$
