
     RDKit          3D

 36 38  0  0  0  0  0  0  0  0999 V2000
   38.0120   22.2510   35.8850 C   0  0  0  0  0  0  0  0  0  0  0  0
   39.3950   22.1130   35.9630 C   0  0  0  0  0  0  0  0  0  0  0  0
   40.0760   22.6120   37.0620 C   0  0  0  0  0  0  0  0  0  0  0  0
   39.3660   23.2230   38.0320 N   0  0  0  0  0  0  0  0  0  0  0  0
   38.0210   23.3560   37.9560 C   0  0  0  0  0  0  0  0  0  0  0  0
   37.3420   22.8760   36.8930 N   0  0  0  0  0  0  0  0  0  0  0  0
   37.1840   21.7810   34.8050 C   0  0  0  0  0  0  0  0  0  0  0  0
   36.1160   20.9090   35.0230 C   0  0  0  0  0  0  0  0  0  0  0  0
   35.5260   20.6500   33.7900 C   0  0  0  0  0  0  0  0  0  0  0  0
   36.2510   21.3650   32.8960 C   0  0  0  0  0  0  0  0  0  0  0  0
   37.2220   22.0210   33.5300 O   0  0  0  0  0  0  0  0  0  0  0  0
   41.5320   22.4760   37.1620 C   0  0  0  0  0  0  0  0  0  0  0  0
   42.2650   23.0700   35.9900 C   0  0  0  0  0  0  0  0  0  0  0  0
   43.6160   23.4770   36.3360 N   0  0  0  0  0  0  0  0  0  0  0  0
   43.7440   24.5030   37.2140 C   0  0  0  0  0  0  0  0  0  0  0  0
   44.9730   24.9700   37.6110 C   0  0  0  0  0  0  0  0  0  0  0  0
   45.0640   26.0930   38.5710 C   0  0  0  0  0  0  0  0  0  0  0  0
   46.0600   24.3240   37.0550 C   0  0  0  0  0  0  0  0  0  0  0  0
   47.2060   24.7390   37.4080 O   0  0  0  0  0  0  0  0  0  0  0  0
   45.9460   23.3060   36.1830 N   0  0  0  0  0  0  0  0  0  0  0  0
   44.7130   22.8840   35.8250 C   0  0  0  0  0  0  0  0  0  0  0  0
   44.4770   21.9480   35.0240 O   0  0  0  0  0  0  0  0  0  0  0  0
   39.9456   21.6094   35.1548 H   0  0  0  0  0  0  0  0  0  0  0  0
   37.4765   23.8599   38.7681 H   0  0  0  0  0  0  0  0  0  0  0  0
   35.7984   20.5006   35.9938 H   0  0  0  0  0  0  0  0  0  0  0  0
   34.6590   20.0047   33.5852 H   0  0  0  0  0  0  0  0  0  0  0  0
   36.0661   21.3987   31.8122 H   0  0  0  0  0  0  0  0  0  0  0  0
   41.8683   22.9834   38.0782 H   0  0  0  0  0  0  0  0  0  0  0  0
   41.7593   21.3999   37.1782 H   0  0  0  0  0  0  0  0  0  0  0  0
   41.7099   23.9506   35.6346 H   0  0  0  0  0  0  0  0  0  0  0  0
   42.3346   22.2983   35.2092 H   0  0  0  0  0  0  0  0  0  0  0  0
   42.8370   24.9748   37.6199 H   0  0  0  0  0  0  0  0  0  0  0  0
   45.0322   25.7008   39.5982 H   0  0  0  0  0  0  0  0  0  0  0  0
   46.0089   26.6339   38.4141 H   0  0  0  0  0  0  0  0  0  0  0  0
   44.2185   26.7789   38.4141 H   0  0  0  0  0  0  0  0  0  0  0  0
   46.7862   22.8548   35.7939 H   0  0  0  0  0  0  0  0  0  0  0  0
  1  2  2  0
  1  6  1  0
  2  3  1  0
  3 12  1  0
  3  4  2  0
  5  4  1  0
  6  5  2  0
  7  8  2  0
  7  1  1  0
  9  8  1  0
 10 11  1  0
 10  9  2  0
 11  7  1  0
 13 14  1  0
 13 12  1  0
 14 15  1  0
 15 16  2  0
 16 17  1  0
 18 19  2  0
 18 16  1  0
 20 18  1  0
 21 20  1  0
 21 14  1  0
 22 21  2  0
  2 23  1  0
  5 24  1  0
  8 25  1  0
  9 26  1  0
 10 27  1  0
 12 28  1  0
 12 29  1  0
 13 30  1  0
 13 31  1  0
 15 32  1  0
 17 33  1  0
 17 34  1  0
 17 35  1  0
 20 36  1  0
M  ISO  8  23  14  24  14  25  14  26  14  27  14  28   8  29   8  30   8
M  ISO  6  31   8  32  14  33   8  34   8  35   8  36   9
M  END
>  <minimizedAffinity>  (1) 
-5.26967669

>  <minimizedRMSD>  (1) 
1.97414076

$$$$
