
     RDKit          3D

 30 32  0  0  0  0  0  0  0  0999 V2000
   37.8880   22.2630   36.0070 C   0  0  0  0  0  0  0  0  0  0  0  0
   39.2570   22.1360   36.1640 C   0  0  0  0  0  0  0  0  0  0  0  0
   39.8940   22.6370   37.2760 C   0  0  0  0  0  0  0  0  0  0  0  0
   39.1240   23.2580   38.2100 N   0  0  0  0  0  0  0  0  0  0  0  0
   37.7930   23.3820   38.0610 C   0  0  0  0  0  0  0  0  0  0  0  0
   37.1640   22.8960   36.9780 N   0  0  0  0  0  0  0  0  0  0  0  0
   37.1200   21.7780   34.8870 C   0  0  0  0  0  0  0  0  0  0  0  0
   36.0460   20.8930   35.0590 C   0  0  0  0  0  0  0  0  0  0  0  0
   35.5280   20.6260   33.8050 C   0  0  0  0  0  0  0  0  0  0  0  0
   36.2910   21.3430   32.9430 C   0  0  0  0  0  0  0  0  0  0  0  0
   37.2160   22.0090   33.6180 O   0  0  0  0  0  0  0  0  0  0  0  0
   41.3460   22.5140   37.4610 C   0  0  0  0  0  0  0  0  0  0  0  0
   42.0920   22.3710   36.1630 C   0  0  0  0  0  0  0  0  0  0  0  0
   42.8370   23.6400   35.9330 C   0  0  0  0  0  0  0  0  0  0  0  0
   43.8730   24.0440   36.7780 C   0  0  0  0  0  0  0  0  0  0  0  0
   44.3830   25.2480   36.3360 C   0  0  0  0  0  0  0  0  0  0  0  0
   43.6100   25.5230   35.2130 C   0  0  0  0  0  0  0  0  0  0  0  0
   42.7300   24.5740   35.0130 O   0  0  0  0  0  0  0  0  0  0  0  0
   39.8456   21.6262   35.3871 H   0  0  0  0  0  0  0  0  0  0  0  0
   37.2081   23.8913   38.8411 H   0  0  0  0  0  0  0  0  0  0  0  0
   35.6828   20.4865   36.0144 H   0  0  0  0  0  0  0  0  0  0  0  0
   34.6785   19.9718   33.5591 H   0  0  0  0  0  0  0  0  0  0  0  0
   36.1616   21.3677   31.8509 H   0  0  0  0  0  0  0  0  0  0  0  0
   41.7112   23.4134   37.9783 H   0  0  0  0  0  0  0  0  0  0  0  0
   41.5276   21.6016   38.0480 H   0  0  0  0  0  0  0  0  0  0  0  0
   42.7960   21.5281   36.2253 H   0  0  0  0  0  0  0  0  0  0  0  0
   41.3949   22.1753   35.3349 H   0  0  0  0  0  0  0  0  0  0  0  0
   44.2275   23.4889   37.6590 H   0  0  0  0  0  0  0  0  0  0  0  0
   45.2009   25.8443   36.7667 H   0  0  0  0  0  0  0  0  0  0  0  0
   43.7224   26.4153   34.5796 H   0  0  0  0  0  0  0  0  0  0  0  0
  1  2  2  0
  1  6  1  0
  2  3  1  0
  3 12  1  0
  3  4  2  0
  5  4  1  0
  6  5  2  0
  7  8  2  0
  7  1  1  0
  9  8  1  0
 10 11  1  0
 10  9  2  0
 11  7  1  0
 13 12  1  0
 14 13  1  0
 14 15  2  0
 16 15  1  0
 17 16  2  0
 18 17  1  0
 18 14  1  0
  2 19  1  0
  5 20  1  0
  8 21  1  0
  9 22  1  0
 10 23  1  0
 12 24  1  0
 12 25  1  0
 13 26  1  0
 13 27  1  0
 15 28  1  0
 16 29  1  0
 17 30  1  0
M  ISO  8  19  14  20  14  21  14  22  14  23  14  24   8  25   8  26   8
M  ISO  4  27   8  28  14  29  14  30  14
M  END
>  <minimizedAffinity>  (1) 
-4.66330528

>  <minimizedRMSD>  (1) 
2.15602446

$$$$
