
     RDKit          3D

 31 33  0  0  0  0  0  0  0  0999 V2000
   37.8950   22.2560   36.0260 C   0  0  0  0  0  0  0  0  0  0  0  0
   39.2590   22.0950   36.2100 C   0  0  0  0  0  0  0  0  0  0  0  0
   39.8710   22.6100   37.3390 C   0  0  0  0  0  0  0  0  0  0  0  0
   39.0950   23.2690   38.2440 N   0  0  0  0  0  0  0  0  0  0  0  0
   37.7760   23.4220   38.0630 C   0  0  0  0  0  0  0  0  0  0  0  0
   37.1710   22.9260   36.9680 N   0  0  0  0  0  0  0  0  0  0  0  0
   37.1320   21.7790   34.9040 C   0  0  0  0  0  0  0  0  0  0  0  0
   36.0630   20.9140   35.0360 C   0  0  0  0  0  0  0  0  0  0  0  0
   35.5470   20.6490   33.7930 C   0  0  0  0  0  0  0  0  0  0  0  0
   36.3330   21.3750   32.9330 C   0  0  0  0  0  0  0  0  0  0  0  0
   37.2510   22.0230   33.6320 O   0  0  0  0  0  0  0  0  0  0  0  0
   41.3290   22.4440   37.5470 C   0  0  0  0  0  0  0  0  0  0  0  0
   42.0870   22.4030   36.2460 C   0  0  0  0  0  0  0  0  0  0  0  0
   42.8550   23.6170   35.9650 C   0  0  0  0  0  0  0  0  0  0  0  0
   42.6030   24.4860   34.9470 C   0  0  0  0  0  0  0  0  0  0  0  0
   43.3100   25.6420   34.6560 C   0  0  0  0  0  0  0  0  0  0  0  0
   44.3360   25.8810   35.4930 N   0  0  0  0  0  0  0  0  0  0  0  0
   44.6220   25.0520   36.5120 C   0  0  0  0  0  0  0  0  0  0  0  0
   43.9090   23.9390   36.7600 N   0  0  0  0  0  0  0  0  0  0  0  0
   39.8555   21.5575   35.4581 H   0  0  0  0  0  0  0  0  0  0  0  0
   37.1817   23.9586   38.8173 H   0  0  0  0  0  0  0  0  0  0  0  0
   35.6864   20.5040   35.9847 H   0  0  0  0  0  0  0  0  0  0  0  0
   34.6948   20.0004   33.5418 H   0  0  0  0  0  0  0  0  0  0  0  0
   36.2183   21.4121   31.8396 H   0  0  0  0  0  0  0  0  0  0  0  0
   41.6999   23.2881   38.1469 H   0  0  0  0  0  0  0  0  0  0  0  0
   41.4902   21.4859   38.0627 H   0  0  0  0  0  0  0  0  0  0  0  0
   42.7841   21.5527   36.2787 H   0  0  0  0  0  0  0  0  0  0  0  0
   41.3390   22.3076   35.4452 H   0  0  0  0  0  0  0  0  0  0  0  0
   41.7537   24.2465   34.2903 H   0  0  0  0  0  0  0  0  0  0  0  0
   43.0551   26.3048   33.8159 H   0  0  0  0  0  0  0  0  0  0  0  0
   45.4715   25.2932   37.1679 H   0  0  0  0  0  0  0  0  0  0  0  0
  1  2  2  0
  1  6  1  0
  2  3  1  0
  3 12  1  0
  3  4  2  0
  5  4  1  0
  6  5  2  0
  7  8  2  0
  7  1  1  0
  9  8  1  0
 10 11  1  0
 10  9  2  0
 11  7  1  0
 13 12  1  0
 14 13  1  0
 14 19  1  0
 15 14  2  0
 16 15  1  0
 16 17  2  0
 17 18  1  0
 18 19  2  0
  2 20  1  0
  5 21  1  0
  8 22  1  0
  9 23  1  0
 10 24  1  0
 12 25  1  0
 12 26  1  0
 13 27  1  0
 13 28  1  0
 15 29  1  0
 16 30  1  0
 18 31  1  0
M  ISO  8  20  14  21  14  22  14  23  14  24  14  25   8  26   8  27   8
M  ISO  4  28   8  29  14  30  14  31  14
M  END
>  <minimizedAffinity>  (1) 
-4.60270739

>  <minimizedRMSD>  (1) 
2.55005622

$$$$
