
     RDKit          3D

 33 35  0  0  0  0  0  0  0  0999 V2000
   39.5340   24.0690   35.8210 C   0  0  0  0  0  0  0  0  0  0  0  0
   40.9060   23.9150   35.6040 C   0  0  0  0  0  0  0  0  0  0  0  0
   41.6560   23.1510   36.4710 C   0  0  0  0  0  0  0  0  0  0  0  0
   41.0160   22.5710   37.5200 N   0  0  0  0  0  0  0  0  0  0  0  0
   39.6960   22.7230   37.7240 C   0  0  0  0  0  0  0  0  0  0  0  0
   38.9540   23.4700   36.8780 N   0  0  0  0  0  0  0  0  0  0  0  0
   38.6420   24.8450   34.9830 C   0  0  0  0  0  0  0  0  0  0  0  0
   38.3140   24.4560   33.6950 C   0  0  0  0  0  0  0  0  0  0  0  0
   37.4510   25.4060   33.1730 C   0  0  0  0  0  0  0  0  0  0  0  0
   37.2950   26.3260   34.1640 C   0  0  0  0  0  0  0  0  0  0  0  0
   38.0130   25.9530   35.2060 O   0  0  0  0  0  0  0  0  0  0  0  0
   43.0960   22.9670   36.2750 C   0  0  0  0  0  0  0  0  0  0  0  0
   43.7940   24.2150   35.8030 C   0  0  0  0  0  0  0  0  0  0  0  0
   44.8150   24.5530   36.8590 C   0  0  0  0  0  0  0  0  0  0  0  0
   44.3930   25.4010   37.8660 C   0  0  0  0  0  0  0  0  0  0  0  0
   45.2730   25.7560   38.8700 C   0  0  0  0  0  0  0  0  0  0  0  0
   46.5750   25.3020   38.9180 C   0  0  0  0  0  0  0  0  0  0  0  0
   46.9690   24.4480   37.8840 C   0  0  0  0  0  0  0  0  0  0  0  0
   46.1090   24.0770   36.8720 C   0  0  0  0  0  0  0  0  0  0  0  0
   41.3860   24.4028   34.7428 H   0  0  0  0  0  0  0  0  0  0  0  0
   39.2168   22.2356   38.5859 H   0  0  0  0  0  0  0  0  0  0  0  0
   38.6742   23.5540   33.1786 H   0  0  0  0  0  0  0  0  0  0  0  0
   36.9913   25.4148   32.1737 H   0  0  0  0  0  0  0  0  0  0  0  0
   36.6728   27.2313   34.1056 H   0  0  0  0  0  0  0  0  0  0  0  0
   43.5424   22.6571   37.2314 H   0  0  0  0  0  0  0  0  0  0  0  0
   43.2249   22.2043   35.4929 H   0  0  0  0  0  0  0  0  0  0  0  0
   44.2898   24.0325   34.8382 H   0  0  0  0  0  0  0  0  0  0  0  0
   43.0819   25.0405   35.6562 H   0  0  0  0  0  0  0  0  0  0  0  0
   43.3641   25.7902   37.8678 H   0  0  0  0  0  0  0  0  0  0  0  0
   44.9206   26.4294   39.6652 H   0  0  0  0  0  0  0  0  0  0  0  0
   47.2637   25.5954   39.7240 H   0  0  0  0  0  0  0  0  0  0  0  0
   47.9981   24.0594   37.8774 H   0  0  0  0  0  0  0  0  0  0  0  0
   46.4550   23.4017   36.0756 H   0  0  0  0  0  0  0  0  0  0  0  0
  1  6  1  0
  2  1  2  0
  2  3  1  0
  3  4  2  0
  4  5  1  0
  6  5  2  0
  7 11  1  0
  7  1  1  0
  8  7  2  0
  9  8  1  0
  9 10  2  0
 10 11  1  0
 12  3  1  0
 13 12  1  0
 13 14  1  0
 14 19  1  0
 14 15  2  0
 15 16  1  0
 16 17  2  0
 18 17  1  0
 19 18  2  0
  2 20  1  0
  5 21  1  0
  8 22  1  0
  9 23  1  0
 10 24  1  0
 12 25  1  0
 12 26  1  0
 13 27  1  0
 13 28  1  0
 15 29  1  0
 16 30  1  0
 17 31  1  0
 18 32  1  0
 19 33  1  0
M  ISO  8  20  14  21  14  22  14  23  14  24  14  25   8  26   8  27   8
M  ISO  6  28   8  29  14  30  14  31  14  32  14  33  14
M  END
>  <minimizedAffinity>  (1) 
-5.08877516

>  <minimizedRMSD>  (1) 
3.49669814

$$$$
