
     RDKit          3D

 34 36  0  0  0  0  0  0  0  0999 V2000
   37.8730   22.2580   36.0210 C   0  0  0  0  0  0  0  0  0  0  0  0
   39.2390   22.0810   36.2020 C   0  0  0  0  0  0  0  0  0  0  0  0
   39.8660   22.5880   37.3310 C   0  0  0  0  0  0  0  0  0  0  0  0
   39.0950   23.2490   38.2280 N   0  0  0  0  0  0  0  0  0  0  0  0
   37.7790   23.4210   38.0540 C   0  0  0  0  0  0  0  0  0  0  0  0
   37.1540   22.9350   36.9640 N   0  0  0  0  0  0  0  0  0  0  0  0
   37.1090   21.7780   34.8930 C   0  0  0  0  0  0  0  0  0  0  0  0
   36.0380   20.8900   35.0590 C   0  0  0  0  0  0  0  0  0  0  0  0
   35.5200   20.6260   33.8000 C   0  0  0  0  0  0  0  0  0  0  0  0
   36.2810   21.3490   32.9420 C   0  0  0  0  0  0  0  0  0  0  0  0
   37.1990   22.0090   33.6290 O   0  0  0  0  0  0  0  0  0  0  0  0
   41.3080   22.4070   37.5340 C   0  0  0  0  0  0  0  0  0  0  0  0
   42.0910   22.4230   36.2660 C   0  0  0  0  0  0  0  0  0  0  0  0
   42.8870   23.6110   36.0520 N   0  0  0  0  0  0  0  0  0  0  0  0
   44.0490   23.8830   36.6920 C   0  0  0  0  0  0  0  0  0  0  0  0
   44.7210   25.0510   36.4030 C   0  0  0  0  0  0  0  0  0  0  0  0
   44.2840   25.9660   35.4990 C   0  0  0  0  0  0  0  0  0  0  0  0
   44.9430   27.1840   35.1690 N   0  0  0  0  0  0  0  0  0  0  0  0
   43.1240   25.6520   34.8880 N   0  0  0  0  0  0  0  0  0  0  0  0
   42.4490   24.5130   35.1560 C   0  0  0  0  0  0  0  0  0  0  0  0
   41.3760   24.3150   34.5320 O   0  0  0  0  0  0  0  0  0  0  0  0
   39.8257   21.5368   35.4473 H   0  0  0  0  0  0  0  0  0  0  0  0
   37.1991   23.9674   38.8124 H   0  0  0  0  0  0  0  0  0  0  0  0
   35.6750   20.4782   36.0122 H   0  0  0  0  0  0  0  0  0  0  0  0
   34.6728   19.9702   33.5508 H   0  0  0  0  0  0  0  0  0  0  0  0
   36.1553   21.3816   31.8497 H   0  0  0  0  0  0  0  0  0  0  0  0
   41.6738   23.2188   38.1799 H   0  0  0  0  0  0  0  0  0  0  0  0
   41.4497   21.4163   37.9906 H   0  0  0  0  0  0  0  0  0  0  0  0
   42.7678   21.5559   36.2724 H   0  0  0  0  0  0  0  0  0  0  0  0
   41.3537   22.3970   35.4501 H   0  0  0  0  0  0  0  0  0  0  0  0
   44.4523   23.1790   37.4348 H   0  0  0  0  0  0  0  0  0  0  0  0
   45.6631   25.2535   36.9335 H   0  0  0  0  0  0  0  0  0  0  0  0
   44.5334   27.8176   34.4677 H   0  0  0  0  0  0  0  0  0  0  0  0
   45.8294   27.4317   35.6315 H   0  0  0  0  0  0  0  0  0  0  0  0
  1  2  2  0
  1  6  1  0
  2  3  1  0
  3 12  1  0
  3  4  2  0
  5  4  1  0
  6  5  2  0
  7  8  2  0
  7  1  1  0
  9  8  1  0
 10 11  1  0
 10  9  2  0
 11  7  1  0
 13 12  1  0
 14 13  1  0
 14 15  1  0
 16 15  2  0
 17 16  1  0
 18 17  1  0
 19 20  1  0
 19 17  2  0
 20 14  1  0
 21 20  2  0
  2 22  1  0
  5 23  1  0
  8 24  1  0
  9 25  1  0
 10 26  1  0
 12 27  1  0
 12 28  1  0
 13 29  1  0
 13 30  1  0
 15 31  1  0
 16 32  1  0
 18 33  1  0
 18 34  1  0
M  ISO  8  22  14  23  14  24  14  25  14  26  14  27   8  28   8  29   8
M  ISO  3  30   8  31  14  32  14
M  END
>  <minimizedAffinity>  (1) 
-5.05066013

>  <minimizedRMSD>  (1) 
2.8848455

$$$$
