
     RDKit          3D

 31 33  0  0  0  0  0  0  0  0999 V2000
   40.6850   22.8130   36.0980 C   0  0  0  0  0  0  0  0  0  0  0  0
   41.9590   23.1510   36.5150 C   0  0  0  0  0  0  0  0  0  0  0  0
   43.0570   22.7020   35.8220 C   0  0  0  0  0  0  0  0  0  0  0  0
   42.8460   21.9270   34.7330 N   0  0  0  0  0  0  0  0  0  0  0  0
   41.6050   21.5910   34.3160 C   0  0  0  0  0  0  0  0  0  0  0  0
   40.5240   22.0330   34.9970 N   0  0  0  0  0  0  0  0  0  0  0  0
   39.4530   23.2250   36.7430 C   0  0  0  0  0  0  0  0  0  0  0  0
   39.2950   23.1400   38.1250 C   0  0  0  0  0  0  0  0  0  0  0  0
   38.0360   23.5960   38.4570 C   0  0  0  0  0  0  0  0  0  0  0  0
   37.4850   23.9390   37.2470 C   0  0  0  0  0  0  0  0  0  0  0  0
   38.3530   23.7050   36.2670 O   0  0  0  0  0  0  0  0  0  0  0  0
   44.4290   23.0400   36.2360 C   0  0  0  0  0  0  0  0  0  0  0  0
   44.5380   24.3490   36.9310 C   0  0  0  0  0  0  0  0  0  0  0  0
   45.9690   24.7280   37.0830 C   0  0  0  0  0  0  0  0  0  0  0  0
   46.9510   23.7510   36.9850 C   0  0  0  0  0  0  0  0  0  0  0  0
   48.3110   23.9660   37.1050 C   0  0  0  0  0  0  0  0  0  0  0  0
   48.6970   25.2500   37.3400 N   0  0  0  0  0  0  0  0  0  0  0  0
   47.7520   26.2150   37.4400 C   0  0  0  0  0  0  0  0  0  0  0  0
   46.4380   25.9650   37.3160 N   0  0  0  0  0  0  0  0  0  0  0  0
   42.0942   23.7823   37.4056 H   0  0  0  0  0  0  0  0  0  0  0  0
   41.4749   20.9595   33.4248 H   0  0  0  0  0  0  0  0  0  0  0  0
   40.0499   22.7702   38.8344 H   0  0  0  0  0  0  0  0  0  0  0  0
   37.5808   23.6679   39.4558 H   0  0  0  0  0  0  0  0  0  0  0  0
   36.4732   24.3477   37.1085 H   0  0  0  0  0  0  0  0  0  0  0  0
   44.7899   22.2545   36.9163 H   0  0  0  0  0  0  0  0  0  0  0  0
   45.0329   23.1115   35.3194 H   0  0  0  0  0  0  0  0  0  0  0  0
   44.0181   25.1186   36.3415 H   0  0  0  0  0  0  0  0  0  0  0  0
   44.0786   24.2678   37.9272 H   0  0  0  0  0  0  0  0  0  0  0  0
   46.6186   22.7196   36.7960 H   0  0  0  0  0  0  0  0  0  0  0  0
   49.0395   23.1467   37.0157 H   0  0  0  0  0  0  0  0  0  0  0  0
   48.0747   27.2491   37.6312 H   0  0  0  0  0  0  0  0  0  0  0  0
  1  2  2  0
  1  7  1  0
  3 12  1  0
  3  2  1  0
  4  3  2  0
  5  4  1  0
  5  6  2  0
  6  1  1  0
  7  8  2  0
  8  9  1  0
 10  9  2  0
 11  7  1  0
 11 10  1  0
 12 13  1  0
 13 14  1  0
 14 19  1  0
 15 14  2  0
 15 16  1  0
 16 17  2  0
 17 18  1  0
 19 18  2  0
  2 20  1  0
  5 21  1  0
  8 22  1  0
  9 23  1  0
 10 24  1  0
 12 25  1  0
 12 26  1  0
 13 27  1  0
 13 28  1  0
 15 29  1  0
 16 30  1  0
 18 31  1  0
M  ISO  8  20  14  21  14  22  14  23  14  24  14  25   8  26   8  27   8
M  ISO  4  28   8  29  14  30  14  31  14
M  END
>  <minimizedAffinity>  (1) 
-4.26754284

>  <minimizedRMSD>  (1) 
4.45630932

$$$$
