
     RDKit          3D

 35 37  0  0  0  0  0  0  0  0999 V2000
   37.8670   22.2230   35.9010 C   0  0  0  0  0  0  0  0  0  0  0  0
   39.2470   22.1650   36.0180 C   0  0  0  0  0  0  0  0  0  0  0  0
   39.8790   22.6860   37.1210 C   0  0  0  0  0  0  0  0  0  0  0  0
   39.1060   23.2570   38.0870 N   0  0  0  0  0  0  0  0  0  0  0  0
   37.7700   23.3120   37.9730 C   0  0  0  0  0  0  0  0  0  0  0  0
   37.1420   22.8020   36.8930 N   0  0  0  0  0  0  0  0  0  0  0  0
   37.0990   21.7060   34.7860 C   0  0  0  0  0  0  0  0  0  0  0  0
   35.9930   20.8710   35.0010 C   0  0  0  0  0  0  0  0  0  0  0  0
   35.4750   20.5470   33.7550 C   0  0  0  0  0  0  0  0  0  0  0  0
   36.2810   21.1940   32.8540 C   0  0  0  0  0  0  0  0  0  0  0  0
   37.2230   21.8620   33.5180 O   0  0  0  0  0  0  0  0  0  0  0  0
   41.3470   22.6360   37.2660 C   0  0  0  0  0  0  0  0  0  0  0  0
   42.0060   21.7610   36.2620 C   0  0  0  0  0  0  0  0  0  0  0  0
   43.1590   21.0360   36.7270 N   0  0  0  0  0  0  0  0  0  0  0  0
   44.1920   21.0980   35.7070 C   0  0  0  0  0  0  0  0  0  0  0  0
   45.1460   20.0120   36.1480 C   0  0  0  0  0  0  0  0  0  0  0  0
   44.3540   19.1030   37.0480 C   0  0  0  0  0  0  0  0  0  0  0  0
   42.9270   19.6410   36.9290 C   0  0  0  0  0  0  0  0  0  0  0  0
   39.8420   21.6972   35.2198 H   0  0  0  0  0  0  0  0  0  0  0  0
   37.1774   23.7803   38.7727 H   0  0  0  0  0  0  0  0  0  0  0  0
   35.6080   20.5355   35.9753 H   0  0  0  0  0  0  0  0  0  0  0  0
   34.6057   19.9091   33.5373 H   0  0  0  0  0  0  0  0  0  0  0  0
   36.1680   21.1660   31.7602 H   0  0  0  0  0  0  0  0  0  0  0  0
   41.7440   23.6558   37.1549 H   0  0  0  0  0  0  0  0  0  0  0  0
   41.5627   22.2138   38.2586 H   0  0  0  0  0  0  0  0  0  0  0  0
   42.3215   22.3926   35.4185 H   0  0  0  0  0  0  0  0  0  0  0  0
   41.2603   20.9982   35.9936 H   0  0  0  0  0  0  0  0  0  0  0  0
   44.6846   22.0815   35.6982 H   0  0  0  0  0  0  0  0  0  0  0  0
   43.8102   20.9603   34.6846 H   0  0  0  0  0  0  0  0  0  0  0  0
   45.5202   19.4551   35.2763 H   0  0  0  0  0  0  0  0  0  0  0  0
   46.0202   20.4310   36.6678 H   0  0  0  0  0  0  0  0  0  0  0  0
   44.4114   18.0601   36.7030 H   0  0  0  0  0  0  0  0  0  0  0  0
   44.7247   19.0949   38.0836 H   0  0  0  0  0  0  0  0  0  0  0  0
   42.3520   19.4593   37.8490 H   0  0  0  0  0  0  0  0  0  0  0  0
   42.3361   19.1667   36.1316 H   0  0  0  0  0  0  0  0  0  0  0  0
  1  2  2  0
  1  6  1  0
  2  3  1  0
  3 12  1  0
  3  4  2  0
  5  4  1  0
  6  5  2  0
  7  8  2  0
  7  1  1  0
  9  8  1  0
 10 11  1  0
 10  9  2  0
 11  7  1  0
 13 14  1  0
 13 12  1  0
 14 18  1  0
 15 16  1  0
 15 14  1  0
 16 17  1  0
 18 17  1  0
  2 19  1  0
  5 20  1  0
  8 21  1  0
  9 22  1  0
 10 23  1  0
 12 24  1  0
 12 25  1  0
 13 26  1  0
 13 27  1  0
 15 28  1  0
 15 29  1  0
 16 30  1  0
 16 31  1  0
 17 32  1  0
 17 33  1  0
 18 34  1  0
 18 35  1  0
M  ISO  8  19  14  20  14  21  14  22  14  23  14  24   8  25   8  26   8
M  ISO  8  27   8  28  13  29  13  30  13  31  13  32  13  33  13  34  13
M  ISO  1  35  13
M  END
>  <minimizedAffinity>  (1) 
-4.29838419

>  <minimizedRMSD>  (1) 
0.847125769

$$$$
