
     RDKit          3D

 33 35  0  0  0  0  0  0  0  0999 V2000
   37.8710   22.2240   35.9350 C   0  0  0  0  0  0  0  0  0  0  0  0
   39.2530   22.2050   36.0540 C   0  0  0  0  0  0  0  0  0  0  0  0
   39.8710   22.7510   37.1660 C   0  0  0  0  0  0  0  0  0  0  0  0
   39.0780   23.2980   38.1200 N   0  0  0  0  0  0  0  0  0  0  0  0
   37.7410   23.3170   38.0070 C   0  0  0  0  0  0  0  0  0  0  0  0
   37.1230   22.7900   36.9320 N   0  0  0  0  0  0  0  0  0  0  0  0
   37.1070   21.6910   34.8280 C   0  0  0  0  0  0  0  0  0  0  0  0
   36.0050   20.8750   35.0210 C   0  0  0  0  0  0  0  0  0  0  0  0
   35.5040   20.5380   33.7800 C   0  0  0  0  0  0  0  0  0  0  0  0
   36.3150   21.1560   32.8890 C   0  0  0  0  0  0  0  0  0  0  0  0
   37.2520   21.8290   33.5480 O   0  0  0  0  0  0  0  0  0  0  0  0
   41.3440   22.7220   37.2760 C   0  0  0  0  0  0  0  0  0  0  0  0
   42.0240   22.2700   36.0340 C   0  0  0  0  0  0  0  0  0  0  0  0
   42.5260   20.9290   36.0570 N   0  0  0  0  0  0  0  0  0  0  0  0
   42.7880   20.1810   37.1440 C   0  0  0  0  0  0  0  0  0  0  0  0
   43.2750   18.8870   36.9870 C   0  0  0  0  0  0  0  0  0  0  0  0
   43.4940   18.3560   35.7100 C   0  0  0  0  0  0  0  0  0  0  0  0
   43.9430   17.1640   35.6170 O   0  0  0  0  0  0  0  0  0  0  0  0
   43.2170   19.1440   34.6590 N   0  0  0  0  0  0  0  0  0  0  0  0
   42.7470   20.3920   34.8280 C   0  0  0  0  0  0  0  0  0  0  0  0
   42.5330   21.0130   33.7620 O   0  0  0  0  0  0  0  0  0  0  0  0
   39.8628   21.7524   35.2582 H   0  0  0  0  0  0  0  0  0  0  0  0
   37.1382   23.7714   38.8071 H   0  0  0  0  0  0  0  0  0  0  0  0
   35.6005   20.5525   35.9917 H   0  0  0  0  0  0  0  0  0  0  0  0
   34.6325   19.9033   33.5615 H   0  0  0  0  0  0  0  0  0  0  0  0
   36.2142   21.1084   31.7947 H   0  0  0  0  0  0  0  0  0  0  0  0
   41.6950   23.7367   37.5153 H   0  0  0  0  0  0  0  0  0  0  0  0
   41.5947   21.9963   38.0638 H   0  0  0  0  0  0  0  0  0  0  0  0
   42.8717   22.9456   35.8471 H   0  0  0  0  0  0  0  0  0  0  0  0
   41.2568   22.2909   35.2460 H   0  0  0  0  0  0  0  0  0  0  0  0
   42.6183   20.5899   38.1510 H   0  0  0  0  0  0  0  0  0  0  0  0
   43.4902   18.2749   37.8753 H   0  0  0  0  0  0  0  0  0  0  0  0
   43.3674   18.7856   33.7052 H   0  0  0  0  0  0  0  0  0  0  0  0
  1  2  2  0
  1  6  1  0
  2  3  1  0
  3 12  1  0
  3  4  2  0
  5  4  1  0
  6  5  2  0
  7  8  2  0
  7  1  1  0
  9  8  1  0
 10 11  1  0
 10  9  2  0
 11  7  1  0
 13 14  1  0
 13 12  1  0
 14 15  1  0
 16 15  2  0
 17 16  1  0
 18 17  2  0
 19 20  1  0
 19 17  1  0
 20 14  1  0
 21 20  2  0
  2 22  1  0
  5 23  1  0
  8 24  1  0
  9 25  1  0
 10 26  1  0
 12 27  1  0
 12 28  1  0
 13 29  1  0
 13 30  1  0
 15 31  1  0
 16 32  1  0
 19 33  1  0
M  ISO  8  22  14  23  14  24  14  25  14  26  14  27   8  28   8  29   8
M  ISO  4  30   8  31  14  32  14  33   9
M  END
>  <minimizedAffinity>  (1) 
-4.46021509

>  <minimizedRMSD>  (1) 
2.9127872

$$$$
