
     RDKit          3D

 33 35  0  0  0  0  0  0  0  0999 V2000
   37.8430   22.2450   35.9630 C   0  0  0  0  0  0  0  0  0  0  0  0
   39.2200   22.1780   36.1070 C   0  0  0  0  0  0  0  0  0  0  0  0
   39.8400   22.6970   37.2220 C   0  0  0  0  0  0  0  0  0  0  0  0
   39.0370   23.2720   38.1650 N   0  0  0  0  0  0  0  0  0  0  0  0
   37.7070   23.3360   38.0230 C   0  0  0  0  0  0  0  0  0  0  0  0
   37.1010   22.8280   36.9310 N   0  0  0  0  0  0  0  0  0  0  0  0
   37.0940   21.7330   34.8360 C   0  0  0  0  0  0  0  0  0  0  0  0
   36.0050   20.8810   34.9960 C   0  0  0  0  0  0  0  0  0  0  0  0
   35.4950   20.5620   33.7650 C   0  0  0  0  0  0  0  0  0  0  0  0
   36.3010   21.2370   32.8830 C   0  0  0  0  0  0  0  0  0  0  0  0
   37.2140   21.9030   33.5660 O   0  0  0  0  0  0  0  0  0  0  0  0
   41.2880   22.6380   37.3980 C   0  0  0  0  0  0  0  0  0  0  0  0
   42.0400   22.3460   36.1520 C   0  0  0  0  0  0  0  0  0  0  0  0
   42.5750   20.9890   36.0440 C   0  0  0  0  0  0  0  0  0  0  0  0
   42.8910   20.3870   34.8420 C   0  0  0  0  0  0  0  0  0  0  0  0
   43.3950   19.1270   34.6400 C   0  0  0  0  0  0  0  0  0  0  0  0
   43.6000   18.3920   35.8100 C   0  0  0  0  0  0  0  0  0  0  0  0
   43.3190   18.8950   37.0540 C   0  0  0  0  0  0  0  0  0  0  0  0
   42.8120   20.1820   37.1490 C   0  0  0  0  0  0  0  0  0  0  0  0
   39.8256   21.7041   35.3204 H   0  0  0  0  0  0  0  0  0  0  0  0
   37.1001   23.8099   38.8086 H   0  0  0  0  0  0  0  0  0  0  0  0
   35.6151   20.5205   35.9593 H   0  0  0  0  0  0  0  0  0  0  0  0
   34.6364   19.9136   33.5362 H   0  0  0  0  0  0  0  0  0  0  0  0
   36.2027   21.2252   31.7875 H   0  0  0  0  0  0  0  0  0  0  0  0
   41.6283   23.6090   37.7870 H   0  0  0  0  0  0  0  0  0  0  0  0
   41.4891   21.8077   38.0910 H   0  0  0  0  0  0  0  0  0  0  0  0
   41.3635   22.5126   35.3007 H   0  0  0  0  0  0  0  0  0  0  0  0
   42.9128   23.0154   36.1616 H   0  0  0  0  0  0  0  0  0  0  0  0
   42.7179   20.9898   33.9383 H   0  0  0  0  0  0  0  0  0  0  0  0
   43.6191   18.7286   33.6395 H   0  0  0  0  0  0  0  0  0  0  0  0
   44.0020   17.3712   35.7302 H   0  0  0  0  0  0  0  0  0  0  0  0
   43.4919   18.2909   37.9568 H   0  0  0  0  0  0  0  0  0  0  0  0
   42.5866   20.5833   38.1481 H   0  0  0  0  0  0  0  0  0  0  0  0
  1  2  2  0
  1  6  1  0
  2  3  1  0
  3 12  1  0
  3  4  2  0
  5  4  1  0
  6  5  2  0
  7  8  2  0
  7  1  1  0
  9  8  1  0
 10 11  1  0
 10  9  2  0
 11  7  1  0
 13 12  1  0
 14 13  1  0
 14 19  1  0
 15 14  2  0
 16 15  1  0
 16 17  2  0
 17 18  1  0
 18 19  2  0
  2 20  1  0
  5 21  1  0
  8 22  1  0
  9 23  1  0
 10 24  1  0
 12 25  1  0
 12 26  1  0
 13 27  1  0
 13 28  1  0
 15 29  1  0
 16 30  1  0
 17 31  1  0
 18 32  1  0
 19 33  1  0
M  ISO  8  20  14  21  14  22  14  23  14  24  14  25   8  26   8  27   8
M  ISO  6  28   8  29  14  30  14  31  14  32  14  33  14
M  END
>  <minimizedAffinity>  (1) 
-4.5345149

>  <minimizedRMSD>  (1) 
2.51019788

$$$$
