
     RDKit          3D

 29 31  0  0  0  0  0  0  0  0999 V2000
   37.9130   22.2680   36.0870 C   0  0  0  0  0  0  0  0  0  0  0  0
   39.2870   22.1280   36.2410 C   0  0  0  0  0  0  0  0  0  0  0  0
   39.9260   22.6480   37.3550 C   0  0  0  0  0  0  0  0  0  0  0  0
   39.1490   23.2920   38.2710 N   0  0  0  0  0  0  0  0  0  0  0  0
   37.8210   23.4240   38.1170 C   0  0  0  0  0  0  0  0  0  0  0  0
   37.1880   22.9260   37.0430 N   0  0  0  0  0  0  0  0  0  0  0  0
   37.1380   21.7670   34.9660 C   0  0  0  0  0  0  0  0  0  0  0  0
   36.0550   20.9120   35.1550 C   0  0  0  0  0  0  0  0  0  0  0  0
   35.5430   20.6270   33.8980 C   0  0  0  0  0  0  0  0  0  0  0  0
   36.3220   21.3050   33.0240 C   0  0  0  0  0  0  0  0  0  0  0  0
   37.2540   21.9680   33.6920 O   0  0  0  0  0  0  0  0  0  0  0  0
   41.3740   22.5020   37.5240 C   0  0  0  0  0  0  0  0  0  0  0  0
   42.0990   22.4080   36.2090 C   0  0  0  0  0  0  0  0  0  0  0  0
   42.9130   23.6550   35.9760 C   0  0  0  0  0  0  0  0  0  0  0  0
   44.1600   23.8860   36.6100 C   0  0  0  0  0  0  0  0  0  0  0  0
   44.6400   25.5060   35.9470 S   0  0  0  0  0  0  0  0  0  0  0  0
   43.0710   25.6130   34.9140 C   0  0  0  0  0  0  0  0  0  0  0  0
   42.5000   24.6070   35.1570 N   0  0  0  0  0  0  0  0  0  0  0  0
   39.8716   21.6005   35.4729 H   0  0  0  0  0  0  0  0  0  0  0  0
   37.2397   23.9515   38.8876 H   0  0  0  0  0  0  0  0  0  0  0  0
   35.6779   20.5349   36.1171 H   0  0  0  0  0  0  0  0  0  0  0  0
   34.6828   19.9837   33.6610 H   0  0  0  0  0  0  0  0  0  0  0  0
   36.2005   21.3056   31.9307 H   0  0  0  0  0  0  0  0  0  0  0  0
   41.7549   23.3741   38.0757 H   0  0  0  0  0  0  0  0  0  0  0  0
   41.5546   21.5665   38.0738 H   0  0  0  0  0  0  0  0  0  0  0  0
   42.7675   21.5346   36.2238 H   0  0  0  0  0  0  0  0  0  0  0  0
   41.3627   22.3021   35.3987 H   0  0  0  0  0  0  0  0  0  0  0  0
   44.6998   23.2456   37.3231 H   0  0  0  0  0  0  0  0  0  0  0  0
   42.7577   26.4239   34.2400 H   0  0  0  0  0  0  0  0  0  0  0  0
  1  2  2  0
  1  6  1  0
  2  3  1  0
  3 12  1  0
  3  4  2  0
  5  4  1  0
  6  5  2  0
  7  8  2  0
  7  1  1  0
  9  8  1  0
 10 11  1  0
 10  9  2  0
 11  7  1  0
 13 12  1  0
 14 13  1  0
 14 15  2  0
 16 15  1  0
 17 18  2  0
 17 16  1  0
 18 14  1  0
  2 19  1  0
  5 20  1  0
  8 21  1  0
  9 22  1  0
 10 23  1  0
 12 24  1  0
 12 25  1  0
 13 26  1  0
 13 27  1  0
 15 28  1  0
 17 29  1  0
M  ISO  8  19  14  20  14  21  14  22  14  23  14  24   8  25   8  26   8
M  ISO  3  27   8  28  14  29  14
M  END
>  <minimizedAffinity>  (1) 
-4.46807098

>  <minimizedRMSD>  (1) 
3.6897068

$$$$
