
     RDKit          3D

 30 32  0  0  0  0  0  0  0  0999 V2000
   37.8930   22.2750   36.0190 C   0  0  0  0  0  0  0  0  0  0  0  0
   39.2770   22.1400   36.1710 C   0  0  0  0  0  0  0  0  0  0  0  0
   39.9120   22.6390   37.2880 C   0  0  0  0  0  0  0  0  0  0  0  0
   39.1500   23.2540   38.2170 N   0  0  0  0  0  0  0  0  0  0  0  0
   37.8100   23.3870   38.0750 C   0  0  0  0  0  0  0  0  0  0  0  0
   37.1800   22.9030   36.9860 N   0  0  0  0  0  0  0  0  0  0  0  0
   37.1330   21.7900   34.8910 C   0  0  0  0  0  0  0  0  0  0  0  0
   36.0690   20.9070   35.0590 C   0  0  0  0  0  0  0  0  0  0  0  0
   35.5370   20.6210   33.8250 C   0  0  0  0  0  0  0  0  0  0  0  0
   36.2960   21.3340   32.9570 C   0  0  0  0  0  0  0  0  0  0  0  0
   37.2240   22.0090   33.6280 O   0  0  0  0  0  0  0  0  0  0  0  0
   41.3610   22.5090   37.4680 C   0  0  0  0  0  0  0  0  0  0  0  0
   42.1110   22.3840   36.1720 C   0  0  0  0  0  0  0  0  0  0  0  0
   42.8430   23.6370   35.9730 N   0  0  0  0  0  0  0  0  0  0  0  0
   43.9330   24.0430   36.6860 C   0  0  0  0  0  0  0  0  0  0  0  0
   44.3550   25.2890   36.2100 C   0  0  0  0  0  0  0  0  0  0  0  0
   43.4890   25.5990   35.2060 N   0  0  0  0  0  0  0  0  0  0  0  0
   42.5850   24.6080   35.0660 C   0  0  0  0  0  0  0  0  0  0  0  0
   39.8638   21.6311   35.3921 H   0  0  0  0  0  0  0  0  0  0  0  0
   37.2285   23.8961   38.8577 H   0  0  0  0  0  0  0  0  0  0  0  0
   35.7138   20.5055   36.0196 H   0  0  0  0  0  0  0  0  0  0  0  0
   34.6871   19.9622   33.5935 H   0  0  0  0  0  0  0  0  0  0  0  0
   36.1642   21.3513   31.8651 H   0  0  0  0  0  0  0  0  0  0  0  0
   41.7282   23.3992   37.9997 H   0  0  0  0  0  0  0  0  0  0  0  0
   41.5374   21.5846   38.0375 H   0  0  0  0  0  0  0  0  0  0  0  0
   42.8150   21.5403   36.2237 H   0  0  0  0  0  0  0  0  0  0  0  0
   41.4195   22.1987   35.3368 H   0  0  0  0  0  0  0  0  0  0  0  0
   44.4049   23.4802   37.5049 H   0  0  0  0  0  0  0  0  0  0  0  0
   45.2038   25.8892   36.5695 H   0  0  0  0  0  0  0  0  0  0  0  0
   41.7670   24.5914   34.3307 H   0  0  0  0  0  0  0  0  0  0  0  0
  1  2  2  0
  1  6  1  0
  2  3  1  0
  3 12  1  0
  3  4  2  0
  5  4  1  0
  6  5  2  0
  7  8  2  0
  7  1  1  0
  9  8  1  0
 10 11  1  0
 10  9  2  0
 11  7  1  0
 13 12  1  0
 14 13  1  0
 14 15  1  0
 16 15  2  0
 17 16  1  0
 18 17  2  0
 18 14  1  0
  2 19  1  0
  5 20  1  0
  8 21  1  0
  9 22  1  0
 10 23  1  0
 12 24  1  0
 12 25  1  0
 13 26  1  0
 13 27  1  0
 15 28  1  0
 16 29  1  0
 18 30  1  0
M  ISO  8  19  14  20  14  21  14  22  14  23  14  24   8  25   8  26   8
M  ISO  4  27   8  28  14  29  14  30  14
M  END
>  <minimizedAffinity>  (1) 
-4.42663145

>  <minimizedRMSD>  (1) 
2.14920092

$$$$
