
     RDKit          3D

 30 32  0  0  0  0  0  0  0  0999 V2000
   36.7140   24.5360   32.0610 C   0  0  0  0  0  0  0  0  0  0  0  0
   37.8840   25.1170   32.5390 C   0  0  0  0  0  0  0  0  0  0  0  0
   38.0520   26.4870   32.4670 C   0  0  0  0  0  0  0  0  0  0  0  0
   37.0510   27.2170   31.9230 N   0  0  0  0  0  0  0  0  0  0  0  0
   35.9210   26.6560   31.4610 C   0  0  0  0  0  0  0  0  0  0  0  0
   35.7400   25.3190   31.5240 N   0  0  0  0  0  0  0  0  0  0  0  0
   36.4150   23.1180   32.0780 C   0  0  0  0  0  0  0  0  0  0  0  0
   35.5890   22.5240   31.1400 C   0  0  0  0  0  0  0  0  0  0  0  0
   35.5010   21.1770   31.4190 C   0  0  0  0  0  0  0  0  0  0  0  0
   36.2830   21.0110   32.5240 C   0  0  0  0  0  0  0  0  0  0  0  0
   36.7950   22.1720   32.8710 O   0  0  0  0  0  0  0  0  0  0  0  0
   39.2710   27.1330   32.9610 C   0  0  0  0  0  0  0  0  0  0  0  0
   39.4990   26.9360   34.4330 C   0  0  0  0  0  0  0  0  0  0  0  0
   40.6790   26.0980   34.7210 C   0  0  0  0  0  0  0  0  0  0  0  0
   40.7410   24.7570   35.0270 C   0  0  0  0  0  0  0  0  0  0  0  0
   42.0580   24.4570   35.2060 N   0  0  0  0  0  0  0  0  0  0  0  0
   42.7500   25.5950   35.0090 C   0  0  0  0  0  0  0  0  0  0  0  0
   41.9240   26.6270   34.7070 N   0  0  0  0  0  0  0  0  0  0  0  0
   38.6742   24.4871   32.9736 H   0  0  0  0  0  0  0  0  0  0  0  0
   35.1353   27.2920   31.0271 H   0  0  0  0  0  0  0  0  0  0  0  0
   35.0861   23.0410   30.3095 H   0  0  0  0  0  0  0  0  0  0  0  0
   34.9301   20.4105   30.8744 H   0  0  0  0  0  0  0  0  0  0  0  0
   36.4579   20.0571   33.0430 H   0  0  0  0  0  0  0  0  0  0  0  0
   40.1311   26.7162   32.4165 H   0  0  0  0  0  0  0  0  0  0  0  0
   39.1553   28.2139   32.7932 H   0  0  0  0  0  0  0  0  0  0  0  0
   39.6444   27.9207   34.9012 H   0  0  0  0  0  0  0  0  0  0  0  0
   38.6175   26.4179   34.8386 H   0  0  0  0  0  0  0  0  0  0  0  0
   39.8920   24.0626   35.1107 H   0  0  0  0  0  0  0  0  0  0  0  0
   43.8444   25.6770   35.0835 H   0  0  0  0  0  0  0  0  0  0  0  0
   42.1875   27.6029   34.5096 H   0  0  0  0  0  0  0  0  0  0  0  0
  1  7  1  0
  1  2  2  0
  3  2  1  0
  3 12  1  0
  4  3  2  0
  5  6  2  0
  5  4  1  0
  6  1  1  0
  7 11  1  0
  8  9  1  0
  8  7  2  0
  9 10  2  0
 10 11  1  0
 12 13  1  0
 13 14  1  0
 14 15  2  0
 15 16  1  0
 17 16  2  0
 18 14  1  0
 18 17  1  0
  2 19  1  0
  5 20  1  0
  8 21  1  0
  9 22  1  0
 10 23  1  0
 12 24  1  0
 12 25  1  0
 13 26  1  0
 13 27  1  0
 15 28  1  0
 17 29  1  0
 18 30  1  0
M  ISO  8  19  14  20  14  21  14  22  14  23  14  24   8  25   8  26   8
M  ISO  4  27   8  28  14  29  14  30   9
M  END
>  <minimizedAffinity>  (1) 
-4.18439484

>  <minimizedRMSD>  (1) 
5.91547489

$$$$
