
     RDKit          3D

 29 31  0  0  0  0  0  0  0  0999 V2000
   37.6460   25.5290   33.3960 C   0  0  0  0  0  0  0  0  0  0  0  0
   38.5790   24.6540   33.9410 C   0  0  0  0  0  0  0  0  0  0  0  0
   39.4710   25.0800   34.8980 C   0  0  0  0  0  0  0  0  0  0  0  0
   39.3940   26.3880   35.2810 N   0  0  0  0  0  0  0  0  0  0  0  0
   38.4920   27.2300   34.7530 C   0  0  0  0  0  0  0  0  0  0  0  0
   37.6150   26.8190   33.8150 N   0  0  0  0  0  0  0  0  0  0  0  0
   36.6620   25.1900   32.3840 C   0  0  0  0  0  0  0  0  0  0  0  0
   35.9800   26.1630   31.6640 C   0  0  0  0  0  0  0  0  0  0  0  0
   35.1240   25.5360   30.7900 C   0  0  0  0  0  0  0  0  0  0  0  0
   35.3200   24.2050   31.0130 C   0  0  0  0  0  0  0  0  0  0  0  0
   36.2360   24.0370   31.9620 O   0  0  0  0  0  0  0  0  0  0  0  0
   40.4610   24.1730   35.4840 C   0  0  0  0  0  0  0  0  0  0  0  0
   39.8660   22.8530   35.8920 C   0  0  0  0  0  0  0  0  0  0  0  0
   40.9450   21.9960   36.3460 N   0  0  0  0  0  0  0  0  0  0  0  0
   41.2870   21.5530   37.5590 C   0  0  0  0  0  0  0  0  0  0  0  0
   42.3880   20.7660   37.4760 N   0  0  0  0  0  0  0  0  0  0  0  0
   42.7160   20.7370   36.1830 C   0  0  0  0  0  0  0  0  0  0  0  0
   41.8380   21.4870   35.4830 N   0  0  0  0  0  0  0  0  0  0  0  0
   38.6043   23.6076   33.6027 H   0  0  0  0  0  0  0  0  0  0  0  0
   38.4678   28.2761   35.0922 H   0  0  0  0  0  0  0  0  0  0  0  0
   36.1039   27.2504   31.7745 H   0  0  0  0  0  0  0  0  0  0  0  0
   34.4349   26.0035   30.0713 H   0  0  0  0  0  0  0  0  0  0  0  0
   34.7984   23.3921   30.4866 H   0  0  0  0  0  0  0  0  0  0  0  0
   41.2523   23.9886   34.7425 H   0  0  0  0  0  0  0  0  0  0  0  0
   40.8582   24.6538   36.3901 H   0  0  0  0  0  0  0  0  0  0  0  0
   39.1425   23.0055   36.7064 H   0  0  0  0  0  0  0  0  0  0  0  0
   39.3427   22.3907   35.0420 H   0  0  0  0  0  0  0  0  0  0  0  0
   40.7527   21.7921   38.4903 H   0  0  0  0  0  0  0  0  0  0  0  0
   43.5678   20.1884   35.7546 H   0  0  0  0  0  0  0  0  0  0  0  0
  1  6  1  0
  1  2  2  0
  2  3  1  0
  3  4  2  0
  3 12  1  0
  5  4  1  0
  6  5  2  0
  7  1  1  0
  8  7  2  0
  9 10  2  0
  9  8  1  0
 10 11  1  0
 11  7  1  0
 12 13  1  0
 13 14  1  0
 14 15  1  0
 16 15  2  0
 17 16  1  0
 18 17  2  0
 18 14  1  0
  2 19  1  0
  5 20  1  0
  8 21  1  0
  9 22  1  0
 10 23  1  0
 12 24  1  0
 12 25  1  0
 13 26  1  0
 13 27  1  0
 15 28  1  0
 17 29  1  0
M  ISO  8  19  14  20  14  21  14  22  14  23  14  24   8  25   8  26   8
M  ISO  3  27   8  28  14  29  14
M  END
>  <minimizedAffinity>  (1) 
-3.85665941

>  <minimizedRMSD>  (1) 
4.07574892

$$$$
