
     RDKit          3D

 34 35  0  0  1  0  0  0  0  0999 V2000
   39.4450   23.8080   36.0900 N   0  0  0  0  0  0  0  0  0  0  0  0
   40.2840   22.8710   35.3130 C   0  0  0  0  0  0  0  0  0  0  0  0
   41.2660   22.4060   36.3600 C   0  0  0  0  0  0  0  0  0  0  0  0
   40.5410   22.5860   37.7060 C   0  0  0  0  0  0  0  0  0  0  0  0
   39.1420   22.9490   37.2030 C   0  0  1  0  0  0  0  0  0  0  0  0
   38.4420   23.6400   38.3390 C   0  0  0  0  0  0  0  0  0  0  0  0
   39.1900   23.7940   39.4660 F   0  0  0  0  0  0  0  0  0  0  0  0
   37.2400   23.0010   38.5580 F   0  0  0  0  0  0  0  0  0  0  0  0
   38.1060   24.9360   37.9270 F   0  0  0  0  0  0  0  0  0  0  0  0
   38.2640   24.1320   35.3240 C   0  0  0  0  0  0  0  0  0  0  0  0
   38.5930   24.5560   33.9390 C   0  0  0  0  0  0  0  0  0  0  0  0
   36.4550   22.1440   32.0370 C   0  0  0  0  0  0  0  0  0  0  0  0
   37.4220   22.7100   32.8760 C   0  0  0  0  0  0  0  0  0  0  0  0
   37.5450   24.0530   33.0290 C   0  0  0  0  0  0  0  0  0  0  0  0
   36.6890   24.8430   32.3300 N   0  0  0  0  0  0  0  0  0  0  0  0
   35.7540   24.3160   31.5180 C   0  0  0  0  0  0  0  0  0  0  0  0
   35.6270   23.0120   31.3640 N   0  0  0  0  0  0  0  0  0  0  0  0
   34.8400   25.2280   30.7740 C   0  0  0  0  0  0  0  0  0  0  0  0
   39.6906   22.0330   34.9185 H   0  0  0  0  0  0  0  0  0  0  0  0
   40.7541   23.3205   34.4259 H   0  0  0  0  0  0  0  0  0  0  0  0
   41.5268   21.3492   36.2012 H   0  0  0  0  0  0  0  0  0  0  0  0
   42.2064   22.9753   36.3216 H   0  0  0  0  0  0  0  0  0  0  0  0
   40.5355   21.6570   38.2949 H   0  0  0  0  0  0  0  0  0  0  0  0
   40.9966   23.3222   38.3846 H   0  0  0  0  0  0  0  0  0  0  0  0
   38.4811   22.1267   36.8913 H   0  0  0  0  0  0  0  0  0  0  0  0
   37.6166   23.2439   35.2783 H   0  0  0  0  0  0  0  0  0  0  0  0
   37.7573   24.9712   35.8230 H   0  0  0  0  0  0  0  0  0  0  0  0
   38.6323   25.6541   33.8874 H   0  0  0  0  0  0  0  0  0  0  0  0
   39.5718   24.1494   33.6449 H   0  0  0  0  0  0  0  0  0  0  0  0
   36.3615   21.0541   31.9211 H   0  0  0  0  0  0  0  0  0  0  0  0
   38.1032   22.0459   33.4283 H   0  0  0  0  0  0  0  0  0  0  0  0
   34.2486   25.8181   31.4895 H   0  0  0  0  0  0  0  0  0  0  0  0
   35.4328   25.9053   30.1416 H   0  0  0  0  0  0  0  0  0  0  0  0
   34.1640   24.6338   30.1416 H   0  0  0  0  0  0  0  0  0  0  0  0
  1  5  1  0
  2  1  1  0
  2  3  1  0
  3  4  1  0
  5  4  1  0
  5  6  1  0
  6  8  1  0
  6  7  1  0
  9  6  1  0
 10  1  1  0
 11 10  1  0
 12 13  2  0
 13 14  1  0
 14 11  1  0
 15 14  2  0
 16 15  1  0
 17 16  2  0
 17 12  1  0
 18 16  1  0
  2 19  1  0
  2 20  1  0
  3 21  1  0
  3 22  1  0
  4 23  1  0
  4 24  1  0
  5 25  1  6
 10 26  1  0
 10 27  1  0
 11 28  1  0
 11 29  1  0
 12 30  1  0
 13 31  1  0
 18 32  1  0
 18 33  1  0
 18 34  1  0
M  ISO  8  19  13  20  13  21  13  22  13  23  13  24  13  25  13  26   8
M  ISO  8  27   8  28   8  29   8  30  14  31  14  32   8  33   8  34   8
M  END
>  <minimizedAffinity>  (1) 
-5.18043137

>  <minimizedRMSD>  (1) 
0.557559013

$$$$
