
     RDKit          3D

 37 38  0  0  1  0  0  0  0  0999 V2000
   37.9890   24.8200   35.7680 C   0  0  0  0  0  0  0  0  0  0  0  0
   39.1890   24.2560   36.3270 N   0  0  0  0  0  0  0  0  0  0  0  0
   39.8770   23.4680   35.2830 C   0  0  0  0  0  0  0  0  0  0  0  0
   40.8870   22.6970   36.0950 C   0  0  0  0  0  0  0  0  0  0  0  0
   40.2970   22.6360   37.5140 C   0  0  0  0  0  0  0  0  0  0  0  0
   38.9040   23.1910   37.2490 C   0  0  1  0  0  0  0  0  0  0  0  0
   38.3760   23.6630   38.5760 C   0  0  0  0  0  0  0  0  0  0  0  0
   39.2830   23.7570   39.5700 F   0  0  0  0  0  0  0  0  0  0  0  0
   37.3030   22.8410   38.9140 F   0  0  0  0  0  0  0  0  0  0  0  0
   37.8340   24.9310   38.4150 F   0  0  0  0  0  0  0  0  0  0  0  0
   38.1260   26.2590   35.4470 C   0  0  0  0  0  0  0  0  0  0  0  0
   39.0670   27.1460   31.9320 C   0  0  0  0  0  0  0  0  0  0  0  0
   39.0700   26.9310   33.3240 C   0  0  0  0  0  0  0  0  0  0  0  0
   37.9920   26.4460   33.9930 C   0  0  0  0  0  0  0  0  0  0  0  0
   36.8740   26.1660   33.2570 N   0  0  0  0  0  0  0  0  0  0  0  0
   36.8590   26.3680   31.9260 C   0  0  0  0  0  0  0  0  0  0  0  0
   37.9060   26.8380   31.2770 N   0  0  0  0  0  0  0  0  0  0  0  0
   35.6060   26.0440   31.1700 C   0  0  0  0  0  0  0  0  0  0  0  0
   35.3160   24.5820   31.1540 C   0  0  0  0  0  0  0  0  0  0  0  0
   37.7423   24.2759   34.8444 H   0  0  0  0  0  0  0  0  0  0  0  0
   37.1951   24.7236   36.5233 H   0  0  0  0  0  0  0  0  0  0  0  0
   40.3690   24.1210   34.5471 H   0  0  0  0  0  0  0  0  0  0  0  0
   39.2043   22.8324   34.6884 H   0  0  0  0  0  0  0  0  0  0  0  0
   41.0180   21.6838   35.6873 H   0  0  0  0  0  0  0  0  0  0  0  0
   41.8782   23.1738   36.0807 H   0  0  0  0  0  0  0  0  0  0  0  0
   40.2593   21.6051   37.8958 H   0  0  0  0  0  0  0  0  0  0  0  0
   40.8731   23.1791   38.2776 H   0  0  0  0  0  0  0  0  0  0  0  0
   38.1479   22.5061   36.8376 H   0  0  0  0  0  0  0  0  0  0  0  0
   37.3398   26.8279   35.9650 H   0  0  0  0  0  0  0  0  0  0  0  0
   39.1120   26.6186   35.7763 H   0  0  0  0  0  0  0  0  0  0  0  0
   39.9473   27.5389   31.4021 H   0  0  0  0  0  0  0  0  0  0  0  0
   39.9822   27.1653   33.8923 H   0  0  0  0  0  0  0  0  0  0  0  0
   34.7620   26.5667   31.6438 H   0  0  0  0  0  0  0  0  0  0  0  0
   35.7477   26.3700   30.1290 H   0  0  0  0  0  0  0  0  0  0  0  0
   35.2425   24.2114   32.1871 H   0  0  0  0  0  0  0  0  0  0  0  0
   34.3648   24.4026   30.6315 H   0  0  0  0  0  0  0  0  0  0  0  0
   36.1267   24.0531   30.6315 H   0  0  0  0  0  0  0  0  0  0  0  0
  1  2  1  0
  2  6  1  0
  3  4  1  0
  3  2  1  0
  4  5  1  0
  6  5  1  0
  6  7  1  0
  7  9  1  0
  7  8  1  0
 10  7  1  0
 11  1  1  0
 12 13  2  0
 13 14  1  0
 14 11  1  0
 15 14  2  0
 16 15  1  0
 17 16  2  0
 17 12  1  0
 18 16  1  0
 19 18  1  0
  1 20  1  0
  1 21  1  0
  3 22  1  0
  3 23  1  0
  4 24  1  0
  4 25  1  0
  5 26  1  0
  5 27  1  0
  6 28  1  6
 11 29  1  0
 11 30  1  0
 12 31  1  0
 13 32  1  0
 18 33  1  0
 18 34  1  0
 19 35  1  0
 19 36  1  0
 19 37  1  0
M  ISO  8  20   8  21   8  22  13  23  13  24  13  25  13  26  13  27  13
M  ISO  8  28  13  29   8  30   8  31  14  32  14  33   8  34   8  35   8
M  ISO  2  36   8  37   8
M  END
>  <minimizedAffinity>  (1) 
-5.17560387

>  <minimizedRMSD>  (1) 
1.91467237

$$$$
