
     RDKit          3D

 44 48  0  0  0  0  0  0  0  0999 V2000
   42.3920   23.1310   36.0900 C   0  0  0  0  0  0  0  0  0  0  0  0
   43.7250   23.7280   36.4280 C   0  0  0  0  0  0  0  0  0  0  0  0
   43.9110   24.7490   37.2680 C   0  0  0  0  0  0  0  0  0  0  0  0
   45.0970   25.2670   37.5640 C   0  0  0  0  0  0  0  0  0  0  0  0
   46.2300   24.6100   36.8700 C   0  0  0  0  0  0  0  0  0  0  0  0
   45.3570   23.3000   35.8680 S   0  0  0  0  0  0  0  0  0  0  0  0
   47.6190   24.8120   36.8730 N   0  0  0  0  0  0  0  0  0  0  0  0
   48.3660   25.3070   35.8910 C   0  0  0  0  0  0  0  0  0  0  0  0
   49.6480   25.3310   36.3120 N   0  0  0  0  0  0  0  0  0  0  0  0
   49.6780   24.8370   37.5780 C   0  0  0  0  0  0  0  0  0  0  0  0
   50.7530   24.6590   38.4310 C   0  0  0  0  0  0  0  0  0  0  0  0
   51.9310   24.9590   38.1100 O   0  0  0  0  0  0  0  0  0  0  0  0
   50.4560   24.1380   39.6470 N   0  0  0  0  0  0  0  0  0  0  0  0
   49.1960   23.8040   40.0250 C   0  0  0  0  0  0  0  0  0  0  0  0
   48.9380   23.2560   41.3240 N   0  0  0  0  0  0  0  0  0  0  0  0
   48.1730   23.9990   39.1490 N   0  0  0  0  0  0  0  0  0  0  0  0
   48.3870   24.5060   37.9380 C   0  0  0  0  0  0  0  0  0  0  0  0
   41.6860   22.5950   37.3040 C   0  0  0  0  0  0  0  0  0  0  0  0
   38.1380   22.2770   36.0950 C   0  0  0  0  0  0  0  0  0  0  0  0
   39.5190   22.1790   36.1650 C   0  0  0  0  0  0  0  0  0  0  0  0
   40.2140   22.6990   37.2280 C   0  0  0  0  0  0  0  0  0  0  0  0
   39.5100   23.3080   38.2010 N   0  0  0  0  0  0  0  0  0  0  0  0
   38.1680   23.4130   38.1500 C   0  0  0  0  0  0  0  0  0  0  0  0
   37.4660   22.9080   37.1150 N   0  0  0  0  0  0  0  0  0  0  0  0
   37.2990   21.7810   35.0490 C   0  0  0  0  0  0  0  0  0  0  0  0
   36.1840   20.9670   35.3140 C   0  0  0  0  0  0  0  0  0  0  0  0
   35.5870   20.6590   34.0940 C   0  0  0  0  0  0  0  0  0  0  0  0
   36.3450   21.2810   33.1760 C   0  0  0  0  0  0  0  0  0  0  0  0
   37.3420   21.9320   33.7640 O   0  0  0  0  0  0  0  0  0  0  0  0
   41.7633   23.9065   35.6281 H   0  0  0  0  0  0  0  0  0  0  0  0
   42.5630   22.2913   35.4004 H   0  0  0  0  0  0  0  0  0  0  0  0
   43.0237   25.1897   37.7460 H   0  0  0  0  0  0  0  0  0  0  0  0
   45.2271   26.1078   38.2613 H   0  0  0  0  0  0  0  0  0  0  0  0
   48.0027   25.6390   34.9072 H   0  0  0  0  0  0  0  0  0  0  0  0
   51.2242   23.9884   40.3166 H   0  0  0  0  0  0  0  0  0  0  0  0
   47.9763   23.0074   41.5963 H   0  0  0  0  0  0  0  0  0  0  0  0
   49.7143   23.1108   41.9852 H   0  0  0  0  0  0  0  0  0  0  0  0
   41.9538   21.5346   37.4218 H   0  0  0  0  0  0  0  0  0  0  0  0
   42.0082   23.2063   38.1599 H   0  0  0  0  0  0  0  0  0  0  0  0
   40.0671   21.6759   35.3548 H   0  0  0  0  0  0  0  0  0  0  0  0
   37.6348   23.9200   38.9677 H   0  0  0  0  0  0  0  0  0  0  0  0
   35.8444   20.6336   36.3057 H   0  0  0  0  0  0  0  0  0  0  0  0
   34.6925   20.0427   33.9206 H   0  0  0  0  0  0  0  0  0  0  0  0
   36.1654   21.2549   32.0911 H   0  0  0  0  0  0  0  0  0  0  0  0
  1  2  1  0
  1 18  1  0
  2  3  2  0
  3  4  1  0
  5  7  1  0
  5  4  2  0
  6  2  1  0
  6  5  1  0
  7 17  1  0
  8  9  2  0
  8  7  1  0
  9 10  1  0
 10 17  2  0
 10 11  1  0
 11 13  1  0
 12 11  2  0
 13 14  1  0
 14 15  1  0
 16 14  2  0
 17 16  1  0
 19 20  2  0
 19 24  1  0
 20 21  1  0
 21 18  1  0
 21 22  2  0
 23 22  1  0
 24 23  2  0
 25 26  2  0
 25 19  1  0
 27 26  1  0
 28 29  1  0
 28 27  2  0
 29 25  1  0
  1 30  1  0
  1 31  1  0
  3 32  1  0
  4 33  1  0
  8 34  1  0
 13 35  1  0
 15 36  1  0
 15 37  1  0
 18 38  1  0
 18 39  1  0
 20 40  1  0
 23 41  1  0
 26 42  1  0
 27 43  1  0
 28 44  1  0
M  ISO  8  30   8  31   8  32  14  33  14  34  14  35   9  38   8  39   8
M  ISO  5  40  14  41  14  42  14  43  14  44  14
M  END
>  <minimizedAffinity>  (1) 
-5.90063047

>  <minimizedRMSD>  (1) 
0.96713537

$$$$
