
     RDKit          3D

 41 45  0  0  0  0  0  0  0  0999 V2000
   42.4240   23.3800   36.0470 C   0  0  0  0  0  0  0  0  0  0  0  0
   43.7970   23.7930   36.4850 C   0  0  0  0  0  0  0  0  0  0  0  0
   44.0430   24.7920   37.3380 C   0  0  0  0  0  0  0  0  0  0  0  0
   45.2500   25.1590   37.7320 C   0  0  0  0  0  0  0  0  0  0  0  0
   46.3490   24.3510   37.1340 C   0  0  0  0  0  0  0  0  0  0  0  0
   45.4000   23.1420   36.0570 S   0  0  0  0  0  0  0  0  0  0  0  0
   47.7360   24.3770   37.2540 N   0  0  0  0  0  0  0  0  0  0  0  0
   48.4940   23.2970   37.5250 C   0  0  0  0  0  0  0  0  0  0  0  0
   49.7730   23.7330   37.5580 N   0  0  0  0  0  0  0  0  0  0  0  0
   49.8020   25.0430   37.3150 C   0  0  0  0  0  0  0  0  0  0  0  0
   50.8280   25.9840   37.2310 C   0  0  0  0  0  0  0  0  0  0  0  0
   50.4940   27.2780   36.9590 N   0  0  0  0  0  0  0  0  0  0  0  0
   49.2210   27.6680   36.7720 C   0  0  0  0  0  0  0  0  0  0  0  0
   48.2350   26.7620   36.8530 N   0  0  0  0  0  0  0  0  0  0  0  0
   48.4820   25.4620   37.1180 C   0  0  0  0  0  0  0  0  0  0  0  0
   41.7190   22.5410   37.0540 C   0  0  0  0  0  0  0  0  0  0  0  0
   38.1430   22.2510   35.9490 C   0  0  0  0  0  0  0  0  0  0  0  0
   39.5290   22.1430   35.9560 C   0  0  0  0  0  0  0  0  0  0  0  0
   40.2580   22.6450   37.0220 C   0  0  0  0  0  0  0  0  0  0  0  0
   39.5930   23.2320   38.0360 N   0  0  0  0  0  0  0  0  0  0  0  0
   38.2380   23.3350   38.0260 C   0  0  0  0  0  0  0  0  0  0  0  0
   37.4990   22.8570   37.0010 N   0  0  0  0  0  0  0  0  0  0  0  0
   37.2750   21.7780   34.9160 C   0  0  0  0  0  0  0  0  0  0  0  0
   36.1870   20.9400   35.1820 C   0  0  0  0  0  0  0  0  0  0  0  0
   35.5420   20.6550   33.9950 C   0  0  0  0  0  0  0  0  0  0  0  0
   36.2530   21.3180   33.0680 C   0  0  0  0  0  0  0  0  0  0  0  0
   37.2700   21.9740   33.6330 O   0  0  0  0  0  0  0  0  0  0  0  0
   41.8268   24.2858   35.8659 H   0  0  0  0  0  0  0  0  0  0  0  0
   42.5381   22.7738   35.1363 H   0  0  0  0  0  0  0  0  0  0  0  0
   43.1821   25.3467   37.7396 H   0  0  0  0  0  0  0  0  0  0  0  0
   45.4266   25.9850   38.4366 H   0  0  0  0  0  0  0  0  0  0  0  0
   48.1428   22.2672   37.6869 H   0  0  0  0  0  0  0  0  0  0  0  0
   51.8776   25.6906   37.3800 H   0  0  0  0  0  0  0  0  0  0  0  0
   48.9899   28.7212   36.5544 H   0  0  0  0  0  0  0  0  0  0  0  0
   41.9918   21.4903   36.8761 H   0  0  0  0  0  0  0  0  0  0  0  0
   42.0353   22.9088   38.0413 H   0  0  0  0  0  0  0  0  0  0  0  0
   40.0470   21.6589   35.1150 H   0  0  0  0  0  0  0  0  0  0  0  0
   37.7305   23.8194   38.8732 H   0  0  0  0  0  0  0  0  0  0  0  0
   35.8932   20.5687   36.1749 H   0  0  0  0  0  0  0  0  0  0  0  0
   34.6505   20.0287   33.8432 H   0  0  0  0  0  0  0  0  0  0  0  0
   36.0284   21.3203   31.9912 H   0  0  0  0  0  0  0  0  0  0  0  0
  1  2  1  0
  1 16  1  0
  2  3  2  0
  3  4  1  0
  5  7  1  0
  5  4  2  0
  6  2  1  0
  6  5  1  0
  7  8  1  0
  8  9  2  0
 10  9  1  0
 11 10  2  0
 12 11  1  0
 13 14  1  0
 13 12  2  0
 14 15  2  0
 15  7  1  0
 15 10  1  0
 17 18  2  0
 17 22  1  0
 18 19  1  0
 19 16  1  0
 19 20  2  0
 21 20  1  0
 22 21  2  0
 23 24  2  0
 23 17  1  0
 25 24  1  0
 26 27  1  0
 26 25  2  0
 27 23  1  0
  1 28  1  0
  1 29  1  0
  3 30  1  0
  4 31  1  0
  8 32  1  0
 11 33  1  0
 13 34  1  0
 16 35  1  0
 16 36  1  0
 18 37  1  0
 21 38  1  0
 24 39  1  0
 25 40  1  0
 26 41  1  0
M  ISO  8  28   8  29   8  30  14  31  14  32  14  33  14  34  14  35   8
M  ISO  6  36   8  37  14  38  14  39  14  40  14  41  14
M  END
>  <minimizedAffinity>  (1) 
-5.58155203

>  <minimizedRMSD>  (1) 
0.658821225

$$$$
