
     RDKit          3D

 46 49  0  0  0  0  0  0  0  0999 V2000
   41.6840   22.4830   37.1110 C   0  0  0  0  0  0  0  0  0  0  0  0
   38.1060   22.2740   35.9770 C   0  0  0  0  0  0  0  0  0  0  0  0
   39.5060   22.1320   35.9960 C   0  0  0  0  0  0  0  0  0  0  0  0
   40.2180   22.6160   37.0610 C   0  0  0  0  0  0  0  0  0  0  0  0
   39.5540   23.2220   38.0720 N   0  0  0  0  0  0  0  0  0  0  0  0
   38.2100   23.3520   38.0400 C   0  0  0  0  0  0  0  0  0  0  0  0
   37.4710   22.8860   37.0040 N   0  0  0  0  0  0  0  0  0  0  0  0
   37.2660   21.7980   34.9000 C   0  0  0  0  0  0  0  0  0  0  0  0
   36.1690   20.9460   35.1670 C   0  0  0  0  0  0  0  0  0  0  0  0
   35.5500   20.6520   33.9620 C   0  0  0  0  0  0  0  0  0  0  0  0
   36.2820   21.3230   33.0400 C   0  0  0  0  0  0  0  0  0  0  0  0
   37.2700   21.9760   33.6340 O   0  0  0  0  0  0  0  0  0  0  0  0
   42.3990   23.2360   36.0190 C   0  0  0  0  0  0  0  0  0  0  0  0
   43.7030   23.7940   36.4780 C   0  0  0  0  0  0  0  0  0  0  0  0
   43.8280   24.8680   37.2640 C   0  0  0  0  0  0  0  0  0  0  0  0
   45.0040   25.3510   37.6730 C   0  0  0  0  0  0  0  0  0  0  0  0
   46.1770   24.6280   37.2070 C   0  0  0  0  0  0  0  0  0  0  0  0
   45.3940   23.2670   36.1790 S   0  0  0  0  0  0  0  0  0  0  0  0
   47.6030   24.6520   37.2930 C   0  0  0  0  0  0  0  0  0  0  0  0
   48.1410   26.0530   37.0400 C   0  0  0  0  0  0  0  0  0  0  0  0
   49.6230   25.8500   36.7200 C   0  0  0  0  0  0  0  0  0  0  0  0
   50.3400   25.2430   37.8940 C   0  0  0  0  0  0  0  0  0  0  0  0
   49.6710   23.9710   38.3360 C   0  0  0  0  0  0  0  0  0  0  0  0
   48.1990   24.2270   38.6210 C   0  0  0  0  0  0  0  0  0  0  0  0
   42.0342   22.8637   38.0818 H   0  0  0  0  0  0  0  0  0  0  0  0
   41.9147   21.4168   36.9699 H   0  0  0  0  0  0  0  0  0  0  0  0
   40.0243   21.6362   35.1620 H   0  0  0  0  0  0  0  0  0  0  0  0
   37.7010   23.8501   38.8783 H   0  0  0  0  0  0  0  0  0  0  0  0
   35.8609   20.5806   36.1577 H   0  0  0  0  0  0  0  0  0  0  0  0
   34.6666   20.0188   33.7929 H   0  0  0  0  0  0  0  0  0  0  0  0
   36.0850   21.3252   31.9578 H   0  0  0  0  0  0  0  0  0  0  0  0
   41.7584   24.0644   35.6824 H   0  0  0  0  0  0  0  0  0  0  0  0
   42.6040   22.5295   35.2012 H   0  0  0  0  0  0  0  0  0  0  0  0
   42.9123   25.3820   37.5918 H   0  0  0  0  0  0  0  0  0  0  0  0
   45.0805   26.2374   38.3198 H   0  0  0  0  0  0  0  0  0  0  0  0
   47.8990   23.9182   36.5288 H   0  0  0  0  0  0  0  0  0  0  0  0
   47.6215   26.5201   36.1904 H   0  0  0  0  0  0  0  0  0  0  0  0
   47.9896   26.7182   37.9029 H   0  0  0  0  0  0  0  0  0  0  0  0
   49.7170   25.1795   35.8530 H   0  0  0  0  0  0  0  0  0  0  0  0
   50.0744   26.8278   36.4959 H   0  0  0  0  0  0  0  0  0  0  0  0
   51.3784   25.0219   37.6060 H   0  0  0  0  0  0  0  0  0  0  0  0
   50.3153   25.9597   38.7281 H   0  0  0  0  0  0  0  0  0  0  0  0
   49.7618   23.2166   37.5406 H   0  0  0  0  0  0  0  0  0  0  0  0
   50.1577   23.6079   39.2532 H   0  0  0  0  0  0  0  0  0  0  0  0
   48.0844   25.0261   39.3682 H   0  0  0  0  0  0  0  0  0  0  0  0
   47.6990   23.3361   39.0289 H   0  0  0  0  0  0  0  0  0  0  0  0
  2  3  2  0
  2  7  1  0
  3  4  1  0
  4  1  1  0
  4  5  2  0
  6  5  1  0
  7  6  2  0
  8  9  2  0
  8  2  1  0
 10  9  1  0
 11 12  1  0
 11 10  2  0
 12  8  1  0
 13 14  1  0
 13  1  1  0
 14 15  2  0
 15 16  1  0
 17 19  1  0
 17 16  2  0
 18 14  1  0
 18 17  1  0
 19 24  1  0
 20 19  1  0
 21 20  1  0
 21 22  1  0
 22 23  1  0
 23 24  1  0
  1 25  1  0
  1 26  1  0
  3 27  1  0
  6 28  1  0
  9 29  1  0
 10 30  1  0
 11 31  1  0
 13 32  1  0
 13 33  1  0
 15 34  1  0
 16 35  1  0
 19 36  1  0
 20 37  1  0
 20 38  1  0
 21 39  1  0
 21 40  1  0
 22 41  1  0
 22 42  1  0
 23 43  1  0
 23 44  1  0
 24 45  1  0
 24 46  1  0
M  ISO  8  25   8  26   8  27  14  28  14  29  14  30  14  31  14  32   8
M  ISO  8  33   8  34  14  35  14  36  13  37  13  38  13  39  13  40  13
M  ISO  6  41  13  42  13  43  13  44  13  45  13  46  13
M  END
>  <minimizedAffinity>  (1) 
-5.5925808

>  <minimizedRMSD>  (1) 
0.846639216

$$$$
