
     RDKit          3D

 40 43  0  0  0  0  0  0  0  0999 V2000
   41.7750   22.5810   37.0660 C   0  0  0  0  0  0  0  0  0  0  0  0
   38.1610   22.2650   36.0410 C   0  0  0  0  0  0  0  0  0  0  0  0
   39.5540   22.1640   36.0210 C   0  0  0  0  0  0  0  0  0  0  0  0
   40.3040   22.6700   37.0510 C   0  0  0  0  0  0  0  0  0  0  0  0
   39.6480   23.2610   38.0710 N   0  0  0  0  0  0  0  0  0  0  0  0
   38.2970   23.3610   38.0900 C   0  0  0  0  0  0  0  0  0  0  0  0
   37.5430   22.8690   37.0850 N   0  0  0  0  0  0  0  0  0  0  0  0
   37.2900   21.7670   35.0080 C   0  0  0  0  0  0  0  0  0  0  0  0
   36.1890   20.9530   35.3030 C   0  0  0  0  0  0  0  0  0  0  0  0
   35.5400   20.6280   34.1220 C   0  0  0  0  0  0  0  0  0  0  0  0
   36.2790   21.2630   33.1690 C   0  0  0  0  0  0  0  0  0  0  0  0
   37.2800   21.9080   33.7320 O   0  0  0  0  0  0  0  0  0  0  0  0
   42.4390   23.4800   36.0620 C   0  0  0  0  0  0  0  0  0  0  0  0
   43.7730   23.9670   36.5460 C   0  0  0  0  0  0  0  0  0  0  0  0
   43.9430   24.9980   37.3840 C   0  0  0  0  0  0  0  0  0  0  0  0
   45.1630   25.4000   37.7970 C   0  0  0  0  0  0  0  0  0  0  0  0
   46.2750   24.6280   37.2640 C   0  0  0  0  0  0  0  0  0  0  0  0
   45.4170   23.3770   36.2000 S   0  0  0  0  0  0  0  0  0  0  0  0
   47.6860   24.7740   37.4880 C   0  0  0  0  0  0  0  0  0  0  0  0
   48.4770   25.5190   36.6860 C   0  0  0  0  0  0  0  0  0  0  0  0
   49.8180   25.5850   37.0040 C   0  0  0  0  0  0  0  0  0  0  0  0
   50.3360   24.9160   38.0940 C   0  0  0  0  0  0  0  0  0  0  0  0
   49.5160   24.1580   38.9060 C   0  0  0  0  0  0  0  0  0  0  0  0
   48.1550   24.0890   38.5890 C   0  0  0  0  0  0  0  0  0  0  0  0
   42.1305   22.8571   38.0697 H   0  0  0  0  0  0  0  0  0  0  0  0
   42.0398   21.5470   36.8001 H   0  0  0  0  0  0  0  0  0  0  0  0
   40.0533   21.6745   35.1719 H   0  0  0  0  0  0  0  0  0  0  0  0
   37.8049   23.8532   38.9418 H   0  0  0  0  0  0  0  0  0  0  0  0
   35.8881   20.6248   36.3089 H   0  0  0  0  0  0  0  0  0  0  0  0
   34.6428   20.0061   33.9864 H   0  0  0  0  0  0  0  0  0  0  0  0
   36.0703   21.2402   32.0892 H   0  0  0  0  0  0  0  0  0  0  0  0
   41.7891   24.3479   35.8766 H   0  0  0  0  0  0  0  0  0  0  0  0
   42.6001   22.9023   35.1399 H   0  0  0  0  0  0  0  0  0  0  0  0
   43.0559   25.5365   37.7487 H   0  0  0  0  0  0  0  0  0  0  0  0
   45.3059   26.2469   38.4843 H   0  0  0  0  0  0  0  0  0  0  0  0
   48.0687   26.0517   35.8145 H   0  0  0  0  0  0  0  0  0  0  0  0
   50.4903   26.1854   36.3734 H   0  0  0  0  0  0  0  0  0  0  0  0
   51.4106   24.9871   38.3178 H   0  0  0  0  0  0  0  0  0  0  0  0
   49.9214   23.6233   39.7777 H   0  0  0  0  0  0  0  0  0  0  0  0
   47.4678   23.4958   39.2102 H   0  0  0  0  0  0  0  0  0  0  0  0
  2  7  1  0
  3  2  2  0
  3  4  1  0
  4  1  1  0
  4  5  2  0
  5  6  1  0
  7  6  2  0
  8  9  2  0
  8  2  1  0
 10  9  1  0
 11 12  1  0
 11 10  2  0
 12  8  1  0
 13 14  1  0
 13  1  1  0
 14 15  2  0
 15 16  1  0
 17 19  1  0
 17 16  2  0
 18 14  1  0
 18 17  1  0
 19 24  2  0
 20 21  2  0
 20 19  1  0
 21 22  1  0
 22 23  2  0
 24 23  1  0
  1 25  1  0
  1 26  1  0
  3 27  1  0
  6 28  1  0
  9 29  1  0
 10 30  1  0
 11 31  1  0
 13 32  1  0
 13 33  1  0
 15 34  1  0
 16 35  1  0
 20 36  1  0
 21 37  1  0
 22 38  1  0
 23 39  1  0
 24 40  1  0
M  ISO  8  25   8  26   8  27  14  28  14  29  14  30  14  31  14  32   8
M  ISO  8  33   8  34  14  35  14  36  14  37  14  38  14  39  14  40  14
M  END
>  <minimizedAffinity>  (1) 
-5.58617306

>  <minimizedRMSD>  (1) 
0.88981992

$$$$
