
     RDKit          3D

 40 43  0  0  0  0  0  0  0  0999 V2000
   41.8790   22.5400   37.0350 C   0  0  0  0  0  0  0  0  0  0  0  0
   38.2560   22.2680   36.0420 C   0  0  0  0  0  0  0  0  0  0  0  0
   39.6430   22.1530   36.0230 C   0  0  0  0  0  0  0  0  0  0  0  0
   40.4110   22.6590   37.0490 C   0  0  0  0  0  0  0  0  0  0  0  0
   39.7680   23.2680   38.0680 N   0  0  0  0  0  0  0  0  0  0  0  0
   38.4230   23.3850   38.0980 C   0  0  0  0  0  0  0  0  0  0  0  0
   37.6560   22.8970   37.1060 N   0  0  0  0  0  0  0  0  0  0  0  0
   37.3630   21.7850   35.0370 C   0  0  0  0  0  0  0  0  0  0  0  0
   36.2560   20.9790   35.3690 C   0  0  0  0  0  0  0  0  0  0  0  0
   35.5820   20.6680   34.1970 C   0  0  0  0  0  0  0  0  0  0  0  0
   36.2990   21.2890   33.2220 C   0  0  0  0  0  0  0  0  0  0  0  0
   37.3330   21.9320   33.7550 O   0  0  0  0  0  0  0  0  0  0  0  0
   42.5460   23.4530   36.0370 C   0  0  0  0  0  0  0  0  0  0  0  0
   43.8390   23.9960   36.5680 C   0  0  0  0  0  0  0  0  0  0  0  0
   43.9430   25.0230   37.4180 C   0  0  0  0  0  0  0  0  0  0  0  0
   45.1190   25.4750   37.8720 C   0  0  0  0  0  0  0  0  0  0  0  0
   46.2790   24.7760   37.3800 C   0  0  0  0  0  0  0  0  0  0  0  0
   45.5200   23.4910   36.2730 S   0  0  0  0  0  0  0  0  0  0  0  0
   47.7220   24.9070   37.5900 C   0  0  0  0  0  0  0  0  0  0  0  0
   48.3670   25.8150   36.7890 C   0  0  0  0  0  0  0  0  0  0  0  0
   49.7440   25.9070   37.0240 C   0  0  0  0  0  0  0  0  0  0  0  0
   50.3540   25.1190   37.9980 C   0  0  0  0  0  0  0  0  0  0  0  0
   49.6110   24.2170   38.7680 C   0  0  0  0  0  0  0  0  0  0  0  0
   48.2310   24.1010   38.5590 C   0  0  0  0  0  0  0  0  0  0  0  0
   42.2579   22.7844   38.0383 H   0  0  0  0  0  0  0  0  0  0  0  0
   42.1176   21.5076   36.7397 H   0  0  0  0  0  0  0  0  0  0  0  0
   40.1334   21.6506   35.1762 H   0  0  0  0  0  0  0  0  0  0  0  0
   37.9448   23.8894   38.9506 H   0  0  0  0  0  0  0  0  0  0  0  0
   35.9751   20.6531   36.3813 H   0  0  0  0  0  0  0  0  0  0  0  0
   34.6740   20.0578   34.0822 H   0  0  0  0  0  0  0  0  0  0  0  0
   36.0582   21.2629   32.1490 H   0  0  0  0  0  0  0  0  0  0  0  0
   41.8709   24.2921   35.8132 H   0  0  0  0  0  0  0  0  0  0  0  0
   42.7627   22.8720   35.1285 H   0  0  0  0  0  0  0  0  0  0  0  0
   43.0221   25.5184   37.7593 H   0  0  0  0  0  0  0  0  0  0  0  0
   45.1942   26.3206   38.5715 H   0  0  0  0  0  0  0  0  0  0  0  0
   47.8480   26.4176   36.0291 H   0  0  0  0  0  0  0  0  0  0  0  0
   50.3510   26.6089   36.4334 H   0  0  0  0  0  0  0  0  0  0  0  0
   51.4377   25.2074   38.1645 H   0  0  0  0  0  0  0  0  0  0  0  0
   50.1081   23.6026   39.5331 H   0  0  0  0  0  0  0  0  0  0  0  0
   47.6037   23.4071   39.1378 H   0  0  0  0  0  0  0  0  0  0  0  0
  1  4  1  0
  2  7  1  0
  3  2  2  0
  3  4  1  0
  4  5  2  0
  5  6  1  0
  7  6  2  0
  8  9  2  0
  8  2  1  0
 10  9  1  0
 11 12  1  0
 11 10  2  0
 12  8  1  0
 13 14  1  0
 13  1  1  0
 14 15  2  0
 15 16  1  0
 17 19  1  0
 17 16  2  0
 18 14  1  0
 18 17  1  0
 19 24  2  0
 20 21  2  0
 20 19  1  0
 21 22  1  0
 22 23  2  0
 24 23  1  0
  1 25  1  0
  1 26  1  0
  3 27  1  0
  6 28  1  0
  9 29  1  0
 10 30  1  0
 11 31  1  0
 13 32  1  0
 13 33  1  0
 15 34  1  0
 16 35  1  0
 20 36  1  0
 21 37  1  0
 22 38  1  0
 23 39  1  0
 24 40  1  0
M  ISO  8  25   8  26   8  27  14  28  14  29  14  30  14  31  14  32   8
M  ISO  8  33   8  34  14  35  14  36  14  37  14  38  14  39  14  40  14
M  END
>  <minimizedAffinity>  (1) 
-5.55492783

>  <minimizedRMSD>  (1) 
1.11070728

$$$$
