
     RDKit          3D

 32 33  0  0  1  0  0  0  0  0999 V2000
   39.3940   23.7590   36.0460 N   0  0  0  0  0  0  0  0  0  0  0  0
   40.2410   22.8230   35.2760 C   0  0  0  0  0  0  0  0  0  0  0  0
   41.2290   22.3680   36.3180 C   0  0  0  0  0  0  0  0  0  0  0  0
   40.5370   22.6030   37.6700 C   0  0  0  0  0  0  0  0  0  0  0  0
   39.1200   22.9220   37.1830 C   0  0  1  0  0  0  0  0  0  0  0  0
   38.4400   23.6350   38.3170 C   0  0  0  0  0  0  0  0  0  0  0  0
   39.1740   23.7950   39.4430 F   0  0  0  0  0  0  0  0  0  0  0  0
   37.2300   23.0040   38.5450 F   0  0  0  0  0  0  0  0  0  0  0  0
   38.1130   24.9270   37.8930 F   0  0  0  0  0  0  0  0  0  0  0  0
   38.1970   24.0360   35.2890 C   0  0  0  0  0  0  0  0  0  0  0  0
   38.4890   24.6410   33.9690 C   0  0  0  0  0  0  0  0  0  0  0  0
   36.4560   22.2650   31.9060 C   0  0  0  0  0  0  0  0  0  0  0  0
   37.3850   22.8190   32.8020 C   0  0  0  0  0  0  0  0  0  0  0  0
   37.4800   24.1610   32.9930 C   0  0  0  0  0  0  0  0  0  0  0  0
   36.6340   24.9630   32.2780 N   0  0  0  0  0  0  0  0  0  0  0  0
   35.7460   24.4430   31.4230 C   0  0  0  0  0  0  0  0  0  0  0  0
   35.6490   23.1430   31.2330 N   0  0  0  0  0  0  0  0  0  0  0  0
   34.9900   25.4320   30.8040 O   0  0  0  0  0  0  0  0  0  0  0  0
   39.6527   21.9788   34.8870 H   0  0  0  0  0  0  0  0  0  0  0  0
   40.7080   23.2742   34.3881 H   0  0  0  0  0  0  0  0  0  0  0  0
   41.4630   21.3013   36.1861 H   0  0  0  0  0  0  0  0  0  0  0  0
   42.1801   22.9159   36.2455 H   0  0  0  0  0  0  0  0  0  0  0  0
   40.5596   21.7039   38.3033 H   0  0  0  0  0  0  0  0  0  0  0  0
   40.9981   23.3767   38.3014 H   0  0  0  0  0  0  0  0  0  0  0  0
   38.4649   22.0835   36.9041 H   0  0  0  0  0  0  0  0  0  0  0  0
   37.6524   23.0932   35.1324 H   0  0  0  0  0  0  0  0  0  0  0  0
   37.5978   24.7582   35.8629 H   0  0  0  0  0  0  0  0  0  0  0  0
   38.4387   25.7372   34.0448 H   0  0  0  0  0  0  0  0  0  0  0  0
   39.4976   24.3519   33.6387 H   0  0  0  0  0  0  0  0  0  0  0  0
   36.3804   21.1784   31.7523 H   0  0  0  0  0  0  0  0  0  0  0  0
   38.0529   22.1492   33.3636 H   0  0  0  0  0  0  0  0  0  0  0  0
   34.2937   25.1835   30.1456 H   0  0  0  0  0  0  0  0  0  0  0  0
  1  5  1  0
  2  1  1  0
  2  3  1  0
  3  4  1  0
  5  4  1  0
  5  6  1  0
  6  8  1  0
  6  7  1  0
  9  6  1  0
 10  1  1  0
 11 10  1  0
 12 13  2  0
 13 14  1  0
 14 11  1  0
 15 14  2  0
 16 15  1  0
 17 16  2  0
 17 12  1  0
 18 16  1  0
  2 19  1  0
  2 20  1  0
  3 21  1  0
  3 22  1  0
  4 23  1  0
  4 24  1  0
  5 25  1  6
 10 26  1  0
 10 27  1  0
 11 28  1  0
 11 29  1  0
 12 30  1  0
 13 31  1  0
 18 32  1  0
M  ISO  8  19  13  20  13  21  13  22  13  23  13  24  13  25  13  26   8
M  ISO  6  27   8  28   8  29   8  30  14  31  14  32   3
M  END
>  <minimizedAffinity>  (1) 
-5.02124929

>  <minimizedRMSD>  (1) 
0.47221905

$$$$
