
     RDKit          3D

 44 47  0  0  0  0  0  0  0  0999 V2000
   41.5680   22.6200   37.2150 C   0  0  0  0  0  0  0  0  0  0  0  0
   38.0240   22.2730   36.0220 C   0  0  0  0  0  0  0  0  0  0  0  0
   39.4190   22.1820   36.0640 C   0  0  0  0  0  0  0  0  0  0  0  0
   40.1050   22.6960   37.1360 C   0  0  0  0  0  0  0  0  0  0  0  0
   39.4040   23.2840   38.1320 N   0  0  0  0  0  0  0  0  0  0  0  0
   38.0510   23.3710   38.0890 C   0  0  0  0  0  0  0  0  0  0  0  0
   37.3490   22.8740   37.0490 N   0  0  0  0  0  0  0  0  0  0  0  0
   37.2030   21.7720   34.9570 C   0  0  0  0  0  0  0  0  0  0  0  0
   36.1190   20.9190   35.2100 C   0  0  0  0  0  0  0  0  0  0  0  0
   35.5240   20.6080   33.9910 C   0  0  0  0  0  0  0  0  0  0  0  0
   36.2710   21.2810   33.0760 C   0  0  0  0  0  0  0  0  0  0  0  0
   37.2430   21.9500   33.6770 O   0  0  0  0  0  0  0  0  0  0  0  0
   42.2770   23.2600   36.0430 C   0  0  0  0  0  0  0  0  0  0  0  0
   43.6770   23.6530   36.3980 C   0  0  0  0  0  0  0  0  0  0  0  0
   43.9740   24.6900   37.1910 C   0  0  0  0  0  0  0  0  0  0  0  0
   45.2440   25.0260   37.5060 C   0  0  0  0  0  0  0  0  0  0  0  0
   46.2650   24.1760   36.9200 C   0  0  0  0  0  0  0  0  0  0  0  0
   45.2600   22.9530   35.9520 S   0  0  0  0  0  0  0  0  0  0  0  0
   47.6330   24.1200   36.9460 N   0  0  0  0  0  0  0  0  0  0  0  0
   48.3680   22.8710   36.8570 C   0  0  0  0  0  0  0  0  0  0  0  0
   49.3350   22.8000   38.0320 C   0  0  0  0  0  0  0  0  0  0  0  0
   49.3340   24.0210   38.8090 N   0  0  0  0  0  0  0  0  0  0  0  0
   49.5880   25.1030   37.8460 C   0  0  0  0  0  0  0  0  0  0  0  0
   48.2950   25.3810   37.0660 C   0  0  0  0  0  0  0  0  0  0  0  0
   41.8923   23.1274   38.1355 H   0  0  0  0  0  0  0  0  0  0  0  0
   41.8341   21.5527   37.2061 H   0  0  0  0  0  0  0  0  0  0  0  0
   39.9651   21.6997   35.2399 H   0  0  0  0  0  0  0  0  0  0  0  0
   37.5154   23.8563   38.9182 H   0  0  0  0  0  0  0  0  0  0  0  0
   35.7959   20.5591   36.1980 H   0  0  0  0  0  0  0  0  0  0  0  0
   34.6500   19.9652   33.8095 H   0  0  0  0  0  0  0  0  0  0  0  0
   36.0932   21.2712   31.9905 H   0  0  0  0  0  0  0  0  0  0  0  0
   41.7207   24.1577   35.7354 H   0  0  0  0  0  0  0  0  0  0  0  0
   42.3210   22.5272   35.2238 H   0  0  0  0  0  0  0  0  0  0  0  0
   43.1509   25.2926   37.6026 H   0  0  0  0  0  0  0  0  0  0  0  0
   45.4863   25.8789   38.1571 H   0  0  0  0  0  0  0  0  0  0  0  0
   47.6679   22.0236   36.8998 H   0  0  0  0  0  0  0  0  0  0  0  0
   48.9214   22.8238   35.9075 H   0  0  0  0  0  0  0  0  0  0  0  0
   49.0413   21.9640   38.6838 H   0  0  0  0  0  0  0  0  0  0  0  0
   50.3484   22.6538   37.6299 H   0  0  0  0  0  0  0  0  0  0  0  0
   48.4214   24.1546   39.2674 H   0  0  0  0  0  0  0  0  0  0  0  0
   49.8989   26.0112   38.3831 H   0  0  0  0  0  0  0  0  0  0  0  0
   50.3883   24.8069   37.1518 H   0  0  0  0  0  0  0  0  0  0  0  0
   48.5281   25.7874   36.0707 H   0  0  0  0  0  0  0  0  0  0  0  0
   47.6643   26.1218   37.5792 H   0  0  0  0  0  0  0  0  0  0  0  0
  2  3  2  0
  2  7  1  0
  3  4  1  0
  4  1  1  0
  4  5  2  0
  6  5  1  0
  7  6  2  0
  8  9  2  0
  8  2  1  0
 10  9  1  0
 11 12  1  0
 11 10  2  0
 12  8  1  0
 13 14  1  0
 13  1  1  0
 14 15  2  0
 15 16  1  0
 17 19  1  0
 17 16  2  0
 18 14  1  0
 18 17  1  0
 19 24  1  0
 20 19  1  0
 20 21  1  0
 21 22  1  0
 23 22  1  0
 24 23  1  0
  1 25  1  0
  1 26  1  0
  3 27  1  0
  6 28  1  0
  9 29  1  0
 10 30  1  0
 11 31  1  0
 13 32  1  0
 13 33  1  0
 15 34  1  0
 16 35  1  0
 20 36  1  0
 20 37  1  0
 21 38  1  0
 21 39  1  0
 22 40  1  0
 23 41  1  0
 23 42  1  0
 24 43  1  0
 24 44  1  0
M  ISO  8  25   8  26   8  27  14  28  14  29  14  30  14  31  14  32   8
M  ISO  8  33   8  34  14  35  14  36  13  37  13  38  13  39  13  40   5
M  ISO  4  41  13  42  13  43  13  44  13
M  END
>  <minimizedAffinity>  (1) 
-5.22146463

>  <minimizedRMSD>  (1) 
0.297542214

$$$$
