
     RDKit          3D

 45 48  0  0  0  0  0  0  0  0999 V2000
   41.4640   22.6520   37.2400 C   0  0  0  0  0  0  0  0  0  0  0  0
   37.9500   22.2690   35.9920 C   0  0  0  0  0  0  0  0  0  0  0  0
   39.3380   22.1990   36.0610 C   0  0  0  0  0  0  0  0  0  0  0  0
   40.0060   22.7110   37.1410 C   0  0  0  0  0  0  0  0  0  0  0  0
   39.2810   23.2850   38.1380 N   0  0  0  0  0  0  0  0  0  0  0  0
   37.9380   23.3540   38.0760 C   0  0  0  0  0  0  0  0  0  0  0  0
   37.2530   22.8560   37.0180 N   0  0  0  0  0  0  0  0  0  0  0  0
   37.1460   21.7670   34.9110 C   0  0  0  0  0  0  0  0  0  0  0  0
   36.0750   20.8830   35.1560 C   0  0  0  0  0  0  0  0  0  0  0  0
   35.4910   20.5720   33.9410 C   0  0  0  0  0  0  0  0  0  0  0  0
   36.2120   21.2600   33.0400 C   0  0  0  0  0  0  0  0  0  0  0  0
   37.1780   21.9520   33.6440 O   0  0  0  0  0  0  0  0  0  0  0  0
   42.1820   23.1230   35.9960 C   0  0  0  0  0  0  0  0  0  0  0  0
   43.6000   23.5090   36.2960 C   0  0  0  0  0  0  0  0  0  0  0  0
   43.9470   24.5700   37.0340 C   0  0  0  0  0  0  0  0  0  0  0  0
   45.2310   24.8730   37.2830 C   0  0  0  0  0  0  0  0  0  0  0  0
   46.2200   23.9880   36.7110 C   0  0  0  0  0  0  0  0  0  0  0  0
   45.1450   22.7450   35.8260 S   0  0  0  0  0  0  0  0  0  0  0  0
   47.5710   23.9190   36.7080 N   0  0  0  0  0  0  0  0  0  0  0  0
   48.3450   25.0930   36.3870 C   0  0  0  0  0  0  0  0  0  0  0  0
   49.2290   25.4520   37.5760 C   0  0  0  0  0  0  0  0  0  0  0  0
   49.5360   24.2340   38.3950 C   0  0  0  0  0  0  0  0  0  0  0  0
   49.6700   22.9890   37.5130 C   0  0  0  0  0  0  0  0  0  0  0  0
   48.2580   22.6870   37.0230 C   0  0  0  0  0  0  0  0  0  0  0  0
   41.7798   23.2847   38.0826 H   0  0  0  0  0  0  0  0  0  0  0  0
   41.7318   21.5946   37.3822 H   0  0  0  0  0  0  0  0  0  0  0  0
   39.9025   21.7291   35.2422 H   0  0  0  0  0  0  0  0  0  0  0  0
   37.3847   23.8248   38.9019 H   0  0  0  0  0  0  0  0  0  0  0  0
   35.7593   20.5068   36.1403 H   0  0  0  0  0  0  0  0  0  0  0  0
   34.6314   19.9113   33.7549 H   0  0  0  0  0  0  0  0  0  0  0  0
   36.0305   21.2532   31.9551 H   0  0  0  0  0  0  0  0  0  0  0  0
   41.6526   23.9957   35.5859 H   0  0  0  0  0  0  0  0  0  0  0  0
   42.1942   22.2971   35.2695 H   0  0  0  0  0  0  0  0  0  0  0  0
   43.1568   25.2130   37.4489 H   0  0  0  0  0  0  0  0  0  0  0  0
   45.5145   25.7463   37.8887 H   0  0  0  0  0  0  0  0  0  0  0  0
   48.9750   24.8893   35.5086 H   0  0  0  0  0  0  0  0  0  0  0  0
   47.6688   25.9313   36.1632 H   0  0  0  0  0  0  0  0  0  0  0  0
   50.1702   25.8864   37.2080 H   0  0  0  0  0  0  0  0  0  0  0  0
   48.6951   26.1774   38.2074 H   0  0  0  0  0  0  0  0  0  0  0  0
   50.4810   24.3941   38.9347 H   0  0  0  0  0  0  0  0  0  0  0  0
   48.7074   24.0721   39.1002 H   0  0  0  0  0  0  0  0  0  0  0  0
   50.3380   23.1898   36.6624 H   0  0  0  0  0  0  0  0  0  0  0  0
   50.1020   22.1410   38.0647 H   0  0  0  0  0  0  0  0  0  0  0  0
   47.7056   22.1526   37.8100 H   0  0  0  0  0  0  0  0  0  0  0  0
   48.3148   22.0634   36.1186 H   0  0  0  0  0  0  0  0  0  0  0  0
  2  3  2  0
  2  7  1  0
  3  4  1  0
  4  1  1  0
  4  5  2  0
  6  5  1  0
  7  6  2  0
  8  9  2  0
  8  2  1  0
 10  9  1  0
 11 12  1  0
 11 10  2  0
 12  8  1  0
 13 14  1  0
 13  1  1  0
 14 15  2  0
 15 16  1  0
 17 16  2  0
 18 14  1  0
 18 17  1  0
 19 17  1  0
 19 24  1  0
 20 19  1  0
 20 21  1  0
 21 22  1  0
 23 22  1  0
 24 23  1  0
  1 25  1  0
  1 26  1  0
  3 27  1  0
  6 28  1  0
  9 29  1  0
 10 30  1  0
 11 31  1  0
 13 32  1  0
 13 33  1  0
 15 34  1  0
 16 35  1  0
 20 36  1  0
 20 37  1  0
 21 38  1  0
 21 39  1  0
 22 40  1  0
 22 41  1  0
 23 42  1  0
 23 43  1  0
 24 44  1  0
 24 45  1  0
M  ISO  8  25   8  26   8  27  14  28  14  29  14  30  14  31  14  32   8
M  ISO  8  33   8  34  14  35  14  36  13  37  13  38  13  39  13  40  13
M  ISO  5  41  13  42  13  43  13  44  13  45  13
M  END
>  <minimizedAffinity>  (1) 
-5.31072712

>  <minimizedRMSD>  (1) 
0.298136592

$$$$
