
     RDKit          3D

 39 42  0  0  0  0  0  0  0  0999 V2000
   41.6390   22.4920   37.0990 C   0  0  0  0  0  0  0  0  0  0  0  0
   38.0690   22.2710   35.9130 C   0  0  0  0  0  0  0  0  0  0  0  0
   39.4530   22.1330   35.9490 C   0  0  0  0  0  0  0  0  0  0  0  0
   40.1730   22.6100   37.0110 C   0  0  0  0  0  0  0  0  0  0  0  0
   39.4940   23.2160   38.0170 N   0  0  0  0  0  0  0  0  0  0  0  0
   38.1570   23.3460   37.9770 C   0  0  0  0  0  0  0  0  0  0  0  0
   37.4370   22.8840   36.9420 N   0  0  0  0  0  0  0  0  0  0  0  0
   37.2290   21.8010   34.8440 C   0  0  0  0  0  0  0  0  0  0  0  0
   36.1590   20.9240   35.0910 C   0  0  0  0  0  0  0  0  0  0  0  0
   35.5300   20.6400   33.8920 C   0  0  0  0  0  0  0  0  0  0  0  0
   36.2450   21.3560   32.9800 C   0  0  0  0  0  0  0  0  0  0  0  0
   37.2170   22.0090   33.5810 O   0  0  0  0  0  0  0  0  0  0  0  0
   42.3700   23.2240   36.0340 C   0  0  0  0  0  0  0  0  0  0  0  0
   43.6810   23.7570   36.4890 C   0  0  0  0  0  0  0  0  0  0  0  0
   43.8130   24.8670   37.2570 C   0  0  0  0  0  0  0  0  0  0  0  0
   45.0360   25.3090   37.6260 C   0  0  0  0  0  0  0  0  0  0  0  0
   46.1760   24.5270   37.1550 C   0  0  0  0  0  0  0  0  0  0  0  0
   45.3520   23.1620   36.1740 S   0  0  0  0  0  0  0  0  0  0  0  0
   47.5780   24.7010   37.3510 C   0  0  0  0  0  0  0  0  0  0  0  0
   48.2000   24.2170   38.4510 C   0  0  0  0  0  0  0  0  0  0  0  0
   49.5590   24.4250   38.5680 C   0  0  0  0  0  0  0  0  0  0  0  0
   50.2840   25.1050   37.6100 C   0  0  0  0  0  0  0  0  0  0  0  0
   49.5580   25.5580   36.5290 C   0  0  0  0  0  0  0  0  0  0  0  0
   48.2130   25.3690   36.3810 N   0  0  0  0  0  0  0  0  0  0  0  0
   41.9598   22.8885   38.0736 H   0  0  0  0  0  0  0  0  0  0  0  0
   41.8800   21.4260   36.9746 H   0  0  0  0  0  0  0  0  0  0  0  0
   39.9732   21.6362   35.1168 H   0  0  0  0  0  0  0  0  0  0  0  0
   37.6404   23.8425   38.8116 H   0  0  0  0  0  0  0  0  0  0  0  0
   35.8693   20.5284   36.0757 H   0  0  0  0  0  0  0  0  0  0  0  0
   34.6596   19.9906   33.7168 H   0  0  0  0  0  0  0  0  0  0  0  0
   36.0401   21.3843   31.8996 H   0  0  0  0  0  0  0  0  0  0  0  0
   41.7474   24.0659   35.6970 H   0  0  0  0  0  0  0  0  0  0  0  0
   42.5698   22.5094   35.2219 H   0  0  0  0  0  0  0  0  0  0  0  0
   42.9156   25.4132   37.5830 H   0  0  0  0  0  0  0  0  0  0  0  0
   45.1654   26.2079   38.2467 H   0  0  0  0  0  0  0  0  0  0  0  0
   47.6400   23.6750   39.2273 H   0  0  0  0  0  0  0  0  0  0  0  0
   50.0821   24.0361   39.4541 H   0  0  0  0  0  0  0  0  0  0  0  0
   51.3670   25.2739   37.7028 H   0  0  0  0  0  0  0  0  0  0  0  0
   50.0936   26.1042   35.7385 H   0  0  0  0  0  0  0  0  0  0  0  0
  2  3  2  0
  2  7  1  0
  3  4  1  0
  4  1  1  0
  4  5  2  0
  6  5  1  0
  7  6  2  0
  8  9  2  0
  8  2  1  0
 10  9  1  0
 11 12  1  0
 11 10  2  0
 12  8  1  0
 13 14  1  0
 13  1  1  0
 14 15  2  0
 15 16  1  0
 17 19  1  0
 17 16  2  0
 18 14  1  0
 18 17  1  0
 19 20  2  0
 20 21  1  0
 22 21  2  0
 23 22  1  0
 24 23  2  0
 24 19  1  0
  1 25  1  0
  1 26  1  0
  3 27  1  0
  6 28  1  0
  9 29  1  0
 10 30  1  0
 11 31  1  0
 13 32  1  0
 13 33  1  0
 15 34  1  0
 16 35  1  0
 20 36  1  0
 21 37  1  0
 22 38  1  0
 23 39  1  0
M  ISO  8  25   8  26   8  27  14  28  14  29  14  30  14  31  14  32   8
M  ISO  7  33   8  34  14  35  14  36  14  37  14  38  14  39  14
M  END
>  <minimizedAffinity>  (1) 
-5.36928415

>  <minimizedRMSD>  (1) 
0.744051516

$$$$
