
     RDKit          3D

 38 41  0  0  0  0  0  0  0  0999 V2000
   41.6590   22.5030   37.1410 C   0  0  0  0  0  0  0  0  0  0  0  0
   38.1060   22.2550   35.9630 C   0  0  0  0  0  0  0  0  0  0  0  0
   39.4900   22.1330   36.0160 C   0  0  0  0  0  0  0  0  0  0  0  0
   40.2000   22.6280   37.0800 C   0  0  0  0  0  0  0  0  0  0  0  0
   39.5180   23.2380   38.0770 N   0  0  0  0  0  0  0  0  0  0  0  0
   38.1750   23.3600   38.0340 C   0  0  0  0  0  0  0  0  0  0  0  0
   37.4530   22.8800   36.9970 N   0  0  0  0  0  0  0  0  0  0  0  0
   37.2570   21.7800   34.9080 C   0  0  0  0  0  0  0  0  0  0  0  0
   36.1690   20.9460   35.1520 C   0  0  0  0  0  0  0  0  0  0  0  0
   35.5510   20.6620   33.9480 C   0  0  0  0  0  0  0  0  0  0  0  0
   36.2770   21.3260   33.0320 C   0  0  0  0  0  0  0  0  0  0  0  0
   37.2720   21.9730   33.6240 O   0  0  0  0  0  0  0  0  0  0  0  0
   42.3790   23.1960   36.0070 C   0  0  0  0  0  0  0  0  0  0  0  0
   43.6890   23.7690   36.4550 C   0  0  0  0  0  0  0  0  0  0  0  0
   43.7990   24.8390   37.2480 C   0  0  0  0  0  0  0  0  0  0  0  0
   44.9460   25.3400   37.6610 C   0  0  0  0  0  0  0  0  0  0  0  0
   46.1520   24.6290   37.1780 C   0  0  0  0  0  0  0  0  0  0  0  0
   45.3770   23.2620   36.1390 S   0  0  0  0  0  0  0  0  0  0  0  0
   47.5260   24.8640   37.4010 C   0  0  0  0  0  0  0  0  0  0  0  0
   48.3550   24.0060   38.0960 C   0  0  0  0  0  0  0  0  0  0  0  0
   49.6650   24.4040   38.2120 C   0  0  0  0  0  0  0  0  0  0  0  0
   50.1360   25.5440   37.6950 N   0  0  0  0  0  0  0  0  0  0  0  0
   49.3010   26.3570   37.0240 C   0  0  0  0  0  0  0  0  0  0  0  0
   47.9880   26.0120   36.8780 N   0  0  0  0  0  0  0  0  0  0  0  0
   42.0050   22.9394   38.0896 H   0  0  0  0  0  0  0  0  0  0  0  0
   41.8922   21.4310   37.0607 H   0  0  0  0  0  0  0  0  0  0  0  0
   40.0226   21.6329   35.1937 H   0  0  0  0  0  0  0  0  0  0  0  0
   37.6550   23.8623   38.8630 H   0  0  0  0  0  0  0  0  0  0  0  0
   35.8536   20.5749   36.1383 H   0  0  0  0  0  0  0  0  0  0  0  0
   34.6643   20.0337   33.7780 H   0  0  0  0  0  0  0  0  0  0  0  0
   36.0755   21.3319   31.9506 H   0  0  0  0  0  0  0  0  0  0  0  0
   41.7449   24.0099   35.6257 H   0  0  0  0  0  0  0  0  0  0  0  0
   42.5788   22.4531   35.2207 H   0  0  0  0  0  0  0  0  0  0  0  0
   42.8730   25.3332   37.5771 H   0  0  0  0  0  0  0  0  0  0  0  0
   45.0033   26.2216   38.3164 H   0  0  0  0  0  0  0  0  0  0  0  0
   47.9897   23.0633   38.5295 H   0  0  0  0  0  0  0  0  0  0  0  0
   50.3621   23.7515   38.7581 H   0  0  0  0  0  0  0  0  0  0  0  0
   49.6749   27.2978   36.5938 H   0  0  0  0  0  0  0  0  0  0  0  0
  2  3  2  0
  2  7  1  0
  3  4  1  0
  4  1  1  0
  4  5  2  0
  6  5  1  0
  7  6  2  0
  8  9  2  0
  8  2  1  0
 10  9  1  0
 11 12  1  0
 11 10  2  0
 12  8  1  0
 13 14  1  0
 13  1  1  0
 14 15  2  0
 15 16  1  0
 17 19  1  0
 17 16  2  0
 18 14  1  0
 18 17  1  0
 19 20  2  0
 20 21  1  0
 22 21  2  0
 23 22  1  0
 24 23  2  0
 24 19  1  0
  1 25  1  0
  1 26  1  0
  3 27  1  0
  6 28  1  0
  9 29  1  0
 10 30  1  0
 11 31  1  0
 13 32  1  0
 13 33  1  0
 15 34  1  0
 16 35  1  0
 20 36  1  0
 21 37  1  0
 23 38  1  0
M  ISO  8  25   8  26   8  27  14  28  14  29  14  30  14  31  14  32   8
M  ISO  6  33   8  34  14  35  14  36  14  37  14  38  14
M  END
>  <minimizedAffinity>  (1) 
-5.30171251

>  <minimizedRMSD>  (1) 
1.08906889

$$$$
