
     RDKit          3D

 38 41  0  0  0  0  0  0  0  0999 V2000
   41.6530   22.2990   37.1860 C   0  0  0  0  0  0  0  0  0  0  0  0
   38.1120   22.2440   35.9280 C   0  0  0  0  0  0  0  0  0  0  0  0
   39.4850   22.0290   36.0010 C   0  0  0  0  0  0  0  0  0  0  0  0
   40.2010   22.5110   37.0800 C   0  0  0  0  0  0  0  0  0  0  0  0
   39.5370   23.1840   38.0410 N   0  0  0  0  0  0  0  0  0  0  0  0
   38.2020   23.3920   37.9680 C   0  0  0  0  0  0  0  0  0  0  0  0
   37.4770   22.9350   36.9300 N   0  0  0  0  0  0  0  0  0  0  0  0
   37.2640   21.7960   34.8640 C   0  0  0  0  0  0  0  0  0  0  0  0
   36.1780   20.9400   35.1030 C   0  0  0  0  0  0  0  0  0  0  0  0
   35.5490   20.6850   33.8890 C   0  0  0  0  0  0  0  0  0  0  0  0
   36.2750   21.3870   32.9910 C   0  0  0  0  0  0  0  0  0  0  0  0
   37.2660   22.0230   33.5970 O   0  0  0  0  0  0  0  0  0  0  0  0
   42.4320   22.7900   35.9980 C   0  0  0  0  0  0  0  0  0  0  0  0
   43.6530   23.5570   36.4050 C   0  0  0  0  0  0  0  0  0  0  0  0
   43.6250   24.6810   37.1330 C   0  0  0  0  0  0  0  0  0  0  0  0
   44.7590   25.3420   37.4830 C   0  0  0  0  0  0  0  0  0  0  0  0
   45.9960   24.7460   37.0150 C   0  0  0  0  0  0  0  0  0  0  0  0
   45.3750   23.2390   36.0830 S   0  0  0  0  0  0  0  0  0  0  0  0
   47.3320   25.1420   37.1800 C   0  0  0  0  0  0  0  0  0  0  0  0
   48.2670   24.3650   37.8330 C   0  0  0  0  0  0  0  0  0  0  0  0
   49.5450   24.8760   37.9240 C   0  0  0  0  0  0  0  0  0  0  0  0
   49.8570   26.0690   37.4000 N   0  0  0  0  0  0  0  0  0  0  0  0
   48.9350   26.8160   36.7660 C   0  0  0  0  0  0  0  0  0  0  0  0
   47.6620   26.3370   36.6610 N   0  0  0  0  0  0  0  0  0  0  0  0
   42.0153   22.8283   38.0797 H   0  0  0  0  0  0  0  0  0  0  0  0
   41.8121   21.2121   37.2431 H   0  0  0  0  0  0  0  0  0  0  0  0
   39.9994   21.4763   35.2011 H   0  0  0  0  0  0  0  0  0  0  0  0
   37.6986   23.9462   38.7739 H   0  0  0  0  0  0  0  0  0  0  0  0
   35.8761   20.5396   36.0820 H   0  0  0  0  0  0  0  0  0  0  0  0
   34.6651   20.0572   33.7029 H   0  0  0  0  0  0  0  0  0  0  0  0
   36.0718   21.4248   31.9106 H   0  0  0  0  0  0  0  0  0  0  0  0
   41.7855   23.4452   35.3957 H   0  0  0  0  0  0  0  0  0  0  0  0
   42.7589   21.9129   35.4202 H   0  0  0  0  0  0  0  0  0  0  0  0
   42.6532   25.0814   37.4576 H   0  0  0  0  0  0  0  0  0  0  0  0
   44.7405   26.2656   38.0802 H   0  0  0  0  0  0  0  0  0  0  0  0
   48.0058   23.3856   38.2602 H   0  0  0  0  0  0  0  0  0  0  0  0
   50.3236   24.2924   38.4370 H   0  0  0  0  0  0  0  0  0  0  0  0
   49.2026   27.7944   36.3404 H   0  0  0  0  0  0  0  0  0  0  0  0
  2  3  2  0
  2  7  1  0
  3  4  1  0
  4  1  1  0
  4  5  2  0
  6  5  1  0
  7  6  2  0
  8  9  2  0
  8  2  1  0
 10  9  1  0
 11 12  1  0
 11 10  2  0
 12  8  1  0
 13 14  1  0
 13  1  1  0
 14 15  2  0
 15 16  1  0
 17 19  1  0
 17 16  2  0
 18 14  1  0
 18 17  1  0
 19 20  2  0
 20 21  1  0
 22 21  2  0
 23 22  1  0
 24 23  2  0
 24 19  1  0
  1 25  1  0
  1 26  1  0
  3 27  1  0
  6 28  1  0
  9 29  1  0
 10 30  1  0
 11 31  1  0
 13 32  1  0
 13 33  1  0
 15 34  1  0
 16 35  1  0
 20 36  1  0
 21 37  1  0
 23 38  1  0
M  ISO  8  25   8  26   8  27  14  28  14  29  14  30  14  31  14  32   8
M  ISO  6  33   8  34  14  35  14  36  14  37  14  38  14
M  END
>  <minimizedAffinity>  (1) 
-5.26640177

>  <minimizedRMSD>  (1) 
0.96487391

$$$$
