
     RDKit          3D

 36 39  0  0  0  0  0  0  0  0999 V2000
   41.6470   22.3150   37.2910 C   0  0  0  0  0  0  0  0  0  0  0  0
   38.1320   22.2530   35.9820 C   0  0  0  0  0  0  0  0  0  0  0  0
   39.5060   22.0440   36.0880 C   0  0  0  0  0  0  0  0  0  0  0  0
   40.2050   22.5300   37.1700 C   0  0  0  0  0  0  0  0  0  0  0  0
   39.5210   23.2070   38.1090 N   0  0  0  0  0  0  0  0  0  0  0  0
   38.1910   23.4120   38.0090 C   0  0  0  0  0  0  0  0  0  0  0  0
   37.4800   22.9470   36.9630 N   0  0  0  0  0  0  0  0  0  0  0  0
   37.3000   21.7950   34.9060 C   0  0  0  0  0  0  0  0  0  0  0  0
   36.1940   20.9680   35.1260 C   0  0  0  0  0  0  0  0  0  0  0  0
   35.5850   20.6890   33.9210 C   0  0  0  0  0  0  0  0  0  0  0  0
   36.3490   21.3620   33.0180 C   0  0  0  0  0  0  0  0  0  0  0  0
   37.3430   21.9980   33.6300 O   0  0  0  0  0  0  0  0  0  0  0  0
   42.4380   22.6350   36.0680 C   0  0  0  0  0  0  0  0  0  0  0  0
   43.6600   23.4430   36.3580 C   0  0  0  0  0  0  0  0  0  0  0  0
   43.6610   24.6040   37.0240 C   0  0  0  0  0  0  0  0  0  0  0  0
   44.7980   25.3010   37.2640 C   0  0  0  0  0  0  0  0  0  0  0  0
   46.0150   24.6960   36.7480 C   0  0  0  0  0  0  0  0  0  0  0  0
   45.3650   23.1310   35.9410 S   0  0  0  0  0  0  0  0  0  0  0  0
   47.3260   25.0760   36.7830 N   0  0  0  0  0  0  0  0  0  0  0  0
   48.4820   24.4590   36.4240 C   0  0  0  0  0  0  0  0  0  0  0  0
   49.4950   25.3120   36.6780 N   0  0  0  0  0  0  0  0  0  0  0  0
   48.9890   26.4510   37.1900 C   0  0  0  0  0  0  0  0  0  0  0  0
   47.6680   26.2750   37.2390 N   0  0  0  0  0  0  0  0  0  0  0  0
   42.0181   22.9461   38.1119 H   0  0  0  0  0  0  0  0  0  0  0  0
   41.7827   21.2384   37.4712 H   0  0  0  0  0  0  0  0  0  0  0  0
   40.0358   21.4867   35.3014 H   0  0  0  0  0  0  0  0  0  0  0  0
   37.6741   23.9730   38.8015 H   0  0  0  0  0  0  0  0  0  0  0  0
   35.8618   20.5979   36.1072 H   0  0  0  0  0  0  0  0  0  0  0  0
   34.6947   20.0705   33.7342 H   0  0  0  0  0  0  0  0  0  0  0  0
   36.1691   21.3775   31.9329 H   0  0  0  0  0  0  0  0  0  0  0  0
   41.7987   23.2025   35.3757 H   0  0  0  0  0  0  0  0  0  0  0  0
   42.7701   21.6812   35.6322 H   0  0  0  0  0  0  0  0  0  0  0  0
   42.7048   25.0067   37.3895 H   0  0  0  0  0  0  0  0  0  0  0  0
   44.8000   26.2559   37.8100 H   0  0  0  0  0  0  0  0  0  0  0  0
   48.5747   23.4472   36.0026 H   0  0  0  0  0  0  0  0  0  0  0  0
   49.5506   27.3434   37.5034 H   0  0  0  0  0  0  0  0  0  0  0  0
  2  3  2  0
  2  7  1  0
  3  4  1  0
  4  1  1  0
  4  5  2  0
  6  5  1  0
  7  6  2  0
  8  9  2  0
  8  2  1  0
 10  9  1  0
 11 12  1  0
 11 10  2  0
 12  8  1  0
 13 14  1  0
 13  1  1  0
 14 15  2  0
 15 16  1  0
 17 19  1  0
 17 16  2  0
 18 14  1  0
 18 17  1  0
 19 23  1  0
 20 21  2  0
 20 19  1  0
 21 22  1  0
 22 23  2  0
  1 24  1  0
  1 25  1  0
  3 26  1  0
  6 27  1  0
  9 28  1  0
 10 29  1  0
 11 30  1  0
 13 31  1  0
 13 32  1  0
 15 33  1  0
 16 34  1  0
 20 35  1  0
 22 36  1  0
M  ISO  8  24   8  25   8  26  14  27  14  28  14  29  14  30  14  31   8
M  ISO  5  32   8  33  14  34  14  35  14  36  14
M  END
>  <minimizedAffinity>  (1) 
-5.0362711

>  <minimizedRMSD>  (1) 
0.811276257

$$$$
