
     RDKit          3D

 35 38  0  0  0  0  0  0  0  0999 V2000
   41.7780   22.4140   37.0430 C   0  0  0  0  0  0  0  0  0  0  0  0
   38.1910   22.2560   35.9430 C   0  0  0  0  0  0  0  0  0  0  0  0
   39.5770   22.0980   35.9500 C   0  0  0  0  0  0  0  0  0  0  0  0
   40.3170   22.5640   37.0050 C   0  0  0  0  0  0  0  0  0  0  0  0
   39.6680   23.1750   38.0290 N   0  0  0  0  0  0  0  0  0  0  0  0
   38.3340   23.3240   38.0170 C   0  0  0  0  0  0  0  0  0  0  0  0
   37.5710   22.8760   36.9930 N   0  0  0  0  0  0  0  0  0  0  0  0
   37.3230   21.8010   34.8820 C   0  0  0  0  0  0  0  0  0  0  0  0
   36.2210   20.9680   35.1690 C   0  0  0  0  0  0  0  0  0  0  0  0
   35.5760   20.6940   33.9670 C   0  0  0  0  0  0  0  0  0  0  0  0
   36.2960   21.3560   33.0420 C   0  0  0  0  0  0  0  0  0  0  0  0
   37.3090   21.9900   33.6170 O   0  0  0  0  0  0  0  0  0  0  0  0
   42.4970   23.1970   35.9730 C   0  0  0  0  0  0  0  0  0  0  0  0
   43.7730   23.7950   36.4760 C   0  0  0  0  0  0  0  0  0  0  0  0
   43.8290   24.8650   37.2790 C   0  0  0  0  0  0  0  0  0  0  0  0
   44.9680   25.3880   37.7360 C   0  0  0  0  0  0  0  0  0  0  0  0
   46.1690   24.7020   37.2950 C   0  0  0  0  0  0  0  0  0  0  0  0
   45.4890   23.3150   36.2160 S   0  0  0  0  0  0  0  0  0  0  0  0
   47.5620   24.8890   37.5160 C   0  0  0  0  0  0  0  0  0  0  0  0
   48.4490   25.8260   37.1540 N   0  0  0  0  0  0  0  0  0  0  0  0
   49.6240   25.5580   37.6020 O   0  0  0  0  0  0  0  0  0  0  0  0
   49.5680   24.4270   38.2840 C   0  0  0  0  0  0  0  0  0  0  0  0
   48.2900   24.0100   38.2300 N   0  0  0  0  0  0  0  0  0  0  0  0
   42.1367   22.7573   38.0245 H   0  0  0  0  0  0  0  0  0  0  0  0
   41.9963   21.3508   36.8641 H   0  0  0  0  0  0  0  0  0  0  0  0
   40.0768   21.5984   35.1070 H   0  0  0  0  0  0  0  0  0  0  0  0
   37.8460   23.8257   38.8656 H   0  0  0  0  0  0  0  0  0  0  0  0
   35.9253   20.6015   36.1631 H   0  0  0  0  0  0  0  0  0  0  0  0
   34.6800   20.0759   33.8083 H   0  0  0  0  0  0  0  0  0  0  0  0
   36.0758   21.3692   31.9643 H   0  0  0  0  0  0  0  0  0  0  0  0
   41.8394   24.0065   35.6232 H   0  0  0  0  0  0  0  0  0  0  0  0
   42.7461   22.5044   35.1555 H   0  0  0  0  0  0  0  0  0  0  0  0
   42.8829   25.3394   37.5786 H   0  0  0  0  0  0  0  0  0  0  0  0
   44.9950   26.2688   38.3944 H   0  0  0  0  0  0  0  0  0  0  0  0
   50.4027   23.9252   38.7954 H   0  0  0  0  0  0  0  0  0  0  0  0
  2  3  2  0
  2  7  1  0
  3  4  1  0
  4  1  1  0
  4  5  2  0
  6  5  1  0
  7  6  2  0
  8  9  2  0
  8  2  1  0
 10  9  1  0
 11 12  1  0
 11 10  2  0
 12  8  1  0
 13 14  1  0
 13  1  1  0
 14 15  2  0
 15 16  1  0
 17 19  1  0
 17 16  2  0
 18 14  1  0
 18 17  1  0
 19 23  1  0
 20 19  2  0
 20 21  1  0
 21 22  1  0
 23 22  2  0
  1 24  1  0
  1 25  1  0
  3 26  1  0
  6 27  1  0
  9 28  1  0
 10 29  1  0
 11 30  1  0
 13 31  1  0
 13 32  1  0
 15 33  1  0
 16 34  1  0
 22 35  1  0
M  ISO  8  24   8  25   8  26  14  27  14  28  14  29  14  30  14  31   8
M  ISO  4  32   8  33  14  34  14  35  14
M  END
>  <minimizedAffinity>  (1) 
-5.0465188

>  <minimizedRMSD>  (1) 
0.941963792

$$$$
