
     RDKit          3D

 36 39  0  0  0  0  0  0  0  0999 V2000
   41.6900   22.4760   37.1060 C   0  0  0  0  0  0  0  0  0  0  0  0
   38.1230   22.2640   35.9450 C   0  0  0  0  0  0  0  0  0  0  0  0
   39.5090   22.1230   35.9750 C   0  0  0  0  0  0  0  0  0  0  0  0
   40.2220   22.6120   37.0480 C   0  0  0  0  0  0  0  0  0  0  0  0
   39.5450   23.2230   38.0480 N   0  0  0  0  0  0  0  0  0  0  0  0
   38.2000   23.3570   38.0110 C   0  0  0  0  0  0  0  0  0  0  0  0
   37.4820   22.8870   36.9780 N   0  0  0  0  0  0  0  0  0  0  0  0
   37.2700   21.7970   34.8860 C   0  0  0  0  0  0  0  0  0  0  0  0
   36.1850   20.9500   35.1400 C   0  0  0  0  0  0  0  0  0  0  0  0
   35.5520   20.6680   33.9380 C   0  0  0  0  0  0  0  0  0  0  0  0
   36.2750   21.3520   33.0110 C   0  0  0  0  0  0  0  0  0  0  0  0
   37.2670   21.9930   33.6160 O   0  0  0  0  0  0  0  0  0  0  0  0
   42.4030   23.2130   35.9950 C   0  0  0  0  0  0  0  0  0  0  0  0
   43.7040   23.7880   36.4730 C   0  0  0  0  0  0  0  0  0  0  0  0
   43.8240   24.8680   37.2610 C   0  0  0  0  0  0  0  0  0  0  0  0
   45.0080   25.3420   37.6740 C   0  0  0  0  0  0  0  0  0  0  0  0
   46.1570   24.6070   37.2110 C   0  0  0  0  0  0  0  0  0  0  0  0
   45.3970   23.2530   36.1860 S   0  0  0  0  0  0  0  0  0  0  0  0
   47.5840   24.7310   37.3860 C   0  0  0  0  0  0  0  0  0  0  0  0
   48.3520   25.4070   36.4450 C   0  0  0  0  0  0  0  0  0  0  0  0
   50.0070   25.2670   37.1330 S   0  0  0  0  0  0  0  0  0  0  0  0
   49.3880   24.2860   38.6320 C   0  0  0  0  0  0  0  0  0  0  0  0
   48.0810   24.1770   38.4640 N   0  0  0  0  0  0  0  0  0  0  0  0
   42.0398   22.8743   38.0699 H   0  0  0  0  0  0  0  0  0  0  0  0
   41.9231   21.4072   36.9901 H   0  0  0  0  0  0  0  0  0  0  0  0
   40.0316   21.6236   35.1459 H   0  0  0  0  0  0  0  0  0  0  0  0
   37.6845   23.8602   38.8423 H   0  0  0  0  0  0  0  0  0  0  0  0
   35.8843   20.5711   36.1279 H   0  0  0  0  0  0  0  0  0  0  0  0
   34.6673   20.0356   33.7725 H   0  0  0  0  0  0  0  0  0  0  0  0
   36.0698   21.3709   31.9305 H   0  0  0  0  0  0  0  0  0  0  0  0
   41.7599   24.0301   35.6360 H   0  0  0  0  0  0  0  0  0  0  0  0
   42.6141   22.5006   35.1839 H   0  0  0  0  0  0  0  0  0  0  0  0
   42.9093   25.3877   37.5824 H   0  0  0  0  0  0  0  0  0  0  0  0
   45.0957   26.2282   38.3198 H   0  0  0  0  0  0  0  0  0  0  0  0
   48.0295   25.9012   35.5167 H   0  0  0  0  0  0  0  0  0  0  0  0
   49.9885   23.8912   39.4648 H   0  0  0  0  0  0  0  0  0  0  0  0
  2  3  2  0
  2  7  1  0
  3  4  1  0
  4  1  1  0
  4  5  2  0
  6  5  1  0
  7  6  2  0
  8  9  2  0
  8  2  1  0
 10  9  1  0
 11 12  1  0
 11 10  2  0
 12  8  1  0
 13 14  1  0
 13  1  1  0
 14 15  2  0
 15 16  1  0
 17 19  1  0
 17 16  2  0
 18 14  1  0
 18 17  1  0
 19 23  1  0
 20 21  1  0
 20 19  2  0
 21 22  1  0
 23 22  2  0
  1 24  1  0
  1 25  1  0
  3 26  1  0
  6 27  1  0
  9 28  1  0
 10 29  1  0
 11 30  1  0
 13 31  1  0
 13 32  1  0
 15 33  1  0
 16 34  1  0
 20 35  1  0
 22 36  1  0
M  ISO  8  24   8  25   8  26  14  27  14  28  14  29  14  30  14  31   8
M  ISO  5  32   8  33  14  34  14  35  14  36  14
M  END
>  <minimizedAffinity>  (1) 
-5.05483389

>  <minimizedRMSD>  (1) 
0.747822404

$$$$
