
     RDKit          3D

 37 40  0  0  0  0  0  0  0  0999 V2000
   38.0390   22.2660   35.9900 C   0  0  0  0  0  0  0  0  0  0  0  0
   39.4210   22.1600   36.0480 C   0  0  0  0  0  0  0  0  0  0  0  0
   40.1040   22.6750   37.1360 C   0  0  0  0  0  0  0  0  0  0  0  0
   39.3970   23.2760   38.1270 N   0  0  0  0  0  0  0  0  0  0  0  0
   38.0540   23.3750   38.0610 C   0  0  0  0  0  0  0  0  0  0  0  0
   37.3570   22.8790   37.0060 N   0  0  0  0  0  0  0  0  0  0  0  0
   37.2140   21.7790   34.9270 C   0  0  0  0  0  0  0  0  0  0  0  0
   36.1310   20.9280   35.1480 C   0  0  0  0  0  0  0  0  0  0  0  0
   35.5370   20.6390   33.9260 C   0  0  0  0  0  0  0  0  0  0  0  0
   36.2740   21.3140   33.0290 C   0  0  0  0  0  0  0  0  0  0  0  0
   37.2460   21.9710   33.6440 O   0  0  0  0  0  0  0  0  0  0  0  0
   41.5740   22.5740   37.2160 C   0  0  0  0  0  0  0  0  0  0  0  0
   42.2840   23.2210   36.0510 C   0  0  0  0  0  0  0  0  0  0  0  0
   43.6720   23.6570   36.4130 C   0  0  0  0  0  0  0  0  0  0  0  0
   43.9040   24.7220   37.1870 C   0  0  0  0  0  0  0  0  0  0  0  0
   45.0870   25.1610   37.5610 C   0  0  0  0  0  0  0  0  0  0  0  0
   46.2110   24.3570   37.0400 C   0  0  0  0  0  0  0  0  0  0  0  0
   45.2920   23.0270   36.0400 S   0  0  0  0  0  0  0  0  0  0  0  0
   47.6810   24.3170   37.0830 C   0  0  0  0  0  0  0  0  0  0  0  0
   48.3380   24.3470   38.3890 C   0  0  0  0  0  0  0  0  0  0  0  0
   48.3640   25.5610   37.4660 C   0  0  0  0  0  0  0  0  0  0  0  0
   39.9718   21.6686   35.2325 H   0  0  0  0  0  0  0  0  0  0  0  0
   37.5105   23.8686   38.8801 H   0  0  0  0  0  0  0  0  0  0  0  0
   35.8022   20.5489   36.1269 H   0  0  0  0  0  0  0  0  0  0  0  0
   34.6610   20.0014   33.7360 H   0  0  0  0  0  0  0  0  0  0  0  0
   36.0966   21.3204   31.9434 H   0  0  0  0  0  0  0  0  0  0  0  0
   41.9072   23.0637   38.1429 H   0  0  0  0  0  0  0  0  0  0  0  0
   41.8274   21.5038   37.1968 H   0  0  0  0  0  0  0  0  0  0  0  0
   41.7080   24.1007   35.7279 H   0  0  0  0  0  0  0  0  0  0  0  0
   42.3603   22.4778   35.2436 H   0  0  0  0  0  0  0  0  0  0  0  0
   43.0269   25.2820   37.5435 H   0  0  0  0  0  0  0  0  0  0  0  0
   45.2257   26.0443   38.2018 H   0  0  0  0  0  0  0  0  0  0  0  0
   47.7462   23.6336   36.2235 H   0  0  0  0  0  0  0  0  0  0  0  0
   47.7370   24.3654   39.3101 H   0  0  0  0  0  0  0  0  0  0  0  0
   49.0950   23.7342   38.9003 H   0  0  0  0  0  0  0  0  0  0  0  0
   49.2979   25.8573   36.9659 H   0  0  0  0  0  0  0  0  0  0  0  0
   48.0806   26.6205   37.5509 H   0  0  0  0  0  0  0  0  0  0  0  0
  1  2  2  0
  1  6  1  0
  2  3  1  0
  3 12  1  0
  3  4  2  0
  5  4  1  0
  6  5  2  0
  7  8  2  0
  7  1  1  0
  9  8  1  0
 10 11  1  0
 10  9  2  0
 11  7  1  0
 13 14  1  0
 13 12  1  0
 14 15  2  0
 15 16  1  0
 17 19  1  0
 17 16  2  0
 18 14  1  0
 18 17  1  0
 19 21  1  0
 19 20  1  0
 21 20  1  0
  2 22  1  0
  5 23  1  0
  8 24  1  0
  9 25  1  0
 10 26  1  0
 12 27  1  0
 12 28  1  0
 13 29  1  0
 13 30  1  0
 15 31  1  0
 16 32  1  0
 19 33  1  0
 20 34  1  0
 20 35  1  0
 21 36  1  0
 21 37  1  0
M  ISO  8  22  14  23  14  24  14  25  14  26  14  27   8  28   8  29   8
M  ISO  8  30   8  31  14  32  14  33  13  34  13  35  13  36  13  37  13
M  END
>  <minimizedAffinity>  (1) 
-5.14297628

>  <minimizedRMSD>  (1) 
0.391540736

$$$$
