
     RDKit          3D

 33 34  0  0  1  0  0  0  0  0999 V2000
   38.1910   24.1440   35.3440 C   0  0  0  0  0  0  0  0  0  0  0  0
   39.3760   23.8280   36.1050 N   0  0  0  0  0  0  0  0  0  0  0  0
   40.2080   22.8850   35.3310 C   0  0  0  0  0  0  0  0  0  0  0  0
   41.1930   22.4180   36.3740 C   0  0  0  0  0  0  0  0  0  0  0  0
   40.4690   22.6100   37.7210 C   0  0  0  0  0  0  0  0  0  0  0  0
   39.0750   22.9810   37.2260 C   0  0  1  0  0  0  0  0  0  0  0  0
   38.3950   23.6830   38.3600 C   0  0  0  0  0  0  0  0  0  0  0  0
   39.1410   23.8390   39.4900 F   0  0  0  0  0  0  0  0  0  0  0  0
   37.1830   23.0660   38.5940 F   0  0  0  0  0  0  0  0  0  0  0  0
   38.0750   24.9870   37.9460 F   0  0  0  0  0  0  0  0  0  0  0  0
   38.4770   25.0290   34.1880 C   0  0  0  0  0  0  0  0  0  0  0  0
   36.6850   22.9250   31.6630 C   0  0  0  0  0  0  0  0  0  0  0  0
   37.5180   23.3630   32.6980 C   0  0  0  0  0  0  0  0  0  0  0  0
   37.5680   24.6670   33.0790 C   0  0  0  0  0  0  0  0  0  0  0  0
   36.7720   25.5440   32.4130 N   0  0  0  0  0  0  0  0  0  0  0  0
   35.9630   25.1400   31.4150 C   0  0  0  0  0  0  0  0  0  0  0  0
   35.9100   23.8760   31.0400 N   0  0  0  0  0  0  0  0  0  0  0  0
   35.2010   26.1960   30.8290 N   0  0  0  0  0  0  0  0  0  0  0  0
   37.7513   23.2073   34.9708 H   0  0  0  0  0  0  0  0  0  0  0  0
   37.4984   24.6786   36.0107 H   0  0  0  0  0  0  0  0  0  0  0  0
   39.6092   22.0483   34.9420 H   0  0  0  0  0  0  0  0  0  0  0  0
   40.6775   23.3304   34.4415 H   0  0  0  0  0  0  0  0  0  0  0  0
   41.4470   21.3590   36.2191 H   0  0  0  0  0  0  0  0  0  0  0  0
   42.1385   22.9785   36.3296 H   0  0  0  0  0  0  0  0  0  0  0  0
   40.4579   21.6833   38.3136 H   0  0  0  0  0  0  0  0  0  0  0  0
   40.9319   23.3474   38.3933 H   0  0  0  0  0  0  0  0  0  0  0  0
   38.4039   22.1637   36.9233 H   0  0  0  0  0  0  0  0  0  0  0  0
   38.3119   26.0780   34.4749 H   0  0  0  0  0  0  0  0  0  0  0  0
   39.5232   24.9062   33.8711 H   0  0  0  0  0  0  0  0  0  0  0  0
   36.6511   21.8679   31.3608 H   0  0  0  0  0  0  0  0  0  0  0  0
   38.1516   22.6303   33.2192 H   0  0  0  0  0  0  0  0  0  0  0  0
   34.5502   25.9942   30.0566 H   0  0  0  0  0  0  0  0  0  0  0  0
   35.3021   27.1595   31.1788 H   0  0  0  0  0  0  0  0  0  0  0  0
  1  2  1  0
  2  6  1  0
  3  2  1  0
  3  4  1  0
  4  5  1  0
  6  5  1  0
  6  7  1  0
  7  9  1  0
  7  8  1  0
 10  7  1  0
 11  1  1  0
 12 13  2  0
 13 14  1  0
 14 11  1  0
 15 14  2  0
 16 15  1  0
 17 16  2  0
 17 12  1  0
 18 16  1  0
  1 19  1  0
  1 20  1  0
  3 21  1  0
  3 22  1  0
  4 23  1  0
  4 24  1  0
  5 25  1  0
  5 26  1  0
  6 27  1  6
 11 28  1  0
 11 29  1  0
 12 30  1  0
 13 31  1  0
 18 32  1  0
 18 33  1  0
M  ISO  8  19   8  20   8  21  13  22  13  23  13  24  13  25  13  26  13
M  ISO  5  27  13  28   8  29   8  30  14  31  14
M  END
>  <minimizedAffinity>  (1) 
-4.90659428

>  <minimizedRMSD>  (1) 
0.0795891583

$$$$
