
     RDKit          3D

 31 33  0  0  0  0  0  0  0  0999 V2000
   37.9720   22.2750   35.9510 C   0  0  0  0  0  0  0  0  0  0  0  0
   39.3590   22.1970   36.0200 C   0  0  0  0  0  0  0  0  0  0  0  0
   40.0340   22.6970   37.1000 C   0  0  0  0  0  0  0  0  0  0  0  0
   39.3150   23.2640   38.0930 N   0  0  0  0  0  0  0  0  0  0  0  0
   37.9700   23.3410   38.0290 C   0  0  0  0  0  0  0  0  0  0  0  0
   37.2830   22.8590   36.9820 N   0  0  0  0  0  0  0  0  0  0  0  0
   37.1650   21.7820   34.8620 C   0  0  0  0  0  0  0  0  0  0  0  0
   36.0990   20.8840   35.0990 C   0  0  0  0  0  0  0  0  0  0  0  0
   35.5110   20.5860   33.8880 C   0  0  0  0  0  0  0  0  0  0  0  0
   36.2350   21.3050   32.9830 C   0  0  0  0  0  0  0  0  0  0  0  0
   37.1880   21.9850   33.6010 O   0  0  0  0  0  0  0  0  0  0  0  0
   41.4970   22.6370   37.2140 C   0  0  0  0  0  0  0  0  0  0  0  0
   42.2280   23.1660   36.0320 C   0  0  0  0  0  0  0  0  0  0  0  0
   43.6460   23.5010   36.3270 C   0  0  0  0  0  0  0  0  0  0  0  0
   44.0070   24.5860   37.0680 C   0  0  0  0  0  0  0  0  0  0  0  0
   45.3100   24.8550   37.3020 C   0  0  0  0  0  0  0  0  0  0  0  0
   46.2810   23.9290   36.7250 C   0  0  0  0  0  0  0  0  0  0  0  0
   45.1700   22.6790   35.8420 S   0  0  0  0  0  0  0  0  0  0  0  0
   47.9990   23.8130   36.7210 S   0  0  0  0  0  0  0  0  0  0  0  0
   39.9192   21.7283   35.1975 H   0  0  0  0  0  0  0  0  0  0  0  0
   37.4211   23.8119   38.8579 H   0  0  0  0  0  0  0  0  0  0  0  0
   35.7920   20.4912   36.0795 H   0  0  0  0  0  0  0  0  0  0  0  0
   34.6555   19.9217   33.6961 H   0  0  0  0  0  0  0  0  0  0  0  0
   36.0536   21.3180   31.8981 H   0  0  0  0  0  0  0  0  0  0  0  0
   41.7977   23.2231   38.0949 H   0  0  0  0  0  0  0  0  0  0  0  0
   41.7618   21.5725   37.2960 H   0  0  0  0  0  0  0  0  0  0  0  0
   41.7182   24.0762   35.6833 H   0  0  0  0  0  0  0  0  0  0  0  0
   42.2293   22.3765   35.2660 H   0  0  0  0  0  0  0  0  0  0  0  0
   43.2310   25.2484   37.4791 H   0  0  0  0  0  0  0  0  0  0  0  0
   45.6234   25.7261   37.8962 H   0  0  0  0  0  0  0  0  0  0  0  0
   48.4576   23.7820   38.0116 H   0  0  0  0  0  0  0  0  0  0  0  0
  1  2  2  0
  1  6  1  0
  2  3  1  0
  3 12  1  0
  3  4  2  0
  5  4  1  0
  6  5  2  0
  7  8  2  0
  7  1  1  0
  9  8  1  0
 10 11  1  0
 10  9  2  0
 11  7  1  0
 13 14  1  0
 13 12  1  0
 14 15  2  0
 15 16  1  0
 17 16  2  0
 18 14  1  0
 18 17  1  0
 19 17  1  0
  2 20  1  0
  5 21  1  0
  8 22  1  0
  9 23  1  0
 10 24  1  0
 12 25  1  0
 12 26  1  0
 13 27  1  0
 13 28  1  0
 15 29  1  0
 16 30  1  0
 19 31  1  0
M  ISO  8  20  14  21  14  22  14  23  14  24  14  25   8  26   8  27   8
M  ISO  4  28   8  29  14  30  14  31  11
M  END
>  <minimizedAffinity>  (1) 
-4.82724047

>  <minimizedRMSD>  (1) 
0.0799481496

$$$$
