
     RDKit          3D

 32 34  0  0  0  0  0  0  0  0999 V2000
   37.9620   22.2800   36.0270 C   0  0  0  0  0  0  0  0  0  0  0  0
   39.3610   22.1890   36.0680 C   0  0  0  0  0  0  0  0  0  0  0  0
   40.0320   22.7050   37.1560 C   0  0  0  0  0  0  0  0  0  0  0  0
   39.3190   23.2830   38.1490 N   0  0  0  0  0  0  0  0  0  0  0  0
   37.9630   23.3600   38.0880 C   0  0  0  0  0  0  0  0  0  0  0  0
   37.2820   22.8670   37.0430 N   0  0  0  0  0  0  0  0  0  0  0  0
   37.1590   21.7740   34.9390 C   0  0  0  0  0  0  0  0  0  0  0  0
   36.0820   20.8920   35.1820 C   0  0  0  0  0  0  0  0  0  0  0  0
   35.4990   20.5760   33.9650 C   0  0  0  0  0  0  0  0  0  0  0  0
   36.2330   21.2660   33.0580 C   0  0  0  0  0  0  0  0  0  0  0  0
   37.1920   21.9530   33.6650 O   0  0  0  0  0  0  0  0  0  0  0  0
   41.4980   22.6360   37.2500 C   0  0  0  0  0  0  0  0  0  0  0  0
   42.2150   23.1650   36.0400 C   0  0  0  0  0  0  0  0  0  0  0  0
   43.6360   23.5190   36.3280 C   0  0  0  0  0  0  0  0  0  0  0  0
   44.0300   24.5650   37.0580 C   0  0  0  0  0  0  0  0  0  0  0  0
   45.3150   24.8470   37.3010 C   0  0  0  0  0  0  0  0  0  0  0  0
   46.2790   23.9350   36.7150 C   0  0  0  0  0  0  0  0  0  0  0  0
   45.1620   22.7090   35.8350 S   0  0  0  0  0  0  0  0  0  0  0  0
   47.6360   23.8270   36.6950 N   0  0  0  0  0  0  0  0  0  0  0  0
   39.9142   21.7133   35.2448 H   0  0  0  0  0  0  0  0  0  0  0  0
   37.4130   23.8365   38.9129 H   0  0  0  0  0  0  0  0  0  0  0  0
   35.7618   20.5205   36.1666 H   0  0  0  0  0  0  0  0  0  0  0  0
   34.6385   19.9168   33.7781 H   0  0  0  0  0  0  0  0  0  0  0  0
   36.0582   21.2575   31.9720 H   0  0  0  0  0  0  0  0  0  0  0  0
   41.8163   23.2227   38.1243 H   0  0  0  0  0  0  0  0  0  0  0  0
   41.7611   21.5713   37.3349 H   0  0  0  0  0  0  0  0  0  0  0  0
   41.6919   24.0653   35.6854 H   0  0  0  0  0  0  0  0  0  0  0  0
   42.2157   22.3717   35.2780 H   0  0  0  0  0  0  0  0  0  0  0  0
   43.2602   25.2276   37.4805 H   0  0  0  0  0  0  0  0  0  0  0  0
   45.6206   25.7137   37.9056 H   0  0  0  0  0  0  0  0  0  0  0  0
   48.0836   23.0533   36.1832 H   0  0  0  0  0  0  0  0  0  0  0  0
   48.2151   24.5190   37.1917 H   0  0  0  0  0  0  0  0  0  0  0  0
  1  2  2  0
  1  6  1  0
  2  3  1  0
  3 12  1  0
  3  4  2  0
  5  4  1  0
  6  5  2  0
  7  8  2  0
  7  1  1  0
  9  8  1  0
 10 11  1  0
 10  9  2  0
 11  7  1  0
 13 14  1  0
 13 12  1  0
 14 15  2  0
 15 16  1  0
 17 16  2  0
 18 14  1  0
 18 17  1  0
 19 17  1  0
  2 20  1  0
  5 21  1  0
  8 22  1  0
  9 23  1  0
 10 24  1  0
 12 25  1  0
 12 26  1  0
 13 27  1  0
 13 28  1  0
 15 29  1  0
 16 30  1  0
 19 31  1  0
 19 32  1  0
M  ISO  8  20  14  21  14  22  14  23  14  24  14  25   8  26   8  27   8
M  ISO  3  28   8  29  14  30  14
M  END
>  <minimizedAffinity>  (1) 
-4.87152052

>  <minimizedRMSD>  (1) 
0.0437726714

$$$$
