
     RDKit          3D

 37 39  0  0  0  0  0  0  0  0999 V2000
   41.5220   22.5210   37.4110 C   0  0  0  0  0  0  0  0  0  0  0  0
   38.0310   22.2790   36.0580 C   0  0  0  0  0  0  0  0  0  0  0  0
   39.4140   22.1400   36.1640 C   0  0  0  0  0  0  0  0  0  0  0  0
   40.0680   22.6510   37.2670 C   0  0  0  0  0  0  0  0  0  0  0  0
   39.3360   23.2750   38.2150 N   0  0  0  0  0  0  0  0  0  0  0  0
   37.9970   23.4060   38.1050 C   0  0  0  0  0  0  0  0  0  0  0  0
   37.3290   22.9230   37.0470 N   0  0  0  0  0  0  0  0  0  0  0  0
   37.2420   21.7930   34.9630 C   0  0  0  0  0  0  0  0  0  0  0  0
   36.1340   20.9550   35.1690 C   0  0  0  0  0  0  0  0  0  0  0  0
   35.5820   20.6570   33.9330 C   0  0  0  0  0  0  0  0  0  0  0  0
   36.3600   21.3120   33.0550 C   0  0  0  0  0  0  0  0  0  0  0  0
   37.3290   21.9720   33.6850 O   0  0  0  0  0  0  0  0  0  0  0  0
   42.2790   22.6550   36.1090 C   0  0  0  0  0  0  0  0  0  0  0  0
   43.5580   23.4130   36.2970 C   0  0  0  0  0  0  0  0  0  0  0  0
   43.6180   24.6340   36.8430 C   0  0  0  0  0  0  0  0  0  0  0  0
   44.7810   25.3060   37.0130 C   0  0  0  0  0  0  0  0  0  0  0  0
   45.9670   24.5990   36.5580 C   0  0  0  0  0  0  0  0  0  0  0  0
   45.2490   22.9920   35.9130 S   0  0  0  0  0  0  0  0  0  0  0  0
   47.3080   24.8360   36.5120 N   0  0  0  0  0  0  0  0  0  0  0  0
   48.1180   24.9390   37.6770 C   0  0  0  0  0  0  0  0  0  0  0  0
   47.6130   24.4080   38.7630 N   0  0  0  0  0  0  0  0  0  0  0  0
   49.3900   25.6060   37.5370 N   0  0  0  0  0  0  0  0  0  0  0  0
   48.2500   24.5070   39.6040 H   0  0  0  0  0  0  0  0  0  0  0  0
   41.8737   23.3041   38.0987 H   0  0  0  0  0  0  0  0  0  0  0  0
   41.7167   21.5075   37.7917 H   0  0  0  0  0  0  0  0  0  0  0  0
   39.9807   21.6262   35.3735 H   0  0  0  0  0  0  0  0  0  0  0  0
   37.4406   23.9211   38.9019 H   0  0  0  0  0  0  0  0  0  0  0  0
   35.7677   20.5971   36.1425 H   0  0  0  0  0  0  0  0  0  0  0  0
   34.7058   20.0272   33.7194 H   0  0  0  0  0  0  0  0  0  0  0  0
   36.2158   21.3039   31.9645 H   0  0  0  0  0  0  0  0  0  0  0  0
   41.6496   23.1893   35.3822 H   0  0  0  0  0  0  0  0  0  0  0  0
   42.5241   21.6463   35.7451 H   0  0  0  0  0  0  0  0  0  0  0  0
   42.6819   25.1119   37.1675 H   0  0  0  0  0  0  0  0  0  0  0  0
   44.8251   26.3097   37.4609 H   0  0  0  0  0  0  0  0  0  0  0  0
   47.7560   24.9457   35.5911 H   0  0  0  0  0  0  0  0  0  0  0  0
   50.0118   25.7054   38.3521 H   0  0  0  0  0  0  0  0  0  0  0  0
   49.6761   25.9827   36.6220 H   0  0  0  0  0  0  0  0  0  0  0  0
  2  3  2  0
  2  7  1  0
  3  4  1  0
  4  1  1  0
  4  5  2  0
  6  5  1  0
  7  6  2  0
  8  9  2  0
  8  2  1  0
 10  9  1  0
 11 12  1  0
 11 10  2  0
 12  8  1  0
 13 14  1  0
 13  1  1  0
 14 15  2  0
 15 16  1  0
 17 16  2  0
 18 14  1  0
 18 17  1  0
 19 17  1  0
 19 20  1  0
 20 21  2  0
 21 23  1  0
 22 20  1  0
  1 24  1  0
  1 25  1  0
  3 26  1  0
  6 27  1  0
  9 28  1  0
 10 29  1  0
 11 30  1  0
 13 31  1  0
 13 32  1  0
 15 33  1  0
 16 34  1  0
 19 35  1  0
 22 36  1  0
 22 37  1  0
M  ISO  8  24   8  25   8  26  14  27  14  28  14  29  14  30  14  31   8
M  ISO  3  32   8  33  14  34  14
M  END
>  <minimizedAffinity>  (1) 
-4.99319267

>  <minimizedRMSD>  (1) 
0.68541491

$$$$
