
     RDKit          3D

 50 53  0  0  1  0  0  0  0  0999 V2000
   43.6640   23.7550   36.4480 C   0  0  0  0  0  0  0  0  0  0  0  0
   43.7340   24.8760   37.1620 C   0  0  0  0  0  0  0  0  0  0  0  0
   44.9150   25.3930   37.5550 C   0  0  0  0  0  0  0  0  0  0  0  0
   46.0850   24.6700   37.1590 C   0  0  0  0  0  0  0  0  0  0  0  0
   45.3660   23.2240   36.2020 S   0  0  0  0  0  0  0  0  0  0  0  0
   42.4070   23.0840   35.9580 C   0  0  0  0  0  0  0  0  0  0  0  0
   41.6650   22.4520   37.1260 C   0  0  0  0  0  0  0  0  0  0  0  0
   38.1050   22.2740   35.9560 C   0  0  0  0  0  0  0  0  0  0  0  0
   39.4880   22.1120   35.9780 C   0  0  0  0  0  0  0  0  0  0  0  0
   40.2090   22.5940   37.0490 C   0  0  0  0  0  0  0  0  0  0  0  0
   39.5290   23.2110   38.0420 N   0  0  0  0  0  0  0  0  0  0  0  0
   38.2020   23.3590   38.0060 C   0  0  0  0  0  0  0  0  0  0  0  0
   37.4610   22.8980   36.9710 N   0  0  0  0  0  0  0  0  0  0  0  0
   37.2600   21.7980   34.8690 C   0  0  0  0  0  0  0  0  0  0  0  0
   36.1630   20.9430   35.1560 C   0  0  0  0  0  0  0  0  0  0  0  0
   35.5430   20.6540   33.9360 C   0  0  0  0  0  0  0  0  0  0  0  0
   36.2820   21.3310   33.0240 C   0  0  0  0  0  0  0  0  0  0  0  0
   37.2830   21.9930   33.6060 O   0  0  0  0  0  0  0  0  0  0  0  0
   47.5060   24.8780   37.3910 C   0  0  1  0  0  0  0  0  0  0  0  0
   47.9450   26.2520   36.9770 C   0  0  0  0  0  0  0  0  0  0  0  0
   47.9450   24.5430   38.8120 C   0  0  0  0  0  0  0  0  0  0  0  0
   48.9340   23.5000   38.8180 N   0  0  0  0  0  0  0  0  0  0  0  0
   49.1240   22.7830   37.6780 C   0  0  0  0  0  0  0  0  0  0  0  0
   50.0330   21.7610   37.5040 C   0  0  0  0  0  0  0  0  0  0  0  0
   50.8190   21.4270   38.5650 C   0  0  0  0  0  0  0  0  0  0  0  0
   51.7850   20.3880   38.4860 N   0  0  0  0  0  0  0  0  0  0  0  0
   50.6350   22.1290   39.6870 N   0  0  0  0  0  0  0  0  0  0  0  0
   49.7440   23.1140   39.8170 C   0  0  0  0  0  0  0  0  0  0  0  0
   49.6180   23.7360   40.9060 O   0  0  0  0  0  0  0  0  0  0  0  0
   42.8038   25.3940   37.4385 H   0  0  0  0  0  0  0  0  0  0  0  0
   44.9762   26.3183   38.1467 H   0  0  0  0  0  0  0  0  0  0  0  0
   41.7592   23.8313   35.4765 H   0  0  0  0  0  0  0  0  0  0  0  0
   42.6749   22.3003   35.2340 H   0  0  0  0  0  0  0  0  0  0  0  0
   41.9078   21.3794   37.1514 H   0  0  0  0  0  0  0  0  0  0  0  0
   41.9903   22.9794   38.0348 H   0  0  0  0  0  0  0  0  0  0  0  0
   40.0004   21.6038   35.1478 H   0  0  0  0  0  0  0  0  0  0  0  0
   37.6976   23.8692   38.8398 H   0  0  0  0  0  0  0  0  0  0  0  0
   35.8590   20.5778   36.1481 H   0  0  0  0  0  0  0  0  0  0  0  0
   34.6597   20.0230   33.7580 H   0  0  0  0  0  0  0  0  0  0  0  0
   36.0820   21.3342   31.9423 H   0  0  0  0  0  0  0  0  0  0  0  0
   48.0235   24.1560   36.7423 H   0  0  0  0  0  0  0  0  0  0  0  0
   48.1393   26.8603   37.8727 H   0  0  0  0  0  0  0  0  0  0  0  0
   48.8643   26.1781   36.3774 H   0  0  0  0  0  0  0  0  0  0  0  0
   47.1532   26.7248   36.3774 H   0  0  0  0  0  0  0  0  0  0  0  0
   48.3708   25.4439   39.2778 H   0  0  0  0  0  0  0  0  0  0  0  0
   47.0668   24.1936   39.3748 H   0  0  0  0  0  0  0  0  0  0  0  0
   48.4939   23.0426   36.8145 H   0  0  0  0  0  0  0  0  0  0  0  0
   50.1203   21.2341   36.5424 H   0  0  0  0  0  0  0  0  0  0  0  0
   52.3640   20.1597   39.3067 H   0  0  0  0  0  0  0  0  0  0  0  0
   51.9062   19.8632   37.6081 H   0  0  0  0  0  0  0  0  0  0  0  0
  1  2  2  0
  2  3  1  0
  4 19  1  0
  4  3  2  0
  5  1  1  0
  5  4  1  0
  6  1  1  0
  6  7  1  0
  8  9  2  0
  8 13  1  0
  9 10  1  0
 10  7  1  0
 10 11  2  0
 12 11  1  0
 13 12  2  0
 14 15  2  0
 14  8  1  0
 16 15  1  0
 17 18  1  0
 17 16  2  0
 18 14  1  0
 19 21  1  0
 20 19  1  0
 21 22  1  0
 22 28  1  0
 23 22  1  0
 24 23  2  0
 24 25  1  0
 25 27  2  0
 26 25  1  0
 27 28  1  0
 28 29  2  0
  2 30  1  0
  3 31  1  0
  6 32  1  0
  6 33  1  0
  7 34  1  0
  7 35  1  0
  9 36  1  0
 12 37  1  0
 15 38  1  0
 16 39  1  0
 17 40  1  0
 19 41  1  6
 20 42  1  0
 20 43  1  0
 20 44  1  0
 21 45  1  0
 21 46  1  0
 23 47  1  0
 24 48  1  0
 26 49  1  0
 26 50  1  0
M  ISO  8  30  14  31  14  32   8  33   8  34   8  35   8  36  14  37  14
M  ISO  8  38  14  39  14  40  14  41   8  42   8  43   8  44   8  45   8
M  ISO  3  46   8  47  14  48  14
M  END
>  <minimizedAffinity>  (1) 
-5.18178225

>  <minimizedRMSD>  (1) 
1.57576692

$$$$
