
     RDKit          3D

 51 54  0  0  1  0  0  0  0  0999 V2000
   42.3160   22.8960   36.0380 C   0  0  0  0  0  0  0  0  0  0  0  0
   43.6550   23.5100   36.3340 C   0  0  0  0  0  0  0  0  0  0  0  0
   43.8650   24.5860   37.0920 C   0  0  0  0  0  0  0  0  0  0  0  0
   45.1030   25.0790   37.3050 C   0  0  0  0  0  0  0  0  0  0  0  0
   46.1800   24.3510   36.6520 C   0  0  0  0  0  0  0  0  0  0  0  0
   45.2830   22.9900   35.7680 S   0  0  0  0  0  0  0  0  0  0  0  0
   47.6110   24.5850   36.6810 C   0  0  1  0  0  0  0  0  0  0  0  0
   48.0170   25.7590   37.4960 C   0  0  0  0  0  0  0  0  0  0  0  0
   48.4200   23.3220   36.9870 C   0  0  0  0  0  0  0  0  0  0  0  0
   49.1850   23.5090   38.1400 N   0  0  0  0  0  0  0  0  0  0  0  0
   48.6420   23.7530   39.3910 C   0  0  0  0  0  0  0  0  0  0  0  0
   49.8180   23.8370   40.3410 C   0  0  0  0  0  0  0  0  0  0  0  0
   51.0110   24.0330   39.4500 C   0  0  0  0  0  0  0  0  0  0  0  0
   50.4830   24.0510   38.0320 C   0  0  0  0  0  0  0  0  0  0  0  0
   41.5740   22.5900   37.3070 C   0  0  0  0  0  0  0  0  0  0  0  0
   38.0440   22.2790   36.0430 C   0  0  0  0  0  0  0  0  0  0  0  0
   39.4280   22.1790   36.1220 C   0  0  0  0  0  0  0  0  0  0  0  0
   40.1130   22.6830   37.1930 C   0  0  0  0  0  0  0  0  0  0  0  0
   39.4080   23.2830   38.1760 N   0  0  0  0  0  0  0  0  0  0  0  0
   38.0610   23.3830   38.1020 C   0  0  0  0  0  0  0  0  0  0  0  0
   37.3580   22.8930   37.0550 N   0  0  0  0  0  0  0  0  0  0  0  0
   37.2310   21.7820   34.9640 C   0  0  0  0  0  0  0  0  0  0  0  0
   36.1390   20.9380   35.2260 C   0  0  0  0  0  0  0  0  0  0  0  0
   35.5460   20.6200   34.0110 C   0  0  0  0  0  0  0  0  0  0  0  0
   36.2990   21.2780   33.0940 C   0  0  0  0  0  0  0  0  0  0  0  0
   37.2880   21.9570   33.6900 O   0  0  0  0  0  0  0  0  0  0  0  0
   41.7229   23.5991   35.4347 H   0  0  0  0  0  0  0  0  0  0  0  0
   42.4742   21.9564   35.4884 H   0  0  0  0  0  0  0  0  0  0  0  0
   43.0036   25.0870   37.5578 H   0  0  0  0  0  0  0  0  0  0  0  0
   45.2847   25.9674   37.9276 H   0  0  0  0  0  0  0  0  0  0  0  0
   47.8729   24.8629   35.6494 H   0  0  0  0  0  0  0  0  0  0  0  0
   47.9313   25.5111   38.5643 H   0  0  0  0  0  0  0  0  0  0  0  0
   49.0590   26.0240   37.2636 H   0  0  0  0  0  0  0  0  0  0  0  0
   47.3613   26.6111   37.2636 H   0  0  0  0  0  0  0  0  0  0  0  0
   47.7319   22.4775   37.1401 H   0  0  0  0  0  0  0  0  0  0  0  0
   49.0904   23.1104   36.1409 H   0  0  0  0  0  0  0  0  0  0  0  0
   48.0833   24.7006   39.3881 H   0  0  0  0  0  0  0  0  0  0  0  0
   47.9370   22.9626   39.6879 H   0  0  0  0  0  0  0  0  0  0  0  0
   49.7023   24.6883   41.0280 H   0  0  0  0  0  0  0  0  0  0  0  0
   49.9105   22.9400   40.9709 H   0  0  0  0  0  0  0  0  0  0  0  0
   51.5084   24.9860   39.6834 H   0  0  0  0  0  0  0  0  0  0  0  0
   51.7515   23.2319   39.5910 H   0  0  0  0  0  0  0  0  0  0  0  0
   51.1108   23.4323   37.3739 H   0  0  0  0  0  0  0  0  0  0  0  0
   50.4835   25.0603   37.5946 H   0  0  0  0  0  0  0  0  0  0  0  0
   41.8304   21.5662   37.6171 H   0  0  0  0  0  0  0  0  0  0  0  0
   41.8806   23.3499   38.0409 H   0  0  0  0  0  0  0  0  0  0  0  0
   39.9818   21.6861   35.3093 H   0  0  0  0  0  0  0  0  0  0  0  0
   37.5191   23.8793   38.9205 H   0  0  0  0  0  0  0  0  0  0  0  0
   35.8118   20.5907   36.2171 H   0  0  0  0  0  0  0  0  0  0  0  0
   34.6680   19.9817   33.8331 H   0  0  0  0  0  0  0  0  0  0  0  0
   36.1215   21.2568   32.0086 H   0  0  0  0  0  0  0  0  0  0  0  0
  1  2  1  0
  1 15  1  0
  2  3  2  0
  3  4  1  0
  5  7  1  0
  5  4  2  0
  6  2  1  0
  6  5  1  0
  7  9  1  0
  7  8  1  0
  9 10  1  0
 10 11  1  0
 11 12  1  0
 13 12  1  0
 14 10  1  0
 14 13  1  0
 16 17  2  0
 16 21  1  0
 17 18  1  0
 18 15  1  0
 18 19  2  0
 20 19  1  0
 21 20  2  0
 22 23  2  0
 22 16  1  0
 24 23  1  0
 25 26  1  0
 25 24  2  0
 26 22  1  0
  1 27  1  0
  1 28  1  0
  3 29  1  0
  4 30  1  0
  7 31  1  6
  8 32  1  0
  8 33  1  0
  8 34  1  0
  9 35  1  0
  9 36  1  0
 11 37  1  0
 11 38  1  0
 12 39  1  0
 12 40  1  0
 13 41  1  0
 13 42  1  0
 14 43  1  0
 14 44  1  0
 15 45  1  0
 15 46  1  0
 17 47  1  0
 20 48  1  0
 23 49  1  0
 24 50  1  0
 25 51  1  0
M  ISO  8  27   8  28   8  29  14  30  14  31   8  32   8  33   8  34   8
M  ISO  8  35   8  36   8  37  13  38  13  39  13  40  13  41  13  42  13
M  ISO  8  43  13  44  13  45   8  46   8  47  14  48  14  49  14  50  14
M  ISO  1  51  14
M  END
>  <minimizedAffinity>  (1) 
-5.12332821

>  <minimizedRMSD>  (1) 
1.77648997

$$$$
