
     RDKit          3D

 47 50  0  0  1  0  0  0  0  0999 V2000
   43.6950   23.7500   36.4700 C   0  0  0  0  0  0  0  0  0  0  0  0
   43.7630   24.8750   37.1910 C   0  0  0  0  0  0  0  0  0  0  0  0
   44.9440   25.3660   37.5850 C   0  0  0  0  0  0  0  0  0  0  0  0
   46.1180   24.6230   37.1930 C   0  0  0  0  0  0  0  0  0  0  0  0
   45.3940   23.2050   36.2390 S   0  0  0  0  0  0  0  0  0  0  0  0
   42.4440   23.0770   35.9600 C   0  0  0  0  0  0  0  0  0  0  0  0
   41.6920   22.4270   37.1090 C   0  0  0  0  0  0  0  0  0  0  0  0
   38.1350   22.2560   35.9200 C   0  0  0  0  0  0  0  0  0  0  0  0
   39.5160   22.0930   35.9550 C   0  0  0  0  0  0  0  0  0  0  0  0
   40.2330   22.5750   37.0240 C   0  0  0  0  0  0  0  0  0  0  0  0
   39.5640   23.1960   38.0160 N   0  0  0  0  0  0  0  0  0  0  0  0
   38.2250   23.3520   37.9770 C   0  0  0  0  0  0  0  0  0  0  0  0
   37.4870   22.8930   36.9420 N   0  0  0  0  0  0  0  0  0  0  0  0
   37.2730   21.7990   34.8590 C   0  0  0  0  0  0  0  0  0  0  0  0
   36.1810   20.9410   35.1370 C   0  0  0  0  0  0  0  0  0  0  0  0
   35.5450   20.6770   33.9260 C   0  0  0  0  0  0  0  0  0  0  0  0
   36.2770   21.3810   33.0050 C   0  0  0  0  0  0  0  0  0  0  0  0
   37.2890   22.0320   33.5820 O   0  0  0  0  0  0  0  0  0  0  0  0
   47.5310   24.8310   37.4340 C   0  0  1  0  0  0  0  0  0  0  0  0
   47.9630   26.2510   37.2070 C   0  0  0  0  0  0  0  0  0  0  0  0
   47.9880   24.3500   38.8180 C   0  0  0  0  0  0  0  0  0  0  0  0
   49.1860   23.5140   38.6570 C   0  0  0  0  0  0  0  0  0  0  0  0
   50.2010   23.9660   39.5020 C   0  0  0  0  0  0  0  0  0  0  0  0
   51.4540   23.3640   39.5630 C   0  0  0  0  0  0  0  0  0  0  0  0
   51.7230   22.3020   38.7880 N   0  0  0  0  0  0  0  0  0  0  0  0
   50.7380   21.8730   37.9770 C   0  0  0  0  0  0  0  0  0  0  0  0
   49.5510   22.4540   37.9280 N   0  0  0  0  0  0  0  0  0  0  0  0
   42.8370   25.4027   37.4632 H   0  0  0  0  0  0  0  0  0  0  0  0
   45.0165   26.2897   38.1780 H   0  0  0  0  0  0  0  0  0  0  0  0
   41.7976   23.8270   35.4808 H   0  0  0  0  0  0  0  0  0  0  0  0
   42.7249   22.3024   35.2312 H   0  0  0  0  0  0  0  0  0  0  0  0
   41.9315   21.3534   37.1165 H   0  0  0  0  0  0  0  0  0  0  0  0
   42.0119   22.9372   38.0295 H   0  0  0  0  0  0  0  0  0  0  0  0
   40.0324   21.5802   35.1301 H   0  0  0  0  0  0  0  0  0  0  0  0
   37.7207   23.8659   38.8087 H   0  0  0  0  0  0  0  0  0  0  0  0
   35.8894   20.5550   36.1249 H   0  0  0  0  0  0  0  0  0  0  0  0
   34.6596   20.0486   33.7494 H   0  0  0  0  0  0  0  0  0  0  0  0
   36.0579   21.4060   31.9273 H   0  0  0  0  0  0  0  0  0  0  0  0
   48.0324   24.2028   36.6831 H   0  0  0  0  0  0  0  0  0  0  0  0
   48.1141   26.7478   38.1767 H   0  0  0  0  0  0  0  0  0  0  0  0
   48.9049   26.2614   36.6390 H   0  0  0  0  0  0  0  0  0  0  0  0
   47.1864   26.7842   36.6390 H   0  0  0  0  0  0  0  0  0  0  0  0
   48.2250   25.2176   39.4513 H   0  0  0  0  0  0  0  0  0  0  0  0
   47.1864   23.7666   39.2945 H   0  0  0  0  0  0  0  0  0  0  0  0
   50.0019   24.8347   40.1468 H   0  0  0  0  0  0  0  0  0  0  0  0
   52.2222   23.7577   40.2448 H   0  0  0  0  0  0  0  0  0  0  0  0
   50.9280   21.0045   37.3292 H   0  0  0  0  0  0  0  0  0  0  0  0
  1  2  2  0
  2  3  1  0
  4 19  1  0
  4  3  2  0
  5  1  1  0
  5  4  1  0
  6  1  1  0
  6  7  1  0
  8  9  2  0
  8 13  1  0
  9 10  1  0
 10  7  1  0
 10 11  2  0
 12 11  1  0
 13 12  2  0
 14 15  2  0
 14  8  1  0
 16 15  1  0
 17 18  1  0
 17 16  2  0
 18 14  1  0
 19 21  1  0
 20 19  1  0
 22 21  1  0
 22 23  2  0
 23 24  1  0
 25 24  2  0
 26 25  1  0
 27 26  2  0
 27 22  1  0
  2 28  1  0
  3 29  1  0
  6 30  1  0
  6 31  1  0
  7 32  1  0
  7 33  1  0
  9 34  1  0
 12 35  1  0
 15 36  1  0
 16 37  1  0
 17 38  1  0
 19 39  1  6
 20 40  1  0
 20 41  1  0
 20 42  1  0
 21 43  1  0
 21 44  1  0
 23 45  1  0
 24 46  1  0
 26 47  1  0
M  ISO  8  28  14  29  14  30   8  31   8  32   8  33   8  34  14  35  14
M  ISO  8  36  14  37  14  38  14  39   8  40   8  41   8  42   8  43   8
M  ISO  4  44   8  45  14  46  14  47  14
M  END
>  <minimizedAffinity>  (1) 
-5.17493486

>  <minimizedRMSD>  (1) 
1.51431048

$$$$
