
     RDKit          3D

 40 42  0  0  1  0  0  0  0  0999 V2000
   42.4610   23.0980   35.9800 C   0  0  0  0  0  0  0  0  0  0  0  0
   43.7270   23.7640   36.4700 C   0  0  0  0  0  0  0  0  0  0  0  0
   43.8040   24.8520   37.2470 C   0  0  0  0  0  0  0  0  0  0  0  0
   44.9930   25.3450   37.6150 C   0  0  0  0  0  0  0  0  0  0  0  0
   46.1600   24.6700   37.1490 C   0  0  0  0  0  0  0  0  0  0  0  0
   45.4280   23.2700   36.1400 S   0  0  0  0  0  0  0  0  0  0  0  0
   47.5870   24.8770   37.3210 C   0  0  1  0  0  0  0  0  0  0  0  0
   47.9550   26.3300   37.2690 C   0  0  0  0  0  0  0  0  0  0  0  0
   48.1260   24.2320   38.6190 C   0  0  0  0  0  0  0  0  0  0  0  0
   49.4820   23.1240   38.1860 S   0  0  0  0  0  0  0  0  0  0  0  0
   41.7290   22.4580   37.1490 C   0  0  0  0  0  0  0  0  0  0  0  0
   38.1670   22.2580   35.9480 C   0  0  0  0  0  0  0  0  0  0  0  0
   39.5440   22.1130   36.0020 C   0  0  0  0  0  0  0  0  0  0  0  0
   40.2610   22.5960   37.0620 C   0  0  0  0  0  0  0  0  0  0  0  0
   39.5830   23.2160   38.0480 N   0  0  0  0  0  0  0  0  0  0  0  0
   38.2420   23.3600   38.0040 C   0  0  0  0  0  0  0  0  0  0  0  0
   37.5130   22.8930   36.9700 N   0  0  0  0  0  0  0  0  0  0  0  0
   37.3120   21.7920   34.8870 C   0  0  0  0  0  0  0  0  0  0  0  0
   36.1970   20.9660   35.1720 C   0  0  0  0  0  0  0  0  0  0  0  0
   35.5730   20.6830   33.9610 C   0  0  0  0  0  0  0  0  0  0  0  0
   36.3270   21.3350   33.0380 C   0  0  0  0  0  0  0  0  0  0  0  0
   37.3470   21.9810   33.6110 O   0  0  0  0  0  0  0  0  0  0  0  0
   41.8109   23.8507   35.5102 H   0  0  0  0  0  0  0  0  0  0  0  0
   42.7205   22.3214   35.2454 H   0  0  0  0  0  0  0  0  0  0  0  0
   42.8812   25.3454   37.5862 H   0  0  0  0  0  0  0  0  0  0  0  0
   45.0673   26.2378   38.2533 H   0  0  0  0  0  0  0  0  0  0  0  0
   48.0683   24.3705   36.4714 H   0  0  0  0  0  0  0  0  0  0  0  0
   48.0538   26.7201   38.2928 H   0  0  0  0  0  0  0  0  0  0  0  0
   48.9112   26.4473   36.7381 H   0  0  0  0  0  0  0  0  0  0  0  0
   47.1699   26.8883   36.7381 H   0  0  0  0  0  0  0  0  0  0  0  0
   48.4900   25.0158   39.2996 H   0  0  0  0  0  0  0  0  0  0  0  0
   47.3252   23.6697   39.1216 H   0  0  0  0  0  0  0  0  0  0  0  0
   50.0654   22.6473   39.3303 H   0  0  0  0  0  0  0  0  0  0  0  0
   41.9786   21.3870   37.1737 H   0  0  0  0  0  0  0  0  0  0  0  0
   42.0528   22.9789   38.0622 H   0  0  0  0  0  0  0  0  0  0  0  0
   40.0680   21.6022   35.1807 H   0  0  0  0  0  0  0  0  0  0  0  0
   37.7304   23.8714   38.8327 H   0  0  0  0  0  0  0  0  0  0  0  0
   35.8830   20.6139   36.1657 H   0  0  0  0  0  0  0  0  0  0  0  0
   34.6748   20.0714   33.7901 H   0  0  0  0  0  0  0  0  0  0  0  0
   36.1239   21.3316   31.9569 H   0  0  0  0  0  0  0  0  0  0  0  0
  1  2  1  0
  1 11  1  0
  2  3  2  0
  3  4  1  0
  5  7  1  0
  5  4  2  0
  6  2  1  0
  6  5  1  0
  7  9  1  0
  8  7  1  0
 10  9  1  0
 12 13  2  0
 12 17  1  0
 13 14  1  0
 14 11  1  0
 14 15  2  0
 16 15  1  0
 17 16  2  0
 18 19  2  0
 18 12  1  0
 20 19  1  0
 21 22  1  0
 21 20  2  0
 22 18  1  0
  1 23  1  0
  1 24  1  0
  3 25  1  0
  4 26  1  0
  7 27  1  6
  8 28  1  0
  8 29  1  0
  8 30  1  0
  9 31  1  0
  9 32  1  0
 10 33  1  0
 11 34  1  0
 11 35  1  0
 13 36  1  0
 16 37  1  0
 19 38  1  0
 20 39  1  0
 21 40  1  0
M  ISO  8  23   8  24   8  25  14  26  14  27   8  28   8  29   8  30   8
M  ISO  8  31   8  32   8  33  11  34   8  35   8  36  14  37  14  38  14
M  ISO  2  39  14  40  14
M  END
>  <minimizedAffinity>  (1) 
-4.87885666

>  <minimizedRMSD>  (1) 
0.396874785

$$$$
