
     RDKit          3D

 25 27  0  0  0  0  0  0  0  0999 V2000
   38.2730   23.2450   36.5180 C   0  0  0  0  0  0  0  0  0  0  0  0
   37.2670   23.5910   37.3860 C   0  0  0  0  0  0  0  0  0  0  0  0
   37.8150   23.6670   38.6250 N   0  0  0  0  0  0  0  0  0  0  0  0
   39.1220   23.3790   38.5390 C   0  0  0  0  0  0  0  0  0  0  0  0
   39.3950   23.1200   37.2370 N   0  0  0  0  0  0  0  0  0  0  0  0
   37.7290   21.6520   33.2470 C   0  0  0  0  0  0  0  0  0  0  0  0
   37.9300   22.7140   32.3590 C   0  0  0  0  0  0  0  0  0  0  0  0
   38.2490   23.9570   32.8900 C   0  0  0  0  0  0  0  0  0  0  0  0
   38.3490   24.0820   34.2460 N   0  0  0  0  0  0  0  0  0  0  0  0
   38.1510   23.0490   35.0830 C   0  0  0  0  0  0  0  0  0  0  0  0
   37.8430   21.8400   34.5770 N   0  0  0  0  0  0  0  0  0  0  0  0
   40.7090   22.7780   36.8100 C   0  0  0  0  0  0  0  0  0  0  0  0
   41.1940   21.5740   37.3350 C   0  0  0  0  0  0  0  0  0  0  0  0
   42.4520   21.0600   37.0440 C   0  0  0  0  0  0  0  0  0  0  0  0
   43.2360   21.7830   36.2020 N   0  0  0  0  0  0  0  0  0  0  0  0
   42.7390   22.9480   35.7070 C   0  0  0  0  0  0  0  0  0  0  0  0
   41.5240   23.4570   35.9800 N   0  0  0  0  0  0  0  0  0  0  0  0
   36.2138   23.7726   37.1257 H   0  0  0  0  0  0  0  0  0  0  0  0
   39.8402   23.3570   39.3719 H   0  0  0  0  0  0  0  0  0  0  0  0
   37.4758   20.6552   32.8568 H   0  0  0  0  0  0  0  0  0  0  0  0
   37.8381   22.5689   31.2725 H   0  0  0  0  0  0  0  0  0  0  0  0
   38.4175   24.8224   32.2322 H   0  0  0  0  0  0  0  0  0  0  0  0
   40.5438   21.0038   38.0149 H   0  0  0  0  0  0  0  0  0  0  0  0
   42.7979   20.1095   37.4764 H   0  0  0  0  0  0  0  0  0  0  0  0
   43.3846   23.5223   35.0263 H   0  0  0  0  0  0  0  0  0  0  0  0
  1  5  1  0
  1  2  2  0
  2  3  1  0
  4  3  2  0
  5  4  1  0
  6 11  2  0
  7  8  2  0
  7  6  1  0
  8  9  1  0
  9 10  2  0
 10  1  1  0
 11 10  1  0
 12  5  1  0
 12 13  2  0
 14 13  1  0
 15 14  2  0
 16 17  2  0
 16 15  1  0
 17 12  1  0
  2 18  1  0
  4 19  1  0
  6 20  1  0
  7 21  1  0
  8 22  1  0
 13 23  1  0
 14 24  1  0
 16 25  1  0
M  ISO  8  18  14  19  14  20  14  21  14  22  14  23  14  24  14  25  14
M  END
>  <minimizedAffinity>  (1) 
-4.19485617

>  <minimizedRMSD>  (1) 
5.96211338

$$$$
