
     RDKit          3D

 22 24  0  0  0  0  0  0  0  0999 V2000
   38.8670   23.4990   34.4910 C   0  0  0  0  0  0  0  0  0  0  0  0
   39.6820   24.2240   33.6530 C   0  0  0  0  0  0  0  0  0  0  0  0
   39.3570   23.9070   32.3830 N   0  0  0  0  0  0  0  0  0  0  0  0
   38.3550   22.9950   32.4110 C   0  0  0  0  0  0  0  0  0  0  0  0
   38.0530   22.7460   33.7130 N   0  0  0  0  0  0  0  0  0  0  0  0
   37.0480   21.8410   34.1580 C   0  0  0  0  0  0  0  0  0  0  0  0
   36.1300   21.0850   33.5170 N   0  0  0  0  0  0  0  0  0  0  0  0
   35.4250   20.4130   34.3770 O   0  0  0  0  0  0  0  0  0  0  0  0
   35.8350   20.6890   35.5950 C   0  0  0  0  0  0  0  0  0  0  0  0
   36.8520   21.5810   35.4740 N   0  0  0  0  0  0  0  0  0  0  0  0
   39.7380   22.7980   37.9860 C   0  0  0  0  0  0  0  0  0  0  0  0
   38.8260   23.5890   38.6930 C   0  0  0  0  0  0  0  0  0  0  0  0
   37.9290   24.3480   37.9600 C   0  0  0  0  0  0  0  0  0  0  0  0
   37.9660   24.2970   36.5950 N   0  0  0  0  0  0  0  0  0  0  0  0
   38.8620   23.5220   35.9410 C   0  0  0  0  0  0  0  0  0  0  0  0
   39.7420   22.7780   36.6400 N   0  0  0  0  0  0  0  0  0  0  0  0
   40.4608   24.9361   33.9636 H   0  0  0  0  0  0  0  0  0  0  0  0
   37.8716   22.5372   31.5353 H   0  0  0  0  0  0  0  0  0  0  0  0
   35.4320   20.2769   36.5319 H   0  0  0  0  0  0  0  0  0  0  0  0
   40.4632   22.1827   38.5387 H   0  0  0  0  0  0  0  0  0  0  0  0
   38.8215   23.6074   39.7928 H   0  0  0  0  0  0  0  0  0  0  0  0
   37.1935   24.9860   38.4719 H   0  0  0  0  0  0  0  0  0  0  0  0
  1 15  1  0
  2  1  2  0
  3  4  2  0
  3  2  1  0
  4  5  1  0
  5  6  1  0
  5  1  1  0
  6 10  1  0
  7  6  2  0
  7  8  1  0
  8  9  1  0
 10  9  2  0
 11 12  2  0
 13 12  1  0
 14 13  2  0
 15 14  1  0
 15 16  2  0
 16 11  1  0
  2 17  1  0
  4 18  1  0
  9 19  1  0
 11 20  1  0
 12 21  1  0
 13 22  1  0
M  ISO  6  17  14  18  14  19  14  20  14  21  14  22  14
M  END
>  <minimizedAffinity>  (1) 
-4.23969221

>  <minimizedRMSD>  (1) 
1.83521605

$$$$
