
     RDKit          3D

 17 18  0  0  0  0  0  0  0  0999 V2000
   39.9950   22.7320   37.6860 C   0  0  0  0  0  0  0  0  0  0  0  0
   39.0340   23.3410   38.5160 C   0  0  0  0  0  0  0  0  0  0  0  0
   37.7330   23.4690   38.0350 C   0  0  0  0  0  0  0  0  0  0  0  0
   37.4610   22.9970   36.7870 N   0  0  0  0  0  0  0  0  0  0  0  0
   38.4040   22.4140   36.0080 C   0  0  0  0  0  0  0  0  0  0  0  0
   39.6580   22.2840   36.4550 N   0  0  0  0  0  0  0  0  0  0  0  0
   38.0340   21.9330   34.6820 C   0  0  0  0  0  0  0  0  0  0  0  0
   38.8350   21.8340   33.5790 C   0  0  0  0  0  0  0  0  0  0  0  0
   38.0830   21.3400   32.5670 N   0  0  0  0  0  0  0  0  0  0  0  0
   36.8250   21.1250   33.0110 C   0  0  0  0  0  0  0  0  0  0  0  0
   36.8180   21.4950   34.3070 N   0  0  0  0  0  0  0  0  0  0  0  0
   41.0296   22.6196   38.0422 H   0  0  0  0  0  0  0  0  0  0  0  0
   39.3037   23.7061   39.5180 H   0  0  0  0  0  0  0  0  0  0  0  0
   36.9477   23.9380   38.6459 H   0  0  0  0  0  0  0  0  0  0  0  0
   39.8992   22.1066   33.5234 H   0  0  0  0  0  0  0  0  0  0  0  0
   35.9781   20.7283   32.4319 H   0  0  0  0  0  0  0  0  0  0  0  0
   35.9954   21.4489   34.9252 H   0  0  0  0  0  0  0  0  0  0  0  0
  1  2  2  0
  3  2  1  0
  4  3  2  0
  5  6  2  0
  5  4  1  0
  6  1  1  0
  7  5  1  0
  8  7  2  0
  9 10  2  0
  9  8  1  0
 10 11  1  0
 11  7  1  0
  1 12  1  0
  2 13  1  0
  3 14  1  0
  8 15  1  0
 10 16  1  0
 11 17  1  0
M  ISO  6  12  14  13  14  14  14  15  14  16  14  17   9
M  END
>  <minimizedAffinity>  (1) 
-3.35474539

>  <minimizedRMSD>  (1) 
0.443584144

$$$$
