
     RDKit          3D

 24 26  0  0  0  0  0  0  0  0999 V2000
   41.5950   21.9490   36.6910 C   0  0  0  0  0  0  0  0  0  0  0  0
   42.1170   20.7270   37.0320 C   0  0  0  0  0  0  0  0  0  0  0  0
   43.4200   20.7390   36.6370 N   0  0  0  0  0  0  0  0  0  0  0  0
   43.7090   21.9250   36.0660 C   0  0  0  0  0  0  0  0  0  0  0  0
   42.5850   22.6490   36.1080 N   0  0  0  0  0  0  0  0  0  0  0  0
   42.5090   23.9900   35.5840 C   0  0  0  0  0  0  0  0  0  0  0  0
   41.5800   24.3670   34.6110 C   0  0  0  0  0  0  0  0  0  0  0  0
   41.7440   25.6930   34.3100 C   0  0  0  0  0  0  0  0  0  0  0  0
   42.7650   26.0880   35.1040 N   0  0  0  0  0  0  0  0  0  0  0  0
   43.2300   25.1070   35.8600 N   0  0  0  0  0  0  0  0  0  0  0  0
   38.0090   22.6350   36.2480 C   0  0  0  0  0  0  0  0  0  0  0  0
   37.6820   23.2560   37.4810 C   0  0  0  0  0  0  0  0  0  0  0  0
   38.6950   23.4250   38.4340 C   0  0  0  0  0  0  0  0  0  0  0  0
   39.9450   22.9810   38.1200 N   0  0  0  0  0  0  0  0  0  0  0  0
   40.2250   22.3890   36.9240 C   0  0  0  0  0  0  0  0  0  0  0  0
   39.2680   22.2260   36.0190 N   0  0  0  0  0  0  0  0  0  0  0  0
   41.5870   19.9000   37.5272 H   0  0  0  0  0  0  0  0  0  0  0  0
   44.6777   22.2362   35.6480 H   0  0  0  0  0  0  0  0  0  0  0  0
   40.8317   23.7011   34.1565 H   0  0  0  0  0  0  0  0  0  0  0  0
   41.1757   26.2979   33.5881 H   0  0  0  0  0  0  0  0  0  0  0  0
   43.1395   27.0474   35.1185 H   0  0  0  0  0  0  0  0  0  0  0  0
   37.2337   22.4888   35.4815 H   0  0  0  0  0  0  0  0  0  0  0  0
   36.6562   23.5971   37.6842 H   0  0  0  0  0  0  0  0  0  0  0  0
   38.4884   23.9005   39.4041 H   0  0  0  0  0  0  0  0  0  0  0  0
  1 15  1  0
  1  2  2  0
  3  2  1  0
  4  5  1  0
  4  3  2  0
  5  1  1  0
  6 10  2  0
  6  5  1  0
  7  6  1  0
  8  7  2  0
  8  9  1  0
  9 10  1  0
 11 12  2  0
 12 13  1  0
 14 13  2  0
 15 14  1  0
 16 11  1  0
 16 15  2  0
  2 17  1  0
  4 18  1  0
  7 19  1  0
  8 20  1  0
  9 21  1  0
 11 22  1  0
 12 23  1  0
 13 24  1  0
M  ISO  8  17  14  18  14  19  14  20  14  21   9  22  14  23  14  24  14
M  END
>  <minimizedAffinity>  (1) 
-4.2411747

>  <minimizedRMSD>  (1) 
6.07347631

$$$$
