
     RDKit          3D

 27 29  0  0  0  0  0  0  0  0999 V2000
   39.4240   23.1480   37.4100 C   0  0  0  0  0  0  0  0  0  0  0  0
   39.0380   23.5070   38.6820 C   0  0  0  0  0  0  0  0  0  0  0  0
   37.7330   23.8890   38.5880 N   0  0  0  0  0  0  0  0  0  0  0  0
   37.3210   23.7740   37.3130 C   0  0  0  0  0  0  0  0  0  0  0  0
   38.3630   23.3230   36.6150 N   0  0  0  0  0  0  0  0  0  0  0  0
   42.7790   22.9350   35.9080 C   0  0  0  0  0  0  0  0  0  0  0  0
   43.2150   21.6890   36.3680 C   0  0  0  0  0  0  0  0  0  0  0  0
   42.3610   20.9350   37.1800 C   0  0  0  0  0  0  0  0  0  0  0  0
   41.1380   21.4410   37.4950 N   0  0  0  0  0  0  0  0  0  0  0  0
   40.7470   22.6640   37.0270 C   0  0  0  0  0  0  0  0  0  0  0  0
   41.5610   23.3820   36.2520 N   0  0  0  0  0  0  0  0  0  0  0  0
   38.2710   23.0870   35.2150 C   0  0  0  0  0  0  0  0  0  0  0  0
   38.0940   21.8860   34.5470 C   0  0  0  0  0  0  0  0  0  0  0  0
   38.0320   21.8760   33.1740 C   0  0  0  0  0  0  0  0  0  0  0  0
   38.1390   23.0230   32.4330 C   0  0  0  0  0  0  0  0  0  0  0  0
   38.3150   24.2230   33.0760 C   0  0  0  0  0  0  0  0  0  0  0  0
   38.3800   24.2480   34.4580 C   0  0  0  0  0  0  0  0  0  0  0  0
   39.6577   23.4891   39.5906 H   0  0  0  0  0  0  0  0  0  0  0  0
   36.3194   24.0068   36.9224 H   0  0  0  0  0  0  0  0  0  0  0  0
   43.4312   23.5464   35.2670 H   0  0  0  0  0  0  0  0  0  0  0  0
   44.2108   21.3086   36.0966 H   0  0  0  0  0  0  0  0  0  0  0  0
   42.6730   19.9500   37.5573 H   0  0  0  0  0  0  0  0  0  0  0  0
   38.0037   20.9465   35.1120 H   0  0  0  0  0  0  0  0  0  0  0  0
   37.8921   20.9168   32.6540 H   0  0  0  0  0  0  0  0  0  0  0  0
   38.0845   22.9830   31.3351 H   0  0  0  0  0  0  0  0  0  0  0  0
   38.4034   25.1551   32.4986 H   0  0  0  0  0  0  0  0  0  0  0  0
   38.5215   25.2109   34.9707 H   0  0  0  0  0  0  0  0  0  0  0  0
  1  2  2  0
  3  2  1  0
  4  3  2  0
  5  4  1  0
  5  1  1  0
  6 11  2  0
  6  7  1  0
  7  8  2  0
  8  9  1  0
 10  1  1  0
 10  9  2  0
 11 10  1  0
 12  5  1  0
 13 12  2  0
 14 13  1  0
 15 16  1  0
 15 14  2  0
 16 17  2  0
 17 12  1  0
  2 18  1  0
  4 19  1  0
  6 20  1  0
  7 21  1  0
  8 22  1  0
 13 23  1  0
 14 24  1  0
 15 25  1  0
 16 26  1  0
 17 27  1  0
M  ISO  8  18  14  19  14  20  14  21  14  22  14  23  14  24  14  25  14
M  ISO  2  26  14  27  14
M  END
>  <minimizedAffinity>  (1) 
-4.19501305

>  <minimizedRMSD>  (1) 
4.7267189

$$$$
