
     RDKit          3D

 27 29  0  0  0  0  0  0  0  0999 V2000
   39.2130   24.7100   34.1170 C   0  0  0  0  0  0  0  0  0  0  0  0
   40.0890   25.7030   33.7400 C   0  0  0  0  0  0  0  0  0  0  0  0
   39.9570   25.8540   32.4010 N   0  0  0  0  0  0  0  0  0  0  0  0
   39.0270   24.9840   31.9410 C   0  0  0  0  0  0  0  0  0  0  0  0
   38.5700   24.2790   33.0100 N   0  0  0  0  0  0  0  0  0  0  0  0
   39.6700   22.8580   37.2670 C   0  0  0  0  0  0  0  0  0  0  0  0
   38.5610   23.3070   38.0290 C   0  0  0  0  0  0  0  0  0  0  0  0
   37.6810   24.2320   37.4520 C   0  0  0  0  0  0  0  0  0  0  0  0
   37.9440   24.6470   36.1870 N   0  0  0  0  0  0  0  0  0  0  0  0
   39.0100   24.2080   35.4700 C   0  0  0  0  0  0  0  0  0  0  0  0
   39.8600   23.3200   36.0150 N   0  0  0  0  0  0  0  0  0  0  0  0
   37.5740   23.2690   32.8920 C   0  0  0  0  0  0  0  0  0  0  0  0
   36.5450   23.4840   31.9870 C   0  0  0  0  0  0  0  0  0  0  0  0
   35.5340   22.5510   31.8110 C   0  0  0  0  0  0  0  0  0  0  0  0
   35.5140   21.3720   32.5300 C   0  0  0  0  0  0  0  0  0  0  0  0
   36.5380   21.1560   33.4310 C   0  0  0  0  0  0  0  0  0  0  0  0
   37.5380   22.0860   33.6020 C   0  0  0  0  0  0  0  0  0  0  0  0
   40.7660   26.2655   34.3998 H   0  0  0  0  0  0  0  0  0  0  0  0
   38.7017   24.8690   30.8965 H   0  0  0  0  0  0  0  0  0  0  0  0
   40.3754   22.1323   37.6981 H   0  0  0  0  0  0  0  0  0  0  0  0
   38.3954   22.9367   39.0515 H   0  0  0  0  0  0  0  0  0  0  0  0
   36.8077   24.6086   38.0048 H   0  0  0  0  0  0  0  0  0  0  0  0
   36.5305   24.4126   31.3974 H   0  0  0  0  0  0  0  0  0  0  0  0
   34.7329   22.7539   31.0850 H   0  0  0  0  0  0  0  0  0  0  0  0
   34.7120   20.6323   32.3901 H   0  0  0  0  0  0  0  0  0  0  0  0
   36.5546   20.2274   34.0204 H   0  0  0  0  0  0  0  0  0  0  0  0
   38.3364   21.8793   34.3299 H   0  0  0  0  0  0  0  0  0  0  0  0
  1 10  1  0
  2  1  2  0
  3  2  1  0
  4  3  2  0
  4  5  1  0
  5  1  1  0
  6  7  2  0
  8  7  1  0
  9  8  2  0
 10 11  2  0
 10  9  1  0
 11  6  1  0
 12  5  1  0
 12 17  1  0
 13 12  2  0
 14 13  1  0
 14 15  2  0
 15 16  1  0
 16 17  2  0
  2 18  1  0
  4 19  1  0
  6 20  1  0
  7 21  1  0
  8 22  1  0
 13 23  1  0
 14 24  1  0
 15 25  1  0
 16 26  1  0
 17 27  1  0
M  ISO  8  18  14  19  14  20  14  21  14  22  14  23  14  24  14  25  14
M  ISO  2  26  14  27  14
M  END
>  <minimizedAffinity>  (1) 
-4.33607006

>  <minimizedRMSD>  (1) 
3.4487493

$$$$
