
     RDKit          3D

 25 27  0  0  0  0  0  0  0  0999 V2000
   38.4220   23.0810   36.4590 C   0  0  0  0  0  0  0  0  0  0  0  0
   37.6230   23.3050   37.5350 C   0  0  0  0  0  0  0  0  0  0  0  0
   38.4180   23.3260   38.6390 N   0  0  0  0  0  0  0  0  0  0  0  0
   39.7060   23.1170   38.2560 C   0  0  0  0  0  0  0  0  0  0  0  0
   39.6700   22.9720   36.9250 N   0  0  0  0  0  0  0  0  0  0  0  0
   37.2230   21.7320   33.2580 C   0  0  0  0  0  0  0  0  0  0  0  0
   37.2830   22.8490   32.4110 C   0  0  0  0  0  0  0  0  0  0  0  0
   37.7310   24.0420   32.9490 C   0  0  0  0  0  0  0  0  0  0  0  0
   38.0930   24.0830   34.2660 N   0  0  0  0  0  0  0  0  0  0  0  0
   38.0230   22.9760   35.0620 C   0  0  0  0  0  0  0  0  0  0  0  0
   37.5890   21.8050   34.5580 N   0  0  0  0  0  0  0  0  0  0  0  0
   40.8720   22.7350   36.1970 C   0  0  0  0  0  0  0  0  0  0  0  0
   41.4670   23.8700   35.6750 C   0  0  0  0  0  0  0  0  0  0  0  0
   42.6480   23.7470   34.9470 C   0  0  0  0  0  0  0  0  0  0  0  0
   43.2040   22.5230   34.7540 N   0  0  0  0  0  0  0  0  0  0  0  0
   42.5920   21.4300   35.2810 C   0  0  0  0  0  0  0  0  0  0  0  0
   41.4470   21.5190   35.9910 N   0  0  0  0  0  0  0  0  0  0  0  0
   36.5320   23.4441   37.5168 H   0  0  0  0  0  0  0  0  0  0  0  0
   40.5934   23.0756   38.9048 H   0  0  0  0  0  0  0  0  0  0  0  0
   36.8691   20.7719   32.8542 H   0  0  0  0  0  0  0  0  0  0  0  0
   36.9839   22.7784   31.3548 H   0  0  0  0  0  0  0  0  0  0  0  0
   37.7950   24.9456   32.3250 H   0  0  0  0  0  0  0  0  0  0  0  0
   41.0121   24.8589   35.8333 H   0  0  0  0  0  0  0  0  0  0  0  0
   43.1309   24.6421   34.5279 H   0  0  0  0  0  0  0  0  0  0  0  0
   43.0446   20.4398   35.1239 H   0  0  0  0  0  0  0  0  0  0  0  0
  1  5  1  0
  1  2  2  0
  2  3  1  0
  4  3  2  0
  5  4  1  0
  6 11  2  0
  7  8  2  0
  7  6  1  0
  8  9  1  0
  9 10  2  0
 10  1  1  0
 11 10  1  0
 12  5  1  0
 13 12  2  0
 14 13  1  0
 15 14  2  0
 15 16  1  0
 16 17  2  0
 17 12  1  0
  2 18  1  0
  4 19  1  0
  6 20  1  0
  7 21  1  0
  8 22  1  0
 13 23  1  0
 14 24  1  0
 16 25  1  0
M  ISO  8  18  14  19  14  20  14  21  14  22  14  23  14  24  14  25  14
M  END
>  <minimizedAffinity>  (1) 
-3.76352978

>  <minimizedRMSD>  (1) 
5.97234344

$$$$
