
     RDKit          3D

 20 21  0  0  0  0  0  0  0  0999 V2000
   37.7730   21.0380   32.8250 C   0  0  0  0  0  0  0  0  0  0  0  0
   38.7900   20.3870   32.1660 C   0  0  0  0  0  0  0  0  0  0  0  0
   38.2270   19.4280   31.3950 N   0  0  0  0  0  0  0  0  0  0  0  0
   36.8940   19.4580   31.5510 C   0  0  0  0  0  0  0  0  0  0  0  0
   36.6480   20.4470   32.4260 N   0  0  0  0  0  0  0  0  0  0  0  0
   38.1160   22.9350   35.9570 C   0  0  0  0  0  0  0  0  0  0  0  0
   38.1400   24.2550   35.4920 C   0  0  0  0  0  0  0  0  0  0  0  0
   38.0390   24.4800   34.1310 C   0  0  0  0  0  0  0  0  0  0  0  0
   37.9210   23.4070   33.3000 N   0  0  0  0  0  0  0  0  0  0  0  0
   37.9010   22.1420   33.7630 C   0  0  0  0  0  0  0  0  0  0  0  0
   37.9980   21.9100   35.0860 N   0  0  0  0  0  0  0  0  0  0  0  0
   35.3260   20.8470   32.9010 C   0  0  0  0  0  0  0  0  0  0  0  0
   35.1870   20.6880   34.2560 F   0  0  0  0  0  0  0  0  0  0  0  0
   34.3640   20.0570   32.3000 F   0  0  0  0  0  0  0  0  0  0  0  0
   35.0210   22.1510   32.4960 F   0  0  0  0  0  0  0  0  0  0  0  0
   39.8647   20.6060   32.2504 H   0  0  0  0  0  0  0  0  0  0  0  0
   36.1547   18.8063   31.0624 H   0  0  0  0  0  0  0  0  0  0  0  0
   38.1935   22.7320   37.0353 H   0  0  0  0  0  0  0  0  0  0  0  0
   38.2372   25.0960   36.1944 H   0  0  0  0  0  0  0  0  0  0  0  0
   38.0536   25.5035   33.7282 H   0  0  0  0  0  0  0  0  0  0  0  0
  1 10  1  0
  2  1  2  0
  3  4  2  0
  3  2  1  0
  4  5  1  0
  5  1  1  0
  5 12  1  0
  7  6  2  0
  8  7  1  0
  9 10  1  0
  9  8  2  0
 10 11  2  0
 11  6  1  0
 12 13  1  0
 14 12  1  0
 15 12  1  0
  2 16  1  0
  4 17  1  0
  6 18  1  0
  7 19  1  0
  8 20  1  0
M  ISO  5  16  14  17  14  18  14  19  14  20  14
M  END
>  <minimizedAffinity>  (1) 
-3.76211381

>  <minimizedRMSD>  (1) 
2.65196061

$$$$
