
     RDKit          3D

 24 26  0  0  0  0  0  0  0  0999 V2000
   38.8140   23.7600   34.4900 C   0  0  0  0  0  0  0  0  0  0  0  0
   39.5550   24.6090   33.7280 C   0  0  0  0  0  0  0  0  0  0  0  0
   39.2190   24.3950   32.4250 N   0  0  0  0  0  0  0  0  0  0  0  0
   38.2760   23.4200   32.3720 C   0  0  0  0  0  0  0  0  0  0  0  0
   38.0450   23.0470   33.6380 N   0  0  0  0  0  0  0  0  0  0  0  0
   39.7580   22.7410   37.8920 C   0  0  0  0  0  0  0  0  0  0  0  0
   38.8280   23.4670   38.6750 C   0  0  0  0  0  0  0  0  0  0  0  0
   37.8960   24.2910   38.0280 C   0  0  0  0  0  0  0  0  0  0  0  0
   37.9300   24.3540   36.6620 N   0  0  0  0  0  0  0  0  0  0  0  0
   38.8430   23.6380   35.9450 C   0  0  0  0  0  0  0  0  0  0  0  0
   39.7390   22.8460   36.5500 N   0  0  0  0  0  0  0  0  0  0  0  0
   37.1040   22.0330   33.9780 C   0  0  0  0  0  0  0  0  0  0  0  0
   36.3150   21.3080   33.0780 C   0  0  0  0  0  0  0  0  0  0  0  0
   35.5430   20.4260   33.8270 C   0  0  0  0  0  0  0  0  0  0  0  0
   35.9000   20.6580   35.1460 C   0  0  0  0  0  0  0  0  0  0  0  0
   36.7980   21.5880   35.1820 O   0  0  0  0  0  0  0  0  0  0  0  0
   40.2924   25.3370   34.0972 H   0  0  0  0  0  0  0  0  0  0  0  0
   37.7963   23.0160   31.4683 H   0  0  0  0  0  0  0  0  0  0  0  0
   40.4974   22.0899   38.3812 H   0  0  0  0  0  0  0  0  0  0  0  0
   38.8365   23.3860   39.7720 H   0  0  0  0  0  0  0  0  0  0  0  0
   37.1584   24.8704   38.6027 H   0  0  0  0  0  0  0  0  0  0  0  0
   36.3068   21.4154   31.9833 H   0  0  0  0  0  0  0  0  0  0  0  0
   34.8066   19.6997   33.4525 H   0  0  0  0  0  0  0  0  0  0  0  0
   35.4863   20.1354   36.0211 H   0  0  0  0  0  0  0  0  0  0  0  0
  1 10  1  0
  2  1  2  0
  3  2  1  0
  4  3  2  0
  4  5  1  0
  5 12  1  0
  5  1  1  0
  6  7  2  0
  8  7  1  0
  9  8  2  0
 10 11  2  0
 10  9  1  0
 11  6  1  0
 12 16  1  0
 13 14  1  0
 13 12  2  0
 14 15  2  0
 15 16  1  0
  2 17  1  0
  4 18  1  0
  6 19  1  0
  7 20  1  0
  8 21  1  0
 13 22  1  0
 14 23  1  0
 15 24  1  0
M  ISO  8  17  14  18  14  19  14  20  14  21  14  22  14  23  14  24  14
M  END
>  <minimizedAffinity>  (1) 
-4.18678141

>  <minimizedRMSD>  (1) 
2.0626986

$$$$
