
     RDKit          3D

 24 26  0  0  0  0  0  0  0  0999 V2000
   37.9380   23.4420   34.5890 C   0  0  0  0  0  0  0  0  0  0  0  0
   38.0950   24.5060   33.7540 C   0  0  0  0  0  0  0  0  0  0  0  0
   37.5810   24.1320   32.5470 N   0  0  0  0  0  0  0  0  0  0  0  0
   37.1170   22.8770   32.6210 C   0  0  0  0  0  0  0  0  0  0  0  0
   37.3390   22.4570   33.8790 N   0  0  0  0  0  0  0  0  0  0  0  0
   39.8400   22.7420   37.6620 C   0  0  0  0  0  0  0  0  0  0  0  0
   39.0210   23.3110   38.6430 C   0  0  0  0  0  0  0  0  0  0  0  0
   37.8430   23.9190   38.2440 C   0  0  0  0  0  0  0  0  0  0  0  0
   37.5200   23.9430   36.9240 N   0  0  0  0  0  0  0  0  0  0  0  0
   38.3420   23.3800   35.9920 C   0  0  0  0  0  0  0  0  0  0  0  0
   39.4730   22.7960   36.3710 N   0  0  0  0  0  0  0  0  0  0  0  0
   36.9640   21.1290   34.3400 C   0  0  0  0  0  0  0  0  0  0  0  0
   35.7540   21.0470   35.2640 C   0  0  0  0  0  0  0  0  0  0  0  0
   35.6760   20.5420   33.8590 C   0  0  0  0  0  0  0  0  0  0  0  0
   38.5476   25.4769   34.0038 H   0  0  0  0  0  0  0  0  0  0  0  0
   36.6460   22.3020   31.8101 H   0  0  0  0  0  0  0  0  0  0  0  0
   40.7824   22.2515   37.9472 H   0  0  0  0  0  0  0  0  0  0  0  0
   39.3059   23.2762   39.7049 H   0  0  0  0  0  0  0  0  0  0  0  0
   37.1751   24.3781   38.9878 H   0  0  0  0  0  0  0  0  0  0  0  0
   38.0072   20.7809   34.3643 H   0  0  0  0  0  0  0  0  0  0  0  0
   35.7495   20.3390   36.1059 H   0  0  0  0  0  0  0  0  0  0  0  0
   35.1823   21.7661   35.8690 H   0  0  0  0  0  0  0  0  0  0  0  0
   35.0722   21.0841   33.1163 H   0  0  0  0  0  0  0  0  0  0  0  0
   35.3903   19.5841   33.3998 H   0  0  0  0  0  0  0  0  0  0  0  0
  1 10  1  0
  2  1  2  0
  3  4  2  0
  3  2  1  0
  4  5  1  0
  5 12  1  0
  5  1  1  0
  6  7  2  0
  8  7  1  0
  9  8  2  0
 10 11  2  0
 10  9  1  0
 11  6  1  0
 12 13  1  0
 14 12  1  0
 14 13  1  0
  2 15  1  0
  4 16  1  0
  6 17  1  0
  7 18  1  0
  8 19  1  0
 12 20  1  0
 13 21  1  0
 13 22  1  0
 14 23  1  0
 14 24  1  0
M  ISO  8  15  14  16  14  17  14  18  14  19  14  20  13  21  13  22  13
M  ISO  2  23  13  24  13
M  END
>  <minimizedAffinity>  (1) 
-3.83443093

>  <minimizedRMSD>  (1) 
1.65080667

$$$$
