
     RDKit          3D

 26 27  0  0  0  0  0  0  0  0999 V2000
   38.4610   21.7670   33.6520 C   0  0  0  0  0  0  0  0  0  0  0  0
   39.6690   21.3910   33.1110 C   0  0  0  0  0  0  0  0  0  0  0  0
   39.3830   20.4880   32.1350 N   0  0  0  0  0  0  0  0  0  0  0  0
   38.0560   20.2990   32.0600 C   0  0  0  0  0  0  0  0  0  0  0  0
   37.5010   21.1000   33.0090 N   0  0  0  0  0  0  0  0  0  0  0  0
   37.8950   23.2000   36.9890 C   0  0  0  0  0  0  0  0  0  0  0  0
   37.8510   24.5830   36.7150 C   0  0  0  0  0  0  0  0  0  0  0  0
   38.0140   25.0030   35.4070 C   0  0  0  0  0  0  0  0  0  0  0  0
   38.2070   24.0400   34.4770 N   0  0  0  0  0  0  0  0  0  0  0  0
   38.2480   22.7230   34.7370 C   0  0  0  0  0  0  0  0  0  0  0  0
   38.0910   22.2910   36.0050 N   0  0  0  0  0  0  0  0  0  0  0  0
   36.0610   21.1320   33.1910 C   0  0  0  0  0  0  0  0  0  0  0  0
   35.5050   19.7030   33.2200 C   0  0  0  0  0  0  0  0  0  0  0  0
   35.3820   21.9140   32.0590 C   0  0  0  0  0  0  0  0  0  0  0  0
   40.6658   21.7489   33.4082 H   0  0  0  0  0  0  0  0  0  0  0  0
   37.5234   19.6295   31.3686 H   0  0  0  0  0  0  0  0  0  0  0  0
   37.7673   22.8525   38.0248 H   0  0  0  0  0  0  0  0  0  0  0  0
   37.6906   25.3114   37.5235 H   0  0  0  0  0  0  0  0  0  0  0  0
   37.9879   26.0689   35.1363 H   0  0  0  0  0  0  0  0  0  0  0  0
   35.8496   21.6346   34.1464 H   0  0  0  0  0  0  0  0  0  0  0  0
   35.3792   19.3796   34.2638 H   0  0  0  0  0  0  0  0  0  0  0  0
   34.5315   19.6779   32.7085 H   0  0  0  0  0  0  0  0  0  0  0  0
   36.2055   19.0265   32.7085 H   0  0  0  0  0  0  0  0  0  0  0  0
   34.7181   22.6787   32.4885 H   0  0  0  0  0  0  0  0  0  0  0  0
   36.1487   22.4009   31.4384 H   0  0  0  0  0  0  0  0  0  0  0  0
   34.7924   21.2232   31.4384 H   0  0  0  0  0  0  0  0  0  0  0  0
  1 10  1  0
  2  1  2  0
  3  2  1  0
  4  3  2  0
  4  5  1  0
  5 12  1  0
  5  1  1  0
  7  6  2  0
  8  7  1  0
  9 10  1  0
  9  8  2  0
 10 11  2  0
 11  6  1  0
 12 13  1  0
 14 12  1  0
  2 15  1  0
  4 16  1  0
  6 17  1  0
  7 18  1  0
  8 19  1  0
 12 20  1  0
 13 21  1  0
 13 22  1  0
 13 23  1  0
 14 24  1  0
 14 25  1  0
 14 26  1  0
M  ISO  8  15  14  16  14  17  14  18  14  19  14  20   8  21   8  22   8
M  ISO  4  23   8  24   8  25   8  26   8
M  END
>  <minimizedAffinity>  (1) 
-3.60843325

>  <minimizedRMSD>  (1) 
2.05735397

$$$$
