
     RDKit          3D

 20 21  0  0  0  0  0  0  0  0999 V2000
   39.9850   22.6390   37.5760 C   0  0  0  0  0  0  0  0  0  0  0  0
   39.2850   23.4850   38.4450 C   0  0  0  0  0  0  0  0  0  0  0  0
   37.9540   23.8130   38.1560 C   0  0  0  0  0  0  0  0  0  0  0  0
   37.3980   23.2820   37.0230 N   0  0  0  0  0  0  0  0  0  0  0  0
   38.1110   22.4610   36.2010 C   0  0  0  0  0  0  0  0  0  0  0  0
   39.3750   22.1520   36.4780 N   0  0  0  0  0  0  0  0  0  0  0  0
   37.4300   21.9440   35.0130 C   0  0  0  0  0  0  0  0  0  0  0  0
   37.8470   22.1230   33.7130 C   0  0  0  0  0  0  0  0  0  0  0  0
   36.9360   21.4850   32.9260 N   0  0  0  0  0  0  0  0  0  0  0  0
   35.9860   20.9280   33.6920 C   0  0  0  0  0  0  0  0  0  0  0  0
   36.3080   21.2210   34.9620 N   0  0  0  0  0  0  0  0  0  0  0  0
   35.5370   20.8050   36.1340 C   0  0  0  0  0  0  0  0  0  0  0  0
   41.0307   22.3727   37.7895 H   0  0  0  0  0  0  0  0  0  0  0  0
   39.7745   23.8874   39.3441 H   0  0  0  0  0  0  0  0  0  0  0  0
   37.3751   24.4748   38.8170 H   0  0  0  0  0  0  0  0  0  0  0  0
   38.7388   22.6722   33.3766 H   0  0  0  0  0  0  0  0  0  0  0  0
   35.1172   20.3474   33.3484 H   0  0  0  0  0  0  0  0  0  0  0  0
   36.0748   21.0952   37.0486 H   0  0  0  0  0  0  0  0  0  0  0  0
   34.5518   21.2940   36.1172 H   0  0  0  0  0  0  0  0  0  0  0  0
   35.4048   19.7131   36.1172 H   0  0  0  0  0  0  0  0  0  0  0  0
  1  2  2  0
  3  2  1  0
  4  3  2  0
  5  6  2  0
  5  4  1  0
  6  1  1  0
  7  5  1  0
  8  7  2  0
  9 10  2  0
  9  8  1  0
 10 11  1  0
 11  7  1  0
 11 12  1  0
  1 13  1  0
  2 14  1  0
  3 15  1  0
  8 16  1  0
 10 17  1  0
 12 18  1  0
 12 19  1  0
 12 20  1  0
M  ISO  8  13  14  14  14  15  14  16  14  17  14  18   8  19   8  20   8
M  END
>  <minimizedAffinity>  (1) 
-3.66406631

>  <minimizedRMSD>  (1) 
0.755810022

$$$$
