
     RDKit          3D

 33 36  0  0  0  0  0  0  0  0999 V2000
   39.1940   24.3410   35.7660 C   0  0  0  0  0  0  0  0  0  0  0  0
   38.0080   24.1590   36.4350 C   0  0  0  0  0  0  0  0  0  0  0  0
   38.1800   23.2020   37.3690 N   0  0  0  0  0  0  0  0  0  0  0  0
   39.4630   22.7680   37.3080 C   0  0  0  0  0  0  0  0  0  0  0  0
   40.0440   23.4800   36.3280 N   0  0  0  0  0  0  0  0  0  0  0  0
   39.1560   25.9350   32.4680 C   0  0  0  0  0  0  0  0  0  0  0  0
   39.9990   27.0300   32.6650 C   0  0  0  0  0  0  0  0  0  0  0  0
   40.5710   27.2150   33.9150 C   0  0  0  0  0  0  0  0  0  0  0  0
   40.2810   26.3110   34.9030 N   0  0  0  0  0  0  0  0  0  0  0  0
   39.4640   25.2600   34.6950 C   0  0  0  0  0  0  0  0  0  0  0  0
   38.9000   25.0670   33.4800 N   0  0  0  0  0  0  0  0  0  0  0  0
   41.4250   23.2540   36.0090 C   0  0  0  0  0  0  0  0  0  0  0  0
   41.7380   22.3700   34.9980 C   0  0  0  0  0  0  0  0  0  0  0  0
   43.5710   22.4460   35.0010 S   0  0  0  0  0  0  0  0  0  0  0  0
   43.5650   23.7020   36.4160 C   0  0  0  0  0  0  0  0  0  0  0  0
   42.4660   23.7970   36.5740 N   0  0  0  0  0  0  0  0  0  0  0  0
   44.8170   24.2370   36.9620 C   0  0  0  0  0  0  0  0  0  0  0  0
   46.0570   23.7890   36.5530 C   0  0  0  0  0  0  0  0  0  0  0  0
   47.1700   24.3570   37.1270 C   0  0  0  0  0  0  0  0  0  0  0  0
   47.1060   25.3430   38.0810 C   0  0  0  0  0  0  0  0  0  0  0  0
   45.8850   25.8030   38.5010 C   0  0  0  0  0  0  0  0  0  0  0  0
   44.7590   25.2440   37.9360 C   0  0  0  0  0  0  0  0  0  0  0  0
   37.0725   24.7041   36.2407 H   0  0  0  0  0  0  0  0  0  0  0  0
   39.9316   21.9928   37.9321 H   0  0  0  0  0  0  0  0  0  0  0  0
   38.6944   25.7737   31.4827 H   0  0  0  0  0  0  0  0  0  0  0  0
   40.2058   27.7329   31.8445 H   0  0  0  0  0  0  0  0  0  0  0  0
   41.2406   28.0660   34.1083 H   0  0  0  0  0  0  0  0  0  0  0  0
   41.0669   21.7769   34.3594 H   0  0  0  0  0  0  0  0  0  0  0  0
   46.1519   23.0014   35.7909 H   0  0  0  0  0  0  0  0  0  0  0  0
   48.1612   24.0040   36.8061 H   0  0  0  0  0  0  0  0  0  0  0  0
   48.0302   25.7615   38.5060 H   0  0  0  0  0  0  0  0  0  0  0  0
   45.8064   26.5919   39.2635 H   0  0  0  0  0  0  0  0  0  0  0  0
   43.7722   25.6034   38.2633 H   0  0  0  0  0  0  0  0  0  0  0  0
  1  5  1  0
  1  2  2  0
  2  3  1  0
  4  3  2  0
  5  4  1  0
  6  7  2  0
  6 11  1  0
  7  8  1  0
  8  9  2  0
 10  9  1  0
 10  1  1  0
 11 10  2  0
 12  5  1  0
 12 16  1  0
 13 14  1  0
 13 12  2  0
 14 15  1  0
 15 16  2  0
 15 17  1  0
 17 22  1  0
 18 17  2  0
 18 19  1  0
 19 20  2  0
 20 21  1  0
 22 21  2  0
  2 23  1  0
  4 24  1  0
  6 25  1  0
  7 26  1  0
  8 27  1  0
 13 28  1  0
 18 29  1  0
 19 30  1  0
 20 31  1  0
 21 32  1  0
 22 33  1  0
M  ISO  8  23  14  24  14  25  14  26  14  27  14  28  14  29  14  30  14
M  ISO  3  31  14  32  14  33  14
M  END
>  <minimizedAffinity>  (1) 
-5.20654821

>  <minimizedRMSD>  (1) 
3.70787072

$$$$
