
     RDKit          3D

 33 36  0  0  0  0  0  0  0  0999 V2000
   38.5060   24.3460   36.7280 C   0  0  0  0  0  0  0  0  0  0  0  0
   37.7860   23.9040   37.8000 C   0  0  0  0  0  0  0  0  0  0  0  0
   38.4890   22.9390   38.4260 N   0  0  0  0  0  0  0  0  0  0  0  0
   39.6520   22.7570   37.7610 C   0  0  0  0  0  0  0  0  0  0  0  0
   39.6410   23.6190   36.7370 N   0  0  0  0  0  0  0  0  0  0  0  0
   40.7440   23.6840   35.8240 C   0  0  0  0  0  0  0  0  0  0  0  0
   40.8040   22.7270   34.8220 C   0  0  0  0  0  0  0  0  0  0  0  0
   42.3430   23.2200   33.9490 S   0  0  0  0  0  0  0  0  0  0  0  0
   42.6150   24.6730   35.1480 C   0  0  0  0  0  0  0  0  0  0  0  0
   41.7190   24.5440   35.8130 N   0  0  0  0  0  0  0  0  0  0  0  0
   43.7380   25.5390   35.0110 N   0  0  0  0  0  0  0  0  0  0  0  0
   43.6870   26.4820   34.0330 C   0  0  0  0  0  0  0  0  0  0  0  0
   44.7770   27.3420   33.8800 C   0  0  0  0  0  0  0  0  0  0  0  0
   45.8780   27.2320   34.7050 C   0  0  0  0  0  0  0  0  0  0  0  0
   46.8940   27.9920   34.6040 O   0  0  0  0  0  0  0  0  0  0  0  0
   45.8980   26.2760   35.6750 N   0  0  0  0  0  0  0  0  0  0  0  0
   44.8260   25.4540   35.8020 C   0  0  0  0  0  0  0  0  0  0  0  0
   44.8080   24.5580   36.6870 O   0  0  0  0  0  0  0  0  0  0  0  0
   37.4140   26.0110   33.6480 C   0  0  0  0  0  0  0  0  0  0  0  0
   37.4540   27.3690   34.0150 C   0  0  0  0  0  0  0  0  0  0  0  0
   37.8510   27.6800   35.3000 C   0  0  0  0  0  0  0  0  0  0  0  0
   38.1840   26.6730   36.1510 N   0  0  0  0  0  0  0  0  0  0  0  0
   38.1370   25.3750   35.7730 C   0  0  0  0  0  0  0  0  0  0  0  0
   37.7550   25.0410   34.5300 N   0  0  0  0  0  0  0  0  0  0  0  0
   36.7955   24.2741   38.1031 H   0  0  0  0  0  0  0  0  0  0  0  0
   40.4494   22.0420   38.0118 H   0  0  0  0  0  0  0  0  0  0  0  0
   40.1154   21.8964   34.6078 H   0  0  0  0  0  0  0  0  0  0  0  0
   42.8077   26.5658   33.3774 H   0  0  0  0  0  0  0  0  0  0  0  0
   44.7577   28.1131   33.0957 H   0  0  0  0  0  0  0  0  0  0  0  0
   46.7110   26.1790   36.2999 H   0  0  0  0  0  0  0  0  0  0  0  0
   37.1014   25.7333   32.6306 H   0  0  0  0  0  0  0  0  0  0  0  0
   37.1775   28.1581   33.3002 H   0  0  0  0  0  0  0  0  0  0  0  0
   37.8973   28.7280   35.6310 H   0  0  0  0  0  0  0  0  0  0  0  0
  1  5  1  0
  1  2  2  0
  2  3  1  0
  4  3  2  0
  5  4  1  0
  6  5  1  0
  7  6  2  0
  8  7  1  0
  8  9  1  0
  9 10  2  0
 10  6  1  0
 11  9  1  0
 11 17  1  0
 12 11  1  0
 13 12  2  0
 13 14  1  0
 14 16  1  0
 15 14  2  0
 16 17  1  0
 17 18  2  0
 19 20  2  0
 19 24  1  0
 20 21  1  0
 21 22  2  0
 23 22  1  0
 23  1  1  0
 24 23  2  0
  2 25  1  0
  4 26  1  0
  7 27  1  0
 12 28  1  0
 13 29  1  0
 16 30  1  0
 19 31  1  0
 20 32  1  0
 21 33  1  0
M  ISO  8  25  14  26  14  27  14  28  14  29  14  30   9  31  14  32  14
M  ISO  1  33  14
M  END
>  <minimizedAffinity>  (1) 
-5.06075525

>  <minimizedRMSD>  (1) 
1.9088999

$$$$
