
     RDKit          3D

 39 43  0  0  0  0  0  0  0  0999 V2000
   38.2510   24.4660   36.1670 C   0  0  0  0  0  0  0  0  0  0  0  0
   37.5130   23.9990   37.2260 C   0  0  0  0  0  0  0  0  0  0  0  0
   38.2380   23.1110   37.9180 N   0  0  0  0  0  0  0  0  0  0  0  0
   39.4520   22.9930   37.3180 C   0  0  0  0  0  0  0  0  0  0  0  0
   39.4220   23.8300   36.2600 N   0  0  0  0  0  0  0  0  0  0  0  0
   37.3360   25.9530   32.9470 C   0  0  0  0  0  0  0  0  0  0  0  0
   37.1140   27.2920   33.3020 C   0  0  0  0  0  0  0  0  0  0  0  0
   37.2810   27.6640   34.6400 C   0  0  0  0  0  0  0  0  0  0  0  0
   37.6540   26.7120   35.5510 N   0  0  0  0  0  0  0  0  0  0  0  0
   37.8610   25.4270   35.1720 C   0  0  0  0  0  0  0  0  0  0  0  0
   37.7040   25.0460   33.8810 N   0  0  0  0  0  0  0  0  0  0  0  0
   40.5670   23.9380   35.4100 C   0  0  0  0  0  0  0  0  0  0  0  0
   40.7330   23.0450   34.3900 C   0  0  0  0  0  0  0  0  0  0  0  0
   42.3060   23.6270   33.6610 S   0  0  0  0  0  0  0  0  0  0  0  0
   42.4630   25.0300   34.9150 C   0  0  0  0  0  0  0  0  0  0  0  0
   41.5270   24.8060   35.4720 N   0  0  0  0  0  0  0  0  0  0  0  0
   43.6430   25.8430   34.7390 C   0  0  0  0  0  0  0  0  0  0  0  0
   43.8220   26.7800   33.7340 C   0  0  0  0  0  0  0  0  0  0  0  0
   44.9700   27.5450   33.5920 C   0  0  0  0  0  0  0  0  0  0  0  0
   45.9910   27.3670   34.5000 C   0  0  0  0  0  0  0  0  0  0  0  0
   45.8850   26.4600   35.5170 C   0  0  0  0  0  0  0  0  0  0  0  0
   46.9120   26.2880   36.4190 C   0  0  0  0  0  0  0  0  0  0  0  0
   46.8070   25.3620   37.4610 C   0  0  0  0  0  0  0  0  0  0  0  0
   45.6140   24.6410   37.5190 C   0  0  0  0  0  0  0  0  0  0  0  0
   44.5940   24.8220   36.6100 C   0  0  0  0  0  0  0  0  0  0  0  0
   44.7150   25.7380   35.5910 C   0  0  0  0  0  0  0  0  0  0  0  0
   36.4851   24.3066   37.4686 H   0  0  0  0  0  0  0  0  0  0  0  0
   40.2867   22.3482   37.6305 H   0  0  0  0  0  0  0  0  0  0  0  0
   37.2098   25.6380   31.9007 H   0  0  0  0  0  0  0  0  0  0  0  0
   36.8154   28.0325   32.5453 H   0  0  0  0  0  0  0  0  0  0  0  0
   37.1154   28.7047   34.9554 H   0  0  0  0  0  0  0  0  0  0  0  0
   40.0930   22.2027   34.0883 H   0  0  0  0  0  0  0  0  0  0  0  0
   43.0081   26.9252   33.0083 H   0  0  0  0  0  0  0  0  0  0  0  0
   45.0631   28.2756   32.7750 H   0  0  0  0  0  0  0  0  0  0  0  0
   46.9086   27.9661   34.4046 H   0  0  0  0  0  0  0  0  0  0  0  0
   47.8282   26.8882   36.3178 H   0  0  0  0  0  0  0  0  0  0  0  0
   47.6159   25.2110   38.1909 H   0  0  0  0  0  0  0  0  0  0  0  0
   45.4825   23.8997   38.3210 H   0  0  0  0  0  0  0  0  0  0  0  0
   43.6730   24.2274   36.7004 H   0  0  0  0  0  0  0  0  0  0  0  0
  1  5  1  0
  1  2  2  0
  2  3  1  0
  4  3  2  0
  5  4  1  0
  6  7  2  0
  6 11  1  0
  7  8  1  0
  8  9  2  0
 10  9  1  0
 10  1  1  0
 11 10  2  0
 12 16  1  0
 12  5  1  0
 13 12  2  0
 14 13  1  0
 14 15  1  0
 15 16  2  0
 17 15  1  0
 17 26  1  0
 18 17  2  0
 19 18  1  0
 19 20  2  0
 20 21  1  0
 21 26  2  0
 21 22  1  0
 22 23  2  0
 23 24  1  0
 25 24  2  0
 26 25  1  0
  2 27  1  0
  4 28  1  0
  6 29  1  0
  7 30  1  0
  8 31  1  0
 13 32  1  0
 18 33  1  0
 19 34  1  0
 20 35  1  0
 22 36  1  0
 23 37  1  0
 24 38  1  0
 25 39  1  0
M  ISO  8  27  14  28  14  29  14  30  14  31  14  32  14  33  14  34  14
M  ISO  5  35  14  36  14  37  14  38  14  39  14
M  END
>  <minimizedAffinity>  (1) 
-5.58526468

>  <minimizedRMSD>  (1) 
1.5651983

$$$$
