
     RDKit          3D

 37 41  0  0  0  0  0  0  0  0999 V2000
   39.1820   22.6330   35.3510 C   0  0  0  0  0  0  0  0  0  0  0  0
   40.3240   22.0580   35.8350 C   0  0  0  0  0  0  0  0  0  0  0  0
   41.2450   23.0180   36.0380 N   0  0  0  0  0  0  0  0  0  0  0  0
   40.7000   24.2060   35.6850 C   0  0  0  0  0  0  0  0  0  0  0  0
   39.4490   23.9410   35.2740 N   0  0  0  0  0  0  0  0  0  0  0  0
   36.5210   21.0660   33.3710 C   0  0  0  0  0  0  0  0  0  0  0  0
   35.5840   20.7240   34.3550 C   0  0  0  0  0  0  0  0  0  0  0  0
   35.8800   21.0370   35.6850 C   0  0  0  0  0  0  0  0  0  0  0  0
   37.0600   21.6560   35.9620 N   0  0  0  0  0  0  0  0  0  0  0  0
   37.9470   21.9760   34.9970 C   0  0  0  0  0  0  0  0  0  0  0  0
   37.6760   21.6820   33.7130 N   0  0  0  0  0  0  0  0  0  0  0  0
   38.6010   24.9980   34.8300 C   0  0  0  0  0  0  0  0  0  0  0  0
   37.9090   25.7200   35.7740 C   0  0  0  0  0  0  0  0  0  0  0  0
   36.9960   26.9170   34.7200 S   0  0  0  0  0  0  0  0  0  0  0  0
   37.7490   26.1850   33.1610 C   0  0  0  0  0  0  0  0  0  0  0  0
   38.3840   25.3840   33.6050 N   0  0  0  0  0  0  0  0  0  0  0  0
   37.3400   26.8070   31.8640 C   0  0  0  0  0  0  0  0  0  0  0  0
   36.0930   26.9220   31.3140 C   0  0  0  0  0  0  0  0  0  0  0  0
   36.3100   27.5680   30.1360 N   0  0  0  0  0  0  0  0  0  0  0  0
   37.6300   27.8320   29.9830 C   0  0  0  0  0  0  0  0  0  0  0  0
   38.2380   28.4710   28.9220 C   0  0  0  0  0  0  0  0  0  0  0  0
   39.6080   28.6300   28.9810 C   0  0  0  0  0  0  0  0  0  0  0  0
   40.3110   28.1490   30.0870 C   0  0  0  0  0  0  0  0  0  0  0  0
   39.6860   27.5060   31.1500 C   0  0  0  0  0  0  0  0  0  0  0  0
   38.3220   27.3440   31.0970 C   0  0  0  0  0  0  0  0  0  0  0  0
   40.4669   20.9844   36.0274 H   0  0  0  0  0  0  0  0  0  0  0  0
   41.1853   25.1923   35.7265 H   0  0  0  0  0  0  0  0  0  0  0  0
   36.3166   20.8326   32.3157 H   0  0  0  0  0  0  0  0  0  0  0  0
   34.6416   20.2231   34.0884 H   0  0  0  0  0  0  0  0  0  0  0  0
   35.1738   20.7881   36.4909 H   0  0  0  0  0  0  0  0  0  0  0  0
   37.9035   25.6102   36.8685 H   0  0  0  0  0  0  0  0  0  0  0  0
   35.1356   26.5729   31.7282 H   0  0  0  0  0  0  0  0  0  0  0  0
   35.5764   27.8199   29.4584 H   0  0  0  0  0  0  0  0  0  0  0  0
   37.6552   28.8385   28.0646 H   0  0  0  0  0  0  0  0  0  0  0  0
   40.1425   29.1327   28.1615 H   0  0  0  0  0  0  0  0  0  0  0  0
   41.4022   28.2839   30.1189 H   0  0  0  0  0  0  0  0  0  0  0  0
   40.2665   27.1376   32.0086 H   0  0  0  0  0  0  0  0  0  0  0  0
  1  2  2  0
  2  3  1  0
  4  3  2  0
  5  1  1  0
  5  4  1  0
  6 11  2  0
  6  7  1  0
  7  8  2  0
  8  9  1  0
 10  1  1  0
 10  9  2  0
 11 10  1  0
 12  5  1  0
 12 13  2  0
 14 13  1  0
 15 16  2  0
 15 14  1  0
 16 12  1  0
 17 15  1  0
 18 17  2  0
 19 18  1  0
 20 19  1  0
 20 25  2  0
 21 22  2  0
 21 20  1  0
 22 23  1  0
 23 24  2  0
 25 24  1  0
 25 17  1  0
  2 26  1  0
  4 27  1  0
  6 28  1  0
  7 29  1  0
  8 30  1  0
 13 31  1  0
 18 32  1  0
 19 33  1  0
 21 34  1  0
 22 35  1  0
 23 36  1  0
 24 37  1  0
M  ISO  8  26  14  27  14  28  14  29  14  30  14  31  14  32  14  33   9
M  ISO  4  34  14  35  14  36  14  37  14
M  END
>  <minimizedAffinity>  (1) 
-5.54342508

>  <minimizedRMSD>  (1) 
5.27029324

$$$$
