
     RDKit          3D

 36 40  0  0  0  0  0  0  0  0999 V2000
   41.4800   24.8310   35.0620 C   0  0  0  0  0  0  0  0  0  0  0  0
   42.5020   25.5730   34.4900 C   0  0  0  0  0  0  0  0  0  0  0  0
   41.5940   27.0150   33.8230 S   0  0  0  0  0  0  0  0  0  0  0  0
   39.9390   26.3190   34.4660 C   0  0  0  0  0  0  0  0  0  0  0  0
   40.3010   25.3720   34.9410 N   0  0  0  0  0  0  0  0  0  0  0  0
   38.6660   26.9700   34.2980 N   0  0  0  0  0  0  0  0  0  0  0  0
   37.9480   27.5280   35.2950 C   0  0  0  0  0  0  0  0  0  0  0  0
   36.8050   28.0520   34.7940 N   0  0  0  0  0  0  0  0  0  0  0  0
   36.8410   27.8060   33.4890 C   0  0  0  0  0  0  0  0  0  0  0  0
   35.9310   28.1230   32.5020 C   0  0  0  0  0  0  0  0  0  0  0  0
   36.2290   27.7440   31.2430 N   0  0  0  0  0  0  0  0  0  0  0  0
   37.3630   27.0840   30.9280 C   0  0  0  0  0  0  0  0  0  0  0  0
   38.2910   26.7500   31.8660 N   0  0  0  0  0  0  0  0  0  0  0  0
   37.9880   27.1300   33.1240 C   0  0  0  0  0  0  0  0  0  0  0  0
   41.0990   22.4640   35.7630 C   0  0  0  0  0  0  0  0  0  0  0  0
   41.8780   21.5920   36.4880 C   0  0  0  0  0  0  0  0  0  0  0  0
   43.0130   22.2040   36.8330 N   0  0  0  0  0  0  0  0  0  0  0  0
   42.9980   23.4720   36.3460 C   0  0  0  0  0  0  0  0  0  0  0  0
   41.8190   23.5980   35.7010 N   0  0  0  0  0  0  0  0  0  0  0  0
   38.4410   21.7690   33.3440 C   0  0  0  0  0  0  0  0  0  0  0  0
   37.3010   21.7970   34.1510 C   0  0  0  0  0  0  0  0  0  0  0  0
   37.4520   22.0520   35.5160 C   0  0  0  0  0  0  0  0  0  0  0  0
   38.7110   22.2640   35.9970 N   0  0  0  0  0  0  0  0  0  0  0  0
   39.8000   22.2320   35.1920 C   0  0  0  0  0  0  0  0  0  0  0  0
   39.6680   21.9890   33.8800 N   0  0  0  0  0  0  0  0  0  0  0  0
   34.7110   28.8210   32.7720 N   0  0  0  0  0  0  0  0  0  0  0  0
   43.5788   25.3523   34.4480 H   0  0  0  0  0  0  0  0  0  0  0  0
   38.2462   27.5532   36.3535 H   0  0  0  0  0  0  0  0  0  0  0  0
   37.5433   26.8068   29.8789 H   0  0  0  0  0  0  0  0  0  0  0  0
   41.6086   20.5563   36.7426 H   0  0  0  0  0  0  0  0  0  0  0  0
   43.7821   24.2358   36.4545 H   0  0  0  0  0  0  0  0  0  0  0  0
   38.3433   21.5673   32.2671 H   0  0  0  0  0  0  0  0  0  0  0  0
   36.3042   21.6217   33.7200 H   0  0  0  0  0  0  0  0  0  0  0  0
   36.5794   22.0811   36.1851 H   0  0  0  0  0  0  0  0  0  0  0  0
   34.0603   29.0369   32.0034 H   0  0  0  0  0  0  0  0  0  0  0  0
   34.4838   29.1074   33.7349 H   0  0  0  0  0  0  0  0  0  0  0  0
  1 19  1  0
  2  1  2  0
  3  4  1  0
  3  2  1  0
  4  5  2  0
  5  1  1  0
  6  4  1  0
  6  7  1  0
  8  7  2  0
  9  8  1  0
 10 26  1  0
 10  9  2  0
 11 10  1  0
 12 11  2  0
 12 13  1  0
 13 14  2  0
 14  9  1  0
 14  6  1  0
 15 16  2  0
 16 17  1  0
 18 17  2  0
 19 15  1  0
 19 18  1  0
 20 25  2  0
 20 21  1  0
 21 22  2  0
 22 23  1  0
 24 15  1  0
 24 23  2  0
 25 24  1  0
  2 27  1  0
  7 28  1  0
 12 29  1  0
 16 30  1  0
 18 31  1  0
 20 32  1  0
 21 33  1  0
 22 34  1  0
 26 35  1  0
 26 36  1  0
M  ISO  8  27  14  28  14  29  14  30  14  31  14  32  14  33  14  34  14
M  END
>  <minimizedAffinity>  (1) 
-5.50804329

>  <minimizedRMSD>  (1) 
5.26551294

$$$$
