
     RDKit          3D

 31 34  0  0  0  0  0  0  0  0999 V2000
   38.7700   24.3230   36.2330 C   0  0  0  0  0  0  0  0  0  0  0  0
   37.6820   24.2550   37.0480 C   0  0  0  0  0  0  0  0  0  0  0  0
   37.9210   23.3530   38.0160 N   0  0  0  0  0  0  0  0  0  0  0  0
   39.1630   22.8340   37.8340 C   0  0  0  0  0  0  0  0  0  0  0  0
   39.6510   23.4420   36.7440 N   0  0  0  0  0  0  0  0  0  0  0  0
   38.5070   25.6380   32.8140 C   0  0  0  0  0  0  0  0  0  0  0  0
   39.3210   26.7630   32.8770 C   0  0  0  0  0  0  0  0  0  0  0  0
   39.9510   27.0670   34.0750 C   0  0  0  0  0  0  0  0  0  0  0  0
   39.7470   26.2440   35.1550 N   0  0  0  0  0  0  0  0  0  0  0  0
   38.9510   25.1550   35.0680 C   0  0  0  0  0  0  0  0  0  0  0  0
   38.3290   24.8440   33.9050 N   0  0  0  0  0  0  0  0  0  0  0  0
   40.9570   23.1230   36.2700 C   0  0  0  0  0  0  0  0  0  0  0  0
   41.0770   22.1860   35.2520 C   0  0  0  0  0  0  0  0  0  0  0  0
   42.8980   22.1320   35.0100 S   0  0  0  0  0  0  0  0  0  0  0  0
   43.1520   23.4220   36.3710 C   0  0  0  0  0  0  0  0  0  0  0  0
   42.0970   23.6040   36.6730 N   0  0  0  0  0  0  0  0  0  0  0  0
   44.5730   23.8270   36.6640 C   0  0  0  0  0  0  0  0  0  0  0  0
   44.8750   24.9270   37.4340 C   0  0  0  0  0  0  0  0  0  0  0  0
   46.2510   25.1370   37.5900 C   0  0  0  0  0  0  0  0  0  0  0  0
   47.1380   24.3030   37.0140 N   0  0  0  0  0  0  0  0  0  0  0  0
   46.7470   23.2580   36.2800 C   0  0  0  0  0  0  0  0  0  0  0  0
   45.4250   22.9880   36.0820 N   0  0  0  0  0  0  0  0  0  0  0  0
   36.7586   24.8418   36.9335 H   0  0  0  0  0  0  0  0  0  0  0  0
   39.6634   22.0739   38.4519 H   0  0  0  0  0  0  0  0  0  0  0  0
   38.0004   25.3863   31.8706 H   0  0  0  0  0  0  0  0  0  0  0  0
   39.4631   27.4011   31.9923 H   0  0  0  0  0  0  0  0  0  0  0  0
   40.6014   27.9502   34.1581 H   0  0  0  0  0  0  0  0  0  0  0  0
   40.2895   21.6241   34.7284 H   0  0  0  0  0  0  0  0  0  0  0  0
   44.1103   25.5778   37.8831 H   0  0  0  0  0  0  0  0  0  0  0  0
   46.6096   25.9886   38.1868 H   0  0  0  0  0  0  0  0  0  0  0  0
   47.5055   22.6028   35.8267 H   0  0  0  0  0  0  0  0  0  0  0  0
  1  5  1  0
  1  2  2  0
  2  3  1  0
  4  3  2  0
  5  4  1  0
  6  7  2  0
  6 11  1  0
  7  8  1  0
  8  9  2  0
 10  9  1  0
 10  1  1  0
 11 10  2  0
 12 16  1  0
 12  5  1  0
 13 12  2  0
 14 13  1  0
 14 15  1  0
 15 17  1  0
 15 16  2  0
 17 18  2  0
 18 19  1  0
 20 19  2  0
 21 20  1  0
 22 21  2  0
 22 17  1  0
  2 23  1  0
  4 24  1  0
  6 25  1  0
  7 26  1  0
  8 27  1  0
 13 28  1  0
 18 29  1  0
 19 30  1  0
 21 31  1  0
M  ISO  8  23  14  24  14  25  14  26  14  27  14  28  14  29  14  30  14
M  ISO  1  31  14
M  END
>  <minimizedAffinity>  (1) 
-4.59442663

>  <minimizedRMSD>  (1) 
3.69174767

$$$$
