
     RDKit          3D

 37 40  0  0  0  0  0  0  0  0999 V2000
   38.5450   24.4690   36.8020 C   0  0  0  0  0  0  0  0  0  0  0  0
   37.9400   24.1760   37.9970 C   0  0  0  0  0  0  0  0  0  0  0  0
   38.6260   23.1930   38.5910 N   0  0  0  0  0  0  0  0  0  0  0  0
   39.6700   22.8440   37.7930 C   0  0  0  0  0  0  0  0  0  0  0  0
   39.5880   23.6370   36.7230 N   0  0  0  0  0  0  0  0  0  0  0  0
   40.5530   23.5310   35.6630 C   0  0  0  0  0  0  0  0  0  0  0  0
   40.6190   22.3450   34.9680 C   0  0  0  0  0  0  0  0  0  0  0  0
   41.9540   22.7000   33.7710 S   0  0  0  0  0  0  0  0  0  0  0  0
   42.1800   24.4500   34.4620 C   0  0  0  0  0  0  0  0  0  0  0  0
   41.4000   24.4300   35.2600 N   0  0  0  0  0  0  0  0  0  0  0  0
   43.2010   25.2570   33.8310 N   0  0  0  0  0  0  0  0  0  0  0  0
   43.4420   26.6700   34.0440 C   0  0  0  0  0  0  0  0  0  0  0  0
   44.8120   26.8800   34.6420 C   0  0  0  0  0  0  0  0  0  0  0  0
   45.7980   26.4440   33.7020 N   0  0  0  0  0  0  0  0  0  0  0  0
   45.5960   25.0740   33.3510 C   0  0  0  0  0  0  0  0  0  0  0  0
   44.1920   24.8040   32.8530 C   0  0  0  0  0  0  0  0  0  0  0  0
   37.3440   26.0410   33.7110 C   0  0  0  0  0  0  0  0  0  0  0  0
   37.3780   27.4020   34.0390 C   0  0  0  0  0  0  0  0  0  0  0  0
   37.8070   27.7600   35.3010 C   0  0  0  0  0  0  0  0  0  0  0  0
   38.1780   26.7770   36.1740 N   0  0  0  0  0  0  0  0  0  0  0  0
   38.1360   25.4720   35.8300 C   0  0  0  0  0  0  0  0  0  0  0  0
   37.7220   25.1030   34.6110 N   0  0  0  0  0  0  0  0  0  0  0  0
   37.0416   24.6667   38.3996 H   0  0  0  0  0  0  0  0  0  0  0  0
   40.4255   22.0688   37.9888 H   0  0  0  0  0  0  0  0  0  0  0  0
   40.0262   21.4276   35.0982 H   0  0  0  0  0  0  0  0  0  0  0  0
   43.3808   27.1984   33.0812 H   0  0  0  0  0  0  0  0  0  0  0  0
   42.6835   27.0634   34.7367 H   0  0  0  0  0  0  0  0  0  0  0  0
   44.9589   27.9474   34.8633 H   0  0  0  0  0  0  0  0  0  0  0  0
   44.9046   26.3039   35.5745 H   0  0  0  0  0  0  0  0  0  0  0  0
   45.7336   27.0229   32.8525 H   0  0  0  0  0  0  0  0  0  0  0  0
   46.3094   24.8040   32.5584 H   0  0  0  0  0  0  0  0  0  0  0  0
   45.7510   24.4704   34.2575 H   0  0  0  0  0  0  0  0  0  0  0  0
   44.0355   25.3400   31.9053 H   0  0  0  0  0  0  0  0  0  0  0  0
   44.0718   23.7210   32.7027 H   0  0  0  0  0  0  0  0  0  0  0  0
   37.0065   25.7307   32.7111 H   0  0  0  0  0  0  0  0  0  0  0  0
   37.0707   28.1660   33.3097 H   0  0  0  0  0  0  0  0  0  0  0  0
   37.8494   28.8181   35.5986 H   0  0  0  0  0  0  0  0  0  0  0  0
  1  2  2  0
  2  3  1  0
  4  3  2  0
  5  1  1  0
  5  4  1  0
  6  5  1  0
  7  6  2  0
  8  9  1  0
  8  7  1  0
  9 10  2  0
 10  6  1  0
 11 12  1  0
 11  9  1  0
 12 13  1  0
 14 13  1  0
 15 14  1  0
 16 15  1  0
 16 11  1  0
 17 18  2  0
 17 22  1  0
 18 19  1  0
 19 20  2  0
 21 20  1  0
 21  1  1  0
 22 21  2  0
  2 23  1  0
  4 24  1  0
  7 25  1  0
 12 26  1  0
 12 27  1  0
 13 28  1  0
 13 29  1  0
 14 30  1  0
 15 31  1  0
 15 32  1  0
 16 33  1  0
 16 34  1  0
 17 35  1  0
 18 36  1  0
 19 37  1  0
M  ISO  8  23  14  24  14  25  14  26  13  27  13  28  13  29  13  30   5
M  ISO  7  31  13  32  13  33  13  34  13  35  14  36  14  37  14
M  END
>  <minimizedAffinity>  (1) 
-4.70050001

>  <minimizedRMSD>  (1) 
1.8039602

$$$$
