
     RDKit          3D

 32 35  0  0  0  0  0  0  0  0999 V2000
   39.4840   24.2480   35.6310 C   0  0  0  0  0  0  0  0  0  0  0  0
   38.2270   24.0870   36.1620 C   0  0  0  0  0  0  0  0  0  0  0  0
   38.2740   23.1470   37.1250 N   0  0  0  0  0  0  0  0  0  0  0  0
   39.5500   22.7030   37.2200 C   0  0  0  0  0  0  0  0  0  0  0  0
   40.2520   23.3880   36.3060 N   0  0  0  0  0  0  0  0  0  0  0  0
   40.0480   25.6530   32.2970 C   0  0  0  0  0  0  0  0  0  0  0  0
   40.6650   26.8690   32.5920 C   0  0  0  0  0  0  0  0  0  0  0  0
   40.8790   27.1940   33.9290 C   0  0  0  0  0  0  0  0  0  0  0  0
   40.4810   26.3160   34.8980 N   0  0  0  0  0  0  0  0  0  0  0  0
   39.8890   25.1480   34.5790 C   0  0  0  0  0  0  0  0  0  0  0  0
   39.6690   24.8090   33.2840 N   0  0  0  0  0  0  0  0  0  0  0  0
   41.6490   23.1460   36.1540 C   0  0  0  0  0  0  0  0  0  0  0  0
   42.0550   22.0230   35.4470 C   0  0  0  0  0  0  0  0  0  0  0  0
   43.8850   22.1640   35.5370 S   0  0  0  0  0  0  0  0  0  0  0  0
   43.7490   23.7590   36.5430 C   0  0  0  0  0  0  0  0  0  0  0  0
   42.6400   23.8610   36.6070 N   0  0  0  0  0  0  0  0  0  0  0  0
   44.9590   24.4810   37.0000 C   0  0  0  0  0  0  0  0  0  0  0  0
   44.9250   25.2520   38.1190 C   0  0  0  0  0  0  0  0  0  0  0  0
   46.0840   25.9010   38.4950 C   0  0  0  0  0  0  0  0  0  0  0  0
   47.2500   25.7820   37.7710 C   0  0  0  0  0  0  0  0  0  0  0  0
   47.2270   24.9880   36.6450 C   0  0  0  0  0  0  0  0  0  0  0  0
   46.0920   24.3610   36.2890 N   0  0  0  0  0  0  0  0  0  0  0  0
   37.3270   24.6375   35.8505 H   0  0  0  0  0  0  0  0  0  0  0  0
   39.9331   21.9352   37.9083 H   0  0  0  0  0  0  0  0  0  0  0  0
   39.8672   25.3768   31.2477 H   0  0  0  0  0  0  0  0  0  0  0  0
   40.9746   27.5537   31.7887 H   0  0  0  0  0  0  0  0  0  0  0  0
   41.3616   28.1441   34.2016 H   0  0  0  0  0  0  0  0  0  0  0  0
   41.4418   21.2505   34.9601 H   0  0  0  0  0  0  0  0  0  0  0  0
   44.0014   25.3557   38.7074 H   0  0  0  0  0  0  0  0  0  0  0  0
   46.0763   26.5302   39.3972 H   0  0  0  0  0  0  0  0  0  0  0  0
   48.1679   26.3029   38.0811 H   0  0  0  0  0  0  0  0  0  0  0  0
   48.1363   24.8672   36.0379 H   0  0  0  0  0  0  0  0  0  0  0  0
  1  2  2  0
  1  5  1  0
  2  3  1  0
  3  4  2  0
  5  4  1  0
  6  7  2  0
  6 11  1  0
  7  8  1  0
  8  9  2  0
 10  9  1  0
 10  1  1  0
 11 10  2  0
 12  5  1  0
 12 16  1  0
 13 14  1  0
 13 12  2  0
 14 15  1  0
 15 16  2  0
 15 17  1  0
 17 18  2  0
 18 19  1  0
 20 19  2  0
 21 20  1  0
 22 21  2  0
 22 17  1  0
  2 23  1  0
  4 24  1  0
  6 25  1  0
  7 26  1  0
  8 27  1  0
 13 28  1  0
 18 29  1  0
 19 30  1  0
 20 31  1  0
 21 32  1  0
M  ISO  8  23  14  24  14  25  14  26  14  27  14  28  14  29  14  30  14
M  ISO  2  31  14  32  14
M  END
>  <minimizedAffinity>  (1) 
-4.80354357

>  <minimizedRMSD>  (1) 
3.75216293

$$$$
