
     RDKit          3D

 29 32  0  0  0  0  0  0  0  0999 V2000
   38.4670   24.4400   36.3900 C   0  0  0  0  0  0  0  0  0  0  0  0
   37.7860   23.9010   37.4430 C   0  0  0  0  0  0  0  0  0  0  0  0
   38.5470   22.9400   37.9970 N   0  0  0  0  0  0  0  0  0  0  0  0
   39.7100   22.8590   37.3060 C   0  0  0  0  0  0  0  0  0  0  0  0
   39.6360   23.7780   36.3390 N   0  0  0  0  0  0  0  0  0  0  0  0
   37.2000   26.2030   33.4230 C   0  0  0  0  0  0  0  0  0  0  0  0
   37.1980   27.5290   33.8530 C   0  0  0  0  0  0  0  0  0  0  0  0
   37.6250   27.8100   35.1390 C   0  0  0  0  0  0  0  0  0  0  0  0
   38.0320   26.7780   35.9400 N   0  0  0  0  0  0  0  0  0  0  0  0
   38.0250   25.5080   35.5040 C   0  0  0  0  0  0  0  0  0  0  0  0
   37.6110   25.2130   34.2510 N   0  0  0  0  0  0  0  0  0  0  0  0
   40.7160   23.9580   35.4160 C   0  0  0  0  0  0  0  0  0  0  0  0
   40.7340   23.1990   34.2800 C   0  0  0  0  0  0  0  0  0  0  0  0
   42.2690   23.7910   33.4620 S   0  0  0  0  0  0  0  0  0  0  0  0
   42.5990   24.9980   34.8740 C   0  0  0  0  0  0  0  0  0  0  0  0
   41.7180   24.7760   35.5170 N   0  0  0  0  0  0  0  0  0  0  0  0
   43.8830   25.9000   34.7870 C   0  0  0  0  0  0  0  0  0  0  0  0
   43.7870   26.9080   33.8720 C   0  0  0  0  0  0  0  0  0  0  0  0
   45.4510   27.7140   34.0690 S   0  0  0  0  0  0  0  0  0  0  0  0
   45.9260   26.4540   35.4050 C   0  0  0  0  0  0  0  0  0  0  0  0
   44.9650   25.7310   35.5110 N   0  0  0  0  0  0  0  0  0  0  0  0
   36.7836   24.2018   37.7816 H   0  0  0  0  0  0  0  0  0  0  0  0
   40.5476   22.1735   37.5021 H   0  0  0  0  0  0  0  0  0  0  0  0
   36.8654   25.9589   32.4040 H   0  0  0  0  0  0  0  0  0  0  0  0
   36.8638   28.3355   33.1838 H   0  0  0  0  0  0  0  0  0  0  0  0
   37.6370   28.8452   35.5109 H   0  0  0  0  0  0  0  0  0  0  0  0
   40.0180   22.4347   33.9437 H   0  0  0  0  0  0  0  0  0  0  0  0
   42.9547   27.1711   33.2026 H   0  0  0  0  0  0  0  0  0  0  0  0
   46.8724   26.3949   35.9626 H   0  0  0  0  0  0  0  0  0  0  0  0
  1  2  2  0
  2  3  1  0
  4  3  2  0
  5  1  1  0
  5  4  1  0
  6  7  2  0
  6 11  1  0
  7  8  1  0
  8  9  2  0
 10  9  1  0
 10  1  1  0
 11 10  2  0
 12 16  1  0
 12  5  1  0
 13 12  2  0
 14 13  1  0
 14 15  1  0
 15 16  2  0
 17 15  1  0
 17 21  1  0
 18 19  1  0
 18 17  2  0
 19 20  1  0
 20 21  2  0
  2 22  1  0
  4 23  1  0
  6 24  1  0
  7 25  1  0
  8 26  1  0
 13 27  1  0
 18 28  1  0
 20 29  1  0
M  ISO  8  22  14  23  14  24  14  25  14  26  14  27  14  28  14  29  14
M  END
>  <minimizedAffinity>  (1) 
-4.35646248

>  <minimizedRMSD>  (1) 
1.42218339

$$$$
