
     RDKit          3D

 29 31  0  0  0  0  0  0  0  0999 V2000
   38.5280   24.4300   36.7800 C   0  0  0  0  0  0  0  0  0  0  0  0
   37.8760   24.0490   37.9250 C   0  0  0  0  0  0  0  0  0  0  0  0
   38.5800   23.0650   38.5140 N   0  0  0  0  0  0  0  0  0  0  0  0
   39.6790   22.8060   37.7600 C   0  0  0  0  0  0  0  0  0  0  0  0
   39.6140   23.6500   36.7210 N   0  0  0  0  0  0  0  0  0  0  0  0
   37.3320   26.0420   33.7160 C   0  0  0  0  0  0  0  0  0  0  0  0
   37.3830   27.3910   34.0600 C   0  0  0  0  0  0  0  0  0  0  0  0
   37.8240   27.7330   35.3270 C   0  0  0  0  0  0  0  0  0  0  0  0
   38.1910   26.7420   36.1940 N   0  0  0  0  0  0  0  0  0  0  0  0
   38.1340   25.4470   35.8410 C   0  0  0  0  0  0  0  0  0  0  0  0
   37.7060   25.0880   34.6060 N   0  0  0  0  0  0  0  0  0  0  0  0
   40.6440   23.6330   35.7210 C   0  0  0  0  0  0  0  0  0  0  0  0
   41.0050   22.4110   35.1810 C   0  0  0  0  0  0  0  0  0  0  0  0
   42.3110   22.9170   33.9950 S   0  0  0  0  0  0  0  0  0  0  0  0
   42.1070   24.7490   34.4770 C   0  0  0  0  0  0  0  0  0  0  0  0
   41.2930   24.6620   35.2510 N   0  0  0  0  0  0  0  0  0  0  0  0
   42.9370   25.8080   33.8370 C   0  0  0  0  0  0  0  0  0  0  0  0
   42.0800   27.0600   33.7980 C   0  0  0  0  0  0  0  0  0  0  0  0
   36.9343   24.4767   38.2995 H   0  0  0  0  0  0  0  0  0  0  0  0
   40.4607   22.0584   37.9604 H   0  0  0  0  0  0  0  0  0  0  0  0
   36.9856   25.7475   32.7144 H   0  0  0  0  0  0  0  0  0  0  0  0
   37.0798   28.1667   33.3414 H   0  0  0  0  0  0  0  0  0  0  0  0
   37.8783   28.7885   35.6320 H   0  0  0  0  0  0  0  0  0  0  0  0
   40.6144   21.4069   35.4029 H   0  0  0  0  0  0  0  0  0  0  0  0
   43.8465   25.9880   34.4289 H   0  0  0  0  0  0  0  0  0  0  0  0
   43.2534   25.5100   32.8265 H   0  0  0  0  0  0  0  0  0  0  0  0
   41.8579   27.3845   34.8253 H   0  0  0  0  0  0  0  0  0  0  0  0
   42.6216   27.8588   33.2702 H   0  0  0  0  0  0  0  0  0  0  0  0
   41.1393   26.8442   33.2702 H   0  0  0  0  0  0  0  0  0  0  0  0
  1  2  2  0
  2  3  1  0
  4  3  2  0
  5  1  1  0
  5  4  1  0
  6  7  2  0
  6 11  1  0
  7  8  1  0
  8  9  2  0
 10  9  1  0
 10  1  1  0
 11 10  2  0
 12  5  1  0
 13 12  2  0
 14 15  1  0
 14 13  1  0
 15 16  2  0
 16 12  1  0
 17 15  1  0
 18 17  1  0
  2 19  1  0
  4 20  1  0
  6 21  1  0
  7 22  1  0
  8 23  1  0
 13 24  1  0
 17 25  1  0
 17 26  1  0
 18 27  1  0
 18 28  1  0
 18 29  1  0
M  ISO  8  19  14  20  14  21  14  22  14  23  14  24  14  25   8  26   8
M  ISO  3  27   8  28   8  29   8
M  END
>  <minimizedAffinity>  (1) 
-4.17178249

>  <minimizedRMSD>  (1) 
1.39104438

$$$$
