
     RDKit          3D

 31 34  0  0  0  0  0  0  0  0999 V2000
   38.8570   20.8500   32.5640 C   0  0  0  0  0  0  0  0  0  0  0  0
   39.7950   20.0130   32.0410 C   0  0  0  0  0  0  0  0  0  0  0  0
   41.0030   20.3680   32.5210 N   0  0  0  0  0  0  0  0  0  0  0  0
   40.8470   21.4270   33.3480 C   0  0  0  0  0  0  0  0  0  0  0  0
   39.5390   21.6970   33.3550 N   0  0  0  0  0  0  0  0  0  0  0  0
   35.5700   21.5640   31.1020 C   0  0  0  0  0  0  0  0  0  0  0  0
   34.7130   20.8100   31.8920 C   0  0  0  0  0  0  0  0  0  0  0  0
   35.2700   20.0550   32.9280 C   0  0  0  0  0  0  0  0  0  0  0  0
   36.6240   20.0960   33.1140 N   0  0  0  0  0  0  0  0  0  0  0  0
   37.4350   20.8410   32.3280 C   0  0  0  0  0  0  0  0  0  0  0  0
   36.9100   21.5780   31.3200 N   0  0  0  0  0  0  0  0  0  0  0  0
   39.0320   22.7720   34.1400 C   0  0  0  0  0  0  0  0  0  0  0  0
   39.1260   22.6820   35.5200 C   0  0  0  0  0  0  0  0  0  0  0  0
   38.3590   24.2640   36.0550 S   0  0  0  0  0  0  0  0  0  0  0  0
   38.0470   24.7620   34.2550 C   0  0  0  0  0  0  0  0  0  0  0  0
   38.4690   23.8730   33.7230 N   0  0  0  0  0  0  0  0  0  0  0  0
   37.3980   26.0440   33.9260 C   0  0  0  0  0  0  0  0  0  0  0  0
   36.9950   26.3560   32.6410 C   0  0  0  0  0  0  0  0  0  0  0  0
   36.3990   27.5800   32.4420 C   0  0  0  0  0  0  0  0  0  0  0  0
   36.2030   28.4560   33.4370 N   0  0  0  0  0  0  0  0  0  0  0  0
   36.6020   28.1440   34.7020 C   0  0  0  0  0  0  0  0  0  0  0  0
   37.1880   26.9540   34.9230 N   0  0  0  0  0  0  0  0  0  0  0  0
   39.5994   19.1854   31.3433 H   0  0  0  0  0  0  0  0  0  0  0  0
   41.6360   21.9573   33.9015 H   0  0  0  0  0  0  0  0  0  0  0  0
   35.1535   22.1644   30.2798 H   0  0  0  0  0  0  0  0  0  0  0  0
   33.6285   20.8068   31.7082 H   0  0  0  0  0  0  0  0  0  0  0  0
   34.6322   19.4404   33.5803 H   0  0  0  0  0  0  0  0  0  0  0  0
   39.5494   21.8741   36.1348 H   0  0  0  0  0  0  0  0  0  0  0  0
   37.1452   25.6523   31.8090 H   0  0  0  0  0  0  0  0  0  0  0  0
   36.0708   27.8498   31.4274 H   0  0  0  0  0  0  0  0  0  0  0  0
   36.4474   28.8534   35.5283 H   0  0  0  0  0  0  0  0  0  0  0  0
  1  5  1  0
  2  3  1  0
  2  1  2  0
  3  4  2  0
  4  5  1  0
  5 12  1  0
  6 11  2  0
  6  7  1  0
  7  8  2  0
  8  9  1  0
 10  1  1  0
 10  9  2  0
 11 10  1  0
 12 13  2  0
 13 14  1  0
 15 14  1  0
 16 12  1  0
 16 15  2  0
 17 15  1  0
 17 22  1  0
 18 17  2  0
 19 18  1  0
 19 20  2  0
 20 21  1  0
 21 22  2  0
  2 23  1  0
  4 24  1  0
  6 25  1  0
  7 26  1  0
  8 27  1  0
 13 28  1  0
 18 29  1  0
 19 30  1  0
 21 31  1  0
M  ISO  8  23  14  24  14  25  14  26  14  27  14  28  14  29  14  30  14
M  ISO  1  31  14
M  END
>  <minimizedAffinity>  (1) 
-4.26443624

>  <minimizedRMSD>  (1) 
5.89650774

$$$$
