
     RDKit          3D

 35 37  0  0  0  0  0  0  0  0999 V2000
   38.1480   24.2250   34.8280 C   0  0  0  0  0  0  0  0  0  0  0  0
   38.2700   24.2280   36.1810 C   0  0  0  0  0  0  0  0  0  0  0  0
   38.1820   22.9650   36.6280 N   0  0  0  0  0  0  0  0  0  0  0  0
   38.0020   22.1390   35.5680 C   0  0  0  0  0  0  0  0  0  0  0  0
   37.9860   22.9360   34.4880 N   0  0  0  0  0  0  0  0  0  0  0  0
   37.0880   26.8780   32.5240 C   0  0  0  0  0  0  0  0  0  0  0  0
   38.2900   27.5160   32.2330 C   0  0  0  0  0  0  0  0  0  0  0  0
   39.4500   27.0350   32.8260 C   0  0  0  0  0  0  0  0  0  0  0  0
   39.3570   25.9570   33.6680 N   0  0  0  0  0  0  0  0  0  0  0  0
   38.1820   25.3620   33.9280 C   0  0  0  0  0  0  0  0  0  0  0  0
   37.0530   25.8210   33.3600 N   0  0  0  0  0  0  0  0  0  0  0  0
   37.8110   22.3700   33.1810 C   0  0  0  0  0  0  0  0  0  0  0  0
   36.6290   21.7310   32.9060 C   0  0  0  0  0  0  0  0  0  0  0  0
   36.9000   21.2070   31.1680 S   0  0  0  0  0  0  0  0  0  0  0  0
   38.6380   21.9880   31.1500 C   0  0  0  0  0  0  0  0  0  0  0  0
   38.6610   22.3870   32.1940 N   0  0  0  0  0  0  0  0  0  0  0  0
   39.5010   21.9290   29.9430 C   0  0  0  0  0  0  0  0  0  0  0  0
   39.1020   20.7420   29.0550 C   0  0  0  0  0  0  0  0  0  0  0  0
   39.3370   23.1650   29.1170 C   0  0  0  0  0  0  0  0  0  0  0  0
   40.9600   21.7340   30.2820 C   0  0  0  0  0  0  0  0  0  0  0  0
   38.4169   25.1197   36.8081 H   0  0  0  0  0  0  0  0  0  0  0  0
   37.8921   21.0447   35.5887 H   0  0  0  0  0  0  0  0  0  0  0  0
   36.1556   27.2404   32.0666 H   0  0  0  0  0  0  0  0  0  0  0  0
   38.3205   28.3787   31.5512 H   0  0  0  0  0  0  0  0  0  0  0  0
   40.4222   27.5086   32.6246 H   0  0  0  0  0  0  0  0  0  0  0  0
   35.7535   21.5745   33.5534 H   0  0  0  0  0  0  0  0  0  0  0  0
   38.8156   19.8899   29.6889 H   0  0  0  0  0  0  0  0  0  0  0  0
   38.2509   21.0290   28.4199 H   0  0  0  0  0  0  0  0  0  0  0  0
   39.9536   20.4566   28.4199 H   0  0  0  0  0  0  0  0  0  0  0  0
   39.2215   24.0358   29.7791 H   0  0  0  0  0  0  0  0  0  0  0  0
   40.2248   23.3023   28.4822 H   0  0  0  0  0  0  0  0  0  0  0  0
   38.4441   23.0660   28.4822 H   0  0  0  0  0  0  0  0  0  0  0  0
   41.0835   21.7175   31.3749 H   0  0  0  0  0  0  0  0  0  0  0  0
   41.3105   20.7810   29.8590 H   0  0  0  0  0  0  0  0  0  0  0  0
   41.5485   22.5615   29.8590 H   0  0  0  0  0  0  0  0  0  0  0  0
  1  2  2  0
  2  3  1  0
  4  3  2  0
  5  1  1  0
  5  4  1  0
  6 11  2  0
  7  6  1  0
  7  8  2  0
  8  9  1  0
  9 10  2  0
 10  1  1  0
 11 10  1  0
 12  5  1  0
 13 12  2  0
 14 13  1  0
 15 14  1  0
 15 16  2  0
 16 12  1  0
 17 20  1  0
 17 15  1  0
 18 17  1  0
 19 17  1  0
  2 21  1  0
  4 22  1  0
  6 23  1  0
  7 24  1  0
  8 25  1  0
 13 26  1  0
 18 27  1  0
 18 28  1  0
 18 29  1  0
 19 30  1  0
 19 31  1  0
 19 32  1  0
 20 33  1  0
 20 34  1  0
 20 35  1  0
M  ISO  8  21  14  22  14  23  14  24  14  25  14  26  14  27   8  28   8
M  ISO  7  29   8  30   8  31   8  32   8  33   8  34   8  35   8
M  END
>  <minimizedAffinity>  (1) 
-3.68017006

>  <minimizedRMSD>  (1) 
4.89948368

$$$$
