
     RDKit          3D

 29 32  0  0  0  0  0  0  0  0999 V2000
   38.4700   24.1780   36.1520 C   0  0  0  0  0  0  0  0  0  0  0  0
   37.5480   23.9840   37.1550 C   0  0  0  0  0  0  0  0  0  0  0  0
   38.1080   23.2230   38.1110 N   0  0  0  0  0  0  0  0  0  0  0  0
   39.3760   22.9230   37.7420 C   0  0  0  0  0  0  0  0  0  0  0  0
   39.5600   23.5180   36.5510 N   0  0  0  0  0  0  0  0  0  0  0  0
   40.8180   23.3930   35.8750 C   0  0  0  0  0  0  0  0  0  0  0  0
   40.9530   22.4090   34.9220 C   0  0  0  0  0  0  0  0  0  0  0  0
   42.6900   22.6640   34.3760 S   0  0  0  0  0  0  0  0  0  0  0  0
   42.9040   24.1000   35.5850 C   0  0  0  0  0  0  0  0  0  0  0  0
   41.8850   24.1160   36.0550 N   0  0  0  0  0  0  0  0  0  0  0  0
   44.0890   24.9260   35.8040 N   0  0  0  0  0  0  0  0  0  0  0  0
   44.8820   25.2370   36.8450 C   0  0  0  0  0  0  0  0  0  0  0  0
   45.8300   26.0680   36.3860 N   0  0  0  0  0  0  0  0  0  0  0  0
   45.6460   26.2840   35.0760 C   0  0  0  0  0  0  0  0  0  0  0  0
   44.5600   25.5620   34.7430 N   0  0  0  0  0  0  0  0  0  0  0  0
   37.6510   25.0130   32.6770 C   0  0  0  0  0  0  0  0  0  0  0  0
   37.9680   26.3810   32.6290 C   0  0  0  0  0  0  0  0  0  0  0  0
   38.4530   26.9870   33.7800 C   0  0  0  0  0  0  0  0  0  0  0  0
   38.6050   26.2400   34.9120 N   0  0  0  0  0  0  0  0  0  0  0  0
   38.2950   24.9310   34.9360 C   0  0  0  0  0  0  0  0  0  0  0  0
   37.8190   24.3130   33.8270 N   0  0  0  0  0  0  0  0  0  0  0  0
   36.5237   24.3848   37.1716 H   0  0  0  0  0  0  0  0  0  0  0  0
   40.1045   22.3177   38.3013 H   0  0  0  0  0  0  0  0  0  0  0  0
   40.2171   21.6671   34.5784 H   0  0  0  0  0  0  0  0  0  0  0  0
   44.7736   24.8774   37.8789 H   0  0  0  0  0  0  0  0  0  0  0  0
   46.2540   26.9174   34.4133 H   0  0  0  0  0  0  0  0  0  0  0  0
   37.2653   24.5079   31.7792 H   0  0  0  0  0  0  0  0  0  0  0  0
   37.8351   26.9578   31.7019 H   0  0  0  0  0  0  0  0  0  0  0  0
   38.7116   28.0562   33.7796 H   0  0  0  0  0  0  0  0  0  0  0  0
  1  5  1  0
  1  2  2  0
  2  3  1  0
  4  3  2  0
  5  4  1  0
  6 10  1  0
  6  5  1  0
  7  6  2  0
  8  7  1  0
  8  9  1  0
  9 11  1  0
  9 10  2  0
 11 12  1  0
 13 12  2  0
 14 13  1  0
 15 14  2  0
 15 11  1  0
 16 21  2  0
 17 16  1  0
 17 18  2  0
 18 19  1  0
 19 20  2  0
 20  1  1  0
 21 20  1  0
  2 22  1  0
  4 23  1  0
  7 24  1  0
 12 25  1  0
 14 26  1  0
 16 27  1  0
 17 28  1  0
 18 29  1  0
M  ISO  8  22  14  23  14  24  14  25  14  26  14  27  14  28  14  29  14
M  END
>  <minimizedAffinity>  (1) 
-4.41181517

>  <minimizedRMSD>  (1) 
2.34408879

$$$$
