
     RDKit          3D

 32 35  0  0  0  0  0  0  0  0999 V2000
   38.4750   23.6930   36.3280 C   0  0  0  0  0  0  0  0  0  0  0  0
   37.6920   23.5690   37.4520 C   0  0  0  0  0  0  0  0  0  0  0  0
   38.4530   23.1250   38.4620 N   0  0  0  0  0  0  0  0  0  0  0  0
   39.7260   22.9580   38.0100 C   0  0  0  0  0  0  0  0  0  0  0  0
   39.6930   23.3120   36.7180 N   0  0  0  0  0  0  0  0  0  0  0  0
   40.8950   23.2520   35.9290 C   0  0  0  0  0  0  0  0  0  0  0  0
   41.0660   22.1930   35.0800 C   0  0  0  0  0  0  0  0  0  0  0  0
   42.7030   22.5800   34.3330 S   0  0  0  0  0  0  0  0  0  0  0  0
   42.8440   24.1670   35.3590 C   0  0  0  0  0  0  0  0  0  0  0  0
   41.8730   24.1070   35.9210 N   0  0  0  0  0  0  0  0  0  0  0  0
   43.9250   25.1310   35.3650 N   0  0  0  0  0  0  0  0  0  0  0  0
   44.7700   25.6350   36.2740 C   0  0  0  0  0  0  0  0  0  0  0  0
   45.5630   26.5180   35.6530 N   0  0  0  0  0  0  0  0  0  0  0  0
   45.2260   26.5740   34.3520 C   0  0  0  0  0  0  0  0  0  0  0  0
   44.2140   25.7090   34.2090 N   0  0  0  0  0  0  0  0  0  0  0  0
   37.5140   23.6460   32.8000 C   0  0  0  0  0  0  0  0  0  0  0  0
   37.2760   25.0140   32.5420 C   0  0  0  0  0  0  0  0  0  0  0  0
   37.4530   25.9020   33.5820 C   0  0  0  0  0  0  0  0  0  0  0  0
   37.8420   25.4490   34.8000 N   0  0  0  0  0  0  0  0  0  0  0  0
   38.0650   24.1350   35.0270 C   0  0  0  0  0  0  0  0  0  0  0  0
   37.9030   23.2370   34.0350 N   0  0  0  0  0  0  0  0  0  0  0  0
   37.2110   27.3500   33.3470 C   0  0  0  0  0  0  0  0  0  0  0  0
   36.0280   27.5490   32.6380 F   0  0  0  0  0  0  0  0  0  0  0  0
   37.1460   28.0820   34.4990 F   0  0  0  0  0  0  0  0  0  0  0  0
   38.2090   27.8710   32.5350 F   0  0  0  0  0  0  0  0  0  0  0  0
   36.6175   23.7968   37.5121 H   0  0  0  0  0  0  0  0  0  0  0  0
   40.5967   22.6071   38.5834 H   0  0  0  0  0  0  0  0  0  0  0  0
   40.4011   21.3368   34.8932 H   0  0  0  0  0  0  0  0  0  0  0  0
   44.8062   25.3706   37.3411 H   0  0  0  0  0  0  0  0  0  0  0  0
   45.6847   27.1982   33.5710 H   0  0  0  0  0  0  0  0  0  0  0  0
   37.3834   22.9073   31.9955 H   0  0  0  0  0  0  0  0  0  0  0  0
   36.9605   25.3590   31.5463 H   0  0  0  0  0  0  0  0  0  0  0  0
  1  5  1  0
  1  2  2  0
  2  3  1  0
  4  3  2  0
  5  4  1  0
  6  5  1  0
  7  6  2  0
  8  7  1  0
  8  9  1  0
  9 11  1  0
  9 10  2  0
 10  6  1  0
 11 12  1  0
 13 12  2  0
 14 13  1  0
 15 14  2  0
 15 11  1  0
 16 21  2  0
 17 16  1  0
 17 18  2  0
 18 19  1  0
 19 20  2  0
 20  1  1  0
 21 20  1  0
 22 18  1  0
 22 24  1  0
 23 22  1  0
 25 22  1  0
  2 26  1  0
  4 27  1  0
  7 28  1  0
 12 29  1  0
 14 30  1  0
 16 31  1  0
 17 32  1  0
M  ISO  7  26  14  27  14  28  14  29  14  30  14  31  14  32  14
M  END
>  <minimizedAffinity>  (1) 
-5.2435112

>  <minimizedRMSD>  (1) 
1.14565873

$$$$
