
     RDKit          3D

 32 35  0  0  0  0  0  0  0  0999 V2000
   38.4780   23.8970   36.4310 C   0  0  0  0  0  0  0  0  0  0  0  0
   37.7370   23.7290   37.5820 C   0  0  0  0  0  0  0  0  0  0  0  0
   38.5160   23.1370   38.5050 N   0  0  0  0  0  0  0  0  0  0  0  0
   39.7440   22.9200   37.9710 C   0  0  0  0  0  0  0  0  0  0  0  0
   39.6760   23.3920   36.7200 N   0  0  0  0  0  0  0  0  0  0  0  0
   40.8270   23.3150   35.8680 C   0  0  0  0  0  0  0  0  0  0  0  0
   40.9690   22.2100   35.0510 C   0  0  0  0  0  0  0  0  0  0  0  0
   42.5460   22.5850   34.1960 S   0  0  0  0  0  0  0  0  0  0  0  0
   42.7270   24.2170   35.1310 C   0  0  0  0  0  0  0  0  0  0  0  0
   41.7910   24.1820   35.7610 N   0  0  0  0  0  0  0  0  0  0  0  0
   43.7920   25.2040   35.0310 N   0  0  0  0  0  0  0  0  0  0  0  0
   44.6630   25.7740   35.8710 C   0  0  0  0  0  0  0  0  0  0  0  0
   45.4080   26.6310   35.1470 N   0  0  0  0  0  0  0  0  0  0  0  0
   45.0080   26.6000   33.8680 C   0  0  0  0  0  0  0  0  0  0  0  0
   44.0010   25.7030   33.8220 N   0  0  0  0  0  0  0  0  0  0  0  0
   37.5820   24.2840   32.8980 C   0  0  0  0  0  0  0  0  0  0  0  0
   37.2070   25.6370   32.8540 C   0  0  0  0  0  0  0  0  0  0  0  0
   37.2660   26.3810   34.0130 C   0  0  0  0  0  0  0  0  0  0  0  0
   37.6860   25.7890   35.1720 N   0  0  0  0  0  0  0  0  0  0  0  0
   38.0400   24.4890   35.1880 C   0  0  0  0  0  0  0  0  0  0  0  0
   37.9960   23.7210   34.0630 N   0  0  0  0  0  0  0  0  0  0  0  0
   36.8730   27.8120   33.9850 C   0  0  0  0  0  0  0  0  0  0  0  0
   36.6877   24.0282   37.7214 H   0  0  0  0  0  0  0  0  0  0  0  0
   40.6116   22.4549   38.4618 H   0  0  0  0  0  0  0  0  0  0  0  0
   40.3098   21.3361   34.9424 H   0  0  0  0  0  0  0  0  0  0  0  0
   44.7537   25.5794   36.9498 H   0  0  0  0  0  0  0  0  0  0  0  0
   45.4159   27.1844   33.0301 H   0  0  0  0  0  0  0  0  0  0  0  0
   37.5401   23.6758   31.9824 H   0  0  0  0  0  0  0  0  0  0  0  0
   36.8722   26.0947   31.9114 H   0  0  0  0  0  0  0  0  0  0  0  0
   36.7707   28.1844   35.0150 H   0  0  0  0  0  0  0  0  0  0  0  0
   37.6446   28.3939   33.4596 H   0  0  0  0  0  0  0  0  0  0  0  0
   35.9124   27.9182   33.4596 H   0  0  0  0  0  0  0  0  0  0  0  0
  1  5  1  0
  1  2  2  0
  2  3  1  0
  4  3  2  0
  5  4  1  0
  6  5  1  0
  7  6  2  0
  8  7  1  0
  8  9  1  0
  9 10  2  0
 10  6  1  0
 11  9  1  0
 11 12  1  0
 13 12  2  0
 14 13  1  0
 15 14  2  0
 15 11  1  0
 16 21  2  0
 17 16  1  0
 17 18  2  0
 18 19  1  0
 19 20  2  0
 20  1  1  0
 21 20  1  0
 22 18  1  0
  2 23  1  0
  4 24  1  0
  7 25  1  0
 12 26  1  0
 14 27  1  0
 16 28  1  0
 17 29  1  0
 22 30  1  0
 22 31  1  0
 22 32  1  0
M  ISO  8  23  14  24  14  25  14  26  14  27  14  28  14  29  14  30   8
M  ISO  2  31   8  32   8
M  END
>  <minimizedAffinity>  (1) 
-4.85020399

>  <minimizedRMSD>  (1) 
0.909967005

$$$$
