
     RDKit          3D

 42 47  0  0  0  0  0  0  0  0999 V2000
   38.5920   23.6840   36.2990 C   0  0  0  0  0  0  0  0  0  0  0  0
   37.8680   23.5060   37.4740 C   0  0  0  0  0  0  0  0  0  0  0  0
   38.6840   23.0270   38.4180 N   0  0  0  0  0  0  0  0  0  0  0  0
   39.9180   22.8880   37.8870 C   0  0  0  0  0  0  0  0  0  0  0  0
   39.8390   23.2890   36.6140 N   0  0  0  0  0  0  0  0  0  0  0  0
   40.9840   23.2700   35.7560 C   0  0  0  0  0  0  0  0  0  0  0  0
   41.1750   22.1950   34.9400 C   0  0  0  0  0  0  0  0  0  0  0  0
   42.7290   22.6610   34.0860 S   0  0  0  0  0  0  0  0  0  0  0  0
   42.8290   24.2960   35.0410 C   0  0  0  0  0  0  0  0  0  0  0  0
   41.8950   24.1990   35.6690 N   0  0  0  0  0  0  0  0  0  0  0  0
   43.8370   25.3170   34.9370 N   0  0  0  0  0  0  0  0  0  0  0  0
   44.7070   25.9160   35.7930 C   0  0  0  0  0  0  0  0  0  0  0  0
   45.4060   26.8130   35.0850 N   0  0  0  0  0  0  0  0  0  0  0  0
   44.9950   26.7890   33.8110 C   0  0  0  0  0  0  0  0  0  0  0  0
   44.0260   25.8570   33.7420 N   0  0  0  0  0  0  0  0  0  0  0  0
   37.4450   23.7840   32.8230 C   0  0  0  0  0  0  0  0  0  0  0  0
   37.1800   25.1550   32.6490 C   0  0  0  0  0  0  0  0  0  0  0  0
   37.4020   26.0000   33.7280 C   0  0  0  0  0  0  0  0  0  0  0  0
   37.8580   25.4990   34.8960 N   0  0  0  0  0  0  0  0  0  0  0  0
   38.1090   24.1760   35.0440 C   0  0  0  0  0  0  0  0  0  0  0  0
   37.9070   23.3110   34.0230 N   0  0  0  0  0  0  0  0  0  0  0  0
   37.1360   27.4120   33.5690 C   0  0  0  0  0  0  0  0  0  0  0  0
   36.8290   28.0960   34.5900 O   0  0  0  0  0  0  0  0  0  0  0  0
   35.1530   30.4770   30.7160 N   0  0  0  0  0  0  0  0  0  0  0  0
   34.4290   30.3110   31.8630 C   0  0  0  0  0  0  0  0  0  0  0  0
   35.0880   29.4070   32.6150 N   0  0  0  0  0  0  0  0  0  0  0  0
   36.1850   29.0020   31.9960 C   0  0  0  0  0  0  0  0  0  0  0  0
   37.1950   28.1110   32.3080 C   0  0  0  0  0  0  0  0  0  0  0  0
   38.1780   27.9520   31.4050 N   0  0  0  0  0  0  0  0  0  0  0  0
   38.2160   28.6140   30.2330 C   0  0  0  0  0  0  0  0  0  0  0  0
   37.2530   29.4900   29.8900 N   0  0  0  0  0  0  0  0  0  0  0  0
   36.2350   29.6830   30.7760 C   0  0  0  0  0  0  0  0  0  0  0  0
   36.7978   23.7241   37.6047 H   0  0  0  0  0  0  0  0  0  0  0  0
   40.8156   22.5163   38.4028 H   0  0  0  0  0  0  0  0  0  0  0  0
   40.5608   21.2897   34.8247 H   0  0  0  0  0  0  0  0  0  0  0  0
   44.8165   25.7037   36.8667 H   0  0  0  0  0  0  0  0  0  0  0  0
   45.3740   27.4081   32.9845 H   0  0  0  0  0  0  0  0  0  0  0  0
   37.2799   23.0863   31.9888 H   0  0  0  0  0  0  0  0  0  0  0  0
   36.8091   25.5445   31.6895 H   0  0  0  0  0  0  0  0  0  0  0  0
   34.9100   31.1051   29.9367 H   0  0  0  0  0  0  0  0  0  0  0  0
   33.4882   30.8182   32.1230 H   0  0  0  0  0  0  0  0  0  0  0  0
   39.0520   28.4351   29.5409 H   0  0  0  0  0  0  0  0  0  0  0  0
  1  5  1  0
  1  2  2  0
  2  3  1  0
  4  3  2  0
  5  4  1  0
  6  5  1  0
  7  6  2  0
  8  7  1  0
  8  9  1  0
  9 10  2  0
 10  6  1  0
 11  9  1  0
 11 12  1  0
 13 12  2  0
 14 13  1  0
 15 14  2  0
 15 11  1  0
 16 21  2  0
 17 16  1  0
 17 18  2  0
 18 19  1  0
 19 20  2  0
 20  1  1  0
 21 20  1  0
 22 18  1  0
 22 23  2  0
 24 32  1  0
 24 25  1  0
 25 26  2  0
 27 28  2  0
 27 26  1  0
 28 22  1  0
 29 28  1  0
 30 29  2  0
 31 30  1  0
 31 32  2  0
 32 27  1  0
  2 33  1  0
  4 34  1  0
  7 35  1  0
 12 36  1  0
 14 37  1  0
 16 38  1  0
 17 39  1  0
 24 40  1  0
 25 41  1  0
 30 42  1  0
M  ISO  8  33  14  34  14  35  14  36  14  37  14  38  14  39  14  40   9
M  ISO  2  41  14  42  14
M  END
>  <minimizedAffinity>  (1) 
-6.25348091

>  <minimizedRMSD>  (1) 
0.569741488

$$$$
