
     RDKit          3D

 45 49  0  0  0  0  0  0  0  0999 V2000
   38.5020   23.7370   36.3260 C   0  0  0  0  0  0  0  0  0  0  0  0
   37.7520   23.6080   37.4930 C   0  0  0  0  0  0  0  0  0  0  0  0
   38.5360   23.1530   38.4630 N   0  0  0  0  0  0  0  0  0  0  0  0
   39.7900   22.9800   37.9640 C   0  0  0  0  0  0  0  0  0  0  0  0
   39.7240   23.3400   36.6820 N   0  0  0  0  0  0  0  0  0  0  0  0
   40.8910   23.2780   35.8470 C   0  0  0  0  0  0  0  0  0  0  0  0
   41.0750   22.1720   35.0690 C   0  0  0  0  0  0  0  0  0  0  0  0
   42.6630   22.5810   34.2230 S   0  0  0  0  0  0  0  0  0  0  0  0
   42.7700   24.2410   35.1260 C   0  0  0  0  0  0  0  0  0  0  0  0
   41.8260   24.1590   35.7260 N   0  0  0  0  0  0  0  0  0  0  0  0
   43.7980   25.2410   35.0110 N   0  0  0  0  0  0  0  0  0  0  0  0
   44.6590   25.8580   35.8660 C   0  0  0  0  0  0  0  0  0  0  0  0
   45.3920   26.7150   35.1520 N   0  0  0  0  0  0  0  0  0  0  0  0
   45.0100   26.6520   33.8650 C   0  0  0  0  0  0  0  0  0  0  0  0
   44.0240   25.7340   33.7970 N   0  0  0  0  0  0  0  0  0  0  0  0
   37.4870   23.7270   32.8100 C   0  0  0  0  0  0  0  0  0  0  0  0
   37.1600   25.0750   32.6010 C   0  0  0  0  0  0  0  0  0  0  0  0
   37.2930   25.9530   33.6610 C   0  0  0  0  0  0  0  0  0  0  0  0
   37.7350   25.4900   34.8690 N   0  0  0  0  0  0  0  0  0  0  0  0
   38.0420   24.1950   35.0470 C   0  0  0  0  0  0  0  0  0  0  0  0
   37.9240   23.2900   34.0230 N   0  0  0  0  0  0  0  0  0  0  0  0
   36.9710   27.3540   33.5050 C   0  0  0  0  0  0  0  0  0  0  0  0
   36.4030   27.9860   34.4170 O   0  0  0  0  0  0  0  0  0  0  0  0
   37.2750   28.0880   32.3250 N   0  0  0  0  0  0  0  0  0  0  0  0
   38.4450   27.6840   31.5520 C   0  0  0  0  0  0  0  0  0  0  0  0
   38.1050   27.4430   30.0970 C   0  0  0  0  0  0  0  0  0  0  0  0
   36.7220   27.8500   29.8150 N   0  0  0  0  0  0  0  0  0  0  0  0
   36.6140   29.2120   30.3080 C   0  0  0  0  0  0  0  0  0  0  0  0
   36.5150   29.2150   31.8190 C   0  0  0  0  0  0  0  0  0  0  0  0
   36.6826   23.8449   37.5944 H   0  0  0  0  0  0  0  0  0  0  0  0
   40.6757   22.6178   38.5065 H   0  0  0  0  0  0  0  0  0  0  0  0
   40.4447   21.2757   34.9721 H   0  0  0  0  0  0  0  0  0  0  0  0
   44.7366   25.6822   36.9491 H   0  0  0  0  0  0  0  0  0  0  0  0
   45.4218   27.2361   33.0288 H   0  0  0  0  0  0  0  0  0  0  0  0
   37.3887   23.0115   31.9803 H   0  0  0  0  0  0  0  0  0  0  0  0
   36.8070   25.4245   31.6196 H   0  0  0  0  0  0  0  0  0  0  0  0
   39.2032   28.4786   31.6130 H   0  0  0  0  0  0  0  0  0  0  0  0
   38.8233   26.7413   31.9741 H   0  0  0  0  0  0  0  0  0  0  0  0
   38.7898   28.0267   29.4642 H   0  0  0  0  0  0  0  0  0  0  0  0
   38.2097   26.3694   29.8814 H   0  0  0  0  0  0  0  0  0  0  0  0
   36.5358   27.8172   28.8025 H   0  0  0  0  0  0  0  0  0  0  0  0
   37.5039   29.7811   30.0011 H   0  0  0  0  0  0  0  0  0  0  0  0
   35.7088   29.6749   29.8881 H   0  0  0  0  0  0  0  0  0  0  0  0
   36.9295   30.1527   32.2175 H   0  0  0  0  0  0  0  0  0  0  0  0
   35.4632   29.1350   32.1311 H   0  0  0  0  0  0  0  0  0  0  0  0
  1  5  1  0
  1  2  2  0
  2  3  1  0
  4  3  2  0
  5  4  1  0
  6  5  1  0
  7  6  2  0
  8  7  1  0
  8  9  1  0
  9 10  2  0
 10  6  1  0
 11  9  1  0
 11 12  1  0
 13 12  2  0
 14 13  1  0
 15 14  2  0
 15 11  1  0
 16 21  2  0
 17 16  1  0
 17 18  2  0
 18 19  1  0
 19 20  2  0
 20  1  1  0
 21 20  1  0
 22 18  1  0
 22 23  2  0
 24 22  1  0
 25 24  1  0
 26 25  1  0
 27 26  1  0
 27 28  1  0
 28 29  1  0
 29 24  1  0
  2 30  1  0
  4 31  1  0
  7 32  1  0
 12 33  1  0
 14 34  1  0
 16 35  1  0
 17 36  1  0
 25 37  1  0
 25 38  1  0
 26 39  1  0
 26 40  1  0
 27 41  1  0
 28 42  1  0
 28 43  1  0
 29 44  1  0
 29 45  1  0
M  ISO  8  30  14  31  14  32  14  33  14  34  14  35  14  36  14  37  13
M  ISO  8  38  13  39  13  40  13  41   5  42  13  43  13  44  13  45  13
M  END
>  <minimizedAffinity>  (1) 
-6.22962189

>  <minimizedRMSD>  (1) 
0.342024326

$$$$
