
     RDKit          3D

 40 44  0  0  0  0  0  0  0  0999 V2000
   38.5830   23.6640   36.3450 C   0  0  0  0  0  0  0  0  0  0  0  0
   37.8530   23.5030   37.5030 C   0  0  0  0  0  0  0  0  0  0  0  0
   38.6640   23.0440   38.4600 N   0  0  0  0  0  0  0  0  0  0  0  0
   39.9120   22.9030   37.9450 C   0  0  0  0  0  0  0  0  0  0  0  0
   39.8330   23.2840   36.6680 N   0  0  0  0  0  0  0  0  0  0  0  0
   40.9900   23.2580   35.8190 C   0  0  0  0  0  0  0  0  0  0  0  0
   41.1820   22.1560   35.0340 C   0  0  0  0  0  0  0  0  0  0  0  0
   42.7500   22.6070   34.1670 S   0  0  0  0  0  0  0  0  0  0  0  0
   42.8280   24.2630   35.0810 C   0  0  0  0  0  0  0  0  0  0  0  0
   41.8980   24.1660   35.6950 N   0  0  0  0  0  0  0  0  0  0  0  0
   43.8340   25.2870   34.9570 N   0  0  0  0  0  0  0  0  0  0  0  0
   44.7030   25.9060   35.8070 C   0  0  0  0  0  0  0  0  0  0  0  0
   45.3980   26.7930   35.0780 N   0  0  0  0  0  0  0  0  0  0  0  0
   44.9890   26.7460   33.8080 C   0  0  0  0  0  0  0  0  0  0  0  0
   44.0250   25.8110   33.7610 N   0  0  0  0  0  0  0  0  0  0  0  0
   37.4550   23.6910   32.8650 C   0  0  0  0  0  0  0  0  0  0  0  0
   37.1910   25.0490   32.6430 C   0  0  0  0  0  0  0  0  0  0  0  0
   37.4080   25.9170   33.6920 C   0  0  0  0  0  0  0  0  0  0  0  0
   37.8570   25.4430   34.8770 N   0  0  0  0  0  0  0  0  0  0  0  0
   38.1030   24.1370   35.0670 C   0  0  0  0  0  0  0  0  0  0  0  0
   37.9070   23.2380   34.0640 N   0  0  0  0  0  0  0  0  0  0  0  0
   37.1580   27.3440   33.5430 C   0  0  0  0  0  0  0  0  0  0  0  0
   36.8100   28.0370   34.5190 O   0  0  0  0  0  0  0  0  0  0  0  0
   37.3230   27.9490   32.2180 C   0  0  0  0  0  0  0  0  0  0  0  0
   36.3000   28.7130   31.6730 C   0  0  0  0  0  0  0  0  0  0  0  0
   36.4620   29.2810   30.4250 C   0  0  0  0  0  0  0  0  0  0  0  0
   37.6450   29.0920   29.7060 C   0  0  0  0  0  0  0  0  0  0  0  0
   38.6290   28.3250   30.2900 C   0  0  0  0  0  0  0  0  0  0  0  0
   38.4370   27.7860   31.5120 N   0  0  0  0  0  0  0  0  0  0  0  0
   36.7804   23.7170   37.6197 H   0  0  0  0  0  0  0  0  0  0  0  0
   40.8083   22.5464   38.4737 H   0  0  0  0  0  0  0  0  0  0  0  0
   40.5692   21.2470   34.9430 H   0  0  0  0  0  0  0  0  0  0  0  0
   44.8131   25.7146   36.8846 H   0  0  0  0  0  0  0  0  0  0  0  0
   45.3651   27.3505   32.9695 H   0  0  0  0  0  0  0  0  0  0  0  0
   37.2922   22.9729   32.0477 H   0  0  0  0  0  0  0  0  0  0  0  0
   36.8250   25.4085   31.6700 H   0  0  0  0  0  0  0  0  0  0  0  0
   35.3652   28.8651   32.2325 H   0  0  0  0  0  0  0  0  0  0  0  0
   35.6525   29.8877   29.9930 H   0  0  0  0  0  0  0  0  0  0  0  0
   37.7854   29.5390   28.7108 H   0  0  0  0  0  0  0  0  0  0  0  0
   39.5757   28.1511   29.7576 H   0  0  0  0  0  0  0  0  0  0  0  0
  1  5  1  0
  1  2  2  0
  2  3  1  0
  4  3  2  0
  5  4  1  0
  6  5  1  0
  7  6  2  0
  8  7  1  0
  8  9  1  0
  9 10  2  0
 10  6  1  0
 11  9  1  0
 11 12  1  0
 13 12  2  0
 14 13  1  0
 15 14  2  0
 15 11  1  0
 16 21  2  0
 17 16  1  0
 17 18  2  0
 18 19  1  0
 19 20  2  0
 20  1  1  0
 21 20  1  0
 22 18  1  0
 22 23  2  0
 24 22  1  0
 25 24  2  0
 26 25  1  0
 27 28  1  0
 27 26  2  0
 28 29  2  0
 29 24  1  0
  2 30  1  0
  4 31  1  0
  7 32  1  0
 12 33  1  0
 14 34  1  0
 16 35  1  0
 17 36  1  0
 25 37  1  0
 26 38  1  0
 27 39  1  0
 28 40  1  0
M  ISO  8  30  14  31  14  32  14  33  14  34  14  35  14  36  14  37  14
M  ISO  3  38  14  39  14  40  14
M  END
>  <minimizedAffinity>  (1) 
-5.68711615

>  <minimizedRMSD>  (1) 
0.719199359

$$$$
