
     RDKit          3D

 47 51  0  0  0  0  0  0  0  0999 V2000
   38.4570   23.5050   36.1700 C   0  0  0  0  0  0  0  0  0  0  0  0
   37.4670   23.5490   37.1390 C   0  0  0  0  0  0  0  0  0  0  0  0
   38.0160   23.2660   38.3300 N   0  0  0  0  0  0  0  0  0  0  0  0
   39.3460   23.0410   38.1520 C   0  0  0  0  0  0  0  0  0  0  0  0
   39.5720   23.1940   36.8400 N   0  0  0  0  0  0  0  0  0  0  0  0
   40.8870   23.0230   36.3130 C   0  0  0  0  0  0  0  0  0  0  0  0
   41.1380   21.9450   35.4930 C   0  0  0  0  0  0  0  0  0  0  0  0
   42.9220   22.1830   35.1030 S   0  0  0  0  0  0  0  0  0  0  0  0
   42.9930   23.7560   36.1640 C   0  0  0  0  0  0  0  0  0  0  0  0
   41.9260   23.7770   36.5090 N   0  0  0  0  0  0  0  0  0  0  0  0
   44.1290   24.6130   36.4020 N   0  0  0  0  0  0  0  0  0  0  0  0
   44.8110   25.0480   37.4920 C   0  0  0  0  0  0  0  0  0  0  0  0
   45.7840   25.8380   37.0400 N   0  0  0  0  0  0  0  0  0  0  0  0
   45.7440   25.9190   35.7140 C   0  0  0  0  0  0  0  0  0  0  0  0
   44.7020   25.1460   35.3270 N   0  0  0  0  0  0  0  0  0  0  0  0
   37.6140   23.0100   32.6410 C   0  0  0  0  0  0  0  0  0  0  0  0
   38.0280   24.2230   32.0660 C   0  0  0  0  0  0  0  0  0  0  0  0
   38.5790   25.1630   32.9080 C   0  0  0  0  0  0  0  0  0  0  0  0
   38.7110   24.9120   34.2400 N   0  0  0  0  0  0  0  0  0  0  0  0
   38.3060   23.7450   34.7600 C   0  0  0  0  0  0  0  0  0  0  0  0
   37.7560   22.7830   33.9750 N   0  0  0  0  0  0  0  0  0  0  0  0
   39.0240   26.4380   32.3610 C   0  0  0  0  0  0  0  0  0  0  0  0
   40.1970   26.5610   31.9010 O   0  0  0  0  0  0  0  0  0  0  0  0
   38.0710   27.6020   32.3510 C   0  0  0  0  0  0  0  0  0  0  0  0
   37.2440   27.5610   31.0970 C   0  0  0  0  0  0  0  0  0  0  0  0
   36.2930   28.7130   31.0770 C   0  0  0  0  0  0  0  0  0  0  0  0
   35.3590   28.5960   32.2460 C   0  0  0  0  0  0  0  0  0  0  0  0
   36.0940   28.5090   33.5650 C   0  0  0  0  0  0  0  0  0  0  0  0
   37.1680   27.4430   33.5330 C   0  0  0  0  0  0  0  0  0  0  0  0
   36.4060   23.7782   36.9609 H   0  0  0  0  0  0  0  0  0  0  0  0
   40.0844   22.7858   38.9263 H   0  0  0  0  0  0  0  0  0  0  0  0
   40.4534   21.1513   35.1592 H   0  0  0  0  0  0  0  0  0  0  0  0
   44.6015   24.7974   38.5424 H   0  0  0  0  0  0  0  0  0  0  0  0
   46.4189   26.4956   35.0644 H   0  0  0  0  0  0  0  0  0  0  0  0
   37.1685   22.2322   32.0034 H   0  0  0  0  0  0  0  0  0  0  0  0
   37.9167   24.4139   30.9884 H   0  0  0  0  0  0  0  0  0  0  0  0
   38.6180   28.5555   32.3906 H   0  0  0  0  0  0  0  0  0  0  0  0
   37.9067   27.6199   30.2210 H   0  0  0  0  0  0  0  0  0  0  0  0
   36.6741   26.6205   31.0697 H   0  0  0  0  0  0  0  0  0  0  0  0
   36.8547   29.6562   31.1467 H   0  0  0  0  0  0  0  0  0  0  0  0
   35.7178   28.7038   30.1394 H   0  0  0  0  0  0  0  0  0  0  0  0
   34.7037   29.4793   32.2644 H   0  0  0  0  0  0  0  0  0  0  0  0
   34.7814   27.6681   32.1222 H   0  0  0  0  0  0  0  0  0  0  0  0
   36.5620   29.4814   33.7781 H   0  0  0  0  0  0  0  0  0  0  0  0
   35.3679   28.2436   34.3475 H   0  0  0  0  0  0  0  0  0  0  0  0
   36.6877   26.4546   33.4842 H   0  0  0  0  0  0  0  0  0  0  0  0
   37.7759   27.5416   34.4444 H   0  0  0  0  0  0  0  0  0  0  0  0
  1  5  1  0
  1  2  2  0
  2  3  1  0
  4  3  2  0
  5  4  1  0
  6 10  1  0
  6  5  1  0
  7  6  2  0
  8  7  1  0
  8  9  1  0
  9 11  1  0
  9 10  2  0
 11 12  1  0
 13 12  2  0
 14 13  1  0
 15 14  2  0
 15 11  1  0
 16 21  2  0
 17 16  1  0
 17 18  2  0
 18 19  1  0
 19 20  2  0
 20  1  1  0
 21 20  1  0
 22 18  1  0
 23 22  2  0
 24 22  1  0
 24 29  1  0
 25 24  1  0
 26 25  1  0
 26 27  1  0
 27 28  1  0
 29 28  1  0
  2 30  1  0
  4 31  1  0
  7 32  1  0
 12 33  1  0
 14 34  1  0
 16 35  1  0
 17 36  1  0
 24 37  1  0
 25 38  1  0
 25 39  1  0
 26 40  1  0
 26 41  1  0
 27 42  1  0
 27 43  1  0
 28 44  1  0
 28 45  1  0
 29 46  1  0
 29 47  1  0
M  ISO  8  30  14  31  14  32  14  33  14  34  14  35  14  36  14  37  13
M  ISO  8  38  13  39  13  40  13  41  13  42  13  43  13  44  13  45  13
M  ISO  2  46  13  47  13
M  END
>  <minimizedAffinity>  (1) 
-5.81742525

>  <minimizedRMSD>  (1) 
2.03392506

$$$$
