
     RDKit          3D

 39 43  0  0  0  0  0  0  0  0999 V2000
   38.5420   23.7020   36.3680 C   0  0  0  0  0  0  0  0  0  0  0  0
   37.8010   23.5620   37.5260 C   0  0  0  0  0  0  0  0  0  0  0  0
   38.5960   23.0930   38.4870 N   0  0  0  0  0  0  0  0  0  0  0  0
   39.8430   22.9210   37.9930 C   0  0  0  0  0  0  0  0  0  0  0  0
   39.7750   23.2980   36.7100 N   0  0  0  0  0  0  0  0  0  0  0  0
   40.9340   23.2420   35.8760 C   0  0  0  0  0  0  0  0  0  0  0  0
   41.1490   22.0980   35.1310 C   0  0  0  0  0  0  0  0  0  0  0  0
   42.7130   22.5180   34.2640 S   0  0  0  0  0  0  0  0  0  0  0  0
   42.7830   24.2210   35.0990 C   0  0  0  0  0  0  0  0  0  0  0  0
   41.8450   24.1360   35.7070 N   0  0  0  0  0  0  0  0  0  0  0  0
   43.7830   25.2460   34.9380 N   0  0  0  0  0  0  0  0  0  0  0  0
   44.6310   25.9090   35.7670 C   0  0  0  0  0  0  0  0  0  0  0  0
   45.3260   26.7600   35.0170 N   0  0  0  0  0  0  0  0  0  0  0  0
   44.9410   26.6510   33.7380 C   0  0  0  0  0  0  0  0  0  0  0  0
   43.9820   25.7050   33.7230 N   0  0  0  0  0  0  0  0  0  0  0  0
   37.4900   23.7410   32.8630 C   0  0  0  0  0  0  0  0  0  0  0  0
   37.2200   25.1060   32.6600 C   0  0  0  0  0  0  0  0  0  0  0  0
   37.4070   25.9650   33.7260 C   0  0  0  0  0  0  0  0  0  0  0  0
   37.8360   25.4850   34.9140 N   0  0  0  0  0  0  0  0  0  0  0  0
   38.0880   24.1750   35.0870 C   0  0  0  0  0  0  0  0  0  0  0  0
   37.9190   23.2890   34.0700 N   0  0  0  0  0  0  0  0  0  0  0  0
   37.1380   27.3750   33.5450 C   0  0  0  0  0  0  0  0  0  0  0  0
   36.8100   28.0790   34.5420 O   0  0  0  0  0  0  0  0  0  0  0  0
   37.2340   28.0070   32.2340 C   0  0  0  0  0  0  0  0  0  0  0  0
   36.1790   28.7660   31.7660 C   0  0  0  0  0  0  0  0  0  0  0  0
   36.2670   29.3740   30.5080 C   0  0  0  0  0  0  0  0  0  0  0  0
   37.3910   29.2040   29.7760 N   0  0  0  0  0  0  0  0  0  0  0  0
   38.4020   28.4600   30.2590 C   0  0  0  0  0  0  0  0  0  0  0  0
   38.3360   27.8580   31.4830 N   0  0  0  0  0  0  0  0  0  0  0  0
   36.7324   23.7985   37.6361 H   0  0  0  0  0  0  0  0  0  0  0  0
   40.7272   22.5495   38.5318 H   0  0  0  0  0  0  0  0  0  0  0  0
   40.5448   21.1807   35.0728 H   0  0  0  0  0  0  0  0  0  0  0  0
   44.7252   25.7685   36.8539 H   0  0  0  0  0  0  0  0  0  0  0  0
   45.3281   27.2171   32.8780 H   0  0  0  0  0  0  0  0  0  0  0  0
   37.3522   23.0307   32.0344 H   0  0  0  0  0  0  0  0  0  0  0  0
   36.8715   25.4776   31.6851 H   0  0  0  0  0  0  0  0  0  0  0  0
   35.2742   28.8921   32.3787 H   0  0  0  0  0  0  0  0  0  0  0  0
   35.4348   29.9805   30.1212 H   0  0  0  0  0  0  0  0  0  0  0  0
   39.3091   28.3326   29.6499 H   0  0  0  0  0  0  0  0  0  0  0  0
  1  5  1  0
  1  2  2  0
  2  3  1  0
  4  3  2  0
  5  4  1  0
  6  5  1  0
  7  6  2  0
  8  9  1  0
  8  7  1  0
  9 10  2  0
 10  6  1  0
 11  9  1  0
 11 12  1  0
 13 12  2  0
 14 13  1  0
 15 14  2  0
 15 11  1  0
 16 21  2  0
 17 16  1  0
 17 18  2  0
 18 19  1  0
 19 20  2  0
 20  1  1  0
 21 20  1  0
 22 18  1  0
 22 23  2  0
 24 22  1  0
 25 24  2  0
 26 25  1  0
 27 28  1  0
 27 26  2  0
 28 29  2  0
 29 24  1  0
  2 30  1  0
  4 31  1  0
  7 32  1  0
 12 33  1  0
 14 34  1  0
 16 35  1  0
 17 36  1  0
 25 37  1  0
 26 38  1  0
 28 39  1  0
M  ISO  8  30  14  31  14  32  14  33  14  34  14  35  14  36  14  37  14
M  ISO  2  38  14  39  14
M  END
>  <minimizedAffinity>  (1) 
-5.62673521

>  <minimizedRMSD>  (1) 
0.517482519

$$$$
