
     RDKit          3D

 38 42  0  0  0  0  0  0  0  0999 V2000
   38.4910   23.7350   36.3670 C   0  0  0  0  0  0  0  0  0  0  0  0
   37.7270   23.5980   37.5160 C   0  0  0  0  0  0  0  0  0  0  0  0
   38.5060   23.1230   38.4910 N   0  0  0  0  0  0  0  0  0  0  0  0
   39.7560   22.9470   38.0070 C   0  0  0  0  0  0  0  0  0  0  0  0
   39.7200   23.3240   36.7220 N   0  0  0  0  0  0  0  0  0  0  0  0
   40.8860   23.2630   35.9110 C   0  0  0  0  0  0  0  0  0  0  0  0
   41.0560   22.1830   35.0890 C   0  0  0  0  0  0  0  0  0  0  0  0
   42.6690   22.5740   34.2800 S   0  0  0  0  0  0  0  0  0  0  0  0
   42.8040   24.1950   35.2550 C   0  0  0  0  0  0  0  0  0  0  0  0
   41.8570   24.1340   35.8420 N   0  0  0  0  0  0  0  0  0  0  0  0
   43.8700   25.1780   35.1970 N   0  0  0  0  0  0  0  0  0  0  0  0
   44.7340   25.7190   36.0970 C   0  0  0  0  0  0  0  0  0  0  0  0
   45.4870   26.5880   35.4110 N   0  0  0  0  0  0  0  0  0  0  0  0
   45.1290   26.6080   34.1320 C   0  0  0  0  0  0  0  0  0  0  0  0
   44.1190   25.7220   34.0140 N   0  0  0  0  0  0  0  0  0  0  0  0
   37.5190   23.7840   32.8360 C   0  0  0  0  0  0  0  0  0  0  0  0
   37.2250   25.1440   32.6300 C   0  0  0  0  0  0  0  0  0  0  0  0
   37.3660   25.9970   33.7000 C   0  0  0  0  0  0  0  0  0  0  0  0
   37.7790   25.5200   34.9050 N   0  0  0  0  0  0  0  0  0  0  0  0
   38.0560   24.2130   35.0790 C   0  0  0  0  0  0  0  0  0  0  0  0
   37.9330   23.3250   34.0580 N   0  0  0  0  0  0  0  0  0  0  0  0
   37.0790   27.4070   33.5510 C   0  0  0  0  0  0  0  0  0  0  0  0
   36.7770   28.1090   34.5510 O   0  0  0  0  0  0  0  0  0  0  0  0
   37.1360   28.0320   32.2340 C   0  0  0  0  0  0  0  0  0  0  0  0
   36.1070   28.6570   31.5600 C   0  0  0  0  0  0  0  0  0  0  0  0
   36.5920   29.1080   30.3470 C   0  0  0  0  0  0  0  0  0  0  0  0
   37.9370   28.7240   30.3400 C   0  0  0  0  0  0  0  0  0  0  0  0
   38.1990   28.1030   31.4570 O   0  0  0  0  0  0  0  0  0  0  0  0
   36.6580   23.8401   37.6088 H   0  0  0  0  0  0  0  0  0  0  0  0
   40.6293   22.5692   38.5588 H   0  0  0  0  0  0  0  0  0  0  0  0
   40.4025   21.3097   34.9470 H   0  0  0  0  0  0  0  0  0  0  0  0
   44.8007   25.4893   37.1707 H   0  0  0  0  0  0  0  0  0  0  0  0
   45.5672   27.2224   33.3317 H   0  0  0  0  0  0  0  0  0  0  0  0
   37.4145   23.0763   32.0004 H   0  0  0  0  0  0  0  0  0  0  0  0
   36.8940   25.5125   31.6479 H   0  0  0  0  0  0  0  0  0  0  0  0
   35.0764   28.7760   31.9257 H   0  0  0  0  0  0  0  0  0  0  0  0
   36.0427   29.6485   29.5620 H   0  0  0  0  0  0  0  0  0  0  0  0
   38.6543   28.9140   29.5280 H   0  0  0  0  0  0  0  0  0  0  0  0
  1  5  1  0
  1  2  2  0
  2  3  1  0
  4  3  2  0
  5  4  1  0
  6  5  1  0
  7  6  2  0
  8  7  1  0
  8  9  1  0
  9 10  2  0
 10  6  1  0
 11  9  1  0
 11 12  1  0
 13 12  2  0
 14 13  1  0
 15 14  2  0
 15 11  1  0
 16 21  2  0
 17 16  1  0
 17 18  2  0
 18 19  1  0
 19 20  2  0
 20  1  1  0
 21 20  1  0
 22 18  1  0
 22 23  2  0
 24 22  1  0
 25 24  2  0
 26 25  1  0
 27 26  2  0
 27 28  1  0
 28 24  1  0
  2 29  1  0
  4 30  1  0
  7 31  1  0
 12 32  1  0
 14 33  1  0
 16 34  1  0
 17 35  1  0
 25 36  1  0
 26 37  1  0
 27 38  1  0
M  ISO  8  29  14  30  14  31  14  32  14  33  14  34  14  35  14  36  14
M  ISO  2  37  14  38  14
M  END
>  <minimizedAffinity>  (1) 
-5.57265854

>  <minimizedRMSD>  (1) 
0.588008344

$$$$
