
     RDKit          3D

 38 42  0  0  0  0  0  0  0  0999 V2000
   38.5100   23.7420   36.3890 C   0  0  0  0  0  0  0  0  0  0  0  0
   37.7490   23.5960   37.5400 C   0  0  0  0  0  0  0  0  0  0  0  0
   38.5260   23.1020   38.5090 N   0  0  0  0  0  0  0  0  0  0  0  0
   39.7780   22.9230   38.0130 C   0  0  0  0  0  0  0  0  0  0  0  0
   39.7290   23.3210   36.7310 N   0  0  0  0  0  0  0  0  0  0  0  0
   40.8930   23.2620   35.9100 C   0  0  0  0  0  0  0  0  0  0  0  0
   41.0590   22.2010   35.0730 C   0  0  0  0  0  0  0  0  0  0  0  0
   42.6700   22.6090   34.2720 S   0  0  0  0  0  0  0  0  0  0  0  0
   42.8150   24.2080   35.2710 C   0  0  0  0  0  0  0  0  0  0  0  0
   41.8580   24.1250   35.8550 N   0  0  0  0  0  0  0  0  0  0  0  0
   43.8780   25.1860   35.2280 N   0  0  0  0  0  0  0  0  0  0  0  0
   44.7450   25.7210   36.1280 C   0  0  0  0  0  0  0  0  0  0  0  0
   45.5050   26.5980   35.4670 N   0  0  0  0  0  0  0  0  0  0  0  0
   45.1390   26.6290   34.1750 C   0  0  0  0  0  0  0  0  0  0  0  0
   44.1250   25.7430   34.0450 N   0  0  0  0  0  0  0  0  0  0  0  0
   37.5370   23.8520   32.8680 C   0  0  0  0  0  0  0  0  0  0  0  0
   37.2210   25.2000   32.6980 C   0  0  0  0  0  0  0  0  0  0  0  0
   37.3430   26.0550   33.7840 C   0  0  0  0  0  0  0  0  0  0  0  0
   37.7660   25.5470   34.9690 N   0  0  0  0  0  0  0  0  0  0  0  0
   38.0660   24.2410   35.1120 C   0  0  0  0  0  0  0  0  0  0  0  0
   37.9560   23.3780   34.0670 N   0  0  0  0  0  0  0  0  0  0  0  0
   37.0310   27.4620   33.6640 C   0  0  0  0  0  0  0  0  0  0  0  0
   36.8620   28.1470   34.7050 O   0  0  0  0  0  0  0  0  0  0  0  0
   36.8950   28.1670   32.3940 C   0  0  0  0  0  0  0  0  0  0  0  0
   35.7500   28.8380   32.0200 C   0  0  0  0  0  0  0  0  0  0  0  0
   35.9500   29.3850   30.7850 N   0  0  0  0  0  0  0  0  0  0  0  0
   37.1930   29.0690   30.3840 C   0  0  0  0  0  0  0  0  0  0  0  0
   37.7460   28.3360   31.3660 N   0  0  0  0  0  0  0  0  0  0  0  0
   36.6823   23.8456   37.6388 H   0  0  0  0  0  0  0  0  0  0  0  0
   40.6537   22.5318   38.5516 H   0  0  0  0  0  0  0  0  0  0  0  0
   40.4052   21.3305   34.9159 H   0  0  0  0  0  0  0  0  0  0  0  0
   44.8086   25.4775   37.1988 H   0  0  0  0  0  0  0  0  0  0  0  0
   45.5768   27.2512   33.3805 H   0  0  0  0  0  0  0  0  0  0  0  0
   37.4447   23.1627   32.0157 H   0  0  0  0  0  0  0  0  0  0  0  0
   36.8818   25.5777   31.7222 H   0  0  0  0  0  0  0  0  0  0  0  0
   34.8295   28.9191   32.6167 H   0  0  0  0  0  0  0  0  0  0  0  0
   37.6674   29.3554   29.4338 H   0  0  0  0  0  0  0  0  0  0  0  0
   38.7013   27.9521   31.3351 H   0  0  0  0  0  0  0  0  0  0  0  0
  1  5  1  0
  1  2  2  0
  2  3  1  0
  4  3  2  0
  5  4  1  0
  6  5  1  0
  7  6  2  0
  8  7  1  0
  8  9  1  0
  9 10  2  0
 10  6  1  0
 11  9  1  0
 11 12  1  0
 13 12  2  0
 14 13  1  0
 15 14  2  0
 15 11  1  0
 16 21  2  0
 17 16  1  0
 17 18  2  0
 18 19  1  0
 19 20  2  0
 20  1  1  0
 21 20  1  0
 22 18  1  0
 22 23  2  0
 24 22  1  0
 25 24  2  0
 26 25  1  0
 27 26  2  0
 27 28  1  0
 28 24  1  0
  2 29  1  0
  4 30  1  0
  7 31  1  0
 12 32  1  0
 14 33  1  0
 16 34  1  0
 17 35  1  0
 25 36  1  0
 27 37  1  0
 28 38  1  0
M  ISO  8  29  14  30  14  31  14  32  14  33  14  34  14  35  14  36  14
M  ISO  2  37  14  38   9
M  END
>  <minimizedAffinity>  (1) 
-5.55301332

>  <minimizedRMSD>  (1) 
0.754155695

$$$$
