
     RDKit          3D

 37 41  0  0  0  0  0  0  0  0999 V2000
   38.5120   23.7270   36.3570 C   0  0  0  0  0  0  0  0  0  0  0  0
   37.7720   23.5900   37.5090 C   0  0  0  0  0  0  0  0  0  0  0  0
   38.5610   23.1170   38.4790 N   0  0  0  0  0  0  0  0  0  0  0  0
   39.8010   22.9440   37.9760 C   0  0  0  0  0  0  0  0  0  0  0  0
   39.7460   23.3200   36.6940 N   0  0  0  0  0  0  0  0  0  0  0  0
   40.9120   23.2600   35.8600 C   0  0  0  0  0  0  0  0  0  0  0  0
   41.0820   22.1590   35.0770 C   0  0  0  0  0  0  0  0  0  0  0  0
   42.6710   22.5710   34.2420 S   0  0  0  0  0  0  0  0  0  0  0  0
   42.7910   24.2250   35.1600 C   0  0  0  0  0  0  0  0  0  0  0  0
   41.8500   24.1470   35.7560 N   0  0  0  0  0  0  0  0  0  0  0  0
   43.8250   25.2170   35.0530 N   0  0  0  0  0  0  0  0  0  0  0  0
   44.6980   25.8100   35.9260 C   0  0  0  0  0  0  0  0  0  0  0  0
   45.4280   26.6730   35.2100 N   0  0  0  0  0  0  0  0  0  0  0  0
   45.0460   26.6420   33.9290 C   0  0  0  0  0  0  0  0  0  0  0  0
   44.0500   25.7340   33.8490 N   0  0  0  0  0  0  0  0  0  0  0  0
   37.4870   23.7760   32.8450 C   0  0  0  0  0  0  0  0  0  0  0  0
   37.1930   25.1340   32.6530 C   0  0  0  0  0  0  0  0  0  0  0  0
   37.3530   25.9950   33.7300 C   0  0  0  0  0  0  0  0  0  0  0  0
   37.7810   25.5050   34.9140 N   0  0  0  0  0  0  0  0  0  0  0  0
   38.0580   24.2030   35.0800 C   0  0  0  0  0  0  0  0  0  0  0  0
   37.9170   23.3200   34.0540 N   0  0  0  0  0  0  0  0  0  0  0  0
   37.0570   27.4110   33.5550 C   0  0  0  0  0  0  0  0  0  0  0  0
   36.7830   28.0990   34.5830 O   0  0  0  0  0  0  0  0  0  0  0  0
   37.0470   28.1280   32.2580 C   0  0  0  0  0  0  0  0  0  0  0  0
   38.1210   28.0060   31.4270 C   0  0  0  0  0  0  0  0  0  0  0  0
   37.6390   29.0380   30.0220 S   0  0  0  0  0  0  0  0  0  0  0  0
   35.9810   29.4860   30.8330 C   0  0  0  0  0  0  0  0  0  0  0  0
   35.9970   28.8620   31.9530 N   0  0  0  0  0  0  0  0  0  0  0  0
   36.7039   23.8308   37.6147 H   0  0  0  0  0  0  0  0  0  0  0  0
   40.6833   22.5678   38.5145 H   0  0  0  0  0  0  0  0  0  0  0  0
   40.4452   21.2682   34.9720 H   0  0  0  0  0  0  0  0  0  0  0  0
   44.7825   25.6148   37.0052 H   0  0  0  0  0  0  0  0  0  0  0  0
   45.4612   27.2385   33.1033 H   0  0  0  0  0  0  0  0  0  0  0  0
   37.3688   23.0709   32.0090 H   0  0  0  0  0  0  0  0  0  0  0  0
   36.8459   25.5057   31.6777 H   0  0  0  0  0  0  0  0  0  0  0  0
   39.0450   27.4275   31.5736 H   0  0  0  0  0  0  0  0  0  0  0  0
   35.1872   30.1338   30.4327 H   0  0  0  0  0  0  0  0  0  0  0  0
  1  5  1  0
  1  2  2  0
  2  3  1  0
  4  3  2  0
  5  4  1  0
  6  5  1  0
  7  6  2  0
  8  7  1  0
  8  9  1  0
  9 10  2  0
 10  6  1  0
 11  9  1  0
 11 12  1  0
 13 12  2  0
 14 13  1  0
 15 14  2  0
 15 11  1  0
 16 21  2  0
 17 16  1  0
 17 18  2  0
 18 19  1  0
 19 20  2  0
 20  1  1  0
 21 20  1  0
 22 18  1  0
 22 23  2  0
 24 22  1  0
 25 24  2  0
 26 27  1  0
 26 25  1  0
 27 28  2  0
 28 24  1  0
  2 29  1  0
  4 30  1  0
  7 31  1  0
 12 32  1  0
 14 33  1  0
 16 34  1  0
 17 35  1  0
 25 36  1  0
 27 37  1  0
M  ISO  8  29  14  30  14  31  14  32  14  33  14  34  14  35  14  36  14
M  ISO  1  37  14
M  END
>  <minimizedAffinity>  (1) 
-5.44249535

>  <minimizedRMSD>  (1) 
0.667602539

$$$$
