
     RDKit          3D

 24 25  0  0  0  0  0  0  0  0999 V2000
   39.8950   22.6420   37.1870 C   0  0  0  0  0  0  0  0  0  0  0  0
   39.1970   23.2950   38.2090 C   0  0  0  0  0  0  0  0  0  0  0  0
   37.7940   23.4100   38.0800 C   0  0  0  0  0  0  0  0  0  0  0  0
   37.2170   22.8790   36.9720 N   0  0  0  0  0  0  0  0  0  0  0  0
   37.9430   22.2610   36.0200 C   0  0  0  0  0  0  0  0  0  0  0  0
   39.2720   22.1350   36.1120 N   0  0  0  0  0  0  0  0  0  0  0  0
   37.1740   21.7630   34.9280 N   0  0  0  0  0  0  0  0  0  0  0  0
   37.5550   22.0400   33.6650 C   0  0  0  0  0  0  0  0  0  0  0  0
   36.8010   21.5520   32.6050 C   0  0  0  0  0  0  0  0  0  0  0  0
   35.6680   20.7890   32.8950 C   0  0  0  0  0  0  0  0  0  0  0  0
   34.9360   20.3160   31.7710 N   0  0  0  0  0  0  0  0  0  0  0  0
   35.3220   20.5350   34.1920 N   0  0  0  0  0  0  0  0  0  0  0  0
   36.0810   21.0270   35.2080 C   0  0  0  0  0  0  0  0  0  0  0  0
   35.6800   20.7390   36.3640 O   0  0  0  0  0  0  0  0  0  0  0  0
   41.3600   22.5040   37.2900 C   0  0  0  0  0  0  0  0  0  0  0  0
   39.7227   23.7053   39.0838 H   0  0  0  0  0  0  0  0  0  0  0  0
   37.1908   23.9123   38.8507 H   0  0  0  0  0  0  0  0  0  0  0  0
   38.4533   22.6460   33.4756 H   0  0  0  0  0  0  0  0  0  0  0  0
   37.0891   21.7613   31.5642 H   0  0  0  0  0  0  0  0  0  0  0  0
   34.0890   19.7468   31.9105 H   0  0  0  0  0  0  0  0  0  0  0  0
   35.2529   20.5427   30.8175 H   0  0  0  0  0  0  0  0  0  0  0  0
   41.6521   22.4765   38.3502 H   0  0  0  0  0  0  0  0  0  0  0  0
   41.6760   21.5721   36.7983 H   0  0  0  0  0  0  0  0  0  0  0  0
   41.8444   23.3605   36.7983 H   0  0  0  0  0  0  0  0  0  0  0  0
  1 15  1  0
  1  2  2  0
  3  2  1  0
  4  3  2  0
  5  6  2  0
  5  4  1  0
  6  1  1  0
  7 13  1  0
  7  5  1  0
  8  7  1  0
  9 10  1  0
  9  8  2  0
 10 12  2  0
 11 10  1  0
 12 13  1  0
 13 14  2  0
  2 16  1  0
  3 17  1  0
  8 18  1  0
  9 19  1  0
 11 20  1  0
 11 21  1  0
 15 22  1  0
 15 23  1  0
 15 24  1  0
M  ISO  7  16  14  17  14  18  14  19  14  22   8  23   8  24   8
M  END
>  <minimizedAffinity>  (1) 
-5.04030228

>  <minimizedRMSD>  (1) 
0.939619839

$$$$
