
     RDKit          3D

 27 29  0  0  0  0  0  0  0  0999 V2000
   39.7150   22.9590   37.0860 C   0  0  0  0  0  0  0  0  0  0  0  0
   39.0830   23.2130   38.3050 C   0  0  0  0  0  0  0  0  0  0  0  0
   38.0300   24.1350   38.3370 C   0  0  0  0  0  0  0  0  0  0  0  0
   37.6860   24.7310   37.1520 N   0  0  0  0  0  0  0  0  0  0  0  0
   38.3270   24.4520   36.0030 C   0  0  0  0  0  0  0  0  0  0  0  0
   39.3420   23.5690   35.9550 N   0  0  0  0  0  0  0  0  0  0  0  0
   37.8510   25.1560   34.8610 N   0  0  0  0  0  0  0  0  0  0  0  0
   37.5970   26.4760   34.8920 C   0  0  0  0  0  0  0  0  0  0  0  0
   37.1500   26.9430   33.6930 N   0  0  0  0  0  0  0  0  0  0  0  0
   37.1220   25.8790   32.8840 C   0  0  0  0  0  0  0  0  0  0  0  0
   36.7640   25.7100   31.5610 C   0  0  0  0  0  0  0  0  0  0  0  0
   36.3730   26.7220   30.9150 O   0  0  0  0  0  0  0  0  0  0  0  0
   36.8520   24.4780   31.0300 N   0  0  0  0  0  0  0  0  0  0  0  0
   37.2820   23.4170   31.7710 C   0  0  0  0  0  0  0  0  0  0  0  0
   37.3010   22.2090   31.0300 N   0  0  0  0  0  0  0  0  0  0  0  0
   37.6380   23.5540   33.0690 N   0  0  0  0  0  0  0  0  0  0  0  0
   37.5520   24.7860   33.6070 C   0  0  0  0  0  0  0  0  0  0  0  0
   40.8320   21.9900   37.0200 C   0  0  0  0  0  0  0  0  0  0  0  0
   39.4062   22.6987   39.2221 H   0  0  0  0  0  0  0  0  0  0  0  0
   37.5018   24.3707   39.2726 H   0  0  0  0  0  0  0  0  0  0  0  0
   37.7344   27.1062   35.7830 H   0  0  0  0  0  0  0  0  0  0  0  0
   36.5896   24.3327   30.0446 H   0  0  0  0  0  0  0  0  0  0  0  0
   37.6075   21.3342   31.4790 H   0  0  0  0  0  0  0  0  0  0  0  0
   37.0083   22.2059   30.0425 H   0  0  0  0  0  0  0  0  0  0  0  0
   41.1436   21.7197   38.0397 H   0  0  0  0  0  0  0  0  0  0  0  0
   40.5027   21.0867   36.4856 H   0  0  0  0  0  0  0  0  0  0  0  0
   41.6798   22.4436   36.4856 H   0  0  0  0  0  0  0  0  0  0  0  0
  1  2  2  0
  2  3  1  0
  4  3  2  0
  5  4  1  0
  6  5  2  0
  6  1  1  0
  7  8  1  0
  7  5  1  0
  9  8  2  0
 10 17  2  0
 10  9  1  0
 11 10  1  0
 12 11  2  0
 13 11  1  0
 13 14  1  0
 14 16  2  0
 15 14  1  0
 16 17  1  0
 17  7  1  0
 18  1  1  0
  2 19  1  0
  3 20  1  0
  8 21  1  0
 13 22  1  0
 15 23  1  0
 15 24  1  0
 18 25  1  0
 18 26  1  0
 18 27  1  0
M  ISO  7  19  14  20  14  21  14  22   9  25   8  26   8  27   8
M  END
>  <minimizedAffinity>  (1) 
-5.32785606

>  <minimizedRMSD>  (1) 
3.46627975

$$$$
