
     RDKit          3D

 20 21  0  0  0  0  0  0  0  0999 V2000
   39.8630   22.6350   37.1720 C   0  0  0  0  0  0  0  0  0  0  0  0
   39.2240   23.2970   38.2320 C   0  0  0  0  0  0  0  0  0  0  0  0
   37.8260   23.4330   38.1760 C   0  0  0  0  0  0  0  0  0  0  0  0
   37.1800   22.9200   37.1070 N   0  0  0  0  0  0  0  0  0  0  0  0
   37.8360   22.2900   36.1060 C   0  0  0  0  0  0  0  0  0  0  0  0
   39.1600   22.1480   36.1360 N   0  0  0  0  0  0  0  0  0  0  0  0
   37.1310   21.7350   34.9470 C   0  0  0  0  0  0  0  0  0  0  0  0
   36.0300   20.9430   35.1890 C   0  0  0  0  0  0  0  0  0  0  0  0
   35.5600   20.5560   33.9350 C   0  0  0  0  0  0  0  0  0  0  0  0
   36.4170   21.1450   33.0030 C   0  0  0  0  0  0  0  0  0  0  0  0
   37.3250   21.8280   33.6510 O   0  0  0  0  0  0  0  0  0  0  0  0
   41.3240   22.4600   37.1700 C   0  0  0  0  0  0  0  0  0  0  0  0
   39.7992   23.6969   39.0801 H   0  0  0  0  0  0  0  0  0  0  0  0
   37.2743   23.9426   38.9797 H   0  0  0  0  0  0  0  0  0  0  0  0
   35.6091   20.6722   36.1686 H   0  0  0  0  0  0  0  0  0  0  0  0
   34.6905   19.9165   33.7227 H   0  0  0  0  0  0  0  0  0  0  0  0
   36.3413   21.0506   31.9097 H   0  0  0  0  0  0  0  0  0  0  0  0
   41.6895   22.4162   38.2066 H   0  0  0  0  0  0  0  0  0  0  0  0
   41.5805   21.5247   36.6510 H   0  0  0  0  0  0  0  0  0  0  0  0
   41.7942   23.3082   36.6510 H   0  0  0  0  0  0  0  0  0  0  0  0
  1  2  2  0
  3  2  1  0
  4  3  2  0
  5  6  2  0
  5  4  1  0
  6  1  1  0
  7  8  2  0
  7  5  1  0
  9  8  1  0
 10 11  1  0
 10  9  2  0
 11  7  1  0
 12  1  1  0
  2 13  1  0
  3 14  1  0
  8 15  1  0
  9 16  1  0
 10 17  1  0
 12 18  1  0
 12 19  1  0
 12 20  1  0
M  ISO  8  13  14  14  14  15  14  16  14  17  14  18   8  19   8  20   8
M  END
>  <minimizedAffinity>  (1) 
-4.12605047

>  <minimizedRMSD>  (1) 
0.698456347

$$$$
