
     RDKit          3D

 20 21  0  0  0  0  0  0  0  0999 V2000
   39.8570   22.6340   37.1550 C   0  0  0  0  0  0  0  0  0  0  0  0
   39.2320   23.3160   38.2080 C   0  0  0  0  0  0  0  0  0  0  0  0
   37.8210   23.4430   38.1610 C   0  0  0  0  0  0  0  0  0  0  0  0
   37.1730   22.8950   37.0990 N   0  0  0  0  0  0  0  0  0  0  0  0
   37.8340   22.2520   36.1210 C   0  0  0  0  0  0  0  0  0  0  0  0
   39.1590   22.1190   36.1410 N   0  0  0  0  0  0  0  0  0  0  0  0
   37.0790   21.6860   35.0080 C   0  0  0  0  0  0  0  0  0  0  0  0
   37.3600   21.8090   33.6620 C   0  0  0  0  0  0  0  0  0  0  0  0
   36.4450   21.1510   32.9250 N   0  0  0  0  0  0  0  0  0  0  0  0
   35.5680   20.6020   33.8160 C   0  0  0  0  0  0  0  0  0  0  0  0
   35.9570   20.9290   35.0700 N   0  0  0  0  0  0  0  0  0  0  0  0
   41.3180   22.4760   37.1590 C   0  0  0  0  0  0  0  0  0  0  0  0
   39.8150   23.7372   39.0403 H   0  0  0  0  0  0  0  0  0  0  0  0
   37.2697   23.9666   38.9559 H   0  0  0  0  0  0  0  0  0  0  0  0
   38.2131   22.3671   33.2488 H   0  0  0  0  0  0  0  0  0  0  0  0
   34.6891   19.9935   33.5568 H   0  0  0  0  0  0  0  0  0  0  0  0
   35.4757   20.6468   35.9358 H   0  0  0  0  0  0  0  0  0  0  0  0
   41.6797   22.4369   38.1971 H   0  0  0  0  0  0  0  0  0  0  0  0
   41.5874   21.5435   36.6415 H   0  0  0  0  0  0  0  0  0  0  0  0
   41.7805   23.3294   36.6415 H   0  0  0  0  0  0  0  0  0  0  0  0
  1 12  1  0
  1  2  2  0
  3  2  1  0
  4  3  2  0
  5  6  2  0
  5  4  1  0
  6  1  1  0
  7 11  1  0
  7  5  1  0
  8  7  2  0
  9  8  1  0
  9 10  2  0
 10 11  1  0
  2 13  1  0
  3 14  1  0
  8 15  1  0
 10 16  1  0
 11 17  1  0
 12 18  1  0
 12 19  1  0
 12 20  1  0
M  ISO  8  13  14  14  14  15  14  16  14  17   9  18   8  19   8  20   8
M  END
>  <minimizedAffinity>  (1) 
-3.87789226

>  <minimizedRMSD>  (1) 
0.753935993

$$$$
