
     RDKit          3D

 20 21  0  0  0  0  0  0  0  0999 V2000
   39.8730   22.6310   37.1860 C   0  0  0  0  0  0  0  0  0  0  0  0
   39.1710   23.2850   38.2050 C   0  0  0  0  0  0  0  0  0  0  0  0
   37.7670   23.4040   38.0760 C   0  0  0  0  0  0  0  0  0  0  0  0
   37.2030   22.8660   36.9580 N   0  0  0  0  0  0  0  0  0  0  0  0
   37.9280   22.2460   36.0090 C   0  0  0  0  0  0  0  0  0  0  0  0
   39.2550   22.1290   36.1220 N   0  0  0  0  0  0  0  0  0  0  0  0
   37.1390   21.7390   34.8940 C   0  0  0  0  0  0  0  0  0  0  0  0
   36.0690   20.9040   34.9250 C   0  0  0  0  0  0  0  0  0  0  0  0
   35.4720   20.5520   33.7400 C   0  0  0  0  0  0  0  0  0  0  0  0
   36.0100   21.0810   32.5940 C   0  0  0  0  0  0  0  0  0  0  0  0
   37.4060   22.1100   33.1990 S   0  0  0  0  0  0  0  0  0  0  0  0
   41.3360   22.4940   37.2950 C   0  0  0  0  0  0  0  0  0  0  0  0
   39.6956   23.6946   39.0808 H   0  0  0  0  0  0  0  0  0  0  0  0
   37.1591   23.9072   38.8423 H   0  0  0  0  0  0  0  0  0  0  0  0
   35.6877   20.5169   35.8814 H   0  0  0  0  0  0  0  0  0  0  0  0
   34.6034   19.8777   33.7106 H   0  0  0  0  0  0  0  0  0  0  0  0
   35.6820   20.9253   31.5557 H   0  0  0  0  0  0  0  0  0  0  0  0
   41.6237   22.4671   38.3564 H   0  0  0  0  0  0  0  0  0  0  0  0
   41.6545   21.5621   36.8050 H   0  0  0  0  0  0  0  0  0  0  0  0
   41.8220   23.3506   36.8050 H   0  0  0  0  0  0  0  0  0  0  0  0
  1 12  1  0
  1  2  2  0
  3  2  1  0
  4  3  2  0
  5  6  2  0
  5  4  1  0
  6  1  1  0
  7  8  2  0
  7  5  1  0
  9  8  1  0
 10 11  1  0
 10  9  2  0
 11  7  1  0
  2 13  1  0
  3 14  1  0
  8 15  1  0
  9 16  1  0
 10 17  1  0
 12 18  1  0
 12 19  1  0
 12 20  1  0
M  ISO  8  13  14  14  14  15  14  16  14  17  14  18   8  19   8  20   8
M  END
>  <minimizedAffinity>  (1) 
-4.01410055

>  <minimizedRMSD>  (1) 
0.807116151

$$$$
