
     RDKit          3D

 15 15  0  0  0  0  0  0  0  0999 V2000
   39.9320   22.5110   37.1970 C   0  0  0  0  0  0  0  0  0  0  0  0
   39.2250   23.1890   38.2080 C   0  0  0  0  0  0  0  0  0  0  0  0
   37.8630   23.4400   38.0080 C   0  0  0  0  0  0  0  0  0  0  0  0
   37.3050   23.0170   36.8520 N   0  0  0  0  0  0  0  0  0  0  0  0
   38.0250   22.3670   35.9040 C   0  0  0  0  0  0  0  0  0  0  0  0
   39.3220   22.1180   36.0740 N   0  0  0  0  0  0  0  0  0  0  0  0
   37.4320   21.9170   34.6740 N   0  0  0  0  0  0  0  0  0  0  0  0
   41.3700   22.2150   37.3470 C   0  0  0  0  0  0  0  0  0  0  0  0
   39.7296   23.5127   39.1303 H   0  0  0  0  0  0  0  0  0  0  0  0
   37.2653   23.9650   38.7677 H   0  0  0  0  0  0  0  0  0  0  0  0
   36.4320   22.0845   34.4929 H   0  0  0  0  0  0  0  0  0  0  0  0
   38.0072   21.4271   33.9739 H   0  0  0  0  0  0  0  0  0  0  0  0
   41.6240   22.1627   38.4160 H   0  0  0  0  0  0  0  0  0  0  0  0
   41.5978   21.2511   36.8684 H   0  0  0  0  0  0  0  0  0  0  0  0
   41.9600   23.0105   36.8684 H   0  0  0  0  0  0  0  0  0  0  0  0
  1  8  1  0
  1  2  2  0
  3  2  1  0
  4  3  2  0
  5  6  2  0
  5  4  1  0
  6  1  1  0
  7  5  1  0
  2  9  1  0
  3 10  1  0
  7 11  1  0
  7 12  1  0
  8 13  1  0
  8 14  1  0
  8 15  1  0
M  ISO  5   9  14  10  14  13   8  14   8  15   8
M  END
>  <minimizedAffinity>  (1) 
-3.05404186

>  <minimizedRMSD>  (1) 
0.376862198

$$$$
