
     RDKit          3D

 15 15  0  0  0  0  0  0  0  0999 V2000
   39.9920   22.4460   37.1740 C   0  0  0  0  0  0  0  0  0  0  0  0
   39.2780   23.1280   38.1720 C   0  0  0  0  0  0  0  0  0  0  0  0
   37.9240   23.4150   37.9310 C   0  0  0  0  0  0  0  0  0  0  0  0
   37.3950   23.0170   36.7530 N   0  0  0  0  0  0  0  0  0  0  0  0
   38.1190   22.3660   35.8260 C   0  0  0  0  0  0  0  0  0  0  0  0
   39.4190   22.0770   36.0300 N   0  0  0  0  0  0  0  0  0  0  0  0
   41.4110   22.1270   37.3900 C   0  0  0  0  0  0  0  0  0  0  0  0
   37.5110   21.9510   34.5660 C   0  0  0  0  0  0  0  0  0  0  0  0
   36.4810   21.2390   34.4700 O   0  0  0  0  0  0  0  0  0  0  0  0
   39.7632   23.4280   39.1125 H   0  0  0  0  0  0  0  0  0  0  0  0
   37.3145   23.9463   38.6768 H   0  0  0  0  0  0  0  0  0  0  0  0
   41.6162   22.0809   38.4697 H   0  0  0  0  0  0  0  0  0  0  0  0
   41.6422   21.1545   36.9309 H   0  0  0  0  0  0  0  0  0  0  0  0
   42.0362   22.9070   36.9309 H   0  0  0  0  0  0  0  0  0  0  0  0
   37.9891   22.2858   33.6336 H   0  0  0  0  0  0  0  0  0  0  0  0
  1  7  1  0
  1  2  2  0
  3  2  1  0
  4  3  2  0
  5  6  2  0
  5  4  1  0
  6  1  1  0
  8  5  1  0
  9  8  2  0
  2 10  1  0
  3 11  1  0
  7 12  1  0
  7 13  1  0
  7 14  1  0
  8 15  1  0
M  ISO  6  10  14  11  14  12   8  13   8  14   8  15   6
M  END
>  <minimizedAffinity>  (1) 
-3.08886623

>  <minimizedRMSD>  (1) 
0.417431891

$$$$
