
     RDKit          3D

 20 21  0  0  0  0  0  0  0  0999 V2000
   39.7710   22.9740   37.2820 C   0  0  0  0  0  0  0  0  0  0  0  0
   38.8900   23.0180   38.3690 C   0  0  0  0  0  0  0  0  0  0  0  0
   37.9150   24.0200   38.3980 C   0  0  0  0  0  0  0  0  0  0  0  0
   37.8830   24.8930   37.3640 N   0  0  0  0  0  0  0  0  0  0  0  0
   38.7480   24.8220   36.3300 C   0  0  0  0  0  0  0  0  0  0  0  0
   39.6920   23.8700   36.2800 N   0  0  0  0  0  0  0  0  0  0  0  0
   40.8130   21.9330   37.2140 C   0  0  0  0  0  0  0  0  0  0  0  0
   38.6840   25.8050   35.2000 C   0  0  0  0  0  0  0  0  0  0  0  0
   38.7380   27.2790   35.6050 C   0  0  0  0  0  0  0  0  0  0  0  0
   39.8790   26.6440   34.9100 C   0  0  0  0  0  0  0  0  0  0  0  0
   38.9631   22.2808   39.1822 H   0  0  0  0  0  0  0  0  0  0  0  0
   37.2002   24.0960   39.2306 H   0  0  0  0  0  0  0  0  0  0  0  0
   41.1060   21.6403   38.2331 H   0  0  0  0  0  0  0  0  0  0  0  0
   40.4204   21.0556   36.6791 H   0  0  0  0  0  0  0  0  0  0  0  0
   41.6900   22.3264   36.6791 H   0  0  0  0  0  0  0  0  0  0  0  0
   38.0329   25.1607   34.5910 H   0  0  0  0  0  0  0  0  0  0  0  0
   38.1148   28.0186   35.0810 H   0  0  0  0  0  0  0  0  0  0  0  0
   38.6066   27.8374   36.5436 H   0  0  0  0  0  0  0  0  0  0  0  0
   40.8165   26.4631   35.4561 H   0  0  0  0  0  0  0  0  0  0  0  0
   40.4463   26.8789   33.9973 H   0  0  0  0  0  0  0  0  0  0  0  0
  1  2  2  0
  2  3  1  0
  4  3  2  0
  5  4  1  0
  6  5  2  0
  6  1  1  0
  7  1  1  0
  8  9  1  0
  8  5  1  0
 10  8  1  0
 10  9  1  0
  2 11  1  0
  3 12  1  0
  7 13  1  0
  7 14  1  0
  7 15  1  0
  8 16  1  0
  9 17  1  0
  9 18  1  0
 10 19  1  0
 10 20  1  0
M  ISO  8  11  14  12  14  13   8  14   8  15   8  16  13  17  13  18  13
M  ISO  2  19  13  20  13
M  END
>  <minimizedAffinity>  (1) 
-3.75221324

>  <minimizedRMSD>  (1) 
3.04305744

$$$$
