
     RDKit          3D

 22 22  0  0  0  0  0  0  0  0999 V2000
   39.7480   22.8740   37.2680 C   0  0  0  0  0  0  0  0  0  0  0  0
   38.9430   23.2480   38.3540 C   0  0  0  0  0  0  0  0  0  0  0  0
   37.8730   24.1130   38.0980 C   0  0  0  0  0  0  0  0  0  0  0  0
   37.6780   24.5360   36.8260 N   0  0  0  0  0  0  0  0  0  0  0  0
   38.4930   24.1420   35.8040 C   0  0  0  0  0  0  0  0  0  0  0  0
   39.5210   23.3160   36.0260 N   0  0  0  0  0  0  0  0  0  0  0  0
   40.9020   21.9560   37.4830 C   0  0  0  0  0  0  0  0  0  0  0  0
   38.2110   24.6510   34.4370 C   0  0  0  0  0  0  0  0  0  0  0  0
   37.9110   23.5540   33.4490 C   0  0  0  0  0  0  0  0  0  0  0  0
   39.4260   25.4530   33.9840 C   0  0  0  0  0  0  0  0  0  0  0  0
   39.1451   22.8753   39.3690 H   0  0  0  0  0  0  0  0  0  0  0  0
   37.2069   24.4412   38.9095 H   0  0  0  0  0  0  0  0  0  0  0  0
   41.0688   21.8233   38.5621 H   0  0  0  0  0  0  0  0  0  0  0  0
   40.6854   20.9807   37.0228 H   0  0  0  0  0  0  0  0  0  0  0  0
   41.8036   22.3864   37.0228 H   0  0  0  0  0  0  0  0  0  0  0  0
   37.3069   25.2764   34.4747 H   0  0  0  0  0  0  0  0  0  0  0  0
   37.6586   22.6309   33.9914 H   0  0  0  0  0  0  0  0  0  0  0  0
   37.0614   23.8519   32.8171 H   0  0  0  0  0  0  0  0  0  0  0  0
   38.7940   23.3781   32.8171 H   0  0  0  0  0  0  0  0  0  0  0  0
   39.9754   25.8156   34.8653 H   0  0  0  0  0  0  0  0  0  0  0  0
   40.0844   24.8114   33.3799 H   0  0  0  0  0  0  0  0  0  0  0  0
   39.0948   26.3106   33.3799 H   0  0  0  0  0  0  0  0  0  0  0  0
  1  7  1  0
  1  2  2  0
  3  2  1  0
  4  3  2  0
  5  6  2  0
  5  4  1  0
  6  1  1  0
  8  5  1  0
  9  8  1  0
 10  8  1  0
  2 11  1  0
  3 12  1  0
  7 13  1  0
  7 14  1  0
  7 15  1  0
  8 16  1  0
  9 17  1  0
  9 18  1  0
  9 19  1  0
 10 20  1  0
 10 21  1  0
 10 22  1  0
M  ISO  8  11  14  12  14  13   8  14   8  15   8  16   8  17   8  18   8
M  ISO  4  19   8  20   8  21   8  22   8
M  END
>  <minimizedAffinity>  (1) 
-3.31006861

>  <minimizedRMSD>  (1) 
1.65402687

$$$$
