
     RDKit          3D

 25 25  0  0  0  0  0  0  0  0999 V2000
   39.7010   23.0270   37.3260 C   0  0  0  0  0  0  0  0  0  0  0  0
   38.8920   23.1980   38.4480 C   0  0  0  0  0  0  0  0  0  0  0  0
   37.9460   24.2380   38.4390 C   0  0  0  0  0  0  0  0  0  0  0  0
   37.8810   25.0190   37.3190 N   0  0  0  0  0  0  0  0  0  0  0  0
   38.6880   24.8100   36.2580 C   0  0  0  0  0  0  0  0  0  0  0  0
   39.5910   23.8220   36.2610 N   0  0  0  0  0  0  0  0  0  0  0  0
   40.7110   21.9380   37.3000 C   0  0  0  0  0  0  0  0  0  0  0  0
   38.6170   25.6610   35.0410 C   0  0  0  0  0  0  0  0  0  0  0  0
   38.8080   24.7510   33.8550 C   0  0  0  0  0  0  0  0  0  0  0  0
   39.7360   26.6740   35.0800 C   0  0  0  0  0  0  0  0  0  0  0  0
   37.3070   26.4140   34.9760 C   0  0  0  0  0  0  0  0  0  0  0  0
   38.9913   22.5349   39.3200 H   0  0  0  0  0  0  0  0  0  0  0  0
   37.2842   24.4162   39.2994 H   0  0  0  0  0  0  0  0  0  0  0  0
   40.9726   21.6559   38.3305 H   0  0  0  0  0  0  0  0  0  0  0  0
   40.2956   21.0651   36.7751 H   0  0  0  0  0  0  0  0  0  0  0  0
   41.6127   22.2866   36.7751 H   0  0  0  0  0  0  0  0  0  0  0  0
   39.0221   23.7308   34.2063 H   0  0  0  0  0  0  0  0  0  0  0  0
   37.8917   24.7445   33.2465 H   0  0  0  0  0  0  0  0  0  0  0  0
   39.6496   25.1135   33.2465 H   0  0  0  0  0  0  0  0  0  0  0  0
   39.9879   26.9020   36.1262 H   0  0  0  0  0  0  0  0  0  0  0  0
   40.6204   26.2631   34.5711 H   0  0  0  0  0  0  0  0  0  0  0  0
   39.4149   27.5948   34.5711 H   0  0  0  0  0  0  0  0  0  0  0  0
   36.9508   26.6188   35.9964 H   0  0  0  0  0  0  0  0  0  0  0  0
   37.4563   27.3641   34.4422 H   0  0  0  0  0  0  0  0  0  0  0  0
   36.5611   25.8068   34.4422 H   0  0  0  0  0  0  0  0  0  0  0  0
  1  2  2  0
  3  2  1  0
  4  3  2  0
  5  6  2  0
  5  4  1  0
  6  1  1  0
  7  1  1  0
  8 10  1  0
  8  5  1  0
  9  8  1  0
 11  8  1  0
  2 12  1  0
  3 13  1  0
  7 14  1  0
  7 15  1  0
  7 16  1  0
  9 17  1  0
  9 18  1  0
  9 19  1  0
 10 20  1  0
 10 21  1  0
 10 22  1  0
 11 23  1  0
 11 24  1  0
 11 25  1  0
M  ISO  8  12  14  13  14  14   8  15   8  16   8  17   8  18   8  19   8
M  ISO  6  20   8  21   8  22   8  23   8  24   8  25   8
M  END
>  <minimizedAffinity>  (1) 
-3.80706263

>  <minimizedRMSD>  (1) 
2.62062168

$$$$
