
     RDKit          3D

 19 19  0  0  0  0  0  0  0  0999 V2000
   38.5700   23.5070   37.7060 C   0  0  0  0  0  0  0  0  0  0  0  0
   37.9390   23.3040   36.4650 C   0  0  0  0  0  0  0  0  0  0  0  0
   38.5760   22.4910   35.5150 C   0  0  0  0  0  0  0  0  0  0  0  0
   39.7730   21.9470   35.8590 N   0  0  0  0  0  0  0  0  0  0  0  0
   40.3360   22.1740   37.0660 C   0  0  0  0  0  0  0  0  0  0  0  0
   39.7440   22.9430   37.9800 N   0  0  0  0  0  0  0  0  0  0  0  0
   37.9210   24.3630   38.7320 C   0  0  0  0  0  0  0  0  0  0  0  0
   41.6440   21.5080   37.2890 C   0  0  0  0  0  0  0  0  0  0  0  0
   42.6930   22.3480   36.5910 C   0  0  0  0  0  0  0  0  0  0  0  0
   36.9683   23.7720   36.2444 H   0  0  0  0  0  0  0  0  0  0  0  0
   38.1241   22.3014   34.5302 H   0  0  0  0  0  0  0  0  0  0  0  0
   38.1936   24.0035   39.7352 H   0  0  0  0  0  0  0  0  0  0  0  0
   38.2601   25.4023   38.6103 H   0  0  0  0  0  0  0  0  0  0  0  0
   36.8287   24.3171   38.6103 H   0  0  0  0  0  0  0  0  0  0  0  0
   41.8605   21.4515   38.3660 H   0  0  0  0  0  0  0  0  0  0  0  0
   41.6349   20.4820   36.8924 H   0  0  0  0  0  0  0  0  0  0  0  0
   43.3201   22.8502   37.3423 H   0  0  0  0  0  0  0  0  0  0  0  0
   43.3218   21.7009   35.9618 H   0  0  0  0  0  0  0  0  0  0  0  0
   42.1990   23.1031   35.9618 H   0  0  0  0  0  0  0  0  0  0  0  0
  1  6  2  0
  1  7  1  0
  2  1  1  0
  3  4  1  0
  3  2  2  0
  4  5  2  0
  5  8  1  0
  5  6  1  0
  9  8  1  0
  2 10  1  0
  3 11  1  0
  7 12  1  0
  7 13  1  0
  7 14  1  0
  8 15  1  0
  8 16  1  0
  9 17  1  0
  9 18  1  0
  9 19  1  0
M  ISO  8  10  14  11  14  12   8  13   8  14   8  15   8  16   8  17   8
M  ISO  2  18   8  19   8
M  END
>  <minimizedAffinity>  (1) 
-3.29014444

>  <minimizedRMSD>  (1) 
3.79660368

$$$$
