
     RDKit          3D

 44 47  0  0  1  0  0  0  0  0999 V2000
   36.1330   29.5700   32.4640 C   0  0  0  0  0  0  0  0  0  0  0  0
   36.8840   28.6430   31.8040 C   0  0  0  0  0  0  0  0  0  0  0  0
   37.2610   27.4920   32.4950 C   0  0  0  0  0  0  0  0  0  0  0  0
   36.8820   27.3060   33.8100 C   0  0  0  0  0  0  0  0  0  0  0  0
   36.1310   28.2360   34.4680 C   0  0  0  0  0  0  0  0  0  0  0  0
   35.7480   29.3780   33.8030 C   0  0  0  0  0  0  0  0  0  0  0  0
   37.3840   26.0260   34.3580 C   0  0  0  0  0  0  0  0  0  0  0  0
   38.7630   26.1060   34.9080 C   0  0  2  0  0  0  0  0  0  0  0  0
   40.7420   23.2400   36.0440 C   0  0  0  0  0  0  0  0  0  0  0  0
   39.9500   22.6770   37.0780 C   0  0  0  0  0  0  0  0  0  0  0  0
   38.7180   23.2990   37.3800 C   0  0  0  0  0  0  0  0  0  0  0  0
   38.3850   24.4050   36.6420 N   0  0  0  0  0  0  0  0  0  0  0  0
   39.1710   24.9090   35.6640 C   0  0  0  0  0  0  0  0  0  0  0  0
   40.3470   24.3390   35.3560 N   0  0  0  0  0  0  0  0  0  0  0  0
   38.8360   27.3130   35.8600 C   0  0  0  0  0  0  0  0  0  0  0  0
   35.6450   31.0240   31.6200 S   0  0  0  0  0  0  0  0  0  0  0  0
   36.2170   30.9390   30.2150 O   0  0  0  0  0  0  0  0  0  0  0  0
   36.1750   32.2480   32.2800 O   0  0  0  0  0  0  0  0  0  0  0  0
   33.8990   31.1210   31.5230 C   0  0  0  0  0  0  0  0  0  0  0  0
   32.8880   30.6730   32.2840 N   0  0  0  0  0  0  0  0  0  0  0  0
   31.7460   31.0170   31.7670 O   0  0  0  0  0  0  0  0  0  0  0  0
   31.9610   31.7000   30.6530 C   0  0  0  0  0  0  0  0  0  0  0  0
   33.2700   31.7590   30.5110 N   0  0  0  0  0  0  0  0  0  0  0  0
   30.9270   32.2620   29.7770 C   0  0  0  0  0  0  0  0  0  0  0  0
   30.7310   31.9110   28.4570 C   0  0  0  0  0  0  0  0  0  0  0  0
   29.6610   32.7050   28.0840 C   0  0  0  0  0  0  0  0  0  0  0  0
   29.2360   33.4740   29.0900 N   0  0  0  0  0  0  0  0  0  0  0  0
   30.0210   33.2010   30.1430 N   0  0  0  0  0  0  0  0  0  0  0  0
   37.1837   28.7985   30.7571 H   0  0  0  0  0  0  0  0  0  0  0  0
   37.8656   26.7254   31.9883 H   0  0  0  0  0  0  0  0  0  0  0  0
   35.8359   28.0750   35.5154 H   0  0  0  0  0  0  0  0  0  0  0  0
   35.1423   30.1388   34.3172 H   0  0  0  0  0  0  0  0  0  0  0  0
   36.7077   25.7053   35.1640 H   0  0  0  0  0  0  0  0  0  0  0  0
   37.4142   25.3109   33.5227 H   0  0  0  0  0  0  0  0  0  0  0  0
   39.4434   26.1984   34.0486 H   0  0  0  0  0  0  0  0  0  0  0  0
   41.7048   22.7708   35.7934 H   0  0  0  0  0  0  0  0  0  0  0  0
   40.2847   21.7845   37.6271 H   0  0  0  0  0  0  0  0  0  0  0  0
   38.0570   22.9138   38.1703 H   0  0  0  0  0  0  0  0  0  0  0  0
   38.8147   26.9602   36.9017 H   0  0  0  0  0  0  0  0  0  0  0  0
   39.7693   27.8665   35.6794 H   0  0  0  0  0  0  0  0  0  0  0  0
   37.9763   27.9750   35.6794 H   0  0  0  0  0  0  0  0  0  0  0  0
   31.2876   31.1808   27.8512 H   0  0  0  0  0  0  0  0  0  0  0  0
   29.2138   32.7031   27.0790 H   0  0  0  0  0  0  0  0  0  0  0  0
   28.4564   34.1465   29.0626 H   0  0  0  0  0  0  0  0  0  0  0  0
  1  6  1  0
  2  1  2  0
  2  3  1  0
  3  4  2  0
  4  7  1  0
  4  5  1  0
  6  5  2  0
  7  8  1  0
  8 13  1  0
  8 15  1  0
  9 10  2  0
 10 11  1  0
 12 11  2  0
 13 12  1  0
 14 13  2  0
 14  9  1  0
 16 18  2  0
 16  1  1  0
 17 16  2  0
 19 16  1  0
 19 20  2  0
 21 20  1  0
 22 21  1  0
 23 22  2  0
 23 19  1  0
 24 28  2  0
 24 22  1  0
 25 24  1  0
 26 25  2  0
 26 27  1  0
 27 28  1  0
  2 29  1  0
  3 30  1  0
  5 31  1  0
  6 32  1  0
  7 33  1  0
  7 34  1  0
  8 35  1  6
  9 36  1  0
 10 37  1  0
 11 38  1  0
 15 39  1  0
 15 40  1  0
 15 41  1  0
 25 42  1  0
 26 43  1  0
 27 44  1  0
M  ISO  8  29  14  30  14  31  14  32  14  33   8  34   8  35   8  36  14
M  ISO  8  37  14  38  14  39   8  40   8  41   8  42  14  43  14  44   9
M  END
>  <minimizedAffinity>  (1) 
-5.34638357

>  <minimizedRMSD>  (1) 
0.864160001

$$$$
