
     RDKit          3D

 14 14  0  0  0  0  0  0  0  0999 V2000
   40.0660   22.3910   37.2020 C   0  0  0  0  0  0  0  0  0  0  0  0
   39.3680   23.1060   38.1770 C   0  0  0  0  0  0  0  0  0  0  0  0
   38.0410   23.4710   37.9290 C   0  0  0  0  0  0  0  0  0  0  0  0
   37.5040   23.0970   36.7320 N   0  0  0  0  0  0  0  0  0  0  0  0
   38.2220   22.4030   35.8190 C   0  0  0  0  0  0  0  0  0  0  0  0
   39.4930   22.0480   36.0440 N   0  0  0  0  0  0  0  0  0  0  0  0
   41.4640   21.9970   37.4440 C   0  0  0  0  0  0  0  0  0  0  0  0
   37.4640   21.9370   34.2590 S   0  0  0  0  0  0  0  0  0  0  0  0
   39.8542   23.3780   39.1255 H   0  0  0  0  0  0  0  0  0  0  0  0
   37.4546   24.0362   38.6684 H   0  0  0  0  0  0  0  0  0  0  0  0
   41.6481   21.9451   38.5272 H   0  0  0  0  0  0  0  0  0  0  0  0
   41.6505   21.0113   36.9928 H   0  0  0  0  0  0  0  0  0  0  0  0
   42.1378   22.7402   36.9928 H   0  0  0  0  0  0  0  0  0  0  0  0
   36.3155   21.2309   34.5023 H   0  0  0  0  0  0  0  0  0  0  0  0
  1  7  1  0
  1  2  2  0
  3  2  1  0
  4  3  2  0
  5  6  2  0
  5  4  1  0
  6  1  1  0
  8  5  1  0
  2  9  1  0
  3 10  1  0
  7 11  1  0
  7 12  1  0
  7 13  1  0
  8 14  1  0
M  ISO  6   9  14  10  14  11   8  12   8  13   8  14  11
M  END
>  <minimizedAffinity>  (1) 
-2.9630661

>  <minimizedRMSD>  (1) 
0.466319919

$$$$
