
     RDKit          3D

 16 16  0  0  0  0  0  0  0  0999 V2000
   40.0240   22.4300   37.1870 C   0  0  0  0  0  0  0  0  0  0  0  0
   39.3090   23.1210   38.1660 C   0  0  0  0  0  0  0  0  0  0  0  0
   37.9600   23.4130   37.9260 C   0  0  0  0  0  0  0  0  0  0  0  0
   37.4220   22.9980   36.7410 N   0  0  0  0  0  0  0  0  0  0  0  0
   38.1660   22.3260   35.8190 C   0  0  0  0  0  0  0  0  0  0  0  0
   39.4470   22.0410   36.0320 N   0  0  0  0  0  0  0  0  0  0  0  0
   41.4440   22.1030   37.3990 C   0  0  0  0  0  0  0  0  0  0  0  0
   37.4430   21.9340   34.5680 C   0  0  0  0  0  0  0  0  0  0  0  0
   39.7933   23.4293   39.1043 H   0  0  0  0  0  0  0  0  0  0  0  0
   37.3551   23.9575   38.6660 H   0  0  0  0  0  0  0  0  0  0  0  0
   41.6521   22.0551   38.4781 H   0  0  0  0  0  0  0  0  0  0  0  0
   41.6688   21.1296   36.9386 H   0  0  0  0  0  0  0  0  0  0  0  0
   42.0719   22.8801   36.9386 H   0  0  0  0  0  0  0  0  0  0  0  0
   36.5041   21.4249   34.8313 H   0  0  0  0  0  0  0  0  0  0  0  0
   37.2188   22.8341   33.9768 H   0  0  0  0  0  0  0  0  0  0  0  0
   38.0749   21.2550   33.9768 H   0  0  0  0  0  0  0  0  0  0  0  0
  1  7  1  0
  1  2  2  0
  3  2  1  0
  4  3  2  0
  5  6  2  0
  5  4  1  0
  6  1  1  0
  8  5  1  0
  2  9  1  0
  3 10  1  0
  7 11  1  0
  7 12  1  0
  7 13  1  0
  8 14  1  0
  8 15  1  0
  8 16  1  0
M  ISO  8   9  14  10  14  11   8  12   8  13   8  14   8  15   8  16   8
M  END
>  <minimizedAffinity>  (1) 
-2.99663806

>  <minimizedRMSD>  (1) 
0.471471995

$$$$
