
     RDKit          3D

 30 32  0  0  0  0  0  0  0  0999 V2000
   39.9440   22.5370   37.1750 C   0  0  0  0  0  0  0  0  0  0  0  0
   39.4340   23.3690   38.1810 C   0  0  0  0  0  0  0  0  0  0  0  0
   38.0690   23.6460   38.1990 C   0  0  0  0  0  0  0  0  0  0  0  0
   37.3200   23.0850   37.2310 N   0  0  0  0  0  0  0  0  0  0  0  0
   37.8430   22.2780   36.2640 C   0  0  0  0  0  0  0  0  0  0  0  0
   39.1760   22.0010   36.2370 N   0  0  0  0  0  0  0  0  0  0  0  0
   41.3920   22.2200   37.1230 C   0  0  0  0  0  0  0  0  0  0  0  0
   36.9440   21.7880   35.3500 O   0  0  0  0  0  0  0  0  0  0  0  0
   37.0530   21.8620   33.9760 C   0  0  0  0  0  0  0  0  0  0  0  0
   37.7920   22.9880   33.5990 C   0  0  0  0  0  0  0  0  0  0  0  0
   38.0350   23.2720   32.2620 C   0  0  0  0  0  0  0  0  0  0  0  0
   37.5240   22.4090   31.3080 C   0  0  0  0  0  0  0  0  0  0  0  0
   36.7990   21.3060   31.6630 C   0  0  0  0  0  0  0  0  0  0  0  0
   36.2440   20.3920   30.7670 C   0  0  0  0  0  0  0  0  0  0  0  0
   35.5120   19.3000   31.2230 C   0  0  0  0  0  0  0  0  0  0  0  0
   35.3040   19.0710   32.5690 C   0  0  0  0  0  0  0  0  0  0  0  0
   35.8550   19.9780   33.4590 C   0  0  0  0  0  0  0  0  0  0  0  0
   36.5710   21.0420   32.9800 C   0  0  0  0  0  0  0  0  0  0  0  0
   40.1010   23.7964   38.9442 H   0  0  0  0  0  0  0  0  0  0  0  0
   37.6235   24.2933   38.9687 H   0  0  0  0  0  0  0  0  0  0  0  0
   41.7855   22.1339   38.1466 H   0  0  0  0  0  0  0  0  0  0  0  0
   41.5401   21.2682   36.5919 H   0  0  0  0  0  0  0  0  0  0  0  0
   41.9243   23.0229   36.5919 H   0  0  0  0  0  0  0  0  0  0  0  0
   38.1874   23.6599   34.3750 H   0  0  0  0  0  0  0  0  0  0  0  0
   38.6173   24.1580   31.9690 H   0  0  0  0  0  0  0  0  0  0  0  0
   37.7050   22.6150   30.2427 H   0  0  0  0  0  0  0  0  0  0  0  0
   36.3869   20.5365   29.6859 H   0  0  0  0  0  0  0  0  0  0  0  0
   35.0866   18.5987   30.4901 H   0  0  0  0  0  0  0  0  0  0  0  0
   34.7247   18.2041   32.9197 H   0  0  0  0  0  0  0  0  0  0  0  0
   35.7184   19.8445   34.5423 H   0  0  0  0  0  0  0  0  0  0  0  0
  1  2  2  0
  2  3  1  0
  4  3  2  0
  5  4  1  0
  6  5  2  0
  6  1  1  0
  7  1  1  0
  8  5  1  0
  9  8  1  0
 10  9  2  0
 11 10  1  0
 12 13  1  0
 12 11  2  0
 13 18  2  0
 14 15  2  0
 14 13  1  0
 15 16  1  0
 16 17  2  0
 18 17  1  0
 18  9  1  0
  2 19  1  0
  3 20  1  0
  7 21  1  0
  7 22  1  0
  7 23  1  0
 10 24  1  0
 11 25  1  0
 12 26  1  0
 14 27  1  0
 15 28  1  0
 16 29  1  0
 17 30  1  0
M  ISO  8  19  14  20  14  21   8  22   8  23   8  24  14  25  14  26  14
M  ISO  4  27  14  28  14  29  14  30  14
M  END
>  <minimizedAffinity>  (1) 
-4.98728514

>  <minimizedRMSD>  (1) 
1.99814236

$$$$
