
     RDKit          3D

 27 28  0  0  0  0  0  0  0  0999 V2000
   39.8650   22.5310   37.2470 C   0  0  0  0  0  0  0  0  0  0  0  0
   39.1530   23.1910   38.2660 C   0  0  0  0  0  0  0  0  0  0  0  0
   37.9420   23.8020   37.9520 C   0  0  0  0  0  0  0  0  0  0  0  0
   37.5090   23.7310   36.6830 N   0  0  0  0  0  0  0  0  0  0  0  0
   38.2130   23.0890   35.7140 C   0  0  0  0  0  0  0  0  0  0  0  0
   39.3850   22.4910   35.9930 N   0  0  0  0  0  0  0  0  0  0  0  0
   41.1460   21.8730   37.5290 C   0  0  0  0  0  0  0  0  0  0  0  0
   37.6750   23.0770   34.4410 O   0  0  0  0  0  0  0  0  0  0  0  0
   37.0360   19.6030   32.2610 C   0  0  0  0  0  0  0  0  0  0  0  0
   36.0940   20.0770   33.1570 C   0  0  0  0  0  0  0  0  0  0  0  0
   36.3280   21.2490   33.8820 C   0  0  0  0  0  0  0  0  0  0  0  0
   37.5290   21.9290   33.6820 C   0  0  0  0  0  0  0  0  0  0  0  0
   38.4940   21.4900   32.7980 C   0  0  0  0  0  0  0  0  0  0  0  0
   38.2000   20.3250   32.1140 C   0  0  0  0  0  0  0  0  0  0  0  0
   36.6970   18.1400   31.3840 S   0  0  0  0  0  0  0  0  0  0  0  0
   35.5450   17.3660   31.9160 O   0  0  0  0  0  0  0  0  0  0  0  0
   36.4160   18.4270   29.9310 O   0  0  0  0  0  0  0  0  0  0  0  0
   39.5465   23.2235   39.2927 H   0  0  0  0  0  0  0  0  0  0  0  0
   37.3570   24.3276   38.7211 H   0  0  0  0  0  0  0  0  0  0  0  0
   41.2888   21.7997   38.6172 H   0  0  0  0  0  0  0  0  0  0  0  0
   41.1443   20.8641   37.0906 H   0  0  0  0  0  0  0  0  0  0  0  0
   41.9651   22.4620   37.0906 H   0  0  0  0  0  0  0  0  0  0  0  0
   35.1525   19.5265   33.3000 H   0  0  0  0  0  0  0  0  0  0  0  0
   35.5806   21.6269   34.5952 H   0  0  0  0  0  0  0  0  0  0  0  0
   39.4384   22.0334   32.6471 H   0  0  0  0  0  0  0  0  0  0  0  0
   38.9487   19.9478   31.4018 H   0  0  0  0  0  0  0  0  0  0  0  0
   37.8301   17.3848   31.5342 H   0  0  0  0  0  0  0  0  0  0  0  0
  1  7  1  0
  1  2  2  0
  3  2  1  0
  4  3  2  0
  5  6  2  0
  5  4  1  0
  6  1  1  0
  8  5  1  0
  9 10  2  0
 10 11  1  0
 12 11  2  0
 12  8  1  0
 13 12  1  0
 14  9  1  0
 14 13  2  0
 15 16  2  0
 15  9  1  0
 17 15  2  0
  2 18  1  0
  3 19  1  0
  7 20  1  0
  7 21  1  0
  7 22  1  0
 10 23  1  0
 11 24  1  0
 13 25  1  0
 14 26  1  0
 15 27  1  0
M  ISO  8  18  14  19  14  20   8  21   8  22   8  23  14  24  14  25  14
M  ISO  2  26  14  27  11
M  END
>  <minimizedAffinity>  (1) 
-4.18403196

>  <minimizedRMSD>  (1) 
2.05060554

$$$$
