
     RDKit          3D

 24 25  0  0  1  0  0  0  0  0999 V2000
   39.8370   22.8090   37.3860 C   0  0  0  0  0  0  0  0  0  0  0  0
   39.1060   23.1540   38.5330 C   0  0  0  0  0  0  0  0  0  0  0  0
   37.9690   23.9580   38.4060 C   0  0  0  0  0  0  0  0  0  0  0  0
   37.6350   24.3650   37.1650 N   0  0  0  0  0  0  0  0  0  0  0  0
   38.3560   24.0200   36.0680 C   0  0  0  0  0  0  0  0  0  0  0  0
   39.4630   23.2400   36.1660 N   0  0  0  0  0  0  0  0  0  0  0  0
   41.0440   21.9580   37.4910 C   0  0  0  0  0  0  0  0  0  0  0  0
   37.9110   24.5010   34.8430 O   0  0  0  0  0  0  0  0  0  0  0  0
   37.2930   26.4040   33.7370 N   0  0  0  0  0  0  0  0  0  0  0  0
   37.0180   27.5680   34.5220 C   0  0  0  0  0  0  0  0  0  0  0  0
   38.0280   27.6490   35.6350 C   0  0  0  0  0  0  0  0  0  0  0  0
   39.0050   26.5430   35.3870 C   0  0  0  0  0  0  0  0  0  0  0  0
   38.4200   25.7140   34.2690 C   0  0  1  0  0  0  0  0  0  0  0  0
   39.4244   22.7953   39.5229 H   0  0  0  0  0  0  0  0  0  0  0  0
   37.3713   24.2467   39.2832 H   0  0  0  0  0  0  0  0  0  0  0  0
   41.2828   21.7896   38.5515 H   0  0  0  0  0  0  0  0  0  0  0  0
   40.8554   20.9920   36.9998 H   0  0  0  0  0  0  0  0  0  0  0  0
   41.8905   22.4601   36.9998 H   0  0  0  0  0  0  0  0  0  0  0  0
   36.7556   26.1086   32.9095 H   0  0  0  0  0  0  0  0  0  0  0  0
   36.2034   28.2850   34.3420 H   0  0  0  0  0  0  0  0  0  0  0  0
   38.0446   28.3737   36.4623 H   0  0  0  0  0  0  0  0  0  0  0  0
   39.9803   26.9545   35.0877 H   0  0  0  0  0  0  0  0  0  0  0  0
   39.1694   25.9400   36.2922 H   0  0  0  0  0  0  0  0  0  0  0  0
   39.1819   25.5248   33.4984 H   0  0  0  0  0  0  0  0  0  0  0  0
  1  7  1  0
  1  2  2  0
  3  2  1  0
  4  3  2  0
  5  6  2  0
  5  4  1  0
  6  1  1  0
  8  5  1  0
  9 13  1  0
  9 10  1  0
 10 11  2  0
 12 11  1  0
 13  8  1  0
 13 12  1  0
  2 14  1  0
  3 15  1  0
  7 16  1  0
  7 17  1  0
  7 18  1  0
  9 19  1  0
 10 20  1  0
 11 21  1  0
 12 22  1  0
 12 23  1  0
 13 24  1  6
M  ISO  8  14  14  15  14  16   8  17   8  18   8  20  13  21  13  22  13
M  ISO  2  23  13  24  13
M  END
>  <minimizedAffinity>  (1) 
-4.36744642

>  <minimizedRMSD>  (1) 
3.7552309

$$$$
