
     RDKit          3D

 17 17  0  0  0  0  0  0  0  0999 V2000
   39.8280   22.9730   37.3160 C   0  0  0  0  0  0  0  0  0  0  0  0
   38.9190   23.1870   38.3660 C   0  0  0  0  0  0  0  0  0  0  0  0
   37.9580   24.1960   38.2360 C   0  0  0  0  0  0  0  0  0  0  0  0
   37.9590   24.9160   37.0940 N   0  0  0  0  0  0  0  0  0  0  0  0
   38.8520   24.6840   36.0990 C   0  0  0  0  0  0  0  0  0  0  0  0
   39.7800   23.7180   36.2130 N   0  0  0  0  0  0  0  0  0  0  0  0
   40.8540   21.9220   37.4140 C   0  0  0  0  0  0  0  0  0  0  0  0
   38.7550   25.4930   34.9690 O   0  0  0  0  0  0  0  0  0  0  0  0
   39.4110   26.7670   34.9920 C   0  0  0  0  0  0  0  0  0  0  0  0
   39.3160   27.3960   33.7640 F   0  0  0  0  0  0  0  0  0  0  0  0
   40.7710   26.5590   35.2410 F   0  0  0  0  0  0  0  0  0  0  0  0
   38.9500   27.5660   36.0110 F   0  0  0  0  0  0  0  0  0  0  0  0
   38.9621   22.5708   39.2762 H   0  0  0  0  0  0  0  0  0  0  0  0
   37.2286   24.3951   39.0350 H   0  0  0  0  0  0  0  0  0  0  0  0
   41.0613   21.7096   38.4732 H   0  0  0  0  0  0  0  0  0  0  0  0
   40.4910   21.0081   36.9210 H   0  0  0  0  0  0  0  0  0  0  0  0
   41.7764   22.2629   36.9210 H   0  0  0  0  0  0  0  0  0  0  0  0
  1  7  1  0
  1  2  2  0
  3  2  1  0
  4  3  2  0
  5  6  2  0
  5  4  1  0
  6  1  1  0
  8  9  1  0
  8  5  1  0
  9 11  1  0
  9 12  1  0
 10  9  1  0
  2 13  1  0
  3 14  1  0
  7 15  1  0
  7 16  1  0
  7 17  1  0
M  ISO  5  13  14  14  14  15   8  16   8  17   8
M  END
>  <minimizedAffinity>  (1) 
-4.16119862

>  <minimizedRMSD>  (1) 
3.30868864

$$$$
