
     RDKit          3D

 22 23  0  0  0  0  0  0  0  0999 V2000
   39.7560   22.7660   37.2720 C   0  0  0  0  0  0  0  0  0  0  0  0
   39.0210   23.2740   38.3530 C   0  0  0  0  0  0  0  0  0  0  0  0
   37.8890   24.0600   38.0750 C   0  0  0  0  0  0  0  0  0  0  0  0
   37.5760   24.2810   36.7710 N   0  0  0  0  0  0  0  0  0  0  0  0
   38.3200   23.7660   35.7610 C   0  0  0  0  0  0  0  0  0  0  0  0
   39.4050   23.0110   36.0060 N   0  0  0  0  0  0  0  0  0  0  0  0
   40.9410   21.9410   37.5500 C   0  0  0  0  0  0  0  0  0  0  0  0
   37.9210   24.0440   34.4600 O   0  0  0  0  0  0  0  0  0  0  0  0
   38.1770   25.2090   33.7910 C   0  0  0  0  0  0  0  0  0  0  0  0
   37.0990   25.7010   33.0500 C   0  0  0  0  0  0  0  0  0  0  0  0
   37.2070   26.8680   32.3220 C   0  0  0  0  0  0  0  0  0  0  0  0
   38.3760   27.5180   32.3430 N   0  0  0  0  0  0  0  0  0  0  0  0
   39.3890   27.0260   33.0580 C   0  0  0  0  0  0  0  0  0  0  0  0
   39.3360   25.9050   33.7790 N   0  0  0  0  0  0  0  0  0  0  0  0
   39.3219   23.0633   39.3898 H   0  0  0  0  0  0  0  0  0  0  0  0
   37.2770   24.4820   38.8858 H   0  0  0  0  0  0  0  0  0  0  0  0
   41.0756   21.8473   38.6377 H   0  0  0  0  0  0  0  0  0  0  0  0
   40.8038   20.9422   37.1101 H   0  0  0  0  0  0  0  0  0  0  0  0
   41.8301   22.4164   37.1101 H   0  0  0  0  0  0  0  0  0  0  0  0
   36.1480   25.1482   33.0471 H   0  0  0  0  0  0  0  0  0  0  0  0
   36.3561   27.2530   31.7409 H   0  0  0  0  0  0  0  0  0  0  0  0
   40.3363   27.5850   33.0526 H   0  0  0  0  0  0  0  0  0  0  0  0
  1  7  1  0
  1  2  2  0
  3  2  1  0
  4  3  2  0
  5  6  2  0
  5  4  1  0
  6  1  1  0
  8  5  1  0
  9  8  1  0
 10  9  2  0
 11 12  2  0
 11 10  1  0
 12 13  1  0
 13 14  2  0
 14  9  1  0
  2 15  1  0
  3 16  1  0
  7 17  1  0
  7 18  1  0
  7 19  1  0
 10 20  1  0
 11 21  1  0
 13 22  1  0
M  ISO  8  15  14  16  14  17   8  18   8  19   8  20  14  21  14  22  14
M  END
>  <minimizedAffinity>  (1) 
-3.98082948

>  <minimizedRMSD>  (1) 
3.9665432

$$$$
