
     RDKit          3D

 22 23  0  0  0  0  0  0  0  0999 V2000
   39.7890   22.8400   37.3650 C   0  0  0  0  0  0  0  0  0  0  0  0
   39.1080   23.2210   38.5290 C   0  0  0  0  0  0  0  0  0  0  0  0
   38.0140   24.1020   38.3900 C   0  0  0  0  0  0  0  0  0  0  0  0
   37.6830   24.5250   37.1590 N   0  0  0  0  0  0  0  0  0  0  0  0
   38.3820   24.1210   36.0530 C   0  0  0  0  0  0  0  0  0  0  0  0
   39.4380   23.2760   36.1590 N   0  0  0  0  0  0  0  0  0  0  0  0
   40.9340   21.9240   37.4820 C   0  0  0  0  0  0  0  0  0  0  0  0
   37.9720   24.6080   34.8260 O   0  0  0  0  0  0  0  0  0  0  0  0
   38.7480   25.4130   34.0160 C   0  0  0  0  0  0  0  0  0  0  0  0
   39.5130   26.3800   34.6500 C   0  0  0  0  0  0  0  0  0  0  0  0
   40.2810   27.1730   33.7980 C   0  0  0  0  0  0  0  0  0  0  0  0
   40.2460   26.9740   32.4660 N   0  0  0  0  0  0  0  0  0  0  0  0
   39.4700   26.0080   31.9260 C   0  0  0  0  0  0  0  0  0  0  0  0
   38.7070   25.2130   32.7060 N   0  0  0  0  0  0  0  0  0  0  0  0
   39.4153   22.8465   39.5166 H   0  0  0  0  0  0  0  0  0  0  0  0
   37.4450   24.4348   39.2706 H   0  0  0  0  0  0  0  0  0  0  0  0
   41.1550   21.7472   38.5450 H   0  0  0  0  0  0  0  0  0  0  0  0
   40.6906   20.9686   36.9943 H   0  0  0  0  0  0  0  0  0  0  0  0
   41.8127   22.3712   36.9943 H   0  0  0  0  0  0  0  0  0  0  0  0
   39.5140   26.5117   35.7421 H   0  0  0  0  0  0  0  0  0  0  0  0
   40.9191   27.9656   34.2159 H   0  0  0  0  0  0  0  0  0  0  0  0
   39.4600   25.8676   30.8350 H   0  0  0  0  0  0  0  0  0  0  0  0
  1  7  1  0
  1  2  2  0
  3  2  1  0
  4  3  2  0
  5  6  2  0
  5  4  1  0
  6  1  1  0
  8  5  1  0
  9 10  2  0
  9  8  1  0
 11 10  1  0
 12 11  2  0
 13 12  1  0
 13 14  2  0
 14  9  1  0
  2 15  1  0
  3 16  1  0
  7 17  1  0
  7 18  1  0
  7 19  1  0
 10 20  1  0
 11 21  1  0
 13 22  1  0
M  ISO  8  15  14  16  14  17   8  18   8  19   8  20  14  21  14  22  14
M  END
>  <minimizedAffinity>  (1) 
-3.94253206

>  <minimizedRMSD>  (1) 
3.98123622

$$$$
