
     RDKit          3D

 21 22  0  0  0  0  0  0  0  0999 V2000
   39.8190   22.8850   37.3880 C   0  0  0  0  0  0  0  0  0  0  0  0
   39.0400   23.1930   38.5130 C   0  0  0  0  0  0  0  0  0  0  0  0
   37.9960   24.1340   38.4020 C   0  0  0  0  0  0  0  0  0  0  0  0
   37.8090   24.6890   37.1930 N   0  0  0  0  0  0  0  0  0  0  0  0
   38.5850   24.3690   36.1160 C   0  0  0  0  0  0  0  0  0  0  0  0
   39.5830   23.4700   36.2180 N   0  0  0  0  0  0  0  0  0  0  0  0
   40.9080   21.9040   37.5030 C   0  0  0  0  0  0  0  0  0  0  0  0
   38.2900   25.0130   34.9230 O   0  0  0  0  0  0  0  0  0  0  0  0
   39.2740   25.6770   34.2040 C   0  0  0  0  0  0  0  0  0  0  0  0
   39.9280   26.7400   34.8350 C   0  0  0  0  0  0  0  0  0  0  0  0
   40.8410   27.2130   33.9070 C   0  0  0  0  0  0  0  0  0  0  0  0
   40.7380   26.4780   32.7950 N   0  0  0  0  0  0  0  0  0  0  0  0
   39.8030   25.5540   32.9560 N   0  0  0  0  0  0  0  0  0  0  0  0
   39.2425   22.7030   39.4768 H   0  0  0  0  0  0  0  0  0  0  0  0
   37.3655   24.4006   39.2631 H   0  0  0  0  0  0  0  0  0  0  0  0
   41.1193   21.7136   38.5656 H   0  0  0  0  0  0  0  0  0  0  0  0
   40.6086   20.9649   37.0147 H   0  0  0  0  0  0  0  0  0  0  0  0
   41.8109   22.2995   37.0147 H   0  0  0  0  0  0  0  0  0  0  0  0
   39.7542   27.1199   35.8526 H   0  0  0  0  0  0  0  0  0  0  0  0
   41.5348   28.0529   34.0594 H   0  0  0  0  0  0  0  0  0  0  0  0
   41.3005   26.6103   31.9424 H   0  0  0  0  0  0  0  0  0  0  0  0
  1  7  1  0
  1  2  2  0
  3  2  1  0
  4  3  2  0
  5  6  2  0
  5  4  1  0
  6  1  1  0
  8  5  1  0
  9 10  1  0
  9  8  1  0
 11 10  2  0
 12 13  1  0
 12 11  1  0
 13  9  2  0
  2 14  1  0
  3 15  1  0
  7 16  1  0
  7 17  1  0
  7 18  1  0
 10 19  1  0
 11 20  1  0
 12 21  1  0
M  ISO  8  14  14  15  14  16   8  17   8  18   8  19  14  20  14  21   9
M  END
>  <minimizedAffinity>  (1) 
-3.85021925

>  <minimizedRMSD>  (1) 
3.89901161

$$$$
