
     RDKit          3D

 21 22  0  0  0  0  0  0  0  0999 V2000
   39.8040   22.8820   37.3920 C   0  0  0  0  0  0  0  0  0  0  0  0
   39.0280   23.2260   38.5250 C   0  0  0  0  0  0  0  0  0  0  0  0
   38.0000   24.1570   38.3590 C   0  0  0  0  0  0  0  0  0  0  0  0
   37.7990   24.6830   37.1190 N   0  0  0  0  0  0  0  0  0  0  0  0
   38.5650   24.3240   36.0700 C   0  0  0  0  0  0  0  0  0  0  0  0
   39.5620   23.4320   36.1900 N   0  0  0  0  0  0  0  0  0  0  0  0
   40.9000   21.9080   37.5050 C   0  0  0  0  0  0  0  0  0  0  0  0
   38.2580   24.9310   34.8650 O   0  0  0  0  0  0  0  0  0  0  0  0
   39.1100   25.7350   34.1730 C   0  0  0  0  0  0  0  0  0  0  0  0
   40.0860   26.5940   34.6130 C   0  0  0  0  0  0  0  0  0  0  0  0
   40.7830   27.2720   33.6750 C   0  0  0  0  0  0  0  0  0  0  0  0
   40.4910   27.0800   32.3080 C   0  0  0  0  0  0  0  0  0  0  0  0
   39.0840   25.8080   32.3370 S   0  0  0  0  0  0  0  0  0  0  0  0
   39.2287   22.7734   39.5073 H   0  0  0  0  0  0  0  0  0  0  0  0
   37.3688   24.4577   39.2083 H   0  0  0  0  0  0  0  0  0  0  0  0
   41.1137   21.7181   38.5672 H   0  0  0  0  0  0  0  0  0  0  0  0
   40.6064   20.9673   37.0162 H   0  0  0  0  0  0  0  0  0  0  0  0
   41.7997   22.3100   37.0162 H   0  0  0  0  0  0  0  0  0  0  0  0
   40.2923   26.7250   35.6855 H   0  0  0  0  0  0  0  0  0  0  0  0
   41.5762   27.9720   33.9763 H   0  0  0  0  0  0  0  0  0  0  0  0
   40.9650   27.5537   31.4357 H   0  0  0  0  0  0  0  0  0  0  0  0
  1  7  1  0
  1  2  2  0
  3  2  1  0
  4  3  2  0
  5  6  2  0
  5  4  1  0
  6  1  1  0
  8  5  1  0
  9 10  2  0
  9  8  1  0
 11 10  1  0
 12 13  1  0
 12 11  2  0
 13  9  1  0
  2 14  1  0
  3 15  1  0
  7 16  1  0
  7 17  1  0
  7 18  1  0
 10 19  1  0
 11 20  1  0
 12 21  1  0
M  ISO  8  14  14  15  14  16   8  17   8  18   8  19  14  20  14  21  14
M  END
>  <minimizedAffinity>  (1) 
-3.96814871

>  <minimizedRMSD>  (1) 
4.08536005

$$$$
