
     RDKit          3D

 17 17  0  0  0  0  0  0  0  0999 V2000
   39.8760   22.6210   37.2090 C   0  0  0  0  0  0  0  0  0  0  0  0
   39.2090   23.2750   38.2520 C   0  0  0  0  0  0  0  0  0  0  0  0
   37.8120   23.4290   38.1770 C   0  0  0  0  0  0  0  0  0  0  0  0
   37.1880   22.9310   37.0890 N   0  0  0  0  0  0  0  0  0  0  0  0
   37.8720   22.3030   36.0980 C   0  0  0  0  0  0  0  0  0  0  0  0
   39.2130   22.1390   36.1410 N   0  0  0  0  0  0  0  0  0  0  0  0
   41.3410   22.4380   37.2480 C   0  0  0  0  0  0  0  0  0  0  0  0
   37.1300   21.8290   35.0260 O   0  0  0  0  0  0  0  0  0  0  0  0
   36.0740   20.9690   35.3010 C   0  0  0  0  0  0  0  0  0  0  0  0
   35.4100   20.3870   34.3930 O   0  0  0  0  0  0  0  0  0  0  0  0
   35.5870   20.6150   36.5740 O   0  0  0  0  0  0  0  0  0  0  0  0
   39.7681   23.6624   39.1165 H   0  0  0  0  0  0  0  0  0  0  0  0
   37.2500   23.9361   38.9751 H   0  0  0  0  0  0  0  0  0  0  0  0
   41.6775   22.3960   38.2944 H   0  0  0  0  0  0  0  0  0  0  0  0
   41.6070   21.4997   36.7393 H   0  0  0  0  0  0  0  0  0  0  0  0
   41.8296   23.2821   36.7393 H   0  0  0  0  0  0  0  0  0  0  0  0
   34.8241   19.9894   36.6557 H   0  0  0  0  0  0  0  0  0  0  0  0
  1  7  1  0
  1  2  2  0
  3  2  1  0
  4  3  2  0
  5  6  2  0
  5  4  1  0
  6  1  1  0
  8  9  1  0
  8  5  1  0
  9 11  1  0
 10  9  2  0
  2 12  1  0
  3 13  1  0
  7 14  1  0
  7 15  1  0
  7 16  1  0
 11 17  1  0
M  ISO  6  12  14  13  14  14   8  15   8  16   8  17   3
M  END
>  <minimizedAffinity>  (1) 
-3.93840766

>  <minimizedRMSD>  (1) 
0.71445477

$$$$
