
     RDKit          3D

 54 57  0  0  1  0  0  0  0  0999 V2000
   36.7760   25.2840   31.8940 C   0  0  0  0  0  0  0  0  0  0  0  0
   37.4320   25.1850   33.1210 C   0  0  0  0  0  0  0  0  0  0  0  0
   37.4880   26.2300   33.9690 C   0  0  0  0  0  0  0  0  0  0  0  0
   36.8880   27.4060   33.6010 N   0  0  0  0  0  0  0  0  0  0  0  0
   36.2540   27.5000   32.4090 C   0  0  0  0  0  0  0  0  0  0  0  0
   36.1990   26.4820   31.5880 N   0  0  0  0  0  0  0  0  0  0  0  0
   38.1750   25.9890   35.2570 C   0  0  0  0  0  0  0  0  0  0  0  0
   38.0990   24.5640   35.6150 C   0  0  0  0  0  0  0  0  0  0  0  0
   39.2940   24.1040   36.2800 N   0  0  0  0  0  0  0  0  0  0  0  0
   40.1010   23.2860   35.3420 C   0  0  0  0  0  0  0  0  0  0  0  0
   41.1110   22.6560   36.2650 C   0  0  0  0  0  0  0  0  0  0  0  0
   40.4380   22.6290   37.6380 C   0  0  0  0  0  0  0  0  0  0  0  0
   39.0250   23.1120   37.2670 C   0  0  1  0  0  0  0  0  0  0  0  0
   38.4290   23.6540   38.5190 C   0  0  0  0  0  0  0  0  0  0  0  0
   39.2550   23.7440   39.5830 F   0  0  0  0  0  0  0  0  0  0  0  0
   37.2830   22.9330   38.7930 F   0  0  0  0  0  0  0  0  0  0  0  0
   38.0170   24.9800   38.2770 F   0  0  0  0  0  0  0  0  0  0  0  0
   35.6410   28.8040   32.0400 C   0  0  2  0  0  0  0  0  0  0  0  0
   36.4430   29.4070   30.8470 C   0  0  0  0  0  0  0  0  0  0  0  0
   35.7080   29.8170   33.1190 C   0  0  0  0  0  0  0  0  0  0  0  0
   34.4100   29.9380   33.8630 C   0  0  0  0  0  0  0  0  0  0  0  0
   33.1340   29.4440   33.6690 C   0  0  0  0  0  0  0  0  0  0  0  0
   32.3370   29.8800   34.6690 N   0  0  0  0  0  0  0  0  0  0  0  0
   33.0990   30.6460   35.4990 C   0  0  0  0  0  0  0  0  0  0  0  0
   32.7180   31.3040   36.6500 C   0  0  0  0  0  0  0  0  0  0  0  0
   33.6150   32.0650   37.4090 C   0  0  0  0  0  0  0  0  0  0  0  0
   34.9090   32.1000   36.9040 C   0  0  0  0  0  0  0  0  0  0  0  0
   35.3170   31.4430   35.7410 C   0  0  0  0  0  0  0  0  0  0  0  0
   34.3920   30.7080   35.0350 C   0  0  0  0  0  0  0  0  0  0  0  0
   36.7259   24.4310   31.2013 H   0  0  0  0  0  0  0  0  0  0  0  0
   37.9125   24.2360   33.4013 H   0  0  0  0  0  0  0  0  0  0  0  0
   39.2305   26.2851   35.1667 H   0  0  0  0  0  0  0  0  0  0  0  0
   37.6840   26.5828   36.0421 H   0  0  0  0  0  0  0  0  0  0  0  0
   37.2401   24.4126   36.2854 H   0  0  0  0  0  0  0  0  0  0  0  0
   37.9876   23.9878   34.6846 H   0  0  0  0  0  0  0  0  0  0  0  0
   40.5903   23.9142   34.5831 H   0  0  0  0  0  0  0  0  0  0  0  0
   39.5100   22.5574   34.7676 H   0  0  0  0  0  0  0  0  0  0  0  0
   41.3523   21.6352   35.9336 H   0  0  0  0  0  0  0  0  0  0  0  0
   42.0576   23.2161   36.2822 H   0  0  0  0  0  0  0  0  0  0  0  0
   40.4219   21.6144   38.0625 H   0  0  0  0  0  0  0  0  0  0  0  0
   40.9416   23.2327   38.4074 H   0  0  0  0  0  0  0  0  0  0  0  0
   38.3177   22.3651   36.8773 H   0  0  0  0  0  0  0  0  0  0  0  0
   34.5859   28.5935   31.8108 H   0  0  0  0  0  0  0  0  0  0  0  0
   37.2660   30.0258   31.2339 H   0  0  0  0  0  0  0  0  0  0  0  0
   36.8542   28.5925   30.2326 H   0  0  0  0  0  0  0  0  0  0  0  0
   35.7747   30.0282   30.2326 H   0  0  0  0  0  0  0  0  0  0  0  0
   36.4975   29.5277   33.8283 H   0  0  0  0  0  0  0  0  0  0  0  0
   35.9242   30.7909   32.6556 H   0  0  0  0  0  0  0  0  0  0  0  0
   32.8183   28.7999   32.8351 H   0  0  0  0  0  0  0  0  0  0  0  0
   31.3349   29.6712   34.7832 H   0  0  0  0  0  0  0  0  0  0  0  0
   31.6724   31.2281   36.9832 H   0  0  0  0  0  0  0  0  0  0  0  0
   33.3200   32.5915   38.3287 H   0  0  0  0  0  0  0  0  0  0  0  0
   35.6609   32.6830   37.4560 H   0  0  0  0  0  0  0  0  0  0  0  0
   36.3590   31.5118   35.3954 H   0  0  0  0  0  0  0  0  0  0  0  0
  1  2  2  0
  2  3  1  0
  3  7  1  0
  4  3  2  0
  5  4  1  0
  6  1  1  0
  6  5  2  0
  7  8  1  0
  8  9  1  0
  9 13  1  0
 10 11  1  0
 10  9  1  0
 11 12  1  0
 13 12  1  0
 13 14  1  0
 14 16  1  0
 14 15  1  0
 17 14  1  0
 18  5  1  0
 18 20  1  0
 19 18  1  0
 20 21  1  0
 21 29  1  0
 22 21  2  0
 22 23  1  0
 23 24  1  0
 24 25  2  0
 25 26  1  0
 27 26  2  0
 28 27  1  0
 29 24  1  0
 29 28  2  0
  1 30  1  0
  2 31  1  0
  7 32  1  0
  7 33  1  0
  8 34  1  0
  8 35  1  0
 10 36  1  0
 10 37  1  0
 11 38  1  0
 11 39  1  0
 12 40  1  0
 12 41  1  0
 13 42  1  6
 18 43  1  6
 19 44  1  0
 19 45  1  0
 19 46  1  0
 20 47  1  0
 20 48  1  0
 22 49  1  0
 23 50  1  0
 25 51  1  0
 26 52  1  0
 27 53  1  0
 28 54  1  0
M  ISO  8  30  14  31  14  32   8  33   8  34   8  35   8  36  13  37  13
M  ISO  8  38  13  39  13  40  13  41  13  42  13  43   8  44   8  45   8
M  ISO  8  46   8  47   8  48   8  49  14  50   9  51  14  52  14  53  14
M  ISO  1  54  14
M  END
>  <minimizedAffinity>  (1) 
-6.99556065

>  <minimizedRMSD>  (1) 
1.7167002

$$$$
