
     RDKit          3D

 21 22  0  0  0  0  0  0  0  0999 V2000
   38.5090   23.7070   37.8280 C   0  0  0  0  0  0  0  0  0  0  0  0
   37.9480   23.5430   36.5520 C   0  0  0  0  0  0  0  0  0  0  0  0
   38.5780   22.6950   35.6470 C   0  0  0  0  0  0  0  0  0  0  0  0
   39.7150   22.0690   36.0580 N   0  0  0  0  0  0  0  0  0  0  0  0
   40.2280   22.2500   37.2970 C   0  0  0  0  0  0  0  0  0  0  0  0
   39.6220   23.0700   38.1770 N   0  0  0  0  0  0  0  0  0  0  0  0
   37.8630   24.5970   38.8050 C   0  0  0  0  0  0  0  0  0  0  0  0
   41.3930   21.5630   37.6160 O   0  0  0  0  0  0  0  0  0  0  0  0
   42.1160   20.9610   36.5620 C   0  0  0  0  0  0  0  0  0  0  0  0
   43.5490   21.1560   36.3470 C   0  0  0  0  0  0  0  0  0  0  0  0
   43.1330   19.9040   37.0440 C   0  0  0  0  0  0  0  0  0  0  0  0
   37.0268   24.0754   36.2726 H   0  0  0  0  0  0  0  0  0  0  0  0
   38.1726   22.5361   34.6368 H   0  0  0  0  0  0  0  0  0  0  0  0
   38.1066   24.2614   39.8238 H   0  0  0  0  0  0  0  0  0  0  0  0
   38.2265   25.6251   38.6609 H   0  0  0  0  0  0  0  0  0  0  0  0
   36.7728   24.5700   38.6609 H   0  0  0  0  0  0  0  0  0  0  0  0
   41.2638   21.0556   35.8730 H   0  0  0  0  0  0  0  0  0  0  0  0
   43.9563   21.0980   35.3268 H   0  0  0  0  0  0  0  0  0  0  0  0
   44.2510   21.9659   36.5945 H   0  0  0  0  0  0  0  0  0  0  0  0
   43.3322   19.7721   38.1177 H   0  0  0  0  0  0  0  0  0  0  0  0
   43.2858   18.8252   36.8927 H   0  0  0  0  0  0  0  0  0  0  0  0
  1  6  2  0
  1  7  1  0
  2  1  1  0
  3  4  1  0
  3  2  2  0
  4  5  2  0
  5  8  1  0
  5  6  1  0
  9 11  1  0
  9  8  1  0
 10  9  1  0
 10 11  1  0
  2 12  1  0
  3 13  1  0
  7 14  1  0
  7 15  1  0
  7 16  1  0
  9 17  1  0
 10 18  1  0
 10 19  1  0
 11 20  1  0
 11 21  1  0
M  ISO  8  12  14  13  14  14   8  15   8  16   8  17  13  18  13  19  13
M  ISO  2  20  13  21  13
M  END
>  <minimizedAffinity>  (1) 
-3.38624167

>  <minimizedRMSD>  (1) 
4.99854565

$$$$
