
     RDKit          3D

 24 25  0  0  0  0  0  0  0  0999 V2000
   39.7680   22.9040   37.2310 C   0  0  0  0  0  0  0  0  0  0  0  0
   38.9520   23.1840   38.3470 C   0  0  0  0  0  0  0  0  0  0  0  0
   37.7790   23.9300   38.1270 C   0  0  0  0  0  0  0  0  0  0  0  0
   37.5020   24.3290   36.8770 N   0  0  0  0  0  0  0  0  0  0  0  0
   38.3200   24.0350   35.8230 C   0  0  0  0  0  0  0  0  0  0  0  0
   39.4620   23.3160   36.0120 N   0  0  0  0  0  0  0  0  0  0  0  0
   40.9860   22.1280   37.4600 C   0  0  0  0  0  0  0  0  0  0  0  0
   37.9710   24.4800   34.5600 O   0  0  0  0  0  0  0  0  0  0  0  0
   37.5290   25.7390   34.2650 C   0  0  0  0  0  0  0  0  0  0  0  0
   37.5650   26.7830   35.2070 C   0  0  0  0  0  0  0  0  0  0  0  0
   37.0700   27.8740   34.6230 N   0  0  0  0  0  0  0  0  0  0  0  0
   36.7100   27.6110   33.3540 C   0  0  0  0  0  0  0  0  0  0  0  0
   37.0010   26.3180   33.1760 N   0  0  0  0  0  0  0  0  0  0  0  0
   36.7880   25.5520   31.9380 C   0  0  0  0  0  0  0  0  0  0  0  0
   35.9440   24.4980   32.1710 F   0  0  0  0  0  0  0  0  0  0  0  0
   36.3020   26.3750   30.9360 F   0  0  0  0  0  0  0  0  0  0  0  0
   37.9900   25.0370   31.4660 F   0  0  0  0  0  0  0  0  0  0  0  0
   39.2228   22.8319   39.3533 H   0  0  0  0  0  0  0  0  0  0  0  0
   37.1057   24.1797   38.9602 H   0  0  0  0  0  0  0  0  0  0  0  0
   41.1544   22.0207   38.5417 H   0  0  0  0  0  0  0  0  0  0  0  0
   40.8773   21.1323   37.0053 H   0  0  0  0  0  0  0  0  0  0  0  0
   41.8425   22.6473   37.0053 H   0  0  0  0  0  0  0  0  0  0  0  0
   37.9353   26.7118   36.2403 H   0  0  0  0  0  0  0  0  0  0  0  0
   36.2723   28.3068   32.6231 H   0  0  0  0  0  0  0  0  0  0  0  0
  1  7  1  0
  1  2  2  0
  3  2  1  0
  4  3  2  0
  5  6  2  0
  5  4  1  0
  6  1  1  0
  8  5  1  0
  9  8  1  0
  9 10  2  0
 11 10  1  0
 12 11  2  0
 13 12  1  0
 13  9  1  0
 14 15  1  0
 14 13  1  0
 16 14  1  0
 17 14  1  0
  2 18  1  0
  3 19  1  0
  7 20  1  0
  7 21  1  0
  7 22  1  0
 10 23  1  0
 12 24  1  0
M  ISO  7  18  14  19  14  20   8  21   8  22   8  23  14  24  14
M  END
>  <minimizedAffinity>  (1) 
-4.57510567

>  <minimizedRMSD>  (1) 
1.80131412

$$$$
