
     RDKit          3D

 36 38  0  0  0  0  0  0  0  0999 V2000
   38.8840   25.2920   33.6190 C   0  0  0  0  0  0  0  0  0  0  0  0
   40.2650   25.3410   33.3940 C   0  0  0  0  0  0  0  0  0  0  0  0
   40.5190   26.4510   32.7080 N   0  0  0  0  0  0  0  0  0  0  0  0
   39.3820   27.1260   32.4750 C   0  0  0  0  0  0  0  0  0  0  0  0
   38.3880   26.4070   33.0370 N   0  0  0  0  0  0  0  0  0  0  0  0
   36.3330   27.3370   30.3100 N   0  0  0  0  0  0  0  0  0  0  0  0
   36.5890   25.9930   30.7470 C   0  0  0  0  0  0  0  0  0  0  0  0
   36.1440   25.8370   32.1640 C   0  0  0  0  0  0  0  0  0  0  0  0
   36.9840   26.7400   33.0430 C   0  0  0  0  0  0  0  0  0  0  0  0
   36.6870   28.1450   32.6090 C   0  0  0  0  0  0  0  0  0  0  0  0
   35.9220   28.2480   31.3180 C   0  0  0  0  0  0  0  0  0  0  0  0
   38.2890   24.2600   34.3080 O   0  0  0  0  0  0  0  0  0  0  0  0
   39.7910   22.8000   37.2300 C   0  0  0  0  0  0  0  0  0  0  0  0
   38.9880   23.2970   38.2520 C   0  0  0  0  0  0  0  0  0  0  0  0
   37.9250   24.1420   37.8880 C   0  0  0  0  0  0  0  0  0  0  0  0
   37.7390   24.4250   36.5920 N   0  0  0  0  0  0  0  0  0  0  0  0
   38.5510   23.9170   35.6160 C   0  0  0  0  0  0  0  0  0  0  0  0
   39.5690   23.1070   35.9650 N   0  0  0  0  0  0  0  0  0  0  0  0
   40.9120   21.9140   37.5600 C   0  0  0  0  0  0  0  0  0  0  0  0
   41.0047   24.5969   33.7245 H   0  0  0  0  0  0  0  0  0  0  0  0
   39.2807   28.0777   31.9328 H   0  0  0  0  0  0  0  0  0  0  0  0
   37.1988   27.7022   29.8883 H   0  0  0  0  0  0  0  0  0  0  0  0
   36.0354   25.2883   30.1091 H   0  0  0  0  0  0  0  0  0  0  0  0
   37.6665   25.7833   30.6758 H   0  0  0  0  0  0  0  0  0  0  0  0
   35.0841   26.1181   32.2515 H   0  0  0  0  0  0  0  0  0  0  0  0
   36.2654   24.7904   32.4802 H   0  0  0  0  0  0  0  0  0  0  0  0
   36.7170   26.6073   34.1018 H   0  0  0  0  0  0  0  0  0  0  0  0
   36.0959   28.6314   33.3989 H   0  0  0  0  0  0  0  0  0  0  0  0
   37.6581   28.6327   32.4382 H   0  0  0  0  0  0  0  0  0  0  0  0
   36.0448   29.2690   30.9276 H   0  0  0  0  0  0  0  0  0  0  0  0
   34.8775   27.9978   31.5553 H   0  0  0  0  0  0  0  0  0  0  0  0
   39.1777   23.0387   39.3043 H   0  0  0  0  0  0  0  0  0  0  0  0
   37.2576   24.5634   38.6542 H   0  0  0  0  0  0  0  0  0  0  0  0
   41.0092   21.8372   38.6530 H   0  0  0  0  0  0  0  0  0  0  0  0
   40.7269   20.9155   37.1373 H   0  0  0  0  0  0  0  0  0  0  0  0
   41.8408   22.3247   37.1373 H   0  0  0  0  0  0  0  0  0  0  0  0
  1 12  1  0
  2  1  2  0
  3  2  1  0
  4  3  2  0
  4  5  1  0
  5  9  1  0
  5  1  1  0
  6  7  1  0
  6 11  1  0
  7  8  1  0
  8  9  1  0
 10  9  1  0
 11 10  1  0
 12 17  1  0
 13 19  1  0
 13 14  2  0
 15 14  1  0
 16 15  2  0
 17 18  2  0
 17 16  1  0
 18 13  1  0
  2 20  1  0
  4 21  1  0
  6 22  1  0
  7 23  1  0
  7 24  1  0
  8 25  1  0
  8 26  1  0
  9 27  1  0
 10 28  1  0
 10 29  1  0
 11 30  1  0
 11 31  1  0
 14 32  1  0
 15 33  1  0
 19 34  1  0
 19 35  1  0
 19 36  1  0
M  ISO  8  20  14  21  14  22   5  23  13  24  13  25  13  26  13  27  13
M  ISO  8  28  13  29  13  30  13  31  13  32  14  33  14  34   8  35   8
M  ISO  1  36   8
M  END
>  <minimizedAffinity>  (1) 
-4.72313499

>  <minimizedRMSD>  (1) 
1.58003628

$$$$
