
     RDKit          3D

 34 36  0  0  0  0  0  0  0  0999 V2000
   38.1470   24.2340   34.4050 O   0  0  0  0  0  0  0  0  0  0  0  0
   39.7800   22.7880   37.2620 C   0  0  0  0  0  0  0  0  0  0  0  0
   38.9830   23.2800   38.3100 C   0  0  0  0  0  0  0  0  0  0  0  0
   37.9050   24.0980   38.0030 C   0  0  0  0  0  0  0  0  0  0  0  0
   37.6800   24.3760   36.7100 N   0  0  0  0  0  0  0  0  0  0  0  0
   38.4590   23.8920   35.7100 C   0  0  0  0  0  0  0  0  0  0  0  0
   39.5200   23.0890   35.9930 N   0  0  0  0  0  0  0  0  0  0  0  0
   40.9280   21.9190   37.5640 C   0  0  0  0  0  0  0  0  0  0  0  0
   38.7320   25.2670   33.6970 C   0  0  0  0  0  0  0  0  0  0  0  0
   40.0550   25.2660   33.2750 C   0  0  0  0  0  0  0  0  0  0  0  0
   40.2680   26.4040   32.6330 N   0  0  0  0  0  0  0  0  0  0  0  0
   39.1530   27.1530   32.6110 C   0  0  0  0  0  0  0  0  0  0  0  0
   38.2330   26.4400   33.2640 N   0  0  0  0  0  0  0  0  0  0  0  0
   36.8760   26.8730   33.4780 C   0  0  0  0  0  0  0  0  0  0  0  0
   36.3240   27.5100   32.2330 C   0  0  0  0  0  0  0  0  0  0  0  0
   36.2660   28.9840   32.5680 C   0  0  0  0  0  0  0  0  0  0  0  0
   35.7940   28.9360   34.0140 C   0  0  0  0  0  0  0  0  0  0  0  0
   36.7430   27.8890   34.5860 C   0  0  0  0  0  0  0  0  0  0  0  0
   39.2098   23.0212   39.3548 H   0  0  0  0  0  0  0  0  0  0  0  0
   37.2568   24.5048   38.7932 H   0  0  0  0  0  0  0  0  0  0  0  0
   41.0444   21.8309   38.6543 H   0  0  0  0  0  0  0  0  0  0  0  0
   40.7569   20.9220   37.1318 H   0  0  0  0  0  0  0  0  0  0  0  0
   41.8411   22.3543   37.1318 H   0  0  0  0  0  0  0  0  0  0  0  0
   40.7911   24.4662   33.4433 H   0  0  0  0  0  0  0  0  0  0  0  0
   39.0253   28.1444   32.1518 H   0  0  0  0  0  0  0  0  0  0  0  0
   36.3207   25.9647   33.7546 H   0  0  0  0  0  0  0  0  0  0  0  0
   35.3201   27.1209   32.0073 H   0  0  0  0  0  0  0  0  0  0  0  0
   36.9383   27.3026   31.3444 H   0  0  0  0  0  0  0  0  0  0  0  0
   37.2554   29.4569   32.4817 H   0  0  0  0  0  0  0  0  0  0  0  0
   35.6218   29.5752   31.9006 H   0  0  0  0  0  0  0  0  0  0  0  0
   35.9156   29.9089   34.5126 H   0  0  0  0  0  0  0  0  0  0  0  0
   34.7265   28.7015   34.1385 H   0  0  0  0  0  0  0  0  0  0  0  0
   36.3181   27.4284   35.4900 H   0  0  0  0  0  0  0  0  0  0  0  0
   37.7110   28.3150   34.8883 H   0  0  0  0  0  0  0  0  0  0  0  0
  1  6  1  0
  2  8  1  0
  2  3  2  0
  4  3  1  0
  5  4  2  0
  6  7  2  0
  6  5  1  0
  7  2  1  0
  9  1  1  0
 10  9  2  0
 11 10  1  0
 12 11  2  0
 12 13  1  0
 13 14  1  0
 13  9  1  0
 14 18  1  0
 15 16  1  0
 15 14  1  0
 16 17  1  0
 17 18  1  0
  3 19  1  0
  4 20  1  0
  8 21  1  0
  8 22  1  0
  8 23  1  0
 10 24  1  0
 12 25  1  0
 14 26  1  0
 15 27  1  0
 15 28  1  0
 16 29  1  0
 16 30  1  0
 17 31  1  0
 17 32  1  0
 18 33  1  0
 18 34  1  0
M  ISO  8  19  14  20  14  21   8  22   8  23   8  24  14  25  14  26  13
M  ISO  8  27  13  28  13  29  13  30  13  31  13  32  13  33  13  34  13
M  END
>  <minimizedAffinity>  (1) 
-4.7717061

>  <minimizedRMSD>  (1) 
1.4378047

$$$$
