
     RDKit          3D

 27 28  0  0  0  0  0  0  0  0999 V2000
   39.8960   22.9370   37.2590 C   0  0  0  0  0  0  0  0  0  0  0  0
   38.9230   23.2260   38.2090 C   0  0  0  0  0  0  0  0  0  0  0  0
   37.9750   24.2050   37.9400 C   0  0  0  0  0  0  0  0  0  0  0  0
   38.0570   24.8360   36.7430 N   0  0  0  0  0  0  0  0  0  0  0  0
   39.0160   24.5390   35.8290 C   0  0  0  0  0  0  0  0  0  0  0  0
   39.9240   23.5850   36.1100 N   0  0  0  0  0  0  0  0  0  0  0  0
   40.8870   21.9070   37.5460 C   0  0  0  0  0  0  0  0  0  0  0  0
   39.0100   25.2440   34.6340 O   0  0  0  0  0  0  0  0  0  0  0  0
   38.0650   25.1190   33.6480 C   0  0  0  0  0  0  0  0  0  0  0  0
   37.6820   23.8900   33.1100 C   0  0  0  0  0  0  0  0  0  0  0  0
   36.7480   24.1040   32.1760 N   0  0  0  0  0  0  0  0  0  0  0  0
   36.5110   25.4310   32.0870 C   0  0  0  0  0  0  0  0  0  0  0  0
   37.3200   26.0120   32.9860 N   0  0  0  0  0  0  0  0  0  0  0  0
   37.4420   27.4460   33.2790 C   0  0  0  0  0  0  0  0  0  0  0  0
   36.6760   27.7940   34.5480 C   0  0  0  0  0  0  0  0  0  0  0  0
   38.9040   22.6838   39.1659 H   0  0  0  0  0  0  0  0  0  0  0  0
   37.1902   24.4578   38.6681 H   0  0  0  0  0  0  0  0  0  0  0  0
   40.9947   21.7951   38.6350 H   0  0  0  0  0  0  0  0  0  0  0  0
   40.5598   20.9517   37.1098 H   0  0  0  0  0  0  0  0  0  0  0  0
   41.8542   22.1971   37.1098 H   0  0  0  0  0  0  0  0  0  0  0  0
   38.0814   22.9083   33.4046 H   0  0  0  0  0  0  0  0  0  0  0  0
   35.7997   25.9329   31.4145 H   0  0  0  0  0  0  0  0  0  0  0  0
   38.5037   27.6993   33.4152 H   0  0  0  0  0  0  0  0  0  0  0  0
   37.0221   28.0194   32.4394 H   0  0  0  0  0  0  0  0  0  0  0  0
   37.2785   27.5203   35.4267 H   0  0  0  0  0  0  0  0  0  0  0  0
   36.4695   28.8743   34.5671 H   0  0  0  0  0  0  0  0  0  0  0  0
   35.7266   27.2389   34.5671 H   0  0  0  0  0  0  0  0  0  0  0  0
  1  7  1  0
  1  2  2  0
  3  2  1  0
  4  3  2  0
  5  6  2  0
  5  4  1  0
  6  1  1  0
  8  5  1  0
  9  8  1  0
 10  9  2  0
 11 10  1  0
 12 11  2  0
 12 13  1  0
 13 14  1  0
 13  9  1  0
 14 15  1  0
  2 16  1  0
  3 17  1  0
  7 18  1  0
  7 19  1  0
  7 20  1  0
 10 21  1  0
 12 22  1  0
 14 23  1  0
 14 24  1  0
 15 25  1  0
 15 26  1  0
 15 27  1  0
M  ISO  8  16  14  17  14  18   8  19   8  20   8  21  14  22  14  23   8
M  ISO  4  24   8  25   8  26   8  27   8
M  END
>  <minimizedAffinity>  (1) 
-4.19592237

>  <minimizedRMSD>  (1) 
1.88078582

$$$$
