
     RDKit          3D

 24 25  0  0  0  0  0  0  0  0999 V2000
   39.7220   22.7960   37.2790 C   0  0  0  0  0  0  0  0  0  0  0  0
   38.9860   23.2740   38.3670 C   0  0  0  0  0  0  0  0  0  0  0  0
   37.8710   24.0840   38.1150 C   0  0  0  0  0  0  0  0  0  0  0  0
   37.5730   24.3540   36.8300 N   0  0  0  0  0  0  0  0  0  0  0  0
   38.3050   23.8760   35.8020 C   0  0  0  0  0  0  0  0  0  0  0  0
   39.3930   23.0880   36.0250 N   0  0  0  0  0  0  0  0  0  0  0  0
   40.8920   21.9480   37.5510 C   0  0  0  0  0  0  0  0  0  0  0  0
   37.9300   24.2020   34.5030 O   0  0  0  0  0  0  0  0  0  0  0  0
   38.2680   25.3530   33.8560 C   0  0  0  0  0  0  0  0  0  0  0  0
   39.3760   26.1350   34.2250 C   0  0  0  0  0  0  0  0  0  0  0  0
   39.4440   27.1930   33.4080 N   0  0  0  0  0  0  0  0  0  0  0  0
   38.4180   27.1320   32.5140 C   0  0  0  0  0  0  0  0  0  0  0  0
   37.7270   26.0110   32.8100 N   0  0  0  0  0  0  0  0  0  0  0  0
   36.5310   25.5230   32.1120 C   0  0  0  0  0  0  0  0  0  0  0  0
   39.2756   23.0200   39.3974 H   0  0  0  0  0  0  0  0  0  0  0  0
   37.2608   24.4851   38.9376 H   0  0  0  0  0  0  0  0  0  0  0  0
   41.0284   21.8491   38.6380 H   0  0  0  0  0  0  0  0  0  0  0  0
   40.7344   20.9530   37.1092 H   0  0  0  0  0  0  0  0  0  0  0  0
   41.7885   22.4075   37.1092 H   0  0  0  0  0  0  0  0  0  0  0  0
   40.0715   25.9143   35.0482 H   0  0  0  0  0  0  0  0  0  0  0  0
   38.1971   27.8517   31.7120 H   0  0  0  0  0  0  0  0  0  0  0  0
   35.7758   25.2149   32.8501 H   0  0  0  0  0  0  0  0  0  0  0  0
   36.1213   26.3258   31.4815 H   0  0  0  0  0  0  0  0  0  0  0  0
   36.7999   24.6627   31.4815 H   0  0  0  0  0  0  0  0  0  0  0  0
  1  7  1  0
  1  2  2  0
  3  2  1  0
  4  3  2  0
  5  6  2  0
  5  4  1  0
  6  1  1  0
  8  5  1  0
  9 10  2  0
  9  8  1  0
 11 10  1  0
 12 13  1  0
 12 11  2  0
 13  9  1  0
 14 13  1  0
  2 15  1  0
  3 16  1  0
  7 17  1  0
  7 18  1  0
  7 19  1  0
 10 20  1  0
 12 21  1  0
 14 22  1  0
 14 23  1  0
 14 24  1  0
M  ISO  8  15  14  16  14  17   8  18   8  19   8  20  14  21  14  22   8
M  ISO  2  23   8  24   8
M  END
>  <minimizedAffinity>  (1) 
-3.96670318

>  <minimizedRMSD>  (1) 
0.636513293

$$$$
