
     RDKit          3D

 50 52  0  0  1  0  0  0  0  0999 V2000
   36.6860   26.0370   32.1640 C   0  0  0  0  0  0  0  0  0  0  0  0
   37.3800   25.8270   33.3500 C   0  0  0  0  0  0  0  0  0  0  0  0
   37.3660   26.7340   34.3480 C   0  0  0  0  0  0  0  0  0  0  0  0
   36.6450   27.8640   34.1310 N   0  0  0  0  0  0  0  0  0  0  0  0
   35.9720   28.0960   33.0050 C   0  0  0  0  0  0  0  0  0  0  0  0
   35.9890   27.2060   32.0480 N   0  0  0  0  0  0  0  0  0  0  0  0
   38.1000   26.3780   35.5770 C   0  0  0  0  0  0  0  0  0  0  0  0
   37.9340   24.9490   35.8710 C   0  0  0  0  0  0  0  0  0  0  0  0
   39.1370   24.3530   36.3980 N   0  0  0  0  0  0  0  0  0  0  0  0
   39.8400   23.6190   35.3140 C   0  0  0  0  0  0  0  0  0  0  0  0
   40.8650   22.8320   36.0880 C   0  0  0  0  0  0  0  0  0  0  0  0
   40.2590   22.6500   37.4800 C   0  0  0  0  0  0  0  0  0  0  0  0
   38.8710   23.2540   37.2670 C   0  0  1  0  0  0  0  0  0  0  0  0
   38.3700   23.6590   38.6120 C   0  0  0  0  0  0  0  0  0  0  0  0
   39.2970   23.7360   39.5930 F   0  0  0  0  0  0  0  0  0  0  0  0
   37.3100   22.8450   38.9430 F   0  0  0  0  0  0  0  0  0  0  0  0
   37.8480   24.9710   38.5180 F   0  0  0  0  0  0  0  0  0  0  0  0
   35.2670   29.3870   32.8440 C   0  0  2  0  0  0  0  0  0  0  0  0
   35.5590   29.9630   31.4270 C   0  0  0  0  0  0  0  0  0  0  0  0
   35.6580   30.4240   33.8080 C   0  0  0  0  0  0  0  0  0  0  0  0
   34.7470   30.7400   34.9060 C   0  0  0  0  0  0  0  0  0  0  0  0
   33.4440   30.4570   35.2470 C   0  0  0  0  0  0  0  0  0  0  0  0
   32.8630   30.9660   36.3840 C   0  0  0  0  0  0  0  0  0  0  0  0
   33.5200   31.7840   37.2630 C   0  0  0  0  0  0  0  0  0  0  0  0
   34.8490   32.1010   36.9610 C   0  0  0  0  0  0  0  0  0  0  0  0
   35.4330   31.5780   35.7990 C   0  0  0  0  0  0  0  0  0  0  0  0
   36.6976   25.2935   31.3534 H   0  0  0  0  0  0  0  0  0  0  0  0
   37.9549   24.8979   33.4777 H   0  0  0  0  0  0  0  0  0  0  0  0
   39.1687   26.5987   35.4387 H   0  0  0  0  0  0  0  0  0  0  0  0
   37.7006   26.9659   36.4166 H   0  0  0  0  0  0  0  0  0  0  0  0
   37.1283   24.8317   36.6107 H   0  0  0  0  0  0  0  0  0  0  0  0
   37.6921   24.4382   34.9273 H   0  0  0  0  0  0  0  0  0  0  0  0
   40.3182   24.3120   34.6061 H   0  0  0  0  0  0  0  0  0  0  0  0
   39.1767   22.9977   34.6944 H   0  0  0  0  0  0  0  0  0  0  0  0
   41.0417   21.8557   35.6130 H   0  0  0  0  0  0  0  0  0  0  0  0
   41.8370   23.3456   36.1254 H   0  0  0  0  0  0  0  0  0  0  0  0
   40.2000   21.5880   37.7605 H   0  0  0  0  0  0  0  0  0  0  0  0
   40.8377   23.1120   38.2935 H   0  0  0  0  0  0  0  0  0  0  0  0
   38.1031   22.5989   36.8298 H   0  0  0  0  0  0  0  0  0  0  0  0
   34.2046   29.1547   33.0095 H   0  0  0  0  0  0  0  0  0  0  0  0
   36.0545   30.9404   31.5234 H   0  0  0  0  0  0  0  0  0  0  0  0
   36.2155   29.2717   30.8783 H   0  0  0  0  0  0  0  0  0  0  0  0
   34.6133   30.0839   30.8783 H   0  0  0  0  0  0  0  0  0  0  0  0
   36.6097   30.1053   34.2583 H   0  0  0  0  0  0  0  0  0  0  0  0
   35.6869   31.3472   33.2105 H   0  0  0  0  0  0  0  0  0  0  0  0
   32.8501   29.8043   34.5903 H   0  0  0  0  0  0  0  0  0  0  0  0
   31.8168   30.7025   36.5984 H   0  0  0  0  0  0  0  0  0  0  0  0
   33.0261   32.1742   38.1651 H   0  0  0  0  0  0  0  0  0  0  0  0
   35.4298   32.7542   37.6289 H   0  0  0  0  0  0  0  0  0  0  0  0
   36.4787   31.8366   35.5763 H   0  0  0  0  0  0  0  0  0  0  0  0
  1  2  2  0
  2  3  1  0
  3  7  1  0
  4  3  2  0
  5  4  1  0
  6  1  1  0
  6  5  2  0
  7  8  1  0
  8  9  1  0
  9 13  1  0
 10 11  1  0
 10  9  1  0
 11 12  1  0
 13 12  1  0
 13 14  1  0
 14 16  1  0
 14 15  1  0
 17 14  1  0
 18  5  1  0
 18 20  1  0
 19 18  1  0
 20 21  1  0
 21 22  2  0
 21 26  1  0
 22 23  1  0
 23 24  2  0
 25 24  1  0
 26 25  2  0
  1 27  1  0
  2 28  1  0
  7 29  1  0
  7 30  1  0
  8 31  1  0
  8 32  1  0
 10 33  1  0
 10 34  1  0
 11 35  1  0
 11 36  1  0
 12 37  1  0
 12 38  1  0
 13 39  1  6
 18 40  1  6
 19 41  1  0
 19 42  1  0
 19 43  1  0
 20 44  1  0
 20 45  1  0
 22 46  1  0
 23 47  1  0
 24 48  1  0
 25 49  1  0
 26 50  1  0
M  ISO  8  27  14  28  14  29   8  30   8  31   8  32   8  33  13  34  13
M  ISO  8  35  13  36  13  37  13  38  13  39  13  40   8  41   8  42   8
M  ISO  8  43   8  44   8  45   8  46  14  47  14  48  14  49  14  50  14
M  END
>  <minimizedAffinity>  (1) 
-6.57040119

>  <minimizedRMSD>  (1) 
0.903088093

$$$$
