
     RDKit          3D

 33 35  0  0  1  0  0  0  0  0999 V2000
   38.1520   24.4100   34.4770 O   0  0  0  0  0  0  0  0  0  0  0  0
   39.7500   22.8380   37.2920 C   0  0  0  0  0  0  0  0  0  0  0  0
   38.9770   23.3220   38.3600 C   0  0  0  0  0  0  0  0  0  0  0  0
   37.9240   24.1810   38.0670 C   0  0  0  0  0  0  0  0  0  0  0  0
   37.6910   24.5100   36.7840 N   0  0  0  0  0  0  0  0  0  0  0  0
   38.4620   24.0210   35.7640 C   0  0  0  0  0  0  0  0  0  0  0  0
   39.4820   23.1890   36.0470 N   0  0  0  0  0  0  0  0  0  0  0  0
   40.8690   21.9290   37.5670 C   0  0  0  0  0  0  0  0  0  0  0  0
   38.8320   25.3670   33.7550 C   0  0  0  0  0  0  0  0  0  0  0  0
   40.1890   25.2770   33.4630 C   0  0  0  0  0  0  0  0  0  0  0  0
   40.5130   26.3670   32.7540 N   0  0  0  0  0  0  0  0  0  0  0  0
   39.4400   27.1570   32.5710 C   0  0  0  0  0  0  0  0  0  0  0  0
   38.4340   26.5290   33.1850 N   0  0  0  0  0  0  0  0  0  0  0  0
   36.7220   27.4030   34.6000 N   0  0  0  0  0  0  0  0  0  0  0  0
   36.1630   28.7200   34.5310 C   0  0  0  0  0  0  0  0  0  0  0  0
   35.7100   28.8970   33.0900 C   0  0  0  0  0  0  0  0  0  0  0  0
   36.8840   28.2260   32.3710 C   0  0  0  0  0  0  0  0  0  0  0  0
   37.0770   27.0140   33.2500 C   0  0  1  0  0  0  0  0  0  0  0  0
   39.1981   23.0301   39.3973 H   0  0  0  0  0  0  0  0  0  0  0  0
   37.2917   24.5850   38.8714 H   0  0  0  0  0  0  0  0  0  0  0  0
   40.9977   21.8244   38.6544 H   0  0  0  0  0  0  0  0  0  0  0  0
   40.6577   20.9435   37.1263 H   0  0  0  0  0  0  0  0  0  0  0  0
   41.7903   22.3378   37.1263 H   0  0  0  0  0  0  0  0  0  0  0  0
   40.8684   24.4640   33.7585 H   0  0  0  0  0  0  0  0  0  0  0  0
   39.3997   28.1147   32.0314 H   0  0  0  0  0  0  0  0  0  0  0  0
   37.5608   27.4070   35.1977 H   0  0  0  0  0  0  0  0  0  0  0  0
   35.3073   28.8103   35.2163 H   0  0  0  0  0  0  0  0  0  0  0  0
   36.8933   29.4881   34.8254 H   0  0  0  0  0  0  0  0  0  0  0  0
   34.7589   28.3808   32.8926 H   0  0  0  0  0  0  0  0  0  0  0  0
   35.5074   29.9350   32.7873 H   0  0  0  0  0  0  0  0  0  0  0  0
   36.6233   27.9444   31.3401 H   0  0  0  0  0  0  0  0  0  0  0  0
   37.7763   28.8585   32.2543 H   0  0  0  0  0  0  0  0  0  0  0  0
   36.4379   26.1867   32.9076 H   0  0  0  0  0  0  0  0  0  0  0  0
  1  6  1  0
  2  8  1  0
  2  3  2  0
  4  3  1  0
  5  4  2  0
  6  7  2  0
  6  5  1  0
  7  2  1  0
  9  1  1  0
 10  9  2  0
 11 10  1  0
 12 11  2  0
 12 13  1  0
 13 18  1  0
 13  9  1  0
 15 14  1  0
 16 15  1  0
 17 16  1  0
 18 17  1  0
 18 14  1  0
  3 19  1  0
  4 20  1  0
  8 21  1  0
  8 22  1  0
  8 23  1  0
 10 24  1  0
 12 25  1  0
 14 26  1  0
 15 27  1  0
 15 28  1  0
 16 29  1  0
 16 30  1  0
 17 31  1  0
 17 32  1  0
 18 33  1  6
M  ISO  8  19  14  20  14  21   8  22   8  23   8  24  14  25  14  26   5
M  ISO  7  27  13  28  13  29  13  30  13  31  13  32  13  33  13
M  END
>  <minimizedAffinity>  (1) 
-4.62461615

>  <minimizedRMSD>  (1) 
1.59296334

$$$$
