
     RDKit          3D

 43 46  0  0  1  0  0  0  0  0999 V2000
   37.2020   27.5020   33.0060 N   0  0  0  0  0  0  0  0  0  0  0  0
   36.7150   28.5230   32.1320 C   0  0  0  0  0  0  0  0  0  0  0  0
   37.1930   28.1210   30.7440 C   0  0  0  0  0  0  0  0  0  0  0  0
   38.6170   27.6690   31.0950 C   0  0  0  0  0  0  0  0  0  0  0  0
   38.3300   26.8650   32.3360 C   0  0  2  0  0  0  0  0  0  0  0  0
   37.9490   25.5330   31.9020 N   0  0  0  0  0  0  0  0  0  0  0  0
   36.7570   25.0470   32.3120 C   0  0  0  0  0  0  0  0  0  0  0  0
   36.4140   23.7810   31.8880 C   0  0  0  0  0  0  0  0  0  0  0  0
   37.2360   23.0300   31.0840 C   0  0  0  0  0  0  0  0  0  0  0  0
   36.8790   21.8930   30.7310 O   0  0  0  0  0  0  0  0  0  0  0  0
   38.4210   23.5340   30.6860 N   0  0  0  0  0  0  0  0  0  0  0  0
   38.7390   24.7690   31.1070 C   0  0  0  0  0  0  0  0  0  0  0  0
   39.8480   25.2120   30.7220 O   0  0  0  0  0  0  0  0  0  0  0  0
   39.4770   26.1130   34.3770 C   0  0  0  0  0  0  0  0  0  0  0  0
   40.7490   26.2820   34.8870 C   0  0  0  0  0  0  0  0  0  0  0  0
   41.4330   27.0340   34.0090 N   0  0  0  0  0  0  0  0  0  0  0  0
   40.6490   27.3500   32.9590 C   0  0  0  0  0  0  0  0  0  0  0  0
   39.4680   26.7800   33.2060 N   0  0  0  0  0  0  0  0  0  0  0  0
   38.4910   25.3830   35.0230 O   0  0  0  0  0  0  0  0  0  0  0  0
   39.7850   22.9480   37.3410 C   0  0  0  0  0  0  0  0  0  0  0  0
   38.9880   23.1900   38.4670 C   0  0  0  0  0  0  0  0  0  0  0  0
   38.0230   24.1960   38.3850 C   0  0  0  0  0  0  0  0  0  0  0  0
   37.9020   24.8840   37.2360 N   0  0  0  0  0  0  0  0  0  0  0  0
   38.6910   24.6240   36.1600 C   0  0  0  0  0  0  0  0  0  0  0  0
   39.6150   23.6560   36.2450 N   0  0  0  0  0  0  0  0  0  0  0  0
   40.8050   21.9010   37.3930 C   0  0  0  0  0  0  0  0  0  0  0  0
   37.5091   27.9170   33.8973 H   0  0  0  0  0  0  0  0  0  0  0  0
   35.6163   28.5666   32.1641 H   0  0  0  0  0  0  0  0  0  0  0  0
   37.0803   29.5198   32.4201 H   0  0  0  0  0  0  0  0  0  0  0  0
   37.1915   28.9712   30.0461 H   0  0  0  0  0  0  0  0  0  0  0  0
   36.5735   27.3699   30.2320 H   0  0  0  0  0  0  0  0  0  0  0  0
   39.0580   27.0505   30.2994 H   0  0  0  0  0  0  0  0  0  0  0  0
   39.3455   28.4828   31.2251 H   0  0  0  0  0  0  0  0  0  0  0  0
   36.0886   25.6365   32.9568 H   0  0  0  0  0  0  0  0  0  0  0  0
   35.4492   23.3579   32.2044 H   0  0  0  0  0  0  0  0  0  0  0  0
   39.0574   22.9934   30.0829 H   0  0  0  0  0  0  0  0  0  0  0  0
   41.1310   25.8764   35.8355 H   0  0  0  0  0  0  0  0  0  0  0  0
   40.9253   27.9525   32.0811 H   0  0  0  0  0  0  0  0  0  0  0  0
   39.1184   22.6046   39.3891 H   0  0  0  0  0  0  0  0  0  0  0  0
   37.3741   24.4214   39.2441 H   0  0  0  0  0  0  0  0  0  0  0  0
   41.0350   21.6649   38.4425 H   0  0  0  0  0  0  0  0  0  0  0  0
   40.4302   20.9986   36.8878 H   0  0  0  0  0  0  0  0  0  0  0  0
   41.7169   22.2521   36.8878 H   0  0  0  0  0  0  0  0  0  0  0  0
  2  1  1  0
  3  4  1  0
  3  2  1  0
  4  5  1  0
  5  6  1  6
  5  1  1  0
  5 18  1  0
  6  7  1  0
  8  7  2  0
  9  8  1  0
 10  9  2  0
 11  9  1  0
 11 12  1  0
 12  6  1  0
 13 12  2  0
 14 15  2  0
 14 19  1  0
 16 15  1  0
 17 18  1  0
 17 16  2  0
 18 14  1  0
 19 24  1  0
 20 26  1  0
 20 21  2  0
 22 21  1  0
 23 22  2  0
 24 25  2  0
 24 23  1  0
 25 20  1  0
  1 27  1  0
  2 28  1  0
  2 29  1  0
  3 30  1  0
  3 31  1  0
  4 32  1  0
  4 33  1  0
  7 34  1  0
  8 35  1  0
 11 36  1  0
 15 37  1  0
 17 38  1  0
 21 39  1  0
 22 40  1  0
 26 41  1  0
 26 42  1  0
 26 43  1  0
M  ISO  8  27   5  28  13  29  13  30  13  31  13  32  13  33  13  34  14
M  ISO  8  35  14  36   9  37  14  38  14  39  14  40  14  41   8  42   8
M  ISO  1  43   8
M  END
>  <minimizedAffinity>  (1) 
-5.72660398

>  <minimizedRMSD>  (1) 
1.92410421

$$$$
