
     RDKit          3D

 42 45  0  0  1  0  0  0  0  0999 V2000
   39.0390   26.7210   34.5550 C   0  0  0  0  0  0  0  0  0  0  0  0
   40.4300   26.6280   34.4700 C   0  0  0  0  0  0  0  0  0  0  0  0
   40.7650   26.9640   33.2240 N   0  0  0  0  0  0  0  0  0  0  0  0
   39.6730   27.2700   32.4980 C   0  0  0  0  0  0  0  0  0  0  0  0
   38.6360   27.1140   33.3350 N   0  0  0  0  0  0  0  0  0  0  0  0
   36.4860   27.7750   34.1030 N   0  0  0  0  0  0  0  0  0  0  0  0
   35.7490   28.9270   33.7150 C   0  0  0  0  0  0  0  0  0  0  0  0
   35.7040   28.8960   32.2010 C   0  0  0  0  0  0  0  0  0  0  0  0
   37.1310   28.4140   31.9150 C   0  0  0  0  0  0  0  0  0  0  0  0
   37.2760   27.3420   32.9570 C   0  0  1  0  0  0  0  0  0  0  0  0
   36.7260   26.0950   32.3640 C   0  0  0  0  0  0  0  0  0  0  0  0
   35.7340   26.0410   31.4370 C   0  0  0  0  0  0  0  0  0  0  0  0
   35.2110   24.9020   30.8800 C   0  0  0  0  0  0  0  0  0  0  0  0
   35.7230   23.6850   31.2800 C   0  0  0  0  0  0  0  0  0  0  0  0
   36.7360   23.7230   32.2270 C   0  0  0  0  0  0  0  0  0  0  0  0
   37.2150   24.8840   32.7430 N   0  0  0  0  0  0  0  0  0  0  0  0
   38.3450   26.4420   35.7070 O   0  0  0  0  0  0  0  0  0  0  0  0
   39.3140   23.1800   36.8450 C   0  0  0  0  0  0  0  0  0  0  0  0
   38.7270   23.1440   38.1290 C   0  0  0  0  0  0  0  0  0  0  0  0
   38.0160   24.2590   38.5440 C   0  0  0  0  0  0  0  0  0  0  0  0
   37.9140   25.3170   37.7230 N   0  0  0  0  0  0  0  0  0  0  0  0
   38.4960   25.3200   36.4870 C   0  0  0  0  0  0  0  0  0  0  0  0
   39.1890   24.2410   36.0750 N   0  0  0  0  0  0  0  0  0  0  0  0
   40.0730   22.0140   36.3760 C   0  0  0  0  0  0  0  0  0  0  0  0
   41.1176   26.3338   35.2767 H   0  0  0  0  0  0  0  0  0  0  0  0
   39.6385   27.5815   31.4436 H   0  0  0  0  0  0  0  0  0  0  0  0
   37.1088   28.0066   34.8900 H   0  0  0  0  0  0  0  0  0  0  0  0
   34.7309   28.8882   34.1296 H   0  0  0  0  0  0  0  0  0  0  0  0
   36.2150   29.8510   34.0879 H   0  0  0  0  0  0  0  0  0  0  0  0
   34.9493   28.1883   31.8274 H   0  0  0  0  0  0  0  0  0  0  0  0
   35.4259   29.8461   31.7214 H   0  0  0  0  0  0  0  0  0  0  0  0
   37.2249   28.0060   30.8978 H   0  0  0  0  0  0  0  0  0  0  0  0
   37.8972   29.2020   31.9605 H   0  0  0  0  0  0  0  0  0  0  0  0
   35.3112   26.9997   31.1022 H   0  0  0  0  0  0  0  0  0  0  0  0
   34.4045   24.9574   30.1340 H   0  0  0  0  0  0  0  0  0  0  0  0
   35.3481   22.7356   30.8701 H   0  0  0  0  0  0  0  0  0  0  0  0
   37.1691   22.7733   32.5742 H   0  0  0  0  0  0  0  0  0  0  0  0
   38.8305   22.2615   38.7774 H   0  0  0  0  0  0  0  0  0  0  0  0
   37.5401   24.2772   39.5356 H   0  0  0  0  0  0  0  0  0  0  0  0
   40.4433   21.4452   37.2416 H   0  0  0  0  0  0  0  0  0  0  0  0
   39.4195   21.3716   35.7675 H   0  0  0  0  0  0  0  0  0  0  0  0
   40.9249   22.3516   35.7675 H   0  0  0  0  0  0  0  0  0  0  0  0
  1 17  1  0
  2  1  2  0
  3  2  1  0
  4  3  2  0
  4  5  1  0
  5  1  1  0
  7  6  1  0
  8  7  1  0
  9  8  1  0
  9 10  1  0
 10 11  1  0
 10  5  1  1
 10  6  1  0
 11 16  1  0
 12 11  2  0
 13 14  2  0
 13 12  1  0
 14 15  1  0
 15 16  2  0
 17 22  1  0
 18 19  2  0
 19 20  1  0
 21 20  2  0
 22 21  1  0
 23 22  2  0
 23 18  1  0
 24 18  1  0
  2 25  1  0
  4 26  1  0
  6 27  1  0
  7 28  1  0
  7 29  1  0
  8 30  1  0
  8 31  1  0
  9 32  1  0
  9 33  1  0
 12 34  1  0
 13 35  1  0
 14 36  1  0
 15 37  1  0
 19 38  1  0
 20 39  1  0
 24 40  1  0
 24 41  1  0
 24 42  1  0
M  ISO  8  25  14  26  14  27   5  28  13  29  13  30  13  31  13  32  13
M  ISO  8  33  13  34  14  35  14  36  14  37  14  38  14  39  14  40   8
M  ISO  2  41   8  42   8
M  END
>  <minimizedAffinity>  (1) 
-5.73279333

>  <minimizedRMSD>  (1) 
1.1426028

$$$$
