
     RDKit          3D

 47 50  0  0  1  0  0  0  0  0999 V2000
   39.3390   26.2510   34.4360 C   0  0  0  0  0  0  0  0  0  0  0  0
   40.6410   26.4190   34.9080 C   0  0  0  0  0  0  0  0  0  0  0  0
   41.3170   27.0740   33.9520 N   0  0  0  0  0  0  0  0  0  0  0  0
   40.5200   27.3300   32.9030 C   0  0  0  0  0  0  0  0  0  0  0  0
   39.3380   26.8260   33.2200 N   0  0  0  0  0  0  0  0  0  0  0  0
   37.0490   27.3990   33.0700 N   0  0  0  0  0  0  0  0  0  0  0  0
   36.4250   28.3950   32.2880 C   0  0  0  0  0  0  0  0  0  0  0  0
   36.9280   28.1480   30.8630 C   0  0  0  0  0  0  0  0  0  0  0  0
   38.3770   27.7890   31.1880 C   0  0  0  0  0  0  0  0  0  0  0  0
   38.1690   26.8680   32.3850 C   0  0  1  0  0  0  0  0  0  0  0  0
   38.0180   25.5640   31.8450 N   0  0  0  0  0  0  0  0  0  0  0  0
   36.8660   24.8680   32.2300 C   0  0  0  0  0  0  0  0  0  0  0  0
   36.2970   24.0420   31.0940 C   0  0  0  0  0  0  0  0  0  0  0  0
   37.3890   23.1310   30.7200 N   0  0  0  0  0  0  0  0  0  0  0  0
   38.3680   23.9760   30.0700 C   0  0  0  0  0  0  0  0  0  0  0  0
   38.9720   24.9900   31.0270 C   0  0  0  0  0  0  0  0  0  0  0  0
   38.3520   25.6090   35.1670 O   0  0  0  0  0  0  0  0  0  0  0  0
   39.6780   23.0020   37.2730 C   0  0  0  0  0  0  0  0  0  0  0  0
   38.9450   23.2090   38.4650 C   0  0  0  0  0  0  0  0  0  0  0  0
   38.0210   24.2490   38.4800 C   0  0  0  0  0  0  0  0  0  0  0  0
   37.8610   25.0060   37.3810 N   0  0  0  0  0  0  0  0  0  0  0  0
   38.5840   24.7830   36.2450 C   0  0  0  0  0  0  0  0  0  0  0  0
   39.4830   23.7760   36.2210 N   0  0  0  0  0  0  0  0  0  0  0  0
   40.6620   21.9220   37.2060 C   0  0  0  0  0  0  0  0  0  0  0  0
   41.0368   26.0800   35.8767 H   0  0  0  0  0  0  0  0  0  0  0  0
   40.7925   27.8505   31.9731 H   0  0  0  0  0  0  0  0  0  0  0  0
   37.3597   27.8114   33.9612 H   0  0  0  0  0  0  0  0  0  0  0  0
   35.3306   28.2951   32.3351 H   0  0  0  0  0  0  0  0  0  0  0  0
   36.6627   29.4091   32.6416 H   0  0  0  0  0  0  0  0  0  0  0  0
   36.8556   29.0494   30.2367 H   0  0  0  0  0  0  0  0  0  0  0  0
   36.3699   27.3968   30.2849 H   0  0  0  0  0  0  0  0  0  0  0  0
   38.8638   27.2657   30.3518 H   0  0  0  0  0  0  0  0  0  0  0  0
   39.0326   28.6513   31.3796 H   0  0  0  0  0  0  0  0  0  0  0  0
   37.1181   24.1978   33.0651 H   0  0  0  0  0  0  0  0  0  0  0  0
   36.1064   25.6057   32.5280 H   0  0  0  0  0  0  0  0  0  0  0  0
   35.4152   23.4757   31.4284 H   0  0  0  0  0  0  0  0  0  0  0  0
   35.9630   24.6639   30.2504 H   0  0  0  0  0  0  0  0  0  0  0  0
   37.7924   22.6853   31.5564 H   0  0  0  0  0  0  0  0  0  0  0  0
   39.1733   23.3427   29.6694 H   0  0  0  0  0  0  0  0  0  0  0  0
   37.8588   24.5290   29.2670 H   0  0  0  0  0  0  0  0  0  0  0  0
   39.7197   24.4836   31.6551 H   0  0  0  0  0  0  0  0  0  0  0  0
   39.4308   25.7903   30.4278 H   0  0  0  0  0  0  0  0  0  0  0  0
   39.0999   22.5711   39.3477 H   0  0  0  0  0  0  0  0  0  0  0  0
   37.4266   24.4500   39.3835 H   0  0  0  0  0  0  0  0  0  0  0  0
   40.9407   21.6161   38.2252 H   0  0  0  0  0  0  0  0  0  0  0  0
   40.2288   21.0639   36.6712 H   0  0  0  0  0  0  0  0  0  0  0  0
   41.5566   22.2737   36.6712 H   0  0  0  0  0  0  0  0  0  0  0  0
  1  2  2  0
  1 17  1  0
  3  2  1  0
  4  5  1  0
  4  3  2  0
  5  1  1  0
  7  6  1  0
  8  9  1  0
  8  7  1  0
  9 10  1  0
 10 11  1  6
 10  6  1  0
 10  5  1  0
 11 12  1  0
 13 12  1  0
 14 13  1  0
 15 14  1  0
 15 16  1  0
 16 11  1  0
 17 22  1  0
 18 19  2  0
 19 20  1  0
 21 20  2  0
 22 21  1  0
 23 22  2  0
 23 18  1  0
 24 18  1  0
  2 25  1  0
  4 26  1  0
  6 27  1  0
  7 28  1  0
  7 29  1  0
  8 30  1  0
  8 31  1  0
  9 32  1  0
  9 33  1  0
 12 34  1  0
 12 35  1  0
 13 36  1  0
 13 37  1  0
 14 38  1  0
 15 39  1  0
 15 40  1  0
 16 41  1  0
 16 42  1  0
 19 43  1  0
 20 44  1  0
 24 45  1  0
 24 46  1  0
 24 47  1  0
M  ISO  8  25  14  26  14  27   5  28  13  29  13  30  13  31  13  32  13
M  ISO  8  33  13  34  13  35  13  36  13  37  13  38   5  39  13  40  13
M  ISO  7  41  13  42  13  43  14  44  14  45   8  46   8  47   8
M  END
>  <minimizedAffinity>  (1) 
-5.45152426

>  <minimizedRMSD>  (1) 
1.79089928

$$$$
