
     RDKit          3D

 40 43  0  0  1  0  0  0  0  0999 V2000
   39.0890   24.3680   33.2840 C   0  0  0  0  0  0  0  0  0  0  0  0
   40.3540   24.0470   32.8060 C   0  0  0  0  0  0  0  0  0  0  0  0
   40.7210   25.0270   31.9550 N   0  0  0  0  0  0  0  0  0  0  0  0
   39.7520   25.9500   31.8730 C   0  0  0  0  0  0  0  0  0  0  0  0
   38.7830   25.5350   32.6770 N   0  0  0  0  0  0  0  0  0  0  0  0
   37.1070   26.1340   34.2680 N   0  0  0  0  0  0  0  0  0  0  0  0
   36.7690   27.4410   34.7010 C   0  0  0  0  0  0  0  0  0  0  0  0
   36.5280   28.2540   33.4400 C   0  0  0  0  0  0  0  0  0  0  0  0
   37.6600   27.7050   32.5540 C   0  0  0  0  0  0  0  0  0  0  0  0
   37.5490   26.2450   32.8810 C   0  0  1  0  0  0  0  0  0  0  0  0
   36.4790   25.6850   32.0490 N   0  0  0  0  0  0  0  0  0  0  0  0
   35.6350   26.3180   31.2560 N   0  0  0  0  0  0  0  0  0  0  0  0
   34.8070   25.4250   30.6690 C   0  0  0  0  0  0  0  0  0  0  0  0
   35.1900   24.1820   31.1490 C   0  0  0  0  0  0  0  0  0  0  0  0
   36.2430   24.3640   32.0140 C   0  0  0  0  0  0  0  0  0  0  0  0
   38.4010   23.5810   34.1810 O   0  0  0  0  0  0  0  0  0  0  0  0
   40.0710   22.5260   37.1920 C   0  0  0  0  0  0  0  0  0  0  0  0
   39.3000   23.1570   38.1740 C   0  0  0  0  0  0  0  0  0  0  0  0
   38.2240   23.9280   37.7540 C   0  0  0  0  0  0  0  0  0  0  0  0
   37.9690   24.0380   36.4360 N   0  0  0  0  0  0  0  0  0  0  0  0
   38.7380   23.4110   35.5050 C   0  0  0  0  0  0  0  0  0  0  0  0
   39.7780   22.6670   35.9170 N   0  0  0  0  0  0  0  0  0  0  0  0
   41.2260   21.6940   37.5670 C   0  0  0  0  0  0  0  0  0  0  0  0
   40.9458   23.1588   33.0722 H   0  0  0  0  0  0  0  0  0  0  0  0
   39.7595   26.8652   31.2629 H   0  0  0  0  0  0  0  0  0  0  0  0
   37.8654   25.7531   34.8516 H   0  0  0  0  0  0  0  0  0  0  0  0
   35.8589   27.4152   35.3183 H   0  0  0  0  0  0  0  0  0  0  0  0
   37.5689   27.8801   35.3153 H   0  0  0  0  0  0  0  0  0  0  0  0
   35.5365   28.0540   33.0076 H   0  0  0  0  0  0  0  0  0  0  0  0
   36.5352   29.3449   33.5813 H   0  0  0  0  0  0  0  0  0  0  0  0
   38.6397   28.1156   32.8396 H   0  0  0  0  0  0  0  0  0  0  0  0
   37.5778   27.9517   31.4852 H   0  0  0  0  0  0  0  0  0  0  0  0
   33.9964   25.6402   29.9572 H   0  0  0  0  0  0  0  0  0  0  0  0
   34.7312   23.2180   30.8839 H   0  0  0  0  0  0  0  0  0  0  0  0
   36.7844   23.5826   32.5673 H   0  0  0  0  0  0  0  0  0  0  0  0
   39.5379   23.0463   39.2423 H   0  0  0  0  0  0  0  0  0  0  0  0
   37.5876   24.4427   38.4889 H   0  0  0  0  0  0  0  0  0  0  0  0
   41.2993   21.6412   38.6633 H   0  0  0  0  0  0  0  0  0  0  0  0
   41.0959   20.6808   37.1590 H   0  0  0  0  0  0  0  0  0  0  0  0
   42.1458   22.1383   37.1590 H   0  0  0  0  0  0  0  0  0  0  0  0
  1 16  1  0
  2  1  2  0
  3  2  1  0
  4  3  2  0
  4  5  1  0
 10  5  1  1
  5  1  1  0
  6  7  1  0
  8  7  1  0
  9 10  1  0
  9  8  1  0
 10 11  1  0
 10  6  1  0
 12 11  1  0
 13 14  1  0
 13 12  2  0
 14 15  2  0
 15 11  1  0
 16 21  1  0
 17 23  1  0
 17 18  2  0
 19 18  1  0
 20 19  2  0
 21 22  2  0
 21 20  1  0
 22 17  1  0
  2 24  1  0
  4 25  1  0
  6 26  1  0
  7 27  1  0
  7 28  1  0
  8 29  1  0
  8 30  1  0
  9 31  1  0
  9 32  1  0
 13 33  1  0
 14 34  1  0
 15 35  1  0
 18 36  1  0
 19 37  1  0
 23 38  1  0
 23 39  1  0
 23 40  1  0
M  ISO  8  24  14  25  14  26   5  27  13  28  13  29  13  30  13  31  13
M  ISO  8  32  13  33  14  34  14  35  14  36  14  37  14  38   8  39   8
M  ISO  1  40   8
M  END
>  <minimizedAffinity>  (1) 
-5.44018269

>  <minimizedRMSD>  (1) 
1.09038973

$$$$
