
     RDKit          3D

 40 43  0  0  1  0  0  0  0  0999 V2000
   38.8420   24.6590   33.6120 C   0  0  0  0  0  0  0  0  0  0  0  0
   40.1180   24.2030   33.2620 C   0  0  0  0  0  0  0  0  0  0  0  0
   40.5660   25.0130   32.2940 N   0  0  0  0  0  0  0  0  0  0  0  0
   39.6540   25.9580   32.0040 C   0  0  0  0  0  0  0  0  0  0  0  0
   38.6280   25.7200   32.8130 N   0  0  0  0  0  0  0  0  0  0  0  0
   36.8530   26.5730   34.1630 N   0  0  0  0  0  0  0  0  0  0  0  0
   36.5860   27.9410   34.4370 C   0  0  0  0  0  0  0  0  0  0  0  0
   36.5140   28.6360   33.0950 C   0  0  0  0  0  0  0  0  0  0  0  0
   37.6170   27.8980   32.3290 C   0  0  0  0  0  0  0  0  0  0  0  0
   37.4260   26.5070   32.8300 C   0  0  1  0  0  0  0  0  0  0  0  0
   36.4210   25.7540   32.0020 C   0  0  0  0  0  0  0  0  0  0  0  0
   35.4130   26.2470   31.1690 C   0  0  0  0  0  0  0  0  0  0  0  0
   34.7220   25.2000   30.6060 C   0  0  0  0  0  0  0  0  0  0  0  0
   35.3160   24.0780   31.1000 N   0  0  0  0  0  0  0  0  0  0  0  0
   36.3140   24.4270   31.9210 N   0  0  0  0  0  0  0  0  0  0  0  0
   38.0760   24.0610   34.5810 O   0  0  0  0  0  0  0  0  0  0  0  0
   39.9070   22.6970   37.3560 C   0  0  0  0  0  0  0  0  0  0  0  0
   39.2110   23.2450   38.4450 C   0  0  0  0  0  0  0  0  0  0  0  0
   38.1340   24.0650   38.1790 C   0  0  0  0  0  0  0  0  0  0  0  0
   37.7920   24.3080   36.8990 N   0  0  0  0  0  0  0  0  0  0  0  0
   38.4910   23.7600   35.8580 C   0  0  0  0  0  0  0  0  0  0  0  0
   39.5410   22.9600   36.1070 N   0  0  0  0  0  0  0  0  0  0  0  0
   41.0620   21.8160   37.5970 C   0  0  0  0  0  0  0  0  0  0  0  0
   40.6504   23.3448   33.6979 H   0  0  0  0  0  0  0  0  0  0  0  0
   39.7398   26.7589   31.2549 H   0  0  0  0  0  0  0  0  0  0  0  0
   37.5198   26.1983   34.8529 H   0  0  0  0  0  0  0  0  0  0  0  0
   35.6296   28.0430   34.9707 H   0  0  0  0  0  0  0  0  0  0  0  0
   37.3672   28.3813   35.0741 H   0  0  0  0  0  0  0  0  0  0  0  0
   35.5310   28.4993   32.6207 H   0  0  0  0  0  0  0  0  0  0  0  0
   36.6434   29.7274   33.1402 H   0  0  0  0  0  0  0  0  0  0  0  0
   38.6146   28.2858   32.5829 H   0  0  0  0  0  0  0  0  0  0  0  0
   37.5566   27.9994   31.2353 H   0  0  0  0  0  0  0  0  0  0  0  0
   35.2039   27.3121   30.9906 H   0  0  0  0  0  0  0  0  0  0  0  0
   33.8736   25.2562   29.9081 H   0  0  0  0  0  0  0  0  0  0  0  0
   35.0400   23.1112   30.8765 H   0  0  0  0  0  0  0  0  0  0  0  0
   39.5153   23.0271   39.4794 H   0  0  0  0  0  0  0  0  0  0  0  0
   37.5610   24.5153   39.0029 H   0  0  0  0  0  0  0  0  0  0  0  0
   41.2146   21.6996   38.6801 H   0  0  0  0  0  0  0  0  0  0  0  0
   40.8724   20.8310   37.1455 H   0  0  0  0  0  0  0  0  0  0  0  0
   41.9618   22.2593   37.1455 H   0  0  0  0  0  0  0  0  0  0  0  0
  1 16  1  0
  2  1  2  0
  3  2  1  0
  4  3  2  0
  4  5  1  0
 10  5  1  1
  5  1  1  0
  6  7  1  0
  8  7  1  0
  9 10  1  0
  9  8  1  0
 10 11  1  0
 10  6  1  0
 12 11  1  0
 13 14  1  0
 13 12  2  0
 14 15  1  0
 15 11  2  0
 16 21  1  0
 17 23  1  0
 17 18  2  0
 19 18  1  0
 20 19  2  0
 21 22  2  0
 21 20  1  0
 22 17  1  0
  2 24  1  0
  4 25  1  0
  6 26  1  0
  7 27  1  0
  7 28  1  0
  8 29  1  0
  8 30  1  0
  9 31  1  0
  9 32  1  0
 12 33  1  0
 13 34  1  0
 14 35  1  0
 18 36  1  0
 19 37  1  0
 23 38  1  0
 23 39  1  0
 23 40  1  0
M  ISO  8  24  14  25  14  26   5  27  13  28  13  29  13  30  13  31  13
M  ISO  8  32  13  33  14  34  14  35   9  36  14  37  14  38   8  39   8
M  ISO  1  40   8
M  END
>  <minimizedAffinity>  (1) 
-5.48969269

>  <minimizedRMSD>  (1) 
0.942579746

$$$$
