
     RDKit          3D

 53 55  0  0  1  0  0  0  0  0999 V2000
   36.7290   24.6660   31.8180 C   0  0  0  0  0  0  0  0  0  0  0  0
   37.3890   24.7260   33.0400 C   0  0  0  0  0  0  0  0  0  0  0  0
   37.5830   25.8960   33.6820 C   0  0  0  0  0  0  0  0  0  0  0  0
   37.1060   27.0130   33.0710 N   0  0  0  0  0  0  0  0  0  0  0  0
   36.4720   26.9880   31.9000 C   0  0  0  0  0  0  0  0  0  0  0  0
   36.2870   25.8460   31.2920 N   0  0  0  0  0  0  0  0  0  0  0  0
   38.2520   25.8320   34.9970 C   0  0  0  0  0  0  0  0  0  0  0  0
   38.1290   24.4790   35.5580 C   0  0  0  0  0  0  0  0  0  0  0  0
   39.3250   24.0630   36.2510 N   0  0  0  0  0  0  0  0  0  0  0  0
   40.1560   23.2290   35.3440 C   0  0  0  0  0  0  0  0  0  0  0  0
   41.1700   22.6570   36.3030 C   0  0  0  0  0  0  0  0  0  0  0  0
   40.4690   22.6300   37.6560 C   0  0  0  0  0  0  0  0  0  0  0  0
   39.0590   23.0810   37.2550 C   0  0  1  0  0  0  0  0  0  0  0  0
   38.4360   23.6560   38.4890 C   0  0  0  0  0  0  0  0  0  0  0  0
   39.2420   23.7690   39.5670 F   0  0  0  0  0  0  0  0  0  0  0  0
   37.2850   22.9480   38.7580 F   0  0  0  0  0  0  0  0  0  0  0  0
   38.0250   24.9820   38.2110 F   0  0  0  0  0  0  0  0  0  0  0  0
   36.0430   28.2640   31.2920 C   0  0  2  0  0  0  0  0  0  0  0  0
   36.8780   28.5370   30.0090 C   0  0  0  0  0  0  0  0  0  0  0  0
   36.1740   29.4410   32.1630 C   0  0  0  0  0  0  0  0  0  0  0  0
   33.5230   30.5460   35.3580 C   0  0  0  0  0  0  0  0  0  0  0  0
   33.0060   29.7890   34.3290 C   0  0  0  0  0  0  0  0  0  0  0  0
   33.7940   29.3870   33.2760 C   0  0  0  0  0  0  0  0  0  0  0  0
   35.1290   29.6930   33.1530 C   0  0  0  0  0  0  0  0  0  0  0  0
   35.6200   30.4640   34.2200 C   0  0  0  0  0  0  0  0  0  0  0  0
   34.8570   30.8820   35.2870 C   0  0  0  0  0  0  0  0  0  0  0  0
   32.4950   31.0280   36.6590 S   0  0  0  0  0  0  0  0  0  0  0  0
   32.0470   29.8020   37.4410 O   0  0  0  0  0  0  0  0  0  0  0  0
   33.1640   31.9940   37.5960 O   0  0  0  0  0  0  0  0  0  0  0  0
   36.5698   23.7100   31.2977 H   0  0  0  0  0  0  0  0  0  0  0  0
   37.7622   23.7964   33.4944 H   0  0  0  0  0  0  0  0  0  0  0  0
   39.3166   26.0811   34.8766 H   0  0  0  0  0  0  0  0  0  0  0  0
   37.7757   26.5508   35.6799 H   0  0  0  0  0  0  0  0  0  0  0  0
   37.2869   24.4645   36.2656 H   0  0  0  0  0  0  0  0  0  0  0  0
   37.9639   23.7820   34.7232 H   0  0  0  0  0  0  0  0  0  0  0  0
   39.5599   22.4355   34.8696 H   0  0  0  0  0  0  0  0  0  0  0  0
   40.5980   23.7850   34.5041 H   0  0  0  0  0  0  0  0  0  0  0  0
   41.4590   21.6405   35.9979 H   0  0  0  0  0  0  0  0  0  0  0  0
   42.0932   23.2544   36.3300 H   0  0  0  0  0  0  0  0  0  0  0  0
   40.4632   21.6190   38.0893 H   0  0  0  0  0  0  0  0  0  0  0  0
   40.9445   23.2516   38.4290 H   0  0  0  0  0  0  0  0  0  0  0  0
   38.3741   22.3090   36.8742 H   0  0  0  0  0  0  0  0  0  0  0  0
   34.9711   28.1326   31.0827 H   0  0  0  0  0  0  0  0  0  0  0  0
   37.8882   28.8673   30.2924 H   0  0  0  0  0  0  0  0  0  0  0  0
   36.9473   27.6147   29.4135 H   0  0  0  0  0  0  0  0  0  0  0  0
   36.3891   29.3221   29.4135 H   0  0  0  0  0  0  0  0  0  0  0  0
   37.1223   29.3364   32.7106 H   0  0  0  0  0  0  0  0  0  0  0  0
   36.1056   30.2959   31.4742 H   0  0  0  0  0  0  0  0  0  0  0  0
   31.9445   29.5013   34.3503 H   0  0  0  0  0  0  0  0  0  0  0  0
   33.3277   28.7835   32.4833 H   0  0  0  0  0  0  0  0  0  0  0  0
   36.6815   30.7519   34.2017 H   0  0  0  0  0  0  0  0  0  0  0  0
   35.3138   31.4859   36.0849 H   0  0  0  0  0  0  0  0  0  0  0  0
   31.4173   31.6666   36.1044 H   0  0  0  0  0  0  0  0  0  0  0  0
  1  2  2  0
  2  3  1  0
  3  7  1  0
  4  3  2  0
  5  4  1  0
  6  1  1  0
  6  5  2  0
  7  8  1  0
  8  9  1  0
  9 13  1  0
 10  9  1  0
 10 11  1  0
 11 12  1  0
 13 12  1  0
 13 14  1  0
 14 16  1  0
 14 15  1  0
 17 14  1  0
 18  5  1  0
 18 20  1  0
 19 18  1  0
 20 24  1  0
 21 27  1  0
 22 21  2  0
 23 22  1  0
 24 23  2  0
 24 25  1  0
 25 26  2  0
 26 21  1  0
 27 28  2  0
 27 29  2  0
  1 30  1  0
  2 31  1  0
  7 32  1  0
  7 33  1  0
  8 34  1  0
  8 35  1  0
 10 36  1  0
 10 37  1  0
 11 38  1  0
 11 39  1  0
 12 40  1  0
 12 41  1  0
 13 42  1  6
 18 43  1  6
 19 44  1  0
 19 45  1  0
 19 46  1  0
 20 47  1  0
 20 48  1  0
 22 49  1  0
 23 50  1  0
 25 51  1  0
 26 52  1  0
 27 53  1  0
M  ISO  8  30  14  31  14  32   8  33   8  34   8  35   8  36  13  37  13
M  ISO  8  38  13  39  13  40  13  41  13  42  13  43   8  44   8  45   8
M  ISO  8  46   8  47   8  48   8  49  14  50  14  51  14  52  14  53  11
M  END
>  <minimizedAffinity>  (1) 
-6.30099726

>  <minimizedRMSD>  (1) 
1.33987188

$$$$
