
     RDKit          3D

 39 42  0  0  1  0  0  0  0  0999 V2000
   39.0120   25.7950   34.1080 C   0  0  0  0  0  0  0  0  0  0  0  0
   40.1280   26.3840   34.6840 C   0  0  0  0  0  0  0  0  0  0  0  0
   40.6480   27.2230   33.7630 N   0  0  0  0  0  0  0  0  0  0  0  0
   39.9120   27.1880   32.6420 C   0  0  0  0  0  0  0  0  0  0  0  0
   38.9320   26.3220   32.8710 N   0  0  0  0  0  0  0  0  0  0  0  0
   38.4700   25.2430   30.7960 N   0  0  0  0  0  0  0  0  0  0  0  0
   37.6390   24.1010   30.5940 C   0  0  0  0  0  0  0  0  0  0  0  0
   36.3160   24.4310   31.2640 C   0  0  0  0  0  0  0  0  0  0  0  0
   36.8310   25.1350   32.5120 C   0  0  0  0  0  0  0  0  0  0  0  0
   37.9150   25.9900   31.9170 C   0  0  1  0  0  0  0  0  0  0  0  0
   37.2860   27.2000   31.4080 N   0  0  0  0  0  0  0  0  0  0  0  0
   36.4060   28.0240   32.0070 C   0  0  0  0  0  0  0  0  0  0  0  0
   36.0850   29.0330   31.1600 N   0  0  0  0  0  0  0  0  0  0  0  0
   36.8020   28.7890   30.0340 C   0  0  0  0  0  0  0  0  0  0  0  0
   37.5250   27.6760   30.1980 N   0  0  0  0  0  0  0  0  0  0  0  0
   38.2270   24.8700   34.7720 O   0  0  0  0  0  0  0  0  0  0  0  0
   39.7810   22.8810   37.3380 C   0  0  0  0  0  0  0  0  0  0  0  0
   39.0290   23.2410   38.4550 C   0  0  0  0  0  0  0  0  0  0  0  0
   38.0020   24.1660   38.2910 C   0  0  0  0  0  0  0  0  0  0  0  0
   37.7750   24.6740   37.0640 N   0  0  0  0  0  0  0  0  0  0  0  0
   38.5250   24.3030   35.9920 C   0  0  0  0  0  0  0  0  0  0  0  0
   39.5170   23.4090   36.1580 N   0  0  0  0  0  0  0  0  0  0  0  0
   40.8640   21.9110   37.4940 C   0  0  0  0  0  0  0  0  0  0  0  0
   40.5152   26.2022   35.6974 H   0  0  0  0  0  0  0  0  0  0  0  0
   40.0854   27.7611   31.7193 H   0  0  0  0  0  0  0  0  0  0  0  0
   38.4748   25.8296   29.9494 H   0  0  0  0  0  0  0  0  0  0  0  0
   37.4900   23.9205   29.5192 H   0  0  0  0  0  0  0  0  0  0  0  0
   38.0910   23.1907   31.0147 H   0  0  0  0  0  0  0  0  0  0  0  0
   35.6974   25.0965   30.6439 H   0  0  0  0  0  0  0  0  0  0  0  0
   35.6598   23.5684   31.4518 H   0  0  0  0  0  0  0  0  0  0  0  0
   36.0479   25.7443   32.9868 H   0  0  0  0  0  0  0  0  0  0  0  0
   37.1673   24.4602   33.3130 H   0  0  0  0  0  0  0  0  0  0  0  0
   36.0091   27.8983   33.0252 H   0  0  0  0  0  0  0  0  0  0  0  0
   36.7903   29.4107   29.1266 H   0  0  0  0  0  0  0  0  0  0  0  0
   39.2420   22.8047   39.4421 H   0  0  0  0  0  0  0  0  0  0  0  0
   37.3865   24.4768   39.1481 H   0  0  0  0  0  0  0  0  0  0  0  0
   41.0531   21.7416   38.5643 H   0  0  0  0  0  0  0  0  0  0  0  0
   40.5776   20.9618   37.0175 H   0  0  0  0  0  0  0  0  0  0  0  0
   41.7760   22.2999   37.0175 H   0  0  0  0  0  0  0  0  0  0  0  0
  1  2  2  0
  1 16  1  0
  3  2  1  0
  4  5  1  0
  4  3  2  0
  5  1  1  0
  6 10  1  0
  7  6  1  0
  7  8  1  0
  8  9  1  0
 10 11  1  6
 10  9  1  0
 10  5  1  0
 11 12  1  0
 13 12  2  0
 14 15  2  0
 14 13  1  0
 15 11  1  0
 16 21  1  0
 17 23  1  0
 17 18  2  0
 19 18  1  0
 20 19  2  0
 21 22  2  0
 21 20  1  0
 22 17  1  0
  2 24  1  0
  4 25  1  0
  6 26  1  0
  7 27  1  0
  7 28  1  0
  8 29  1  0
  8 30  1  0
  9 31  1  0
  9 32  1  0
 12 33  1  0
 14 34  1  0
 18 35  1  0
 19 36  1  0
 23 37  1  0
 23 38  1  0
 23 39  1  0
M  ISO  8  24  14  25  14  26   5  27  13  28  13  29  13  30  13  31  13
M  ISO  8  32  13  33  14  34  14  35  14  36  14  37   8  38   8  39   8
M  END
>  <minimizedAffinity>  (1) 
-5.3615427

>  <minimizedRMSD>  (1) 
2.86025643

$$$$
