
     RDKit          3D

 40 43  0  0  1  0  0  0  0  0999 V2000
   39.2750   26.0310   34.3640 C   0  0  0  0  0  0  0  0  0  0  0  0
   40.5760   26.2070   34.7950 C   0  0  0  0  0  0  0  0  0  0  0  0
   41.1750   27.0100   33.9020 N   0  0  0  0  0  0  0  0  0  0  0  0
   40.3220   27.3560   32.9250 C   0  0  0  0  0  0  0  0  0  0  0  0
   39.1730   26.7480   33.2280 N   0  0  0  0  0  0  0  0  0  0  0  0
   36.8270   27.1260   33.3050 N   0  0  0  0  0  0  0  0  0  0  0  0
   36.1240   28.2230   32.7380 C   0  0  0  0  0  0  0  0  0  0  0  0
   36.5520   28.2740   31.2770 C   0  0  0  0  0  0  0  0  0  0  0  0
   38.0390   27.9670   31.4460 C   0  0  0  0  0  0  0  0  0  0  0  0
   37.9720   26.8410   32.4470 C   0  0  1  0  0  0  0  0  0  0  0  0
   37.6680   25.6100   31.7400 N   0  0  0  0  0  0  0  0  0  0  0  0
   36.6450   24.7430   31.9680 C   0  0  0  0  0  0  0  0  0  0  0  0
   36.6790   23.6820   31.0930 C   0  0  0  0  0  0  0  0  0  0  0  0
   37.7440   23.9010   30.3130 N   0  0  0  0  0  0  0  0  0  0  0  0
   38.3300   25.0410   30.6950 C   0  0  0  0  0  0  0  0  0  0  0  0
   38.3620   25.2570   35.0470 O   0  0  0  0  0  0  0  0  0  0  0  0
   39.7750   22.9470   37.4000 C   0  0  0  0  0  0  0  0  0  0  0  0
   39.0190   23.2180   38.5530 C   0  0  0  0  0  0  0  0  0  0  0  0
   38.0320   24.2040   38.4710 C   0  0  0  0  0  0  0  0  0  0  0  0
   37.8590   24.8420   37.2980 N   0  0  0  0  0  0  0  0  0  0  0  0
   38.6170   24.5490   36.1960 C   0  0  0  0  0  0  0  0  0  0  0  0
   39.5640   23.6000   36.2790 N   0  0  0  0  0  0  0  0  0  0  0  0
   40.8130   21.9140   37.4710 C   0  0  0  0  0  0  0  0  0  0  0  0
   41.0328   25.7726   35.6965 H   0  0  0  0  0  0  0  0  0  0  0  0
   40.5264   28.0028   32.0591 H   0  0  0  0  0  0  0  0  0  0  0  0
   37.1504   27.3686   34.2523 H   0  0  0  0  0  0  0  0  0  0  0  0
   35.0383   28.0639   32.8145 H   0  0  0  0  0  0  0  0  0  0  0  0
   36.3492   29.1643   33.2608 H   0  0  0  0  0  0  0  0  0  0  0  0
   36.3846   29.2667   30.8337 H   0  0  0  0  0  0  0  0  0  0  0  0
   36.0056   27.5983   30.6026 H   0  0  0  0  0  0  0  0  0  0  0  0
   38.4974   27.6433   30.4999 H   0  0  0  0  0  0  0  0  0  0  0  0
   38.6526   28.8245   31.7593 H   0  0  0  0  0  0  0  0  0  0  0  0
   35.8859   24.8738   32.7533 H   0  0  0  0  0  0  0  0  0  0  0  0
   35.9797   22.8342   31.0448 H   0  0  0  0  0  0  0  0  0  0  0  0
   39.2303   25.4642   30.2256 H   0  0  0  0  0  0  0  0  0  0  0  0
   39.1984   22.6713   39.4905 H   0  0  0  0  0  0  0  0  0  0  0  0
   37.4111   24.4530   39.3442 H   0  0  0  0  0  0  0  0  0  0  0  0
   41.0370   21.6911   38.5246 H   0  0  0  0  0  0  0  0  0  0  0  0
   40.4568   21.0013   36.9708 H   0  0  0  0  0  0  0  0  0  0  0  0
   41.7239   22.2746   36.9708 H   0  0  0  0  0  0  0  0  0  0  0  0
  1  2  2  0
  1 16  1  0
  3  2  1  0
  4  5  1  0
  4  3  2  0
  5  1  1  0
  7  6  1  0
  8  9  1  0
  8  7  1  0
  9 10  1  0
 10 11  1  6
 10  5  1  0
 10  6  1  0
 11 12  1  0
 13 12  2  0
 14 15  2  0
 14 13  1  0
 15 11  1  0
 16 21  1  0
 17 23  1  0
 17 18  2  0
 19 18  1  0
 20 19  2  0
 21 22  2  0
 21 20  1  0
 22 17  1  0
  2 24  1  0
  4 25  1  0
  6 26  1  0
  7 27  1  0
  7 28  1  0
  8 29  1  0
  8 30  1  0
  9 31  1  0
  9 32  1  0
 12 33  1  0
 13 34  1  0
 15 35  1  0
 18 36  1  0
 19 37  1  0
 23 38  1  0
 23 39  1  0
 23 40  1  0
M  ISO  8  24  14  25  14  26   5  27  13  28  13  29  13  30  13  31  13
M  ISO  8  32  13  33  14  34  14  35  14  36  14  37  14  38   8  39   8
M  ISO  1  40   8
M  END
>  <minimizedAffinity>  (1) 
-5.36121321

>  <minimizedRMSD>  (1) 
1.60162282

$$$$
