
     RDKit          3D

 35 37  0  0  1  0  0  0  0  0999 V2000
   39.0230   25.3340   33.6930 C   0  0  0  0  0  0  0  0  0  0  0  0
   40.3960   25.2430   33.5180 C   0  0  0  0  0  0  0  0  0  0  0  0
   40.7700   26.2790   32.7730 N   0  0  0  0  0  0  0  0  0  0  0  0
   39.7140   27.0450   32.4480 C   0  0  0  0  0  0  0  0  0  0  0  0
   38.6600   26.4510   33.0190 N   0  0  0  0  0  0  0  0  0  0  0  0
   36.7460   27.1510   34.2340 N   0  0  0  0  0  0  0  0  0  0  0  0
   36.1600   28.4510   34.2340 C   0  0  0  0  0  0  0  0  0  0  0  0
   35.9230   28.7880   32.7700 C   0  0  0  0  0  0  0  0  0  0  0  0
   37.2310   28.2390   32.1840 C   0  0  0  0  0  0  0  0  0  0  0  0
   37.3130   26.9330   32.9300 C   0  0  1  0  0  0  0  0  0  0  0  0
   36.4540   25.9450   32.2050 C   0  0  0  0  0  0  0  0  0  0  0  0
   36.6980   25.7530   31.0080 O   0  0  0  0  0  0  0  0  0  0  0  0
   38.2870   24.4260   34.4150 O   0  0  0  0  0  0  0  0  0  0  0  0
   39.8000   22.8330   37.2630 C   0  0  0  0  0  0  0  0  0  0  0  0
   39.0020   23.3280   38.3180 C   0  0  0  0  0  0  0  0  0  0  0  0
   37.9600   24.2040   37.9960 C   0  0  0  0  0  0  0  0  0  0  0  0
   37.7640   24.5340   36.7120 N   0  0  0  0  0  0  0  0  0  0  0  0
   38.5630   24.0300   35.7080 C   0  0  0  0  0  0  0  0  0  0  0  0
   39.5610   23.1920   36.0110 N   0  0  0  0  0  0  0  0  0  0  0  0
   40.8980   21.9130   37.5690 C   0  0  0  0  0  0  0  0  0  0  0  0
   41.0538   24.4588   33.9210 H   0  0  0  0  0  0  0  0  0  0  0  0
   39.7162   27.9633   31.8424 H   0  0  0  0  0  0  0  0  0  0  0  0
   37.4830   27.0974   34.9515 H   0  0  0  0  0  0  0  0  0  0  0  0
   35.2086   28.4442   34.7861 H   0  0  0  0  0  0  0  0  0  0  0  0
   36.8088   29.1918   34.7242 H   0  0  0  0  0  0  0  0  0  0  0  0
   35.0404   28.2711   32.3652 H   0  0  0  0  0  0  0  0  0  0  0  0
   35.7154   29.8467   32.5553 H   0  0  0  0  0  0  0  0  0  0  0  0
   37.1607   28.0862   31.0969 H   0  0  0  0  0  0  0  0  0  0  0  0
   38.1054   28.8968   32.2968 H   0  0  0  0  0  0  0  0  0  0  0  0
   35.6390   25.4114   32.7159 H   0  0  0  0  0  0  0  0  0  0  0  0
   39.1939   23.0338   39.3604 H   0  0  0  0  0  0  0  0  0  0  0  0
   37.3120   24.6153   38.7840 H   0  0  0  0  0  0  0  0  0  0  0  0
   41.0068   21.8219   38.6598 H   0  0  0  0  0  0  0  0  0  0  0  0
   40.6791   20.9247   37.1385 H   0  0  0  0  0  0  0  0  0  0  0  0
   41.8327   22.3016   37.1385 H   0  0  0  0  0  0  0  0  0  0  0  0
  1 13  1  0
  2  1  2  0
  3  2  1  0
  4  3  2  0
  4  5  1  0
  5  1  1  0
  7  6  1  0
  8  7  1  0
  9  8  1  0
  9 10  1  0
 10 11  1  0
 10  5  1  1
 10  6  1  0
 12 11  2  0
 13 18  1  0
 14 20  1  0
 14 15  2  0
 16 15  1  0
 17 16  2  0
 18 19  2  0
 18 17  1  0
 19 14  1  0
  2 21  1  0
  4 22  1  0
  6 23  1  0
  7 24  1  0
  7 25  1  0
  8 26  1  0
  8 27  1  0
  9 28  1  0
  9 29  1  0
 11 30  1  0
 15 31  1  0
 16 32  1  0
 20 33  1  0
 20 34  1  0
 20 35  1  0
M  ISO  8  21  14  22  14  23   5  24  13  25  13  26  13  27  13  28  13
M  ISO  7  29  13  30   6  31  14  32  14  33   8  34   8  35   8
M  END
>  <minimizedAffinity>  (1) 
-4.69110775

>  <minimizedRMSD>  (1) 
0.341776013

$$$$
