
     RDKit          3D

 47 51  0  0  1  0  0  0  0  0999 V2000
   39.4040   25.0040   35.1020 N   0  0  0  0  0  0  0  0  0  0  0  0
   38.7250   25.5420   36.2240 C   0  0  0  0  0  0  0  0  0  0  0  0
   37.5070   26.2530   35.7020 C   0  0  0  0  0  0  0  0  0  0  0  0
   38.1000   26.8290   34.4010 C   0  0  0  0  0  0  0  0  0  0  0  0
   38.8600   25.6430   33.8870 C   0  0  2  0  0  0  0  0  0  0  0  0
   38.0210   24.5610   33.3360 C   0  0  0  0  0  0  0  0  0  0  0  0
   38.1650   23.2330   33.6230 N   0  0  0  0  0  0  0  0  0  0  0  0
   37.4240   22.2540   33.1430 C   0  0  0  0  0  0  0  0  0  0  0  0
   36.4120   22.4590   32.2880 N   0  0  0  0  0  0  0  0  0  0  0  0
   36.1810   23.7340   31.9370 C   0  0  0  0  0  0  0  0  0  0  0  0
   35.1450   23.9700   31.0600 C   0  0  0  0  0  0  0  0  0  0  0  0
   34.8530   25.2570   30.6570 C   0  0  0  0  0  0  0  0  0  0  0  0
   35.6360   26.3010   31.1640 C   0  0  0  0  0  0  0  0  0  0  0  0
   36.6420   25.9960   32.0250 C   0  0  0  0  0  0  0  0  0  0  0  0
   36.9750   24.7340   32.4600 C   0  0  0  0  0  0  0  0  0  0  0  0
   41.0460   25.2520   32.8300 C   0  0  0  0  0  0  0  0  0  0  0  0
   41.8950   26.0170   32.0200 C   0  0  0  0  0  0  0  0  0  0  0  0
   41.2990   27.2060   31.8410 N   0  0  0  0  0  0  0  0  0  0  0  0
   40.1230   27.2240   32.4960 C   0  0  0  0  0  0  0  0  0  0  0  0
   39.9800   26.0520   33.0820 N   0  0  0  0  0  0  0  0  0  0  0  0
   41.3300   23.9550   33.2360 O   0  0  0  0  0  0  0  0  0  0  0  0
   44.1590   23.6380   35.4540 C   0  0  0  0  0  0  0  0  0  0  0  0
   43.5760   22.9840   36.5590 C   0  0  0  0  0  0  0  0  0  0  0  0
   42.2260   22.6790   36.4950 C   0  0  0  0  0  0  0  0  0  0  0  0
   41.5300   23.0150   35.3890 N   0  0  0  0  0  0  0  0  0  0  0  0
   42.1220   23.6470   34.3340 C   0  0  0  0  0  0  0  0  0  0  0  0
   43.4400   23.9440   34.4000 N   0  0  0  0  0  0  0  0  0  0  0  0
   45.5800   23.9820   35.4750 C   0  0  0  0  0  0  0  0  0  0  0  0
   40.4125   25.1993   35.1775 H   0  0  0  0  0  0  0  0  0  0  0  0
   38.4265   24.7339   36.9080 H   0  0  0  0  0  0  0  0  0  0  0  0
   39.3743   26.2334   36.7811 H   0  0  0  0  0  0  0  0  0  0  0  0
   36.6773   25.5583   35.5045 H   0  0  0  0  0  0  0  0  0  0  0  0
   37.0621   26.9912   36.3854 H   0  0  0  0  0  0  0  0  0  0  0  0
   37.3114   27.1390   33.6996 H   0  0  0  0  0  0  0  0  0  0  0  0
   38.7096   27.7339   34.5408 H   0  0  0  0  0  0  0  0  0  0  0  0
   37.6458   21.2236   33.4579 H   0  0  0  0  0  0  0  0  0  0  0  0
   34.5477   23.1284   30.6792 H   0  0  0  0  0  0  0  0  0  0  0  0
   34.0283   25.4571   29.9571 H   0  0  0  0  0  0  0  0  0  0  0  0
   35.4414   27.3436   30.8722 H   0  0  0  0  0  0  0  0  0  0  0  0
   37.2440   26.8330   32.4085 H   0  0  0  0  0  0  0  0  0  0  0  0
   42.8657   25.7029   31.6088 H   0  0  0  0  0  0  0  0  0  0  0  0
   39.4122   28.0626   32.5350 H   0  0  0  0  0  0  0  0  0  0  0  0
   44.1746   22.7240   37.4445 H   0  0  0  0  0  0  0  0  0  0  0  0
   41.7287   22.1702   37.3339 H   0  0  0  0  0  0  0  0  0  0  0  0
   45.9219   24.0648   36.5173 H   0  0  0  0  0  0  0  0  0  0  0  0
   46.1549   23.1971   34.9618 H   0  0  0  0  0  0  0  0  0  0  0  0
   45.7323   24.9429   34.9618 H   0  0  0  0  0  0  0  0  0  0  0  0
  1  2  1  0
  3  2  1  0
  4  3  1  0
  5  6  1  0
  5  4  1  0
  5  1  1  0
  6  7  2  0
  8  7  1  0
  9  8  2  0
 10  9  1  0
 10 15  2  0
 11 10  1  0
 12 11  2  0
 12 13  1  0
 13 14  2  0
 14 15  1  0
 15  6  1  0
 16 20  1  0
 16 21  1  0
 17 16  2  0
 18 17  1  0
 18 19  2  0
 19 20  1  0
  5 20  1  6
 21 26  1  0
 22 28  1  0
 22 23  2  0
 24 23  1  0
 25 24  2  0
 26 27  2  0
 26 25  1  0
 27 22  1  0
  1 29  1  0
  2 30  1  0
  2 31  1  0
  3 32  1  0
  3 33  1  0
  4 34  1  0
  4 35  1  0
  8 36  1  0
 11 37  1  0
 12 38  1  0
 13 39  1  0
 14 40  1  0
 17 41  1  0
 19 42  1  0
 23 43  1  0
 24 44  1  0
 28 45  1  0
 28 46  1  0
 28 47  1  0
M  ISO  8  29   5  30  13  31  13  32  13  33  13  34  13  35  13  36  14
M  ISO  8  37  14  38  14  39  14  40  14  41  14  42  14  43  14  44  14
M  ISO  3  45   8  46   8  47   8
M  END
>  <minimizedAffinity>  (1) 
-4.79720688

>  <minimizedRMSD>  (1) 
3.39522481

$$$$
