
     RDKit          3D

 47 49  0  0  1  0  0  0  0  0999 V2000
   38.1030   26.4430   35.8500 C   0  0  0  0  0  0  0  0  0  0  0  0
   36.7090   26.4910   32.4100 C   0  0  0  0  0  0  0  0  0  0  0  0
   37.3830   26.1410   33.5750 C   0  0  0  0  0  0  0  0  0  0  0  0
   37.3960   26.9480   34.6560 C   0  0  0  0  0  0  0  0  0  0  0  0
   36.7260   28.1320   34.5730 N   0  0  0  0  0  0  0  0  0  0  0  0
   36.0690   28.4880   33.4500 C   0  0  0  0  0  0  0  0  0  0  0  0
   36.0600   27.6940   32.4060 N   0  0  0  0  0  0  0  0  0  0  0  0
   35.3910   29.8120   33.4010 C   0  0  2  0  0  0  0  0  0  0  0  0
   35.9290   30.6100   32.1770 C   0  0  0  0  0  0  0  0  0  0  0  0
   35.6630   30.6550   34.5850 C   0  0  0  0  0  0  0  0  0  0  0  0
   34.5420   30.9580   35.4510 C   0  0  0  0  0  0  0  0  0  0  0  0
   33.2400   30.5900   35.6430 C   0  0  0  0  0  0  0  0  0  0  0  0
   32.5030   31.1740   36.6410 C   0  0  0  0  0  0  0  0  0  0  0  0
   33.0990   32.1260   37.4330 C   0  0  0  0  0  0  0  0  0  0  0  0
   34.8450   32.1800   36.6820 S   0  0  0  0  0  0  0  0  0  0  0  0
   37.9600   24.9840   35.9470 C   0  0  0  0  0  0  0  0  0  0  0  0
   39.1520   24.3510   36.4540 N   0  0  0  0  0  0  0  0  0  0  0  0
   39.8360   23.6280   35.3520 C   0  0  0  0  0  0  0  0  0  0  0  0
   40.8540   22.8120   36.1080 C   0  0  0  0  0  0  0  0  0  0  0  0
   40.2500   22.6090   37.4960 C   0  0  0  0  0  0  0  0  0  0  0  0
   38.8740   23.2400   37.2970 C   0  0  1  0  0  0  0  0  0  0  0  0
   38.3770   23.6310   38.6600 C   0  0  0  0  0  0  0  0  0  0  0  0
   39.3330   23.7380   39.6130 F   0  0  0  0  0  0  0  0  0  0  0  0
   37.3670   22.7730   39.0130 F   0  0  0  0  0  0  0  0  0  0  0  0
   37.8090   24.9170   38.5750 F   0  0  0  0  0  0  0  0  0  0  0  0
   37.6759   26.9103   36.7496 H   0  0  0  0  0  0  0  0  0  0  0  0
   39.1708   26.6935   35.7667 H   0  0  0  0  0  0  0  0  0  0  0  0
   36.6986   25.8295   31.5312 H   0  0  0  0  0  0  0  0  0  0  0  0
   37.9193   25.1815   33.6161 H   0  0  0  0  0  0  0  0  0  0  0  0
   34.3127   29.6007   33.3490 H   0  0  0  0  0  0  0  0  0  0  0  0
   36.5114   31.4739   32.5298 H   0  0  0  0  0  0  0  0  0  0  0  0
   36.5725   29.9579   31.5682 H   0  0  0  0  0  0  0  0  0  0  0  0
   35.0831   30.9620   31.5682 H   0  0  0  0  0  0  0  0  0  0  0  0
   36.4208   30.1385   35.1924 H   0  0  0  0  0  0  0  0  0  0  0  0
   35.9776   31.6266   34.1763 H   0  0  0  0  0  0  0  0  0  0  0  0
   32.7834   29.8256   34.9972 H   0  0  0  0  0  0  0  0  0  0  0  0
   31.4541   30.8858   36.8047 H   0  0  0  0  0  0  0  0  0  0  0  0
   32.6801   32.7002   38.2725 H   0  0  0  0  0  0  0  0  0  0  0  0
   37.1227   24.7545   36.6225 H   0  0  0  0  0  0  0  0  0  0  0  0
   37.7766   24.5953   34.9344 H   0  0  0  0  0  0  0  0  0  0  0  0
   40.3204   24.3266   34.6539 H   0  0  0  0  0  0  0  0  0  0  0  0
   39.1604   23.0288   34.7239 H   0  0  0  0  0  0  0  0  0  0  0  0
   41.0176   21.8436   35.6126 H   0  0  0  0  0  0  0  0  0  0  0  0
   41.8322   23.3130   36.1535 H   0  0  0  0  0  0  0  0  0  0  0  0
   40.1740   21.5423   37.7535 H   0  0  0  0  0  0  0  0  0  0  0  0
   40.8377   23.0420   38.3189 H   0  0  0  0  0  0  0  0  0  0  0  0
   38.0981   22.6036   36.8465 H   0  0  0  0  0  0  0  0  0  0  0  0
  1 16  1  0
  2  3  2  0
  3  4  1  0
  4  1  1  0
  5  4  2  0
  6  5  1  0
  7  2  1  0
  7  6  2  0
  8  6  1  0
  8 10  1  0
  9  8  1  0
 10 11  1  0
 11 12  2  0
 11 15  1  0
 12 13  1  0
 13 14  2  0
 15 14  1  0
 16 17  1  0
 17 21  1  0
 18 19  1  0
 18 17  1  0
 19 20  1  0
 21 20  1  0
 21 22  1  0
 22 24  1  0
 22 23  1  0
 25 22  1  0
  1 26  1  0
  1 27  1  0
  2 28  1  0
  3 29  1  0
  8 30  1  6
  9 31  1  0
  9 32  1  0
  9 33  1  0
 10 34  1  0
 10 35  1  0
 12 36  1  0
 13 37  1  0
 14 38  1  0
 16 39  1  0
 16 40  1  0
 18 41  1  0
 18 42  1  0
 19 43  1  0
 19 44  1  0
 20 45  1  0
 20 46  1  0
 21 47  1  6
M  ISO  8  26   8  27   8  28  14  29  14  30   8  31   8  32   8  33   8
M  ISO  8  34   8  35   8  36  14  37  14  38  14  39   8  40   8  41  13
M  ISO  6  42  13  43  13  44  13  45  13  46  13  47  13
M  END
>  <minimizedAffinity>  (1) 
-6.10091639

>  <minimizedRMSD>  (1) 
1.19900441

$$$$
