
     RDKit          3D

 36 38  0  0  1  0  0  0  0  0999 V2000
   39.2080   25.4920   33.8000 C   0  0  0  0  0  0  0  0  0  0  0  0
   40.5850   25.4030   33.9030 C   0  0  0  0  0  0  0  0  0  0  0  0
   41.1070   26.3270   33.0680 N   0  0  0  0  0  0  0  0  0  0  0  0
   40.1170   26.9910   32.4500 C   0  0  0  0  0  0  0  0  0  0  0  0
   38.9860   26.4730   32.9040 N   0  0  0  0  0  0  0  0  0  0  0  0
   36.7930   27.0700   33.6320 N   0  0  0  0  0  0  0  0  0  0  0  0
   36.1670   28.3380   33.4910 C   0  0  0  0  0  0  0  0  0  0  0  0
   36.2960   28.7170   32.0390 C   0  0  0  0  0  0  0  0  0  0  0  0
   37.7000   28.1900   31.7250 C   0  0  0  0  0  0  0  0  0  0  0  0
   37.6810   26.9050   32.4920 C   0  0  1  0  0  0  0  0  0  0  0  0
   37.1150   25.8020   31.6390 C   0  0  0  0  0  0  0  0  0  0  0  0
   36.1480   25.1460   32.0940 O   0  0  0  0  0  0  0  0  0  0  0  0
   37.6100   25.4770   30.3730 O   0  0  0  0  0  0  0  0  0  0  0  0
   38.3450   24.6840   34.5230 O   0  0  0  0  0  0  0  0  0  0  0  0
   39.7820   22.8740   37.2820 C   0  0  0  0  0  0  0  0  0  0  0  0
   38.9840   23.3040   38.3440 C   0  0  0  0  0  0  0  0  0  0  0  0
   37.9680   24.2120   38.0670 C   0  0  0  0  0  0  0  0  0  0  0  0
   37.7950   24.6370   36.8070 N   0  0  0  0  0  0  0  0  0  0  0  0
   38.5910   24.1980   35.7900 C   0  0  0  0  0  0  0  0  0  0  0  0
   39.5760   23.3190   36.0530 N   0  0  0  0  0  0  0  0  0  0  0  0
   40.8630   21.9160   37.5410 C   0  0  0  0  0  0  0  0  0  0  0  0
   41.1486   24.7097   34.5446 H   0  0  0  0  0  0  0  0  0  0  0  0
   40.2239   27.8020   31.7146 H   0  0  0  0  0  0  0  0  0  0  0  0
   37.3329   27.0376   34.5085 H   0  0  0  0  0  0  0  0  0  0  0  0
   35.1061   28.2721   33.7741 H   0  0  0  0  0  0  0  0  0  0  0  0
   36.6371   29.0894   34.1425 H   0  0  0  0  0  0  0  0  0  0  0  0
   35.5312   28.2221   31.4225 H   0  0  0  0  0  0  0  0  0  0  0  0
   36.1572   29.7890   31.8353 H   0  0  0  0  0  0  0  0  0  0  0  0
   37.8388   28.0187   30.6473 H   0  0  0  0  0  0  0  0  0  0  0  0
   38.5190   28.8739   31.9926 H   0  0  0  0  0  0  0  0  0  0  0  0
   37.1987   24.7406   29.8548 H   0  0  0  0  0  0  0  0  0  0  0  0
   39.1536   22.9363   39.3668 H   0  0  0  0  0  0  0  0  0  0  0  0
   37.3137   24.5775   38.8722 H   0  0  0  0  0  0  0  0  0  0  0  0
   40.9961   21.7980   38.6265 H   0  0  0  0  0  0  0  0  0  0  0  0
   40.6059   20.9438   37.0953 H   0  0  0  0  0  0  0  0  0  0  0  0
   41.7973   22.2881   37.0953 H   0  0  0  0  0  0  0  0  0  0  0  0
  1  2  2  0
  1 14  1  0
  3  2  1  0
  4  5  1  0
  4  3  2  0
  5  1  1  0
  7  6  1  0
  8  7  1  0
  9  8  1  0
  9 10  1  0
 10 11  1  0
 10  5  1  1
 10  6  1  0
 11 12  2  0
 13 11  1  0
 14 19  1  0
 15 21  1  0
 15 16  2  0
 17 16  1  0
 18 17  2  0
 19 20  2  0
 19 18  1  0
 20 15  1  0
  2 22  1  0
  4 23  1  0
  6 24  1  0
  7 25  1  0
  7 26  1  0
  8 27  1  0
  8 28  1  0
  9 29  1  0
  9 30  1  0
 13 31  1  0
 16 32  1  0
 17 33  1  0
 21 34  1  0
 21 35  1  0
 21 36  1  0
M  ISO  8  22  14  23  14  24   5  25  13  26  13  27  13  28  13  29  13
M  ISO  7  30  13  31   3  32  14  33  14  34   8  35   8  36   8
M  END
>  <minimizedAffinity>  (1) 
-4.96500301

>  <minimizedRMSD>  (1) 
0.926859438

$$$$
