
     RDKit          3D

 43 46  0  0  1  0  0  0  0  0999 V2000
   37.5710   23.9450   30.5480 C   0  0  0  0  0  0  0  0  0  0  0  0
   38.5320   23.3750   29.7440 C   0  0  0  0  0  0  0  0  0  0  0  0
   39.5730   24.2350   29.6980 N   0  0  0  0  0  0  0  0  0  0  0  0
   39.2900   25.3230   30.4480 C   0  0  0  0  0  0  0  0  0  0  0  0
   38.0790   25.1190   30.9460 N   0  0  0  0  0  0  0  0  0  0  0  0
   36.8480   25.3970   32.9660 N   0  0  0  0  0  0  0  0  0  0  0  0
   37.2380   26.1500   34.1020 C   0  0  0  0  0  0  0  0  0  0  0  0
   37.5890   27.5240   33.5950 C   0  0  0  0  0  0  0  0  0  0  0  0
   38.2820   27.1750   32.2630 C   0  0  0  0  0  0  0  0  0  0  0  0
   37.4080   26.0460   31.8020 C   0  0  1  0  0  0  0  0  0  0  0  0
   36.2550   26.6040   31.0060 C   0  0  0  0  0  0  0  0  0  0  0  0
   35.0880   26.2690   31.3550 O   0  0  0  0  0  0  0  0  0  0  0  0
   36.4060   27.4660   29.9100 O   0  0  0  0  0  0  0  0  0  0  0  0
   36.3490   23.3270   30.8210 O   0  0  0  0  0  0  0  0  0  0  0  0
   36.0220   20.9490   33.5090 C   0  0  0  0  0  0  0  0  0  0  0  0
   35.9150   19.7410   32.8000 C   0  0  0  0  0  0  0  0  0  0  0  0
   35.9620   19.8050   31.4200 C   0  0  0  0  0  0  0  0  0  0  0  0
   36.1030   20.9830   30.8110 N   0  0  0  0  0  0  0  0  0  0  0  0
   36.2050   22.1440   31.5200 C   0  0  0  0  0  0  0  0  0  0  0  0
   36.1620   22.0960   32.8580 N   0  0  0  0  0  0  0  0  0  0  0  0
   35.9800   20.9430   34.9760 C   0  0  0  0  0  0  0  0  0  0  0  0
   37.0490   21.7670   35.5980 C   0  0  0  0  0  0  0  0  0  0  0  0
   38.2310   21.9290   34.8680 C   0  0  0  0  0  0  0  0  0  0  0  0
   39.0670   22.6990   35.5940 N   0  0  0  0  0  0  0  0  0  0  0  0
   38.4460   23.0200   36.7480 C   0  0  0  0  0  0  0  0  0  0  0  0
   37.2310   22.4460   36.7250 N   0  0  0  0  0  0  0  0  0  0  0  0
   38.4650   22.4023   29.2348 H   0  0  0  0  0  0  0  0  0  0  0  0
   39.9339   26.1997   30.6118 H   0  0  0  0  0  0  0  0  0  0  0  0
   37.2093   24.4353   33.0405 H   0  0  0  0  0  0  0  0  0  0  0  0
   36.4092   26.2097   34.8228 H   0  0  0  0  0  0  0  0  0  0  0  0
   38.0897   25.6838   34.6189 H   0  0  0  0  0  0  0  0  0  0  0  0
   36.6903   28.1377   33.4346 H   0  0  0  0  0  0  0  0  0  0  0  0
   38.2047   28.1195   34.2852 H   0  0  0  0  0  0  0  0  0  0  0  0
   38.2624   28.0200   31.5590 H   0  0  0  0  0  0  0  0  0  0  0  0
   39.3507   26.9286   32.3476 H   0  0  0  0  0  0  0  0  0  0  0  0
   35.6077   27.7985   29.4280 H   0  0  0  0  0  0  0  0  0  0  0  0
   35.7982   18.7805   33.3232 H   0  0  0  0  0  0  0  0  0  0  0  0
   35.8831   18.8839   30.8239 H   0  0  0  0  0  0  0  0  0  0  0  0
   35.0044   21.3352   35.2990 H   0  0  0  0  0  0  0  0  0  0  0  0
   36.1378   19.9044   35.3022 H   0  0  0  0  0  0  0  0  0  0  0  0
   38.4417   21.5031   33.8759 H   0  0  0  0  0  0  0  0  0  0  0  0
   38.8585   23.6382   37.5590 H   0  0  0  0  0  0  0  0  0  0  0  0
   36.5345   22.5224   37.4799 H   0  0  0  0  0  0  0  0  0  0  0  0
  1 14  1  0
  1  5  1  0
  2  1  2  0
  3  2  1  0
  3  4  2  0
  4  5  1  0
 10  5  1  6
  6  7  1  0
  8  7  1  0
  9  8  1  0
 10 11  1  0
 10  9  1  0
 10  6  1  0
 11 12  2  0
 13 11  1  0
 14 19  1  0
 15 21  1  0
 16 15  2  0
 17 16  1  0
 18 17  2  0
 18 19  1  0
 19 20  2  0
 20 15  1  0
 21 22  1  0
 22 26  1  0
 23 24  1  0
 23 22  2  0
 24 25  2  0
 26 25  1  0
  2 27  1  0
  4 28  1  0
  6 29  1  0
  7 30  1  0
  7 31  1  0
  8 32  1  0
  8 33  1  0
  9 34  1  0
  9 35  1  0
 13 36  1  0
 16 37  1  0
 17 38  1  0
 21 39  1  0
 21 40  1  0
 23 41  1  0
 25 42  1  0
 26 43  1  0
M  ISO  8  27  14  28  14  29   5  30  13  31  13  32  13  33  13  34  13
M  ISO  8  35  13  36   3  37  14  38  14  39   8  40   8  41  14  42  14
M  ISO  1  43   9
M  END
>  <minimizedAffinity>  (1) 
-5.37924814

>  <minimizedRMSD>  (1) 
4.70470715

$$$$
