
     RDKit          3D

 50 54  0  0  1  0  0  0  0  0999 V2000
   39.1850   25.3730   33.5870 C   0  0  0  0  0  0  0  0  0  0  0  0
   40.5620   25.2530   33.6090 C   0  0  0  0  0  0  0  0  0  0  0  0
   41.0570   26.2070   32.7910 N   0  0  0  0  0  0  0  0  0  0  0  0
   40.0560   26.9170   32.2570 C   0  0  0  0  0  0  0  0  0  0  0  0
   38.9420   26.4030   32.7460 N   0  0  0  0  0  0  0  0  0  0  0  0
   36.7900   27.0070   33.6110 N   0  0  0  0  0  0  0  0  0  0  0  0
   36.1960   28.2960   33.5630 C   0  0  0  0  0  0  0  0  0  0  0  0
   36.2510   28.7410   32.1300 C   0  0  0  0  0  0  0  0  0  0  0  0
   37.6210   28.1970   31.7100 C   0  0  0  0  0  0  0  0  0  0  0  0
   37.6310   26.8800   32.4220 C   0  0  1  0  0  0  0  0  0  0  0  0
   36.9860   25.8220   31.5590 C   0  0  0  0  0  0  0  0  0  0  0  0
   36.0270   25.1660   32.0310 O   0  0  0  0  0  0  0  0  0  0  0  0
   37.4110   25.5410   30.2540 O   0  0  0  0  0  0  0  0  0  0  0  0
   38.3430   24.5580   34.3090 O   0  0  0  0  0  0  0  0  0  0  0  0
   39.6490   22.8860   37.2160 C   0  0  0  0  0  0  0  0  0  0  0  0
   38.8910   23.4470   38.2330 C   0  0  0  0  0  0  0  0  0  0  0  0
   37.9480   24.3910   37.8750 C   0  0  0  0  0  0  0  0  0  0  0  0
   37.7930   24.7320   36.5940 N   0  0  0  0  0  0  0  0  0  0  0  0
   38.5620   24.1540   35.6170 C   0  0  0  0  0  0  0  0  0  0  0  0
   39.4700   23.2430   35.9680 N   0  0  0  0  0  0  0  0  0  0  0  0
   40.6640   21.8670   37.5500 C   0  0  0  0  0  0  0  0  0  0  0  0
   41.9810   22.1170   36.9200 C   0  0  0  0  0  0  0  0  0  0  0  0
   42.3690   23.3780   36.4460 C   0  0  0  0  0  0  0  0  0  0  0  0
   43.6150   23.2910   35.9520 N   0  0  0  0  0  0  0  0  0  0  0  0
   44.0940   22.0250   36.0680 C   0  0  0  0  0  0  0  0  0  0  0  0
   45.2670   21.3710   35.7430 C   0  0  0  0  0  0  0  0  0  0  0  0
   45.4290   20.0080   36.0120 C   0  0  0  0  0  0  0  0  0  0  0  0
   44.4060   19.2750   36.6160 C   0  0  0  0  0  0  0  0  0  0  0  0
   43.2590   20.0000   36.9140 C   0  0  0  0  0  0  0  0  0  0  0  0
   43.0770   21.3270   36.6630 C   0  0  0  0  0  0  0  0  0  0  0  0
   41.1449   24.5187   34.1844 H   0  0  0  0  0  0  0  0  0  0  0  0
   40.1434   27.7581   31.5535 H   0  0  0  0  0  0  0  0  0  0  0  0
   37.3633   26.9130   34.4615 H   0  0  0  0  0  0  0  0  0  0  0  0
   35.1517   28.2456   33.9049 H   0  0  0  0  0  0  0  0  0  0  0  0
   36.7273   29.0021   34.2182 H   0  0  0  0  0  0  0  0  0  0  0  0
   35.4394   28.2947   31.5365 H   0  0  0  0  0  0  0  0  0  0  0  0
   36.1286   29.8246   31.9856 H   0  0  0  0  0  0  0  0  0  0  0  0
   37.6883   28.0681   30.6197 H   0  0  0  0  0  0  0  0  0  0  0  0
   38.4673   28.8547   31.9576 H   0  0  0  0  0  0  0  0  0  0  0  0
   36.9566   24.8375   29.7261 H   0  0  0  0  0  0  0  0  0  0  0  0
   39.0349   23.1520   39.2829 H   0  0  0  0  0  0  0  0  0  0  0  0
   37.3233   24.8628   38.6477 H   0  0  0  0  0  0  0  0  0  0  0  0
   40.7973   21.8529   38.6418 H   0  0  0  0  0  0  0  0  0  0  0  0
   40.2970   20.9052   37.1624 H   0  0  0  0  0  0  0  0  0  0  0  0
   41.7538   24.2894   36.4740 H   0  0  0  0  0  0  0  0  0  0  0  0
   44.1369   24.0780   35.5407 H   0  0  0  0  0  0  0  0  0  0  0  0
   46.0852   21.9303   35.2658 H   0  0  0  0  0  0  0  0  0  0  0  0
   46.3720   19.5087   35.7449 H   0  0  0  0  0  0  0  0  0  0  0  0
   44.5011   18.2022   36.8396 H   0  0  0  0  0  0  0  0  0  0  0  0
   42.4294   19.4583   37.3919 H   0  0  0  0  0  0  0  0  0  0  0  0
  1  2  2  0
  1 14  1  0
  3  2  1  0
  4  5  1  0
  4  3  2  0
  5  1  1  0
  7  6  1  0
  8  7  1  0
  9  8  1  0
  9 10  1  0
 10 11  1  0
 10  5  1  1
 10  6  1  0
 11 12  2  0
 13 11  1  0
 14 19  1  0
 15 21  1  0
 15 16  2  0
 17 16  1  0
 18 17  2  0
 19 20  2  0
 19 18  1  0
 20 15  1  0
 22 21  1  0
 23 22  2  0
 24 25  1  0
 24 23  1  0
 25 30  2  0
 26 27  2  0
 26 25  1  0
 27 28  1  0
 28 29  2  0
 30 29  1  0
 30 22  1  0
  2 31  1  0
  4 32  1  0
  6 33  1  0
  7 34  1  0
  7 35  1  0
  8 36  1  0
  8 37  1  0
  9 38  1  0
  9 39  1  0
 13 40  1  0
 16 41  1  0
 17 42  1  0
 21 43  1  0
 21 44  1  0
 23 45  1  0
 24 46  1  0
 26 47  1  0
 27 48  1  0
 28 49  1  0
 29 50  1  0
M  ISO  8  31  14  32  14  33   5  34  13  35  13  36  13  37  13  38  13
M  ISO  8  39  13  40   3  41  14  42  14  43   8  44   8  45  14  46   9
M  ISO  4  47  14  48  14  49  14  50  14
M  END
>  <minimizedAffinity>  (1) 
-5.85896683

>  <minimizedRMSD>  (1) 
1.18543506

$$$$
