
     RDKit          3D

 46 49  0  0  1  0  0  0  0  0999 V2000
   39.1910   25.3580   33.6330 C   0  0  0  0  0  0  0  0  0  0  0  0
   40.5610   25.2230   33.6590 C   0  0  0  0  0  0  0  0  0  0  0  0
   41.0670   26.1610   32.8260 N   0  0  0  0  0  0  0  0  0  0  0  0
   40.0720   26.8750   32.2820 C   0  0  0  0  0  0  0  0  0  0  0  0
   38.9540   26.3800   32.7760 N   0  0  0  0  0  0  0  0  0  0  0  0
   36.8160   26.9930   33.6310 N   0  0  0  0  0  0  0  0  0  0  0  0
   36.2070   28.2690   33.5720 C   0  0  0  0  0  0  0  0  0  0  0  0
   36.2850   28.7070   32.1340 C   0  0  0  0  0  0  0  0  0  0  0  0
   37.6590   28.1620   31.7270 C   0  0  0  0  0  0  0  0  0  0  0  0
   37.6450   26.8570   32.4550 C   0  0  1  0  0  0  0  0  0  0  0  0
   37.0090   25.8030   31.5740 C   0  0  0  0  0  0  0  0  0  0  0  0
   36.0540   25.1390   32.0440 O   0  0  0  0  0  0  0  0  0  0  0  0
   37.4170   25.5220   30.2740 O   0  0  0  0  0  0  0  0  0  0  0  0
   38.3410   24.5560   34.3730 O   0  0  0  0  0  0  0  0  0  0  0  0
   39.7220   22.8280   37.2020 C   0  0  0  0  0  0  0  0  0  0  0  0
   38.9490   23.3460   38.2530 C   0  0  0  0  0  0  0  0  0  0  0  0
   37.9760   24.2790   37.9340 C   0  0  0  0  0  0  0  0  0  0  0  0
   37.8040   24.6510   36.6590 N   0  0  0  0  0  0  0  0  0  0  0  0
   38.5760   24.1250   35.6600 C   0  0  0  0  0  0  0  0  0  0  0  0
   39.5310   23.2130   35.9530 N   0  0  0  0  0  0  0  0  0  0  0  0
   40.7680   21.8330   37.4990 C   0  0  0  0  0  0  0  0  0  0  0  0
   42.0810   22.1950   36.9070 C   0  0  0  0  0  0  0  0  0  0  0  0
   42.9160   21.1700   36.4780 C   0  0  0  0  0  0  0  0  0  0  0  0
   44.1580   21.3650   35.9110 C   0  0  0  0  0  0  0  0  0  0  0  0
   44.5720   22.6760   35.7730 C   0  0  0  0  0  0  0  0  0  0  0  0
   43.7780   23.7400   36.1840 C   0  0  0  0  0  0  0  0  0  0  0  0
   42.5460   23.5020   36.7450 C   0  0  0  0  0  0  0  0  0  0  0  0
   41.1352   24.4911   34.2460 H   0  0  0  0  0  0  0  0  0  0  0  0
   40.1683   27.7060   31.5678 H   0  0  0  0  0  0  0  0  0  0  0  0
   37.3939   26.9173   34.4802 H   0  0  0  0  0  0  0  0  0  0  0  0
   35.1573   28.2055   33.8946 H   0  0  0  0  0  0  0  0  0  0  0  0
   36.7127   28.9850   34.2365 H   0  0  0  0  0  0  0  0  0  0  0  0
   35.4801   28.2592   31.5326 H   0  0  0  0  0  0  0  0  0  0  0  0
   36.1691   29.7909   31.9867 H   0  0  0  0  0  0  0  0  0  0  0  0
   37.7368   28.0218   30.6387 H   0  0  0  0  0  0  0  0  0  0  0  0
   38.5082   28.8184   31.9678 H   0  0  0  0  0  0  0  0  0  0  0  0
   36.9564   24.8182   29.7519 H   0  0  0  0  0  0  0  0  0  0  0  0
   39.1100   23.0228   39.2921 H   0  0  0  0  0  0  0  0  0  0  0  0
   37.3468   24.7128   38.7252 H   0  0  0  0  0  0  0  0  0  0  0  0
   40.8822   21.7561   38.5904 H   0  0  0  0  0  0  0  0  0  0  0  0
   40.4543   20.8758   37.0570 H   0  0  0  0  0  0  0  0  0  0  0  0
   42.5630   20.1352   36.5987 H   0  0  0  0  0  0  0  0  0  0  0  0
   44.7854   20.5220   35.5860 H   0  0  0  0  0  0  0  0  0  0  0  0
   45.5556   22.8829   35.3262 H   0  0  0  0  0  0  0  0  0  0  0  0
   44.1356   24.7729   36.0603 H   0  0  0  0  0  0  0  0  0  0  0  0
   41.9214   24.3475   37.0689 H   0  0  0  0  0  0  0  0  0  0  0  0
  1  2  2  0
  1 14  1  0
  3  2  1  0
  4  5  1  0
  4  3  2  0
  5  1  1  0
  7  6  1  0
  8  7  1  0
  9  8  1  0
  9 10  1  0
 10 11  1  0
 10  5  1  1
 10  6  1  0
 11 12  2  0
 13 11  1  0
 14 19  1  0
 15 21  1  0
 15 16  2  0
 17 16  1  0
 18 17  2  0
 19 20  2  0
 19 18  1  0
 20 15  1  0
 22 21  1  0
 23 22  2  0
 24 23  1  0
 25 24  2  0
 25 26  1  0
 26 27  2  0
 27 22  1  0
  2 28  1  0
  4 29  1  0
  6 30  1  0
  7 31  1  0
  7 32  1  0
  8 33  1  0
  8 34  1  0
  9 35  1  0
  9 36  1  0
 13 37  1  0
 16 38  1  0
 17 39  1  0
 21 40  1  0
 21 41  1  0
 23 42  1  0
 24 43  1  0
 25 44  1  0
 26 45  1  0
 27 46  1  0
M  ISO  8  28  14  29  14  30   5  31  13  32  13  33  13  34  13  35  13
M  ISO  8  36  13  37   3  38  14  39  14  40   8  41   8  42  14  43  14
M  ISO  3  44  14  45  14  46  14
M  END
>  <minimizedAffinity>  (1) 
-5.69089127

>  <minimizedRMSD>  (1) 
0.989451885

$$$$
