
     RDKit          3D

 47 48  0  0  1  0  0  0  0  0999 V2000
   36.7380   26.8140   32.3720 C   0  0  0  0  0  0  0  0  0  0  0  0
   37.4460   26.4520   33.5260 C   0  0  0  0  0  0  0  0  0  0  0  0
   37.3590   27.1660   34.6650 C   0  0  0  0  0  0  0  0  0  0  0  0
   36.5530   28.2820   34.6810 N   0  0  0  0  0  0  0  0  0  0  0  0
   35.8680   28.6340   33.5640 C   0  0  0  0  0  0  0  0  0  0  0  0
   35.9580   27.9280   32.4600 N   0  0  0  0  0  0  0  0  0  0  0  0
   38.1330   26.6600   35.8070 C   0  0  0  0  0  0  0  0  0  0  0  0
   37.8710   25.2260   36.0110 C   0  0  0  0  0  0  0  0  0  0  0  0
   39.0510   24.5220   36.4430 N   0  0  0  0  0  0  0  0  0  0  0  0
   39.6800   23.8460   35.2820 C   0  0  0  0  0  0  0  0  0  0  0  0
   40.6860   22.9500   35.9600 C   0  0  0  0  0  0  0  0  0  0  0  0
   40.0940   22.6560   37.3230 C   0  0  0  0  0  0  0  0  0  0  0  0
   38.7410   23.3700   37.2140 C   0  0  1  0  0  0  0  0  0  0  0  0
   38.3250   23.6900   38.6170 C   0  0  0  0  0  0  0  0  0  0  0  0
   39.3110   23.7320   39.5460 F   0  0  0  0  0  0  0  0  0  0  0  0
   37.2970   22.8290   38.9630 F   0  0  0  0  0  0  0  0  0  0  0  0
   37.7640   24.9890   38.6300 F   0  0  0  0  0  0  0  0  0  0  0  0
   35.0390   29.8750   33.6180 C   0  0  2  0  0  0  0  0  0  0  0  0
   35.7180   30.9630   32.7600 C   0  0  0  0  0  0  0  0  0  0  0  0
   34.8440   30.3980   34.9760 C   0  0  0  0  0  0  0  0  0  0  0  0
   35.8180   31.4010   35.3390 N   0  0  0  0  0  0  0  0  0  0  0  0
   35.5740   32.4800   36.2330 C   0  0  0  0  0  0  0  0  0  0  0  0
   34.9220   32.1150   37.3210 N   0  0  0  0  0  0  0  0  0  0  0  0
   36.0010   33.8270   35.9870 N   0  0  0  0  0  0  0  0  0  0  0  0
   34.6580   32.7560   38.0750 H   0  0  0  0  0  0  0  0  0  0  0  0
   36.8083   26.2291   31.4431 H   0  0  0  0  0  0  0  0  0  0  0  0
   38.0902   25.5607   33.5010 H   0  0  0  0  0  0  0  0  0  0  0  0
   39.2054   26.8081   35.6119 H   0  0  0  0  0  0  0  0  0  0  0  0
   37.8334   27.2092   36.7118 H   0  0  0  0  0  0  0  0  0  0  0  0
   37.0888   25.1124   36.7760 H   0  0  0  0  0  0  0  0  0  0  0  0
   37.5501   24.7973   35.0501 H   0  0  0  0  0  0  0  0  0  0  0  0
   40.1721   24.5691   34.6149 H   0  0  0  0  0  0  0  0  0  0  0  0
   38.9680   23.3108   34.6366 H   0  0  0  0  0  0  0  0  0  0  0  0
   40.8220   22.0198   35.3888 H   0  0  0  0  0  0  0  0  0  0  0  0
   41.6766   23.4225   36.0332 H   0  0  0  0  0  0  0  0  0  0  0  0
   39.9686   21.5752   37.4845 H   0  0  0  0  0  0  0  0  0  0  0  0
   40.7150   22.9873   38.1684 H   0  0  0  0  0  0  0  0  0  0  0  0
   37.9168   22.8099   36.7483 H   0  0  0  0  0  0  0  0  0  0  0  0
   34.0432   29.6090   33.2338 H   0  0  0  0  0  0  0  0  0  0  0  0
   36.1847   31.7108   33.4181 H   0  0  0  0  0  0  0  0  0  0  0  0
   36.4886   30.5014   32.1251 H   0  0  0  0  0  0  0  0  0  0  0  0
   34.9648   31.4524   32.1251 H   0  0  0  0  0  0  0  0  0  0  0  0
   33.8407   30.8445   35.0391 H   0  0  0  0  0  0  0  0  0  0  0  0
   34.9629   29.5558   35.6735 H   0  0  0  0  0  0  0  0  0  0  0  0
   36.7564   31.3297   34.9205 H   0  0  0  0  0  0  0  0  0  0  0  0
   35.7941   34.5664   36.6736 H   0  0  0  0  0  0  0  0  0  0  0  0
   36.5146   34.0549   35.1238 H   0  0  0  0  0  0  0  0  0  0  0  0
  1  6  2  0
  1  2  1  0
  2  3  2  0
  3  4  1  0
  3  7  1  0
  5 18  1  0
  5  4  2  0
  6  5  1  0
  7  8  1  0
  8  9  1  0
  9 13  1  0
 10 11  1  0
 10  9  1  0
 11 12  1  0
 13 12  1  0
 13 14  1  0
 14 17  1  0
 14 16  1  0
 14 15  1  0
 18 20  1  0
 19 18  1  0
 20 21  1  0
 21 22  1  0
 22 23  2  0
 23 25  1  0
 24 22  1  0
  1 26  1  0
  2 27  1  0
  7 28  1  0
  7 29  1  0
  8 30  1  0
  8 31  1  0
 10 32  1  0
 10 33  1  0
 11 34  1  0
 11 35  1  0
 12 36  1  0
 12 37  1  0
 13 38  1  6
 18 39  1  6
 19 40  1  0
 19 41  1  0
 19 42  1  0
 20 43  1  0
 20 44  1  0
 21 45  1  0
 24 46  1  0
 24 47  1  0
M  ISO  8  26  14  27  14  28   8  29   8  30   8  31   8  32  13  33  13
M  ISO  8  34  13  35  13  36  13  37  13  38  13  39   8  40   8  41   8
M  ISO  3  42   8  43   8  44   8
M  END
>  <minimizedAffinity>  (1) 
-5.98060274

>  <minimizedRMSD>  (1) 
1.57245529

$$$$
