
     RDKit          3D

 50 53  0  0  1  0  0  0  0  0999 V2000
   39.1450   26.6110   34.4140 C   0  0  0  0  0  0  0  0  0  0  0  0
   40.4980   26.6810   34.6530 C   0  0  0  0  0  0  0  0  0  0  0  0
   41.0680   27.1460   33.5220 N   0  0  0  0  0  0  0  0  0  0  0  0
   40.1310   27.3660   32.5950 C   0  0  0  0  0  0  0  0  0  0  0  0
   38.9750   27.0380   33.1510 N   0  0  0  0  0  0  0  0  0  0  0  0
   36.6290   27.3930   33.4270 N   0  0  0  0  0  0  0  0  0  0  0  0
   35.8620   28.4640   32.8890 C   0  0  0  0  0  0  0  0  0  0  0  0
   36.1690   28.5150   31.4220 C   0  0  0  0  0  0  0  0  0  0  0  0
   37.6700   28.1780   31.4170 C   0  0  0  0  0  0  0  0  0  0  0  0
   37.7080   27.1290   32.4820 C   0  0  1  0  0  0  0  0  0  0  0  0
   37.4460   25.7680   31.8820 C   0  0  0  0  0  0  0  0  0  0  0  0
   36.8720   24.9140   32.5820 O   0  0  0  0  0  0  0  0  0  0  0  0
   37.8110   25.4190   30.5830 O   0  0  0  0  0  0  0  0  0  0  0  0
   38.2350   26.1720   35.3640 O   0  0  0  0  0  0  0  0  0  0  0  0
   39.4070   23.1300   36.8780 C   0  0  0  0  0  0  0  0  0  0  0  0
   38.8140   23.2080   38.1500 C   0  0  0  0  0  0  0  0  0  0  0  0
   38.0350   24.3120   38.4250 C   0  0  0  0  0  0  0  0  0  0  0  0
   37.8730   25.2490   37.4910 N   0  0  0  0  0  0  0  0  0  0  0  0
   38.4600   25.1510   36.2660 C   0  0  0  0  0  0  0  0  0  0  0  0
   39.2180   24.0880   35.9840 N   0  0  0  0  0  0  0  0  0  0  0  0
   40.2430   21.9640   36.5590 C   0  0  0  0  0  0  0  0  0  0  0  0
   41.5200   22.0910   37.1870 N   0  0  0  0  0  0  0  0  0  0  0  0
   42.4110   23.0410   36.6020 C   0  0  0  0  0  0  0  0  0  0  0  0
   43.2610   22.4990   35.4760 C   0  0  0  0  0  0  0  0  0  0  0  0
   43.9160   21.2510   35.8370 N   0  0  0  0  0  0  0  0  0  0  0  0
   42.8410   20.3280   36.1620 C   0  0  0  0  0  0  0  0  0  0  0  0
   42.2100   20.8700   37.4480 C   0  0  0  0  0  0  0  0  0  0  0  0
   41.0149   26.4103   35.5855 H   0  0  0  0  0  0  0  0  0  0  0  0
   40.2886   27.7440   31.5741 H   0  0  0  0  0  0  0  0  0  0  0  0
   37.0175   27.6605   34.3427 H   0  0  0  0  0  0  0  0  0  0  0  0
   34.7891   28.2791   33.0462 H   0  0  0  0  0  0  0  0  0  0  0  0
   36.1108   29.4164   33.3801 H   0  0  0  0  0  0  0  0  0  0  0  0
   35.5866   27.7682   30.8624 H   0  0  0  0  0  0  0  0  0  0  0  0
   35.9206   29.4733   30.9426 H   0  0  0  0  0  0  0  0  0  0  0  0
   37.9957   27.7826   30.4436 H   0  0  0  0  0  0  0  0  0  0  0  0
   38.3365   29.0358   31.5897 H   0  0  0  0  0  0  0  0  0  0  0  0
   37.6144   24.5111   30.2406 H   0  0  0  0  0  0  0  0  0  0  0  0
   38.9659   22.4169   38.8990 H   0  0  0  0  0  0  0  0  0  0  0  0
   37.5512   24.4186   39.4071 H   0  0  0  0  0  0  0  0  0  0  0  0
   39.7481   21.0510   36.9215 H   0  0  0  0  0  0  0  0  0  0  0  0
   40.3810   21.9063   35.4692 H   0  0  0  0  0  0  0  0  0  0  0  0
   41.8120   23.8754   36.2082 H   0  0  0  0  0  0  0  0  0  0  0  0
   43.1067   23.3457   37.3977 H   0  0  0  0  0  0  0  0  0  0  0  0
   44.0305   23.2431   35.2225 H   0  0  0  0  0  0  0  0  0  0  0  0
   42.6010   22.2997   34.6188 H   0  0  0  0  0  0  0  0  0  0  0  0
   44.4705   20.8936   35.0460 H   0  0  0  0  0  0  0  0  0  0  0  0
   42.0984   20.3020   35.3509 H   0  0  0  0  0  0  0  0  0  0  0  0
   43.2111   19.3002   36.2911 H   0  0  0  0  0  0  0  0  0  0  0  0
   43.0006   21.0521   38.1909 H   0  0  0  0  0  0  0  0  0  0  0  0
   41.4928   20.1301   37.8329 H   0  0  0  0  0  0  0  0  0  0  0  0
  1  2  2  0
  1 14  1  0
  3  2  1  0
  4  5  1  0
  4  3  2  0
  5  1  1  0
  7  6  1  0
  8  7  1  0
  9  8  1  0
  9 10  1  0
 10 11  1  0
 10  5  1  1
 10  6  1  0
 11 12  2  0
 13 11  1  0
 14 19  1  0
 15 16  2  0
 16 17  1  0
 18 17  2  0
 19 18  1  0
 20 19  2  0
 20 15  1  0
 21 15  1  0
 21 22  1  0
 22 27  1  0
 23 22  1  0
 24 25  1  0
 24 23  1  0
 25 26  1  0
 26 27  1  0
  2 28  1  0
  4 29  1  0
  6 30  1  0
  7 31  1  0
  7 32  1  0
  8 33  1  0
  8 34  1  0
  9 35  1  0
  9 36  1  0
 13 37  1  0
 16 38  1  0
 17 39  1  0
 21 40  1  0
 21 41  1  0
 23 42  1  0
 23 43  1  0
 24 44  1  0
 24 45  1  0
 25 46  1  0
 26 47  1  0
 26 48  1  0
 27 49  1  0
 27 50  1  0
M  ISO  8  28  14  29  14  30   5  31  13  32  13  33  13  34  13  35  13
M  ISO  8  36  13  37   3  38  14  39  14  40   8  41   8  42  13  43  13
M  ISO  7  44  13  45  13  46   5  47  13  48  13  49  13  50  13
M  END
>  <minimizedAffinity>  (1) 
-5.2372694

>  <minimizedRMSD>  (1) 
1.42755306

$$$$
