
     RDKit          3D

 43 46  0  0  1  0  0  0  0  0999 V2000
   39.2050   25.4810   33.7950 C   0  0  0  0  0  0  0  0  0  0  0  0
   40.5770   25.3820   33.8980 C   0  0  0  0  0  0  0  0  0  0  0  0
   41.1010   26.3120   33.0690 N   0  0  0  0  0  0  0  0  0  0  0  0
   40.1190   26.9870   32.4530 C   0  0  0  0  0  0  0  0  0  0  0  0
   38.9890   26.4680   32.9060 N   0  0  0  0  0  0  0  0  0  0  0  0
   36.7970   27.0740   33.6330 N   0  0  0  0  0  0  0  0  0  0  0  0
   36.1710   28.3380   33.4950 C   0  0  0  0  0  0  0  0  0  0  0  0
   36.3070   28.7190   32.0390 C   0  0  0  0  0  0  0  0  0  0  0  0
   37.7020   28.1860   31.7250 C   0  0  0  0  0  0  0  0  0  0  0  0
   37.6760   26.9080   32.4960 C   0  0  1  0  0  0  0  0  0  0  0  0
   37.1100   25.8110   31.6360 C   0  0  0  0  0  0  0  0  0  0  0  0
   36.1390   25.1510   32.0850 O   0  0  0  0  0  0  0  0  0  0  0  0
   37.6070   25.4830   30.3650 O   0  0  0  0  0  0  0  0  0  0  0  0
   38.3380   24.6720   34.5110 O   0  0  0  0  0  0  0  0  0  0  0  0
   39.7250   22.8920   37.3010 C   0  0  0  0  0  0  0  0  0  0  0  0
   38.9370   23.3240   38.3560 C   0  0  0  0  0  0  0  0  0  0  0  0
   37.9270   24.2420   38.0500 C   0  0  0  0  0  0  0  0  0  0  0  0
   37.7590   24.6590   36.7930 N   0  0  0  0  0  0  0  0  0  0  0  0
   38.5660   24.2010   35.7810 C   0  0  0  0  0  0  0  0  0  0  0  0
   39.5430   23.3180   36.0580 N   0  0  0  0  0  0  0  0  0  0  0  0
   40.8010   21.9250   37.5820 C   0  0  0  0  0  0  0  0  0  0  0  0
   41.7550   21.8150   36.4190 C   0  0  0  0  0  0  0  0  0  0  0  0
   43.1100   22.4460   36.4850 C   0  0  0  0  0  0  0  0  0  0  0  0
   42.9690   20.9500   36.6500 C   0  0  0  0  0  0  0  0  0  0  0  0
   41.1374   24.6804   34.5333 H   0  0  0  0  0  0  0  0  0  0  0  0
   40.2299   27.8024   31.7231 H   0  0  0  0  0  0  0  0  0  0  0  0
   37.3406   27.0426   34.5073 H   0  0  0  0  0  0  0  0  0  0  0  0
   35.1091   28.2701   33.7738 H   0  0  0  0  0  0  0  0  0  0  0  0
   36.6353   29.0891   34.1510 H   0  0  0  0  0  0  0  0  0  0  0  0
   35.5397   28.2303   31.4206 H   0  0  0  0  0  0  0  0  0  0  0  0
   36.1770   29.7927   31.8382 H   0  0  0  0  0  0  0  0  0  0  0  0
   37.8377   28.0093   30.6478 H   0  0  0  0  0  0  0  0  0  0  0  0
   38.5257   28.8663   31.9870 H   0  0  0  0  0  0  0  0  0  0  0  0
   37.1921   24.7495   29.8454 H   0  0  0  0  0  0  0  0  0  0  0  0
   39.0978   22.9630   39.3826 H   0  0  0  0  0  0  0  0  0  0  0  0
   37.2699   24.6210   38.8466 H   0  0  0  0  0  0  0  0  0  0  0  0
   41.3569   22.2558   38.4717 H   0  0  0  0  0  0  0  0  0  0  0  0
   40.3458   20.9383   37.7528 H   0  0  0  0  0  0  0  0  0  0  0  0
   40.9379   21.8747   35.6850 H   0  0  0  0  0  0  0  0  0  0  0  0
   43.5695   22.8574   35.5742 H   0  0  0  0  0  0  0  0  0  0  0  0
   43.5625   23.2537   37.0791 H   0  0  0  0  0  0  0  0  0  0  0  0
   43.1363   20.4852   37.6328 H   0  0  0  0  0  0  0  0  0  0  0  0
   43.4028   20.0656   36.1605 H   0  0  0  0  0  0  0  0  0  0  0  0
  1  2  2  0
  1 14  1  0
  3  2  1  0
  4  5  1  0
  4  3  2  0
  5  1  1  0
  7  6  1  0
  8  7  1  0
  9  8  1  0
  9 10  1  0
 10 11  1  0
 10  5  1  1
 10  6  1  0
 11 12  2  0
 13 11  1  0
 14 19  1  0
 15 21  1  0
 15 16  2  0
 17 16  1  0
 18 17  2  0
 19 20  2  0
 19 18  1  0
 20 15  1  0
 22 23  1  0
 22 24  1  0
 22 21  1  0
 23 24  1  0
  2 25  1  0
  4 26  1  0
  6 27  1  0
  7 28  1  0
  7 29  1  0
  8 30  1  0
  8 31  1  0
  9 32  1  0
  9 33  1  0
 13 34  1  0
 16 35  1  0
 17 36  1  0
 21 37  1  0
 21 38  1  0
 22 39  1  0
 23 40  1  0
 23 41  1  0
 24 42  1  0
 24 43  1  0
M  ISO  8  25  14  26  14  27   5  28  13  29  13  30  13  31  13  32  13
M  ISO  8  33  13  34   3  35  14  36  14  37   8  38   8  39  13  40  13
M  ISO  3  41  13  42  13  43  13
M  END
>  <minimizedAffinity>  (1) 
-5.2264657

>  <minimizedRMSD>  (1) 
0.170044616

$$$$
