
     RDKit          3D

 46 49  0  0  1  0  0  0  0  0999 V2000
   39.7420   24.6340   33.5530 C   0  0  0  0  0  0  0  0  0  0  0  0
   39.7390   25.9830   33.2990 C   0  0  0  0  0  0  0  0  0  0  0  0
   40.2660   26.5920   34.3810 N   0  0  0  0  0  0  0  0  0  0  0  0
   40.5980   25.6790   35.3020 C   0  0  0  0  0  0  0  0  0  0  0  0
   40.2760   24.4970   34.7880 N   0  0  0  0  0  0  0  0  0  0  0  0
   40.7500   22.1850   34.5120 N   0  0  0  0  0  0  0  0  0  0  0  0
   41.8790   21.4760   34.9930 C   0  0  0  0  0  0  0  0  0  0  0  0
   42.0100   21.8120   36.4540 C   0  0  0  0  0  0  0  0  0  0  0  0
   41.5880   23.2870   36.4500 C   0  0  0  0  0  0  0  0  0  0  0  0
   40.4730   23.2520   35.4600 C   0  0  1  0  0  0  0  0  0  0  0  0
   39.1840   22.9250   36.1450 C   0  0  0  0  0  0  0  0  0  0  0  0
   38.4520   22.0440   35.6330 O   0  0  0  0  0  0  0  0  0  0  0  0
   38.7610   23.5600   37.3260 O   0  0  0  0  0  0  0  0  0  0  0  0
   39.2710   23.6870   32.6560 O   0  0  0  0  0  0  0  0  0  0  0  0
   35.9110   22.5420   32.0720 C   0  0  0  0  0  0  0  0  0  0  0  0
   35.4130   23.5510   31.2580 C   0  0  0  0  0  0  0  0  0  0  0  0
   36.2590   24.6060   30.9310 C   0  0  0  0  0  0  0  0  0  0  0  0
   37.5140   24.6100   31.4100 N   0  0  0  0  0  0  0  0  0  0  0  0
   37.9690   23.6110   32.2030 C   0  0  0  0  0  0  0  0  0  0  0  0
   37.1480   22.5800   32.5240 N   0  0  0  0  0  0  0  0  0  0  0  0
   35.0370   21.4160   32.4330 C   0  0  0  0  0  0  0  0  0  0  0  0
   35.5340   20.1040   32.0220 C   0  0  0  0  0  0  0  0  0  0  0  0
   36.1100   19.9990   30.7570 C   0  0  0  0  0  0  0  0  0  0  0  0
   36.6130   18.8090   30.2660 C   0  0  0  0  0  0  0  0  0  0  0  0
   36.5420   17.6770   31.0620 C   0  0  0  0  0  0  0  0  0  0  0  0
   35.9780   17.7440   32.3190 C   0  0  0  0  0  0  0  0  0  0  0  0
   35.4860   18.9490   32.7750 C   0  0  0  0  0  0  0  0  0  0  0  0
   39.3752   26.4749   32.3849 H   0  0  0  0  0  0  0  0  0  0  0  0
   41.0477   25.8694   36.2877 H   0  0  0  0  0  0  0  0  0  0  0  0
   40.9526   22.5823   33.5836 H   0  0  0  0  0  0  0  0  0  0  0  0
   41.7300   20.3937   34.8647 H   0  0  0  0  0  0  0  0  0  0  0  0
   42.7875   21.7559   34.4395 H   0  0  0  0  0  0  0  0  0  0  0  0
   41.3364   21.2001   37.0719 H   0  0  0  0  0  0  0  0  0  0  0  0
   43.0086   21.6256   36.8759 H   0  0  0  0  0  0  0  0  0  0  0  0
   41.2398   23.6118   37.4416 H   0  0  0  0  0  0  0  0  0  0  0  0
   42.3953   23.9926   36.2042 H   0  0  0  0  0  0  0  0  0  0  0  0
   37.8986   23.3082   37.7418 H   0  0  0  0  0  0  0  0  0  0  0  0
   34.3796   23.5171   30.8827 H   0  0  0  0  0  0  0  0  0  0  0  0
   35.9049   25.4259   30.2888 H   0  0  0  0  0  0  0  0  0  0  0  0
   34.9181   21.4108   33.5265 H   0  0  0  0  0  0  0  0  0  0  0  0
   34.0893   21.5725   31.8968 H   0  0  0  0  0  0  0  0  0  0  0  0
   36.1664   20.8977   30.1253 H   0  0  0  0  0  0  0  0  0  0  0  0
   37.0611   18.7614   29.2625 H   0  0  0  0  0  0  0  0  0  0  0  0
   36.9373   16.7204   30.6897 H   0  0  0  0  0  0  0  0  0  0  0  0
   35.9212   16.8456   32.9512 H   0  0  0  0  0  0  0  0  0  0  0  0
   35.0377   18.9908   33.7786 H   0  0  0  0  0  0  0  0  0  0  0  0
  1  5  1  0
  2  1  2  0
  2  3  1  0
  3  4  2  0
  5  4  1  0
 10  5  1  6
  6  7  1  0
  6 10  1  0
  7  8  1  0
  9  8  1  0
 10 11  1  0
 10  9  1  0
 11 13  1  0
 12 11  2  0
 14  1  1  0
 15 21  1  0
 15 20  1  0
 16 15  2  0
 17 16  1  0
 17 18  2  0
 18 19  1  0
 19 20  2  0
 19 14  1  0
 22 21  1  0
 22 27  1  0
 23 22  2  0
 24 23  1  0
 24 25  2  0
 25 26  1  0
 26 27  2  0
  2 28  1  0
  4 29  1  0
  6 30  1  0
  7 31  1  0
  7 32  1  0
  8 33  1  0
  8 34  1  0
  9 35  1  0
  9 36  1  0
 13 37  1  0
 16 38  1  0
 17 39  1  0
 21 40  1  0
 21 41  1  0
 23 42  1  0
 24 43  1  0
 25 44  1  0
 26 45  1  0
 27 46  1  0
M  ISO  8  28  14  29  14  30   5  31  13  32  13  33  13  34  13  35  13
M  ISO  8  36  13  37   3  38  14  39  14  40   8  41   8  42  14  43  14
M  ISO  3  44  14  45  14  46  14
M  END
>  <minimizedAffinity>  (1) 
-5.19554996

>  <minimizedRMSD>  (1) 
7.35894728

$$$$
