
     RDKit          3D

 43 46  0  0  1  0  0  0  0  0999 V2000
   39.1540   25.4830   33.8110 C   0  0  0  0  0  0  0  0  0  0  0  0
   40.5380   25.3580   33.9100 C   0  0  0  0  0  0  0  0  0  0  0  0
   41.0690   26.2520   33.0420 N   0  0  0  0  0  0  0  0  0  0  0  0
   40.0960   26.9190   32.4160 C   0  0  0  0  0  0  0  0  0  0  0  0
   38.9620   26.4450   32.8880 N   0  0  0  0  0  0  0  0  0  0  0  0
   36.7750   27.0740   33.6030 N   0  0  0  0  0  0  0  0  0  0  0  0
   36.1610   28.3510   33.4590 C   0  0  0  0  0  0  0  0  0  0  0  0
   36.3090   28.7270   32.0110 C   0  0  0  0  0  0  0  0  0  0  0  0
   37.6950   28.1780   31.7000 C   0  0  0  0  0  0  0  0  0  0  0  0
   37.6600   26.8980   32.4710 C   0  0  1  0  0  0  0  0  0  0  0  0
   37.0810   25.7950   31.6170 C   0  0  0  0  0  0  0  0  0  0  0  0
   36.0980   25.1610   32.0750 O   0  0  0  0  0  0  0  0  0  0  0  0
   37.5840   25.4510   30.3580 O   0  0  0  0  0  0  0  0  0  0  0  0
   38.2780   24.7120   34.5650 O   0  0  0  0  0  0  0  0  0  0  0  0
   39.7520   22.8760   37.2760 C   0  0  0  0  0  0  0  0  0  0  0  0
   38.9990   23.2950   38.3600 C   0  0  0  0  0  0  0  0  0  0  0  0
   37.9800   24.2220   38.1210 C   0  0  0  0  0  0  0  0  0  0  0  0
   37.7740   24.6620   36.8640 N   0  0  0  0  0  0  0  0  0  0  0  0
   38.5470   24.2160   35.8260 C   0  0  0  0  0  0  0  0  0  0  0  0
   39.5310   23.3220   36.0560 N   0  0  0  0  0  0  0  0  0  0  0  0
   40.8280   21.9010   37.5130 C   0  0  0  0  0  0  0  0  0  0  0  0
   41.8560   22.1700   36.5130 N   0  0  0  0  0  0  0  0  0  0  0  0
   42.6610   23.2450   36.6000 C   0  0  0  0  0  0  0  0  0  0  0  0
   43.5370   23.2510   35.5210 C   0  0  0  0  0  0  0  0  0  0  0  0
   43.2350   22.1540   34.7880 N   0  0  0  0  0  0  0  0  0  0  0  0
   42.2190   21.5200   35.4060 C   0  0  0  0  0  0  0  0  0  0  0  0
   41.0911   24.6685   34.5647 H   0  0  0  0  0  0  0  0  0  0  0  0
   40.2176   27.7067   31.6579 H   0  0  0  0  0  0  0  0  0  0  0  0
   37.3125   27.0372   34.4809 H   0  0  0  0  0  0  0  0  0  0  0  0
   35.0968   28.2953   33.7316 H   0  0  0  0  0  0  0  0  0  0  0  0
   36.6300   29.0976   34.1168 H   0  0  0  0  0  0  0  0  0  0  0  0
   35.5376   28.2483   31.3898 H   0  0  0  0  0  0  0  0  0  0  0  0
   36.1954   29.8027   31.8111 H   0  0  0  0  0  0  0  0  0  0  0  0
   37.8289   27.9998   30.6228 H   0  0  0  0  0  0  0  0  0  0  0  0
   38.5244   28.8502   31.9648 H   0  0  0  0  0  0  0  0  0  0  0  0
   37.1648   24.7183   29.8408 H   0  0  0  0  0  0  0  0  0  0  0  0
   39.1954   22.9124   39.3724 H   0  0  0  0  0  0  0  0  0  0  0  0
   37.3543   24.5876   38.9486 H   0  0  0  0  0  0  0  0  0  0  0  0
   41.2397   22.0274   38.5252 H   0  0  0  0  0  0  0  0  0  0  0  0
   40.4553   20.8691   37.4339 H   0  0  0  0  0  0  0  0  0  0  0  0
   42.6305   24.0001   37.3993 H   0  0  0  0  0  0  0  0  0  0  0  0
   44.3173   23.9960   35.3063 H   0  0  0  0  0  0  0  0  0  0  0  0
   41.7518   20.5914   35.0461 H   0  0  0  0  0  0  0  0  0  0  0  0
  1  2  2  0
  1 14  1  0
  3  2  1  0
  4  5  1  0
  4  3  2  0
  5  1  1  0
  7  6  1  0
  8  7  1  0
  9  8  1  0
  9 10  1  0
 10 11  1  0
 10  5  1  1
 10  6  1  0
 11 12  2  0
 13 11  1  0
 14 19  1  0
 15 21  1  0
 15 16  2  0
 17 16  1  0
 18 17  2  0
 19 20  2  0
 19 18  1  0
 20 15  1  0
 22 23  1  0
 22 21  1  0
 24 23  2  0
 25 26  2  0
 25 24  1  0
 26 22  1  0
  2 27  1  0
  4 28  1  0
  6 29  1  0
  7 30  1  0
  7 31  1  0
  8 32  1  0
  8 33  1  0
  9 34  1  0
  9 35  1  0
 13 36  1  0
 16 37  1  0
 17 38  1  0
 21 39  1  0
 21 40  1  0
 23 41  1  0
 24 42  1  0
 26 43  1  0
M  ISO  8  27  14  28  14  29   5  30  13  31  13  32  13  33  13  34  13
M  ISO  8  35  13  36   3  37  14  38  14  39   8  40   8  41  14  42  14
M  ISO  1  43  14
M  END
>  <minimizedAffinity>  (1) 
-5.08500719

>  <minimizedRMSD>  (1) 
1.2192837

$$$$
