
     RDKit          3D

 38 40  0  0  1  0  0  0  0  0999 V2000
   39.1940   25.5030   33.7900 C   0  0  0  0  0  0  0  0  0  0  0  0
   40.5680   25.4080   33.8970 C   0  0  0  0  0  0  0  0  0  0  0  0
   41.0920   26.3340   33.0650 N   0  0  0  0  0  0  0  0  0  0  0  0
   40.1090   26.9930   32.4490 C   0  0  0  0  0  0  0  0  0  0  0  0
   38.9700   26.4780   32.8990 N   0  0  0  0  0  0  0  0  0  0  0  0
   36.7850   27.0770   33.6310 N   0  0  0  0  0  0  0  0  0  0  0  0
   36.1620   28.3500   33.4850 C   0  0  0  0  0  0  0  0  0  0  0  0
   36.2930   28.7280   32.0380 C   0  0  0  0  0  0  0  0  0  0  0  0
   37.6870   28.1950   31.7140 C   0  0  0  0  0  0  0  0  0  0  0  0
   37.6570   26.9060   32.4870 C   0  0  1  0  0  0  0  0  0  0  0  0
   37.1030   25.8130   31.6270 C   0  0  0  0  0  0  0  0  0  0  0  0
   36.1260   25.1550   32.0830 O   0  0  0  0  0  0  0  0  0  0  0  0
   37.6030   25.4870   30.3660 O   0  0  0  0  0  0  0  0  0  0  0  0
   38.3350   24.6910   34.5120 O   0  0  0  0  0  0  0  0  0  0  0  0
   39.7520   22.8800   37.2810 C   0  0  0  0  0  0  0  0  0  0  0  0
   38.9470   23.3150   38.3380 C   0  0  0  0  0  0  0  0  0  0  0  0
   37.9390   24.2230   38.0530 C   0  0  0  0  0  0  0  0  0  0  0  0
   37.7690   24.6500   36.7910 N   0  0  0  0  0  0  0  0  0  0  0  0
   38.5760   24.2020   35.7830 C   0  0  0  0  0  0  0  0  0  0  0  0
   39.5490   23.3260   36.0550 N   0  0  0  0  0  0  0  0  0  0  0  0
   40.8330   21.9170   37.5370 C   0  0  0  0  0  0  0  0  0  0  0  0
   42.0040   22.3560   36.8450 N   0  0  0  0  0  0  0  0  0  0  0  0
   41.1284   24.7112   34.5376 H   0  0  0  0  0  0  0  0  0  0  0  0
   40.2198   27.8033   31.7133 H   0  0  0  0  0  0  0  0  0  0  0  0
   37.3332   27.0480   34.5025 H   0  0  0  0  0  0  0  0  0  0  0  0
   35.1004   28.2876   33.7664 H   0  0  0  0  0  0  0  0  0  0  0  0
   36.6352   29.1003   34.1355 H   0  0  0  0  0  0  0  0  0  0  0  0
   35.5224   28.2401   31.4231 H   0  0  0  0  0  0  0  0  0  0  0  0
   36.1644   29.8023   31.8398 H   0  0  0  0  0  0  0  0  0  0  0  0
   37.8178   28.0219   30.6356 H   0  0  0  0  0  0  0  0  0  0  0  0
   38.5145   28.8721   31.9723 H   0  0  0  0  0  0  0  0  0  0  0  0
   37.1921   24.7519   29.8455 H   0  0  0  0  0  0  0  0  0  0  0  0
   39.1082   22.9487   39.3626 H   0  0  0  0  0  0  0  0  0  0  0  0
   37.2827   24.5914   38.8552 H   0  0  0  0  0  0  0  0  0  0  0  0
   41.0370   21.8664   38.6167 H   0  0  0  0  0  0  0  0  0  0  0  0
   40.5390   20.9174   37.1843 H   0  0  0  0  0  0  0  0  0  0  0  0
   42.7255   22.6265   37.5285 H   0  0  0  0  0  0  0  0  0  0  0  0
   42.3604   21.5915   36.2539 H   0  0  0  0  0  0  0  0  0  0  0  0
  1  2  2  0
  1 14  1  0
  3  2  1  0
  4  5  1  0
  4  3  2  0
  5  1  1  0
  7  6  1  0
  8  7  1  0
  9  8  1  0
  9 10  1  0
 10 11  1  0
 10  5  1  1
 10  6  1  0
 11 12  2  0
 13 11  1  0
 14 19  1  0
 15 21  1  0
 15 16  2  0
 17 16  1  0
 18 17  2  0
 19 20  2  0
 19 18  1  0
 20 15  1  0
 22 21  1  0
  2 23  1  0
  4 24  1  0
  6 25  1  0
  7 26  1  0
  7 27  1  0
  8 28  1  0
  8 29  1  0
  9 30  1  0
  9 31  1  0
 13 32  1  0
 16 33  1  0
 17 34  1  0
 21 35  1  0
 21 36  1  0
 22 37  1  0
 22 38  1  0
M  ISO  8  23  14  24  14  25   5  26  13  27  13  28  13  29  13  30  13
M  ISO  8  31  13  32   3  33  14  34  14  35   8  36   8  37   5  38   5
M  END
>  <minimizedAffinity>  (1) 
-4.84875631

>  <minimizedRMSD>  (1) 
0.221399859

$$$$
