
     RDKit          3D

 52 54  0  0  1  0  0  0  0  0999 V2000
   36.6980   26.6090   32.4440 C   0  0  0  0  0  0  0  0  0  0  0  0
   37.3930   26.2410   33.5930 C   0  0  0  0  0  0  0  0  0  0  0  0
   37.3980   27.0190   34.6930 C   0  0  0  0  0  0  0  0  0  0  0  0
   36.6980   28.1920   34.6480 N   0  0  0  0  0  0  0  0  0  0  0  0
   36.0260   28.5570   33.5440 C   0  0  0  0  0  0  0  0  0  0  0  0
   36.0220   27.7960   32.4790 N   0  0  0  0  0  0  0  0  0  0  0  0
   38.1420   26.4950   35.8620 C   0  0  0  0  0  0  0  0  0  0  0  0
   37.9700   25.0390   35.9610 C   0  0  0  0  0  0  0  0  0  0  0  0
   39.1580   24.3850   36.4600 N   0  0  0  0  0  0  0  0  0  0  0  0
   39.8350   23.6730   35.3480 C   0  0  0  0  0  0  0  0  0  0  0  0
   40.8130   22.7940   36.0700 C   0  0  0  0  0  0  0  0  0  0  0  0
   40.2090   22.5920   37.4620 C   0  0  0  0  0  0  0  0  0  0  0  0
   38.8530   23.2660   37.2790 C   0  0  1  0  0  0  0  0  0  0  0  0
   38.3670   23.6430   38.6540 C   0  0  0  0  0  0  0  0  0  0  0  0
   39.3280   23.7480   39.6070 F   0  0  0  0  0  0  0  0  0  0  0  0
   37.3570   22.7760   39.0070 F   0  0  0  0  0  0  0  0  0  0  0  0
   37.7930   24.9260   38.5840 F   0  0  0  0  0  0  0  0  0  0  0  0
   35.3120   29.8680   33.5440 C   0  0  2  0  0  0  0  0  0  0  0  0
   35.8610   30.7270   32.3710 C   0  0  0  0  0  0  0  0  0  0  0  0
   35.5250   30.6510   34.7750 C   0  0  0  0  0  0  0  0  0  0  0  0
   34.8040   31.8840   34.7770 N   0  0  0  0  0  0  0  0  0  0  0  0
   33.4430   31.7520   35.2430 C   0  0  0  0  0  0  0  0  0  0  0  0
   33.5480   31.5910   36.7450 C   0  0  0  0  0  0  0  0  0  0  0  0
   34.8700   32.2300   37.0890 C   0  0  0  0  0  0  0  0  0  0  0  0
   35.3970   32.7530   35.7740 C   0  0  0  0  0  0  0  0  0  0  0  0
   36.6933   25.9720   31.5472 H   0  0  0  0  0  0  0  0  0  0  0  0
   37.9510   25.2931   33.6029 H   0  0  0  0  0  0  0  0  0  0  0  0
   39.2109   26.7277   35.7467 H   0  0  0  0  0  0  0  0  0  0  0  0
   37.7521   26.9658   36.7765 H   0  0  0  0  0  0  0  0  0  0  0  0
   37.1343   24.8260   36.6438 H   0  0  0  0  0  0  0  0  0  0  0  0
   37.7684   24.6518   34.9513 H   0  0  0  0  0  0  0  0  0  0  0  0
   40.3522   24.3786   34.6812 H   0  0  0  0  0  0  0  0  0  0  0  0
   39.1428   23.1166   34.6989 H   0  0  0  0  0  0  0  0  0  0  0  0
   40.9222   21.8298   35.5520 H   0  0  0  0  0  0  0  0  0  0  0  0
   41.8167   23.2418   36.1154 H   0  0  0  0  0  0  0  0  0  0  0  0
   40.1021   21.5250   37.7070 H   0  0  0  0  0  0  0  0  0  0  0  0
   40.8139   22.9970   38.2866 H   0  0  0  0  0  0  0  0  0  0  0  0
   38.0599   22.6604   36.8161 H   0  0  0  0  0  0  0  0  0  0  0  0
   34.2391   29.6420   33.4559 H   0  0  0  0  0  0  0  0  0  0  0  0
   36.4121   31.5892   32.7746 H   0  0  0  0  0  0  0  0  0  0  0  0
   36.5365   30.1162   31.7541 H   0  0  0  0  0  0  0  0  0  0  0  0
   35.0230   31.0836   31.7541 H   0  0  0  0  0  0  0  0  0  0  0  0
   35.1961   30.0499   35.6355 H   0  0  0  0  0  0  0  0  0  0  0  0
   36.5965   30.8931   34.8329 H   0  0  0  0  0  0  0  0  0  0  0  0
   32.8610   32.6509   34.9917 H   0  0  0  0  0  0  0  0  0  0  0  0
   32.9302   30.8991   34.7743 H   0  0  0  0  0  0  0  0  0  0  0  0
   32.7201   32.1078   37.2524 H   0  0  0  0  0  0  0  0  0  0  0  0
   33.4905   30.5396   37.0631 H   0  0  0  0  0  0  0  0  0  0  0  0
   34.7284   33.0530   37.8050 H   0  0  0  0  0  0  0  0  0  0  0  0
   35.5643   31.5205   37.5629 H   0  0  0  0  0  0  0  0  0  0  0  0
   36.4947   32.6901   35.7419 H   0  0  0  0  0  0  0  0  0  0  0  0
   35.1440   33.8112   35.6119 H   0  0  0  0  0  0  0  0  0  0  0  0
  1  6  2  0
  1  2  1  0
  2  3  2  0
  3  7  1  0
  4  3  1  0
  5  4  2  0
  6  5  1  0
  7  8  1  0
  8  9  1  0
  9 13  1  0
 10 11  1  0
 10  9  1  0
 11 12  1  0
 13 12  1  0
 13 14  1  0
 14 16  1  0
 14 15  1  0
 17 14  1  0
 18  5  1  0
 18 20  1  0
 19 18  1  0
 20 21  1  0
 21 22  1  0
 21 25  1  0
 22 23  1  0
 23 24  1  0
 25 24  1  0
  1 26  1  0
  2 27  1  0
  7 28  1  0
  7 29  1  0
  8 30  1  0
  8 31  1  0
 10 32  1  0
 10 33  1  0
 11 34  1  0
 11 35  1  0
 12 36  1  0
 12 37  1  0
 13 38  1  6
 18 39  1  6
 19 40  1  0
 19 41  1  0
 19 42  1  0
 20 43  1  0
 20 44  1  0
 22 45  1  0
 22 46  1  0
 23 47  1  0
 23 48  1  0
 24 49  1  0
 24 50  1  0
 25 51  1  0
 25 52  1  0
M  ISO  8  26  14  27  14  28   8  29   8  30   8  31   8  32  13  33  13
M  ISO  8  34  13  35  13  36  13  37  13  38  13  39   8  40   8  41   8
M  ISO  8  42   8  43   8  44   8  45  13  46  13  47  13  48  13  49  13
M  ISO  3  50  13  51  13  52  13
M  END
>  <minimizedAffinity>  (1) 
-5.93368196

>  <minimizedRMSD>  (1) 
1.21266294

$$$$
