
     RDKit          3D

 49 52  0  0  1  0  0  0  0  0999 V2000
   39.0350   25.6380   33.7080 C   0  0  0  0  0  0  0  0  0  0  0  0
   40.4170   25.5100   33.7700 C   0  0  0  0  0  0  0  0  0  0  0  0
   40.9340   26.3830   32.8810 N   0  0  0  0  0  0  0  0  0  0  0  0
   39.9460   27.0510   32.2680 C   0  0  0  0  0  0  0  0  0  0  0  0
   38.8210   26.5880   32.7790 N   0  0  0  0  0  0  0  0  0  0  0  0
   36.6430   27.2120   33.5520 N   0  0  0  0  0  0  0  0  0  0  0  0
   36.0280   28.4870   33.4300 C   0  0  0  0  0  0  0  0  0  0  0  0
   36.1370   28.8770   31.9820 C   0  0  0  0  0  0  0  0  0  0  0  0
   37.5350   28.3350   31.6390 C   0  0  0  0  0  0  0  0  0  0  0  0
   37.5060   27.0400   32.3930 C   0  0  1  0  0  0  0  0  0  0  0  0
   36.9120   25.9580   31.5400 C   0  0  0  0  0  0  0  0  0  0  0  0
   35.9610   25.3060   32.0080 O   0  0  0  0  0  0  0  0  0  0  0  0
   37.3780   25.6560   30.2570 O   0  0  0  0  0  0  0  0  0  0  0  0
   38.1820   24.8900   34.4880 O   0  0  0  0  0  0  0  0  0  0  0  0
   39.9600   23.1950   37.1330 C   0  0  0  0  0  0  0  0  0  0  0  0
   39.0310   23.2620   38.1580 C   0  0  0  0  0  0  0  0  0  0  0  0
   37.8060   23.8900   37.9230 C   0  0  0  0  0  0  0  0  0  0  0  0
   37.5840   24.4020   36.7100 N   0  0  0  0  0  0  0  0  0  0  0  0
   38.5010   24.3310   35.7110 C   0  0  0  0  0  0  0  0  0  0  0  0
   39.6710   23.7290   35.9480 N   0  0  0  0  0  0  0  0  0  0  0  0
   41.2500   22.5480   37.3410 C   0  0  0  0  0  0  0  0  0  0  0  0
   41.4370   21.2560   36.6150 C   0  0  0  0  0  0  0  0  0  0  0  0
   41.7940   21.5540   35.1680 C   0  0  0  0  0  0  0  0  0  0  0  0
   43.2830   21.8420   35.1950 C   0  0  0  0  0  0  0  0  0  0  0  0
   43.8140   21.1640   36.4510 C   0  0  0  0  0  0  0  0  0  0  0  0
   42.6270   20.4770   37.0760 C   0  0  0  0  0  0  0  0  0  0  0  0
   40.9823   24.8265   34.4205 H   0  0  0  0  0  0  0  0  0  0  0  0
   40.0519   27.8273   31.4959 H   0  0  0  0  0  0  0  0  0  0  0  0
   37.2007   27.1701   34.4170 H   0  0  0  0  0  0  0  0  0  0  0  0
   34.9711   28.4293   33.7294 H   0  0  0  0  0  0  0  0  0  0  0  0
   36.5169   29.2281   34.0794 H   0  0  0  0  0  0  0  0  0  0  0  0
   35.3565   28.3963   31.3739 H   0  0  0  0  0  0  0  0  0  0  0  0
   36.0069   29.9523   31.7900 H   0  0  0  0  0  0  0  0  0  0  0  0
   37.6564   28.1748   30.5575 H   0  0  0  0  0  0  0  0  0  0  0  0
   38.3678   29.0043   31.9008 H   0  0  0  0  0  0  0  0  0  0  0  0
   36.9519   24.9319   29.7333 H   0  0  0  0  0  0  0  0  0  0  0  0
   39.2549   22.8268   39.1431 H   0  0  0  0  0  0  0  0  0  0  0  0
   37.0456   23.9608   38.7147 H   0  0  0  0  0  0  0  0  0  0  0  0
   42.0364   23.2419   37.0092 H   0  0  0  0  0  0  0  0  0  0  0  0
   41.3015   22.3065   38.4129 H   0  0  0  0  0  0  0  0  0  0  0  0
   40.5026   20.6988   36.7777 H   0  0  0  0  0  0  0  0  0  0  0  0
   41.2356   22.4282   34.8020 H   0  0  0  0  0  0  0  0  0  0  0  0
   41.5415   20.7212   34.4951 H   0  0  0  0  0  0  0  0  0  0  0  0
   43.7698   21.4264   34.3004 H   0  0  0  0  0  0  0  0  0  0  0  0
   43.4862   22.9230   35.2017 H   0  0  0  0  0  0  0  0  0  0  0  0
   44.5898   20.4287   36.1912 H   0  0  0  0  0  0  0  0  0  0  0  0
   44.2735   21.8880   37.1400 H   0  0  0  0  0  0  0  0  0  0  0  0
   42.7016   20.4996   38.1732 H   0  0  0  0  0  0  0  0  0  0  0  0
   42.5638   19.4182   36.7846 H   0  0  0  0  0  0  0  0  0  0  0  0
  1  2  2  0
  1 14  1  0
  3  2  1  0
  4  5  1  0
  4  3  2  0
  5  1  1  0
  7  6  1  0
  8  7  1  0
  9  8  1  0
  9 10  1  0
 10 11  1  0
 10  5  1  1
 10  6  1  0
 11 12  2  0
 13 11  1  0
 14 19  1  0
 15 21  1  0
 15 16  2  0
 17 16  1  0
 18 17  2  0
 19 20  2  0
 19 18  1  0
 20 15  1  0
 22 26  1  0
 22 21  1  0
 23 24  1  0
 23 22  1  0
 24 25  1  0
 25 26  1  0
  2 27  1  0
  4 28  1  0
  6 29  1  0
  7 30  1  0
  7 31  1  0
  8 32  1  0
  8 33  1  0
  9 34  1  0
  9 35  1  0
 13 36  1  0
 16 37  1  0
 17 38  1  0
 21 39  1  0
 21 40  1  0
 22 41  1  0
 23 42  1  0
 23 43  1  0
 24 44  1  0
 24 45  1  0
 25 46  1  0
 25 47  1  0
 26 48  1  0
 26 49  1  0
M  ISO  8  27  14  28  14  29   5  30  13  31  13  32  13  33  13  34  13
M  ISO  8  35  13  36   3  37  14  38  14  39   8  40   8  41  13  42  13
M  ISO  7  43  13  44  13  45  13  46  13  47  13  48  13  49  13
M  END
>  <minimizedAffinity>  (1) 
-5.05143118

>  <minimizedRMSD>  (1) 
1.32134795

$$$$
