
     RDKit          3D

 37 39  0  0  1  0  0  0  0  0999 V2000
   39.2140   25.3280   33.6180 C   0  0  0  0  0  0  0  0  0  0  0  0
   40.5900   25.2080   33.6570 C   0  0  0  0  0  0  0  0  0  0  0  0
   41.0960   26.1630   32.8460 N   0  0  0  0  0  0  0  0  0  0  0  0
   40.0850   26.8690   32.3080 C   0  0  0  0  0  0  0  0  0  0  0  0
   38.9690   26.3530   32.7840 N   0  0  0  0  0  0  0  0  0  0  0  0
   36.8340   26.9570   33.6480 N   0  0  0  0  0  0  0  0  0  0  0  0
   36.2230   28.2410   33.5880 C   0  0  0  0  0  0  0  0  0  0  0  0
   36.3020   28.6910   32.1580 C   0  0  0  0  0  0  0  0  0  0  0  0
   37.6760   28.1450   31.7440 C   0  0  0  0  0  0  0  0  0  0  0  0
   37.6630   26.8230   32.4530 C   0  0  1  0  0  0  0  0  0  0  0  0
   37.0270   25.7730   31.5800 C   0  0  0  0  0  0  0  0  0  0  0  0
   36.0610   25.1350   32.0550 O   0  0  0  0  0  0  0  0  0  0  0  0
   37.4540   25.4810   30.2890 O   0  0  0  0  0  0  0  0  0  0  0  0
   38.3700   24.4990   34.3400 O   0  0  0  0  0  0  0  0  0  0  0  0
   39.7150   22.9940   37.3210 C   0  0  0  0  0  0  0  0  0  0  0  0
   38.8100   23.4430   38.2890 C   0  0  0  0  0  0  0  0  0  0  0  0
   37.7590   24.2570   37.8710 C   0  0  0  0  0  0  0  0  0  0  0  0
   37.6530   24.5760   36.5710 N   0  0  0  0  0  0  0  0  0  0  0  0
   38.5500   24.1250   35.6500 C   0  0  0  0  0  0  0  0  0  0  0  0
   39.5630   23.3390   36.0610 N   0  0  0  0  0  0  0  0  0  0  0  0
   40.8320   22.1360   37.7240 C   0  0  0  0  0  0  0  0  0  0  0  0
   40.7910   20.9870   36.9020 O   0  0  0  0  0  0  0  0  0  0  0  0
   41.1654   24.4730   34.2390 H   0  0  0  0  0  0  0  0  0  0  0  0
   40.1725   27.7125   31.6074 H   0  0  0  0  0  0  0  0  0  0  0  0
   37.4173   26.8819   34.4936 H   0  0  0  0  0  0  0  0  0  0  0  0
   35.1724   28.1760   33.9073 H   0  0  0  0  0  0  0  0  0  0  0  0
   36.7319   28.9525   34.2550 H   0  0  0  0  0  0  0  0  0  0  0  0
   35.4954   28.2515   31.5528 H   0  0  0  0  0  0  0  0  0  0  0  0
   36.1898   29.7767   32.0214 H   0  0  0  0  0  0  0  0  0  0  0  0
   37.7533   28.0215   30.6537 H   0  0  0  0  0  0  0  0  0  0  0  0
   38.5259   28.7956   31.9979 H   0  0  0  0  0  0  0  0  0  0  0  0
   36.9954   24.7788   29.7629 H   0  0  0  0  0  0  0  0  0  0  0  0
   38.9245   23.1624   39.3464 H   0  0  0  0  0  0  0  0  0  0  0  0
   37.0245   24.6340   38.5979 H   0  0  0  0  0  0  0  0  0  0  0  0
   41.7852   22.6667   37.5834 H   0  0  0  0  0  0  0  0  0  0  0  0
   40.7510   21.8608   38.7859 H   0  0  0  0  0  0  0  0  0  0  0  0
   40.7621   20.1762   37.4694 H   0  0  0  0  0  0  0  0  0  0  0  0
  1  2  2  0
  1 14  1  0
  3  2  1  0
  4  5  1  0
  4  3  2  0
  5  1  1  0
  7  6  1  0
  8  7  1  0
  9  8  1  0
  9 10  1  0
 10 11  1  0
 10  5  1  1
 10  6  1  0
 11 12  2  0
 13 11  1  0
 14 19  1  0
 15 21  1  0
 15 16  2  0
 17 16  1  0
 18 17  2  0
 19 20  2  0
 19 18  1  0
 20 15  1  0
 22 21  1  0
  2 23  1  0
  4 24  1  0
  6 25  1  0
  7 26  1  0
  7 27  1  0
  8 28  1  0
  8 29  1  0
  9 30  1  0
  9 31  1  0
 13 32  1  0
 16 33  1  0
 17 34  1  0
 21 35  1  0
 21 36  1  0
 22 37  1  0
M  ISO  8  23  14  24  14  25   5  26  13  27  13  28  13  29  13  30  13
M  ISO  7  31  13  32   3  33  14  34  14  35   8  36   8  37   3
M  END
>  <minimizedAffinity>  (1) 
-4.77733803

>  <minimizedRMSD>  (1) 
0.253334165

$$$$
