
     RDKit          3D

 31 34  0  0  0  0  0  0  0  0999 V2000
   38.4830   25.5740   35.6710 C   0  0  0  0  0  0  0  0  0  0  0  0
   38.3810   26.8730   36.2010 C   0  0  0  0  0  0  0  0  0  0  0  0
   37.8320   27.8630   35.4590 C   0  0  0  0  0  0  0  0  0  0  0  0
   37.3820   27.5260   34.1540 C   0  0  0  0  0  0  0  0  0  0  0  0
   37.7860   25.7180   34.0530 S   0  0  0  0  0  0  0  0  0  0  0  0
   36.7330   28.1220   33.0670 C   0  0  0  0  0  0  0  0  0  0  0  0
   35.5030   28.6930   33.2590 N   0  0  0  0  0  0  0  0  0  0  0  0
   34.8310   29.3780   32.3310 C   0  0  0  0  0  0  0  0  0  0  0  0
   35.3290   29.5570   31.1170 N   0  0  0  0  0  0  0  0  0  0  0  0
   36.5430   29.0430   30.7800 C   0  0  0  0  0  0  0  0  0  0  0  0
   37.0570   29.1920   29.5190 C   0  0  0  0  0  0  0  0  0  0  0  0
   38.2770   28.6310   29.1870 C   0  0  0  0  0  0  0  0  0  0  0  0
   38.9230   27.9210   30.2060 C   0  0  0  0  0  0  0  0  0  0  0  0
   38.3620   27.8020   31.4540 C   0  0  0  0  0  0  0  0  0  0  0  0
   37.1550   28.3610   31.7850 C   0  0  0  0  0  0  0  0  0  0  0  0
   38.5570   23.9100   37.5340 C   0  0  0  0  0  0  0  0  0  0  0  0
   39.0250   24.4350   36.3070 C   0  0  0  0  0  0  0  0  0  0  0  0
   40.0820   23.8140   35.6740 C   0  0  0  0  0  0  0  0  0  0  0  0
   40.6050   22.7190   36.2970 N   0  0  0  0  0  0  0  0  0  0  0  0
   40.1610   22.2270   37.4550 C   0  0  0  0  0  0  0  0  0  0  0  0
   39.1300   22.8380   38.0630 N   0  0  0  0  0  0  0  0  0  0  0  0
   38.7468   27.0839   37.2167 H   0  0  0  0  0  0  0  0  0  0  0  0
   37.7380   28.8867   35.8503 H   0  0  0  0  0  0  0  0  0  0  0  0
   33.8464   29.8012   32.5790 H   0  0  0  0  0  0  0  0  0  0  0  0
   36.4952   29.7622   28.7645 H   0  0  0  0  0  0  0  0  0  0  0  0
   38.7133   28.7364   28.1828 H   0  0  0  0  0  0  0  0  0  0  0  0
   39.8965   27.4504   30.0037 H   0  0  0  0  0  0  0  0  0  0  0  0
   38.9056   27.2326   32.2223 H   0  0  0  0  0  0  0  0  0  0  0  0
   37.7147   24.3928   38.0511 H   0  0  0  0  0  0  0  0  0  0  0  0
   40.4817   24.1824   34.7177 H   0  0  0  0  0  0  0  0  0  0  0  0
   40.6297   21.3386   37.9033 H   0  0  0  0  0  0  0  0  0  0  0  0
  1  2  2  0
  1 17  1  0
  3  2  1  0
  4  3  2  0
  5  4  1  0
  5  1  1  0
  6  7  2  0
  6  4  1  0
  8  7  1  0
  9  8  2  0
 10  9  1  0
 10 15  2  0
 11 10  1  0
 12 11  2  0
 12 13  1  0
 13 14  2  0
 14 15  1  0
 15  6  1  0
 16 21  2  0
 17 16  1  0
 18 19  1  0
 18 17  2  0
 19 20  2  0
 20 21  1  0
  2 22  1  0
  3 23  1  0
  8 24  1  0
 11 25  1  0
 12 26  1  0
 13 27  1  0
 14 28  1  0
 16 29  1  0
 18 30  1  0
 20 31  1  0
M  ISO  8  22  14  23  14  24  14  25  14  26  14  27  14  28  14  29  14
M  ISO  2  30  14  31  14
M  END
>  <minimizedAffinity>  (1) 
-5.40134859

>  <minimizedRMSD>  (1) 
1.17725253

$$$$
