
     RDKit          3D

 31 34  0  0  0  0  0  0  0  0999 V2000
   38.3780   25.6360   35.5580 C   0  0  0  0  0  0  0  0  0  0  0  0
   38.3420   26.9520   36.0590 C   0  0  0  0  0  0  0  0  0  0  0  0
   37.7420   27.9170   35.3280 C   0  0  0  0  0  0  0  0  0  0  0  0
   37.1770   27.5110   34.0700 C   0  0  0  0  0  0  0  0  0  0  0  0
   37.5510   25.6720   33.9880 S   0  0  0  0  0  0  0  0  0  0  0  0
   36.4890   28.3190   33.1010 N   0  0  0  0  0  0  0  0  0  0  0  0
   36.8620   28.4440   31.8190 C   0  0  0  0  0  0  0  0  0  0  0  0
   35.9630   29.2800   31.2580 N   0  0  0  0  0  0  0  0  0  0  0  0
   35.0790   29.6480   32.1750 C   0  0  0  0  0  0  0  0  0  0  0  0
   33.9760   30.4730   32.1360 C   0  0  0  0  0  0  0  0  0  0  0  0
   33.6060   31.0700   31.0970 O   0  0  0  0  0  0  0  0  0  0  0  0
   33.2630   30.6460   33.2730 N   0  0  0  0  0  0  0  0  0  0  0  0
   33.5720   30.0510   34.4520 C   0  0  0  0  0  0  0  0  0  0  0  0
   32.8020   30.2530   35.6280 N   0  0  0  0  0  0  0  0  0  0  0  0
   34.6470   29.2460   34.4930 N   0  0  0  0  0  0  0  0  0  0  0  0
   35.3940   29.0430   33.3710 C   0  0  0  0  0  0  0  0  0  0  0  0
   38.5500   23.9330   37.4050 C   0  0  0  0  0  0  0  0  0  0  0  0
   38.9760   24.5160   36.2160 C   0  0  0  0  0  0  0  0  0  0  0  0
   40.0850   23.9750   35.5960 C   0  0  0  0  0  0  0  0  0  0  0  0
   40.7100   22.9120   36.1590 N   0  0  0  0  0  0  0  0  0  0  0  0
   40.2700   22.3660   37.3190 C   0  0  0  0  0  0  0  0  0  0  0  0
   39.1870   22.8940   37.9240 N   0  0  0  0  0  0  0  0  0  0  0  0
   38.7961   27.1908   37.0320 H   0  0  0  0  0  0  0  0  0  0  0  0
   37.6886   28.9587   35.6772 H   0  0  0  0  0  0  0  0  0  0  0  0
   37.7215   27.9651   31.3271 H   0  0  0  0  0  0  0  0  0  0  0  0
   32.4396   31.2640   33.2413 H   0  0  0  0  0  0  0  0  0  0  0  0
   33.0685   29.7833   36.5051 H   0  0  0  0  0  0  0  0  0  0  0  0
   31.9770   30.8692   35.6039 H   0  0  0  0  0  0  0  0  0  0  0  0
   37.6696   24.3415   37.9228 H   0  0  0  0  0  0  0  0  0  0  0  0
   40.4579   24.4028   34.6537 H   0  0  0  0  0  0  0  0  0  0  0  0
   40.7898   21.5032   37.7611 H   0  0  0  0  0  0  0  0  0  0  0  0
  1  2  2  0
  1 18  1  0
  3  2  1  0
  4  3  2  0
  5  4  1  0
  5  1  1  0
  6 16  1  0
  6  4  1  0
  7  6  1  0
  8  7  2  0
  8  9  1  0
  9 16  2  0
 10  9  1  0
 10 12  1  0
 11 10  2  0
 12 13  1  0
 13 15  2  0
 13 14  1  0
 16 15  1  0
 17 22  2  0
 18 17  1  0
 19 20  1  0
 19 18  2  0
 20 21  2  0
 21 22  1  0
  2 23  1  0
  3 24  1  0
  7 25  1  0
 12 26  1  0
 14 27  1  0
 14 28  1  0
 17 29  1  0
 19 30  1  0
 21 31  1  0
M  ISO  7  23  14  24  14  25  14  26   9  29  14  30  14  31  14
M  END
>  <minimizedAffinity>  (1) 
-5.5075469

>  <minimizedRMSD>  (1) 
0.947102308

$$$$
