
     RDKit          3D

 30 33  0  0  0  0  0  0  0  0999 V2000
   38.3980   25.6510   35.5450 C   0  0  0  0  0  0  0  0  0  0  0  0
   38.3140   26.9650   36.0560 C   0  0  0  0  0  0  0  0  0  0  0  0
   37.7290   27.9370   35.3090 C   0  0  0  0  0  0  0  0  0  0  0  0
   37.2310   27.5390   34.0240 C   0  0  0  0  0  0  0  0  0  0  0  0
   37.6350   25.7180   33.9340 S   0  0  0  0  0  0  0  0  0  0  0  0
   38.5090   23.9720   37.4090 C   0  0  0  0  0  0  0  0  0  0  0  0
   38.9790   24.5240   36.1990 C   0  0  0  0  0  0  0  0  0  0  0  0
   40.0770   23.9660   35.5740 C   0  0  0  0  0  0  0  0  0  0  0  0
   40.6470   22.8850   36.1930 N   0  0  0  0  0  0  0  0  0  0  0  0
   40.1970   22.3660   37.3390 C   0  0  0  0  0  0  0  0  0  0  0  0
   39.1250   22.9250   37.9340 N   0  0  0  0  0  0  0  0  0  0  0  0
   36.5970   28.2740   33.0460 N   0  0  0  0  0  0  0  0  0  0  0  0
   36.9110   28.3850   31.7250 C   0  0  0  0  0  0  0  0  0  0  0  0
   35.9940   29.2250   31.1610 N   0  0  0  0  0  0  0  0  0  0  0  0
   35.1270   29.6310   32.0990 C   0  0  0  0  0  0  0  0  0  0  0  0
   34.0310   30.4690   32.0510 C   0  0  0  0  0  0  0  0  0  0  0  0
   33.3340   30.6910   33.2030 N   0  0  0  0  0  0  0  0  0  0  0  0
   33.7110   30.1010   34.3620 C   0  0  0  0  0  0  0  0  0  0  0  0
   34.7820   29.2870   34.3880 N   0  0  0  0  0  0  0  0  0  0  0  0
   35.4940   29.0390   33.2950 C   0  0  0  0  0  0  0  0  0  0  0  0
   33.6000   31.1050   30.8650 N   0  0  0  0  0  0  0  0  0  0  0  0
   38.7193   27.1995   37.0514 H   0  0  0  0  0  0  0  0  0  0  0  0
   37.6419   28.9725   35.6697 H   0  0  0  0  0  0  0  0  0  0  0  0
   37.6350   24.4096   37.9136 H   0  0  0  0  0  0  0  0  0  0  0  0
   40.4726   24.3681   34.6297 H   0  0  0  0  0  0  0  0  0  0  0  0
   40.6945   21.4949   37.7903 H   0  0  0  0  0  0  0  0  0  0  0  0
   37.7471   27.8903   31.2091 H   0  0  0  0  0  0  0  0  0  0  0  0
   33.1407   30.2875   35.2839 H   0  0  0  0  0  0  0  0  0  0  0  0
   32.7752   31.7217   30.8818 H   0  0  0  0  0  0  0  0  0  0  0  0
   34.1106   30.9519   29.9837 H   0  0  0  0  0  0  0  0  0  0  0  0
  1  2  2  0
  1  7  1  0
  3  2  1  0
  4  3  2  0
  5  4  1  0
  5  1  1  0
  6 11  2  0
  7  6  1  0
  8  9  1  0
  8  7  2  0
  9 10  2  0
 10 11  1  0
 12 20  1  0
 12  4  1  0
 13 12  1  0
 14 13  2  0
 14 15  1  0
 15 20  2  0
 16 15  1  0
 16 17  2  0
 17 18  1  0
 18 19  2  0
 20 19  1  0
 21 16  1  0
  2 22  1  0
  3 23  1  0
  6 24  1  0
  8 25  1  0
 10 26  1  0
 13 27  1  0
 18 28  1  0
 21 29  1  0
 21 30  1  0
M  ISO  7  22  14  23  14  24  14  25  14  26  14  27  14  28  14
M  END
>  <minimizedAffinity>  (1) 
-5.46562099

>  <minimizedRMSD>  (1) 
0.955059528

$$$$
