
     RDKit          3D

 31 33  0  0  1  0  0  0  0  0999 V2000
   38.4690   25.4810   35.6060 C   0  0  0  0  0  0  0  0  0  0  0  0
   38.3540   26.7890   36.1320 C   0  0  0  0  0  0  0  0  0  0  0  0
   37.7210   27.7410   35.4020 C   0  0  0  0  0  0  0  0  0  0  0  0
   37.2050   27.3480   34.1260 C   0  0  0  0  0  0  0  0  0  0  0  0
   37.6640   25.5470   34.0130 S   0  0  0  0  0  0  0  0  0  0  0  0
   38.6900   23.7760   37.4260 C   0  0  0  0  0  0  0  0  0  0  0  0
   39.1000   24.3770   36.2390 C   0  0  0  0  0  0  0  0  0  0  0  0
   40.2320   23.8870   35.5770 C   0  0  0  0  0  0  0  0  0  0  0  0
   40.8720   22.8260   36.1550 N   0  0  0  0  0  0  0  0  0  0  0  0
   40.4530   22.2600   37.3100 C   0  0  0  0  0  0  0  0  0  0  0  0
   39.3600   22.7520   37.9260 N   0  0  0  0  0  0  0  0  0  0  0  0
   36.4970   27.9860   33.0620 C   0  0  2  0  0  0  0  0  0  0  0  0
   37.4230   28.2400   31.8980 C   0  0  0  0  0  0  0  0  0  0  0  0
   36.6180   28.7070   30.7200 C   0  0  0  0  0  0  0  0  0  0  0  0
   35.5500   29.6960   31.0590 C   0  0  0  0  0  0  0  0  0  0  0  0
   35.6340   30.2730   32.4310 C   0  0  0  0  0  0  0  0  0  0  0  0
   36.0340   29.3410   33.5190 C   0  0  0  0  0  0  0  0  0  0  0  0
   38.7724   27.0310   37.1201 H   0  0  0  0  0  0  0  0  0  0  0  0
   37.6091   28.7700   35.7743 H   0  0  0  0  0  0  0  0  0  0  0  0
   37.8017   24.1561   37.9518 H   0  0  0  0  0  0  0  0  0  0  0  0
   40.5892   24.3339   34.6375 H   0  0  0  0  0  0  0  0  0  0  0  0
   40.9983   21.4077   37.7416 H   0  0  0  0  0  0  0  0  0  0  0  0
   35.6594   27.3346   32.7719 H   0  0  0  0  0  0  0  0  0  0  0  0
   38.1558   29.0130   32.1726 H   0  0  0  0  0  0  0  0  0  0  0  0
   37.9538   27.3121   31.6386 H   0  0  0  0  0  0  0  0  0  0  0  0
   36.1413   27.8295   30.2587 H   0  0  0  0  0  0  0  0  0  0  0  0
   37.3178   29.2184   30.0427 H   0  0  0  0  0  0  0  0  0  0  0  0
   35.6106   30.5237   30.3371 H   0  0  0  0  0  0  0  0  0  0  0  0
   34.5985   29.1457   31.0162 H   0  0  0  0  0  0  0  0  0  0  0  0
   35.4119   31.3321   32.6283 H   0  0  0  0  0  0  0  0  0  0  0  0
   35.9939   29.6230   34.5815 H   0  0  0  0  0  0  0  0  0  0  0  0
  1  2  2  0
  1  7  1  0
  3  2  1  0
  4  3  2  0
  5  4  1  0
  5  1  1  0
  6 11  2  0
  7  6  1  0
  8  9  1  0
  8  7  2  0
  9 10  2  0
 10 11  1  0
 12 17  1  0
 12  4  1  0
 13 12  1  0
 14 15  1  0
 14 13  1  0
 15 16  1  0
 16 17  2  0
  2 18  1  0
  3 19  1  0
  6 20  1  0
  8 21  1  0
 10 22  1  0
 12 23  1  6
 13 24  1  0
 13 25  1  0
 14 26  1  0
 14 27  1  0
 15 28  1  0
 15 29  1  0
 16 30  1  0
 17 31  1  0
M  ISO  8  18  14  19  14  20  14  21  14  22  14  23  13  24  13  25  13
M  ISO  6  26  13  27  13  28  13  29  13  30  13  31  13
M  END
>  <minimizedAffinity>  (1) 
-4.84076405

>  <minimizedRMSD>  (1) 
0.777151406

$$$$
