
     RDKit          3D

 27 29  0  0  0  0  0  0  0  0999 V2000
   38.2510   25.4220   35.1010 C   0  0  0  0  0  0  0  0  0  0  0  0
   37.3420   26.4930   35.2060 C   0  0  0  0  0  0  0  0  0  0  0  0
   37.0750   27.2460   34.1020 C   0  0  0  0  0  0  0  0  0  0  0  0
   37.7550   26.8790   32.8930 C   0  0  0  0  0  0  0  0  0  0  0  0
   38.7960   25.4070   33.4000 S   0  0  0  0  0  0  0  0  0  0  0  0
   37.9780   24.4150   37.3760 C   0  0  0  0  0  0  0  0  0  0  0  0
   38.6420   24.5460   36.1590 C   0  0  0  0  0  0  0  0  0  0  0  0
   39.7900   23.7840   35.9030 C   0  0  0  0  0  0  0  0  0  0  0  0
   40.1820   22.9430   36.9030 N   0  0  0  0  0  0  0  0  0  0  0  0
   39.5470   22.8150   38.0710 C   0  0  0  0  0  0  0  0  0  0  0  0
   38.4560   23.5530   38.2880 N   0  0  0  0  0  0  0  0  0  0  0  0
   37.6960   27.4360   31.6300 N   0  0  0  0  0  0  0  0  0  0  0  0
   38.8140   28.0430   31.1760 C   0  0  0  0  0  0  0  0  0  0  0  0
   38.8720   28.6390   29.9180 C   0  0  0  0  0  0  0  0  0  0  0  0
   37.7180   28.5790   29.1530 C   0  0  0  0  0  0  0  0  0  0  0  0
   37.7450   29.1140   28.0060 O   0  0  0  0  0  0  0  0  0  0  0  0
   36.6230   27.9670   29.6350 N   0  0  0  0  0  0  0  0  0  0  0  0
   36.5900   27.3910   30.8650 C   0  0  0  0  0  0  0  0  0  0  0  0
   35.5390   26.8340   31.2660 O   0  0  0  0  0  0  0  0  0  0  0  0
   36.8544   26.7184   36.1659 H   0  0  0  0  0  0  0  0  0  0  0  0
   36.3735   28.0926   34.1360 H   0  0  0  0  0  0  0  0  0  0  0  0
   37.0761   25.0083   37.5870 H   0  0  0  0  0  0  0  0  0  0  0  0
   40.3411   23.8594   34.9540 H   0  0  0  0  0  0  0  0  0  0  0  0
   39.9149   22.1168   38.8373 H   0  0  0  0  0  0  0  0  0  0  0  0
   39.7060   28.0675   31.8192 H   0  0  0  0  0  0  0  0  0  0  0  0
   39.7851   29.1309   29.5515 H   0  0  0  0  0  0  0  0  0  0  0  0
   35.7763   27.9333   29.0495 H   0  0  0  0  0  0  0  0  0  0  0  0
  1  2  2  0
  1  7  1  0
  3  2  1  0
  4  5  1  0
  4  3  2  0
  5  1  1  0
  6 11  2  0
  7  6  1  0
  8  7  2  0
  8  9  1  0
  9 10  2  0
 10 11  1  0
 12  4  1  0
 13 12  1  0
 14 13  2  0
 15 17  1  0
 15 14  1  0
 16 15  2  0
 17 18  1  0
 18 19  2  0
 18 12  1  0
  2 20  1  0
  3 21  1  0
  6 22  1  0
  8 23  1  0
 10 24  1  0
 13 25  1  0
 14 26  1  0
 17 27  1  0
M  ISO  8  20  14  21  14  22  14  23  14  24  14  25  14  26  14  27   9
M  END
>  <minimizedAffinity>  (1) 
-5.0972414

>  <minimizedRMSD>  (1) 
1.61583197

$$$$
