
     RDKit          3D

 27 29  0  0  0  0  0  0  0  0999 V2000
   38.6070   25.4830   35.6020 C   0  0  0  0  0  0  0  0  0  0  0  0
   38.3630   26.7340   36.1940 C   0  0  0  0  0  0  0  0  0  0  0  0
   37.7910   27.7170   35.4580 C   0  0  0  0  0  0  0  0  0  0  0  0
   37.4640   27.4080   34.1010 C   0  0  0  0  0  0  0  0  0  0  0  0
   38.0170   25.6380   33.9200 S   0  0  0  0  0  0  0  0  0  0  0  0
   38.7390   23.7530   37.4050 C   0  0  0  0  0  0  0  0  0  0  0  0
   39.1950   24.3530   36.2300 C   0  0  0  0  0  0  0  0  0  0  0  0
   40.3120   23.8230   35.6120 C   0  0  0  0  0  0  0  0  0  0  0  0
   40.9000   22.7400   36.1910 N   0  0  0  0  0  0  0  0  0  0  0  0
   40.4510   22.1780   37.3140 C   0  0  0  0  0  0  0  0  0  0  0  0
   39.3550   22.7020   37.9180 N   0  0  0  0  0  0  0  0  0  0  0  0
   36.8810   28.1280   33.0460 C   0  0  0  0  0  0  0  0  0  0  0  0
   35.8230   28.9690   33.3050 C   0  0  0  0  0  0  0  0  0  0  0  0
   35.3000   29.6490   32.1990 C   0  0  0  0  0  0  0  0  0  0  0  0
   35.8290   29.4770   30.9210 C   0  0  0  0  0  0  0  0  0  0  0  0
   36.8920   28.6230   30.7090 C   0  0  0  0  0  0  0  0  0  0  0  0
   37.4310   27.9310   31.8010 C   0  0  0  0  0  0  0  0  0  0  0  0
   38.6339   26.9133   37.2449 H   0  0  0  0  0  0  0  0  0  0  0  0
   37.5870   28.7097   35.8858 H   0  0  0  0  0  0  0  0  0  0  0  0
   37.8526   24.1615   37.9123 H   0  0  0  0  0  0  0  0  0  0  0  0
   40.7117   24.2606   34.6853 H   0  0  0  0  0  0  0  0  0  0  0  0
   40.9612   21.3034   37.7438 H   0  0  0  0  0  0  0  0  0  0  0  0
   35.4139   29.0987   34.3178 H   0  0  0  0  0  0  0  0  0  0  0  0
   34.4520   30.3349   32.3417 H   0  0  0  0  0  0  0  0  0  0  0  0
   35.3949   30.0273   30.0732 H   0  0  0  0  0  0  0  0  0  0  0  0
   37.3088   28.4881   29.7000 H   0  0  0  0  0  0  0  0  0  0  0  0
   38.2784   27.2428   31.6653 H   0  0  0  0  0  0  0  0  0  0  0  0
  1  2  2  0
  1  7  1  0
  3  2  1  0
  4  3  2  0
  5  4  1  0
  5  1  1  0
  6 11  2  0
  7  6  1  0
  8  9  1  0
  8  7  2  0
  9 10  2  0
 10 11  1  0
 12 13  2  0
 12  4  1  0
 14 13  1  0
 15 14  2  0
 16 15  1  0
 16 17  2  0
 17 12  1  0
  2 18  1  0
  3 19  1  0
  6 20  1  0
  8 21  1  0
 10 22  1  0
 13 23  1  0
 14 24  1  0
 15 25  1  0
 16 26  1  0
 17 27  1  0
M  ISO  8  18  14  19  14  20  14  21  14  22  14  23  14  24  14  25  14
M  ISO  2  26  14  27  14
M  END
>  <minimizedAffinity>  (1) 
-4.81391954

>  <minimizedRMSD>  (1) 
1.07935393

$$$$
