
     RDKit          3D

 24 25  0  0  0  0  0  0  0  0999 V2000
   38.1730   25.6810   35.0250 C   0  0  0  0  0  0  0  0  0  0  0  0
   37.1930   26.6860   35.1430 C   0  0  0  0  0  0  0  0  0  0  0  0
   36.9210   27.4940   34.0940 C   0  0  0  0  0  0  0  0  0  0  0  0
   37.6780   27.2620   32.8970 C   0  0  0  0  0  0  0  0  0  0  0  0
   38.7880   25.8320   33.3640 S   0  0  0  0  0  0  0  0  0  0  0  0
   37.9310   24.6050   37.2740 C   0  0  0  0  0  0  0  0  0  0  0  0
   38.5710   24.7570   36.0300 C   0  0  0  0  0  0  0  0  0  0  0  0
   39.6620   23.9660   35.7290 C   0  0  0  0  0  0  0  0  0  0  0  0
   40.0710   23.0660   36.6650 N   0  0  0  0  0  0  0  0  0  0  0  0
   39.4630   22.9250   37.8440 C   0  0  0  0  0  0  0  0  0  0  0  0
   38.3900   23.7010   38.1400 N   0  0  0  0  0  0  0  0  0  0  0  0
   37.7120   27.8430   31.6350 N   0  0  0  0  0  0  0  0  0  0  0  0
   36.8420   27.3900   30.6060 C   0  0  0  0  0  0  0  0  0  0  0  0
   36.1190   26.3350   30.7730 N   0  0  0  0  0  0  0  0  0  0  0  0
   36.7950   28.1290   29.4030 N   0  0  0  0  0  0  0  0  0  0  0  0
   35.4930   26.0310   30.0000 H   0  0  0  0  0  0  0  0  0  0  0  0
   36.6483   26.8135   36.0901 H   0  0  0  0  0  0  0  0  0  0  0  0
   36.1606   28.2865   34.1546 H   0  0  0  0  0  0  0  0  0  0  0  0
   37.0600   25.2263   37.5297 H   0  0  0  0  0  0  0  0  0  0  0  0
   40.1833   24.0599   34.7650 H   0  0  0  0  0  0  0  0  0  0  0  0
   39.8289   22.1850   38.5710 H   0  0  0  0  0  0  0  0  0  0  0  0
   38.3736   28.6088   31.4435 H   0  0  0  0  0  0  0  0  0  0  0  0
   37.3811   28.9686   29.2911 H   0  0  0  0  0  0  0  0  0  0  0  0
   36.1747   27.8283   28.6377 H   0  0  0  0  0  0  0  0  0  0  0  0
  1  2  2  0
  1  7  1  0
  3  2  1  0
  4  5  1  0
  4  3  2  0
  5  1  1  0
  6 11  2  0
  7  6  1  0
  8  7  2  0
  8  9  1  0
  9 10  2  0
 10 11  1  0
 12  4  1  0
 13 14  2  0
 13 12  1  0
 15 13  1  0
 16 14  1  0
  2 17  1  0
  3 18  1  0
  6 19  1  0
  8 20  1  0
 10 21  1  0
 12 22  1  0
 15 23  1  0
 15 24  1  0
M  ISO  5  17  14  18  14  19  14  20  14  21  14
M  END
>  <minimizedAffinity>  (1) 
-4.60211563

>  <minimizedRMSD>  (1) 
1.00821447

$$$$
