
     RDKit          3D

 24 26  0  0  0  0  0  0  0  0999 V2000
   38.3780   25.6010   35.5950 C   0  0  0  0  0  0  0  0  0  0  0  0
   38.2790   26.9230   36.0810 C   0  0  0  0  0  0  0  0  0  0  0  0
   37.7060   27.8650   35.2930 C   0  0  0  0  0  0  0  0  0  0  0  0
   37.2380   27.4400   34.0060 C   0  0  0  0  0  0  0  0  0  0  0  0
   37.6600   25.6150   33.9770 S   0  0  0  0  0  0  0  0  0  0  0  0
   38.5190   23.9810   37.5190 C   0  0  0  0  0  0  0  0  0  0  0  0
   38.9600   24.5070   36.3070 C   0  0  0  0  0  0  0  0  0  0  0  0
   40.0840   23.9340   35.6960 C   0  0  0  0  0  0  0  0  0  0  0  0
   40.6630   22.8900   36.3570 N   0  0  0  0  0  0  0  0  0  0  0  0
   40.2270   22.3990   37.5190 C   0  0  0  0  0  0  0  0  0  0  0  0
   39.1470   22.9630   38.0860 N   0  0  0  0  0  0  0  0  0  0  0  0
   36.6020   28.2530   33.0040 N   0  0  0  0  0  0  0  0  0  0  0  0
   35.5010   28.8850   33.3750 N   0  0  0  0  0  0  0  0  0  0  0  0
   35.0600   29.5900   32.2940 C   0  0  0  0  0  0  0  0  0  0  0  0
   35.9650   29.3380   31.2620 C   0  0  0  0  0  0  0  0  0  0  0  0
   36.9500   28.4730   31.7420 C   0  0  0  0  0  0  0  0  0  0  0  0
   38.6595   27.1832   37.0797 H   0  0  0  0  0  0  0  0  0  0  0  0
   37.6045   28.9086   35.6257 H   0  0  0  0  0  0  0  0  0  0  0  0
   37.6374   24.4172   38.0114 H   0  0  0  0  0  0  0  0  0  0  0  0
   40.4770   24.3049   34.7379 H   0  0  0  0  0  0  0  0  0  0  0  0
   40.7393   21.5532   38.0009 H   0  0  0  0  0  0  0  0  0  0  0  0
   34.1672   30.2308   32.2452 H   0  0  0  0  0  0  0  0  0  0  0  0
   35.9113   29.7507   30.2438 H   0  0  0  0  0  0  0  0  0  0  0  0
   37.8161   28.0668   31.1989 H   0  0  0  0  0  0  0  0  0  0  0  0
  1  2  2  0
  1  7  1  0
  3  2  1  0
  4  3  2  0
  5  4  1  0
  5  1  1  0
  6 11  2  0
  7  6  1  0
  8  7  2  0
  8  9  1  0
  9 10  2  0
 10 11  1  0
 12 13  1  0
 12  4  1  0
 14 13  2  0
 15 16  2  0
 15 14  1  0
 16 12  1  0
  2 17  1  0
  3 18  1  0
  6 19  1  0
  8 20  1  0
 10 21  1  0
 14 22  1  0
 15 23  1  0
 16 24  1  0
M  ISO  8  17  14  18  14  19  14  20  14  21  14  22  14  23  14  24  14
M  END
>  <minimizedAffinity>  (1) 
-4.46450901

>  <minimizedRMSD>  (1) 
0.81359756

$$$$
