
     RDKit          3D

 20 21  0  0  0  0  0  0  0  0999 V2000
   38.2630   25.6510   35.4930 C   0  0  0  0  0  0  0  0  0  0  0  0
   38.0590   26.9790   35.9110 C   0  0  0  0  0  0  0  0  0  0  0  0
   37.5060   27.8690   35.0480 C   0  0  0  0  0  0  0  0  0  0  0  0
   37.1660   27.3770   33.7520 C   0  0  0  0  0  0  0  0  0  0  0  0
   37.6690   25.5780   33.8140 S   0  0  0  0  0  0  0  0  0  0  0  0
   38.3430   24.1700   37.5220 C   0  0  0  0  0  0  0  0  0  0  0  0
   38.8310   24.5930   36.2660 C   0  0  0  0  0  0  0  0  0  0  0  0
   39.9330   23.9670   35.7190 C   0  0  0  0  0  0  0  0  0  0  0  0
   40.4890   22.9520   36.4530 N   0  0  0  0  0  0  0  0  0  0  0  0
   40.0230   22.5570   37.6390 C   0  0  0  0  0  0  0  0  0  0  0  0
   38.9400   23.1800   38.1680 N   0  0  0  0  0  0  0  0  0  0  0  0
   36.5710   28.0540   32.6200 C   0  0  0  0  0  0  0  0  0  0  0  0
   35.9890   29.2390   33.0820 F   0  0  0  0  0  0  0  0  0  0  0  0
   35.6170   27.2440   32.0580 F   0  0  0  0  0  0  0  0  0  0  0  0
   37.5870   28.3730   31.7450 F   0  0  0  0  0  0  0  0  0  0  0  0
   38.3445   27.2925   36.9260 H   0  0  0  0  0  0  0  0  0  0  0  0
   37.3288   28.9165   35.3331 H   0  0  0  0  0  0  0  0  0  0  0  0
   37.4653   24.6638   37.9645 H   0  0  0  0  0  0  0  0  0  0  0  0
   40.3439   24.2675   34.7439 H   0  0  0  0  0  0  0  0  0  0  0  0
   40.5117   21.7348   38.1823 H   0  0  0  0  0  0  0  0  0  0  0  0
  1  2  2  0
  1  7  1  0
  3  2  1  0
  4  5  1  0
  4  3  2  0
  5  1  1  0
  6 11  2  0
  7  6  1  0
  8  7  2  0
  8  9  1  0
  9 10  2  0
 10 11  1  0
 12 13  1  0
 12  4  1  0
 14 12  1  0
 15 12  1  0
  2 16  1  0
  3 17  1  0
  6 18  1  0
  8 19  1  0
 10 20  1  0
M  ISO  5  16  14  17  14  18  14  19  14  20  14
M  END
>  <minimizedAffinity>  (1) 
-4.30340815

>  <minimizedRMSD>  (1) 
0.320229918

$$$$
