
     RDKit          3D

 18 19  0  0  0  0  0  0  0  0999 V2000
   38.3760   24.0560   37.3990 C   0  0  0  0  0  0  0  0  0  0  0  0
   38.8640   24.4990   36.1550 C   0  0  0  0  0  0  0  0  0  0  0  0
   40.0330   23.9610   35.6500 C   0  0  0  0  0  0  0  0  0  0  0  0
   40.6610   23.0130   36.3980 N   0  0  0  0  0  0  0  0  0  0  0  0
   40.1840   22.5910   37.5940 C   0  0  0  0  0  0  0  0  0  0  0  0
   39.0530   23.1180   38.0740 N   0  0  0  0  0  0  0  0  0  0  0  0
   38.2330   25.4950   35.3440 C   0  0  0  0  0  0  0  0  0  0  0  0
   37.9280   26.8110   35.7390 C   0  0  0  0  0  0  0  0  0  0  0  0
   37.3270   27.6490   34.8590 C   0  0  0  0  0  0  0  0  0  0  0  0
   37.0440   27.0990   33.5570 C   0  0  0  0  0  0  0  0  0  0  0  0
   37.6770   25.3470   33.6620 S   0  0  0  0  0  0  0  0  0  0  0  0
   36.2900   27.8410   32.1630 S   0  0  0  0  0  0  0  0  0  0  0  0
   37.4474   24.4763   37.8127 H   0  0  0  0  0  0  0  0  0  0  0  0
   40.4399   24.2864   34.6812 H   0  0  0  0  0  0  0  0  0  0  0  0
   40.7230   21.8210   38.1654 H   0  0  0  0  0  0  0  0  0  0  0  0
   38.1753   27.1568   36.7535 H   0  0  0  0  0  0  0  0  0  0  0  0
   37.0708   28.6858   35.1226 H   0  0  0  0  0  0  0  0  0  0  0  0
   35.3599   28.7563   32.5800 H   0  0  0  0  0  0  0  0  0  0  0  0
  1  6  2  0
  2  1  1  0
  3  2  2  0
  3  4  1  0
  4  5  2  0
  5  6  1  0
  7  8  2  0
  7  2  1  0
  9  8  1  0
 10 11  1  0
 10  9  2  0
 11  7  1  0
 12 10  1  0
  1 13  1  0
  3 14  1  0
  5 15  1  0
  8 16  1  0
  9 17  1  0
 12 18  1  0
M  ISO  6  13  14  14  14  15  14  16  14  17  14  18  11
M  END
>  <minimizedAffinity>  (1) 
-3.74076843

>  <minimizedRMSD>  (1) 
0.0279018208

$$$$
