
     RDKit          3D

 20 21  0  0  0  0  0  0  0  0999 V2000
   38.3840   24.0560   37.4010 C   0  0  0  0  0  0  0  0  0  0  0  0
   38.8470   24.5070   36.1640 C   0  0  0  0  0  0  0  0  0  0  0  0
   40.0100   23.9510   35.6710 C   0  0  0  0  0  0  0  0  0  0  0  0
   40.6490   23.0020   36.3950 N   0  0  0  0  0  0  0  0  0  0  0  0
   40.1740   22.5850   37.5950 C   0  0  0  0  0  0  0  0  0  0  0  0
   39.0320   23.1290   38.0830 N   0  0  0  0  0  0  0  0  0  0  0  0
   38.2320   25.5030   35.3490 C   0  0  0  0  0  0  0  0  0  0  0  0
   37.9340   26.8230   35.7540 C   0  0  0  0  0  0  0  0  0  0  0  0
   37.3450   27.6610   34.8630 C   0  0  0  0  0  0  0  0  0  0  0  0
   37.0670   27.1260   33.5580 C   0  0  0  0  0  0  0  0  0  0  0  0
   37.6880   25.3670   33.6640 S   0  0  0  0  0  0  0  0  0  0  0  0
   36.4570   27.7560   32.4120 C   0  0  0  0  0  0  0  0  0  0  0  0
   37.4591   24.4820   37.8171 H   0  0  0  0  0  0  0  0  0  0  0  0
   40.4134   24.2753   34.7004 H   0  0  0  0  0  0  0  0  0  0  0  0
   40.7100   21.8131   38.1667 H   0  0  0  0  0  0  0  0  0  0  0  0
   38.1745   27.1652   36.7714 H   0  0  0  0  0  0  0  0  0  0  0  0
   37.0928   28.6987   35.1268 H   0  0  0  0  0  0  0  0  0  0  0  0
   35.7291   28.5078   32.7511 H   0  0  0  0  0  0  0  0  0  0  0  0
   37.2337   28.2450   31.8057 H   0  0  0  0  0  0  0  0  0  0  0  0
   35.9432   26.9955   31.8057 H   0  0  0  0  0  0  0  0  0  0  0  0
  1  6  2  0
  2  1  1  0
  3  2  2  0
  3  4  1  0
  4  5  2  0
  5  6  1  0
  7  8  2  0
  7  2  1  0
  9  8  1  0
 10 11  1  0
 10  9  2  0
 11  7  1  0
 12 10  1  0
  1 13  1  0
  3 14  1  0
  5 15  1  0
  8 16  1  0
  9 17  1  0
 12 18  1  0
 12 19  1  0
 12 20  1  0
M  ISO  8  13  14  14  14  15  14  16  14  17  14  18   8  19   8  20   8
M  END
>  <minimizedAffinity>  (1) 
-3.80012679

>  <minimizedRMSD>  (1) 
0.0336514041

$$$$
