
     RDKit          3D

 19 20  0  0  0  0  0  0  0  0999 V2000
   38.2290   25.4910   35.3490 C   0  0  0  0  0  0  0  0  0  0  0  0
   37.9260   26.8090   35.7390 C   0  0  0  0  0  0  0  0  0  0  0  0
   37.3350   27.6440   34.8640 C   0  0  0  0  0  0  0  0  0  0  0  0
   37.0500   27.1000   33.5540 C   0  0  0  0  0  0  0  0  0  0  0  0
   37.6790   25.3460   33.6700 S   0  0  0  0  0  0  0  0  0  0  0  0
   38.3600   24.0620   37.4150 C   0  0  0  0  0  0  0  0  0  0  0  0
   38.8550   24.4990   36.1690 C   0  0  0  0  0  0  0  0  0  0  0  0
   40.0250   23.9560   35.6630 C   0  0  0  0  0  0  0  0  0  0  0  0
   40.6500   23.0050   36.4110 N   0  0  0  0  0  0  0  0  0  0  0  0
   40.1820   22.5900   37.5910 C   0  0  0  0  0  0  0  0  0  0  0  0
   39.0550   23.1180   38.0720 N   0  0  0  0  0  0  0  0  0  0  0  0
   36.4520   27.6930   32.4340 N   0  0  0  0  0  0  0  0  0  0  0  0
   38.1710   27.1551   36.7540 H   0  0  0  0  0  0  0  0  0  0  0  0
   37.0830   28.6812   35.1299 H   0  0  0  0  0  0  0  0  0  0  0  0
   37.4340   24.4807   37.8360 H   0  0  0  0  0  0  0  0  0  0  0  0
   40.4333   24.2805   34.6945 H   0  0  0  0  0  0  0  0  0  0  0  0
   40.7211   21.8194   38.1615 H   0  0  0  0  0  0  0  0  0  0  0  0
   36.1386   28.6733   32.4760 H   0  0  0  0  0  0  0  0  0  0  0  0
   36.3259   27.1486   31.5688 H   0  0  0  0  0  0  0  0  0  0  0  0
  1  2  2  0
  1  7  1  0
  3  2  1  0
  4  5  1  0
  4  3  2  0
  5  1  1  0
  6 11  2  0
  7  6  1  0
  8  7  2  0
  8  9  1  0
  9 10  2  0
 10 11  1  0
 12  4  1  0
  2 13  1  0
  3 14  1  0
  6 15  1  0
  8 16  1  0
 10 17  1  0
 12 18  1  0
 12 19  1  0
M  ISO  5  13  14  14  14  15  14  16  14  17  14
M  END
>  <minimizedAffinity>  (1) 
-3.72919559

>  <minimizedRMSD>  (1) 
0.0271745194

$$$$
