
     RDKit          3D

 42 45  0  0  1  0  0  0  0  0999 V2000
   36.1570   29.4950   32.4500 C   0  0  0  0  0  0  0  0  0  0  0  0
   36.8960   28.5430   31.7960 C   0  0  0  0  0  0  0  0  0  0  0  0
   37.2680   27.4010   32.5030 C   0  0  0  0  0  0  0  0  0  0  0  0
   36.8980   27.2490   33.8140 C   0  0  0  0  0  0  0  0  0  0  0  0
   36.1620   28.1940   34.4700 C   0  0  0  0  0  0  0  0  0  0  0  0
   35.7870   29.3290   33.7860 C   0  0  0  0  0  0  0  0  0  0  0  0
   37.3860   25.9740   34.3970 C   0  0  0  0  0  0  0  0  0  0  0  0
   38.7810   26.0360   34.9070 C   0  0  2  0  0  0  0  0  0  0  0  0
   40.7370   23.1810   36.1160 C   0  0  0  0  0  0  0  0  0  0  0  0
   39.9380   22.6560   37.1650 C   0  0  0  0  0  0  0  0  0  0  0  0
   38.7120   23.2960   37.4540 C   0  0  0  0  0  0  0  0  0  0  0  0
   38.3830   24.3870   36.6910 N   0  0  0  0  0  0  0  0  0  0  0  0
   39.1750   24.8550   35.6990 C   0  0  0  0  0  0  0  0  0  0  0  0
   40.3470   24.2660   35.4020 N   0  0  0  0  0  0  0  0  0  0  0  0
   38.9090   27.2720   35.8140 C   0  0  0  0  0  0  0  0  0  0  0  0
   35.6820   30.9400   31.5700 S   0  0  0  0  0  0  0  0  0  0  0  0
   36.2260   30.8050   30.1590 O   0  0  0  0  0  0  0  0  0  0  0  0
   36.2580   32.1650   32.1940 O   0  0  0  0  0  0  0  0  0  0  0  0
   33.9430   31.0630   31.5150 C   0  0  0  0  0  0  0  0  0  0  0  0
   32.9420   30.6300   32.2860 N   0  0  0  0  0  0  0  0  0  0  0  0
   31.7970   30.9970   31.7960 O   0  0  0  0  0  0  0  0  0  0  0  0
   32.0000   31.6840   30.6830 C   0  0  0  0  0  0  0  0  0  0  0  0
   33.3050   31.7170   30.5210 N   0  0  0  0  0  0  0  0  0  0  0  0
   31.0600   32.3110   29.7600 C   0  0  0  0  0  0  0  0  0  0  0  0
   30.6340   31.8070   28.5860 N   0  0  0  0  0  0  0  0  0  0  0  0
   29.8000   32.6290   28.0240 O   0  0  0  0  0  0  0  0  0  0  0  0
   29.6280   33.6890   28.7630 C   0  0  0  0  0  0  0  0  0  0  0  0
   30.4090   33.5070   29.8530 N   0  0  0  0  0  0  0  0  0  0  0  0
   37.1869   28.6768   30.7436 H   0  0  0  0  0  0  0  0  0  0  0  0
   37.8609   26.6185   32.0069 H   0  0  0  0  0  0  0  0  0  0  0  0
   35.8748   28.0517   35.5223 H   0  0  0  0  0  0  0  0  0  0  0  0
   35.1953   30.1056   34.2928 H   0  0  0  0  0  0  0  0  0  0  0  0
   36.7245   25.7002   35.2321 H   0  0  0  0  0  0  0  0  0  0  0  0
   37.3766   25.2299   33.5869 H   0  0  0  0  0  0  0  0  0  0  0  0
   39.4410   26.0794   34.0281 H   0  0  0  0  0  0  0  0  0  0  0  0
   41.6951   22.6965   35.8765 H   0  0  0  0  0  0  0  0  0  0  0  0
   40.2643   21.7751   37.7373 H   0  0  0  0  0  0  0  0  0  0  0  0
   38.0507   22.9352   38.2555 H   0  0  0  0  0  0  0  0  0  0  0  0
   38.8765   26.9584   36.8679 H   0  0  0  0  0  0  0  0  0  0  0  0
   39.8644   27.7782   35.6113 H   0  0  0  0  0  0  0  0  0  0  0  0
   38.0776   27.9632   35.6113 H   0  0  0  0  0  0  0  0  0  0  0  0
   28.9820   34.5524   28.5456 H   0  0  0  0  0  0  0  0  0  0  0  0
  1  6  1  0
  2  1  2  0
  2  3  1  0
  3  4  2  0
  4  7  1  0
  4  5  1  0
  6  5  2  0
  7  8  1  0
  8 13  1  0
  8 15  1  0
  9 10  2  0
 10 11  1  0
 12 11  2  0
 13 12  1  0
 14 13  2  0
 14  9  1  0
 16 18  2  0
 16  1  1  0
 17 16  2  0
 19 16  1  0
 19 20  2  0
 21 20  1  0
 22 21  1  0
 23 22  2  0
 23 19  1  0
 24 28  1  0
 24 22  1  0
 25 24  2  0
 26 25  1  0
 26 27  1  0
 27 28  2  0
  2 29  1  0
  3 30  1  0
  5 31  1  0
  6 32  1  0
  7 33  1  0
  7 34  1  0
  8 35  1  6
  9 36  1  0
 10 37  1  0
 11 38  1  0
 15 39  1  0
 15 40  1  0
 15 41  1  0
 27 42  1  0
M  ISO  8  29  14  30  14  31  14  32  14  33   8  34   8  35   8  36  14
M  ISO  6  37  14  38  14  39   8  40   8  41   8  42  14
M  END
>  <minimizedAffinity>  (1) 
-5.30295706

>  <minimizedRMSD>  (1) 
0.909309983

$$$$
