
     RDKit          3D

 37 39  0  0  1  0  0  0  0  0999 V2000
   36.3320   27.3910   32.5440 N   0  0  0  0  0  0  0  0  0  0  0  0
   35.5800   28.6440   32.6150 C   0  0  0  0  0  0  0  0  0  0  0  0
   36.5160   29.6040   31.8700 C   0  0  0  0  0  0  0  0  0  0  0  0
   36.9110   29.1750   30.5950 N   0  0  0  0  0  0  0  0  0  0  0  0
   36.6330   27.8540   30.1680 C   0  0  0  0  0  0  0  0  0  0  0  0
   36.3270   26.8320   31.2020 C   0  0  2  0  0  0  0  0  0  0  0  0
   38.3380   25.2890   35.3940 C   0  0  0  0  0  0  0  0  0  0  0  0
   37.9540   26.5830   35.7750 C   0  0  0  0  0  0  0  0  0  0  0  0
   37.2780   27.3450   34.8810 C   0  0  0  0  0  0  0  0  0  0  0  0
   37.0050   26.7750   33.6090 C   0  0  0  0  0  0  0  0  0  0  0  0
   37.7570   25.0780   33.7250 S   0  0  0  0  0  0  0  0  0  0  0  0
   38.6170   23.8600   37.4350 C   0  0  0  0  0  0  0  0  0  0  0  0
   39.0570   24.3340   36.1860 C   0  0  0  0  0  0  0  0  0  0  0  0
   40.2420   23.8690   35.6850 C   0  0  0  0  0  0  0  0  0  0  0  0
   40.9380   22.9650   36.4230 N   0  0  0  0  0  0  0  0  0  0  0  0
   40.5100   22.5190   37.6140 C   0  0  0  0  0  0  0  0  0  0  0  0
   39.3280   22.9770   38.1240 N   0  0  0  0  0  0  0  0  0  0  0  0
   35.1910   25.9170   30.9360 C   0  0  0  0  0  0  0  0  0  0  0  0
   35.4290   24.4590   31.0250 C   0  0  0  0  0  0  0  0  0  0  0  0
   34.6069   28.5580   32.1093 H   0  0  0  0  0  0  0  0  0  0  0  0
   35.3332   28.9619   33.6387 H   0  0  0  0  0  0  0  0  0  0  0  0
   35.9989   30.5687   31.7606 H   0  0  0  0  0  0  0  0  0  0  0  0
   37.4346   29.6671   32.4718 H   0  0  0  0  0  0  0  0  0  0  0  0
   36.4601   29.8062   29.9174 H   0  0  0  0  0  0  0  0  0  0  0  0
   35.7659   27.9050   29.4931 H   0  0  0  0  0  0  0  0  0  0  0  0
   37.5745   27.5101   29.7149 H   0  0  0  0  0  0  0  0  0  0  0  0
   37.1766   26.1372   31.1291 H   0  0  0  0  0  0  0  0  0  0  0  0
   38.1958   26.9703   36.7758 H   0  0  0  0  0  0  0  0  0  0  0  0
   36.9532   28.3658   35.1309 H   0  0  0  0  0  0  0  0  0  0  0  0
   37.6662   24.2281   37.8480 H   0  0  0  0  0  0  0  0  0  0  0  0
   40.6205   24.2170   34.7126 H   0  0  0  0  0  0  0  0  0  0  0  0
   41.1082   21.7877   38.1774 H   0  0  0  0  0  0  0  0  0  0  0  0
   34.8352   26.1273   29.9166 H   0  0  0  0  0  0  0  0  0  0  0  0
   34.4783   26.1258   31.7475 H   0  0  0  0  0  0  0  0  0  0  0  0
   35.4779   24.1593   32.0823 H   0  0  0  0  0  0  0  0  0  0  0  0
   34.6066   23.9223   30.5294 H   0  0  0  0  0  0  0  0  0  0  0  0
   36.3794   24.2117   30.5294 H   0  0  0  0  0  0  0  0  0  0  0  0
  1  2  1  0
  1 10  1  0
  3  2  1  0
  4  3  1  0
  5  4  1  0
  5  6  1  0
  6  1  1  0
  7  8  2  0
  7 13  1  0
  9  8  1  0
 10 11  1  0
 10  9  2  0
 11  7  1  0
 12 17  2  0
 13 12  1  0
 14 13  2  0
 14 15  1  0
 15 16  2  0
 16 17  1  0
 18 19  1  0
 18  6  1  0
  2 20  1  0
  2 21  1  0
  3 22  1  0
  3 23  1  0
  4 24  1  0
  5 25  1  0
  5 26  1  0
  6 27  1  1
  8 28  1  0
  9 29  1  0
 12 30  1  0
 14 31  1  0
 16 32  1  0
 18 33  1  0
 18 34  1  0
 19 35  1  0
 19 36  1  0
 19 37  1  0
M  ISO  8  20  13  21  13  22  13  23  13  24   5  25  13  26  13  27  13
M  ISO  8  28  14  29  14  30  14  31  14  32  14  33   8  34   8  35   8
M  ISO  2  36   8  37   8
M  END
>  <minimizedAffinity>  (1) 
-4.94485474

>  <minimizedRMSD>  (1) 
0.695454061

$$$$
