
     RDKit          3D

 45 49  0  0  1  0  0  0  0  0999 V2000
   37.9380   27.2670   32.5570 N   0  0  0  0  0  0  0  0  0  0  0  0
   38.4340   27.9810   31.3770 C   0  0  0  0  0  0  0  0  0  0  0  0
   37.9550   27.0660   30.2460 C   0  0  0  0  0  0  0  0  0  0  0  0
   36.5670   26.8370   30.2560 N   0  0  0  0  0  0  0  0  0  0  0  0
   35.7870   27.0940   31.4010 C   0  0  0  0  0  0  0  0  0  0  0  0
   36.5040   27.4340   32.6760 C   0  0  2  0  0  0  0  0  0  0  0  0
   36.1220   28.6970   33.2250 N   0  0  0  0  0  0  0  0  0  0  0  0
   36.0030   28.8780   34.5520 C   0  0  0  0  0  0  0  0  0  0  0  0
   35.6350   30.1440   34.7850 N   0  0  0  0  0  0  0  0  0  0  0  0
   35.5300   30.7360   33.5890 C   0  0  0  0  0  0  0  0  0  0  0  0
   35.1820   32.0380   33.2390 C   0  0  0  0  0  0  0  0  0  0  0  0
   34.9010   32.8690   34.1600 O   0  0  0  0  0  0  0  0  0  0  0  0
   35.1580   32.3610   31.9200 N   0  0  0  0  0  0  0  0  0  0  0  0
   35.4610   31.4560   30.9700 C   0  0  0  0  0  0  0  0  0  0  0  0
   35.3750   32.0000   29.6540 N   0  0  0  0  0  0  0  0  0  0  0  0
   35.7960   30.1990   31.3190 N   0  0  0  0  0  0  0  0  0  0  0  0
   35.8300   29.8470   32.5990 C   0  0  0  0  0  0  0  0  0  0  0  0
   39.9320   24.7620   35.0650 C   0  0  0  0  0  0  0  0  0  0  0  0
   40.4150   26.0780   35.0240 C   0  0  0  0  0  0  0  0  0  0  0  0
   39.8150   26.9800   34.2210 C   0  0  0  0  0  0  0  0  0  0  0  0
   38.7100   26.5220   33.4550 C   0  0  0  0  0  0  0  0  0  0  0  0
   38.5630   24.7260   33.9390 S   0  0  0  0  0  0  0  0  0  0  0  0
   39.7540   23.1040   36.9380 C   0  0  0  0  0  0  0  0  0  0  0  0
   40.4430   23.6800   35.8570 C   0  0  0  0  0  0  0  0  0  0  0  0
   41.6770   23.2050   35.5160 C   0  0  0  0  0  0  0  0  0  0  0  0
   42.1780   22.1780   36.2590 N   0  0  0  0  0  0  0  0  0  0  0  0
   41.5280   21.6250   37.2900 C   0  0  0  0  0  0  0  0  0  0  0  0
   40.2990   22.1000   37.6280 N   0  0  0  0  0  0  0  0  0  0  0  0
   37.9902   28.9844   31.2979 H   0  0  0  0  0  0  0  0  0  0  0  0
   39.5196   28.1585   31.3824 H   0  0  0  0  0  0  0  0  0  0  0  0
   38.4679   26.0976   30.3414 H   0  0  0  0  0  0  0  0  0  0  0  0
   38.1913   27.5732   29.2990 H   0  0  0  0  0  0  0  0  0  0  0  0
   36.1718   27.4138   29.4997 H   0  0  0  0  0  0  0  0  0  0  0  0
   35.1233   27.9383   31.1629 H   0  0  0  0  0  0  0  0  0  0  0  0
   35.2838   26.1391   31.6129 H   0  0  0  0  0  0  0  0  0  0  0  0
   36.1703   26.6962   33.4205 H   0  0  0  0  0  0  0  0  0  0  0  0
   36.1792   28.1111   35.3207 H   0  0  0  0  0  0  0  0  0  0  0  0
   34.9025   33.3188   31.6403 H   0  0  0  0  0  0  0  0  0  0  0  0
   35.1054   32.9851   29.5205 H   0  0  0  0  0  0  0  0  0  0  0  0
   35.5825   31.4077   28.8373 H   0  0  0  0  0  0  0  0  0  0  0  0
   41.2763   26.3720   35.6419 H   0  0  0  0  0  0  0  0  0  0  0  0
   40.1648   28.0212   34.1620 H   0  0  0  0  0  0  0  0  0  0  0  0
   38.7597   23.4829   37.2170 H   0  0  0  0  0  0  0  0  0  0  0  0
   42.2435   23.6336   34.6761 H   0  0  0  0  0  0  0  0  0  0  0  0
   41.9813   20.7979   37.8561 H   0  0  0  0  0  0  0  0  0  0  0  0
  1  6  1  0
  1 21  1  0
  2  1  1  0
  3  4  1  0
  3  2  1  0
  4  5  1  0
  5  6  1  0
  6  7  1  0
  7  8  1  0
  8  9  2  0
 10  9  1  0
 11 10  1  0
 11 12  2  0
 13 11  1  0
 14 16  2  0
 14 13  1  0
 15 14  1  0
 16 17  1  0
 17  7  1  0
 17 10  2  0
 18 24  1  0
 19 18  2  0
 20 19  1  0
 21 22  1  0
 21 20  2  0
 22 18  1  0
 23 28  2  0
 24 23  1  0
 25 24  2  0
 25 26  1  0
 26 27  2  0
 27 28  1  0
  2 29  1  0
  2 30  1  0
  3 31  1  0
  3 32  1  0
  4 33  1  0
  5 34  1  0
  5 35  1  0
  6 36  1  1
  8 37  1  0
 13 38  1  0
 15 39  1  0
 15 40  1  0
 19 41  1  0
 20 42  1  0
 23 43  1  0
 25 44  1  0
 27 45  1  0
M  ISO  8  29  13  30  13  31  13  32  13  33   5  34  13  35  13  36  13
M  ISO  7  37  14  38   9  41  14  42  14  43  14  44  14  45  14
M  END
>  <minimizedAffinity>  (1) 
-5.74804926

>  <minimizedRMSD>  (1) 
4.49849939

$$$$
