
     RDKit          3D

 47 49  0  0  1  0  0  0  0  0999 V2000
   36.7170   25.5720   32.0020 C   0  0  0  0  0  0  0  0  0  0  0  0
   37.3730   25.4740   33.2220 C   0  0  0  0  0  0  0  0  0  0  0  0
   37.3760   26.4960   34.1030 C   0  0  0  0  0  0  0  0  0  0  0  0
   36.7160   27.6320   33.7470 N   0  0  0  0  0  0  0  0  0  0  0  0
   36.0800   27.7460   32.5780 C   0  0  0  0  0  0  0  0  0  0  0  0
   36.0780   26.7490   31.7300 N   0  0  0  0  0  0  0  0  0  0  0  0
   38.0630   26.2550   35.3930 C   0  0  0  0  0  0  0  0  0  0  0  0
   37.9430   24.8400   35.7710 C   0  0  0  0  0  0  0  0  0  0  0  0
   39.1650   24.3190   36.3340 N   0  0  0  0  0  0  0  0  0  0  0  0
   39.9070   23.5640   35.2890 C   0  0  0  0  0  0  0  0  0  0  0  0
   40.9670   22.8780   36.1170 C   0  0  0  0  0  0  0  0  0  0  0  0
   40.3340   22.6960   37.4900 C   0  0  0  0  0  0  0  0  0  0  0  0
   38.9400   23.2550   37.2440 C   0  0  1  0  0  0  0  0  0  0  0  0
   38.3970   23.6970   38.5720 C   0  0  0  0  0  0  0  0  0  0  0  0
   39.3050   23.7070   39.5880 F   0  0  0  0  0  0  0  0  0  0  0  0
   37.2770   22.9520   38.8550 F   0  0  0  0  0  0  0  0  0  0  0  0
   37.9790   25.0350   38.4530 F   0  0  0  0  0  0  0  0  0  0  0  0
   35.4160   29.0350   32.2360 C   0  0  2  0  0  0  0  0  0  0  0  0
   36.4630   29.9780   31.5690 C   0  0  0  0  0  0  0  0  0  0  0  0
   34.9130   29.7710   33.4140 C   0  0  0  0  0  0  0  0  0  0  0  0
   33.5850   29.4480   33.8450 N   0  0  0  0  0  0  0  0  0  0  0  0
   33.0500   29.3590   35.0520 N   0  0  0  0  0  0  0  0  0  0  0  0
   31.7560   29.0200   34.9220 C   0  0  0  0  0  0  0  0  0  0  0  0
   31.4330   28.8840   33.5850 C   0  0  0  0  0  0  0  0  0  0  0  0
   32.6300   29.1660   32.9390 C   0  0  0  0  0  0  0  0  0  0  0  0
   36.7119   24.7378   31.2850 H   0  0  0  0  0  0  0  0  0  0  0  0
   37.9015   24.5432   33.4756 H   0  0  0  0  0  0  0  0  0  0  0  0
   39.1269   26.5162   35.2933 H   0  0  0  0  0  0  0  0  0  0  0  0
   37.5969   26.8769   36.1714 H   0  0  0  0  0  0  0  0  0  0  0  0
   37.1393   24.7394   36.5153 H   0  0  0  0  0  0  0  0  0  0  0  0
   37.7201   24.2656   34.8598 H   0  0  0  0  0  0  0  0  0  0  0  0
   40.3525   24.2396   34.5439 H   0  0  0  0  0  0  0  0  0  0  0  0
   39.2816   22.8777   34.6992 H   0  0  0  0  0  0  0  0  0  0  0  0
   41.2295   21.9035   35.6795 H   0  0  0  0  0  0  0  0  0  0  0  0
   41.8981   23.4617   36.1641 H   0  0  0  0  0  0  0  0  0  0  0  0
   40.2984   21.6358   37.7810 H   0  0  0  0  0  0  0  0  0  0  0  0
   40.8805   23.1855   38.3096 H   0  0  0  0  0  0  0  0  0  0  0  0
   38.2025   22.5542   36.8256 H   0  0  0  0  0  0  0  0  0  0  0  0
   34.5695   28.7758   31.5831 H   0  0  0  0  0  0  0  0  0  0  0  0
   37.0390   30.4967   32.3495 H   0  0  0  0  0  0  0  0  0  0  0  0
   37.1455   29.3840   30.9434 H   0  0  0  0  0  0  0  0  0  0  0  0
   35.9433   30.7187   30.9434 H   0  0  0  0  0  0  0  0  0  0  0  0
   35.5959   29.5687   34.2523 H   0  0  0  0  0  0  0  0  0  0  0  0
   34.8727   30.8261   33.1054 H   0  0  0  0  0  0  0  0  0  0  0  0
   31.0561   28.8723   35.7577 H   0  0  0  0  0  0  0  0  0  0  0  0
   30.4630   28.6171   33.1402 H   0  0  0  0  0  0  0  0  0  0  0  0
   32.7759   29.1598   31.8487 H   0  0  0  0  0  0  0  0  0  0  0  0
  1  2  2  0
  2  3  1  0
  3  7  1  0
  4  3  2  0
  5  4  1  0
  6  1  1  0
  6  5  2  0
  7  8  1  0
  8  9  1  0
  9 13  1  0
 10 11  1  0
 10  9  1  0
 11 12  1  0
 13 12  1  0
 13 14  1  0
 14 16  1  0
 14 15  1  0
 17 14  1  0
 18  5  1  0
 18 20  1  0
 19 18  1  0
 20 21  1  0
 21 22  1  0
 23 22  2  0
 24 23  1  0
 25 24  2  0
 25 21  1  0
  1 26  1  0
  2 27  1  0
  7 28  1  0
  7 29  1  0
  8 30  1  0
  8 31  1  0
 10 32  1  0
 10 33  1  0
 11 34  1  0
 11 35  1  0
 12 36  1  0
 12 37  1  0
 13 38  1  6
 18 39  1  6
 19 40  1  0
 19 41  1  0
 19 42  1  0
 20 43  1  0
 20 44  1  0
 23 45  1  0
 24 46  1  0
 25 47  1  0
M  ISO  8  26  14  27  14  28   8  29   8  30   8  31   8  32  13  33  13
M  ISO  8  34  13  35  13  36  13  37  13  38  13  39   8  40   8  41   8
M  ISO  6  42   8  43   8  44   8  45  14  46  14  47  14
M  END
>  <minimizedAffinity>  (1) 
-5.73977804

>  <minimizedRMSD>  (1) 
1.25550902

$$$$
