
     RDKit          3D

 47 50  0  0  1  0  0  0  0  0999 V2000
   38.6540   24.7520   35.1010 N   0  0  0  0  0  0  0  0  0  0  0  0
   37.7610   25.5470   35.9390 C   0  0  0  0  0  0  0  0  0  0  0  0
   38.4670   26.8990   35.9440 C   0  0  0  0  0  0  0  0  0  0  0  0
   38.6970   27.4250   34.6630 N   0  0  0  0  0  0  0  0  0  0  0  0
   38.6200   26.6090   33.5100 C   0  0  0  0  0  0  0  0  0  0  0  0
   38.5510   25.1370   33.6940 C   0  0  2  0  0  0  0  0  0  0  0  0
   41.3810   21.8800   36.0180 C   0  0  0  0  0  0  0  0  0  0  0  0
   40.4460   22.1600   37.0220 C   0  0  0  0  0  0  0  0  0  0  0  0
   39.5000   23.0970   36.8070 C   0  0  0  0  0  0  0  0  0  0  0  0
   39.5220   23.7480   35.5460 C   0  0  0  0  0  0  0  0  0  0  0  0
   40.9660   22.9560   34.6720 S   0  0  0  0  0  0  0  0  0  0  0  0
   42.7800   20.1810   37.2220 C   0  0  0  0  0  0  0  0  0  0  0  0
   42.4490   20.9220   36.0760 C   0  0  0  0  0  0  0  0  0  0  0  0
   43.1780   20.7420   34.9330 C   0  0  0  0  0  0  0  0  0  0  0  0
   44.1930   19.8340   35.0000 N   0  0  0  0  0  0  0  0  0  0  0  0
   44.5040   19.1350   36.0810 C   0  0  0  0  0  0  0  0  0  0  0  0
   43.7850   19.3140   37.2040 N   0  0  0  0  0  0  0  0  0  0  0  0
   37.5250   24.3970   32.9230 C   0  0  0  0  0  0  0  0  0  0  0  0
   36.5240   25.1430   32.1480 C   0  0  0  0  0  0  0  0  0  0  0  0
   35.8080   24.1290   31.2490 C   0  0  0  0  0  0  0  0  0  0  0  0
   35.8570   22.7540   31.8590 C   0  0  0  0  0  0  0  0  0  0  0  0
   37.2690   22.2060   31.8780 C   0  0  0  0  0  0  0  0  0  0  0  0
   38.2130   23.3630   32.0560 C   0  0  0  0  0  0  0  0  0  0  0  0
   36.7562   25.6206   35.4976 H   0  0  0  0  0  0  0  0  0  0  0  0
   37.5950   25.1254   36.9413 H   0  0  0  0  0  0  0  0  0  0  0  0
   37.8453   27.6124   36.5049 H   0  0  0  0  0  0  0  0  0  0  0  0
   39.4526   26.7430   36.4069 H   0  0  0  0  0  0  0  0  0  0  0  0
   38.0111   28.1820   34.5310 H   0  0  0  0  0  0  0  0  0  0  0  0
   39.5116   26.8199   32.9013 H   0  0  0  0  0  0  0  0  0  0  0  0
   37.6537   26.8718   33.0548 H   0  0  0  0  0  0  0  0  0  0  0  0
   39.4607   24.7760   33.1918 H   0  0  0  0  0  0  0  0  0  0  0  0
   40.4828   21.6196   37.9794 H   0  0  0  0  0  0  0  0  0  0  0  0
   38.7485   23.3444   37.5712 H   0  0  0  0  0  0  0  0  0  0  0  0
   42.1994   20.3207   38.1458 H   0  0  0  0  0  0  0  0  0  0  0  0
   42.9577   21.2990   34.0104 H   0  0  0  0  0  0  0  0  0  0  0  0
   45.3382   18.4183   36.0610 H   0  0  0  0  0  0  0  0  0  0  0  0
   36.8936   23.9568   33.7088 H   0  0  0  0  0  0  0  0  0  0  0  0
   35.8025   25.6231   32.8255 H   0  0  0  0  0  0  0  0  0  0  0  0
   37.0001   25.9326   31.5481 H   0  0  0  0  0  0  0  0  0  0  0  0
   36.3007   24.1062   30.2658 H   0  0  0  0  0  0  0  0  0  0  0  0
   34.7561   24.4317   31.1402 H   0  0  0  0  0  0  0  0  0  0  0  0
   35.4801   22.8070   32.8911 H   0  0  0  0  0  0  0  0  0  0  0  0
   35.2342   22.0831   31.2491 H   0  0  0  0  0  0  0  0  0  0  0  0
   37.3838   21.4985   32.7124 H   0  0  0  0  0  0  0  0  0  0  0  0
   37.4863   21.6759   30.9390 H   0  0  0  0  0  0  0  0  0  0  0  0
   39.1365   23.0199   32.5453 H   0  0  0  0  0  0  0  0  0  0  0  0
   38.4763   23.7960   31.0797 H   0  0  0  0  0  0  0  0  0  0  0  0
  1 10  1  0
  1  2  1  0
  2  3  1  0
  4  3  1  0
  5  6  1  0
  5  4  1  0
  6  1  1  0
  7 13  1  0
  7  8  2  0
  9  8  1  0
 10  9  2  0
 11 10  1  0
 11  7  1  0
 13 12  2  0
 14 15  2  0
 14 13  1  0
 15 16  1  0
 16 17  2  0
 17 12  1  0
 18  6  1  0
 19 18  1  0
 20 21  1  0
 20 19  1  0
 21 22  1  0
 22 23  1  0
 23 18  1  0
  2 24  1  0
  2 25  1  0
  3 26  1  0
  3 27  1  0
  4 28  1  0
  5 29  1  0
  5 30  1  0
  6 31  1  6
  8 32  1  0
  9 33  1  0
 12 34  1  0
 14 35  1  0
 16 36  1  0
 18 37  1  0
 19 38  1  0
 19 39  1  0
 20 40  1  0
 20 41  1  0
 21 42  1  0
 21 43  1  0
 22 44  1  0
 22 45  1  0
 23 46  1  0
 23 47  1  0
M  ISO  8  24  13  25  13  26  13  27  13  28   5  29  13  30  13  31  13
M  ISO  8  32  14  33  14  34  14  35  14  36  14  37  13  38  13  39  13
M  ISO  8  40  13  41  13  42  13  43  13  44  13  45  13  46  13  47  13
M  END
>  <minimizedAffinity>  (1) 
-4.7748642

>  <minimizedRMSD>  (1) 
4.91350031

$$$$
