
     RDKit          3D

 34 36  0  0  1  0  0  0  0  0999 V2000
   36.4720   27.8200   32.3730 N   0  0  0  0  0  0  0  0  0  0  0  0
   35.1520   28.4630   32.3110 C   0  0  0  0  0  0  0  0  0  0  0  0
   35.5150   29.9400   32.3140 C   0  0  0  0  0  0  0  0  0  0  0  0
   36.3800   30.3160   31.2890 N   0  0  0  0  0  0  0  0  0  0  0  0
   37.1520   29.3690   30.6050 C   0  0  0  0  0  0  0  0  0  0  0  0
   37.1050   27.9410   31.0820 C   0  0  1  0  0  0  0  0  0  0  0  0
   38.0900   25.6470   35.3980 C   0  0  0  0  0  0  0  0  0  0  0  0
   37.9520   27.0120   35.6670 C   0  0  0  0  0  0  0  0  0  0  0  0
   37.4190   27.8110   34.7080 C   0  0  0  0  0  0  0  0  0  0  0  0
   37.0350   27.1940   33.4840 C   0  0  0  0  0  0  0  0  0  0  0  0
   37.4700   25.4080   33.7590 S   0  0  0  0  0  0  0  0  0  0  0  0
   38.1050   24.3500   37.5450 C   0  0  0  0  0  0  0  0  0  0  0  0
   38.6260   24.6580   36.2780 C   0  0  0  0  0  0  0  0  0  0  0  0
   39.7250   23.9690   35.8510 C   0  0  0  0  0  0  0  0  0  0  0  0
   40.2610   23.0250   36.6640 N   0  0  0  0  0  0  0  0  0  0  0  0
   39.7580   22.7410   37.8650 C   0  0  0  0  0  0  0  0  0  0  0  0
   38.6630   23.4160   38.3080 N   0  0  0  0  0  0  0  0  0  0  0  0
   38.3950   27.2590   30.9520 C   0  0  0  0  0  0  0  0  0  0  0  0
   39.2030   28.1410   30.4910 O   0  0  0  0  0  0  0  0  0  0  0  0
   39.4680   26.3910   30.9320 O   0  0  0  0  0  0  0  0  0  0  0  0
   34.5390   28.2010   33.1860 H   0  0  0  0  0  0  0  0  0  0  0  0
   34.5517   28.1571   31.4415 H   0  0  0  0  0  0  0  0  0  0  0  0
   34.5879   30.5236   32.2149 H   0  0  0  0  0  0  0  0  0  0  0  0
   36.0412   30.1350   33.2601 H   0  0  0  0  0  0  0  0  0  0  0  0
   35.8027   30.7892   30.5792 H   0  0  0  0  0  0  0  0  0  0  0  0
   38.1999   29.6986   30.6618 H   0  0  0  0  0  0  0  0  0  0  0  0
   36.7159   29.3361   29.5957 H   0  0  0  0  0  0  0  0  0  0  0  0
   36.4452   27.3851   30.3996 H   0  0  0  0  0  0  0  0  0  0  0  0
   38.2684   27.4292   36.6344 H   0  0  0  0  0  0  0  0  0  0  0  0
   37.2891   28.8912   34.8700 H   0  0  0  0  0  0  0  0  0  0  0  0
   37.2203   24.8908   37.9121 H   0  0  0  0  0  0  0  0  0  0  0  0
   40.1675   24.1759   34.8654 H   0  0  0  0  0  0  0  0  0  0  0  0
   40.2242   21.9674   38.4928 H   0  0  0  0  0  0  0  0  0  0  0  0
   40.3519   26.7038   30.6143 H   0  0  0  0  0  0  0  0  0  0  0  0
  1 10  1  0
  2  3  1  0
  2  1  1  0
  4  3  1  0
  5  6  1  0
  5  4  1  0
  6  1  1  0
  7  8  2  0
  7 13  1  0
  9  8  1  0
 10 11  1  0
 10  9  2  0
 11  7  1  0
 12 17  2  0
 13 12  1  0
 14 13  2  0
 14 15  1  0
 15 16  2  0
 16 17  1  0
 18  6  1  0
 19 18  2  0
 20 18  1  0
  2 21  1  0
  2 22  1  0
  3 23  1  0
  3 24  1  0
  4 25  1  0
  5 26  1  0
  5 27  1  0
  6 28  1  6
  8 29  1  0
  9 30  1  0
 12 31  1  0
 14 32  1  0
 16 33  1  0
 20 34  1  0
M  ISO  8  21  13  22  13  23  13  24  13  25   5  26  13  27  13  28  13
M  ISO  6  29  14  30  14  31  14  32  14  33  14  34   3
M  END
>  <minimizedAffinity>  (1) 
-4.7061162

>  <minimizedRMSD>  (1) 
0.964528859

$$$$
