
     RDKit          3D

 40 43  0  0  1  0  0  0  0  0999 V2000
   38.7610   24.6940   35.2220 N   0  0  0  0  0  0  0  0  0  0  0  0
   37.7530   25.3690   36.0390 C   0  0  0  0  0  0  0  0  0  0  0  0
   38.3880   26.7520   36.2280 C   0  0  0  0  0  0  0  0  0  0  0  0
   38.7060   27.3970   35.0300 N   0  0  0  0  0  0  0  0  0  0  0  0
   38.7770   26.6960   33.8120 C   0  0  0  0  0  0  0  0  0  0  0  0
   38.7430   25.1990   33.8610 C   0  0  2  0  0  0  0  0  0  0  0  0
   41.4910   21.8140   36.0960 C   0  0  0  0  0  0  0  0  0  0  0  0
   40.6150   22.1320   37.1460 C   0  0  0  0  0  0  0  0  0  0  0  0
   39.6730   23.0880   36.9290 C   0  0  0  0  0  0  0  0  0  0  0  0
   39.6450   23.7000   35.6440 C   0  0  0  0  0  0  0  0  0  0  0  0
   41.0270   22.8590   34.7320 S   0  0  0  0  0  0  0  0  0  0  0  0
   42.8630   20.0500   37.2400 C   0  0  0  0  0  0  0  0  0  0  0  0
   42.5460   20.8440   36.1280 C   0  0  0  0  0  0  0  0  0  0  0  0
   43.2860   20.7040   34.9900 C   0  0  0  0  0  0  0  0  0  0  0  0
   44.2980   19.7920   35.0000 N   0  0  0  0  0  0  0  0  0  0  0  0
   44.5900   19.0370   36.0740 C   0  0  0  0  0  0  0  0  0  0  0  0
   43.8560   19.1810   37.1940 N   0  0  0  0  0  0  0  0  0  0  0  0
   37.6790   24.5850   33.0260 C   0  0  0  0  0  0  0  0  0  0  0  0
   36.7560   25.3480   32.2990 C   0  0  0  0  0  0  0  0  0  0  0  0
   35.7660   24.7700   31.5210 C   0  0  0  0  0  0  0  0  0  0  0  0
   35.6690   23.4030   31.4470 C   0  0  0  0  0  0  0  0  0  0  0  0
   36.5760   22.6620   32.1620 C   0  0  0  0  0  0  0  0  0  0  0  0
   37.5260   23.2490   32.9080 N   0  0  0  0  0  0  0  0  0  0  0  0
   36.7896   25.4378   35.5127 H   0  0  0  0  0  0  0  0  0  0  0  0
   37.5187   24.8508   36.9806 H   0  0  0  0  0  0  0  0  0  0  0  0
   37.6812   27.3846   36.7850 H   0  0  0  0  0  0  0  0  0  0  0  0
   39.3334   26.5983   36.7688 H   0  0  0  0  0  0  0  0  0  0  0  0
   37.9978   28.1335   34.9001 H   0  0  0  0  0  0  0  0  0  0  0  0
   39.7178   26.9863   33.3215 H   0  0  0  0  0  0  0  0  0  0  0  0
   37.8560   26.9752   33.2793 H   0  0  0  0  0  0  0  0  0  0  0  0
   39.6811   24.8713   33.3892 H   0  0  0  0  0  0  0  0  0  0  0  0
   40.6888   21.6217   38.1176 H   0  0  0  0  0  0  0  0  0  0  0  0
   38.9604   23.3772   37.7155 H   0  0  0  0  0  0  0  0  0  0  0  0
   42.2755   20.1528   38.1643 H   0  0  0  0  0  0  0  0  0  0  0  0
   43.0726   21.3070   34.0951 H   0  0  0  0  0  0  0  0  0  0  0  0
   45.4166   18.3121   36.0382 H   0  0  0  0  0  0  0  0  0  0  0  0
   36.8196   26.4451   32.3476 H   0  0  0  0  0  0  0  0  0  0  0  0
   35.0603   25.4044   30.9646 H   0  0  0  0  0  0  0  0  0  0  0  0
   34.8924   22.9189   30.8367 H   0  0  0  0  0  0  0  0  0  0  0  0
   36.5238   21.5639   32.1233 H   0  0  0  0  0  0  0  0  0  0  0  0
  1 10  1  0
  1  2  1  0
  2  3  1  0
  4  3  1  0
  5  6  1  0
  5  4  1  0
  6  1  1  0
  7 13  1  0
  7  8  2  0
  9  8  1  0
 10  9  2  0
 11 10  1  0
 11  7  1  0
 13 12  2  0
 14 15  2  0
 14 13  1  0
 15 16  1  0
 16 17  2  0
 17 12  1  0
 18  6  1  0
 19 18  2  0
 20 19  1  0
 21 20  2  0
 21 22  1  0
 22 23  2  0
 23 18  1  0
  2 24  1  0
  2 25  1  0
  3 26  1  0
  3 27  1  0
  4 28  1  0
  5 29  1  0
  5 30  1  0
  6 31  1  6
  8 32  1  0
  9 33  1  0
 12 34  1  0
 14 35  1  0
 16 36  1  0
 19 37  1  0
 20 38  1  0
 21 39  1  0
 22 40  1  0
M  ISO  8  24  13  25  13  26  13  27  13  28   5  29  13  30  13  31  13
M  ISO  8  32  14  33  14  34  14  35  14  36  14  37  14  38  14  39  14
M  ISO  1  40  14
M  END
>  <minimizedAffinity>  (1) 
-4.94354153

>  <minimizedRMSD>  (1) 
5.11528635

$$$$
