
     RDKit          3D

 34 36  0  0  1  0  0  0  0  0999 V2000
   36.3780   27.0480   32.5890 N   0  0  0  0  0  0  0  0  0  0  0  0
   35.6420   28.3130   32.6710 C   0  0  0  0  0  0  0  0  0  0  0  0
   36.5730   29.2370   31.8610 C   0  0  0  0  0  0  0  0  0  0  0  0
   36.8380   28.7950   30.5690 N   0  0  0  0  0  0  0  0  0  0  0  0
   36.6140   27.4520   30.1900 C   0  0  0  0  0  0  0  0  0  0  0  0
   36.3030   26.4620   31.2460 C   0  0  2  0  0  0  0  0  0  0  0  0
   38.5210   24.9820   35.3640 C   0  0  0  0  0  0  0  0  0  0  0  0
   38.0430   26.2290   35.7930 C   0  0  0  0  0  0  0  0  0  0  0  0
   37.3170   26.9780   34.9230 C   0  0  0  0  0  0  0  0  0  0  0  0
   37.0910   26.4340   33.6260 C   0  0  0  0  0  0  0  0  0  0  0  0
   37.9650   24.7960   33.6950 S   0  0  0  0  0  0  0  0  0  0  0  0
   38.9090   23.5340   37.3770 C   0  0  0  0  0  0  0  0  0  0  0  0
   39.3040   24.0650   36.1410 C   0  0  0  0  0  0  0  0  0  0  0  0
   40.5230   23.6990   35.6220 C   0  0  0  0  0  0  0  0  0  0  0  0
   41.2860   22.8330   36.3400 N   0  0  0  0  0  0  0  0  0  0  0  0
   40.9080   22.3320   37.5130 C   0  0  0  0  0  0  0  0  0  0  0  0
   39.7150   22.6870   38.0260 N   0  0  0  0  0  0  0  0  0  0  0  0
   35.0270   25.6980   31.0800 C   0  0  0  0  0  0  0  0  0  0  0  0
   35.0870   24.4820   31.7830 F   0  0  0  0  0  0  0  0  0  0  0  0
   33.9820   26.3890   31.6930 F   0  0  0  0  0  0  0  0  0  0  0  0
   34.6830   25.3840   29.8040 F   0  0  0  0  0  0  0  0  0  0  0  0
   34.6469   28.2339   32.2088 H   0  0  0  0  0  0  0  0  0  0  0  0
   35.4360   28.6563   33.6956 H   0  0  0  0  0  0  0  0  0  0  0  0
   36.1017   30.2288   31.7956 H   0  0  0  0  0  0  0  0  0  0  0  0
   37.5368   29.2548   32.3909 H   0  0  0  0  0  0  0  0  0  0  0  0
   36.2644   29.3746   29.9397 H   0  0  0  0  0  0  0  0  0  0  0  0
   35.7699   27.4502   29.4846 H   0  0  0  0  0  0  0  0  0  0  0  0
   37.5827   27.1208   29.7876 H   0  0  0  0  0  0  0  0  0  0  0  0
   37.0985   25.7122   31.1234 H   0  0  0  0  0  0  0  0  0  0  0  0
   38.2512   26.5919   36.8103 H   0  0  0  0  0  0  0  0  0  0  0  0
   36.9201   27.9635   35.2081 H   0  0  0  0  0  0  0  0  0  0  0  0
   37.9381   23.8135   37.8120 H   0  0  0  0  0  0  0  0  0  0  0  0
   40.8702   24.0945   34.6560 H   0  0  0  0  0  0  0  0  0  0  0  0
   41.5627   21.6357   38.0575 H   0  0  0  0  0  0  0  0  0  0  0  0
  1  2  1  0
  1 10  1  0
  3  2  1  0
  4  3  1  0
  5  4  1  0
  5  6  1  0
  6  1  1  0
  7  8  2  0
  7 13  1  0
  9  8  1  0
 10 11  1  0
 10  9  2  0
 11  7  1  0
 12 17  2  0
 13 12  1  0
 14 13  2  0
 14 15  1  0
 15 16  2  0
 16 17  1  0
 18  6  1  0
 18 20  1  0
 18 19  1  0
 21 18  1  0
  2 22  1  0
  2 23  1  0
  3 24  1  0
  3 25  1  0
  4 26  1  0
  5 27  1  0
  5 28  1  0
  6 29  1  1
  8 30  1  0
  9 31  1  0
 12 32  1  0
 14 33  1  0
 16 34  1  0
M  ISO  8  22  13  23  13  24  13  25  13  26   5  27  13  28  13  29  13
M  ISO  5  30  14  31  14  32  14  33  14  34  14
M  END
>  <minimizedAffinity>  (1) 
-4.78458834

>  <minimizedRMSD>  (1) 
1.01998878

$$$$
