
     RDKit          3D

 34 36  0  0  1  0  0  0  0  0999 V2000
   38.3870   25.2440   35.3880 C   0  0  0  0  0  0  0  0  0  0  0  0
   38.0380   26.5550   35.7330 C   0  0  0  0  0  0  0  0  0  0  0  0
   37.3700   27.3120   34.8360 C   0  0  0  0  0  0  0  0  0  0  0  0
   37.0640   26.7120   33.5840 C   0  0  0  0  0  0  0  0  0  0  0  0
   37.7800   25.0000   33.7440 S   0  0  0  0  0  0  0  0  0  0  0  0
   36.3860   27.2990   32.5090 N   0  0  0  0  0  0  0  0  0  0  0  0
   35.4870   28.4560   32.5830 C   0  0  0  0  0  0  0  0  0  0  0  0
   36.3570   29.5590   31.9590 C   0  0  0  0  0  0  0  0  0  0  0  0
   36.8530   29.2500   30.6830 N   0  0  0  0  0  0  0  0  0  0  0  0
   36.8250   27.9400   30.1910 C   0  0  0  0  0  0  0  0  0  0  0  0
   36.4910   26.8260   31.1410 C   0  0  2  0  0  0  0  0  0  0  0  0
   35.2350   26.0700   30.7320 C   0  0  0  0  0  0  0  0  0  0  0  0
   38.6400   23.8320   37.4510 C   0  0  0  0  0  0  0  0  0  0  0  0
   39.0930   24.2990   36.2040 C   0  0  0  0  0  0  0  0  0  0  0  0
   40.2830   23.8310   35.7250 C   0  0  0  0  0  0  0  0  0  0  0  0
   40.9640   22.9340   36.4900 N   0  0  0  0  0  0  0  0  0  0  0  0
   40.5260   22.4950   37.6760 C   0  0  0  0  0  0  0  0  0  0  0  0
   39.3380   22.9590   38.1580 N   0  0  0  0  0  0  0  0  0  0  0  0
   38.3038   26.9624   36.7196 H   0  0  0  0  0  0  0  0  0  0  0  0
   37.0757   28.3471   35.0640 H   0  0  0  0  0  0  0  0  0  0  0  0
   34.5691   28.2899   32.0000 H   0  0  0  0  0  0  0  0  0  0  0  0
   35.1324   28.6847   33.5988 H   0  0  0  0  0  0  0  0  0  0  0  0
   35.7506   30.4734   31.8809 H   0  0  0  0  0  0  0  0  0  0  0  0
   37.2308   29.6808   32.6159 H   0  0  0  0  0  0  0  0  0  0  0  0
   36.3184   29.8239   30.0153 H   0  0  0  0  0  0  0  0  0  0  0  0
   36.0794   27.9123   29.3827 H   0  0  0  0  0  0  0  0  0  0  0  0
   37.8658   27.7402   29.8962 H   0  0  0  0  0  0  0  0  0  0  0  0
   37.3300   26.1164   31.0897 H   0  0  0  0  0  0  0  0  0  0  0  0
   34.6936   25.7441   31.6324 H   0  0  0  0  0  0  0  0  0  0  0  0
   34.5886   26.7292   30.1340 H   0  0  0  0  0  0  0  0  0  0  0  0
   35.5150   25.1902   30.1340 H   0  0  0  0  0  0  0  0  0  0  0  0
   37.6828   24.2015   37.8475 H   0  0  0  0  0  0  0  0  0  0  0  0
   40.6777   24.1670   34.7548 H   0  0  0  0  0  0  0  0  0  0  0  0
   41.1167   21.7693   38.2543 H   0  0  0  0  0  0  0  0  0  0  0  0
  1  2  2  0
  1 14  1  0
  3  2  1  0
  4  5  1  0
  4  3  2  0
  5  1  1  0
  6  7  1  0
  6  4  1  0
  8  7  1  0
  9  8  1  0
 10  9  1  0
 10 11  1  0
 11  6  1  0
 12 11  1  0
 13 18  2  0
 14 13  1  0
 15 14  2  0
 15 16  1  0
 16 17  2  0
 17 18  1  0
  2 19  1  0
  3 20  1  0
  7 21  1  0
  7 22  1  0
  8 23  1  0
  8 24  1  0
  9 25  1  0
 10 26  1  0
 10 27  1  0
 11 28  1  1
 12 29  1  0
 12 30  1  0
 12 31  1  0
 13 32  1  0
 15 33  1  0
 17 34  1  0
M  ISO  8  19  14  20  14  21  13  22  13  23  13  24  13  25   5  26  13
M  ISO  8  27  13  28  13  29   8  30   8  31   8  32  14  33  14  34  14
M  END
>  <minimizedAffinity>  (1) 
-4.63703012

>  <minimizedRMSD>  (1) 
0.640372813

$$$$
