
     RDKit          3D

 40 42  0  0  1  0  0  0  0  0999 V2000
   36.7010   27.6180   32.2200 N   0  0  0  0  0  0  0  0  0  0  0  0
   35.3380   28.1570   32.0590 C   0  0  0  0  0  0  0  0  0  0  0  0
   35.5710   29.6540   32.0630 C   0  0  0  0  0  0  0  0  0  0  0  0
   36.4930   30.0910   31.1180 N   0  0  0  0  0  0  0  0  0  0  0  0
   37.4060   29.2020   30.5200 C   0  0  0  0  0  0  0  0  0  0  0  0
   37.4390   27.7910   30.9930 C   0  0  1  0  0  0  0  0  0  0  0  0
   38.1450   25.5430   35.3910 C   0  0  0  0  0  0  0  0  0  0  0  0
   37.9450   26.9110   35.6380 C   0  0  0  0  0  0  0  0  0  0  0  0
   37.4630   27.6790   34.6270 C   0  0  0  0  0  0  0  0  0  0  0  0
   37.1930   27.0320   33.3850 C   0  0  0  0  0  0  0  0  0  0  0  0
   37.6580   25.2650   33.7110 S   0  0  0  0  0  0  0  0  0  0  0  0
   38.1240   24.3260   37.5820 C   0  0  0  0  0  0  0  0  0  0  0  0
   38.6510   24.5850   36.3280 C   0  0  0  0  0  0  0  0  0  0  0  0
   39.7730   23.8730   35.9230 C   0  0  0  0  0  0  0  0  0  0  0  0
   40.2810   22.9610   36.7930 N   0  0  0  0  0  0  0  0  0  0  0  0
   39.7560   22.7250   38.0030 C   0  0  0  0  0  0  0  0  0  0  0  0
   38.6680   23.4190   38.3890 N   0  0  0  0  0  0  0  0  0  0  0  0
   38.8610   27.3260   30.9940 C   0  0  0  0  0  0  0  0  0  0  0  0
   38.8400   25.9920   30.2230 C   0  0  0  0  0  0  0  0  0  0  0  0
   39.7720   28.2160   30.1900 C   0  0  0  0  0  0  0  0  0  0  0  0
   34.6900   27.8539   32.8946 H   0  0  0  0  0  0  0  0  0  0  0  0
   34.8294   27.7962   31.1528 H   0  0  0  0  0  0  0  0  0  0  0  0
   34.6110   30.1529   31.8644 H   0  0  0  0  0  0  0  0  0  0  0  0
   35.9868   29.9060   33.0497 H   0  0  0  0  0  0  0  0  0  0  0  0
   35.9477   30.5085   30.3504 H   0  0  0  0  0  0  0  0  0  0  0  0
   38.4124   29.6190   30.6728 H   0  0  0  0  0  0  0  0  0  0  0  0
   37.0647   29.1277   29.4769 H   0  0  0  0  0  0  0  0  0  0  0  0
   36.9011   27.1233   30.3040 H   0  0  0  0  0  0  0  0  0  0  0  0
   38.1722   27.3477   36.6217 H   0  0  0  0  0  0  0  0  0  0  0  0
   37.2879   28.7567   34.7606 H   0  0  0  0  0  0  0  0  0  0  0  0
   37.2365   24.8821   37.9181 H   0  0  0  0  0  0  0  0  0  0  0  0
   40.2319   24.0407   34.9375 H   0  0  0  0  0  0  0  0  0  0  0  0
   40.2066   21.9760   38.6708 H   0  0  0  0  0  0  0  0  0  0  0  0
   39.2215   27.2899   32.0326 H   0  0  0  0  0  0  0  0  0  0  0  0
   38.8268   25.1557   30.9375 H   0  0  0  0  0  0  0  0  0  0  0  0
   37.9411   25.9481   29.5906 H   0  0  0  0  0  0  0  0  0  0  0  0
   39.7371   25.9199   29.5906 H   0  0  0  0  0  0  0  0  0  0  0  0
   40.3898   28.8195   30.8712 H   0  0  0  0  0  0  0  0  0  0  0  0
   40.4234   27.5968   29.5558 H   0  0  0  0  0  0  0  0  0  0  0  0
   39.1681   28.8817   29.5558 H   0  0  0  0  0  0  0  0  0  0  0  0
  1 10  1  0
  2  3  1  0
  2  1  1  0
  4  3  1  0
  5  6  1  0
  5  4  1  0
  6 18  1  0
  6  1  1  0
  7  8  2  0
  7 13  1  0
  9  8  1  0
 10 11  1  0
 10  9  2  0
 11  7  1  0
 12 17  2  0
 13 12  1  0
 14 13  2  0
 14 15  1  0
 15 16  2  0
 16 17  1  0
 19 18  1  0
 20 18  1  0
  2 21  1  0
  2 22  1  0
  3 23  1  0
  3 24  1  0
  4 25  1  0
  5 26  1  0
  5 27  1  0
  6 28  1  6
  8 29  1  0
  9 30  1  0
 12 31  1  0
 14 32  1  0
 16 33  1  0
 18 34  1  0
 19 35  1  0
 19 36  1  0
 19 37  1  0
 20 38  1  0
 20 39  1  0
 20 40  1  0
M  ISO  8  21  13  22  13  23  13  24  13  25   5  26  13  27  13  28  13
M  ISO  8  29  14  30  14  31  14  32  14  33  14  34   8  35   8  36   8
M  ISO  4  37   8  38   8  39   8  40   8
M  END
>  <minimizedAffinity>  (1) 
-4.74341679

>  <minimizedRMSD>  (1) 
0.967763603

$$$$
