
     RDKit          3D

 44 47  0  0  1  0  0  0  0  0999 V2000
   37.2750   27.2460   31.7920 N   0  0  0  0  0  0  0  0  0  0  0  0
   35.9810   27.6050   31.2100 C   0  0  0  0  0  0  0  0  0  0  0  0
   36.0920   29.1500   31.2010 C   0  0  0  0  0  0  0  0  0  0  0  0
   37.1940   29.6230   30.4930 N   0  0  0  0  0  0  0  0  0  0  0  0
   38.2610   28.7590   30.1550 C   0  0  0  0  0  0  0  0  0  0  0  0
   38.3880   27.4790   30.8570 C   0  0  2  0  0  0  0  0  0  0  0  0
   38.0640   25.5340   35.4010 C   0  0  0  0  0  0  0  0  0  0  0  0
   37.7580   26.9020   35.4490 C   0  0  0  0  0  0  0  0  0  0  0  0
   37.4770   27.5380   34.2760 C   0  0  0  0  0  0  0  0  0  0  0  0
   37.5160   26.7620   33.0850 C   0  0  0  0  0  0  0  0  0  0  0  0
   37.9710   25.0660   33.6900 S   0  0  0  0  0  0  0  0  0  0  0  0
   37.8570   24.8590   37.8050 C   0  0  0  0  0  0  0  0  0  0  0  0
   38.3890   24.7010   36.5160 C   0  0  0  0  0  0  0  0  0  0  0  0
   39.2900   23.6830   36.2950 C   0  0  0  0  0  0  0  0  0  0  0  0
   39.6180   22.8830   37.3430 N   0  0  0  0  0  0  0  0  0  0  0  0
   39.1080   23.0380   38.5690 C   0  0  0  0  0  0  0  0  0  0  0  0
   38.2260   24.0320   38.7860 N   0  0  0  0  0  0  0  0  0  0  0  0
   39.6940   24.2040   28.3660 C   0  0  0  0  0  0  0  0  0  0  0  0
   38.9080   23.9300   29.4650 C   0  0  0  0  0  0  0  0  0  0  0  0
   38.4880   24.9640   30.2690 C   0  0  0  0  0  0  0  0  0  0  0  0
   38.7820   26.2960   30.0840 C   0  0  0  0  0  0  0  0  0  0  0  0
   39.5830   26.4680   28.9420 C   0  0  0  0  0  0  0  0  0  0  0  0
   40.0470   25.5050   28.0860 C   0  0  0  0  0  0  0  0  0  0  0  0
   40.2220   22.8960   27.3530 S   0  0  0  0  0  0  0  0  0  0  0  0
   39.3670   22.8360   26.1030 O   0  0  0  0  0  0  0  0  0  0  0  0
   41.6620   23.0930   26.9170 O   0  0  0  0  0  0  0  0  0  0  0  0
   35.8670   27.2005   30.1935 H   0  0  0  0  0  0  0  0  0  0  0  0
   35.1096   27.2120   31.7543 H   0  0  0  0  0  0  0  0  0  0  0  0
   35.1807   29.5620   30.7430 H   0  0  0  0  0  0  0  0  0  0  0  0
   36.2157   29.4719   32.2456 H   0  0  0  0  0  0  0  0  0  0  0  0
   36.8327   30.0045   29.6071 H   0  0  0  0  0  0  0  0  0  0  0  0
   38.1639   28.5307   29.0833 H   0  0  0  0  0  0  0  0  0  0  0  0
   39.1589   29.3170   30.4591 H   0  0  0  0  0  0  0  0  0  0  0  0
   39.3039   27.6244   31.4486 H   0  0  0  0  0  0  0  0  0  0  0  0
   37.7451   27.4459   36.4050 H   0  0  0  0  0  0  0  0  0  0  0  0
   37.2298   28.6096   34.2520 H   0  0  0  0  0  0  0  0  0  0  0  0
   37.1357   25.6645   38.0072 H   0  0  0  0  0  0  0  0  0  0  0  0
   39.7307   23.5225   35.3000 H   0  0  0  0  0  0  0  0  0  0  0  0
   39.4040   22.3647   39.3869 H   0  0  0  0  0  0  0  0  0  0  0  0
   38.6194   22.8941   29.6967 H   0  0  0  0  0  0  0  0  0  0  0  0
   37.8625   24.7037   31.1356 H   0  0  0  0  0  0  0  0  0  0  0  0
   39.8727   27.5028   28.7070 H   0  0  0  0  0  0  0  0  0  0  0  0
   40.6715   25.7586   27.2167 H   0  0  0  0  0  0  0  0  0  0  0  0
   40.1111   21.7390   28.0783 H   0  0  0  0  0  0  0  0  0  0  0  0
  1 10  1  0
  2  1  1  0
  3  2  1  0
  4  3  1  0
  5  4  1  0
  5  6  1  0
  6  1  1  0
  7  8  2  0
  7 13  1  0
  9  8  1  0
 10 11  1  0
 10  9  2  0
 11  7  1  0
 12 17  2  0
 13 12  1  0
 14 13  2  0
 14 15  1  0
 15 16  2  0
 16 17  1  0
 18 19  2  0
 19 20  1  0
 21 20  2  0
 21  6  1  0
 22 21  1  0
 23 18  1  0
 23 22  2  0
 24 18  1  0
 25 24  2  0
 26 24  2  0
  2 27  1  0
  2 28  1  0
  3 29  1  0
  3 30  1  0
  4 31  1  0
  5 32  1  0
  5 33  1  0
  6 34  1  1
  8 35  1  0
  9 36  1  0
 12 37  1  0
 14 38  1  0
 16 39  1  0
 19 40  1  0
 20 41  1  0
 22 42  1  0
 23 43  1  0
 24 44  1  0
M  ISO  8  27  13  28  13  29  13  30  13  31   5  32  13  33  13  34  13
M  ISO  8  35  14  36  14  37  14  38  14  39  14  40  14  41  14  42  14
M  ISO  2  43  14  44  11
M  END
>  <minimizedAffinity>  (1) 
-4.90724182

>  <minimizedRMSD>  (1) 
3.43662858

$$$$
