
     RDKit          3D

 38 41  0  0  1  0  0  0  0  0999 V2000
   37.6260   26.7530   33.7820 N   0  0  0  0  0  0  0  0  0  0  0  0
   36.5140   27.0440   34.6870 C   0  0  0  0  0  0  0  0  0  0  0  0
   36.4410   28.5620   34.6060 C   0  0  0  0  0  0  0  0  0  0  0  0
   36.3010   29.0690   33.3050 N   0  0  0  0  0  0  0  0  0  0  0  0
   36.5740   28.2680   32.1730 C   0  0  0  0  0  0  0  0  0  0  0  0
   37.2180   26.9570   32.4030 C   0  0  2  0  0  0  0  0  0  0  0  0
   41.2130   25.2140   34.9080 C   0  0  0  0  0  0  0  0  0  0  0  0
   41.2510   26.5560   34.5020 C   0  0  0  0  0  0  0  0  0  0  0  0
   40.0860   27.1400   34.1100 C   0  0  0  0  0  0  0  0  0  0  0  0
   38.9100   26.3380   34.1420 C   0  0  0  0  0  0  0  0  0  0  0  0
   39.5250   24.6960   34.7590 S   0  0  0  0  0  0  0  0  0  0  0  0
   42.3190   23.0290   35.4660 C   0  0  0  0  0  0  0  0  0  0  0  0
   42.3290   24.4290   35.3530 C   0  0  0  0  0  0  0  0  0  0  0  0
   43.4660   25.1120   35.6830 C   0  0  0  0  0  0  0  0  0  0  0  0
   44.5460   24.4080   36.1100 N   0  0  0  0  0  0  0  0  0  0  0  0
   44.5330   23.0660   36.2160 C   0  0  0  0  0  0  0  0  0  0  0  0
   43.4140   22.3900   35.8910 N   0  0  0  0  0  0  0  0  0  0  0  0
   36.4350   25.7990   31.8900 C   0  0  0  0  0  0  0  0  0  0  0  0
   35.3390   25.5780   31.0830 C   0  0  0  0  0  0  0  0  0  0  0  0
   35.1080   24.2190   30.9990 C   0  0  0  0  0  0  0  0  0  0  0  0
   36.0730   23.6750   31.7590 N   0  0  0  0  0  0  0  0  0  0  0  0
   36.8720   24.5740   32.3000 N   0  0  0  0  0  0  0  0  0  0  0  0
   35.5805   26.5783   34.3382 H   0  0  0  0  0  0  0  0  0  0  0  0
   36.6548   26.6571   35.7070 H   0  0  0  0  0  0  0  0  0  0  0  0
   35.5778   28.8967   35.2000 H   0  0  0  0  0  0  0  0  0  0  0  0
   37.3996   28.9423   34.9886 H   0  0  0  0  0  0  0  0  0  0  0  0
   35.3221   29.3767   33.2155 H   0  0  0  0  0  0  0  0  0  0  0  0
   37.2340   28.8476   31.5108 H   0  0  0  0  0  0  0  0  0  0  0  0
   35.5852   28.0250   31.7569 H   0  0  0  0  0  0  0  0  0  0  0  0
   38.1353   26.9995   31.7973 H   0  0  0  0  0  0  0  0  0  0  0  0
   42.1953   27.1202   34.5005 H   0  0  0  0  0  0  0  0  0  0  0  0
   40.0542   28.1894   33.7817 H   0  0  0  0  0  0  0  0  0  0  0  0
   41.4139   22.4605   35.2059 H   0  0  0  0  0  0  0  0  0  0  0  0
   43.5054   26.2085   35.6044 H   0  0  0  0  0  0  0  0  0  0  0  0
   45.4265   22.5272   36.5643 H   0  0  0  0  0  0  0  0  0  0  0  0
   34.7443   26.3586   30.5860 H   0  0  0  0  0  0  0  0  0  0  0  0
   34.3158   23.7010   30.4385 H   0  0  0  0  0  0  0  0  0  0  0  0
   36.1780   22.6607   31.9042 H   0  0  0  0  0  0  0  0  0  0  0  0
  1 10  1  0
  1  2  1  0
  3  2  1  0
  4  3  1  0
  5  6  1  0
  5  4  1  0
  6  1  1  0
  7 13  1  0
  8  7  2  0
  9 10  2  0
  9  8  1  0
 10 11  1  0
 11  7  1  0
 12 17  2  0
 13 12  1  0
 13 14  2  0
 14 15  1  0
 15 16  2  0
 17 16  1  0
 18 22  2  0
 18  6  1  0
 19 18  1  0
 20 19  2  0
 20 21  1  0
 21 22  1  0
  2 23  1  0
  2 24  1  0
  3 25  1  0
  3 26  1  0
  4 27  1  0
  5 28  1  0
  5 29  1  0
  6 30  1  6
  8 31  1  0
  9 32  1  0
 12 33  1  0
 14 34  1  0
 16 35  1  0
 19 36  1  0
 20 37  1  0
 21 38  1  0
M  ISO  8  23  13  24  13  25  13  26  13  27   5  28  13  29  13  30  13
M  ISO  8  31  14  32  14  33  14  34  14  35  14  36  14  37  14  38   9
M  END
>  <minimizedAffinity>  (1) 
-4.40735245

>  <minimizedRMSD>  (1) 
3.39535069

$$$$
