
     RDKit          3D

 37 40  0  0  1  0  0  0  0  0999 V2000
   38.1370   25.4450   34.1550 N   0  0  0  0  0  0  0  0  0  0  0  0
   37.0660   26.0060   34.9790 C   0  0  0  0  0  0  0  0  0  0  0  0
   37.4620   27.4930   35.0150 C   0  0  0  0  0  0  0  0  0  0  0  0
   37.5960   28.0700   33.7440 N   0  0  0  0  0  0  0  0  0  0  0  0
   37.7260   27.2800   32.5900 C   0  0  0  0  0  0  0  0  0  0  0  0
   37.9480   25.8060   32.7610 C   0  0  2  0  0  0  0  0  0  0  0  0
   40.9800   22.8530   35.4680 C   0  0  0  0  0  0  0  0  0  0  0  0
   41.4150   24.1730   35.2870 C   0  0  0  0  0  0  0  0  0  0  0  0
   40.5410   25.1050   34.8540 C   0  0  0  0  0  0  0  0  0  0  0  0
   39.2100   24.6700   34.6060 C   0  0  0  0  0  0  0  0  0  0  0  0
   39.2690   22.8510   35.0260 S   0  0  0  0  0  0  0  0  0  0  0  0
   41.8520   21.3280   37.2620 C   0  0  0  0  0  0  0  0  0  0  0  0
   41.7710   21.7430   35.9200 C   0  0  0  0  0  0  0  0  0  0  0  0
   42.4760   21.0690   34.9660 C   0  0  0  0  0  0  0  0  0  0  0  0
   43.2310   20.0140   35.3870 N   0  0  0  0  0  0  0  0  0  0  0  0
   43.3130   19.6180   36.6500 C   0  0  0  0  0  0  0  0  0  0  0  0
   42.6120   20.2890   37.5950 N   0  0  0  0  0  0  0  0  0  0  0  0
   36.8890   25.0140   32.1410 N   0  0  0  0  0  0  0  0  0  0  0  0
   35.8710   25.5530   31.4470 C   0  0  0  0  0  0  0  0  0  0  0  0
   35.1010   24.5300   31.0310 N   0  0  0  0  0  0  0  0  0  0  0  0
   35.6190   23.3520   31.4540 C   0  0  0  0  0  0  0  0  0  0  0  0
   36.7430   23.6880   32.1490 N   0  0  0  0  0  0  0  0  0  0  0  0
   36.0807   25.8627   34.5113 H   0  0  0  0  0  0  0  0  0  0  0  0
   36.9698   25.5409   35.9712 H   0  0  0  0  0  0  0  0  0  0  0  0
   36.6879   28.0456   35.5677 H   0  0  0  0  0  0  0  0  0  0  0  0
   38.4469   27.5525   35.5013 H   0  0  0  0  0  0  0  0  0  0  0  0
   36.7617   28.6571   33.6019 H   0  0  0  0  0  0  0  0  0  0  0  0
   38.5797   27.6743   32.0193 H   0  0  0  0  0  0  0  0  0  0  0  0
   36.7448   27.3525   32.0982 H   0  0  0  0  0  0  0  0  0  0  0  0
   38.8816   25.5653   32.2315 H   0  0  0  0  0  0  0  0  0  0  0  0
   42.4597   24.4466   35.4961 H   0  0  0  0  0  0  0  0  0  0  0  0
   40.8434   26.1514   34.7001 H   0  0  0  0  0  0  0  0  0  0  0  0
   41.2853   21.8643   38.0374 H   0  0  0  0  0  0  0  0  0  0  0  0
   42.4373   21.3628   33.9067 H   0  0  0  0  0  0  0  0  0  0  0  0
   43.9407   18.7578   36.9259 H   0  0  0  0  0  0  0  0  0  0  0  0
   35.7004   26.6228   31.2561 H   0  0  0  0  0  0  0  0  0  0  0  0
   35.2194   22.3428   31.2755 H   0  0  0  0  0  0  0  0  0  0  0  0
  1 10  1  0
  1  2  1  0
  2  3  1  0
  4  3  1  0
  5  6  1  0
  5  4  1  0
  6  1  1  0
  7 13  1  0
  8  7  2  0
  9  8  1  0
 10  9  2  0
 10 11  1  0
 11  7  1  0
 12 17  2  0
 13 12  1  0
 14 15  1  0
 14 13  2  0
 15 16  2  0
 16 17  1  0
 18 22  1  0
 18  6  1  0
 19 18  1  0
 20 19  2  0
 20 21  1  0
 21 22  2  0
  2 23  1  0
  2 24  1  0
  3 25  1  0
  3 26  1  0
  4 27  1  0
  5 28  1  0
  5 29  1  0
  6 30  1  6
  8 31  1  0
  9 32  1  0
 12 33  1  0
 14 34  1  0
 16 35  1  0
 19 36  1  0
 21 37  1  0
M  ISO  8  23  13  24  13  25  13  26  13  27   5  28  13  29  13  30  13
M  ISO  7  31  14  32  14  33  14  34  14  35  14  36  14  37  14
M  END
>  <minimizedAffinity>  (1) 
-4.16968632

>  <minimizedRMSD>  (1) 
3.90771556

$$$$
