
     RDKit          3D

 41 44  0  0  1  0  0  0  0  0999 V2000
   37.7970   26.5930   33.7860 N   0  0  0  0  0  0  0  0  0  0  0  0
   36.6740   26.9410   34.6350 C   0  0  0  0  0  0  0  0  0  0  0  0
   36.6660   28.4570   34.5520 C   0  0  0  0  0  0  0  0  0  0  0  0
   36.5860   28.9530   33.2600 N   0  0  0  0  0  0  0  0  0  0  0  0
   36.8930   28.1650   32.1410 C   0  0  0  0  0  0  0  0  0  0  0  0
   37.4410   26.7870   32.3670 C   0  0  2  0  0  0  0  0  0  0  0  0
   36.5720   25.6830   31.9080 C   0  0  0  0  0  0  0  0  0  0  0  0
   35.4320   26.0890   31.2000 C   0  0  0  0  0  0  0  0  0  0  0  0
   34.5110   25.1950   30.7110 C   0  0  0  0  0  0  0  0  0  0  0  0
   34.6740   23.8180   30.9020 C   0  0  0  0  0  0  0  0  0  0  0  0
   35.7880   23.3970   31.5960 C   0  0  0  0  0  0  0  0  0  0  0  0
   36.6700   24.3250   32.0580 C   0  0  0  0  0  0  0  0  0  0  0  0
   41.3270   24.9040   34.9180 C   0  0  0  0  0  0  0  0  0  0  0  0
   41.2970   26.3020   34.9170 C   0  0  0  0  0  0  0  0  0  0  0  0
   40.1650   26.9420   34.5540 C   0  0  0  0  0  0  0  0  0  0  0  0
   39.0560   26.1330   34.1880 C   0  0  0  0  0  0  0  0  0  0  0  0
   39.7180   24.3980   34.3910 S   0  0  0  0  0  0  0  0  0  0  0  0
   42.4390   23.1830   36.3650 C   0  0  0  0  0  0  0  0  0  0  0  0
   42.4290   24.0690   35.2720 C   0  0  0  0  0  0  0  0  0  0  0  0
   43.5460   24.1470   34.4910 C   0  0  0  0  0  0  0  0  0  0  0  0
   44.6010   23.3530   34.8290 N   0  0  0  0  0  0  0  0  0  0  0  0
   44.6010   22.5190   35.8630 C   0  0  0  0  0  0  0  0  0  0  0  0
   43.4940   22.4360   36.6440 N   0  0  0  0  0  0  0  0  0  0  0  0
   35.7357   26.5156   34.2494 H   0  0  0  0  0  0  0  0  0  0  0  0
   36.7609   26.5557   35.6616 H   0  0  0  0  0  0  0  0  0  0  0  0
   35.8002   28.8294   35.1191 H   0  0  0  0  0  0  0  0  0  0  0  0
   37.6252   28.8022   34.9653 H   0  0  0  0  0  0  0  0  0  0  0  0
   35.6141   29.2690   33.1322 H   0  0  0  0  0  0  0  0  0  0  0  0
   37.6370   28.7176   31.5484 H   0  0  0  0  0  0  0  0  0  0  0  0
   35.9205   27.9929   31.6567 H   0  0  0  0  0  0  0  0  0  0  0  0
   38.3401   26.7362   31.7352 H   0  0  0  0  0  0  0  0  0  0  0  0
   35.2691   27.1635   31.0298 H   0  0  0  0  0  0  0  0  0  0  0  0
   33.6333   25.5663   30.1617 H   0  0  0  0  0  0  0  0  0  0  0  0
   33.9395   23.0978   30.5123 H   0  0  0  0  0  0  0  0  0  0  0  0
   35.9619   22.3255   31.7741 H   0  0  0  0  0  0  0  0  0  0  0  0
   37.5467   23.9478   32.6050 H   0  0  0  0  0  0  0  0  0  0  0  0
   42.1887   26.8758   35.2097 H   0  0  0  0  0  0  0  0  0  0  0  0
   40.1041   28.0403   34.5422 H   0  0  0  0  0  0  0  0  0  0  0  0
   41.5465   23.1098   37.0038 H   0  0  0  0  0  0  0  0  0  0  0  0
   43.5927   24.8229   33.6244 H   0  0  0  0  0  0  0  0  0  0  0  0
   45.4861   21.9041   36.0833 H   0  0  0  0  0  0  0  0  0  0  0  0
  1 16  1  0
  1  2  1  0
  3  2  1  0
  4  3  1  0
  5  6  1  0
  5  4  1  0
  6  1  1  0
  7 12  1  0
  7  6  1  0
  8  7  2  0
  9 10  2  0
  9  8  1  0
 10 11  1  0
 11 12  2  0
 13 19  1  0
 14 13  2  0
 15 14  1  0
 16 17  1  0
 16 15  2  0
 17 13  1  0
 18 23  2  0
 19 18  1  0
 20 21  1  0
 20 19  2  0
 21 22  2  0
 22 23  1  0
  2 24  1  0
  2 25  1  0
  3 26  1  0
  3 27  1  0
  4 28  1  0
  5 29  1  0
  5 30  1  0
  6 31  1  6
  8 32  1  0
  9 33  1  0
 10 34  1  0
 11 35  1  0
 12 36  1  0
 14 37  1  0
 15 38  1  0
 18 39  1  0
 20 40  1  0
 22 41  1  0
M  ISO  8  24  13  25  13  26  13  27  13  28   5  29  13  30  13  31  13
M  ISO  8  32  14  33  14  34  14  35  14  36  14  37  14  38  14  39  14
M  ISO  2  40  14  41  14
M  END
>  <minimizedAffinity>  (1) 
-4.18974018

>  <minimizedRMSD>  (1) 
3.3940587

$$$$
