
     RDKit          3D

 36 39  0  0  1  0  0  0  0  0999 V2000
   37.4750   26.7400   33.6840 N   0  0  0  0  0  0  0  0  0  0  0  0
   36.3480   27.0930   34.5500 C   0  0  0  0  0  0  0  0  0  0  0  0
   36.3360   28.6200   34.4370 C   0  0  0  0  0  0  0  0  0  0  0  0
   36.2180   29.0740   33.1260 N   0  0  0  0  0  0  0  0  0  0  0  0
   36.5160   28.2570   32.0180 C   0  0  0  0  0  0  0  0  0  0  0  0
   37.1140   26.9070   32.2880 C   0  0  2  0  0  0  0  0  0  0  0  0
   40.9870   25.0830   34.8730 C   0  0  0  0  0  0  0  0  0  0  0  0
   40.9900   26.4830   34.8160 C   0  0  0  0  0  0  0  0  0  0  0  0
   39.8540   27.1180   34.4270 C   0  0  0  0  0  0  0  0  0  0  0  0
   38.7350   26.3020   34.1030 C   0  0  0  0  0  0  0  0  0  0  0  0
   39.3680   24.5750   34.3760 S   0  0  0  0  0  0  0  0  0  0  0  0
   41.9550   22.9320   35.7430 C   0  0  0  0  0  0  0  0  0  0  0  0
   42.0870   24.2450   35.2570 C   0  0  0  0  0  0  0  0  0  0  0  0
   43.3390   24.7770   35.1360 C   0  0  0  0  0  0  0  0  0  0  0  0
   44.3960   23.9980   35.4990 N   0  0  0  0  0  0  0  0  0  0  0  0
   44.2540   22.7440   35.9620 C   0  0  0  0  0  0  0  0  0  0  0  0
   43.0030   22.2080   36.0840 N   0  0  0  0  0  0  0  0  0  0  0  0
   36.3070   25.7760   31.7690 C   0  0  0  0  0  0  0  0  0  0  0  0
   35.2650   25.7810   30.9040 N   0  0  0  0  0  0  0  0  0  0  0  0
   34.8180   24.5820   30.6920 O   0  0  0  0  0  0  0  0  0  0  0  0
   35.5220   23.7300   31.3910 C   0  0  0  0  0  0  0  0  0  0  0  0
   36.4420   24.4480   32.0590 N   0  0  0  0  0  0  0  0  0  0  0  0
   35.4077   26.6563   34.1824 H   0  0  0  0  0  0  0  0  0  0  0  0
   36.4441   26.7223   35.5812 H   0  0  0  0  0  0  0  0  0  0  0  0
   35.4859   29.0065   35.0183 H   0  0  0  0  0  0  0  0  0  0  0  0
   37.3004   28.9829   34.8221 H   0  0  0  0  0  0  0  0  0  0  0  0
   35.2374   29.3675   33.0109 H   0  0  0  0  0  0  0  0  0  0  0  0
   37.2247   28.8094   31.3835 H   0  0  0  0  0  0  0  0  0  0  0  0
   35.5392   28.0421   31.5600 H   0  0  0  0  0  0  0  0  0  0  0  0
   38.0475   26.8777   31.7069 H   0  0  0  0  0  0  0  0  0  0  0  0
   41.8918   27.0548   35.0803 H   0  0  0  0  0  0  0  0  0  0  0  0
   39.8018   28.2150   34.3653 H   0  0  0  0  0  0  0  0  0  0  0  0
   40.9495   22.4968   35.8414 H   0  0  0  0  0  0  0  0  0  0  0  0
   43.4888   25.7993   34.7584 H   0  0  0  0  0  0  0  0  0  0  0  0
   45.1390   22.1532   36.2408 H   0  0  0  0  0  0  0  0  0  0  0  0
   35.3878   22.6388   31.4257 H   0  0  0  0  0  0  0  0  0  0  0  0
  1 10  1  0
  1  2  1  0
  3  2  1  0
  4  3  1  0
  5  6  1  0
  5  4  1  0
  6  1  1  0
  7 13  1  0
  8  7  2  0
  9  8  1  0
 10 11  1  0
 10  9  2  0
 11  7  1  0
 12 17  2  0
 13 12  1  0
 14 13  2  0
 14 15  1  0
 15 16  2  0
 16 17  1  0
 18 22  1  0
 18  6  1  0
 19 18  2  0
 20 19  1  0
 20 21  1  0
 21 22  2  0
  2 23  1  0
  2 24  1  0
  3 25  1  0
  3 26  1  0
  4 27  1  0
  5 28  1  0
  5 29  1  0
  6 30  1  6
  8 31  1  0
  9 32  1  0
 12 33  1  0
 14 34  1  0
 16 35  1  0
 21 36  1  0
M  ISO  8  23  13  24  13  25  13  26  13  27   5  28  13  29  13  30  13
M  ISO  6  31  14  32  14  33  14  34  14  35  14  36  14
M  END
>  <minimizedAffinity>  (1) 
-4.32526541

>  <minimizedRMSD>  (1) 
3.14339519

$$$$
