
     RDKit          3D

 39 42  0  0  1  0  0  0  0  0999 V2000
   38.8470   24.9480   34.5890 N   0  0  0  0  0  0  0  0  0  0  0  0
   37.7340   25.3050   35.4780 C   0  0  0  0  0  0  0  0  0  0  0  0
   38.0790   26.7400   35.8510 C   0  0  0  0  0  0  0  0  0  0  0  0
   38.2670   27.5900   34.7480 N   0  0  0  0  0  0  0  0  0  0  0  0
   38.4840   27.0840   33.4550 C   0  0  0  0  0  0  0  0  0  0  0  0
   38.6950   25.6040   33.3030 C   0  0  2  0  0  0  0  0  0  0  0  0
   41.6590   22.1580   35.4990 C   0  0  0  0  0  0  0  0  0  0  0  0
   42.1330   23.4750   35.4320 C   0  0  0  0  0  0  0  0  0  0  0  0
   41.2690   24.4700   35.1350 C   0  0  0  0  0  0  0  0  0  0  0  0
   39.9140   24.1000   34.9090 C   0  0  0  0  0  0  0  0  0  0  0  0
   39.9290   22.2510   35.1400 S   0  0  0  0  0  0  0  0  0  0  0  0
   42.6330   20.4850   37.0960 C   0  0  0  0  0  0  0  0  0  0  0  0
   42.4270   20.9840   35.7980 C   0  0  0  0  0  0  0  0  0  0  0  0
   42.9870   20.3270   34.7390 C   0  0  0  0  0  0  0  0  0  0  0  0
   43.7200   19.2140   35.0310 N   0  0  0  0  0  0  0  0  0  0  0  0
   43.9130   18.7450   36.2570 C   0  0  0  0  0  0  0  0  0  0  0  0
   43.3570   19.3950   37.3120 N   0  0  0  0  0  0  0  0  0  0  0  0
   37.5460   24.9680   32.5660 C   0  0  0  0  0  0  0  0  0  0  0  0
   37.5640   23.6030   32.3660 C   0  0  0  0  0  0  0  0  0  0  0  0
   36.4890   23.0480   31.6820 C   0  0  0  0  0  0  0  0  0  0  0  0
   35.4670   23.8040   31.2290 N   0  0  0  0  0  0  0  0  0  0  0  0
   35.4810   25.1470   31.4430 C   0  0  0  0  0  0  0  0  0  0  0  0
   36.5100   25.7040   32.1020 N   0  0  0  0  0  0  0  0  0  0  0  0
   36.7688   25.2489   34.9533 H   0  0  0  0  0  0  0  0  0  0  0  0
   37.6233   24.6349   36.3433 H   0  0  0  0  0  0  0  0  0  0  0  0
   37.2594   27.1444   36.4631 H   0  0  0  0  0  0  0  0  0  0  0  0
   39.0362   26.7058   36.3919 H   0  0  0  0  0  0  0  0  0  0  0  0
   37.4252   28.1807   34.6905 H   0  0  0  0  0  0  0  0  0  0  0  0
   37.6079   27.3537   32.8469 H   0  0  0  0  0  0  0  0  0  0  0  0
   39.4388   27.5313   33.1415 H   0  0  0  0  0  0  0  0  0  0  0  0
   39.6222   25.4755   32.7253 H   0  0  0  0  0  0  0  0  0  0  0  0
   43.1943   23.6956   35.6187 H   0  0  0  0  0  0  0  0  0  0  0  0
   41.5979   25.5177   35.0709 H   0  0  0  0  0  0  0  0  0  0  0  0
   42.1837   21.0103   37.9516 H   0  0  0  0  0  0  0  0  0  0  0  0
   42.8538   20.6772   33.7048 H   0  0  0  0  0  0  0  0  0  0  0  0
   44.5168   17.8396   36.4173 H   0  0  0  0  0  0  0  0  0  0  0  0
   38.3937   22.9806   32.7323 H   0  0  0  0  0  0  0  0  0  0  0  0
   36.4707   21.9625   31.5050 H   0  0  0  0  0  0  0  0  0  0  0  0
   34.6538   25.7737   31.0782 H   0  0  0  0  0  0  0  0  0  0  0  0
  1 10  1  0
  1  2  1  0
  2  3  1  0
  4  3  1  0
  5  4  1  0
  6  5  1  0
  6  1  1  0
  7 13  1  0
  8  7  2  0
  9  8  1  0
 10  9  2  0
 10 11  1  0
 11  7  1  0
 12 17  2  0
 13 12  1  0
 14 15  1  0
 14 13  2  0
 15 16  2  0
 16 17  1  0
 18  6  1  0
 19 18  2  0
 20 19  1  0
 21 22  1  0
 21 20  2  0
 22 23  2  0
 23 18  1  0
  2 24  1  0
  2 25  1  0
  3 26  1  0
  3 27  1  0
  4 28  1  0
  5 29  1  0
  5 30  1  0
  6 31  1  6
  8 32  1  0
  9 33  1  0
 12 34  1  0
 14 35  1  0
 16 36  1  0
 19 37  1  0
 20 38  1  0
 22 39  1  0
M  ISO  8  24  13  25  13  26  13  27  13  28   5  29  13  30  13  31  13
M  ISO  8  32  14  33  14  34  14  35  14  36  14  37  14  38  14  39  14
M  END
>  <minimizedAffinity>  (1) 
-4.21464443

>  <minimizedRMSD>  (1) 
4.83737469

$$$$
