
     RDKit          3D

 44 47  0  0  1  0  0  0  0  0999 V2000
   36.5150   27.5800   32.6900 N   0  0  0  0  0  0  0  0  0  0  0  0
   35.9560   26.5050   31.8730 C   0  0  0  0  0  0  0  0  0  0  0  0
   36.3060   26.9940   30.4600 C   0  0  0  0  0  0  0  0  0  0  0  0
   37.6870   27.1650   30.2790 N   0  0  0  0  0  0  0  0  0  0  0  0
   38.5640   27.3140   31.3750 C   0  0  0  0  0  0  0  0  0  0  0  0
   37.9580   27.4730   32.7390 C   0  0  2  0  0  0  0  0  0  0  0  0
   34.7720   30.5300   34.8730 C   0  0  0  0  0  0  0  0  0  0  0  0
   34.0690   30.1360   33.7240 C   0  0  0  0  0  0  0  0  0  0  0  0
   34.5710   29.1630   32.9380 C   0  0  0  0  0  0  0  0  0  0  0  0
   35.8080   28.5910   33.3420 C   0  0  0  0  0  0  0  0  0  0  0  0
   36.2210   29.5180   34.9080 S   0  0  0  0  0  0  0  0  0  0  0  0
   33.1410   31.5710   36.4710 C   0  0  0  0  0  0  0  0  0  0  0  0
   34.3830   31.5430   35.8120 C   0  0  0  0  0  0  0  0  0  0  0  0
   35.2920   32.5300   36.0580 C   0  0  0  0  0  0  0  0  0  0  0  0
   34.9240   33.4950   36.9470 N   0  0  0  0  0  0  0  0  0  0  0  0
   33.7560   33.5290   37.5740 C   0  0  0  0  0  0  0  0  0  0  0  0
   32.8620   32.5540   37.3280 N   0  0  0  0  0  0  0  0  0  0  0  0
   38.4140   26.5100   33.7100 N   0  0  0  0  0  0  0  0  0  0  0  0
   38.8820   25.2730   33.1450 C   0  0  0  0  0  0  0  0  0  0  0  0
   39.5080   24.5290   34.3310 C   0  0  0  0  0  0  0  0  0  0  0  0
   38.5110   24.1840   35.2510 O   0  0  0  0  0  0  0  0  0  0  0  0
   37.8950   25.3270   35.7650 C   0  0  0  0  0  0  0  0  0  0  0  0
   37.3330   26.0980   34.5920 C   0  0  0  0  0  0  0  0  0  0  0  0
   36.4334   25.5393   32.0955 H   0  0  0  0  0  0  0  0  0  0  0  0
   34.8833   26.3241   32.0361 H   0  0  0  0  0  0  0  0  0  0  0  0
   35.9431   26.2549   29.7306 H   0  0  0  0  0  0  0  0  0  0  0  0
   35.8255   27.9729   30.3157 H   0  0  0  0  0  0  0  0  0  0  0  0
   38.0151   26.3412   29.7549 H   0  0  0  0  0  0  0  0  0  0  0  0
   39.2077   26.4225   31.4038 H   0  0  0  0  0  0  0  0  0  0  0  0
   39.0813   28.2667   31.1887 H   0  0  0  0  0  0  0  0  0  0  0  0
   38.3387   28.4363   33.1092 H   0  0  0  0  0  0  0  0  0  0  0  0
   33.1144   30.6182   33.4666 H   0  0  0  0  0  0  0  0  0  0  0  0
   34.0495   28.8282   32.0292 H   0  0  0  0  0  0  0  0  0  0  0  0
   32.3992   30.7817   36.2795 H   0  0  0  0  0  0  0  0  0  0  0  0
   36.2741   32.5461   35.5629 H   0  0  0  0  0  0  0  0  0  0  0  0
   33.5226   34.3384   38.2813 H   0  0  0  0  0  0  0  0  0  0  0  0
   38.0462   24.6972   32.7208 H   0  0  0  0  0  0  0  0  0  0  0  0
   39.5954   25.4294   32.3225 H   0  0  0  0  0  0  0  0  0  0  0  0
   40.0036   23.6160   33.9694 H   0  0  0  0  0  0  0  0  0  0  0  0
   40.2462   25.1807   34.8212 H   0  0  0  0  0  0  0  0  0  0  0  0
   37.0844   25.0418   36.4517 H   0  0  0  0  0  0  0  0  0  0  0  0
   38.6157   25.9401   36.3260 H   0  0  0  0  0  0  0  0  0  0  0  0
   36.8028   26.9885   34.9606 H   0  0  0  0  0  0  0  0  0  0  0  0
   36.6351   25.4551   34.0355 H   0  0  0  0  0  0  0  0  0  0  0  0
  1  6  1  0
  1 10  1  0
  2  1  1  0
  3  2  1  0
  4  3  1  0
  4  5  1  0
  5  6  1  0
  6 18  1  0
  7 11  1  0
  7 13  1  0
  8  7  2  0
  9 10  2  0
  9  8  1  0
 10 11  1  0
 12 17  2  0
 13 14  2  0
 13 12  1  0
 14 15  1  0
 15 16  2  0
 17 16  1  0
 18 23  1  0
 19 18  1  0
 19 20  1  0
 20 21  1  0
 21 22  1  0
 23 22  1  0
  2 24  1  0
  2 25  1  0
  3 26  1  0
  3 27  1  0
  4 28  1  0
  5 29  1  0
  5 30  1  0
  6 31  1  1
  8 32  1  0
  9 33  1  0
 12 34  1  0
 14 35  1  0
 16 36  1  0
 19 37  1  0
 19 38  1  0
 20 39  1  0
 20 40  1  0
 22 41  1  0
 22 42  1  0
 23 43  1  0
 23 44  1  0
M  ISO  8  24  13  25  13  26  13  27  13  28   5  29  13  30  13  31  13
M  ISO  8  32  14  33  14  34  14  35  14  36  14  37  13  38  13  39  13
M  ISO  5  40  13  41  13  42  13  43  13  44  13
M  END
>  <minimizedAffinity>  (1) 
-4.32781315

>  <minimizedRMSD>  (1) 
6.64347744

$$$$
