
     RDKit          3D

 47 49  0  0  1  0  0  0  0  0999 V2000
   38.0290   26.1280   35.3690 C   0  0  0  0  0  0  0  0  0  0  0  0
   36.8200   25.4090   31.9360 C   0  0  0  0  0  0  0  0  0  0  0  0
   37.4210   25.3160   33.1880 C   0  0  0  0  0  0  0  0  0  0  0  0
   37.4030   26.3530   34.0500 C   0  0  0  0  0  0  0  0  0  0  0  0
   36.7830   27.5080   33.6650 N   0  0  0  0  0  0  0  0  0  0  0  0
   36.1990   27.6010   32.4460 C   0  0  0  0  0  0  0  0  0  0  0  0
   36.2170   26.5910   31.6150 N   0  0  0  0  0  0  0  0  0  0  0  0
   35.5640   28.9030   32.0610 C   0  0  2  0  0  0  0  0  0  0  0  0
   36.3460   29.4830   30.8550 C   0  0  0  0  0  0  0  0  0  0  0  0
   35.5730   29.9040   33.1380 C   0  0  0  0  0  0  0  0  0  0  0  0
   34.2120   30.2050   33.6680 C   0  0  0  0  0  0  0  0  0  0  0  0
   33.5310   29.4870   34.7380 C   0  0  0  0  0  0  0  0  0  0  0  0
   33.0120   29.4240   33.3010 C   0  0  0  0  0  0  0  0  0  0  0  0
   37.9460   24.7070   35.7350 C   0  0  0  0  0  0  0  0  0  0  0  0
   39.1720   24.2240   36.3240 N   0  0  0  0  0  0  0  0  0  0  0  0
   39.9280   23.4400   35.3120 C   0  0  0  0  0  0  0  0  0  0  0  0
   40.9800   22.7740   36.1620 C   0  0  0  0  0  0  0  0  0  0  0  0
   40.3650   22.6800   37.5570 C   0  0  0  0  0  0  0  0  0  0  0  0
   38.9520   23.1830   37.2730 C   0  0  1  0  0  0  0  0  0  0  0  0
   38.4020   23.6820   38.5820 C   0  0  0  0  0  0  0  0  0  0  0  0
   39.2880   23.7280   39.6070 F   0  0  0  0  0  0  0  0  0  0  0  0
   37.2800   22.9510   38.8800 F   0  0  0  0  0  0  0  0  0  0  0  0
   37.9870   25.0190   38.4140 F   0  0  0  0  0  0  0  0  0  0  0  0
   37.5056   26.7295   36.1268 H   0  0  0  0  0  0  0  0  0  0  0  0
   39.0872   26.4243   35.3191 H   0  0  0  0  0  0  0  0  0  0  0  0
   36.8305   24.5632   31.2327 H   0  0  0  0  0  0  0  0  0  0  0  0
   37.9196   24.3799   33.4796 H   0  0  0  0  0  0  0  0  0  0  0  0
   34.5108   28.6930   31.8229 H   0  0  0  0  0  0  0  0  0  0  0  0
   37.1791   30.1009   31.2212 H   0  0  0  0  0  0  0  0  0  0  0  0
   36.7420   28.6585   30.2440 H   0  0  0  0  0  0  0  0  0  0  0  0
   35.6719   30.1012   30.2440 H   0  0  0  0  0  0  0  0  0  0  0  0
   36.1941   29.5251   33.9630 H   0  0  0  0  0  0  0  0  0  0  0  0
   35.9743   30.8370   32.7154 H   0  0  0  0  0  0  0  0  0  0  0  0
   34.5261   31.2532   33.5562 H   0  0  0  0  0  0  0  0  0  0  0  0
   33.9996   28.6029   35.1949 H   0  0  0  0  0  0  0  0  0  0  0  0
   33.1018   29.7600   35.7133 H   0  0  0  0  0  0  0  0  0  0  0  0
   32.0788   29.9364   33.0244 H   0  0  0  0  0  0  0  0  0  0  0  0
   32.7788   28.6268   32.5799 H   0  0  0  0  0  0  0  0  0  0  0  0
   37.1287   24.5747   36.4593 H   0  0  0  0  0  0  0  0  0  0  0  0
   37.7628   24.1313   34.8158 H   0  0  0  0  0  0  0  0  0  0  0  0
   40.3814   24.0957   34.5541 H   0  0  0  0  0  0  0  0  0  0  0  0
   39.3070   22.7362   34.7385 H   0  0  0  0  0  0  0  0  0  0  0  0
   41.2118   21.7712   35.7740 H   0  0  0  0  0  0  0  0  0  0  0  0
   41.9244   23.3381   36.1655 H   0  0  0  0  0  0  0  0  0  0  0  0
   40.3603   21.6451   37.9298 H   0  0  0  0  0  0  0  0  0  0  0  0
   40.9038   23.2418   38.3342 H   0  0  0  0  0  0  0  0  0  0  0  0
   38.2342   22.4474   36.8810 H   0  0  0  0  0  0  0  0  0  0  0  0
  1 14  1  0
  2  3  2  0
  3  4  1  0
  4  1  1  0
  5  4  2  0
  6  5  1  0
  7  2  1  0
  7  6  2  0
  8  6  1  0
  8 10  1  0
  9  8  1  0
 10 11  1  0
 11 12  1  0
 13 11  1  0
 13 12  1  0
 14 15  1  0
 15 19  1  0
 16 17  1  0
 16 15  1  0
 17 18  1  0
 19 18  1  0
 19 20  1  0
 20 22  1  0
 20 21  1  0
 23 20  1  0
  1 24  1  0
  1 25  1  0
  2 26  1  0
  3 27  1  0
  8 28  1  6
  9 29  1  0
  9 30  1  0
  9 31  1  0
 10 32  1  0
 10 33  1  0
 11 34  1  0
 12 35  1  0
 12 36  1  0
 13 37  1  0
 13 38  1  0
 14 39  1  0
 14 40  1  0
 16 41  1  0
 16 42  1  0
 17 43  1  0
 17 44  1  0
 18 45  1  0
 18 46  1  0
 19 47  1  6
M  ISO  8  24   8  25   8  26  14  27  14  28   8  29   8  30   8  31   8
M  ISO  8  32   8  33   8  34  13  35  13  36  13  37  13  38  13  39   8
M  ISO  8  40   8  41  13  42  13  43  13  44  13  45  13  46  13  47  13
M  END
>  <minimizedAffinity>  (1) 
-5.42283058

>  <minimizedRMSD>  (1) 
1.01294374

$$$$
