
     RDKit          3D

 41 42  0  0  1  0  0  0  0  0999 V2000
   38.1210   26.1820   35.3670 C   0  0  0  0  0  0  0  0  0  0  0  0
   36.6960   25.5410   32.0010 C   0  0  0  0  0  0  0  0  0  0  0  0
   37.3650   25.4200   33.2180 C   0  0  0  0  0  0  0  0  0  0  0  0
   37.4240   26.4460   34.0930 C   0  0  0  0  0  0  0  0  0  0  0  0
   36.8070   27.6130   33.7420 N   0  0  0  0  0  0  0  0  0  0  0  0
   36.1630   27.7460   32.5780 C   0  0  0  0  0  0  0  0  0  0  0  0
   36.1060   26.7450   31.7350 N   0  0  0  0  0  0  0  0  0  0  0  0
   35.5470   29.0590   32.2450 C   0  0  2  0  0  0  0  0  0  0  0  0
   36.5110   29.8470   31.3070 C   0  0  0  0  0  0  0  0  0  0  0  0
   35.3360   29.9330   33.4160 C   0  0  0  0  0  0  0  0  0  0  0  0
   33.7410   29.7340   34.2220 S   0  0  0  0  0  0  0  0  0  0  0  0
   37.9910   24.7660   35.7360 C   0  0  0  0  0  0  0  0  0  0  0  0
   39.2020   24.2450   36.3270 N   0  0  0  0  0  0  0  0  0  0  0  0
   39.9490   23.4620   35.3120 C   0  0  0  0  0  0  0  0  0  0  0  0
   40.9670   22.7390   36.1540 C   0  0  0  0  0  0  0  0  0  0  0  0
   40.3480   22.6630   37.5510 C   0  0  0  0  0  0  0  0  0  0  0  0
   38.9400   23.1950   37.2560 C   0  0  1  0  0  0  0  0  0  0  0  0
   38.4000   23.6880   38.5720 C   0  0  0  0  0  0  0  0  0  0  0  0
   39.2880   23.7280   39.5940 F   0  0  0  0  0  0  0  0  0  0  0  0
   37.2790   22.9550   38.8680 F   0  0  0  0  0  0  0  0  0  0  0  0
   37.9830   25.0240   38.4090 F   0  0  0  0  0  0  0  0  0  0  0  0
   37.6789   26.8052   36.1583 H   0  0  0  0  0  0  0  0  0  0  0  0
   39.1874   26.4241   35.2480 H   0  0  0  0  0  0  0  0  0  0  0  0
   36.6452   24.7056   31.2872 H   0  0  0  0  0  0  0  0  0  0  0  0
   37.8552   24.4682   33.4706 H   0  0  0  0  0  0  0  0  0  0  0  0
   34.5734   28.8235   31.7905 H   0  0  0  0  0  0  0  0  0  0  0  0
   37.2209   30.4273   31.9147 H   0  0  0  0  0  0  0  0  0  0  0  0
   37.0646   29.1395   30.6722 H   0  0  0  0  0  0  0  0  0  0  0  0
   35.9277   30.5303   30.6722 H   0  0  0  0  0  0  0  0  0  0  0  0
   36.1225   29.7143   34.1533 H   0  0  0  0  0  0  0  0  0  0  0  0
   35.3694   30.9672   33.0427 H   0  0  0  0  0  0  0  0  0  0  0  0
   33.9104   29.7551   35.5813 H   0  0  0  0  0  0  0  0  0  0  0  0
   37.1697   24.6622   36.4603 H   0  0  0  0  0  0  0  0  0  0  0  0
   37.7886   24.1940   34.8184 H   0  0  0  0  0  0  0  0  0  0  0  0
   40.4347   24.1215   34.5777 H   0  0  0  0  0  0  0  0  0  0  0  0
   39.3128   22.7915   34.7156 H   0  0  0  0  0  0  0  0  0  0  0  0
   41.1494   21.7294   35.7571 H   0  0  0  0  0  0  0  0  0  0  0  0
   41.9378   23.2562   36.1612 H   0  0  0  0  0  0  0  0  0  0  0  0
   40.3220   21.6303   37.9290 H   0  0  0  0  0  0  0  0  0  0  0  0
   40.8958   23.2162   38.3281 H   0  0  0  0  0  0  0  0  0  0  0  0
   38.2055   22.4864   36.8456 H   0  0  0  0  0  0  0  0  0  0  0  0
  1 12  1  0
  2  3  2  0
  3  4  1  0
  4  1  1  0
  5  4  2  0
  6  5  1  0
  7  2  1  0
  7  6  2  0
  8  6  1  0
  8 10  1  0
  9  8  1  0
 10 11  1  0
 12 13  1  0
 13 17  1  0
 14 15  1  0
 14 13  1  0
 15 16  1  0
 17 16  1  0
 17 18  1  0
 18 20  1  0
 18 19  1  0
 21 18  1  0
  1 22  1  0
  1 23  1  0
  2 24  1  0
  3 25  1  0
  8 26  1  6
  9 27  1  0
  9 28  1  0
  9 29  1  0
 10 30  1  0
 10 31  1  0
 11 32  1  0
 12 33  1  0
 12 34  1  0
 14 35  1  0
 14 36  1  0
 15 37  1  0
 15 38  1  0
 16 39  1  0
 16 40  1  0
 17 41  1  6
M  ISO  8  22   8  23   8  24  14  25  14  26   8  27   8  28   8  29   8
M  ISO  8  30   8  31   8  32  11  33   8  34   8  35  13  36  13  37  13
M  ISO  4  38  13  39  13  40  13  41  13
M  END
>  <minimizedAffinity>  (1) 
-5.16586208

>  <minimizedRMSD>  (1) 
0.315819293

$$$$
