
     RDKit          3D

 45 49  0  0  1  0  0  0  0  0999 V2000
   36.7780   26.4570   33.1020 C   0  0  0  0  0  0  0  0  0  0  0  0
   36.9690   27.1120   34.3120 C   0  0  0  0  0  0  0  0  0  0  0  0
   36.5840   28.4120   34.4110 C   0  0  0  0  0  0  0  0  0  0  0  0
   36.0110   29.0060   33.2660 C   0  0  0  0  0  0  0  0  0  0  0  0
   36.0350   27.6350   32.0090 S   0  0  0  0  0  0  0  0  0  0  0  0
   38.2900   24.4540   33.2780 C   0  0  0  0  0  0  0  0  0  0  0  0
   37.1270   25.0850   32.8090 C   0  0  0  0  0  0  0  0  0  0  0  0
   36.2680   24.3860   32.0280 C   0  0  0  0  0  0  0  0  0  0  0  0
   36.5760   23.0940   31.7310 N   0  0  0  0  0  0  0  0  0  0  0  0
   37.7040   22.5020   32.1930 C   0  0  0  0  0  0  0  0  0  0  0  0
   38.5640   23.2070   32.9780 N   0  0  0  0  0  0  0  0  0  0  0  0
   37.9320   21.1470   31.8240 N   0  0  0  0  0  0  0  0  0  0  0  0
   39.0850   20.6950   31.3090 C   0  0  0  0  0  0  0  0  0  0  0  0
   38.9680   19.3640   31.0720 N   0  0  0  0  0  0  0  0  0  0  0  0
   37.7390   19.0030   31.4440 C   0  0  0  0  0  0  0  0  0  0  0  0
   37.0500   17.8050   31.4420 C   0  0  0  0  0  0  0  0  0  0  0  0
   35.7810   17.7640   31.8960 N   0  0  0  0  0  0  0  0  0  0  0  0
   35.1570   18.8780   32.3570 C   0  0  0  0  0  0  0  0  0  0  0  0
   35.8230   20.0570   32.3630 N   0  0  0  0  0  0  0  0  0  0  0  0
   37.0780   20.1340   31.9220 C   0  0  0  0  0  0  0  0  0  0  0  0
   37.7010   16.6330   30.9590 N   0  0  0  0  0  0  0  0  0  0  0  0
   35.5420   30.3270   33.1240 N   0  0  0  0  0  0  0  0  0  0  0  0
   34.7510   31.0580   34.1330 C   0  0  0  0  0  0  0  0  0  0  0  0
   35.8140   32.0320   34.6900 C   0  0  0  0  0  0  0  0  0  0  0  0
   36.4100   32.8260   33.6990 N   0  0  0  0  0  0  0  0  0  0  0  0
   36.3690   32.4820   32.3470 C   0  0  0  0  0  0  0  0  0  0  0  0
   35.7740   31.1510   31.9700 C   0  0  2  0  0  0  0  0  0  0  0  0
   34.1200   31.3790   31.2070 S   0  0  0  0  0  0  0  0  0  0  0  0
   37.4208   26.5914   35.1692 H   0  0  0  0  0  0  0  0  0  0  0  0
   36.7137   28.9779   35.3453 H   0  0  0  0  0  0  0  0  0  0  0  0
   38.9885   25.0192   33.9126 H   0  0  0  0  0  0  0  0  0  0  0  0
   35.3473   24.8500   31.6447 H   0  0  0  0  0  0  0  0  0  0  0  0
   39.9795   21.3039   31.1111 H   0  0  0  0  0  0  0  0  0  0  0  0
   34.1208   18.8235   32.7220 H   0  0  0  0  0  0  0  0  0  0  0  0
   37.2011   15.7325   30.9509 H   0  0  0  0  0  0  0  0  0  0  0  0
   38.6714   16.6864   30.6179 H   0  0  0  0  0  0  0  0  0  0  0  0
   33.9096   31.5975   33.6737 H   0  0  0  0  0  0  0  0  0  0  0  0
   34.2805   30.4167   34.8928 H   0  0  0  0  0  0  0  0  0  0  0  0
   35.3312   32.6935   35.4244 H   0  0  0  0  0  0  0  0  0  0  0  0
   36.6100   31.4226   35.1428 H   0  0  0  0  0  0  0  0  0  0  0  0
   35.9716   33.7551   33.7727 H   0  0  0  0  0  0  0  0  0  0  0  0
   35.7856   33.2583   31.8303 H   0  0  0  0  0  0  0  0  0  0  0  0
   37.4261   32.4013   32.0537 H   0  0  0  0  0  0  0  0  0  0  0  0
   36.4935   30.6825   31.2823 H   0  0  0  0  0  0  0  0  0  0  0  0
   33.1767   31.5090   32.1920 H   0  0  0  0  0  0  0  0  0  0  0  0
  1  2  2  0
  2  3  1  0
  4  3  2  0
  5  1  1  0
  5  4  1  0
  7  1  1  0
  7  6  2  0
  8  7  1  0
  9  8  2  0
  9 10  1  0
 10 11  2  0
 11  6  1  0
 12 20  1  0
 12 10  1  0
 13 12  1  0
 14 13  2  0
 14 15  1  0
 15 20  2  0
 16 15  1  0
 16 17  2  0
 17 18  1  0
 18 19  2  0
 20 19  1  0
 21 16  1  0
 22  4  1  0
 22 23  1  0
 23 24  1  0
 25 24  1  0
 26 25  1  0
 27 26  1  0
 27 22  1  0
 28 27  1  0
  2 29  1  0
  3 30  1  0
  6 31  1  0
  8 32  1  0
 13 33  1  0
 18 34  1  0
 21 35  1  0
 21 36  1  0
 23 37  1  0
 23 38  1  0
 24 39  1  0
 24 40  1  0
 25 41  1  0
 26 42  1  0
 26 43  1  0
 27 44  1  6
 28 45  1  0
M  ISO  8  29  14  30  14  31  14  32  14  33  14  34  14  37  13  38  13
M  ISO  7  39  13  40  13  41   5  42  13  43  13  44  13  45  11
M  END
>  <minimizedAffinity>  (1) 
-5.21595335

>  <minimizedRMSD>  (1) 
6.53826284

$$$$
