
     RDKit          3D

 43 47  0  0  1  0  0  0  0  0999 V2000
   38.0310   26.3110   34.8890 C   0  0  0  0  0  0  0  0  0  0  0  0
   37.8260   27.4880   35.5990 C   0  0  0  0  0  0  0  0  0  0  0  0
   37.0570   28.4550   35.0310 C   0  0  0  0  0  0  0  0  0  0  0  0
   36.5180   28.1920   33.7550 C   0  0  0  0  0  0  0  0  0  0  0  0
   37.1460   26.4860   33.3590 S   0  0  0  0  0  0  0  0  0  0  0  0
   38.4240   24.2930   36.3290 C   0  0  0  0  0  0  0  0  0  0  0  0
   38.8140   25.1750   35.3190 C   0  0  0  0  0  0  0  0  0  0  0  0
   39.9990   24.9770   34.6930 C   0  0  0  0  0  0  0  0  0  0  0  0
   40.7660   23.9200   35.0760 N   0  0  0  0  0  0  0  0  0  0  0  0
   40.3710   23.0740   36.0590 C   0  0  0  0  0  0  0  0  0  0  0  0
   39.1720   23.2760   36.6910 N   0  0  0  0  0  0  0  0  0  0  0  0
   41.3000   22.0360   36.3180 N   0  0  0  0  0  0  0  0  0  0  0  0
   41.4510   21.5430   37.5730 C   0  0  0  0  0  0  0  0  0  0  0  0
   42.3970   20.5670   37.5300 N   0  0  0  0  0  0  0  0  0  0  0  0
   42.8350   20.4470   36.2660 C   0  0  0  0  0  0  0  0  0  0  0  0
   43.7340   19.6950   35.5650 C   0  0  0  0  0  0  0  0  0  0  0  0
   43.9530   19.8210   34.2400 N   0  0  0  0  0  0  0  0  0  0  0  0
   43.2570   20.7360   33.5290 C   0  0  0  0  0  0  0  0  0  0  0  0
   42.3560   21.4980   34.1970 N   0  0  0  0  0  0  0  0  0  0  0  0
   42.1410   21.3750   35.5040 C   0  0  0  0  0  0  0  0  0  0  0  0
   35.7010   29.0330   32.9730 N   0  0  0  0  0  0  0  0  0  0  0  0
   34.3220   28.7110   32.5570 C   0  0  0  0  0  0  0  0  0  0  0  0
   33.5110   29.6430   33.4850 C   0  0  0  0  0  0  0  0  0  0  0  0
   33.8800   30.9890   33.3840 N   0  0  0  0  0  0  0  0  0  0  0  0
   35.0970   31.3880   32.8380 C   0  0  0  0  0  0  0  0  0  0  0  0
   36.1000   30.3200   32.4730 C   0  0  2  0  0  0  0  0  0  0  0  0
   36.1880   30.1210   30.6550 S   0  0  0  0  0  0  0  0  0  0  0  0
   38.2736   27.6334   36.5933 H   0  0  0  0  0  0  0  0  0  0  0  0
   36.8628   29.4065   35.5476 H   0  0  0  0  0  0  0  0  0  0  0  0
   37.4616   24.4549   36.8365 H   0  0  0  0  0  0  0  0  0  0  0  0
   40.3335   25.6548   33.8938 H   0  0  0  0  0  0  0  0  0  0  0  0
   40.9042   21.8745   38.4681 H   0  0  0  0  0  0  0  0  0  0  0  0
   44.3153   18.9401   36.1147 H   0  0  0  0  0  0  0  0  0  0  0  0
   43.4158   20.8581   32.4474 H   0  0  0  0  0  0  0  0  0  0  0  0
   34.1534   28.9499   31.4966 H   0  0  0  0  0  0  0  0  0  0  0  0
   34.0593   27.6461   32.6407 H   0  0  0  0  0  0  0  0  0  0  0  0
   32.4461   29.5533   33.2244 H   0  0  0  0  0  0  0  0  0  0  0  0
   33.7151   29.3280   34.5190 H   0  0  0  0  0  0  0  0  0  0  0  0
   33.1490   31.4453   32.8198 H   0  0  0  0  0  0  0  0  0  0  0  0
   34.8734   31.9525   31.9208 H   0  0  0  0  0  0  0  0  0  0  0  0
   35.5845   31.9553   33.6446 H   0  0  0  0  0  0  0  0  0  0  0  0
   37.0597   30.6387   32.9060 H   0  0  0  0  0  0  0  0  0  0  0  0
   36.7286   28.8984   30.3551 H   0  0  0  0  0  0  0  0  0  0  0  0
  1  7  1  0
  1  2  2  0
  3  2  1  0
  4  3  2  0
  5  4  1  0
  5  1  1  0
  6 11  2  0
  7  6  1  0
  8  9  1  0
  8  7  2  0
  9 10  2  0
 10 12  1  0
 10 11  1  0
 12 13  1  0
 14 13  2  0
 15 14  1  0
 16 15  2  0
 17 16  1  0
 18 19  1  0
 18 17  2  0
 19 20  2  0
 20 15  1  0
 20 12  1  0
 21  4  1  0
 22 21  1  0
 22 23  1  0
 24 23  1  0
 25 24  1  0
 26 25  1  0
 26 21  1  0
 27 26  1  0
  2 28  1  0
  3 29  1  0
  6 30  1  0
  8 31  1  0
 13 32  1  0
 16 33  1  0
 18 34  1  0
 22 35  1  0
 22 36  1  0
 23 37  1  0
 23 38  1  0
 24 39  1  0
 25 40  1  0
 25 41  1  0
 26 42  1  1
 27 43  1  0
M  ISO  8  28  14  29  14  30  14  31  14  32  14  33  14  34  14  35  13
M  ISO  8  36  13  37  13  38  13  39   5  40  13  41  13  42  13  43  11
M  END
>  <minimizedAffinity>  (1) 
-5.22453165

>  <minimizedRMSD>  (1) 
2.64576554

$$$$
