
     RDKit          3D

 44 47  0  0  1  0  0  0  0  0999 V2000
   36.0670   26.0640   31.6680 C   0  0  0  0  0  0  0  0  0  0  0  0
   35.1430   25.2960   30.9720 C   0  0  0  0  0  0  0  0  0  0  0  0
   35.2370   23.9420   31.0490 C   0  0  0  0  0  0  0  0  0  0  0  0
   36.2790   23.4110   31.8380 C   0  0  0  0  0  0  0  0  0  0  0  0
   37.1440   24.9190   32.4850 S   0  0  0  0  0  0  0  0  0  0  0  0
   36.5750   22.0530   32.0650 N   0  0  0  0  0  0  0  0  0  0  0  0
   36.9280   21.4640   33.3740 C   0  0  0  0  0  0  0  0  0  0  0  0
   35.6210   20.7180   33.7240 C   0  0  0  0  0  0  0  0  0  0  0  0
   35.2300   19.7990   32.7390 N   0  0  0  0  0  0  0  0  0  0  0  0
   35.7180   19.8620   31.4260 C   0  0  0  0  0  0  0  0  0  0  0  0
   36.5750   21.0400   31.0470 C   0  0  2  0  0  0  0  0  0  0  0  0
   38.3190   20.5210   30.8720 S   0  0  0  0  0  0  0  0  0  0  0  0
   35.9340   28.2680   32.8620 C   0  0  0  0  0  0  0  0  0  0  0  0
   36.1320   27.5080   31.7070 C   0  0  0  0  0  0  0  0  0  0  0  0
   36.4000   28.1400   30.5410 C   0  0  0  0  0  0  0  0  0  0  0  0
   36.4600   29.5050   30.5600 N   0  0  0  0  0  0  0  0  0  0  0  0
   36.2680   30.2210   31.6760 C   0  0  0  0  0  0  0  0  0  0  0  0
   35.9990   29.5850   32.8440 N   0  0  0  0  0  0  0  0  0  0  0  0
   36.3450   31.6410   31.6240 N   0  0  0  0  0  0  0  0  0  0  0  0
   37.1810   32.3780   30.6960 C   0  0  0  0  0  0  0  0  0  0  0  0
   37.5810   33.5790   31.5220 C   0  0  0  0  0  0  0  0  0  0  0  0
   36.7810   33.5400   32.8010 C   0  0  0  0  0  0  0  0  0  0  0  0
   35.6360   32.5990   32.4500 C   0  0  0  0  0  0  0  0  0  0  0  0
   34.3533   25.7721   30.3723 H   0  0  0  0  0  0  0  0  0  0  0  0
   34.5299   23.2876   30.5181 H   0  0  0  0  0  0  0  0  0  0  0  0
   37.7782   20.7712   33.2891 H   0  0  0  0  0  0  0  0  0  0  0  0
   37.2480   22.1968   34.1294 H   0  0  0  0  0  0  0  0  0  0  0  0
   35.7702   20.1755   34.6692 H   0  0  0  0  0  0  0  0  0  0  0  0
   34.8243   21.4724   33.8027 H   0  0  0  0  0  0  0  0  0  0  0  0
   35.4853   18.8675   33.0967 H   0  0  0  0  0  0  0  0  0  0  0  0
   36.3154   18.9543   31.2550 H   0  0  0  0  0  0  0  0  0  0  0  0
   34.8176   19.9651   30.8026 H   0  0  0  0  0  0  0  0  0  0  0  0
   36.1573   21.4321   30.1080 H   0  0  0  0  0  0  0  0  0  0  0  0
   38.8732   20.3561   32.1140 H   0  0  0  0  0  0  0  0  0  0  0  0
   35.7184   27.7549   33.8108 H   0  0  0  0  0  0  0  0  0  0  0  0
   36.5637   27.5753   29.6113 H   0  0  0  0  0  0  0  0  0  0  0  0
   36.6166   32.6782   29.8009 H   0  0  0  0  0  0  0  0  0  0  0  0
   38.0338   31.7998   30.3108 H   0  0  0  0  0  0  0  0  0  0  0  0
   38.6561   33.5358   31.7506 H   0  0  0  0  0  0  0  0  0  0  0  0
   37.3832   34.5102   30.9708 H   0  0  0  0  0  0  0  0  0  0  0  0
   37.3812   33.1419   33.6325 H   0  0  0  0  0  0  0  0  0  0  0  0
   36.4441   34.5321   33.1360 H   0  0  0  0  0  0  0  0  0  0  0  0
   34.8417   33.1133   31.8891 H   0  0  0  0  0  0  0  0  0  0  0  0
   35.1086   32.1671   33.3134 H   0  0  0  0  0  0  0  0  0  0  0  0
  1 14  1  0
  1  5  1  0
  2  3  1  0
  2  1  2  0
  3  4  2  0
  4  6  1  0
  4  5  1  0
  6  7  1  0
  7  8  1  0
  9  8  1  0
 10  9  1  0
 11 10  1  0
 11  6  1  0
 12 11  1  0
 14 13  2  0
 15 16  2  0
 15 14  1  0
 16 17  1  0
 17 18  2  0
 18 13  1  0
 19 17  1  0
 19 23  1  0
 20 21  1  0
 20 19  1  0
 21 22  1  0
 23 22  1  0
  2 24  1  0
  3 25  1  0
  7 26  1  0
  7 27  1  0
  8 28  1  0
  8 29  1  0
  9 30  1  0
 10 31  1  0
 10 32  1  0
 11 33  1  6
 12 34  1  0
 13 35  1  0
 15 36  1  0
 20 37  1  0
 20 38  1  0
 21 39  1  0
 21 40  1  0
 22 41  1  0
 22 42  1  0
 23 43  1  0
 23 44  1  0
M  ISO  8  24  14  25  14  26  13  27  13  28  13  29  13  30   5  31  13
M  ISO  8  32  13  33  13  34  11  35  14  36  14  37  13  38  13  39  13
M  ISO  5  40  13  41  13  42  13  43  13  44  13
M  END
>  <minimizedAffinity>  (1) 
-5.33945274

>  <minimizedRMSD>  (1) 
9.56246567

$$$$
