
     RDKit          3D

 39 42  0  0  1  0  0  0  0  0999 V2000
   39.0450   26.3670   33.3390 C   0  0  0  0  0  0  0  0  0  0  0  0
   39.0880   26.8430   34.6420 C   0  0  0  0  0  0  0  0  0  0  0  0
   38.9420   25.9640   35.6620 C   0  0  0  0  0  0  0  0  0  0  0  0
   38.7540   24.6070   35.3220 C   0  0  0  0  0  0  0  0  0  0  0  0
   38.7910   24.6190   33.4650 S   0  0  0  0  0  0  0  0  0  0  0  0
   38.5760   23.5110   36.1910 N   0  0  0  0  0  0  0  0  0  0  0  0
   39.5360   22.4000   36.3460 C   0  0  0  0  0  0  0  0  0  0  0  0
   40.1530   22.7300   37.7180 C   0  0  0  0  0  0  0  0  0  0  0  0
   39.2110   22.8720   38.7440 N   0  0  0  0  0  0  0  0  0  0  0  0
   37.8530   23.0870   38.4770 C   0  0  0  0  0  0  0  0  0  0  0  0
   37.4360   23.3220   37.0470 C   0  0  2  0  0  0  0  0  0  0  0  0
   36.5780   21.8460   36.3740 S   0  0  0  0  0  0  0  0  0  0  0  0
   38.1070   27.7970   31.4990 C   0  0  0  0  0  0  0  0  0  0  0  0
   39.1810   27.1430   32.1270 C   0  0  0  0  0  0  0  0  0  0  0  0
   40.4190   27.2260   31.5890 C   0  0  0  0  0  0  0  0  0  0  0  0
   40.5590   27.9540   30.4430 N   0  0  0  0  0  0  0  0  0  0  0  0
   39.5320   28.5750   29.8490 C   0  0  0  0  0  0  0  0  0  0  0  0
   38.2910   28.4920   30.3910 N   0  0  0  0  0  0  0  0  0  0  0  0
   39.7870   29.3430   28.6060 C   0  0  0  0  0  0  0  0  0  0  0  0
   39.5940   28.6350   27.2980 C   0  0  0  0  0  0  0  0  0  0  0  0
   38.6060   29.6430   27.7620 C   0  0  0  0  0  0  0  0  0  0  0  0
   39.2379   27.9141   34.8425 H   0  0  0  0  0  0  0  0  0  0  0  0
   38.9688   26.2937   36.7111 H   0  0  0  0  0  0  0  0  0  0  0  0
   39.0266   21.4251   36.3567 H   0  0  0  0  0  0  0  0  0  0  0  0
   40.2679   22.3173   35.5290 H   0  0  0  0  0  0  0  0  0  0  0  0
   40.8434   21.9185   37.9915 H   0  0  0  0  0  0  0  0  0  0  0  0
   40.6614   23.7000   37.6146 H   0  0  0  0  0  0  0  0  0  0  0  0
   39.2621   22.0093   39.3044 H   0  0  0  0  0  0  0  0  0  0  0  0
   37.3063   22.2021   38.8349 H   0  0  0  0  0  0  0  0  0  0  0  0
   37.6217   24.0336   38.9872 H   0  0  0  0  0  0  0  0  0  0  0  0
   36.7898   24.2120   37.0617 H   0  0  0  0  0  0  0  0  0  0  0  0
   36.1264   21.0692   37.4082 H   0  0  0  0  0  0  0  0  0  0  0  0
   37.0999   27.7291   31.9361 H   0  0  0  0  0  0  0  0  0  0  0  0
   41.2799   26.7261   32.0569 H   0  0  0  0  0  0  0  0  0  0  0  0
   40.6030   29.9285   29.0547 H   0  0  0  0  0  0  0  0  0  0  0  0
   39.3273   27.5679   27.2828 H   0  0  0  0  0  0  0  0  0  0  0  0
   40.1983   28.4950   26.3896 H   0  0  0  0  0  0  0  0  0  0  0  0
   38.5310   30.6133   27.2493 H   0  0  0  0  0  0  0  0  0  0  0  0
   37.5182   29.6420   27.9251 H   0  0  0  0  0  0  0  0  0  0  0  0
  1  5  1  0
  1  2  2  0
  2  3  1  0
  4  3  2  0
  4  6  1  0
  5  4  1  0
  6  7  1  0
  6 11  1  0
  7  8  1  0
  8  9  1  0
 10  9  1  0
 11 10  1  0
 12 11  1  0
 13 14  2  0
 14  1  1  0
 15 14  1  0
 16 15  2  0
 17 18  2  0
 17 16  1  0
 18 13  1  0
 19 17  1  0
 20 21  1  0
 20 19  1  0
 21 19  1  0
  2 22  1  0
  3 23  1  0
  7 24  1  0
  7 25  1  0
  8 26  1  0
  8 27  1  0
  9 28  1  0
 10 29  1  0
 10 30  1  0
 11 31  1  1
 12 32  1  0
 13 33  1  0
 15 34  1  0
 19 35  1  0
 20 36  1  0
 20 37  1  0
 21 38  1  0
 21 39  1  0
M  ISO  8  22  14  23  14  24  13  25  13  26  13  27  13  28   5  29  13
M  ISO  8  30  13  31  13  32  11  33  14  34  14  35  13  36  13  37  13
M  ISO  2  38  13  39  13
M  END
>  <minimizedAffinity>  (1) 
-4.7059741

>  <minimizedRMSD>  (1) 
8.25772476

$$$$
