
     RDKit          3D

 38 41  0  0  1  0  0  0  0  0999 V2000
   36.8700   26.4810   32.9970 C   0  0  0  0  0  0  0  0  0  0  0  0
   37.1260   26.8890   34.2990 C   0  0  0  0  0  0  0  0  0  0  0  0
   36.6880   28.1140   34.6870 C   0  0  0  0  0  0  0  0  0  0  0  0
   35.9990   28.8920   33.7310 C   0  0  0  0  0  0  0  0  0  0  0  0
   35.9860   27.8080   32.2210 S   0  0  0  0  0  0  0  0  0  0  0  0
   35.4560   30.1830   33.8940 N   0  0  0  0  0  0  0  0  0  0  0  0
   34.6450   30.6110   35.0490 C   0  0  0  0  0  0  0  0  0  0  0  0
   35.6590   31.4980   35.8050 C   0  0  0  0  0  0  0  0  0  0  0  0
   36.1910   32.5280   35.0180 N   0  0  0  0  0  0  0  0  0  0  0  0
   36.1430   32.5050   33.6310 C   0  0  0  0  0  0  0  0  0  0  0  0
   35.6210   31.2580   32.9550 C   0  0  2  0  0  0  0  0  0  0  0  0
   33.9500   31.5570   32.2720 S   0  0  0  0  0  0  0  0  0  0  0  0
   37.6570   24.0960   33.1340 C   0  0  0  0  0  0  0  0  0  0  0  0
   37.2550   25.2200   32.4000 C   0  0  0  0  0  0  0  0  0  0  0  0
   37.2200   25.1470   31.0480 C   0  0  0  0  0  0  0  0  0  0  0  0
   37.5780   23.9770   30.4610 N   0  0  0  0  0  0  0  0  0  0  0  0
   37.9640   22.9020   31.1810 C   0  0  0  0  0  0  0  0  0  0  0  0
   38.0010   22.9720   32.5440 N   0  0  0  0  0  0  0  0  0  0  0  0
   38.2950   21.7870   30.3550 N   0  0  0  0  0  0  0  0  0  0  0  0
   39.2530   21.8510   29.4000 C   0  0  0  0  0  0  0  0  0  0  0  0
   39.3470   20.6660   28.7850 N   0  0  0  0  0  0  0  0  0  0  0  0
   38.4390   19.8480   29.3560 C   0  0  0  0  0  0  0  0  0  0  0  0
   37.8000   20.5570   30.3200 N   0  0  0  0  0  0  0  0  0  0  0  0
   37.6697   26.2366   34.9982 H   0  0  0  0  0  0  0  0  0  0  0  0
   36.8631   28.4863   35.7072 H   0  0  0  0  0  0  0  0  0  0  0  0
   33.7621   31.1857   34.7325 H   0  0  0  0  0  0  0  0  0  0  0  0
   34.2312   29.7843   35.6451 H   0  0  0  0  0  0  0  0  0  0  0  0
   35.1515   31.9474   36.6713 H   0  0  0  0  0  0  0  0  0  0  0  0
   36.4970   30.8514   36.1042 H   0  0  0  0  0  0  0  0  0  0  0  0
   35.7057   33.3893   35.3072 H   0  0  0  0  0  0  0  0  0  0  0  0
   35.5025   33.3408   33.3129 H   0  0  0  0  0  0  0  0  0  0  0  0
   37.1968   32.5624   33.3208 H   0  0  0  0  0  0  0  0  0  0  0  0
   36.3528   31.0004   32.1752 H   0  0  0  0  0  0  0  0  0  0  0  0
   33.0584   31.7165   33.2998 H   0  0  0  0  0  0  0  0  0  0  0  0
   37.6856   24.1553   34.2320 H   0  0  0  0  0  0  0  0  0  0  0  0
   36.9101   26.0117   30.4428 H   0  0  0  0  0  0  0  0  0  0  0  0
   39.8593   22.7385   29.1662 H   0  0  0  0  0  0  0  0  0  0  0  0
   38.2510   18.7977   29.0887 H   0  0  0  0  0  0  0  0  0  0  0  0
  1  2  2  0
  2  3  1  0
  4  6  1  0
  4  3  2  0
  5  1  1  0
  5  4  1  0
  6  7  1  0
  7  8  1  0
  9  8  1  0
 10  9  1  0
 11 10  1  0
 11  6  1  0
 12 11  1  0
 14  1  1  0
 14 13  2  0
 15 14  1  0
 16 15  2  0
 16 17  1  0
 17 18  2  0
 18 13  1  0
 19 17  1  0
 20 19  1  0
 21 22  1  0
 21 20  2  0
 22 23  2  0
 23 19  1  0
  2 24  1  0
  3 25  1  0
  7 26  1  0
  7 27  1  0
  8 28  1  0
  8 29  1  0
  9 30  1  0
 10 31  1  0
 10 32  1  0
 11 33  1  6
 12 34  1  0
 13 35  1  0
 15 36  1  0
 20 37  1  0
 22 38  1  0
M  ISO  8  24  14  25  14  26  13  27  13  28  13  29  13  30   5  31  13
M  ISO  7  32  13  33  13  34  11  35  14  36  14  37  14  38  14
M  END
>  <minimizedAffinity>  (1) 
-4.59754896

>  <minimizedRMSD>  (1) 
6.32079887

$$$$
