
     RDKit          3D

 34 36  0  0  1  0  0  0  0  0999 V2000
   38.6920   24.7480   35.2890 C   0  0  0  0  0  0  0  0  0  0  0  0
   38.3300   26.0170   35.7180 C   0  0  0  0  0  0  0  0  0  0  0  0
   37.6150   26.8070   34.8750 C   0  0  0  0  0  0  0  0  0  0  0  0
   37.2870   26.2720   33.6090 C   0  0  0  0  0  0  0  0  0  0  0  0
   38.0390   24.5770   33.6450 S   0  0  0  0  0  0  0  0  0  0  0  0
   36.5590   26.8990   32.5770 N   0  0  0  0  0  0  0  0  0  0  0  0
   35.6420   28.0370   32.7610 C   0  0  0  0  0  0  0  0  0  0  0  0
   36.4750   29.1890   32.1740 C   0  0  0  0  0  0  0  0  0  0  0  0
   36.8950   28.9610   30.8630 N   0  0  0  0  0  0  0  0  0  0  0  0
   36.9310   27.6850   30.3000 C   0  0  0  0  0  0  0  0  0  0  0  0
   36.6160   26.5060   31.1940 C   0  0  2  0  0  0  0  0  0  0  0  0
   34.9600   25.8360   30.8150 S   0  0  0  0  0  0  0  0  0  0  0  0
   39.1670   23.3940   37.3440 C   0  0  0  0  0  0  0  0  0  0  0  0
   39.4510   23.7710   36.0390 C   0  0  0  0  0  0  0  0  0  0  0  0
   40.5080   23.2060   35.3940 C   0  0  0  0  0  0  0  0  0  0  0  0
   41.2510   22.2860   36.0610 N   0  0  0  0  0  0  0  0  0  0  0  0
   40.9640   21.9290   37.3300 C   0  0  0  0  0  0  0  0  0  0  0  0
   39.9080   22.4950   37.9690 N   0  0  0  0  0  0  0  0  0  0  0  0
   41.7490   20.9660   38.0110 N   0  0  0  0  0  0  0  0  0  0  0  0
   38.6155   26.3753   36.7181 H   0  0  0  0  0  0  0  0  0  0  0  0
   37.3043   27.8213   35.1661 H   0  0  0  0  0  0  0  0  0  0  0  0
   34.7042   27.8932   32.2044 H   0  0  0  0  0  0  0  0  0  0  0  0
   35.3219   28.1955   33.8014 H   0  0  0  0  0  0  0  0  0  0  0  0
   35.8640   30.1035   32.1897 H   0  0  0  0  0  0  0  0  0  0  0  0
   37.3802   29.2811   32.7921 H   0  0  0  0  0  0  0  0  0  0  0  0
   36.2744   29.5218   30.2619 H   0  0  0  0  0  0  0  0  0  0  0  0
   36.2058   27.6716   29.4730 H   0  0  0  0  0  0  0  0  0  0  0  0
   37.9833   27.5400   30.0141 H   0  0  0  0  0  0  0  0  0  0  0  0
   37.4117   25.7670   31.0187 H   0  0  0  0  0  0  0  0  0  0  0  0
   34.2974   25.5679   31.9838 H   0  0  0  0  0  0  0  0  0  0  0  0
   38.3128   23.8498   37.8661 H   0  0  0  0  0  0  0  0  0  0  0  0
   40.7538   23.4874   34.3594 H   0  0  0  0  0  0  0  0  0  0  0  0
   41.5169   20.7042   38.9797 H   0  0  0  0  0  0  0  0  0  0  0  0
   42.5518   20.5278   37.5373 H   0  0  0  0  0  0  0  0  0  0  0  0
  1  2  2  0
  1 14  1  0
  3  2  1  0
  4  5  1  0
  4  3  2  0
  5  1  1  0
  6  7  1  0
  6  4  1  0
  8  7  1  0
  9  8  1  0
 10  9  1  0
 10 11  1  0
 11  6  1  0
 12 11  1  0
 13 18  2  0
 14 13  1  0
 15 14  2  0
 15 16  1  0
 16 17  2  0
 17 18  1  0
 17 19  1  0
  2 20  1  0
  3 21  1  0
  7 22  1  0
  7 23  1  0
  8 24  1  0
  8 25  1  0
  9 26  1  0
 10 27  1  0
 10 28  1  0
 11 29  1  1
 12 30  1  0
 13 31  1  0
 15 32  1  0
 19 33  1  0
 19 34  1  0
M  ISO  8  20  14  21  14  22  13  23  13  24  13  25  13  26   5  27  13
M  ISO  5  28  13  29  13  30  11  31  14  32  14
M  END
>  <minimizedAffinity>  (1) 
-4.73977852

>  <minimizedRMSD>  (1) 
0.315357953

$$$$
