
     RDKit          3D

 39 42  0  0  1  0  0  0  0  0999 V2000
   40.4520   26.0800   34.4210 C   0  0  0  0  0  0  0  0  0  0  0  0
   39.5510   26.8020   35.1970 C   0  0  0  0  0  0  0  0  0  0  0  0
   38.4120   27.2580   34.6090 C   0  0  0  0  0  0  0  0  0  0  0  0
   38.2270   26.9590   33.2430 C   0  0  0  0  0  0  0  0  0  0  0  0
   39.7490   25.9910   32.7990 S   0  0  0  0  0  0  0  0  0  0  0  0
   37.1410   27.3180   32.4180 N   0  0  0  0  0  0  0  0  0  0  0  0
   36.0160   28.1770   32.8380 C   0  0  0  0  0  0  0  0  0  0  0  0
   36.3570   29.4880   32.0940 C   0  0  0  0  0  0  0  0  0  0  0  0
   36.5070   29.3140   30.7100 N   0  0  0  0  0  0  0  0  0  0  0  0
   36.7370   28.0620   30.1330 C   0  0  0  0  0  0  0  0  0  0  0  0
   36.9760   26.8970   31.0520 C   0  0  2  0  0  0  0  0  0  0  0  0
   35.5130   25.7850   31.0770 S   0  0  0  0  0  0  0  0  0  0  0  0
   41.8260   24.3730   35.6480 C   0  0  0  0  0  0  0  0  0  0  0  0
   41.7090   25.5250   34.8770 C   0  0  0  0  0  0  0  0  0  0  0  0
   42.8390   26.2160   34.5120 C   0  0  0  0  0  0  0  0  0  0  0  0
   44.0350   25.7290   34.9340 N   0  0  0  0  0  0  0  0  0  0  0  0
   44.1280   24.6030   35.6870 C   0  0  0  0  0  0  0  0  0  0  0  0
   43.0020   23.9320   36.0380 N   0  0  0  0  0  0  0  0  0  0  0  0
   45.3890   24.0960   36.1270 N   0  0  0  0  0  0  0  0  0  0  0  0
   45.9540   24.7780   37.1530 C   0  0  0  0  0  0  0  0  0  0  0  0
   47.1620   24.1230   37.4200 C   0  0  0  0  0  0  0  0  0  0  0  0
   47.2880   23.0760   36.5560 N   0  0  0  0  0  0  0  0  0  0  0  0
   46.1880   23.0760   35.7680 C   0  0  0  0  0  0  0  0  0  0  0  0
   39.7545   26.9994   36.2599 H   0  0  0  0  0  0  0  0  0  0  0  0
   37.6665   27.8357   35.1752 H   0  0  0  0  0  0  0  0  0  0  0  0
   35.0493   27.7661   32.5113 H   0  0  0  0  0  0  0  0  0  0  0  0
   35.9096   28.2867   33.9273 H   0  0  0  0  0  0  0  0  0  0  0  0
   35.5468   30.2109   32.2699 H   0  0  0  0  0  0  0  0  0  0  0  0
   37.3210   29.8452   32.4854 H   0  0  0  0  0  0  0  0  0  0  0  0
   35.6421   29.6727   30.2808 H   0  0  0  0  0  0  0  0  0  0  0  0
   35.8584   27.8187   29.5174 H   0  0  0  0  0  0  0  0  0  0  0  0
   37.6839   28.1803   29.5859 H   0  0  0  0  0  0  0  0  0  0  0  0
   37.8808   26.3989   30.6736 H   0  0  0  0  0  0  0  0  0  0  0  0
   35.1635   25.5193   32.3747 H   0  0  0  0  0  0  0  0  0  0  0  0
   40.9191   23.8213   35.9365 H   0  0  0  0  0  0  0  0  0  0  0  0
   42.7777   27.1288   33.9013 H   0  0  0  0  0  0  0  0  0  0  0  0
   45.5483   25.6612   37.6680 H   0  0  0  0  0  0  0  0  0  0  0  0
   47.8878   24.4057   38.1967 H   0  0  0  0  0  0  0  0  0  0  0  0
   45.9806   22.3564   34.9623 H   0  0  0  0  0  0  0  0  0  0  0  0
  1 14  1  0
  1  2  2  0
  3  2  1  0
  4  3  2  0
  5  4  1  0
  5  1  1  0
  6  7  1  0
  6  4  1  0
  8  7  1  0
  9  8  1  0
 10  9  1  0
 10 11  1  0
 11 12  1  0
 11  6  1  0
 13 18  2  0
 14 13  1  0
 15 14  2  0
 15 16  1  0
 16 17  2  0
 17 18  1  0
 17 19  1  0
 19 20  1  0
 20 21  2  0
 22 21  1  0
 23 19  1  0
 23 22  2  0
  2 24  1  0
  3 25  1  0
  7 26  1  0
  7 27  1  0
  8 28  1  0
  8 29  1  0
  9 30  1  0
 10 31  1  0
 10 32  1  0
 11 33  1  6
 12 34  1  0
 13 35  1  0
 15 36  1  0
 20 37  1  0
 21 38  1  0
 23 39  1  0
M  ISO  8  24  14  25  14  26  13  27  13  28  13  29  13  30   5  31  13
M  ISO  8  32  13  33  13  34  11  35  14  36  14  37  14  38  14  39  14
M  END
>  <minimizedAffinity>  (1) 
-4.71585417

>  <minimizedRMSD>  (1) 
3.38879848

$$$$
