
     RDKit          3D

 37 40  0  0  1  0  0  0  0  0999 V2000
   37.2010   25.4470   31.8430 C   0  0  0  0  0  0  0  0  0  0  0  0
   38.0660   25.4150   30.7530 C   0  0  0  0  0  0  0  0  0  0  0  0
   38.4580   24.2050   30.2740 C   0  0  0  0  0  0  0  0  0  0  0  0
   37.9540   23.0590   30.9250 C   0  0  0  0  0  0  0  0  0  0  0  0
   36.8800   23.7590   32.2700 S   0  0  0  0  0  0  0  0  0  0  0  0
   38.2130   21.7080   30.6170 N   0  0  0  0  0  0  0  0  0  0  0  0
   39.0280   21.2480   29.4740 C   0  0  0  0  0  0  0  0  0  0  0  0
   40.3150   20.7990   30.2000 C   0  0  0  0  0  0  0  0  0  0  0  0
   40.0830   19.8420   31.1830 N   0  0  0  0  0  0  0  0  0  0  0  0
   38.8290   19.6560   31.7730 C   0  0  0  0  0  0  0  0  0  0  0  0
   37.7200   20.5890   31.3720 C   0  0  2  0  0  0  0  0  0  0  0  0
   36.5360   19.7470   30.2460 S   0  0  0  0  0  0  0  0  0  0  0  0
   35.8380   27.5500   31.8800 C   0  0  0  0  0  0  0  0  0  0  0  0
   36.6820   26.6330   32.4870 C   0  0  0  0  0  0  0  0  0  0  0  0
   37.0730   26.8420   33.7760 C   0  0  0  0  0  0  0  0  0  0  0  0
   36.6140   27.9520   34.4130 N   0  0  0  0  0  0  0  0  0  0  0  0
   35.7870   28.8370   33.7990 C   0  0  0  0  0  0  0  0  0  0  0  0
   35.3970   28.6200   32.5000 N   0  0  0  0  0  0  0  0  0  0  0  0
   35.3640   29.9890   34.5890 C   0  0  0  0  0  0  0  0  0  0  0  0
   34.2280   30.6990   34.6700 N   0  0  0  0  0  0  0  0  0  0  0  0
   34.3980   31.6530   35.5650 O   0  0  0  0  0  0  0  0  0  0  0  0
   35.6140   31.5880   36.0730 C   0  0  0  0  0  0  0  0  0  0  0  0
   36.2320   30.5380   35.4590 N   0  0  0  0  0  0  0  0  0  0  0  0
   38.4238   26.3467   30.2904 H   0  0  0  0  0  0  0  0  0  0  0  0
   39.1397   24.1225   29.4147 H   0  0  0  0  0  0  0  0  0  0  0  0
   39.2272   22.0643   28.7641 H   0  0  0  0  0  0  0  0  0  0  0  0
   38.5541   20.4670   28.8612 H   0  0  0  0  0  0  0  0  0  0  0  0
   41.0067   20.3762   29.4565 H   0  0  0  0  0  0  0  0  0  0  0  0
   40.7359   21.6848   30.6982 H   0  0  0  0  0  0  0  0  0  0  0  0
   40.3393   18.9360   30.7655 H   0  0  0  0  0  0  0  0  0  0  0  0
   38.5013   18.6340   31.5318 H   0  0  0  0  0  0  0  0  0  0  0  0
   38.9921   19.8625   32.8411 H   0  0  0  0  0  0  0  0  0  0  0  0
   37.2491   20.9125   32.3120 H   0  0  0  0  0  0  0  0  0  0  0  0
   35.5970   19.0793   30.9872 H   0  0  0  0  0  0  0  0  0  0  0  0
   35.5260   27.3746   30.8398 H   0  0  0  0  0  0  0  0  0  0  0  0
   37.7410   26.1326   34.2864 H   0  0  0  0  0  0  0  0  0  0  0  0
   36.0442   32.2493   36.8396 H   0  0  0  0  0  0  0  0  0  0  0  0
  1  5  1  0
  1 14  1  0
  2  1  2  0
  3  2  1  0
  3  4  2  0
  4  5  1  0
  6  4  1  0
  6 11  1  0
  7  8  1  0
  7  6  1  0
  8  9  1  0
  9 10  1  0
 11 10  1  0
 12 11  1  0
 13 14  2  0
 13 18  1  0
 14 15  1  0
 15 16  2  0
 17 16  1  0
 17 19  1  0
 18 17  2  0
 19 20  2  0
 19 23  1  0
 20 21  1  0
 21 22  1  0
 23 22  2  0
  2 24  1  0
  3 25  1  0
  7 26  1  0
  7 27  1  0
  8 28  1  0
  8 29  1  0
  9 30  1  0
 10 31  1  0
 10 32  1  0
 11 33  1  1
 12 34  1  0
 13 35  1  0
 15 36  1  0
 22 37  1  0
M  ISO  8  24  14  25  14  26  13  27  13  28  13  29  13  30   5  31  13
M  ISO  6  32  13  33  13  34  11  35  14  36  14  37  14
M  END
>  <minimizedAffinity>  (1) 
-4.35963726

>  <minimizedRMSD>  (1) 
8.68552208

$$$$
