
     RDKit          3D

 42 43  0  0  1  0  0  0  0  0999 V2000
   38.0720   26.2470   35.3870 C   0  0  0  0  0  0  0  0  0  0  0  0
   36.7030   25.5430   32.0140 C   0  0  0  0  0  0  0  0  0  0  0  0
   37.3500   25.4460   33.2440 C   0  0  0  0  0  0  0  0  0  0  0  0
   37.3910   26.4850   34.1020 C   0  0  0  0  0  0  0  0  0  0  0  0
   36.7700   27.6460   33.7150 N   0  0  0  0  0  0  0  0  0  0  0  0
   36.1480   27.7470   32.5360 C   0  0  0  0  0  0  0  0  0  0  0  0
   36.1070   26.7380   31.7040 N   0  0  0  0  0  0  0  0  0  0  0  0
   35.5210   29.0460   32.1630 C   0  0  2  0  0  0  0  0  0  0  0  0
   36.2560   29.6270   30.9200 C   0  0  0  0  0  0  0  0  0  0  0  0
   35.6160   30.0750   33.2220 C   0  0  0  0  0  0  0  0  0  0  0  0
   34.9420   31.3000   32.9250 N   0  0  0  0  0  0  0  0  0  0  0  0
   37.9530   24.8310   35.7660 C   0  0  0  0  0  0  0  0  0  0  0  0
   39.1750   24.3140   36.3370 N   0  0  0  0  0  0  0  0  0  0  0  0
   39.9310   23.5710   35.3000 C   0  0  0  0  0  0  0  0  0  0  0  0
   40.9470   22.8250   36.1140 C   0  0  0  0  0  0  0  0  0  0  0  0
   40.3510   22.7090   37.5040 C   0  0  0  0  0  0  0  0  0  0  0  0
   38.9410   23.2450   37.2480 C   0  0  1  0  0  0  0  0  0  0  0  0
   38.4000   23.6870   38.5690 C   0  0  0  0  0  0  0  0  0  0  0  0
   39.3040   23.7120   39.5880 F   0  0  0  0  0  0  0  0  0  0  0  0
   37.2820   22.9440   38.8570 F   0  0  0  0  0  0  0  0  0  0  0  0
   37.9730   25.0270   38.4470 F   0  0  0  0  0  0  0  0  0  0  0  0
   37.6099   26.8722   36.1652 H   0  0  0  0  0  0  0  0  0  0  0  0
   39.1365   26.5045   35.2840 H   0  0  0  0  0  0  0  0  0  0  0  0
   36.6715   24.6923   31.3174 H   0  0  0  0  0  0  0  0  0  0  0  0
   37.8384   24.5002   33.5213 H   0  0  0  0  0  0  0  0  0  0  0  0
   34.4590   28.8277   31.9772 H   0  0  0  0  0  0  0  0  0  0  0  0
   37.0788   30.2774   31.2514 H   0  0  0  0  0  0  0  0  0  0  0  0
   36.6613   28.8025   30.3151 H   0  0  0  0  0  0  0  0  0  0  0  0
   35.5473   30.2117   30.3151 H   0  0  0  0  0  0  0  0  0  0  0  0
   35.1822   29.6597   34.1436 H   0  0  0  0  0  0  0  0  0  0  0  0
   36.6832   30.3228   33.3203 H   0  0  0  0  0  0  0  0  0  0  0  0
   34.6828   31.7710   33.8036 H   0  0  0  0  0  0  0  0  0  0  0  0
   35.5656   31.9113   32.3787 H   0  0  0  0  0  0  0  0  0  0  0  0
   37.1455   24.7291   36.5059 H   0  0  0  0  0  0  0  0  0  0  0  0
   37.7361   24.2547   34.8545 H   0  0  0  0  0  0  0  0  0  0  0  0
   40.4159   24.2589   34.5917 H   0  0  0  0  0  0  0  0  0  0  0  0
   39.2998   22.9179   34.6794 H   0  0  0  0  0  0  0  0  0  0  0  0
   41.1229   21.8266   35.6871 H   0  0  0  0  0  0  0  0  0  0  0  0
   41.9168   23.3439   36.1291 H   0  0  0  0  0  0  0  0  0  0  0  0
   40.3319   21.6657   37.8520 H   0  0  0  0  0  0  0  0  0  0  0  0
   40.9088   23.2420   38.2880 H   0  0  0  0  0  0  0  0  0  0  0  0
   38.2074   22.5394   36.8309 H   0  0  0  0  0  0  0  0  0  0  0  0
  1 12  1  0
  2  3  2  0
  3  4  1  0
  4  1  1  0
  5  4  2  0
  6  5  1  0
  7  2  1  0
  7  6  2  0
  8  6  1  0
  8 10  1  0
  9  8  1  0
 11 10  1  0
 12 13  1  0
 13 17  1  0
 14 15  1  0
 14 13  1  0
 15 16  1  0
 17 16  1  0
 17 18  1  0
 18 20  1  0
 18 19  1  0
 21 18  1  0
  1 22  1  0
  1 23  1  0
  2 24  1  0
  3 25  1  0
  8 26  1  6
  9 27  1  0
  9 28  1  0
  9 29  1  0
 10 30  1  0
 10 31  1  0
 11 32  1  0
 11 33  1  0
 12 34  1  0
 12 35  1  0
 14 36  1  0
 14 37  1  0
 15 38  1  0
 15 39  1  0
 16 40  1  0
 16 41  1  0
 17 42  1  6
M  ISO  8  22   8  23   8  24  14  25  14  26   8  27   8  28   8  29   8
M  ISO  8  30   8  31   8  32   5  33   5  34   8  35   8  36  13  37  13
M  ISO  5  38  13  39  13  40  13  41  13  42  13
M  END
>  <minimizedAffinity>  (1) 
-5.10381222

>  <minimizedRMSD>  (1) 
0.0647734702

$$$$
