
     RDKit          3D

 39 42  0  0  1  0  0  0  0  0999 V2000
   40.5480   26.2720   34.3520 C   0  0  0  0  0  0  0  0  0  0  0  0
   39.5760   26.8220   35.1750 C   0  0  0  0  0  0  0  0  0  0  0  0
   38.4060   27.2190   34.6150 C   0  0  0  0  0  0  0  0  0  0  0  0
   38.2590   27.0430   33.2220 C   0  0  0  0  0  0  0  0  0  0  0  0
   39.8730   26.2750   32.7130 S   0  0  0  0  0  0  0  0  0  0  0  0
   37.1460   27.3770   32.4260 N   0  0  0  0  0  0  0  0  0  0  0  0
   36.0130   28.2170   32.8510 C   0  0  0  0  0  0  0  0  0  0  0  0
   36.3170   29.5310   32.0970 C   0  0  0  0  0  0  0  0  0  0  0  0
   36.4510   29.3570   30.7080 N   0  0  0  0  0  0  0  0  0  0  0  0
   36.6850   28.1040   30.1440 C   0  0  0  0  0  0  0  0  0  0  0  0
   36.9620   26.9410   31.0690 C   0  0  2  0  0  0  0  0  0  0  0  0
   35.5310   25.8150   31.1010 S   0  0  0  0  0  0  0  0  0  0  0  0
   43.0560   26.4370   34.4250 C   0  0  0  0  0  0  0  0  0  0  0  0
   41.8530   25.7950   34.7550 C   0  0  0  0  0  0  0  0  0  0  0  0
   41.8960   24.6570   35.4880 C   0  0  0  0  0  0  0  0  0  0  0  0
   43.1080   24.1860   35.8740 N   0  0  0  0  0  0  0  0  0  0  0  0
   44.2630   24.8190   35.5470 C   0  0  0  0  0  0  0  0  0  0  0  0
   44.2210   25.9640   34.8100 N   0  0  0  0  0  0  0  0  0  0  0  0
   45.4660   24.1640   36.0510 C   0  0  0  0  0  0  0  0  0  0  0  0
   46.0470   22.9340   35.7870 C   0  0  0  0  0  0  0  0  0  0  0  0
   47.1670   22.9380   36.5970 C   0  0  0  0  0  0  0  0  0  0  0  0
   47.2380   24.1280   37.3060 C   0  0  0  0  0  0  0  0  0  0  0  0
   46.1790   24.8390   36.9370 O   0  0  0  0  0  0  0  0  0  0  0  0
   39.7498   26.9335   36.2554 H   0  0  0  0  0  0  0  0  0  0  0  0
   37.6028   27.6610   35.2228 H   0  0  0  0  0  0  0  0  0  0  0  0
   35.0509   27.7854   32.5377 H   0  0  0  0  0  0  0  0  0  0  0  0
   35.9193   28.3323   33.9409 H   0  0  0  0  0  0  0  0  0  0  0  0
   35.4952   30.2382   32.2826 H   0  0  0  0  0  0  0  0  0  0  0  0
   37.2801   29.9069   32.4727 H   0  0  0  0  0  0  0  0  0  0  0  0
   35.5776   29.7050   30.2873 H   0  0  0  0  0  0  0  0  0  0  0  0
   35.7964   27.8432   29.5504 H   0  0  0  0  0  0  0  0  0  0  0  0
   37.6212   28.2310   29.5806 H   0  0  0  0  0  0  0  0  0  0  0  0
   37.8708   26.4499   30.6909 H   0  0  0  0  0  0  0  0  0  0  0  0
   35.1900   25.5467   32.4005 H   0  0  0  0  0  0  0  0  0  0  0  0
   43.0238   27.3606   33.8284 H   0  0  0  0  0  0  0  0  0  0  0  0
   40.9716   24.1282   35.7633 H   0  0  0  0  0  0  0  0  0  0  0  0
   45.7014   22.1469   35.1007 H   0  0  0  0  0  0  0  0  0  0  0  0
   47.8957   22.1172   36.6689 H   0  0  0  0  0  0  0  0  0  0  0  0
   48.0141   24.4229   38.0276 H   0  0  0  0  0  0  0  0  0  0  0  0
  1 14  1  0
  1  2  2  0
  3  2  1  0
  4  3  2  0
  5  4  1  0
  5  1  1  0
  6  7  1  0
  6  4  1  0
  8  7  1  0
  9  8  1  0
 10  9  1  0
 10 11  1  0
 11 12  1  0
 11  6  1  0
 13 14  2  0
 13 18  1  0
 14 15  1  0
 15 16  2  0
 17 16  1  0
 17 19  1  0
 18 17  2  0
 19 23  1  0
 20 19  2  0
 20 21  1  0
 21 22  2  0
 23 22  1  0
  2 24  1  0
  3 25  1  0
  7 26  1  0
  7 27  1  0
  8 28  1  0
  8 29  1  0
  9 30  1  0
 10 31  1  0
 10 32  1  0
 11 33  1  6
 12 34  1  0
 13 35  1  0
 15 36  1  0
 20 37  1  0
 21 38  1  0
 22 39  1  0
M  ISO  8  24  14  25  14  26  13  27  13  28  13  29  13  30   5  31  13
M  ISO  8  32  13  33  13  34  11  35  14  36  14  37  14  38  14  39  14
M  END
>  <minimizedAffinity>  (1) 
-4.56620979

>  <minimizedRMSD>  (1) 
3.50779557

$$$$
