
     RDKit          3D

 48 51  0  0  1  0  0  0  0  0999 V2000
   37.2830   25.1980   31.8930 C   0  0  0  0  0  0  0  0  0  0  0  0
   37.9830   25.1550   30.6960 C   0  0  0  0  0  0  0  0  0  0  0  0
   38.3200   23.9410   30.1870 C   0  0  0  0  0  0  0  0  0  0  0  0
   37.9300   22.8010   30.9190 C   0  0  0  0  0  0  0  0  0  0  0  0
   37.0470   23.5130   32.3910 S   0  0  0  0  0  0  0  0  0  0  0  0
   38.1630   21.4490   30.6000 N   0  0  0  0  0  0  0  0  0  0  0  0
   38.9720   20.9770   29.4580 C   0  0  0  0  0  0  0  0  0  0  0  0
   40.2510   20.5010   30.1810 C   0  0  0  0  0  0  0  0  0  0  0  0
   39.9960   19.5470   31.1850 N   0  0  0  0  0  0  0  0  0  0  0  0
   38.7360   19.3730   31.7350 C   0  0  0  0  0  0  0  0  0  0  0  0
   37.6430   20.3360   31.3450 C   0  0  2  0  0  0  0  0  0  0  0  0
   36.4510   19.5160   30.2230 S   0  0  0  0  0  0  0  0  0  0  0  0
   37.1540   26.6680   33.9240 C   0  0  0  0  0  0  0  0  0  0  0  0
   36.8380   26.3830   32.5930 C   0  0  0  0  0  0  0  0  0  0  0  0
   36.0680   27.2520   31.8960 C   0  0  0  0  0  0  0  0  0  0  0  0
   35.6330   28.3750   32.5330 N   0  0  0  0  0  0  0  0  0  0  0  0
   35.9450   28.6370   33.8220 C   0  0  0  0  0  0  0  0  0  0  0  0
   36.7260   27.7560   34.5250 N   0  0  0  0  0  0  0  0  0  0  0  0
   35.4270   29.8840   34.4370 C   0  0  0  0  0  0  0  0  0  0  0  0
   35.6460   31.0040   33.4410 C   0  0  0  0  0  0  0  0  0  0  0  0
   34.9800   32.2930   33.8670 C   0  0  0  0  0  0  0  0  0  0  0  0
   33.6410   32.0690   34.5190 C   0  0  0  0  0  0  0  0  0  0  0  0
   33.1430   30.7180   34.0440 C   0  0  0  0  0  0  0  0  0  0  0  0
   33.9570   29.6790   34.7540 C   0  0  0  0  0  0  0  0  0  0  0  0
   38.2587   26.0817   30.1714 H   0  0  0  0  0  0  0  0  0  0  0  0
   38.8750   23.8513   29.2415 H   0  0  0  0  0  0  0  0  0  0  0  0
   39.1870   21.7917   28.7509 H   0  0  0  0  0  0  0  0  0  0  0  0
   38.4840   20.2057   28.8441 H   0  0  0  0  0  0  0  0  0  0  0  0
   40.9276   20.0544   29.4376 H   0  0  0  0  0  0  0  0  0  0  0  0
   40.6976   21.3796   30.6695 H   0  0  0  0  0  0  0  0  0  0  0  0
   40.2657   18.6348   30.7899 H   0  0  0  0  0  0  0  0  0  0  0  0
   38.3959   18.3649   31.4557 H   0  0  0  0  0  0  0  0  0  0  0  0
   38.8835   19.5531   32.8101 H   0  0  0  0  0  0  0  0  0  0  0  0
   37.1750   20.6709   32.2825 H   0  0  0  0  0  0  0  0  0  0  0  0
   35.5016   18.8629   30.9638 H   0  0  0  0  0  0  0  0  0  0  0  0
   37.7804   25.9599   34.4864 H   0  0  0  0  0  0  0  0  0  0  0  0
   35.8017   27.0570   30.8467 H   0  0  0  0  0  0  0  0  0  0  0  0
   35.9426   30.1404   35.3742 H   0  0  0  0  0  0  0  0  0  0  0  0
   35.2330   30.6977   32.4686 H   0  0  0  0  0  0  0  0  0  0  0  0
   36.7283   31.1905   33.3788 H   0  0  0  0  0  0  0  0  0  0  0  0
   35.6375   32.8089   34.5822 H   0  0  0  0  0  0  0  0  0  0  0  0
   34.8115   32.8943   32.9615 H   0  0  0  0  0  0  0  0  0  0  0  0
   33.7481   32.0696   35.6138 H   0  0  0  0  0  0  0  0  0  0  0  0
   32.9331   32.8671   34.2510 H   0  0  0  0  0  0  0  0  0  0  0  0
   32.0780   30.5989   34.2923 H   0  0  0  0  0  0  0  0  0  0  0  0
   33.2470   30.6216   32.9532 H   0  0  0  0  0  0  0  0  0  0  0  0
   33.6460   28.6782   34.4199 H   0  0  0  0  0  0  0  0  0  0  0  0
   33.8000   29.7687   35.8390 H   0  0  0  0  0  0  0  0  0  0  0  0
  1  5  1  0
  1 14  1  0
  2  1  2  0
  3  2  1  0
  3  4  2  0
  4  5  1  0
  6  4  1  0
  6 11  1  0
  7  8  1  0
  7  6  1  0
  8  9  1  0
  9 10  1  0
 11 10  1  0
 12 11  1  0
 13 18  2  0
 14 13  1  0
 15 16  1  0
 15 14  2  0
 16 17  2  0
 17 19  1  0
 17 18  1  0
 19 24  1  0
 20 21  1  0
 20 19  1  0
 21 22  1  0
 23 22  1  0
 23 24  1  0
  2 25  1  0
  3 26  1  0
  7 27  1  0
  7 28  1  0
  8 29  1  0
  8 30  1  0
  9 31  1  0
 10 32  1  0
 10 33  1  0
 11 34  1  1
 12 35  1  0
 13 36  1  0
 15 37  1  0
 19 38  1  0
 20 39  1  0
 20 40  1  0
 21 41  1  0
 21 42  1  0
 22 43  1  0
 22 44  1  0
 23 45  1  0
 23 46  1  0
 24 47  1  0
 24 48  1  0
M  ISO  8  25  14  26  14  27  13  28  13  29  13  30  13  31   5  32  13
M  ISO  8  33  13  34  13  35  11  36  14  37  14  38  13  39  13  40  13
M  ISO  8  41  13  42  13  43  13  44  13  45  13  46  13  47  13  48  13
M  END
>  <minimizedAffinity>  (1) 
-4.51999807

>  <minimizedRMSD>  (1) 
9.32081985

$$$$
