
     RDKit          3D

 49 51  0  0  1  0  0  0  0  0999 V2000
   36.1520   29.3900   32.4680 C   0  0  0  0  0  0  0  0  0  0  0  0
   36.8510   28.4290   31.8030 C   0  0  0  0  0  0  0  0  0  0  0  0
   37.2410   27.2920   32.5110 C   0  0  0  0  0  0  0  0  0  0  0  0
   36.9260   27.1570   33.8410 C   0  0  0  0  0  0  0  0  0  0  0  0
   36.2260   28.1210   34.5090 C   0  0  0  0  0  0  0  0  0  0  0  0
   35.8320   29.2490   33.8260 C   0  0  0  0  0  0  0  0  0  0  0  0
   37.4300   25.8820   34.4100 C   0  0  0  0  0  0  0  0  0  0  0  0
   38.8320   25.9500   34.8960 C   0  0  2  0  0  0  0  0  0  0  0  0
   40.8000   23.1350   36.1680 C   0  0  0  0  0  0  0  0  0  0  0  0
   39.9980   22.6380   37.2440 C   0  0  0  0  0  0  0  0  0  0  0  0
   38.7910   23.2820   37.5100 C   0  0  0  0  0  0  0  0  0  0  0  0
   38.4370   24.3550   36.7290 N   0  0  0  0  0  0  0  0  0  0  0  0
   39.2260   24.7910   35.7200 C   0  0  0  0  0  0  0  0  0  0  0  0
   40.4100   24.1990   35.4210 N   0  0  0  0  0  0  0  0  0  0  0  0
   38.9870   27.2170   35.7560 C   0  0  0  0  0  0  0  0  0  0  0  0
   35.6530   30.8260   31.5970 S   0  0  0  0  0  0  0  0  0  0  0  0
   36.1580   30.6900   30.1710 O   0  0  0  0  0  0  0  0  0  0  0  0
   36.2310   32.0590   32.1940 O   0  0  0  0  0  0  0  0  0  0  0  0
   33.9100   30.9620   31.5780 C   0  0  0  0  0  0  0  0  0  0  0  0
   32.9150   30.4240   32.3140 N   0  0  0  0  0  0  0  0  0  0  0  0
   31.7650   30.8500   31.8950 O   0  0  0  0  0  0  0  0  0  0  0  0
   31.9440   31.6690   30.8880 C   0  0  0  0  0  0  0  0  0  0  0  0
   33.2460   31.7310   30.7030 N   0  0  0  0  0  0  0  0  0  0  0  0
   30.8480   32.3610   30.1420 C   0  0  0  0  0  0  0  0  0  0  0  0
   29.5040   31.9080   30.7270 C   0  0  0  0  0  0  0  0  0  0  0  0
   30.9600   33.8560   30.2440 C   0  0  0  0  0  0  0  0  0  0  0  0
   30.8360   31.9490   28.6820 C   0  0  0  0  0  0  0  0  0  0  0  0
   37.1009   28.5459   30.7382 H   0  0  0  0  0  0  0  0  0  0  0  0
   37.8050   26.4976   32.0002 H   0  0  0  0  0  0  0  0  0  0  0  0
   35.9814   27.9979   35.5744 H   0  0  0  0  0  0  0  0  0  0  0  0
   35.2674   30.0381   34.3441 H   0  0  0  0  0  0  0  0  0  0  0  0
   36.7842   25.6011   35.2550 H   0  0  0  0  0  0  0  0  0  0  0  0
   37.4103   25.1409   33.5973 H   0  0  0  0  0  0  0  0  0  0  0  0
   39.4802   25.9590   34.0073 H   0  0  0  0  0  0  0  0  0  0  0  0
   41.7568   22.6422   35.9406 H   0  0  0  0  0  0  0  0  0  0  0  0
   40.3240   21.7746   37.8425 H   0  0  0  0  0  0  0  0  0  0  0  0
   38.1376   22.9392   38.3258 H   0  0  0  0  0  0  0  0  0  0  0  0
   38.9536   26.9436   36.8210 H   0  0  0  0  0  0  0  0  0  0  0  0
   39.9506   27.6974   35.5308 H   0  0  0  0  0  0  0  0  0  0  0  0
   38.1676   27.9155   35.5308 H   0  0  0  0  0  0  0  0  0  0  0  0
   29.5575   31.9260   31.8255 H   0  0  0  0  0  0  0  0  0  0  0  0
   28.7086   32.5877   30.3874 H   0  0  0  0  0  0  0  0  0  0  0  0
   29.2823   30.8855   30.3874 H   0  0  0  0  0  0  0  0  0  0  0  0
   30.9821   34.1506   31.3036 H   0  0  0  0  0  0  0  0  0  0  0  0
   31.8856   34.1888   29.7515 H   0  0  0  0  0  0  0  0  0  0  0  0
   30.0943   34.3230   29.7515 H   0  0  0  0  0  0  0  0  0  0  0  0
   30.8040   30.8518   28.6109 H   0  0  0  0  0  0  0  0  0  0  0  0
   29.9499   32.3744   28.1882 H   0  0  0  0  0  0  0  0  0  0  0  0
   31.7454   32.3221   28.1882 H   0  0  0  0  0  0  0  0  0  0  0  0
  1  6  1  0
  2  1  2  0
  2  3  1  0
  3  4  2  0
  4  7  1  0
  4  5  1  0
  6  5  2  0
  7  8  1  0
  8 13  1  0
  8 15  1  0
  9 10  2  0
 10 11  1  0
 12 11  2  0
 13 12  1  0
 14 13  2  0
 14  9  1  0
 16 18  2  0
 16  1  1  0
 17 16  2  0
 19 16  1  0
 19 20  2  0
 21 20  1  0
 22 21  1  0
 23 22  2  0
 23 19  1  0
 24 26  1  0
 24 25  1  0
 24 22  1  0
 27 24  1  0
  2 28  1  0
  3 29  1  0
  5 30  1  0
  6 31  1  0
  7 32  1  0
  7 33  1  0
  8 34  1  6
  9 35  1  0
 10 36  1  0
 11 37  1  0
 15 38  1  0
 15 39  1  0
 15 40  1  0
 25 41  1  0
 25 42  1  0
 25 43  1  0
 26 44  1  0
 26 45  1  0
 26 46  1  0
 27 47  1  0
 27 48  1  0
 27 49  1  0
M  ISO  8  28  14  29  14  30  14  31  14  32   8  33   8  34   8  35  14
M  ISO  8  36  14  37  14  38   8  39   8  40   8  41   8  42   8  43   8
M  ISO  6  44   8  45   8  46   8  47   8  48   8  49   8
M  END
>  <minimizedAffinity>  (1) 
-5.30135965

>  <minimizedRMSD>  (1) 
0.763207495

$$$$
