
     RDKit          3D

 49 52  0  0  1  0  0  0  0  0999 V2000
   36.9910   28.3200   32.0820 C   0  0  0  0  0  0  0  0  0  0  0  0
   38.0820   27.4530   32.2950 C   0  0  0  0  0  0  0  0  0  0  0  0
   39.0710   27.3910   31.3780 C   0  0  0  0  0  0  0  0  0  0  0  0
   38.9670   28.1770   30.2780 N   0  0  0  0  0  0  0  0  0  0  0  0
   37.9080   29.0120   30.0810 C   0  0  0  0  0  0  0  0  0  0  0  0
   36.9260   29.0680   31.0010 N   0  0  0  0  0  0  0  0  0  0  0  0
   38.2120   26.6050   33.4740 C   0  0  0  0  0  0  0  0  0  0  0  0
   38.5440   27.0170   34.7470 C   0  0  0  0  0  0  0  0  0  0  0  0
   38.6190   26.0780   35.7270 C   0  0  0  0  0  0  0  0  0  0  0  0
   38.3540   24.7520   35.3680 C   0  0  0  0  0  0  0  0  0  0  0  0
   37.9800   24.8590   33.5510 S   0  0  0  0  0  0  0  0  0  0  0  0
   38.3660   23.5940   36.1930 N   0  0  0  0  0  0  0  0  0  0  0  0
   39.3580   22.5200   36.1190 C   0  0  0  0  0  0  0  0  0  0  0  0
   40.1980   22.8250   37.3880 C   0  0  0  0  0  0  0  0  0  0  0  0
   39.4380   22.8820   38.5650 N   0  0  0  0  0  0  0  0  0  0  0  0
   38.0560   23.0500   38.5460 C   0  0  0  0  0  0  0  0  0  0  0  0
   37.3820   23.3460   37.2190 C   0  0  2  0  0  0  0  0  0  0  0  0
   36.4800   21.8640   36.6500 S   0  0  0  0  0  0  0  0  0  0  0  0
   37.8350   29.8580   28.8610 C   0  0  0  0  0  0  0  0  0  0  0  0
   37.7880   31.3170   29.3520 C   0  0  0  0  0  0  0  0  0  0  0  0
   36.8630   32.0950   28.5740 N   0  0  0  0  0  0  0  0  0  0  0  0
   36.8200   32.2130   27.2330 C   0  0  0  0  0  0  0  0  0  0  0  0
   35.8470   33.0170   26.6490 C   0  0  0  0  0  0  0  0  0  0  0  0
   34.9090   33.7090   27.4130 C   0  0  0  0  0  0  0  0  0  0  0  0
   33.9130   34.5330   26.8200 N   0  0  0  0  0  0  0  0  0  0  0  0
   34.9690   33.5790   28.7470 N   0  0  0  0  0  0  0  0  0  0  0  0
   35.9240   32.7920   29.2770 C   0  0  0  0  0  0  0  0  0  0  0  0
   35.9020   32.7290   30.5530 O   0  0  0  0  0  0  0  0  0  0  0  0
   36.1844   28.3720   32.8281 H   0  0  0  0  0  0  0  0  0  0  0  0
   39.9341   26.7238   31.5188 H   0  0  0  0  0  0  0  0  0  0  0  0
   38.7428   28.0769   34.9638 H   0  0  0  0  0  0  0  0  0  0  0  0
   38.8777   26.3498   36.7610 H   0  0  0  0  0  0  0  0  0  0  0  0
   38.8870   21.5274   36.1724 H   0  0  0  0  0  0  0  0  0  0  0  0
   39.9347   22.4916   35.1827 H   0  0  0  0  0  0  0  0  0  0  0  0
   40.9556   22.0356   37.5013 H   0  0  0  0  0  0  0  0  0  0  0  0
   40.6469   23.8191   37.2459 H   0  0  0  0  0  0  0  0  0  0  0  0
   39.6137   21.9983   39.0642 H   0  0  0  0  0  0  0  0  0  0  0  0
   37.6106   22.1234   38.9372 H   0  0  0  0  0  0  0  0  0  0  0  0
   37.8863   23.9580   39.1433 H   0  0  0  0  0  0  0  0  0  0  0  0
   36.7246   24.2144   37.3731 H   0  0  0  0  0  0  0  0  0  0  0  0
   36.0451   21.1495   37.7350 H   0  0  0  0  0  0  0  0  0  0  0  0
   36.9282   29.6199   28.2856 H   0  0  0  0  0  0  0  0  0  0  0  0
   38.6977   29.6848   28.2009 H   0  0  0  0  0  0  0  0  0  0  0  0
   37.4724   31.3315   30.4056 H   0  0  0  0  0  0  0  0  0  0  0  0
   38.7912   31.7549   29.2430 H   0  0  0  0  0  0  0  0  0  0  0  0
   37.5480   31.6782   26.6053 H   0  0  0  0  0  0  0  0  0  0  0  0
   35.8169   33.1093   25.5533 H   0  0  0  0  0  0  0  0  0  0  0  0
   33.2350   35.0305   27.4148 H   0  0  0  0  0  0  0  0  0  0  0  0
   33.8696   34.6323   25.7957 H   0  0  0  0  0  0  0  0  0  0  0  0
  1  2  2  0
  2  7  1  0
  3  2  1  0
  4  3  2  0
  5  4  1  0
  5  6  2  0
  6  1  1  0
  7 11  1  0
  7  8  2  0
  8  9  1  0
 10  9  2  0
 10 12  1  0
 11 10  1  0
 12 17  1  0
 13 12  1  0
 13 14  1  0
 14 15  1  0
 16 15  1  0
 17 16  1  0
 18 17  1  0
 19 20  1  0
 19  5  1  0
 21 27  1  0
 21 20  1  0
 22 21  1  0
 23 22  2  0
 23 24  1  0
 24 26  2  0
 25 24  1  0
 26 27  1  0
 27 28  2  0
  1 29  1  0
  3 30  1  0
  8 31  1  0
  9 32  1  0
 13 33  1  0
 13 34  1  0
 14 35  1  0
 14 36  1  0
 15 37  1  0
 16 38  1  0
 16 39  1  0
 17 40  1  1
 18 41  1  0
 19 42  1  0
 19 43  1  0
 20 44  1  0
 20 45  1  0
 22 46  1  0
 23 47  1  0
 25 48  1  0
 25 49  1  0
M  ISO  8  29  14  30  14  31  14  32  14  33  13  34  13  35  13  36  13
M  ISO  8  37   5  38  13  39  13  40  13  41  11  42   8  43   8  44   8
M  ISO  3  45   8  46  14  47  14
M  END
>  <minimizedAffinity>  (1) 
-5.11441278

>  <minimizedRMSD>  (1) 
1.27511644

$$$$
