
     RDKit          3D

 23 25  0  0  0  0  0  0  0  0999 V2000
   38.7070   24.4250   34.5480 N   0  0  0  0  0  0  0  0  0  0  0  0
   39.6990   23.6490   34.0250 C   0  0  0  0  0  0  0  0  0  0  0  0
   40.2240   22.8940   35.0340 N   0  0  0  0  0  0  0  0  0  0  0  0
   39.5740   23.1950   36.1530 C   0  0  0  0  0  0  0  0  0  0  0  0
   39.6300   22.7920   37.4710 C   0  0  0  0  0  0  0  0  0  0  0  0
   38.8210   23.2750   38.4540 N   0  0  0  0  0  0  0  0  0  0  0  0
   37.8940   24.2200   38.1220 C   0  0  0  0  0  0  0  0  0  0  0  0
   37.8160   24.6340   36.8450 N   0  0  0  0  0  0  0  0  0  0  0  0
   38.6160   24.1510   35.8840 C   0  0  0  0  0  0  0  0  0  0  0  0
   37.9700   26.7110   34.1860 C   0  0  0  0  0  0  0  0  0  0  0  0
   37.9230   25.3490   33.8020 C   0  0  0  0  0  0  0  0  0  0  0  0
   37.1160   24.9990   32.7200 C   0  0  0  0  0  0  0  0  0  0  0  0
   36.4090   25.9900   32.0860 N   0  0  0  0  0  0  0  0  0  0  0  0
   36.4780   27.2720   32.4770 C   0  0  0  0  0  0  0  0  0  0  0  0
   37.2520   27.6210   33.5170 N   0  0  0  0  0  0  0  0  0  0  0  0
   40.5790   21.8080   37.8710 N   0  0  0  0  0  0  0  0  0  0  0  0
   40.0203   23.6340   32.9731 H   0  0  0  0  0  0  0  0  0  0  0  0
   37.2216   24.6362   38.8866 H   0  0  0  0  0  0  0  0  0  0  0  0
   38.5971   27.0214   35.0348 H   0  0  0  0  0  0  0  0  0  0  0  0
   37.0477   23.9542   32.3828 H   0  0  0  0  0  0  0  0  0  0  0  0
   35.8983   28.0396   31.9434 H   0  0  0  0  0  0  0  0  0  0  0  0
   40.6233   21.5050   38.8544 H   0  0  0  0  0  0  0  0  0  0  0  0
   41.2210   21.3995   37.1768 H   0  0  0  0  0  0  0  0  0  0  0  0
  1  9  1  0
  2  1  1  0
  2  3  2  0
  3  4  1  0
  4  5  2  0
  5 16  1  0
  5  6  1  0
  7  6  2  0
  8  7  1  0
  9  4  1  0
  9  8  2  0
 11 10  2  0
 11  1  1  0
 12 11  1  0
 13 14  1  0
 13 12  2  0
 14 15  2  0
 15 10  1  0
  2 17  1  0
  7 18  1  0
 10 19  1  0
 12 20  1  0
 14 21  1  0
 16 22  1  0
 16 23  1  0
M  ISO  5  17  14  18  14  19  14  20  14  21  14
M  END
>  <minimizedAffinity>  (1) 
-4.8519702

>  <minimizedRMSD>  (1) 
5.733078

$$$$
