
     RDKit          3D

 51 54  0  0  1  0  0  0  0  0999 V2000
   37.1060   28.3170   32.0590 C   0  0  0  0  0  0  0  0  0  0  0  0
   38.1780   27.4420   32.2970 C   0  0  0  0  0  0  0  0  0  0  0  0
   39.1700   27.3670   31.3930 C   0  0  0  0  0  0  0  0  0  0  0  0
   39.0840   28.1470   30.2850 N   0  0  0  0  0  0  0  0  0  0  0  0
   38.0500   28.9810   30.0720 C   0  0  0  0  0  0  0  0  0  0  0  0
   37.0570   29.0570   30.9780 N   0  0  0  0  0  0  0  0  0  0  0  0
   38.2830   26.6010   33.4840 C   0  0  0  0  0  0  0  0  0  0  0  0
   38.5710   27.0120   34.7670 C   0  0  0  0  0  0  0  0  0  0  0  0
   38.6250   26.0720   35.7390 C   0  0  0  0  0  0  0  0  0  0  0  0
   38.3840   24.7450   35.3760 C   0  0  0  0  0  0  0  0  0  0  0  0
   38.0620   24.8450   33.5470 S   0  0  0  0  0  0  0  0  0  0  0  0
   38.3810   23.5840   36.1970 N   0  0  0  0  0  0  0  0  0  0  0  0
   39.3620   22.4990   36.1260 C   0  0  0  0  0  0  0  0  0  0  0  0
   40.1950   22.7940   37.4050 C   0  0  0  0  0  0  0  0  0  0  0  0
   39.4310   22.8510   38.5740 N   0  0  0  0  0  0  0  0  0  0  0  0
   38.0550   23.0450   38.5540 C   0  0  0  0  0  0  0  0  0  0  0  0
   37.3920   23.3360   37.2200 C   0  0  2  0  0  0  0  0  0  0  0  0
   36.4740   21.8680   36.6400 S   0  0  0  0  0  0  0  0  0  0  0  0
   38.0050   29.8170   28.8370 C   0  0  0  0  0  0  0  0  0  0  0  0
   37.9300   31.2850   29.3100 C   0  0  0  0  0  0  0  0  0  0  0  0
   35.3630   33.3670   26.6130 C   0  0  0  0  0  0  0  0  0  0  0  0
   36.3100   32.4820   26.1310 C   0  0  0  0  0  0  0  0  0  0  0  0
   37.0960   31.8540   27.0800 C   0  0  0  0  0  0  0  0  0  0  0  0
   36.9910   32.0560   28.4540 C   0  0  0  0  0  0  0  0  0  0  0  0
   36.0320   32.9500   28.8850 C   0  0  0  0  0  0  0  0  0  0  0  0
   35.2280   33.5970   27.9680 C   0  0  0  0  0  0  0  0  0  0  0  0
   34.3600   34.1690   25.4160 S   0  0  0  0  0  0  0  0  0  0  0  0
   33.5110   33.1760   24.6490 O   0  0  0  0  0  0  0  0  0  0  0  0
   35.2210   34.8590   24.3710 O   0  0  0  0  0  0  0  0  0  0  0  0
   36.2907   28.3829   32.7945 H   0  0  0  0  0  0  0  0  0  0  0  0
   40.0262   26.6936   31.5464 H   0  0  0  0  0  0  0  0  0  0  0  0
   38.7517   28.0729   34.9946 H   0  0  0  0  0  0  0  0  0  0  0  0
   38.8512   26.3440   36.7805 H   0  0  0  0  0  0  0  0  0  0  0  0
   38.8804   21.5111   36.1728 H   0  0  0  0  0  0  0  0  0  0  0  0
   39.9453   22.4658   35.1940 H   0  0  0  0  0  0  0  0  0  0  0  0
   40.9469   21.9995   37.5203 H   0  0  0  0  0  0  0  0  0  0  0  0
   40.6494   23.7866   37.2700 H   0  0  0  0  0  0  0  0  0  0  0  0
   39.5876   21.9580   39.0628 H   0  0  0  0  0  0  0  0  0  0  0  0
   37.5909   22.1327   38.9570 H   0  0  0  0  0  0  0  0  0  0  0  0
   37.9000   23.9619   39.1417 H   0  0  0  0  0  0  0  0  0  0  0  0
   36.7381   24.2068   37.3754 H   0  0  0  0  0  0  0  0  0  0  0  0
   36.0269   21.1530   37.7197 H   0  0  0  0  0  0  0  0  0  0  0  0
   37.1178   29.5640   28.2379 H   0  0  0  0  0  0  0  0  0  0  0  0
   38.8890   29.6451   28.2054 H   0  0  0  0  0  0  0  0  0  0  0  0
   37.5776   31.3130   30.3516 H   0  0  0  0  0  0  0  0  0  0  0  0
   38.9310   31.7353   29.2384 H   0  0  0  0  0  0  0  0  0  0  0  0
   36.4311   32.2887   25.0549 H   0  0  0  0  0  0  0  0  0  0  0  0
   37.8580   31.1448   26.7244 H   0  0  0  0  0  0  0  0  0  0  0  0
   35.9081   33.1472   29.9601 H   0  0  0  0  0  0  0  0  0  0  0  0
   34.4670   34.3077   28.3226 H   0  0  0  0  0  0  0  0  0  0  0  0
   33.5801   35.0580   26.1076 H   0  0  0  0  0  0  0  0  0  0  0  0
  1  2  2  0
  2  7  1  0
  3  2  1  0
  4  3  2  0
  5  4  1  0
  5  6  2  0
  6  1  1  0
  7 11  1  0
  7  8  2  0
  8  9  1  0
 10  9  2  0
 10 12  1  0
 11 10  1  0
 12 17  1  0
 13 12  1  0
 13 14  1  0
 14 15  1  0
 16 15  1  0
 17 16  1  0
 18 17  1  0
 19 20  1  0
 19  5  1  0
 21 26  2  0
 22 21  1  0
 22 23  2  0
 23 24  1  0
 24 25  2  0
 24 20  1  0
 26 25  1  0
 27 21  1  0
 28 27  2  0
 29 27  2  0
  1 30  1  0
  3 31  1  0
  8 32  1  0
  9 33  1  0
 13 34  1  0
 13 35  1  0
 14 36  1  0
 14 37  1  0
 15 38  1  0
 16 39  1  0
 16 40  1  0
 17 41  1  1
 18 42  1  0
 19 43  1  0
 19 44  1  0
 20 45  1  0
 20 46  1  0
 22 47  1  0
 23 48  1  0
 25 49  1  0
 26 50  1  0
 27 51  1  0
M  ISO  8  30  14  31  14  32  14  33  14  34  13  35  13  36  13  37  13
M  ISO  8  38   5  39  13  40  13  41  13  42  11  43   8  44   8  45   8
M  ISO  6  46   8  47  14  48  14  49  14  50  14  51  11
M  END
>  <minimizedAffinity>  (1) 
-5.0604763

>  <minimizedRMSD>  (1) 
1.41045213

$$$$
