
     RDKit          3D

 45 48  0  0  1  0  0  0  0  0999 V2000
   38.1140   26.6440   33.5480 C   0  0  0  0  0  0  0  0  0  0  0  0
   38.4790   27.0310   34.8190 C   0  0  0  0  0  0  0  0  0  0  0  0
   38.5760   26.0740   35.7780 C   0  0  0  0  0  0  0  0  0  0  0  0
   38.2960   24.7550   35.4030 C   0  0  0  0  0  0  0  0  0  0  0  0
   37.8740   24.8890   33.6000 S   0  0  0  0  0  0  0  0  0  0  0  0
   38.3270   23.5860   36.2130 N   0  0  0  0  0  0  0  0  0  0  0  0
   39.3400   22.5270   36.1100 C   0  0  0  0  0  0  0  0  0  0  0  0
   40.1930   22.8200   37.3740 C   0  0  0  0  0  0  0  0  0  0  0  0
   39.4410   22.8530   38.5620 N   0  0  0  0  0  0  0  0  0  0  0  0
   38.0480   22.9920   38.5570 C   0  0  0  0  0  0  0  0  0  0  0  0
   37.3720   23.2940   37.2330 C   0  0  2  0  0  0  0  0  0  0  0  0
   36.4750   21.8180   36.6490 S   0  0  0  0  0  0  0  0  0  0  0  0
   36.8550   28.3740   32.2210 C   0  0  0  0  0  0  0  0  0  0  0  0
   37.9530   27.5080   32.3850 C   0  0  0  0  0  0  0  0  0  0  0  0
   38.9130   27.4550   31.4450 C   0  0  0  0  0  0  0  0  0  0  0  0
   38.7770   28.2590   30.3540 N   0  0  0  0  0  0  0  0  0  0  0  0
   37.7140   29.0900   30.2050 C   0  0  0  0  0  0  0  0  0  0  0  0
   36.7520   29.1390   31.1550 N   0  0  0  0  0  0  0  0  0  0  0  0
   37.5920   29.9600   28.9960 C   0  0  0  0  0  0  0  0  0  0  0  0
   38.9370   30.6990   28.8500 C   0  0  0  0  0  0  0  0  0  0  0  0
   39.4210   30.3000   27.4800 C   0  0  0  0  0  0  0  0  0  0  0  0
   39.7340   31.1240   26.4150 C   0  0  0  0  0  0  0  0  0  0  0  0
   40.1400   30.3190   25.3460 C   0  0  0  0  0  0  0  0  0  0  0  0
   40.0630   29.0470   25.7850 N   0  0  0  0  0  0  0  0  0  0  0  0
   39.6380   29.0410   27.0470 N   0  0  0  0  0  0  0  0  0  0  0  0
   38.6862   28.0862   35.0507 H   0  0  0  0  0  0  0  0  0  0  0  0
   38.8635   26.3259   36.8095 H   0  0  0  0  0  0  0  0  0  0  0  0
   38.8855   21.5261   36.1509 H   0  0  0  0  0  0  0  0  0  0  0  0
   39.9064   22.5274   35.1670 H   0  0  0  0  0  0  0  0  0  0  0  0
   40.9580   22.0351   37.4676 H   0  0  0  0  0  0  0  0  0  0  0  0
   40.6347   23.8188   37.2424 H   0  0  0  0  0  0  0  0  0  0  0  0
   39.6404   21.9701   39.0535 H   0  0  0  0  0  0  0  0  0  0  0  0
   37.6230   22.0505   38.9351 H   0  0  0  0  0  0  0  0  0  0  0  0
   37.8562   23.8814   39.1751 H   0  0  0  0  0  0  0  0  0  0  0  0
   36.7069   24.1529   37.4061 H   0  0  0  0  0  0  0  0  0  0  0  0
   36.0355   21.0948   37.7263 H   0  0  0  0  0  0  0  0  0  0  0  0
   36.0731   28.4117   32.9938 H   0  0  0  0  0  0  0  0  0  0  0  0
   39.7787   26.7851   31.5534 H   0  0  0  0  0  0  0  0  0  0  0  0
   37.3971   29.3461   28.1043 H   0  0  0  0  0  0  0  0  0  0  0  0
   36.7578   30.6695   29.0995 H   0  0  0  0  0  0  0  0  0  0  0  0
   38.7945   31.7879   28.9133 H   0  0  0  0  0  0  0  0  0  0  0  0
   39.6521   30.4409   29.6451 H   0  0  0  0  0  0  0  0  0  0  0  0
   39.6741   32.2224   26.4094 H   0  0  0  0  0  0  0  0  0  0  0  0
   40.4580   30.6559   24.3483 H   0  0  0  0  0  0  0  0  0  0  0  0
   40.2963   28.2106   25.2311 H   0  0  0  0  0  0  0  0  0  0  0  0
  1  5  1  0
  1  2  2  0
  2  3  1  0
  4  3  2  0
  4  6  1  0
  5  4  1  0
  6 11  1  0
  7  6  1  0
  7  8  1  0
  8  9  1  0
 10  9  1  0
 11 10  1  0
 12 11  1  0
 13 14  2  0
 14  1  1  0
 15 14  1  0
 16 15  2  0
 17 16  1  0
 17 18  2  0
 18 13  1  0
 19 17  1  0
 20 19  1  0
 21 20  1  0
 22 21  1  0
 23 24  1  0
 23 22  2  0
 24 25  1  0
 25 21  2  0
  2 26  1  0
  3 27  1  0
  7 28  1  0
  7 29  1  0
  8 30  1  0
  8 31  1  0
  9 32  1  0
 10 33  1  0
 10 34  1  0
 11 35  1  1
 12 36  1  0
 13 37  1  0
 15 38  1  0
 19 39  1  0
 19 40  1  0
 20 41  1  0
 20 42  1  0
 22 43  1  0
 23 44  1  0
 24 45  1  0
M  ISO  8  26  14  27  14  28  13  29  13  30  13  31  13  32   5  33  13
M  ISO  8  34  13  35  13  36  11  37  14  38  14  39   8  40   8  41   8
M  ISO  4  42   8  43  14  44  14  45   9
M  END
>  <minimizedAffinity>  (1) 
-4.99778318

>  <minimizedRMSD>  (1) 
1.8802886

$$$$
