
     RDKit          3D

 48 51  0  0  1  0  0  0  0  0999 V2000
   38.3280   26.5610   33.4760 C   0  0  0  0  0  0  0  0  0  0  0  0
   38.5890   26.9880   34.7600 C   0  0  0  0  0  0  0  0  0  0  0  0
   38.6240   26.0580   35.7430 C   0  0  0  0  0  0  0  0  0  0  0  0
   38.3920   24.7240   35.3890 C   0  0  0  0  0  0  0  0  0  0  0  0
   38.1090   24.8050   33.5530 S   0  0  0  0  0  0  0  0  0  0  0  0
   38.3750   23.5730   36.2220 N   0  0  0  0  0  0  0  0  0  0  0  0
   39.3570   22.4870   36.1780 C   0  0  0  0  0  0  0  0  0  0  0  0
   40.1730   22.7940   37.4630 C   0  0  0  0  0  0  0  0  0  0  0  0
   39.3910   22.8700   38.6230 N   0  0  0  0  0  0  0  0  0  0  0  0
   38.0060   23.0530   38.5740 C   0  0  0  0  0  0  0  0  0  0  0  0
   37.3650   23.3390   37.2340 C   0  0  2  0  0  0  0  0  0  0  0  0
   36.4630   21.8610   36.6540 S   0  0  0  0  0  0  0  0  0  0  0  0
   37.1660   28.2590   32.0180 C   0  0  0  0  0  0  0  0  0  0  0  0
   38.2450   27.3820   32.2740 C   0  0  0  0  0  0  0  0  0  0  0  0
   39.2490   27.2880   31.3840 C   0  0  0  0  0  0  0  0  0  0  0  0
   39.1610   28.0640   30.2630 N   0  0  0  0  0  0  0  0  0  0  0  0
   38.1340   28.8970   30.0240 C   0  0  0  0  0  0  0  0  0  0  0  0
   37.1300   28.9840   30.9220 N   0  0  0  0  0  0  0  0  0  0  0  0
   38.1030   29.7130   28.7810 C   0  0  0  0  0  0  0  0  0  0  0  0
   38.0490   31.1890   29.2250 C   0  0  0  0  0  0  0  0  0  0  0  0
   37.1770   31.8320   28.2480 N   0  0  0  0  0  0  0  0  0  0  0  0
   37.4920   31.7060   26.9480 C   0  0  0  0  0  0  0  0  0  0  0  0
   36.6320   32.3360   26.0540 C   0  0  0  0  0  0  0  0  0  0  0  0
   35.5230   33.0470   26.4540 C   0  0  0  0  0  0  0  0  0  0  0  0
   34.7680   33.6030   25.6240 O   0  0  0  0  0  0  0  0  0  0  0  0
   35.3170   33.0970   27.7920 N   0  0  0  0  0  0  0  0  0  0  0  0
   36.1100   32.5120   28.7040 C   0  0  0  0  0  0  0  0  0  0  0  0
   35.8570   32.6000   29.9420 O   0  0  0  0  0  0  0  0  0  0  0  0
   38.7635   28.0517   34.9793 H   0  0  0  0  0  0  0  0  0  0  0  0
   38.8281   26.3415   36.7860 H   0  0  0  0  0  0  0  0  0  0  0  0
   38.8741   21.5000   36.2293 H   0  0  0  0  0  0  0  0  0  0  0  0
   39.9533   22.4443   35.2546 H   0  0  0  0  0  0  0  0  0  0  0  0
   40.9192   21.9973   37.5990 H   0  0  0  0  0  0  0  0  0  0  0  0
   40.6347   23.7824   37.3217 H   0  0  0  0  0  0  0  0  0  0  0  0
   39.5472   21.9893   39.1338 H   0  0  0  0  0  0  0  0  0  0  0  0
   37.5427   22.1360   38.9670 H   0  0  0  0  0  0  0  0  0  0  0  0
   37.8336   23.9696   39.1573 H   0  0  0  0  0  0  0  0  0  0  0  0
   36.7106   24.2126   37.3700 H   0  0  0  0  0  0  0  0  0  0  0  0
   36.0237   21.1412   37.7337 H   0  0  0  0  0  0  0  0  0  0  0  0
   36.3451   28.3358   32.7462 H   0  0  0  0  0  0  0  0  0  0  0  0
   40.1035   26.6158   31.5513 H   0  0  0  0  0  0  0  0  0  0  0  0
   37.2130   29.4631   28.1848 H   0  0  0  0  0  0  0  0  0  0  0  0
   38.9872   29.5185   28.1562 H   0  0  0  0  0  0  0  0  0  0  0  0
   37.6286   31.2753   30.2378 H   0  0  0  0  0  0  0  0  0  0  0  0
   39.0465   31.6511   29.2639 H   0  0  0  0  0  0  0  0  0  0  0  0
   38.3737   31.1407   26.6119 H   0  0  0  0  0  0  0  0  0  0  0  0
   36.8481   32.2626   24.9779 H   0  0  0  0  0  0  0  0  0  0  0  0
   34.4969   33.6189   28.1326 H   0  0  0  0  0  0  0  0  0  0  0  0
  1  5  1  0
  1  2  2  0
  2  3  1  0
  4  3  2  0
  4  6  1  0
  5  4  1  0
  6 11  1  0
  7  6  1  0
  7  8  1  0
  8  9  1  0
 10  9  1  0
 11 10  1  0
 12 11  1  0
 13 14  2  0
 14  1  1  0
 15 14  1  0
 16 15  2  0
 17 16  1  0
 17 18  2  0
 18 13  1  0
 19 20  1  0
 19 17  1  0
 21 27  1  0
 21 20  1  0
 22 21  1  0
 23 24  1  0
 23 22  2  0
 24 26  1  0
 25 24  2  0
 26 27  1  0
 27 28  2  0
  2 29  1  0
  3 30  1  0
  7 31  1  0
  7 32  1  0
  8 33  1  0
  8 34  1  0
  9 35  1  0
 10 36  1  0
 10 37  1  0
 11 38  1  1
 12 39  1  0
 13 40  1  0
 15 41  1  0
 19 42  1  0
 19 43  1  0
 20 44  1  0
 20 45  1  0
 22 46  1  0
 23 47  1  0
 26 48  1  0
M  ISO  8  29  14  30  14  31  13  32  13  33  13  34  13  35   5  36  13
M  ISO  8  37  13  38  13  39  11  40  14  41  14  42   8  43   8  44   8
M  ISO  4  45   8  46  14  47  14  48   9
M  END
>  <minimizedAffinity>  (1) 
-5.30540228

>  <minimizedRMSD>  (1) 
0.997235596

$$$$
