
     RDKit          3D

 48 51  0  0  1  0  0  0  0  0999 V2000
   38.1880   26.6180   33.4990 C   0  0  0  0  0  0  0  0  0  0  0  0
   38.5630   27.0110   34.7670 C   0  0  0  0  0  0  0  0  0  0  0  0
   38.6470   26.0630   35.7340 C   0  0  0  0  0  0  0  0  0  0  0  0
   38.3450   24.7460   35.3750 C   0  0  0  0  0  0  0  0  0  0  0  0
   37.9220   24.8680   33.5700 S   0  0  0  0  0  0  0  0  0  0  0  0
   38.3600   23.5850   36.1940 N   0  0  0  0  0  0  0  0  0  0  0  0
   39.3580   22.5090   36.1090 C   0  0  0  0  0  0  0  0  0  0  0  0
   40.2080   22.8110   37.3740 C   0  0  0  0  0  0  0  0  0  0  0  0
   39.4570   22.8410   38.5470 N   0  0  0  0  0  0  0  0  0  0  0  0
   38.0710   23.0240   38.5440 C   0  0  0  0  0  0  0  0  0  0  0  0
   37.3960   23.3150   37.2160 C   0  0  2  0  0  0  0  0  0  0  0  0
   36.4840   21.8420   36.6400 S   0  0  0  0  0  0  0  0  0  0  0  0
   36.9160   28.2970   32.1190 C   0  0  0  0  0  0  0  0  0  0  0  0
   38.0380   27.4700   32.3270 C   0  0  0  0  0  0  0  0  0  0  0  0
   39.0310   27.4440   31.4210 C   0  0  0  0  0  0  0  0  0  0  0  0
   38.9030   28.2390   30.3200 N   0  0  0  0  0  0  0  0  0  0  0  0
   37.8290   29.0310   30.1230 C   0  0  0  0  0  0  0  0  0  0  0  0
   36.8230   29.0520   31.0450 N   0  0  0  0  0  0  0  0  0  0  0  0
   37.6970   29.8940   28.9210 C   0  0  0  0  0  0  0  0  0  0  0  0
   38.3350   31.2450   29.2630 C   0  0  0  0  0  0  0  0  0  0  0  0
   37.3380   32.2320   29.6870 C   0  0  0  0  0  0  0  0  0  0  0  0
   37.2820   32.7480   30.9870 C   0  0  0  0  0  0  0  0  0  0  0  0
   36.3550   33.6620   31.3750 C   0  0  0  0  0  0  0  0  0  0  0  0
   35.4080   34.1340   30.4990 C   0  0  0  0  0  0  0  0  0  0  0  0
   35.4560   33.6240   29.1980 C   0  0  0  0  0  0  0  0  0  0  0  0
   36.3850   32.6940   28.7700 C   0  0  0  0  0  0  0  0  0  0  0  0
   38.7879   28.0648   34.9882 H   0  0  0  0  0  0  0  0  0  0  0  0
   38.9417   26.3210   36.7619 H   0  0  0  0  0  0  0  0  0  0  0  0
   38.8894   21.5153   36.1623 H   0  0  0  0  0  0  0  0  0  0  0  0
   39.9280   22.4856   35.1685 H   0  0  0  0  0  0  0  0  0  0  0  0
   40.9778   22.0314   37.4719 H   0  0  0  0  0  0  0  0  0  0  0  0
   40.6463   23.8112   37.2415 H   0  0  0  0  0  0  0  0  0  0  0  0
   39.6263   21.9412   39.0188 H   0  0  0  0  0  0  0  0  0  0  0  0
   37.6185   22.1061   38.9473 H   0  0  0  0  0  0  0  0  0  0  0  0
   37.9117   23.9348   39.1399 H   0  0  0  0  0  0  0  0  0  0  0  0
   36.7356   24.1790   37.3813 H   0  0  0  0  0  0  0  0  0  0  0  0
   36.0414   21.1271   37.7216 H   0  0  0  0  0  0  0  0  0  0  0  0
   36.1071   28.3117   32.8643 H   0  0  0  0  0  0  0  0  0  0  0  0
   39.9148   26.8046   31.5625 H   0  0  0  0  0  0  0  0  0  0  0  0
   36.6349   30.0312   28.6700 H   0  0  0  0  0  0  0  0  0  0  0  0
   38.1938   29.4351   28.0535 H   0  0  0  0  0  0  0  0  0  0  0  0
   39.0593   31.0994   30.0779 H   0  0  0  0  0  0  0  0  0  0  0  0
   38.8270   31.6273   28.3565 H   0  0  0  0  0  0  0  0  0  0  0  0
   38.0192   32.3989   31.7250 H   0  0  0  0  0  0  0  0  0  0  0  0
   36.3628   34.0314   32.4111 H   0  0  0  0  0  0  0  0  0  0  0  0
   34.6528   34.8732   30.8045 H   0  0  0  0  0  0  0  0  0  0  0  0
   34.7112   33.9837   28.4728 H   0  0  0  0  0  0  0  0  0  0  0  0
   36.3761   32.3254   27.7336 H   0  0  0  0  0  0  0  0  0  0  0  0
  1  5  1  0
  1  2  2  0
  2  3  1  0
  4  3  2  0
  4  6  1  0
  5  4  1  0
  6 11  1  0
  7  6  1  0
  7  8  1  0
  8  9  1  0
 10  9  1  0
 11 10  1  0
 12 11  1  0
 13 14  2  0
 14  1  1  0
 15 14  1  0
 16 15  2  0
 17 16  1  0
 17 18  2  0
 18 13  1  0
 19 20  1  0
 19 17  1  0
 20 21  1  0
 21 22  2  0
 22 23  1  0
 24 23  2  0
 25 24  1  0
 26 25  2  0
 26 21  1  0
  2 27  1  0
  3 28  1  0
  7 29  1  0
  7 30  1  0
  8 31  1  0
  8 32  1  0
  9 33  1  0
 10 34  1  0
 10 35  1  0
 11 36  1  1
 12 37  1  0
 13 38  1  0
 15 39  1  0
 19 40  1  0
 19 41  1  0
 20 42  1  0
 20 43  1  0
 22 44  1  0
 23 45  1  0
 24 46  1  0
 25 47  1  0
 26 48  1  0
M  ISO  8  27  14  28  14  29  13  30  13  31  13  32  13  33   5  34  13
M  ISO  8  35  13  36  13  37  11  38  14  39  14  40   8  41   8  42   8
M  ISO  6  43   8  44  14  45  14  46  14  47  14  48  14
M  END
>  <minimizedAffinity>  (1) 
-5.02811432

>  <minimizedRMSD>  (1) 
0.927940369

$$$$
