
     RDKit          3D

 50 53  0  0  1  0  0  0  0  0999 V2000
   38.2410   26.4780   33.3250 C   0  0  0  0  0  0  0  0  0  0  0  0
   38.7210   26.8860   34.5590 C   0  0  0  0  0  0  0  0  0  0  0  0
   38.8100   25.9750   35.5610 C   0  0  0  0  0  0  0  0  0  0  0  0
   38.4010   24.6700   35.2660 C   0  0  0  0  0  0  0  0  0  0  0  0
   37.8730   24.7650   33.4850 S   0  0  0  0  0  0  0  0  0  0  0  0
   38.3910   23.5450   36.1260 N   0  0  0  0  0  0  0  0  0  0  0  0
   39.3820   22.4400   36.0840 C   0  0  0  0  0  0  0  0  0  0  0  0
   40.2200   22.7620   37.3430 C   0  0  0  0  0  0  0  0  0  0  0  0
   39.4590   22.8780   38.5170 N   0  0  0  0  0  0  0  0  0  0  0  0
   38.0760   23.0660   38.4950 C   0  0  0  0  0  0  0  0  0  0  0  0
   37.4200   23.3250   37.1600 C   0  0  2  0  0  0  0  0  0  0  0  0
   36.4710   21.8490   36.6200 S   0  0  0  0  0  0  0  0  0  0  0  0
   36.8650   27.9130   31.7850 C   0  0  0  0  0  0  0  0  0  0  0  0
   38.0790   27.2990   32.1420 C   0  0  0  0  0  0  0  0  0  0  0  0
   39.1560   27.4830   31.3620 C   0  0  0  0  0  0  0  0  0  0  0  0
   39.0360   28.2580   30.2510 N   0  0  0  0  0  0  0  0  0  0  0  0
   37.8820   28.8400   29.9130 C   0  0  0  0  0  0  0  0  0  0  0  0
   36.7740   28.6590   30.7010 N   0  0  0  0  0  0  0  0  0  0  0  0
   37.7340   29.7010   28.7250 C   0  0  0  0  0  0  0  0  0  0  0  0
   37.0430   30.9770   29.1070 C   0  0  0  0  0  0  0  0  0  0  0  0
   37.7130   31.9010   29.9410 N   0  0  0  0  0  0  0  0  0  0  0  0
   37.9280   33.1510   29.1740 C   0  0  0  0  0  0  0  0  0  0  0  0
   38.3350   34.0940   30.3000 C   0  0  0  0  0  0  0  0  0  0  0  0
   37.2100   33.8150   31.2820 C   0  0  0  0  0  0  0  0  0  0  0  0
   37.0530   32.3020   31.1310 C   0  0  0  0  0  0  0  0  0  0  0  0
   39.0247   27.9303   34.7237 H   0  0  0  0  0  0  0  0  0  0  0  0
   39.1858   26.2496   36.5577 H   0  0  0  0  0  0  0  0  0  0  0  0
   38.8961   21.4561   36.1607 H   0  0  0  0  0  0  0  0  0  0  0  0
   39.9620   22.3807   35.1512 H   0  0  0  0  0  0  0  0  0  0  0  0
   40.9557   21.9566   37.4850 H   0  0  0  0  0  0  0  0  0  0  0  0
   40.6934   23.7399   37.1707 H   0  0  0  0  0  0  0  0  0  0  0  0
   39.6223   22.0126   39.0512 H   0  0  0  0  0  0  0  0  0  0  0  0
   37.6154   22.1602   38.9162 H   0  0  0  0  0  0  0  0  0  0  0  0
   37.9141   23.9918   39.0665 H   0  0  0  0  0  0  0  0  0  0  0  0
   36.7810   24.2094   37.3001 H   0  0  0  0  0  0  0  0  0  0  0  0
   36.0295   21.1623   37.7202 H   0  0  0  0  0  0  0  0  0  0  0  0
   35.9780   27.7689   32.4194 H   0  0  0  0  0  0  0  0  0  0  0  0
   40.1184   27.0152   31.6170 H   0  0  0  0  0  0  0  0  0  0  0  0
   37.1372   29.1756   27.9649 H   0  0  0  0  0  0  0  0  0  0  0  0
   38.7291   29.9338   28.3180 H   0  0  0  0  0  0  0  0  0  0  0  0
   36.8016   31.5041   28.1722 H   0  0  0  0  0  0  0  0  0  0  0  0
   36.1927   30.6411   29.7187 H   0  0  0  0  0  0  0  0  0  0  0  0
   38.7285   33.0383   28.4280 H   0  0  0  0  0  0  0  0  0  0  0  0
   37.0613   33.4845   28.5844 H   0  0  0  0  0  0  0  0  0  0  0  0
   39.3184   33.8331   30.7181 H   0  0  0  0  0  0  0  0  0  0  0  0
   38.4502   35.1483   30.0082 H   0  0  0  0  0  0  0  0  0  0  0  0
   37.4933   34.0905   32.3086 H   0  0  0  0  0  0  0  0  0  0  0  0
   36.2899   34.3860   31.0888 H   0  0  0  0  0  0  0  0  0  0  0  0
   35.9856   32.0434   31.0693 H   0  0  0  0  0  0  0  0  0  0  0  0
   37.4916   31.7875   31.9987 H   0  0  0  0  0  0  0  0  0  0  0  0
  1  5  1  0
  1  2  2  0
  2  3  1  0
  4  3  2  0
  4  6  1  0
  5  4  1  0
  6 11  1  0
  7  6  1  0
  7  8  1  0
  8  9  1  0
 10  9  1  0
 11 10  1  0
 12 11  1  0
 13 14  2  0
 14  1  1  0
 15 14  1  0
 16 15  2  0
 17 16  1  0
 17 18  2  0
 18 13  1  0
 19 20  1  0
 19 17  1  0
 20 21  1  0
 21 25  1  0
 22 21  1  0
 22 23  1  0
 23 24  1  0
 25 24  1  0
  2 26  1  0
  3 27  1  0
  7 28  1  0
  7 29  1  0
  8 30  1  0
  8 31  1  0
  9 32  1  0
 10 33  1  0
 10 34  1  0
 11 35  1  1
 12 36  1  0
 13 37  1  0
 15 38  1  0
 19 39  1  0
 19 40  1  0
 20 41  1  0
 20 42  1  0
 22 43  1  0
 22 44  1  0
 23 45  1  0
 23 46  1  0
 24 47  1  0
 24 48  1  0
 25 49  1  0
 25 50  1  0
M  ISO  8  26  14  27  14  28  13  29  13  30  13  31  13  32   5  33  13
M  ISO  8  34  13  35  13  36  11  37  14  38  14  39   8  40   8  41   8
M  ISO  8  42   8  43  13  44  13  45  13  46  13  47  13  48  13  49  13
M  ISO  1  50  13
M  END
>  <minimizedAffinity>  (1) 
-4.87589645

>  <minimizedRMSD>  (1) 
1.27958798

$$$$
