
     RDKit          3D

 52 55  0  0  1  0  0  0  0  0999 V2000
   38.0970   26.6770   33.5280 C   0  0  0  0  0  0  0  0  0  0  0  0
   38.5390   27.0480   34.7790 C   0  0  0  0  0  0  0  0  0  0  0  0
   38.6590   26.0890   35.7310 C   0  0  0  0  0  0  0  0  0  0  0  0
   38.3240   24.7790   35.3700 C   0  0  0  0  0  0  0  0  0  0  0  0
   37.8140   24.9370   33.5860 S   0  0  0  0  0  0  0  0  0  0  0  0
   38.3630   23.6030   36.1670 N   0  0  0  0  0  0  0  0  0  0  0  0
   39.3570   22.5350   36.0490 C   0  0  0  0  0  0  0  0  0  0  0  0
   40.2250   22.8190   37.3040 C   0  0  0  0  0  0  0  0  0  0  0  0
   39.4980   22.8410   38.4940 N   0  0  0  0  0  0  0  0  0  0  0  0
   38.1110   23.0090   38.5130 C   0  0  0  0  0  0  0  0  0  0  0  0
   37.4090   23.3210   37.2080 C   0  0  2  0  0  0  0  0  0  0  0  0
   36.4970   21.8500   36.6300 S   0  0  0  0  0  0  0  0  0  0  0  0
   36.7970   28.4170   32.2450 C   0  0  0  0  0  0  0  0  0  0  0  0
   37.9030   27.5480   32.3750 C   0  0  0  0  0  0  0  0  0  0  0  0
   38.8330   27.5080   31.4050 C   0  0  0  0  0  0  0  0  0  0  0  0
   38.6560   28.3220   30.3300 N   0  0  0  0  0  0  0  0  0  0  0  0
   37.5880   29.1550   30.2150 C   0  0  0  0  0  0  0  0  0  0  0  0
   36.6600   29.1900   31.1910 N   0  0  0  0  0  0  0  0  0  0  0  0
   37.4360   30.0300   29.0230 C   0  0  0  0  0  0  0  0  0  0  0  0
   38.5240   31.0960   29.1050 C   0  0  0  0  0  0  0  0  0  0  0  0
   38.8900   31.6000   27.8140 N   0  0  0  0  0  0  0  0  0  0  0  0
   37.6890   32.2260   27.2690 C   0  0  0  0  0  0  0  0  0  0  0  0
   37.4210   31.8730   25.8430 C   0  0  0  0  0  0  0  0  0  0  0  0
   38.6220   32.0150   25.0470 N   0  0  0  0  0  0  0  0  0  0  0  0
   39.5760   31.0720   25.5440 C   0  0  0  0  0  0  0  0  0  0  0  0
   39.2490   30.5270   26.9170 C   0  0  0  0  0  0  0  0  0  0  0  0
   38.7885   28.0962   35.0005 H   0  0  0  0  0  0  0  0  0  0  0  0
   39.0058   26.3314   36.7464 H   0  0  0  0  0  0  0  0  0  0  0  0
   38.8912   21.5395   36.0939 H   0  0  0  0  0  0  0  0  0  0  0  0
   39.9119   22.5272   35.0992 H   0  0  0  0  0  0  0  0  0  0  0  0
   40.9927   22.0349   37.3802 H   0  0  0  0  0  0  0  0  0  0  0  0
   40.6605   23.8207   37.1742 H   0  0  0  0  0  0  0  0  0  0  0  0
   39.6858   21.9433   38.9629 H   0  0  0  0  0  0  0  0  0  0  0  0
   37.6751   22.0773   38.9029 H   0  0  0  0  0  0  0  0  0  0  0  0
   37.9542   23.9075   39.1279 H   0  0  0  0  0  0  0  0  0  0  0  0
   36.7492   24.1810   37.3955 H   0  0  0  0  0  0  0  0  0  0  0  0
   36.0532   21.1341   37.7105 H   0  0  0  0  0  0  0  0  0  0  0  0
   36.0371   28.4473   33.0398 H   0  0  0  0  0  0  0  0  0  0  0  0
   39.7050   26.8414   31.4781 H   0  0  0  0  0  0  0  0  0  0  0  0
   36.4432   30.5036   29.0271 H   0  0  0  0  0  0  0  0  0  0  0  0
   37.5300   29.4464   28.0954 H   0  0  0  0  0  0  0  0  0  0  0  0
   38.1557   31.9309   29.7193 H   0  0  0  0  0  0  0  0  0  0  0  0
   39.4164   30.6325   29.5508 H   0  0  0  0  0  0  0  0  0  0  0  0
   36.8269   31.9074   27.8733 H   0  0  0  0  0  0  0  0  0  0  0  0
   37.8491   33.3137   27.3057 H   0  0  0  0  0  0  0  0  0  0  0  0
   37.0724   30.8312   25.7882 H   0  0  0  0  0  0  0  0  0  0  0  0
   36.6522   32.5536   25.4483 H   0  0  0  0  0  0  0  0  0  0  0  0
   38.9928   32.9718   25.1362 H   0  0  0  0  0  0  0  0  0  0  0  0
   39.6261   30.2280   24.8404 H   0  0  0  0  0  0  0  0  0  0  0  0
   40.5328   31.6070   25.6350 H   0  0  0  0  0  0  0  0  0  0  0  0
   38.4060   29.8249   26.8366 H   0  0  0  0  0  0  0  0  0  0  0  0
   40.1350   30.0112   27.3156 H   0  0  0  0  0  0  0  0  0  0  0  0
  1  5  1  0
  1  2  2  0
  2  3  1  0
  4  3  2  0
  4  6  1  0
  5  4  1  0
  6 11  1  0
  7  6  1  0
  7  8  1  0
  8  9  1  0
  9 10  1  0
 11 10  1  0
 12 11  1  0
 13 14  2  0
 14  1  1  0
 15 14  1  0
 16 15  2  0
 17 16  1  0
 17 18  2  0
 18 13  1  0
 19 20  1  0
 19 17  1  0
 21 20  1  0
 22 21  1  0
 23 22  1  0
 24 25  1  0
 24 23  1  0
 25 26  1  0
 26 21  1  0
  2 27  1  0
  3 28  1  0
  7 29  1  0
  7 30  1  0
  8 31  1  0
  8 32  1  0
  9 33  1  0
 10 34  1  0
 10 35  1  0
 11 36  1  1
 12 37  1  0
 13 38  1  0
 15 39  1  0
 19 40  1  0
 19 41  1  0
 20 42  1  0
 20 43  1  0
 22 44  1  0
 22 45  1  0
 23 46  1  0
 23 47  1  0
 24 48  1  0
 25 49  1  0
 25 50  1  0
 26 51  1  0
 26 52  1  0
M  ISO  8  27  14  28  14  29  13  30  13  31  13  32  13  33   5  34  13
M  ISO  8  35  13  36  13  37  11  38  14  39  14  40   8  41   8  42   8
M  ISO  8  43   8  44  13  45  13  46  13  47  13  48   5  49  13  50  13
M  ISO  2  51  13  52  13
M  END
>  <minimizedAffinity>  (1) 
-4.899755

>  <minimizedRMSD>  (1) 
2.13210726

$$$$
