
     RDKit          3D

 45 48  0  0  1  0  0  0  0  0999 V2000
   38.0970   26.6720   33.5210 C   0  0  0  0  0  0  0  0  0  0  0  0
   38.5180   27.0520   34.7770 C   0  0  0  0  0  0  0  0  0  0  0  0
   38.6360   26.0910   35.7290 C   0  0  0  0  0  0  0  0  0  0  0  0
   38.3200   24.7770   35.3640 C   0  0  0  0  0  0  0  0  0  0  0  0
   37.8310   24.9240   33.5770 S   0  0  0  0  0  0  0  0  0  0  0  0
   38.3620   23.6030   36.1630 N   0  0  0  0  0  0  0  0  0  0  0  0
   39.3560   22.5350   36.0430 C   0  0  0  0  0  0  0  0  0  0  0  0
   40.2210   22.8190   37.3010 C   0  0  0  0  0  0  0  0  0  0  0  0
   39.4960   22.8340   38.4880 N   0  0  0  0  0  0  0  0  0  0  0  0
   38.1110   23.0110   38.5130 C   0  0  0  0  0  0  0  0  0  0  0  0
   37.4080   23.3220   37.2080 C   0  0  2  0  0  0  0  0  0  0  0  0
   36.4910   21.8540   36.6320 S   0  0  0  0  0  0  0  0  0  0  0  0
   36.8230   28.4070   32.2170 C   0  0  0  0  0  0  0  0  0  0  0  0
   37.9070   27.5420   32.3660 C   0  0  0  0  0  0  0  0  0  0  0  0
   38.8410   27.4970   31.4010 C   0  0  0  0  0  0  0  0  0  0  0  0
   38.6870   28.3000   30.3160 N   0  0  0  0  0  0  0  0  0  0  0  0
   37.6360   29.1300   30.1840 C   0  0  0  0  0  0  0  0  0  0  0  0
   36.7020   29.1730   31.1530 N   0  0  0  0  0  0  0  0  0  0  0  0
   37.4980   29.9950   28.9840 C   0  0  0  0  0  0  0  0  0  0  0  0
   38.7700   30.8310   28.8760 C   0  0  0  0  0  0  0  0  0  0  0  0
   38.5440   32.1740   29.3190 N   0  0  0  0  0  0  0  0  0  0  0  0
   39.1680   33.2170   28.7570 N   0  0  0  0  0  0  0  0  0  0  0  0
   38.7920   34.3670   29.3440 C   0  0  0  0  0  0  0  0  0  0  0  0
   37.8790   34.0670   30.3340 C   0  0  0  0  0  0  0  0  0  0  0  0
   37.7600   32.6940   30.2790 C   0  0  0  0  0  0  0  0  0  0  0  0
   38.7516   28.1031   35.0018 H   0  0  0  0  0  0  0  0  0  0  0  0
   38.9675   26.3358   36.7489 H   0  0  0  0  0  0  0  0  0  0  0  0
   38.8906   21.5392   36.0853 H   0  0  0  0  0  0  0  0  0  0  0  0
   39.9119   22.5277   35.0938 H   0  0  0  0  0  0  0  0  0  0  0  0
   40.9922   22.0382   37.3753 H   0  0  0  0  0  0  0  0  0  0  0  0
   40.6506   23.8237   37.1748 H   0  0  0  0  0  0  0  0  0  0  0  0
   39.6784   21.9303   38.9473 H   0  0  0  0  0  0  0  0  0  0  0  0
   37.6703   22.0840   38.9086 H   0  0  0  0  0  0  0  0  0  0  0  0
   37.9613   23.9120   39.1260 H   0  0  0  0  0  0  0  0  0  0  0  0
   36.7502   24.1832   37.3966 H   0  0  0  0  0  0  0  0  0  0  0  0
   36.0454   21.1406   37.7134 H   0  0  0  0  0  0  0  0  0  0  0  0
   36.0548   28.4500   33.0032 H   0  0  0  0  0  0  0  0  0  0  0  0
   39.7088   26.8266   31.4874 H   0  0  0  0  0  0  0  0  0  0  0  0
   37.3788   29.3736   28.0842 H   0  0  0  0  0  0  0  0  0  0  0  0
   36.6134   30.6429   29.0717 H   0  0  0  0  0  0  0  0  0  0  0  0
   39.5537   30.3746   29.4985 H   0  0  0  0  0  0  0  0  0  0  0  0
   39.0810   30.8589   27.8212 H   0  0  0  0  0  0  0  0  0  0  0  0
   39.1504   35.3730   29.0804 H   0  0  0  0  0  0  0  0  0  0  0  0
   37.3639   34.7634   31.0120 H   0  0  0  0  0  0  0  0  0  0  0  0
   37.1073   32.1008   30.9363 H   0  0  0  0  0  0  0  0  0  0  0  0
  1  5  1  0
  1  2  2  0
  2  3  1  0
  4  3  2  0
  4  6  1  0
  5  4  1  0
  6 11  1  0
  7  6  1  0
  7  8  1  0
  8  9  1  0
  9 10  1  0
 11 10  1  0
 12 11  1  0
 13 14  2  0
 14  1  1  0
 15 14  1  0
 16 15  2  0
 17 16  1  0
 17 18  2  0
 18 13  1  0
 19 17  1  0
 20 19  1  0
 20 21  1  0
 21 25  1  0
 22 21  1  0
 22 23  2  0
 23 24  1  0
 25 24  2  0
  2 26  1  0
  3 27  1  0
  7 28  1  0
  7 29  1  0
  8 30  1  0
  8 31  1  0
  9 32  1  0
 10 33  1  0
 10 34  1  0
 11 35  1  1
 12 36  1  0
 13 37  1  0
 15 38  1  0
 19 39  1  0
 19 40  1  0
 20 41  1  0
 20 42  1  0
 23 43  1  0
 24 44  1  0
 25 45  1  0
M  ISO  8  26  14  27  14  28  13  29  13  30  13  31  13  32   5  33  13
M  ISO  8  34  13  35  13  36  11  37  14  38  14  39   8  40   8  41   8
M  ISO  4  42   8  43  14  44  14  45  14
M  END
>  <minimizedAffinity>  (1) 
-4.87870789

>  <minimizedRMSD>  (1) 
1.30885434

$$$$
