
     RDKit          3D

 45 48  0  0  1  0  0  0  0  0999 V2000
   38.1400   26.6540   33.5070 C   0  0  0  0  0  0  0  0  0  0  0  0
   38.5270   27.0390   34.7720 C   0  0  0  0  0  0  0  0  0  0  0  0
   38.6270   26.0860   35.7310 C   0  0  0  0  0  0  0  0  0  0  0  0
   38.3300   24.7700   35.3660 C   0  0  0  0  0  0  0  0  0  0  0  0
   37.8840   24.8980   33.5660 S   0  0  0  0  0  0  0  0  0  0  0  0
   38.3590   23.6000   36.1740 N   0  0  0  0  0  0  0  0  0  0  0  0
   39.3500   22.5280   36.0740 C   0  0  0  0  0  0  0  0  0  0  0  0
   40.2060   22.8210   37.3380 C   0  0  0  0  0  0  0  0  0  0  0  0
   39.4650   22.8590   38.5230 N   0  0  0  0  0  0  0  0  0  0  0  0
   38.0720   23.0310   38.5280 C   0  0  0  0  0  0  0  0  0  0  0  0
   37.3950   23.3270   37.2110 C   0  0  2  0  0  0  0  0  0  0  0  0
   36.4860   21.8520   36.6350 S   0  0  0  0  0  0  0  0  0  0  0  0
   36.8690   28.3740   32.1760 C   0  0  0  0  0  0  0  0  0  0  0  0
   37.9710   27.5130   32.3420 C   0  0  0  0  0  0  0  0  0  0  0  0
   38.9270   27.4600   31.3990 C   0  0  0  0  0  0  0  0  0  0  0  0
   38.7860   28.2590   30.3030 N   0  0  0  0  0  0  0  0  0  0  0  0
   37.7250   29.0830   30.1510 C   0  0  0  0  0  0  0  0  0  0  0  0
   36.7590   29.1330   31.1070 N   0  0  0  0  0  0  0  0  0  0  0  0
   37.5850   29.9500   28.9450 C   0  0  0  0  0  0  0  0  0  0  0  0
   38.8890   30.7670   28.8360 C   0  0  0  0  0  0  0  0  0  0  0  0
   39.4070   30.4900   27.4890 N   0  0  0  0  0  0  0  0  0  0  0  0
   40.1950   29.4310   27.1520 C   0  0  0  0  0  0  0  0  0  0  0  0
   40.4420   29.5660   25.7900 C   0  0  0  0  0  0  0  0  0  0  0  0
   39.8290   30.6610   25.3300 N   0  0  0  0  0  0  0  0  0  0  0  0
   39.1870   31.2380   26.3710 C   0  0  0  0  0  0  0  0  0  0  0  0
   38.7491   28.0924   34.9980 H   0  0  0  0  0  0  0  0  0  0  0  0
   38.9304   26.3390   36.7576 H   0  0  0  0  0  0  0  0  0  0  0  0
   38.8806   21.5343   36.1219 H   0  0  0  0  0  0  0  0  0  0  0  0
   39.9145   22.5099   35.1301 H   0  0  0  0  0  0  0  0  0  0  0  0
   40.9689   22.0340   37.4307 H   0  0  0  0  0  0  0  0  0  0  0  0
   40.6470   23.8196   37.2028 H   0  0  0  0  0  0  0  0  0  0  0  0
   39.6463   21.9666   39.0042 H   0  0  0  0  0  0  0  0  0  0  0  0
   37.6285   22.1057   38.9244 H   0  0  0  0  0  0  0  0  0  0  0  0
   37.9063   23.9339   39.1341 H   0  0  0  0  0  0  0  0  0  0  0  0
   36.7377   24.1920   37.3836 H   0  0  0  0  0  0  0  0  0  0  0  0
   36.0449   21.1362   37.7166 H   0  0  0  0  0  0  0  0  0  0  0  0
   36.0893   28.4125   32.9510 H   0  0  0  0  0  0  0  0  0  0  0  0
   39.7953   26.7935   31.5077 H   0  0  0  0  0  0  0  0  0  0  0  0
   37.4488   29.3308   28.0461 H   0  0  0  0  0  0  0  0  0  0  0  0
   36.7092   30.6101   29.0304 H   0  0  0  0  0  0  0  0  0  0  0  0
   38.6825   31.8407   28.9564 H   0  0  0  0  0  0  0  0  0  0  0  0
   39.6120   30.4929   29.6184 H   0  0  0  0  0  0  0  0  0  0  0  0
   40.5598   28.6352   27.8181 H   0  0  0  0  0  0  0  0  0  0  0  0
   41.0489   28.8771   25.1841 H   0  0  0  0  0  0  0  0  0  0  0  0
   38.5867   32.1585   26.3234 H   0  0  0  0  0  0  0  0  0  0  0  0
  1  5  1  0
  1  2  2  0
  2  3  1  0
  4  3  2  0
  4  6  1  0
  5  4  1  0
  6 11  1  0
  7  6  1  0
  7  8  1  0
  8  9  1  0
  9 10  1  0
 11 10  1  0
 12 11  1  0
 13 14  2  0
 14  1  1  0
 15 14  1  0
 16 15  2  0
 17 16  1  0
 17 18  2  0
 18 13  1  0
 19 17  1  0
 20 19  1  0
 21 20  1  0
 22 21  1  0
 23 22  2  0
 24 23  1  0
 24 25  2  0
 25 21  1  0
  2 26  1  0
  3 27  1  0
  7 28  1  0
  7 29  1  0
  8 30  1  0
  8 31  1  0
  9 32  1  0
 10 33  1  0
 10 34  1  0
 11 35  1  1
 12 36  1  0
 13 37  1  0
 15 38  1  0
 19 39  1  0
 19 40  1  0
 20 41  1  0
 20 42  1  0
 22 43  1  0
 23 44  1  0
 25 45  1  0
M  ISO  8  26  14  27  14  28  13  29  13  30  13  31  13  32   5  33  13
M  ISO  8  34  13  35  13  36  11  37  14  38  14  39   8  40   8  41   8
M  ISO  4  42   8  43  14  44  14  45  14
M  END
>  <minimizedAffinity>  (1) 
-4.79973507

>  <minimizedRMSD>  (1) 
1.84544826

$$$$
