
     RDKit          3D

 29 30  0  0  0  0  0  0  0  0999 V2000
   38.6870   23.1370   36.7780 C   0  0  0  0  0  0  0  0  0  0  0  0
   35.7540   21.0380   35.6600 C   0  0  0  0  0  0  0  0  0  0  0  0
   36.6170   21.7520   36.5070 C   0  0  0  0  0  0  0  0  0  0  0  0
   37.7420   22.3670   35.9360 C   0  0  0  0  0  0  0  0  0  0  0  0
   37.9280   22.2310   34.5900 N   0  0  0  0  0  0  0  0  0  0  0  0
   37.0700   21.5310   33.8060 C   0  0  0  0  0  0  0  0  0  0  0  0
   35.9870   20.9380   34.3500 N   0  0  0  0  0  0  0  0  0  0  0  0
   38.8780   24.4510   36.1100 C   0  0  0  0  0  0  0  0  0  0  0  0
   37.8990   25.3970   36.2670 C   0  0  0  0  0  0  0  0  0  0  0  0
   37.9970   26.6600   35.6730 C   0  0  0  0  0  0  0  0  0  0  0  0
   39.1230   26.9420   34.9100 C   0  0  0  0  0  0  0  0  0  0  0  0
   40.1400   26.0020   34.7310 C   0  0  0  0  0  0  0  0  0  0  0  0
   39.9940   24.7710   35.3380 C   0  0  0  0  0  0  0  0  0  0  0  0
   38.1330   23.3350   38.1950 C   0  0  0  0  0  0  0  0  0  0  0  0
   40.0300   22.4860   36.9080 C   0  0  0  0  0  0  0  0  0  0  0  0
   34.8653   20.5498   36.0864 H   0  0  0  0  0  0  0  0  0  0  0  0
   36.4172   21.8271   37.5861 H   0  0  0  0  0  0  0  0  0  0  0  0
   37.2576   21.4468   32.7254 H   0  0  0  0  0  0  0  0  0  0  0  0
   37.0142   25.1574   36.8751 H   0  0  0  0  0  0  0  0  0  0  0  0
   37.2034   27.4098   35.8067 H   0  0  0  0  0  0  0  0  0  0  0  0
   39.2158   27.9299   34.4352 H   0  0  0  0  0  0  0  0  0  0  0  0
   41.0286   26.2350   34.1259 H   0  0  0  0  0  0  0  0  0  0  0  0
   40.7846   24.0172   35.2083 H   0  0  0  0  0  0  0  0  0  0  0  0
   38.9025   23.0600   38.9313 H   0  0  0  0  0  0  0  0  0  0  0  0
   37.8519   24.3892   38.3348 H   0  0  0  0  0  0  0  0  0  0  0  0
   37.2474   22.6977   38.3348 H   0  0  0  0  0  0  0  0  0  0  0  0
   40.2777   22.3659   37.9730 H   0  0  0  0  0  0  0  0  0  0  0  0
   40.0074   21.4988   36.4232 H   0  0  0  0  0  0  0  0  0  0  0  0
   40.7910   23.1152   36.4232 H   0  0  0  0  0  0  0  0  0  0  0  0
  1 15  1  0
  1 14  1  0
  2  3  2  0
  4  3  1  0
  4  1  1  0
  5  4  2  0
  6  7  2  0
  6  5  1  0
  7  2  1  0
  8  9  2  0
  8  1  1  0
 10  9  1  0
 11 10  2  0
 12 11  1  0
 12 13  2  0
 13  8  1  0
  2 16  1  0
  3 17  1  0
  6 18  1  0
  9 19  1  0
 10 20  1  0
 11 21  1  0
 12 22  1  0
 13 23  1  0
 14 24  1  0
 14 25  1  0
 14 26  1  0
 15 27  1  0
 15 28  1  0
 15 29  1  0
M  ISO  8  16  14  17  14  18  14  19  14  20  14  21  14  22  14  23  14
M  ISO  6  24   8  25   8  26   8  27   8  28   8  29   8
M  END
>  <minimizedAffinity>  (1) 
-4.54387999

>  <minimizedRMSD>  (1) 
4.08705473

$$$$
