
     RDKit          3D

 40 42  0  0  1  0  0  0  0  0999 V2000
   38.0990   26.6660   33.5280 C   0  0  0  0  0  0  0  0  0  0  0  0
   38.5070   27.0450   34.7890 C   0  0  0  0  0  0  0  0  0  0  0  0
   38.6240   26.0850   35.7440 C   0  0  0  0  0  0  0  0  0  0  0  0
   38.3180   24.7700   35.3730 C   0  0  0  0  0  0  0  0  0  0  0  0
   37.8450   24.9170   33.5850 S   0  0  0  0  0  0  0  0  0  0  0  0
   38.3590   23.5980   36.1730 N   0  0  0  0  0  0  0  0  0  0  0  0
   39.3660   22.5410   36.0700 C   0  0  0  0  0  0  0  0  0  0  0  0
   40.2010   22.8290   37.3480 C   0  0  0  0  0  0  0  0  0  0  0  0
   39.4590   22.8620   38.5240 N   0  0  0  0  0  0  0  0  0  0  0  0
   38.0710   22.9980   38.5210 C   0  0  0  0  0  0  0  0  0  0  0  0
   37.3930   23.3060   37.2050 C   0  0  2  0  0  0  0  0  0  0  0  0
   36.4830   21.8460   36.6260 S   0  0  0  0  0  0  0  0  0  0  0  0
   36.8350   28.3990   32.2190 C   0  0  0  0  0  0  0  0  0  0  0  0
   37.9150   27.5360   32.3730 C   0  0  0  0  0  0  0  0  0  0  0  0
   38.8620   27.4830   31.4140 C   0  0  0  0  0  0  0  0  0  0  0  0
   38.7140   28.2870   30.3270 N   0  0  0  0  0  0  0  0  0  0  0  0
   37.6690   29.1200   30.1830 C   0  0  0  0  0  0  0  0  0  0  0  0
   36.7230   29.1680   31.1470 N   0  0  0  0  0  0  0  0  0  0  0  0
   37.5330   29.9840   28.9880 C   0  0  0  0  0  0  0  0  0  0  0  0
   38.5690   31.1090   29.1210 C   0  0  0  0  0  0  0  0  0  0  0  0
   39.8740   30.6840   28.7380 N   0  0  0  0  0  0  0  0  0  0  0  0
   38.7321   28.0974   35.0165 H   0  0  0  0  0  0  0  0  0  0  0  0
   38.9460   26.3311   36.7666 H   0  0  0  0  0  0  0  0  0  0  0  0
   38.9102   21.5403   36.0984 H   0  0  0  0  0  0  0  0  0  0  0  0
   39.9421   22.5432   35.1329 H   0  0  0  0  0  0  0  0  0  0  0  0
   40.9642   22.0427   37.4447 H   0  0  0  0  0  0  0  0  0  0  0  0
   40.6329   23.8327   37.2211 H   0  0  0  0  0  0  0  0  0  0  0  0
   39.6608   21.9802   39.0165 H   0  0  0  0  0  0  0  0  0  0  0  0
   37.6485   22.0533   38.8939 H   0  0  0  0  0  0  0  0  0  0  0  0
   37.8794   23.8841   39.1440 H   0  0  0  0  0  0  0  0  0  0  0  0
   36.7332   24.1686   37.3802 H   0  0  0  0  0  0  0  0  0  0  0  0
   36.0361   21.1291   37.7045 H   0  0  0  0  0  0  0  0  0  0  0  0
   36.0618   28.4433   33.0001 H   0  0  0  0  0  0  0  0  0  0  0  0
   39.7273   26.8103   31.5081 H   0  0  0  0  0  0  0  0  0  0  0  0
   36.5192   30.4086   28.9433 H   0  0  0  0  0  0  0  0  0  0  0  0
   37.7002   29.4060   28.0672 H   0  0  0  0  0  0  0  0  0  0  0  0
   38.2661   31.9480   28.4774 H   0  0  0  0  0  0  0  0  0  0  0  0
   38.6077   31.4106   30.1781 H   0  0  0  0  0  0  0  0  0  0  0  0
   40.4366   30.5008   29.5811 H   0  0  0  0  0  0  0  0  0  0  0  0
   39.8039   29.8224   28.1780 H   0  0  0  0  0  0  0  0  0  0  0  0
  1  5  1  0
  1  2  2  0
  2  3  1  0
  4  3  2  0
  4  6  1  0
  5  4  1  0
  6 11  1  0
  7  6  1  0
  7  8  1  0
  8  9  1  0
 10  9  1  0
 11 10  1  0
 12 11  1  0
 13 14  2  0
 14  1  1  0
 15 14  1  0
 16 15  2  0
 17 16  1  0
 17 18  2  0
 18 13  1  0
 19 20  1  0
 19 17  1  0
 21 20  1  0
  2 22  1  0
  3 23  1  0
  7 24  1  0
  7 25  1  0
  8 26  1  0
  8 27  1  0
  9 28  1  0
 10 29  1  0
 10 30  1  0
 11 31  1  1
 12 32  1  0
 13 33  1  0
 15 34  1  0
 19 35  1  0
 19 36  1  0
 20 37  1  0
 20 38  1  0
 21 39  1  0
 21 40  1  0
M  ISO  8  22  14  23  14  24  13  25  13  26  13  27  13  28   5  29  13
M  ISO  8  30  13  31  13  32  11  33  14  34  14  35   8  36   8  37   8
M  ISO  3  38   8  39   5  40   5
M  END
>  <minimizedAffinity>  (1) 
-4.69117832

>  <minimizedRMSD>  (1) 
0.379463345

$$$$
