
     RDKit          3D

 33 35  0  0  0  0  0  0  0  0999 V2000
   38.2300   23.5510   37.0010 C   0  0  0  0  0  0  0  0  0  0  0  0
   37.2650   22.5060   36.5710 C   0  0  0  0  0  0  0  0  0  0  0  0
   36.3160   21.8140   37.3350 C   0  0  0  0  0  0  0  0  0  0  0  0
   35.6290   20.9360   36.5850 N   0  0  0  0  0  0  0  0  0  0  0  0
   36.0750   21.0010   35.3200 C   0  0  0  0  0  0  0  0  0  0  0  0
   35.7070   20.3230   34.1890 C   0  0  0  0  0  0  0  0  0  0  0  0
   36.3300   20.5790   32.9910 C   0  0  0  0  0  0  0  0  0  0  0  0
   37.3420   21.5370   32.9340 C   0  0  0  0  0  0  0  0  0  0  0  0
   37.6690   22.1870   34.1040 C   0  0  0  0  0  0  0  0  0  0  0  0
   37.0730   21.9600   35.3100 C   0  0  0  0  0  0  0  0  0  0  0  0
   41.5570   21.7290   37.1500 C   0  0  0  0  0  0  0  0  0  0  0  0
   40.2130   22.0990   37.4430 C   0  0  0  0  0  0  0  0  0  0  0  0
   39.6390   23.1440   36.7130 C   0  0  0  0  0  0  0  0  0  0  0  0
   40.3960   23.7620   35.7510 N   0  0  0  0  0  0  0  0  0  0  0  0
   41.6610   23.3930   35.4950 C   0  0  0  0  0  0  0  0  0  0  0  0
   42.2490   22.3810   36.1860 N   0  0  0  0  0  0  0  0  0  0  0  0
   38.0330   23.8900   38.4680 C   0  0  0  0  0  0  0  0  0  0  0  0
   37.8580   24.7990   36.2190 C   0  0  0  0  0  0  0  0  0  0  0  0
   36.1540   21.9697   38.4118 H   0  0  0  0  0  0  0  0  0  0  0  0
   34.8817   20.3141   36.9251 H   0  0  0  0  0  0  0  0  0  0  0  0
   34.9079   19.5688   34.2394 H   0  0  0  0  0  0  0  0  0  0  0  0
   36.0327   20.0324   32.0839 H   0  0  0  0  0  0  0  0  0  0  0  0
   37.8596   21.7650   31.9905 H   0  0  0  0  0  0  0  0  0  0  0  0
   38.4673   22.9426   34.0628 H   0  0  0  0  0  0  0  0  0  0  0  0
   42.0344   20.9106   37.7089 H   0  0  0  0  0  0  0  0  0  0  0  0
   39.6414   21.5758   38.2237 H   0  0  0  0  0  0  0  0  0  0  0  0
   42.2306   23.9178   34.7139 H   0  0  0  0  0  0  0  0  0  0  0  0
   38.4888   23.1056   39.0900 H   0  0  0  0  0  0  0  0  0  0  0  0
   38.5103   24.8563   38.6883 H   0  0  0  0  0  0  0  0  0  0  0  0
   36.9572   23.9537   38.6883 H   0  0  0  0  0  0  0  0  0  0  0  0
   37.6157   25.6119   36.9193 H   0  0  0  0  0  0  0  0  0  0  0  0
   38.7052   25.1010   35.5857 H   0  0  0  0  0  0  0  0  0  0  0  0
   36.9837   24.5879   35.5857 H   0  0  0  0  0  0  0  0  0  0  0  0
  1 17  1  0
  2  1  1  0
  2  3  2  0
  4  3  1  0
  5  4  1  0
  6  5  2  0
  7  6  1  0
  8  7  2  0
  8  9  1  0
  9 10  2  0
 10  5  1  0
 10  2  1  0
 11 12  2  0
 13  1  1  0
 13 12  1  0
 14 13  2  0
 15 14  1  0
 15 16  2  0
 16 11  1  0
 18  1  1  0
  3 19  1  0
  4 20  1  0
  6 21  1  0
  7 22  1  0
  8 23  1  0
  9 24  1  0
 11 25  1  0
 12 26  1  0
 15 27  1  0
 17 28  1  0
 17 29  1  0
 17 30  1  0
 18 31  1  0
 18 32  1  0
 18 33  1  0
M  ISO  8  19  14  20   9  21  14  22  14  23  14  24  14  25  14  26  14
M  ISO  7  27  14  28   8  29   8  30   8  31   8  32   8  33   8
M  END
>  <minimizedAffinity>  (1) 
-4.7256155

>  <minimizedRMSD>  (1) 
1.31878948

$$$$
