
     RDKit          3D

 30 32  0  0  0  0  0  0  0  0999 V2000
   38.3350   23.6720   36.9690 C   0  0  0  0  0  0  0  0  0  0  0  0
   37.3610   22.6660   36.5750 N   0  0  0  0  0  0  0  0  0  0  0  0
   36.4640   22.1500   37.4220 C   0  0  0  0  0  0  0  0  0  0  0  0
   35.6930   21.2400   36.7690 N   0  0  0  0  0  0  0  0  0  0  0  0
   36.1440   21.2100   35.4890 C   0  0  0  0  0  0  0  0  0  0  0  0
   35.7420   20.4720   34.3730 C   0  0  0  0  0  0  0  0  0  0  0  0
   36.3870   20.6610   33.2290 N   0  0  0  0  0  0  0  0  0  0  0  0
   37.4110   21.5340   33.1050 C   0  0  0  0  0  0  0  0  0  0  0  0
   37.8080   22.2570   34.1890 N   0  0  0  0  0  0  0  0  0  0  0  0
   37.1900   22.1030   35.3690 C   0  0  0  0  0  0  0  0  0  0  0  0
   41.5690   21.7130   37.1610 C   0  0  0  0  0  0  0  0  0  0  0  0
   40.2620   22.1030   37.4840 C   0  0  0  0  0  0  0  0  0  0  0  0
   39.7130   23.1680   36.7240 C   0  0  0  0  0  0  0  0  0  0  0  0
   40.4830   23.7430   35.7310 N   0  0  0  0  0  0  0  0  0  0  0  0
   41.7440   23.3100   35.4740 C   0  0  0  0  0  0  0  0  0  0  0  0
   42.2730   22.3000   36.1910 N   0  0  0  0  0  0  0  0  0  0  0  0
   38.1260   23.9060   38.4770 C   0  0  0  0  0  0  0  0  0  0  0  0
   38.0220   24.9380   36.2480 C   0  0  0  0  0  0  0  0  0  0  0  0
   36.3651   22.4202   38.4837 H   0  0  0  0  0  0  0  0  0  0  0  0
   34.9123   19.7529   34.4409 H   0  0  0  0  0  0  0  0  0  0  0  0
   37.9193   21.6596   32.1376 H   0  0  0  0  0  0  0  0  0  0  0  0
   42.0319   20.8922   37.7284 H   0  0  0  0  0  0  0  0  0  0  0  0
   39.6918   21.6093   38.2847 H   0  0  0  0  0  0  0  0  0  0  0  0
   42.3354   23.7856   34.6777 H   0  0  0  0  0  0  0  0  0  0  0  0
   38.7526   23.2044   39.0472 H   0  0  0  0  0  0  0  0  0  0  0  0
   38.4079   24.9386   38.7304 H   0  0  0  0  0  0  0  0  0  0  0  0
   37.0682   23.7420   38.7304 H   0  0  0  0  0  0  0  0  0  0  0  0
   37.8246   25.7366   36.9782 H   0  0  0  0  0  0  0  0  0  0  0  0
   38.8771   25.2215   35.6168 H   0  0  0  0  0  0  0  0  0  0  0  0
   37.1333   24.7904   35.6168 H   0  0  0  0  0  0  0  0  0  0  0  0
  1 17  1  0
  2  1  1  0
  2  3  1  0
  4  3  2  0
  5  4  1  0
  6  5  2  0
  7  6  1  0
  8  7  2  0
  8  9  1  0
  9 10  2  0
 10  5  1  0
 10  2  1  0
 11 12  2  0
 13  1  1  0
 13 12  1  0
 14 13  2  0
 15 14  1  0
 15 16  2  0
 16 11  1  0
 18  1  1  0
  3 19  1  0
  6 20  1  0
  8 21  1  0
 11 22  1  0
 12 23  1  0
 15 24  1  0
 17 25  1  0
 17 26  1  0
 17 27  1  0
 18 28  1  0
 18 29  1  0
 18 30  1  0
M  ISO  8  19  14  20  14  21  14  22  14  23  14  24  14  25   8  26   8
M  ISO  4  27   8  28   8  29   8  30   8
M  END
>  <minimizedAffinity>  (1) 
-4.2049737

>  <minimizedRMSD>  (1) 
1.19325185

$$$$
