
     RDKit          3D

 32 34  0  0  0  0  0  0  0  0999 V2000
   38.5830   23.6690   36.8490 C   0  0  0  0  0  0  0  0  0  0  0  0
   41.6910   21.5540   37.2950 C   0  0  0  0  0  0  0  0  0  0  0  0
   40.3850   22.0490   37.4330 C   0  0  0  0  0  0  0  0  0  0  0  0
   39.9560   23.1580   36.7010 C   0  0  0  0  0  0  0  0  0  0  0  0
   40.8770   23.7230   35.8530 N   0  0  0  0  0  0  0  0  0  0  0  0
   42.1190   23.2450   35.7280 C   0  0  0  0  0  0  0  0  0  0  0  0
   42.5390   22.1570   36.4450 N   0  0  0  0  0  0  0  0  0  0  0  0
   37.6680   22.6830   36.2600 N   0  0  0  0  0  0  0  0  0  0  0  0
   36.6760   22.0120   36.9160 C   0  0  0  0  0  0  0  0  0  0  0  0
   36.0280   21.1850   36.0790 N   0  0  0  0  0  0  0  0  0  0  0  0
   36.6150   21.3310   34.8650 C   0  0  0  0  0  0  0  0  0  0  0  0
   36.3630   20.7360   33.6460 C   0  0  0  0  0  0  0  0  0  0  0  0
   37.1220   21.0790   32.5870 N   0  0  0  0  0  0  0  0  0  0  0  0
   38.1130   21.9860   32.7050 C   0  0  0  0  0  0  0  0  0  0  0  0
   38.3700   22.5740   33.8880 N   0  0  0  0  0  0  0  0  0  0  0  0
   37.6360   22.2620   34.9740 C   0  0  0  0  0  0  0  0  0  0  0  0
   35.3040   19.7900   33.5870 N   0  0  0  0  0  0  0  0  0  0  0  0
   38.1850   23.8400   38.3160 C   0  0  0  0  0  0  0  0  0  0  0  0
   38.3650   24.9800   36.1420 C   0  0  0  0  0  0  0  0  0  0  0  0
   42.0175   20.6800   37.8777 H   0  0  0  0  0  0  0  0  0  0  0  0
   39.6892   21.5561   38.1279 H   0  0  0  0  0  0  0  0  0  0  0  0
   42.8180   23.7359   35.0348 H   0  0  0  0  0  0  0  0  0  0  0  0
   36.4399   22.1322   37.9836 H   0  0  0  0  0  0  0  0  0  0  0  0
   38.7180   22.2481   31.8245 H   0  0  0  0  0  0  0  0  0  0  0  0
   35.0810   19.3215   32.6973 H   0  0  0  0  0  0  0  0  0  0  0  0
   34.7595   19.5730   34.4340 H   0  0  0  0  0  0  0  0  0  0  0  0
   39.0035   23.4884   38.9614 H   0  0  0  0  0  0  0  0  0  0  0  0
   37.9872   24.9025   38.5208 H   0  0  0  0  0  0  0  0  0  0  0  0
   37.2781   23.2521   38.5208 H   0  0  0  0  0  0  0  0  0  0  0  0
   38.2320   25.7798   36.8854 H   0  0  0  0  0  0  0  0  0  0  0  0
   39.2378   25.2064   35.5120 H   0  0  0  0  0  0  0  0  0  0  0  0
   37.4659   24.9118   35.5120 H   0  0  0  0  0  0  0  0  0  0  0  0
  1 18  1  0
  2  3  2  0
  4  1  1  0
  4  3  1  0
  5  4  2  0
  6  5  1  0
  6  7  2  0
  7  2  1  0
  8  1  1  0
  8  9  1  0
 10  9  2  0
 11 16  2  0
 11 10  1  0
 12 11  1  0
 13 14  1  0
 13 12  2  0
 14 15  2  0
 15 16  1  0
 16  8  1  0
 17 12  1  0
 19  1  1  0
  2 20  1  0
  3 21  1  0
  6 22  1  0
  9 23  1  0
 14 24  1  0
 17 25  1  0
 17 26  1  0
 18 27  1  0
 18 28  1  0
 18 29  1  0
 19 30  1  0
 19 31  1  0
 19 32  1  0
M  ISO  8  20  14  21  14  22  14  23  14  24  14  27   8  28   8  29   8
M  ISO  3  30   8  31   8  32   8
M  END
>  <minimizedAffinity>  (1) 
-4.44991159

>  <minimizedRMSD>  (1) 
1.77321601

$$$$
