
     RDKit          3D

 35 36  0  0  0  0  0  0  0  0999 V2000
   38.9650   23.2330   36.4960 C   0  0  0  0  0  0  0  0  0  0  0  0
   37.5710   21.4990   33.4590 C   0  0  0  0  0  0  0  0  0  0  0  0
   37.6140   22.1860   34.6790 C   0  0  0  0  0  0  0  0  0  0  0  0
   38.8640   22.4870   35.2160 C   0  0  0  0  0  0  0  0  0  0  0  0
   39.9500   22.0820   34.4980 N   0  0  0  0  0  0  0  0  0  0  0  0
   39.8870   21.4280   33.3350 C   0  0  0  0  0  0  0  0  0  0  0  0
   38.6800   21.1350   32.8140 N   0  0  0  0  0  0  0  0  0  0  0  0
   39.2010   24.6880   36.1840 C   0  0  0  0  0  0  0  0  0  0  0  0
   37.9350   25.4750   35.9790 C   0  0  0  0  0  0  0  0  0  0  0  0
   38.3510   26.9450   36.0980 C   0  0  0  0  0  0  0  0  0  0  0  0
   39.2380   27.2450   34.9100 C   0  0  0  0  0  0  0  0  0  0  0  0
   40.4480   26.3380   34.8360 C   0  0  0  0  0  0  0  0  0  0  0  0
   40.0640   24.8830   34.9870 C   0  0  0  0  0  0  0  0  0  0  0  0
   37.6520   23.0920   37.3090 C   0  0  0  0  0  0  0  0  0  0  0  0
   40.0580   22.7320   37.3690 C   0  0  0  0  0  0  0  0  0  0  0  0
   36.5931   21.2524   33.0198 H   0  0  0  0  0  0  0  0  0  0  0  0
   36.6891   22.4789   35.1973 H   0  0  0  0  0  0  0  0  0  0  0  0
   40.8077   21.1330   32.8103 H   0  0  0  0  0  0  0  0  0  0  0  0
   39.7122   25.0690   37.0804 H   0  0  0  0  0  0  0  0  0  0  0  0
   37.1935   25.2204   36.7506 H   0  0  0  0  0  0  0  0  0  0  0  0
   37.4689   25.2574   35.0067 H   0  0  0  0  0  0  0  0  0  0  0  0
   37.4622   27.5928   36.0803 H   0  0  0  0  0  0  0  0  0  0  0  0
   38.8815   27.1301   37.0437 H   0  0  0  0  0  0  0  0  0  0  0  0
   38.6478   27.1190   33.9903 H   0  0  0  0  0  0  0  0  0  0  0  0
   39.6040   28.2762   35.0226 H   0  0  0  0  0  0  0  0  0  0  0  0
   40.9399   26.4780   33.8621 H   0  0  0  0  0  0  0  0  0  0  0  0
   41.1264   26.6019   35.6607 H   0  0  0  0  0  0  0  0  0  0  0  0
   39.5157   24.5593   34.0900 H   0  0  0  0  0  0  0  0  0  0  0  0
   40.9800   24.2865   35.1105 H   0  0  0  0  0  0  0  0  0  0  0  0
   37.8822   23.1167   38.3844 H   0  0  0  0  0  0  0  0  0  0  0  0
   36.9753   23.9226   37.0597 H   0  0  0  0  0  0  0  0  0  0  0  0
   37.1671   22.1366   37.0597 H   0  0  0  0  0  0  0  0  0  0  0  0
   39.7738   22.8623   38.4236 H   0  0  0  0  0  0  0  0  0  0  0  0
   40.2304   21.6650   37.1648 H   0  0  0  0  0  0  0  0  0  0  0  0
   40.9789   23.2979   37.1648 H   0  0  0  0  0  0  0  0  0  0  0  0
  1 14  1  0
  1 15  1  0
  2  3  2  0
  3  4  1  0
  4  1  1  0
  5  4  2  0
  6  5  1  0
  7  6  2  0
  7  2  1  0
  8  1  1  0
  9 10  1  0
  9  8  1  0
 11 10  1  0
 12 11  1  0
 12 13  1  0
 13  8  1  0
  2 16  1  0
  3 17  1  0
  6 18  1  0
  8 19  1  0
  9 20  1  0
  9 21  1  0
 10 22  1  0
 10 23  1  0
 11 24  1  0
 11 25  1  0
 12 26  1  0
 12 27  1  0
 13 28  1  0
 13 29  1  0
 14 30  1  0
 14 31  1  0
 14 32  1  0
 15 33  1  0
 15 34  1  0
 15 35  1  0
M  ISO  8  16  14  17  14  18  14  19  13  20  13  21  13  22  13  23  13
M  ISO  8  24  13  25  13  26  13  27  13  28  13  29  13  30   8  31   8
M  ISO  4  32   8  33   8  34   8  35   8
M  END
>  <minimizedAffinity>  (1) 
-4.29265213

>  <minimizedRMSD>  (1) 
4.17174816

$$$$
