
     RDKit          3D

 31 32  0  0  0  0  0  0  0  0999 V2000
   38.7130   23.2260   36.8610 C   0  0  0  0  0  0  0  0  0  0  0  0
   35.6710   21.1040   36.0210 C   0  0  0  0  0  0  0  0  0  0  0  0
   36.5900   21.8760   36.7720 C   0  0  0  0  0  0  0  0  0  0  0  0
   37.7230   22.4250   36.1100 C   0  0  0  0  0  0  0  0  0  0  0  0
   37.8700   22.1780   34.7700 N   0  0  0  0  0  0  0  0  0  0  0  0
   36.9680   21.4340   34.0880 C   0  0  0  0  0  0  0  0  0  0  0  0
   35.8730   20.8980   34.7080 N   0  0  0  0  0  0  0  0  0  0  0  0
   38.8060   24.5930   36.4000 N   0  0  0  0  0  0  0  0  0  0  0  0
   37.5840   25.1330   35.8790 C   0  0  0  0  0  0  0  0  0  0  0  0
   38.0780   26.4890   35.3700 C   0  0  0  0  0  0  0  0  0  0  0  0
   39.5520   26.2950   35.0820 C   0  0  0  0  0  0  0  0  0  0  0  0
   39.6690   24.7720   35.2500 C   0  0  0  0  0  0  0  0  0  0  0  0
   38.3990   23.2640   38.3410 C   0  0  0  0  0  0  0  0  0  0  0  0
   40.1210   22.6570   36.7230 C   0  0  0  0  0  0  0  0  0  0  0  0
   34.7881   20.6710   36.5139 H   0  0  0  0  0  0  0  0  0  0  0  0
   36.4309   22.0479   37.8468 H   0  0  0  0  0  0  0  0  0  0  0  0
   37.1188   21.2568   33.0129 H   0  0  0  0  0  0  0  0  0  0  0  0
   37.1811   24.5146   35.0634 H   0  0  0  0  0  0  0  0  0  0  0  0
   36.7587   25.1868   36.6043 H   0  0  0  0  0  0  0  0  0  0  0  0
   37.5409   26.7756   34.4538 H   0  0  0  0  0  0  0  0  0  0  0  0
   37.9055   27.2901   36.1039 H   0  0  0  0  0  0  0  0  0  0  0  0
   40.1819   26.8334   35.8054 H   0  0  0  0  0  0  0  0  0  0  0  0
   39.8833   26.6763   34.1049 H   0  0  0  0  0  0  0  0  0  0  0  0
   39.2950   24.2316   34.3679 H   0  0  0  0  0  0  0  0  0  0  0  0
   40.6939   24.3908   35.3691 H   0  0  0  0  0  0  0  0  0  0  0  0
   39.3298   23.1514   38.9163 H   0  0  0  0  0  0  0  0  0  0  0  0
   37.9274   24.2258   38.5912 H   0  0  0  0  0  0  0  0  0  0  0  0
   37.7116   22.4425   38.5912 H   0  0  0  0  0  0  0  0  0  0  0  0
   40.5466   22.4850   37.7227 H   0  0  0  0  0  0  0  0  0  0  0  0
   40.0795   21.7050   36.1734 H   0  0  0  0  0  0  0  0  0  0  0  0
   40.7526   23.3705   36.1734 H   0  0  0  0  0  0  0  0  0  0  0  0
  1 13  1  0
  2  3  2  0
  4  3  1  0
  4  1  1  0
  5  4  2  0
  6  7  2  0
  6  5  1  0
  7  2  1  0
  8  1  1  0
  9  8  1  0
 10  9  1  0
 11 12  1  0
 11 10  1  0
 12  8  1  0
 14  1  1  0
  2 15  1  0
  3 16  1  0
  6 17  1  0
  9 18  1  0
  9 19  1  0
 10 20  1  0
 10 21  1  0
 11 22  1  0
 11 23  1  0
 12 24  1  0
 12 25  1  0
 13 26  1  0
 13 27  1  0
 13 28  1  0
 14 29  1  0
 14 30  1  0
 14 31  1  0
M  ISO  8  15  14  16  14  17  14  18  13  19  13  20  13  21  13  22  13
M  ISO  8  23  13  24  13  25  13  26   8  27   8  28   8  29   8  30   8
M  ISO  1  31   8
M  END
>  <minimizedAffinity>  (1) 
-3.77002645

>  <minimizedRMSD>  (1) 
3.85013223

$$$$
