
     RDKit          3D

 26 27  0  0  0  0  0  0  0  0999 V2000
   38.2510   23.6560   36.9360 C   0  0  0  0  0  0  0  0  0  0  0  0
   41.5460   21.8370   37.2800 C   0  0  0  0  0  0  0  0  0  0  0  0
   40.2110   22.2260   37.5190 C   0  0  0  0  0  0  0  0  0  0  0  0
   39.6440   23.2260   36.7210 C   0  0  0  0  0  0  0  0  0  0  0  0
   40.4220   23.7810   35.7440 N   0  0  0  0  0  0  0  0  0  0  0  0
   41.7050   23.3820   35.5420 C   0  0  0  0  0  0  0  0  0  0  0  0
   42.2720   22.4030   36.3150 N   0  0  0  0  0  0  0  0  0  0  0  0
   37.3610   22.6040   36.4820 N   0  0  0  0  0  0  0  0  0  0  0  0
   36.3460   22.0630   37.1690 N   0  0  0  0  0  0  0  0  0  0  0  0
   35.7280   21.1160   36.4610 C   0  0  0  0  0  0  0  0  0  0  0  0
   36.3530   21.0180   35.2530 C   0  0  0  0  0  0  0  0  0  0  0  0
   37.3750   21.9620   35.2880 C   0  0  0  0  0  0  0  0  0  0  0  0
   37.9610   23.8800   38.4270 C   0  0  0  0  0  0  0  0  0  0  0  0
   37.9040   24.9170   36.2020 C   0  0  0  0  0  0  0  0  0  0  0  0
   41.9974   21.0505   37.9026 H   0  0  0  0  0  0  0  0  0  0  0  0
   39.6253   21.7509   38.3197 H   0  0  0  0  0  0  0  0  0  0  0  0
   42.2985   23.8528   34.7445 H   0  0  0  0  0  0  0  0  0  0  0  0
   34.8658   20.5192   36.7933 H   0  0  0  0  0  0  0  0  0  0  0  0
   36.1025   20.3371   34.4262 H   0  0  0  0  0  0  0  0  0  0  0  0
   38.0857   22.1574   34.4715 H   0  0  0  0  0  0  0  0  0  0  0  0
   38.6888   23.3178   39.0306 H   0  0  0  0  0  0  0  0  0  0  0  0
   38.0423   24.9521   38.6593 H   0  0  0  0  0  0  0  0  0  0  0  0
   36.9442   23.5305   38.6593 H   0  0  0  0  0  0  0  0  0  0  0  0
   37.6845   25.7147   36.9270 H   0  0  0  0  0  0  0  0  0  0  0  0
   38.7525   25.2189   35.5703 H   0  0  0  0  0  0  0  0  0  0  0  0
   37.0205   24.7423   35.5703 H   0  0  0  0  0  0  0  0  0  0  0  0
  1 13  1  0
  2  3  2  0
  4  1  1  0
  4  3  1  0
  5  4  2  0
  6  5  1  0
  6  7  2  0
  7  2  1  0
  8  1  1  0
  8  9  1  0
 10  9  2  0
 11 12  2  0
 11 10  1  0
 12  8  1  0
 14  1  1  0
  2 15  1  0
  3 16  1  0
  6 17  1  0
 10 18  1  0
 11 19  1  0
 12 20  1  0
 13 21  1  0
 13 22  1  0
 13 23  1  0
 14 24  1  0
 14 25  1  0
 14 26  1  0
M  ISO  8  15  14  16  14  17  14  18  14  19  14  20  14  21   8  22   8
M  ISO  4  23   8  24   8  25   8  26   8
M  END
>  <minimizedAffinity>  (1) 
-3.83079386

>  <minimizedRMSD>  (1) 
1.17983222

$$$$
