
     RDKit          3D

 20 20  0  0  0  0  0  0  0  0999 V2000
   38.1060   23.8200   37.1530 C   0  0  0  0  0  0  0  0  0  0  0  0
   41.3460   21.8400   37.3440 C   0  0  0  0  0  0  0  0  0  0  0  0
   40.1930   22.5470   37.7720 C   0  0  0  0  0  0  0  0  0  0  0  0
   39.3180   23.0570   36.7740 C   0  0  0  0  0  0  0  0  0  0  0  0
   39.6330   22.8370   35.4420 N   0  0  0  0  0  0  0  0  0  0  0  0
   40.7340   22.1630   35.0930 C   0  0  0  0  0  0  0  0  0  0  0  0
   41.5970   21.6590   36.0290 N   0  0  0  0  0  0  0  0  0  0  0  0
   38.1140   24.1840   38.6170 C   0  0  0  0  0  0  0  0  0  0  0  0
   37.9400   25.0810   36.3250 C   0  0  0  0  0  0  0  0  0  0  0  0
   37.0030   22.9690   36.9200 O   0  0  0  0  0  0  0  0  0  0  0  0
   42.0437   21.4345   38.0915 H   0  0  0  0  0  0  0  0  0  0  0  0
   39.9827   22.6959   38.8414 H   0  0  0  0  0  0  0  0  0  0  0  0
   40.9521   22.0094   34.0258 H   0  0  0  0  0  0  0  0  0  0  0  0
   38.0938   23.2663   39.2231 H   0  0  0  0  0  0  0  0  0  0  0  0
   39.0249   24.7558   38.8477 H   0  0  0  0  0  0  0  0  0  0  0  0
   37.2291   24.7953   38.8477 H   0  0  0  0  0  0  0  0  0  0  0  0
   37.8260   25.9466   36.9941 H   0  0  0  0  0  0  0  0  0  0  0  0
   38.8273   25.2224   35.6904 H   0  0  0  0  0  0  0  0  0  0  0  0
   37.0464   24.9880   35.6904 H   0  0  0  0  0  0  0  0  0  0  0  0
   36.6234   22.6761   37.7862 H   0  0  0  0  0  0  0  0  0  0  0  0
  1  8  1  0
  2  3  2  0
  4  1  1  0
  4  3  1  0
  5  4  2  0
  6  5  1  0
  6  7  2  0
  7  2  1  0
  9  1  1  0
 10  1  1  0
  2 11  1  0
  3 12  1  0
  6 13  1  0
  8 14  1  0
  8 15  1  0
  8 16  1  0
  9 17  1  0
  9 18  1  0
  9 19  1  0
 10 20  1  0
M  ISO  8  11  14  12  14  13  14  14   8  15   8  16   8  17   8  18   8
M  ISO  2  19   8  20   3
M  END
>  <minimizedAffinity>  (1) 
-3.33509707

>  <minimizedRMSD>  (1) 
0.379281282

$$$$
