
     RDKit          3D

 21 21  0  0  0  0  0  0  0  0999 V2000
   38.3250   23.4400   37.2440 C   0  0  0  0  0  0  0  0  0  0  0  0
   41.6360   21.6080   37.1330 C   0  0  0  0  0  0  0  0  0  0  0  0
   40.4810   22.2460   37.6340 C   0  0  0  0  0  0  0  0  0  0  0  0
   39.5330   22.7820   36.7250 C   0  0  0  0  0  0  0  0  0  0  0  0
   39.7760   22.6620   35.3890 N   0  0  0  0  0  0  0  0  0  0  0  0
   40.9050   22.0400   34.9390 C   0  0  0  0  0  0  0  0  0  0  0  0
   41.8320   21.5140   35.7980 N   0  0  0  0  0  0  0  0  0  0  0  0
   38.4300   23.7880   38.7150 C   0  0  0  0  0  0  0  0  0  0  0  0
   37.9920   24.7220   36.4960 C   0  0  0  0  0  0  0  0  0  0  0  0
   37.2340   22.4880   37.0480 N   0  0  0  0  0  0  0  0  0  0  0  0
   42.3770   21.1871   37.8285 H   0  0  0  0  0  0  0  0  0  0  0  0
   40.3175   22.3268   38.7188 H   0  0  0  0  0  0  0  0  0  0  0  0
   41.0746   21.9592   33.8552 H   0  0  0  0  0  0  0  0  0  0  0  0
   38.1646   22.9083   39.3197 H   0  0  0  0  0  0  0  0  0  0  0  0
   39.4607   24.0947   38.9466 H   0  0  0  0  0  0  0  0  0  0  0  0
   37.7410   24.6136   38.9466 H   0  0  0  0  0  0  0  0  0  0  0  0
   37.7835   25.5246   37.2187 H   0  0  0  0  0  0  0  0  0  0  0  0
   38.8451   25.0100   35.8642 H   0  0  0  0  0  0  0  0  0  0  0  0
   37.1065   24.5584   35.8642 H   0  0  0  0  0  0  0  0  0  0  0  0
   36.8795   22.1787   37.9643 H   0  0  0  0  0  0  0  0  0  0  0  0
   36.4738   22.9408   36.5208 H   0  0  0  0  0  0  0  0  0  0  0  0
  1  8  1  0
  2  3  2  0
  4  1  1  0
  4  3  1  0
  5  4  2  0
  6  5  1  0
  6  7  2  0
  7  2  1  0
  9  1  1  0
 10  1  1  0
  2 11  1  0
  3 12  1  0
  6 13  1  0
  8 14  1  0
  8 15  1  0
  8 16  1  0
  9 17  1  0
  9 18  1  0
  9 19  1  0
 10 20  1  0
 10 21  1  0
M  ISO  8  11  14  12  14  13  14  14   8  15   8  16   8  17   8  18   8
M  ISO  3  19   8  20   5  21   5
M  END
>  <minimizedAffinity>  (1) 
-3.48674321

>  <minimizedRMSD>  (1) 
0.752775252

$$$$
