
     RDKit          3D

 26 27  0  0  0  0  0  0  0  0999 V2000
   38.3700   23.6500   36.9260 C   0  0  0  0  0  0  0  0  0  0  0  0
   41.5580   21.6840   37.3370 C   0  0  0  0  0  0  0  0  0  0  0  0
   40.2480   22.1550   37.4980 C   0  0  0  0  0  0  0  0  0  0  0  0
   39.7520   23.2030   36.7260 C   0  0  0  0  0  0  0  0  0  0  0  0
   40.6020   23.7450   35.8080 N   0  0  0  0  0  0  0  0  0  0  0  0
   41.8660   23.2810   35.6600 C   0  0  0  0  0  0  0  0  0  0  0  0
   42.3450   22.2520   36.4230 N   0  0  0  0  0  0  0  0  0  0  0  0
   37.5270   22.6300   36.2820 N   0  0  0  0  0  0  0  0  0  0  0  0
   36.5130   21.8840   36.7820 C   0  0  0  0  0  0  0  0  0  0  0  0
   36.0450   21.0680   35.7740 C   0  0  0  0  0  0  0  0  0  0  0  0
   36.7650   21.3060   34.6570 N   0  0  0  0  0  0  0  0  0  0  0  0
   37.6730   22.2680   34.9820 C   0  0  0  0  0  0  0  0  0  0  0  0
   37.9520   23.7210   38.3810 C   0  0  0  0  0  0  0  0  0  0  0  0
   38.0700   24.9580   36.2610 C   0  0  0  0  0  0  0  0  0  0  0  0
   41.9322   20.8560   37.9570 H   0  0  0  0  0  0  0  0  0  0  0  0
   39.5969   21.6867   38.2508 H   0  0  0  0  0  0  0  0  0  0  0  0
   42.5229   23.7429   34.9082 H   0  0  0  0  0  0  0  0  0  0  0  0
   36.1298   21.9225   37.8124 H   0  0  0  0  0  0  0  0  0  0  0  0
   35.2221   20.3437   35.8648 H   0  0  0  0  0  0  0  0  0  0  0  0
   38.4171   22.6905   34.2907 H   0  0  0  0  0  0  0  0  0  0  0  0
   38.8325   23.5714   39.0232 H   0  0  0  0  0  0  0  0  0  0  0  0
   37.5105   24.7070   38.5880 H   0  0  0  0  0  0  0  0  0  0  0  0
   37.2097   22.9361   38.5880 H   0  0  0  0  0  0  0  0  0  0  0  0
   37.8936   25.7271   37.0274 H   0  0  0  0  0  0  0  0  0  0  0  0
   38.9234   25.2546   35.6336 H   0  0  0  0  0  0  0  0  0  0  0  0
   37.1726   24.8530   35.6336 H   0  0  0  0  0  0  0  0  0  0  0  0
  1 13  1  0
  2  3  2  0
  4  1  1  0
  4  3  1  0
  5  4  2  0
  6  5  1  0
  6  7  2  0
  7  2  1  0
  8  9  1  0
  8  1  1  0
 10  9  2  0
 11 12  2  0
 11 10  1  0
 12  8  1  0
 14  1  1  0
  2 15  1  0
  3 16  1  0
  6 17  1  0
  9 18  1  0
 10 19  1  0
 12 20  1  0
 13 21  1  0
 13 22  1  0
 13 23  1  0
 14 24  1  0
 14 25  1  0
 14 26  1  0
M  ISO  8  15  14  16  14  17  14  18  14  19  14  20  14  21   8  22   8
M  ISO  4  23   8  24   8  25   8  26   8
M  END
>  <minimizedAffinity>  (1) 
-3.60917854

>  <minimizedRMSD>  (1) 
1.27538502

$$$$
