
     RDKit          3D

 26 27  0  0  0  0  0  0  0  0999 V2000
   38.5130   23.7710   36.4090 C   0  0  0  0  0  0  0  0  0  0  0  0
   41.5830   21.8230   37.3940 C   0  0  0  0  0  0  0  0  0  0  0  0
   40.2540   22.2910   37.3360 C   0  0  0  0  0  0  0  0  0  0  0  0
   39.9060   23.3160   36.4710 C   0  0  0  0  0  0  0  0  0  0  0  0
   40.9290   23.8010   35.7170 N   0  0  0  0  0  0  0  0  0  0  0  0
   42.1870   23.3660   35.7660 C   0  0  0  0  0  0  0  0  0  0  0  0
   42.5180   22.3690   36.6100 N   0  0  0  0  0  0  0  0  0  0  0  0
   37.7050   23.2750   37.6420 C   0  0  0  0  0  0  0  0  0  0  0  0
   38.3650   25.2430   36.3710 C   0  0  0  0  0  0  0  0  0  0  0  0
   37.8960   23.1710   35.1560 C   0  0  0  0  0  0  0  0  0  0  0  0
   38.4810   21.9900   34.5110 C   0  0  0  0  0  0  0  0  0  0  0  0
   37.2230   21.7960   35.3030 C   0  0  0  0  0  0  0  0  0  0  0  0
   41.8502   21.0091   38.0840 H   0  0  0  0  0  0  0  0  0  0  0  0
   39.4875   21.8388   37.9826 H   0  0  0  0  0  0  0  0  0  0  0  0
   42.9531   23.8191   35.1197 H   0  0  0  0  0  0  0  0  0  0  0  0
   38.2152   23.5882   38.5648 H   0  0  0  0  0  0  0  0  0  0  0  0
   36.6943   23.7084   37.6166 H   0  0  0  0  0  0  0  0  0  0  0  0
   37.6341   22.1776   37.6166 H   0  0  0  0  0  0  0  0  0  0  0  0
   38.3257   25.6342   37.3983 H   0  0  0  0  0  0  0  0  0  0  0  0
   39.2233   25.6843   35.8432 H   0  0  0  0  0  0  0  0  0  0  0  0
   37.4360   25.5046   35.8432 H   0  0  0  0  0  0  0  0  0  0  0  0
   37.6152   24.1690   34.7885 H   0  0  0  0  0  0  0  0  0  0  0  0
   38.4522   21.8995   33.4151 H   0  0  0  0  0  0  0  0  0  0  0  0
   39.4766   21.5228   34.5334 H   0  0  0  0  0  0  0  0  0  0  0  0
   37.2484   21.2645   36.2658 H   0  0  0  0  0  0  0  0  0  0  0  0
   36.2231   21.3803   35.1096 H   0  0  0  0  0  0  0  0  0  0  0  0
  1  4  1  0
  1  8  1  0
  3  2  2  0
  4  3  1  0
  5  6  1  0
  5  4  2  0
  6  7  2  0
  7  2  1  0
  9  1  1  0
 10 12  1  0
 10  1  1  0
 11 10  1  0
 11 12  1  0
  2 13  1  0
  3 14  1  0
  6 15  1  0
  8 16  1  0
  8 17  1  0
  8 18  1  0
  9 19  1  0
  9 20  1  0
  9 21  1  0
 10 22  1  0
 11 23  1  0
 11 24  1  0
 12 25  1  0
 12 26  1  0
M  ISO  8  13  14  14  14  15  14  16   8  17   8  18   8  19   8  20   8
M  ISO  6  21   8  22  13  23  13  24  13  25  13  26  13
M  END
>  <minimizedAffinity>  (1) 
-3.19986439

>  <minimizedRMSD>  (1) 
1.70133018

$$$$
