
     RDKit          3D

 36 39  0  0  0  0  0  0  0  0999 V2000
   37.6050   26.9550   34.9120 C   0  0  0  0  0  0  0  0  0  0  0  0
   37.8390   25.7610   34.2130 C   0  0  0  0  0  0  0  0  0  0  0  0
   37.2760   25.6170   32.9340 C   0  0  0  0  0  0  0  0  0  0  0  0
   36.5290   26.6560   32.4390 N   0  0  0  0  0  0  0  0  0  0  0  0
   36.3250   27.7860   33.1380 C   0  0  0  0  0  0  0  0  0  0  0  0
   36.8650   27.9270   34.3700 N   0  0  0  0  0  0  0  0  0  0  0  0
   35.5440   28.8520   32.6050 N   0  0  0  0  0  0  0  0  0  0  0  0
   34.4540   29.3810   33.1800 C   0  0  0  0  0  0  0  0  0  0  0  0
   33.8030   30.4140   32.5380 C   0  0  0  0  0  0  0  0  0  0  0  0
   32.5920   31.0110   33.1640 C   0  0  0  0  0  0  0  0  0  0  0  0
   34.2290   30.9200   31.3350 C   0  0  0  0  0  0  0  0  0  0  0  0
   33.5940   31.8730   30.7830 O   0  0  0  0  0  0  0  0  0  0  0  0
   35.3200   30.3740   30.7810 N   0  0  0  0  0  0  0  0  0  0  0  0
   35.9450   29.3680   31.4160 C   0  0  0  0  0  0  0  0  0  0  0  0
   36.9780   28.8930   30.8360 O   0  0  0  0  0  0  0  0  0  0  0  0
   38.6300   24.7620   34.8340 N   0  0  0  0  0  0  0  0  0  0  0  0
   39.6010   24.0250   34.2100 C   0  0  0  0  0  0  0  0  0  0  0  0
   40.1370   23.1750   35.1250 N   0  0  0  0  0  0  0  0  0  0  0  0
   39.5210   23.3700   36.2970 C   0  0  0  0  0  0  0  0  0  0  0  0
   39.6150   22.8330   37.5570 C   0  0  0  0  0  0  0  0  0  0  0  0
   38.8390   23.2290   38.6090 N   0  0  0  0  0  0  0  0  0  0  0  0
   37.9240   24.2060   38.3920 C   0  0  0  0  0  0  0  0  0  0  0  0
   37.8130   24.7470   37.1660 N   0  0  0  0  0  0  0  0  0  0  0  0
   38.5800   24.3540   36.1350 C   0  0  0  0  0  0  0  0  0  0  0  0
   40.5720   21.8000   37.8090 N   0  0  0  0  0  0  0  0  0  0  0  0
   38.0346   27.0922   35.9153 H   0  0  0  0  0  0  0  0  0  0  0  0
   37.4294   24.6993   32.3473 H   0  0  0  0  0  0  0  0  0  0  0  0
   34.0866   28.9990   34.1439 H   0  0  0  0  0  0  0  0  0  0  0  0
   32.6849   30.9652   34.2591 H   0  0  0  0  0  0  0  0  0  0  0  0
   32.4951   32.0601   32.8478 H   0  0  0  0  0  0  0  0  0  0  0  0
   31.7009   30.4490   32.8478 H   0  0  0  0  0  0  0  0  0  0  0  0
   35.6755   30.7213   29.8789 H   0  0  0  0  0  0  0  0  0  0  0  0
   39.8955   24.1067   33.1533 H   0  0  0  0  0  0  0  0  0  0  0  0
   37.2780   24.5530   39.2120 H   0  0  0  0  0  0  0  0  0  0  0  0
   40.6512   21.3899   38.7505 H   0  0  0  0  0  0  0  0  0  0  0  0
   41.1818   21.4664   37.0489 H   0  0  0  0  0  0  0  0  0  0  0  0
  2 16  1  0
  2  1  2  0
  3  2  1  0
  4  3  2  0
  4  5  1  0
  5  6  2  0
  6  1  1  0
  7  5  1  0
  7  8  1  0
  9 10  1  0
  9  8  2  0
 11  9  1  0
 12 11  2  0
 13 11  1  0
 13 14  1  0
 14  7  1  0
 15 14  2  0
 16 24  1  0
 17 16  1  0
 17 18  2  0
 18 19  1  0
 19 20  2  0
 20 25  1  0
 20 21  1  0
 22 21  2  0
 23 22  1  0
 24 19  1  0
 24 23  2  0
  1 26  1  0
  3 27  1  0
  8 28  1  0
 10 29  1  0
 10 30  1  0
 10 31  1  0
 13 32  1  0
 17 33  1  0
 22 34  1  0
 25 35  1  0
 25 36  1  0
M  ISO  8  26  14  27  14  28  14  29   8  30   8  31   8  32   9  33  14
M  ISO  1  34  14
M  END
>  <minimizedAffinity>  (1) 
-6.9433279

>  <minimizedRMSD>  (1) 
0.893253982

$$$$
