
     RDKit          3D

 43 45  0  0  1  0  0  0  0  0999 V2000
   38.3560   23.0620   35.9290 C   0  0  2  0  0  0  0  0  0  0  0  0
   37.4270   21.9060   35.6760 C   0  0  0  0  0  0  0  0  0  0  0  0
   37.0010   21.6620   34.2920 C   0  0  0  0  0  0  0  0  0  0  0  0
   35.7510   20.7740   34.4640 C   0  0  0  0  0  0  0  0  0  0  0  0
   35.6010   20.5500   35.9530 C   0  0  0  0  0  0  0  0  0  0  0  0
   36.1270   21.9280   36.4410 C   0  0  0  0  0  0  0  0  0  0  0  0
   41.5580   21.7710   37.4660 C   0  0  0  0  0  0  0  0  0  0  0  0
   40.2940   22.3590   37.3380 C   0  0  0  0  0  0  0  0  0  0  0  0
   39.6750   22.4740   36.1050 C   0  0  0  0  0  0  0  0  0  0  0  0
   40.4330   21.9640   35.1170 N   0  0  0  0  0  0  0  0  0  0  0  0
   41.6260   21.4010   35.1860 C   0  0  0  0  0  0  0  0  0  0  0  0
   42.1970   21.3050   36.3930 N   0  0  0  0  0  0  0  0  0  0  0  0
   37.8810   23.6730   37.2940 C   0  0  0  0  0  0  0  0  0  0  0  0
   38.2600   24.1150   34.9130 C   0  0  0  0  0  0  0  0  0  0  0  0
   39.3800   24.8990   34.5720 N   0  0  0  0  0  0  0  0  0  0  0  0
   40.4120   24.6880   33.7430 C   0  0  0  0  0  0  0  0  0  0  0  0
   41.4550   25.5440   33.4790 C   0  0  0  0  0  0  0  0  0  0  0  0
   41.4990   26.7530   34.0940 C   0  0  0  0  0  0  0  0  0  0  0  0
   42.5870   27.6200   33.8050 N   0  0  0  0  0  0  0  0  0  0  0  0
   40.4850   27.0320   34.9450 N   0  0  0  0  0  0  0  0  0  0  0  0
   39.4830   26.1330   35.1580 C   0  0  0  0  0  0  0  0  0  0  0  0
   38.7050   26.6930   35.9900 O   0  0  0  0  0  0  0  0  0  0  0  0
   38.1115   21.1159   36.0183 H   0  0  0  0  0  0  0  0  0  0  0  0
   37.7835   21.1372   33.7243 H   0  0  0  0  0  0  0  0  0  0  0  0
   36.8014   22.5868   33.7309 H   0  0  0  0  0  0  0  0  0  0  0  0
   34.8623   21.2829   34.0625 H   0  0  0  0  0  0  0  0  0  0  0  0
   35.8546   19.8227   33.9216 H   0  0  0  0  0  0  0  0  0  0  0  0
   34.5542   20.3782   36.2439 H   0  0  0  0  0  0  0  0  0  0  0  0
   36.1169   19.6679   36.3600 H   0  0  0  0  0  0  0  0  0  0  0  0
   36.2794   21.9593   37.5299 H   0  0  0  0  0  0  0  0  0  0  0  0
   35.4703   22.7945   36.2735 H   0  0  0  0  0  0  0  0  0  0  0  0
   42.0267   21.6931   38.4581 H   0  0  0  0  0  0  0  0  0  0  0  0
   39.7823   22.7373   38.2352 H   0  0  0  0  0  0  0  0  0  0  0  0
   42.1318   21.0248   34.2845 H   0  0  0  0  0  0  0  0  0  0  0  0
   38.3237   23.1035   38.1245 H   0  0  0  0  0  0  0  0  0  0  0  0
   38.2022   24.7232   37.3572 H   0  0  0  0  0  0  0  0  0  0  0  0
   36.7841   23.6207   37.3572 H   0  0  0  0  0  0  0  0  0  0  0  0
   37.9270   23.6255   33.9859 H   0  0  0  0  0  0  0  0  0  0  0  0
   37.5878   24.8463   35.3855 H   0  0  0  0  0  0  0  0  0  0  0  0
   40.4260   23.7229   33.2154 H   0  0  0  0  0  0  0  0  0  0  0  0
   42.2477   25.2512   32.7748 H   0  0  0  0  0  0  0  0  0  0  0  0
   42.6443   28.5432   34.2582 H   0  0  0  0  0  0  0  0  0  0  0  0
   43.3184   27.3253   33.1423 H   0  0  0  0  0  0  0  0  0  0  0  0
  1 14  1  6
  1  9  1  0
  1 13  1  0
  2  1  1  0
  2  6  1  0
  3  4  1  0
  3  2  1  0
  4  5  1  0
  5  6  1  0
  8  7  2  0
  9  8  1  0
 10 11  1  0
 10  9  2  0
 11 12  2  0
 12  7  1  0
 15 14  1  0
 15 21  1  0
 16 15  1  0
 17 16  2  0
 17 18  1  0
 18 20  2  0
 19 18  1  0
 20 21  1  0
 21 22  2  0
  2 23  1  0
  3 24  1  0
  3 25  1  0
  4 26  1  0
  4 27  1  0
  5 28  1  0
  5 29  1  0
  6 30  1  0
  6 31  1  0
  7 32  1  0
  8 33  1  0
 11 34  1  0
 13 35  1  0
 13 36  1  0
 13 37  1  0
 14 38  1  0
 14 39  1  0
 16 40  1  0
 17 41  1  0
 19 42  1  0
 19 43  1  0
M  ISO  8  23  13  24  13  25  13  26  13  27  13  28  13  29  13  30  13
M  ISO  8  31  13  32  14  33  14  34  14  35   8  36   8  37   8  38   8
M  ISO  3  39   8  40  14  41  14
M  END
>  <minimizedAffinity>  (1) 
-4.81894159

>  <minimizedRMSD>  (1) 
2.53455162

$$$$
