
     RDKit          3D

 39 41  0  0  1  0  0  0  0  0999 V2000
   38.3800   23.1360   35.8570 C   0  0  2  0  0  0  0  0  0  0  0  0
   37.4620   21.9750   35.6830 C   0  0  0  0  0  0  0  0  0  0  0  0
   36.9840   21.6690   34.3060 C   0  0  0  0  0  0  0  0  0  0  0  0
   35.7730   20.7580   34.5570 C   0  0  0  0  0  0  0  0  0  0  0  0
   35.6290   20.6560   36.0590 C   0  0  0  0  0  0  0  0  0  0  0  0
   36.1760   22.0380   36.4640 C   0  0  0  0  0  0  0  0  0  0  0  0
   41.4870   21.7130   37.4590 C   0  0  0  0  0  0  0  0  0  0  0  0
   40.2080   22.2560   37.2930 C   0  0  0  0  0  0  0  0  0  0  0  0
   39.7220   22.5670   36.0160 C   0  0  0  0  0  0  0  0  0  0  0  0
   40.5900   22.2960   35.0120 N   0  0  0  0  0  0  0  0  0  0  0  0
   41.8150   21.7770   35.1580 C   0  0  0  0  0  0  0  0  0  0  0  0
   42.2640   21.4850   36.3870 N   0  0  0  0  0  0  0  0  0  0  0  0
   37.9380   23.8760   37.1330 C   0  0  0  0  0  0  0  0  0  0  0  0
   38.2990   24.1100   34.7250 C   0  0  0  0  0  0  0  0  0  0  0  0
   38.4540   25.4930   35.1630 C   0  0  0  0  0  0  0  0  0  0  0  0
   37.3550   26.3430   34.9830 C   0  0  0  0  0  0  0  0  0  0  0  0
   37.7040   27.6000   35.4600 C   0  0  0  0  0  0  0  0  0  0  0  0
   38.9690   27.5020   35.9100 N   0  0  0  0  0  0  0  0  0  0  0  0
   39.4140   26.2620   35.7360 N   0  0  0  0  0  0  0  0  0  0  0  0
   38.1605   21.2059   36.0444 H   0  0  0  0  0  0  0  0  0  0  0  0
   37.7585   21.1466   33.7253 H   0  0  0  0  0  0  0  0  0  0  0  0
   36.7373   22.5681   33.7222 H   0  0  0  0  0  0  0  0  0  0  0  0
   34.8665   21.1977   34.1156 H   0  0  0  0  0  0  0  0  0  0  0  0
   35.9131   19.7679   34.0986 H   0  0  0  0  0  0  0  0  0  0  0  0
   34.5797   20.5255   36.3623 H   0  0  0  0  0  0  0  0  0  0  0  0
   36.1399   19.7979   36.5201 H   0  0  0  0  0  0  0  0  0  0  0  0
   36.3473   22.1197   37.5475 H   0  0  0  0  0  0  0  0  0  0  0  0
   35.5234   22.8999   36.2612 H   0  0  0  0  0  0  0  0  0  0  0  0
   41.8561   21.4729   38.4670 H   0  0  0  0  0  0  0  0  0  0  0  0
   39.5770   22.4408   38.1749 H   0  0  0  0  0  0  0  0  0  0  0  0
   42.4477   21.5917   34.2775 H   0  0  0  0  0  0  0  0  0  0  0  0
   38.2734   23.3144   38.0174 H   0  0  0  0  0  0  0  0  0  0  0  0
   38.3835   24.8817   37.1466 H   0  0  0  0  0  0  0  0  0  0  0  0
   36.8413   23.9605   37.1466 H   0  0  0  0  0  0  0  0  0  0  0  0
   39.0955   23.8778   34.0027 H   0  0  0  0  0  0  0  0  0  0  0  0
   37.3008   24.0134   34.2730 H   0  0  0  0  0  0  0  0  0  0  0  0
   36.3867   26.0642   34.5418 H   0  0  0  0  0  0  0  0  0  0  0  0
   37.0708   28.4994   35.4684 H   0  0  0  0  0  0  0  0  0  0  0  0
   39.5107   28.2726   36.3267 H   0  0  0  0  0  0  0  0  0  0  0  0
  1 14  1  6
  1  9  1  0
  1 13  1  0
  2  1  1  0
  2  6  1  0
  3  4  1  0
  3  2  1  0
  4  5  1  0
  5  6  1  0
  8  7  2  0
  9  8  1  0
 10 11  1  0
 10  9  2  0
 11 12  2  0
 12  7  1  0
 14 15  1  0
 15 19  2  0
 16 15  1  0
 16 17  2  0
 17 18  1  0
 19 18  1  0
  2 20  1  0
  3 21  1  0
  3 22  1  0
  4 23  1  0
  4 24  1  0
  5 25  1  0
  5 26  1  0
  6 27  1  0
  6 28  1  0
  7 29  1  0
  8 30  1  0
 11 31  1  0
 13 32  1  0
 13 33  1  0
 13 34  1  0
 14 35  1  0
 14 36  1  0
 16 37  1  0
 17 38  1  0
 18 39  1  0
M  ISO  8  20  13  21  13  22  13  23  13  24  13  25  13  26  13  27  13
M  ISO  8  28  13  29  14  30  14  31  14  32   8  33   8  34   8  35   8
M  ISO  4  36   8  37  14  38  14  39   9
M  END
>  <minimizedAffinity>  (1) 
-4.6958766

>  <minimizedRMSD>  (1) 
1.41804159

$$$$
