
     RDKit          3D

 39 41  0  0  1  0  0  0  0  0999 V2000
   38.3930   23.0610   35.7400 C   0  0  2  0  0  0  0  0  0  0  0  0
   37.4450   21.9040   35.6500 C   0  0  0  0  0  0  0  0  0  0  0  0
   36.9390   21.5600   34.3080 C   0  0  0  0  0  0  0  0  0  0  0  0
   35.6990   20.6990   34.6130 C   0  0  0  0  0  0  0  0  0  0  0  0
   35.6180   20.6240   36.1250 C   0  0  0  0  0  0  0  0  0  0  0  0
   36.1760   22.0290   36.4440 C   0  0  0  0  0  0  0  0  0  0  0  0
   41.4110   21.6840   37.5180 C   0  0  0  0  0  0  0  0  0  0  0  0
   40.1480   22.2410   37.3000 C   0  0  0  0  0  0  0  0  0  0  0  0
   39.7030   22.4930   36.0100 C   0  0  0  0  0  0  0  0  0  0  0  0
   40.5950   22.1490   35.0590 N   0  0  0  0  0  0  0  0  0  0  0  0
   41.8030   21.6190   35.2230 C   0  0  0  0  0  0  0  0  0  0  0  0
   42.2150   21.3830   36.4900 N   0  0  0  0  0  0  0  0  0  0  0  0
   37.9080   23.8980   36.9770 C   0  0  0  0  0  0  0  0  0  0  0  0
   38.3310   23.9880   34.5930 C   0  0  0  0  0  0  0  0  0  0  0  0
   38.2440   25.3690   34.9240 N   0  0  0  0  0  0  0  0  0  0  0  0
   39.4170   25.9800   35.1680 N   0  0  0  0  0  0  0  0  0  0  0  0
   39.2550   27.2560   35.4790 C   0  0  0  0  0  0  0  0  0  0  0  0
   37.9120   27.5420   35.4500 C   0  0  0  0  0  0  0  0  0  0  0  0
   37.3360   26.3380   35.1020 C   0  0  0  0  0  0  0  0  0  0  0  0
   38.1285   21.1382   36.0455 H   0  0  0  0  0  0  0  0  0  0  0  0
   37.6866   20.9882   33.7386 H   0  0  0  0  0  0  0  0  0  0  0  0
   36.7120   22.4426   33.6919 H   0  0  0  0  0  0  0  0  0  0  0  0
   34.7937   21.1703   34.2027 H   0  0  0  0  0  0  0  0  0  0  0  0
   35.7749   19.7000   34.1590 H   0  0  0  0  0  0  0  0  0  0  0  0
   34.5849   20.4961   36.4805 H   0  0  0  0  0  0  0  0  0  0  0  0
   36.1439   19.7793   36.5939 H   0  0  0  0  0  0  0  0  0  0  0  0
   36.3638   22.1737   37.5182 H   0  0  0  0  0  0  0  0  0  0  0  0
   35.5264   22.8837   36.2043 H   0  0  0  0  0  0  0  0  0  0  0  0
   41.7490   21.4904   38.5467 H   0  0  0  0  0  0  0  0  0  0  0  0
   39.5019   22.4814   38.1572 H   0  0  0  0  0  0  0  0  0  0  0  0
   42.4436   21.3812   34.3610 H   0  0  0  0  0  0  0  0  0  0  0  0
   38.2043   23.3866   37.9047 H   0  0  0  0  0  0  0  0  0  0  0  0
   38.3671   24.8972   36.9464 H   0  0  0  0  0  0  0  0  0  0  0  0
   36.8129   23.9966   36.9464 H   0  0  0  0  0  0  0  0  0  0  0  0
   39.2387   23.8410   33.9893 H   0  0  0  0  0  0  0  0  0  0  0  0
   37.3994   23.7465   34.0603 H   0  0  0  0  0  0  0  0  0  0  0  0
   40.0592   27.9668   35.7198 H   0  0  0  0  0  0  0  0  0  0  0  0
   37.4148   28.5015   35.6552 H   0  0  0  0  0  0  0  0  0  0  0  0
   36.2524   26.1899   34.9838 H   0  0  0  0  0  0  0  0  0  0  0  0
  1 14  1  6
  1  9  1  0
  1 13  1  0
  2  1  1  0
  2  6  1  0
  3  4  1  0
  3  2  1  0
  4  5  1  0
  5  6  1  0
  8  7  2  0
  9  8  1  0
 10 11  1  0
 10  9  2  0
 11 12  2  0
 12  7  1  0
 14 15  1  0
 15 19  1  0
 15 16  1  0
 16 17  2  0
 18 17  1  0
 19 18  2  0
  2 20  1  0
  3 21  1  0
  3 22  1  0
  4 23  1  0
  4 24  1  0
  5 25  1  0
  5 26  1  0
  6 27  1  0
  6 28  1  0
  7 29  1  0
  8 30  1  0
 11 31  1  0
 13 32  1  0
 13 33  1  0
 13 34  1  0
 14 35  1  0
 14 36  1  0
 17 37  1  0
 18 38  1  0
 19 39  1  0
M  ISO  8  20  13  21  13  22  13  23  13  24  13  25  13  26  13  27  13
M  ISO  8  28  13  29  14  30  14  31  14  32   8  33   8  34   8  35   8
M  ISO  4  36   8  37  14  38  14  39  14
M  END
>  <minimizedAffinity>  (1) 
-4.53923273

>  <minimizedRMSD>  (1) 
1.57381821

$$$$
