
     RDKit          3D

 37 41  0  0  0  0  0  0  0  0999 V2000
   37.9020   27.2300   35.5090 C   0  0  0  0  0  0  0  0  0  0  0  0
   37.9650   26.0660   34.7100 C   0  0  0  0  0  0  0  0  0  0  0  0
   37.2510   26.0690   33.5240 C   0  0  0  0  0  0  0  0  0  0  0  0
   36.5270   27.1780   33.1820 N   0  0  0  0  0  0  0  0  0  0  0  0
   36.4850   28.2630   33.9550 C   0  0  0  0  0  0  0  0  0  0  0  0
   37.1700   28.2700   35.1010 N   0  0  0  0  0  0  0  0  0  0  0  0
   38.7540   24.9830   35.1830 N   0  0  0  0  0  0  0  0  0  0  0  0
   39.6850   24.3250   34.4470 C   0  0  0  0  0  0  0  0  0  0  0  0
   40.2370   23.3500   35.2340 N   0  0  0  0  0  0  0  0  0  0  0  0
   39.6580   23.4050   36.4330 C   0  0  0  0  0  0  0  0  0  0  0  0
   39.7720   22.7180   37.6150 C   0  0  0  0  0  0  0  0  0  0  0  0
   39.0290   22.9920   38.7270 N   0  0  0  0  0  0  0  0  0  0  0  0
   38.1220   24.0030   38.6700 C   0  0  0  0  0  0  0  0  0  0  0  0
   37.9870   24.6990   37.5220 N   0  0  0  0  0  0  0  0  0  0  0  0
   38.7240   24.4180   36.4340 C   0  0  0  0  0  0  0  0  0  0  0  0
   40.6990   21.6520   37.7320 N   0  0  0  0  0  0  0  0  0  0  0  0
   35.7040   29.4330   33.5640 C   0  0  0  0  0  0  0  0  0  0  0  0
   35.0260   29.5920   32.3520 C   0  0  0  0  0  0  0  0  0  0  0  0
   34.4280   30.8070   32.3790 N   0  0  0  0  0  0  0  0  0  0  0  0
   34.7080   31.3930   33.5410 C   0  0  0  0  0  0  0  0  0  0  0  0
   34.2860   32.6370   33.9510 C   0  0  0  0  0  0  0  0  0  0  0  0
   34.7010   33.0560   35.2170 C   0  0  0  0  0  0  0  0  0  0  0  0
   35.5000   32.2510   36.0170 C   0  0  0  0  0  0  0  0  0  0  0  0
   35.9030   30.9960   35.5580 C   0  0  0  0  0  0  0  0  0  0  0  0
   35.4990   30.5780   34.3120 C   0  0  0  0  0  0  0  0  0  0  0  0
   38.4520   27.2791   36.4603 H   0  0  0  0  0  0  0  0  0  0  0  0
   37.2657   25.1892   32.8639 H   0  0  0  0  0  0  0  0  0  0  0  0
   39.9499   24.5378   33.4008 H   0  0  0  0  0  0  0  0  0  0  0  0
   37.5067   24.2502   39.5476 H   0  0  0  0  0  0  0  0  0  0  0  0
   40.7829   21.1376   38.6204 H   0  0  0  0  0  0  0  0  0  0  0  0
   41.2887   21.3918   36.9286 H   0  0  0  0  0  0  0  0  0  0  0  0
   34.9856   28.8644   31.5280 H   0  0  0  0  0  0  0  0  0  0  0  0
   33.8525   31.2103   31.6260 H   0  0  0  0  0  0  0  0  0  0  0  0
   33.6526   33.2705   33.3127 H   0  0  0  0  0  0  0  0  0  0  0  0
   34.3885   34.0435   35.5874 H   0  0  0  0  0  0  0  0  0  0  0  0
   35.8150   32.6014   37.0109 H   0  0  0  0  0  0  0  0  0  0  0  0
   36.5354   30.3500   36.1847 H   0  0  0  0  0  0  0  0  0  0  0  0
  2  7  1  0
  2  1  2  0
  3  2  1  0
  4  3  2  0
  4  5  1  0
  5  6  2  0
  6  1  1  0
  7 15  1  0
  8  7  1  0
  8  9  2  0
  9 10  1  0
 10 15  2  0
 10 11  1  0
 11 16  1  0
 11 12  2  0
 13 12  1  0
 14 13  2  0
 15 14  1  0
 17  5  1  0
 17 25  1  0
 18 19  1  0
 18 17  2  0
 19 20  1  0
 20 21  1  0
 20 25  2  0
 21 22  2  0
 22 23  1  0
 24 23  2  0
 25 24  1  0
  1 26  1  0
  3 27  1  0
  8 28  1  0
 13 29  1  0
 16 30  1  0
 16 31  1  0
 18 32  1  0
 19 33  1  0
 21 34  1  0
 22 35  1  0
 23 36  1  0
 24 37  1  0
M  ISO  8  26  14  27  14  28  14  29  14  32  14  33   9  34  14  35  14
M  ISO  2  36  14  37  14
M  END
>  <minimizedAffinity>  (1) 
-6.79347134

>  <minimizedRMSD>  (1) 
2.16320109

$$$$
