
     RDKit          3D

 44 46  0  0  1  0  0  0  0  0999 V2000
   38.5940   23.5720   36.3670 C   0  0  2  0  0  0  0  0  0  0  0  0
   37.8190   22.3440   35.9550 C   0  0  0  0  0  0  0  0  0  0  0  0
   37.5890   22.1010   34.5260 C   0  0  0  0  0  0  0  0  0  0  0  0
   36.3800   21.1630   34.5090 C   0  0  0  0  0  0  0  0  0  0  0  0
   36.0750   20.8590   35.9610 C   0  0  0  0  0  0  0  0  0  0  0  0
   36.4330   22.2520   36.5370 C   0  0  0  0  0  0  0  0  0  0  0  0
   41.6700   21.5590   37.3010 C   0  0  0  0  0  0  0  0  0  0  0  0
   40.3430   21.9850   37.2260 C   0  0  0  0  0  0  0  0  0  0  0  0
   39.9950   23.1090   36.4670 C   0  0  0  0  0  0  0  0  0  0  0  0
   41.0610   23.6740   35.8640 N   0  0  0  0  0  0  0  0  0  0  0  0
   42.3280   23.2880   35.9200 C   0  0  0  0  0  0  0  0  0  0  0  0
   42.6290   22.2040   36.6590 N   0  0  0  0  0  0  0  0  0  0  0  0
   38.0710   23.9640   37.7570 C   0  0  0  0  0  0  0  0  0  0  0  0
   38.4450   24.6940   35.4260 C   0  0  0  0  0  0  0  0  0  0  0  0
   37.9900   25.9540   35.8910 N   0  0  0  0  0  0  0  0  0  0  0  0
   39.1230   26.9250   35.7940 C   0  0  0  0  0  0  0  0  0  0  0  0
   39.3190   27.0390   34.3070 C   0  0  0  0  0  0  0  0  0  0  0  0
   37.9020   27.2030   33.8390 C   0  0  0  0  0  0  0  0  0  0  0  0
   37.0660   26.5980   34.9640 C   0  0  0  0  0  0  0  0  0  0  0  0
   38.5297   21.6039   36.3513 H   0  0  0  0  0  0  0  0  0  0  0  0
   37.3645   23.0403   33.9993 H   0  0  0  0  0  0  0  0  0  0  0  0
   38.4671   21.6748   34.0188 H   0  0  0  0  0  0  0  0  0  0  0  0
   35.5198   21.6550   34.0315 H   0  0  0  0  0  0  0  0  0  0  0  0
   36.5862   20.2461   33.9374 H   0  0  0  0  0  0  0  0  0  0  0  0
   35.0185   20.5981   36.1215 H   0  0  0  0  0  0  0  0  0  0  0  0
   36.6014   19.9990   36.4007 H   0  0  0  0  0  0  0  0  0  0  0  0
   36.4374   22.2636   37.6369 H   0  0  0  0  0  0  0  0  0  0  0  0
   35.7437   23.0749   36.2966 H   0  0  0  0  0  0  0  0  0  0  0  0
   41.9216   20.6735   37.9032 H   0  0  0  0  0  0  0  0  0  0  0  0
   39.5624   21.4319   37.7689 H   0  0  0  0  0  0  0  0  0  0  0  0
   43.1112   23.8381   35.3778 H   0  0  0  0  0  0  0  0  0  0  0  0
   38.6971   23.4947   38.5301 H   0  0  0  0  0  0  0  0  0  0  0  0
   38.1093   25.0577   37.8682 H   0  0  0  0  0  0  0  0  0  0  0  0
   37.0320   23.6203   37.8682 H   0  0  0  0  0  0  0  0  0  0  0  0
   39.4329   24.8610   34.9720 H   0  0  0  0  0  0  0  0  0  0  0  0
   37.6332   24.3613   34.7625 H   0  0  0  0  0  0  0  0  0  0  0  0
   38.8549   27.8958   36.2363 H   0  0  0  0  0  0  0  0  0  0  0  0
   40.0259   26.6047   36.3346 H   0  0  0  0  0  0  0  0  0  0  0  0
   39.9334   27.9136   34.0471 H   0  0  0  0  0  0  0  0  0  0  0  0
   39.8487   26.1878   33.8544 H   0  0  0  0  0  0  0  0  0  0  0  0
   37.6575   28.2663   33.6992 H   0  0  0  0  0  0  0  0  0  0  0  0
   37.7189   26.7177   32.8690 H   0  0  0  0  0  0  0  0  0  0  0  0
   36.5028   27.3884   35.4817 H   0  0  0  0  0  0  0  0  0  0  0  0
   36.3434   25.8708   34.5652 H   0  0  0  0  0  0  0  0  0  0  0  0
  1 14  1  6
  1  9  1  0
  1 13  1  0
  2  1  1  0
  2  6  1  0
  3  2  1  0
  4  3  1  0
  4  5  1  0
  5  6  1  0
  8  7  2  0
  9  8  1  0
 10 11  1  0
 10  9  2  0
 11 12  2  0
 12  7  1  0
 14 15  1  0
 16 15  1  0
 17 16  1  0
 18 17  1  0
 18 19  1  0
 19 15  1  0
  2 20  1  0
  3 21  1  0
  3 22  1  0
  4 23  1  0
  4 24  1  0
  5 25  1  0
  5 26  1  0
  6 27  1  0
  6 28  1  0
  7 29  1  0
  8 30  1  0
 11 31  1  0
 13 32  1  0
 13 33  1  0
 13 34  1  0
 14 35  1  0
 14 36  1  0
 16 37  1  0
 16 38  1  0
 17 39  1  0
 17 40  1  0
 18 41  1  0
 18 42  1  0
 19 43  1  0
 19 44  1  0
M  ISO  8  20  13  21  13  22  13  23  13  24  13  25  13  26  13  27  13
M  ISO  8  28  13  29  14  30  14  31  14  32   8  33   8  34   8  35   8
M  ISO  8  36   8  37  13  38  13  39  13  40  13  41  13  42  13  43  13
M  ISO  1  44  13
M  END
>  <minimizedAffinity>  (1) 
-4.53247452

>  <minimizedRMSD>  (1) 
1.02178645

$$$$
