
     RDKit          3D

 39 41  0  0  1  0  0  0  0  0999 V2000
   38.9890   23.0620   35.9360 C   0  0  2  0  0  0  0  0  0  0  0  0
   37.9480   22.0290   35.6910 C   0  0  0  0  0  0  0  0  0  0  0  0
   37.4860   21.8650   34.2940 C   0  0  0  0  0  0  0  0  0  0  0  0
   36.1470   21.1360   34.4500 C   0  0  0  0  0  0  0  0  0  0  0  0
   35.9810   20.9030   35.9380 C   0  0  0  0  0  0  0  0  0  0  0  0
   36.6870   22.1820   36.4670 C   0  0  0  0  0  0  0  0  0  0  0  0
   41.8780   21.2570   37.6050 C   0  0  0  0  0  0  0  0  0  0  0  0
   40.6950   21.9640   37.4110 C   0  0  0  0  0  0  0  0  0  0  0  0
   40.2570   22.3190   36.1310 C   0  0  0  0  0  0  0  0  0  0  0  0
   41.0960   21.9060   35.1520 N   0  0  0  0  0  0  0  0  0  0  0  0
   42.2260   21.2320   35.3240 C   0  0  0  0  0  0  0  0  0  0  0  0
   42.6190   20.9060   36.5680 N   0  0  0  0  0  0  0  0  0  0  0  0
   38.5880   23.7860   37.2580 C   0  0  0  0  0  0  0  0  0  0  0  0
   39.1310   24.1020   34.9160 C   0  0  0  0  0  0  0  0  0  0  0  0
   38.6140   25.4340   35.0950 C   0  0  0  0  0  0  0  0  0  0  0  0
   39.0340   26.6750   35.5930 C   0  0  0  0  0  0  0  0  0  0  0  0
   38.0450   27.6280   35.5040 C   0  0  0  0  0  0  0  0  0  0  0  0
   37.0210   26.9190   34.9360 C   0  0  0  0  0  0  0  0  0  0  0  0
   37.3640   25.6960   34.7170 O   0  0  0  0  0  0  0  0  0  0  0  0
   38.5316   21.1559   36.0183 H   0  0  0  0  0  0  0  0  0  0  0  0
   38.1979   21.2616   33.7116 H   0  0  0  0  0  0  0  0  0  0  0  0
   37.3966   22.8196   33.7548 H   0  0  0  0  0  0  0  0  0  0  0  0
   35.3247   21.7566   34.0644 H   0  0  0  0  0  0  0  0  0  0  0  0
   36.1293   20.1920   33.8857 H   0  0  0  0  0  0  0  0  0  0  0  0
   34.9221   20.8647   36.2335 H   0  0  0  0  0  0  0  0  0  0  0  0
   36.3838   19.9512   36.3147 H   0  0  0  0  0  0  0  0  0  0  0  0
   36.8554   22.1506   37.5536 H   0  0  0  0  0  0  0  0  0  0  0  0
   36.1445   23.1307   36.3418 H   0  0  0  0  0  0  0  0  0  0  0  0
   42.1971   20.9897   38.6232 H   0  0  0  0  0  0  0  0  0  0  0  0
   40.0906   22.2502   38.2844 H   0  0  0  0  0  0  0  0  0  0  0  0
   42.8364   20.9423   34.4559 H   0  0  0  0  0  0  0  0  0  0  0  0
   38.9196   23.1872   38.1191 H   0  0  0  0  0  0  0  0  0  0  0  0
   39.0665   24.7759   37.2936 H   0  0  0  0  0  0  0  0  0  0  0  0
   37.4951   23.9055   37.2936 H   0  0  0  0  0  0  0  0  0  0  0  0
   40.2113   24.2140   34.7416 H   0  0  0  0  0  0  0  0  0  0  0  0
   38.4904   23.7169   34.1090 H   0  0  0  0  0  0  0  0  0  0  0  0
   40.0356   26.8648   36.0061 H   0  0  0  0  0  0  0  0  0  0  0  0
   38.0707   28.6844   35.8097 H   0  0  0  0  0  0  0  0  0  0  0  0
   36.0327   27.3389   34.6972 H   0  0  0  0  0  0  0  0  0  0  0  0
  1 14  1  6
  1  9  1  0
  1 13  1  0
  2  1  1  0
  2  6  1  0
  3  4  1  0
  3  2  1  0
  4  5  1  0
  5  6  1  0
  8  7  2  0
  9  8  1  0
 10 11  1  0
 10  9  2  0
 11 12  2  0
 12  7  1  0
 14 15  1  0
 15 16  2  0
 17 16  1  0
 18 17  2  0
 19 18  1  0
 19 15  1  0
  2 20  1  0
  3 21  1  0
  3 22  1  0
  4 23  1  0
  4 24  1  0
  5 25  1  0
  5 26  1  0
  6 27  1  0
  6 28  1  0
  7 29  1  0
  8 30  1  0
 11 31  1  0
 13 32  1  0
 13 33  1  0
 13 34  1  0
 14 35  1  0
 14 36  1  0
 16 37  1  0
 17 38  1  0
 18 39  1  0
M  ISO  8  20  13  21  13  22  13  23  13  24  13  25  13  26  13  27  13
M  ISO  8  28  13  29  14  30  14  31  14  32   8  33   8  34   8  35   8
M  ISO  4  36   8  37  14  38  14  39  14
M  END
>  <minimizedAffinity>  (1) 
-4.6592598

>  <minimizedRMSD>  (1) 
1.74807501

$$$$
