
     RDKit          3D

 48 50  0  0  1  0  0  0  0  0999 V2000
   38.9670   23.0460   36.0030 C   0  0  2  0  0  0  0  0  0  0  0  0
   37.9220   21.9920   35.7100 C   0  0  0  0  0  0  0  0  0  0  0  0
   37.4590   21.8260   34.3320 C   0  0  0  0  0  0  0  0  0  0  0  0
   36.1130   21.0820   34.5110 C   0  0  0  0  0  0  0  0  0  0  0  0
   35.9570   20.8500   36.0000 C   0  0  0  0  0  0  0  0  0  0  0  0
   36.6320   22.1630   36.4800 C   0  0  0  0  0  0  0  0  0  0  0  0
   41.8870   21.2590   37.6380 C   0  0  0  0  0  0  0  0  0  0  0  0
   40.7080   21.9910   37.4670 C   0  0  0  0  0  0  0  0  0  0  0  0
   40.2090   22.2790   36.2040 C   0  0  0  0  0  0  0  0  0  0  0  0
   40.9920   21.7740   35.2010 N   0  0  0  0  0  0  0  0  0  0  0  0
   42.1100   21.0790   35.3460 C   0  0  0  0  0  0  0  0  0  0  0  0
   42.5610   20.8200   36.5870 N   0  0  0  0  0  0  0  0  0  0  0  0
   38.5430   23.7030   37.3300 C   0  0  0  0  0  0  0  0  0  0  0  0
   39.0800   24.0460   34.9430 C   0  0  0  0  0  0  0  0  0  0  0  0
   40.1130   25.0890   34.9590 C   0  0  0  0  0  0  0  0  0  0  0  0
   39.6560   26.4860   34.9950 C   0  0  0  0  0  0  0  0  0  0  0  0
   40.4300   27.4270   34.1030 C   0  0  0  0  0  0  0  0  0  0  0  0
   41.8430   27.0880   33.8430 C   0  0  0  0  0  0  0  0  0  0  0  0
   42.2460   25.6630   33.9980 C   0  0  0  0  0  0  0  0  0  0  0  0
   41.0170   24.8210   33.7360 C   0  0  0  0  0  0  0  0  0  0  0  0
   38.5218   21.1198   36.0092 H   0  0  0  0  0  0  0  0  0  0  0  0
   38.1691   21.2251   33.7449 H   0  0  0  0  0  0  0  0  0  0  0  0
   37.3626   22.7766   33.7870 H   0  0  0  0  0  0  0  0  0  0  0  0
   35.2835   21.6966   34.1313 H   0  0  0  0  0  0  0  0  0  0  0  0
   36.0999   20.1343   33.9527 H   0  0  0  0  0  0  0  0  0  0  0  0
   34.9023   20.7851   36.3057 H   0  0  0  0  0  0  0  0  0  0  0  0
   36.3768   19.9129   36.3946 H   0  0  0  0  0  0  0  0  0  0  0  0
   36.7899   22.1826   37.5684 H   0  0  0  0  0  0  0  0  0  0  0  0
   36.0748   23.0962   36.3104 H   0  0  0  0  0  0  0  0  0  0  0  0
   42.2565   21.0467   38.6521 H   0  0  0  0  0  0  0  0  0  0  0  0
   40.1632   22.3469   38.3539 H   0  0  0  0  0  0  0  0  0  0  0  0
   42.6616   20.7189   34.4651 H   0  0  0  0  0  0  0  0  0  0  0  0
   38.9266   23.1087   38.1724 H   0  0  0  0  0  0  0  0  0  0  0  0
   38.9545   24.7218   37.3827 H   0  0  0  0  0  0  0  0  0  0  0  0
   37.4452   23.7478   37.3827 H   0  0  0  0  0  0  0  0  0  0  0  0
   39.2233   23.4863   34.0069 H   0  0  0  0  0  0  0  0  0  0  0  0
   38.1601   24.6327   35.0827 H   0  0  0  0  0  0  0  0  0  0  0  0
   40.6426   25.0074   35.9197 H   0  0  0  0  0  0  0  0  0  0  0  0
   38.6011   26.5094   34.6841 H   0  0  0  0  0  0  0  0  0  0  0  0
   39.8117   26.8370   36.0258 H   0  0  0  0  0  0  0  0  0  0  0  0
   39.9133   27.4658   33.1327 H   0  0  0  0  0  0  0  0  0  0  0  0
   40.4593   28.3815   34.6489 H   0  0  0  0  0  0  0  0  0  0  0  0
   42.4575   27.6818   34.5357 H   0  0  0  0  0  0  0  0  0  0  0  0
   41.9930   27.3080   32.7757 H   0  0  0  0  0  0  0  0  0  0  0  0
   43.0355   25.4135   33.2738 H   0  0  0  0  0  0  0  0  0  0  0  0
   42.6403   25.4757   35.0077 H   0  0  0  0  0  0  0  0  0  0  0  0
   40.5196   25.1339   32.8061 H   0  0  0  0  0  0  0  0  0  0  0  0
   41.2536   23.7542   33.6100 H   0  0  0  0  0  0  0  0  0  0  0  0
  1 14  1  6
  1  9  1  0
  1 13  1  0
  2  1  1  0
  2  6  1  0
  3  4  1  0
  3  2  1  0
  4  5  1  0
  5  6  1  0
  8  7  2  0
  9  8  1  0
 10 11  1  0
 10  9  2  0
 11 12  2  0
 12  7  1  0
 14 15  1  0
 15 16  1  0
 17 16  1  0
 18 19  1  0
 18 17  1  0
 20 19  1  0
 20 15  1  0
  2 21  1  0
  3 22  1  0
  3 23  1  0
  4 24  1  0
  4 25  1  0
  5 26  1  0
  5 27  1  0
  6 28  1  0
  6 29  1  0
  7 30  1  0
  8 31  1  0
 11 32  1  0
 13 33  1  0
 13 34  1  0
 13 35  1  0
 14 36  1  0
 14 37  1  0
 15 38  1  0
 16 39  1  0
 16 40  1  0
 17 41  1  0
 17 42  1  0
 18 43  1  0
 18 44  1  0
 19 45  1  0
 19 46  1  0
 20 47  1  0
 20 48  1  0
M  ISO  8  21  13  22  13  23  13  24  13  25  13  26  13  27  13  28  13
M  ISO  8  29  13  30  14  31  14  32  14  33   8  34   8  35   8  36   8
M  ISO  8  37   8  38  13  39  13  40  13  41  13  42  13  43  13  44  13
M  ISO  4  45  13  46  13  47  13  48  13
M  END
>  <minimizedAffinity>  (1) 
-4.41781473

>  <minimizedRMSD>  (1) 
2.1251812

$$$$
