
     RDKit          3D

 46 49  0  0  1  0  0  0  0  0999 V2000
   37.8450   22.4640   34.0620 C   0  0  2  0  0  0  0  0  0  0  0  0
   36.9570   21.4250   33.4160 C   0  0  0  0  0  0  0  0  0  0  0  0
   36.1060   21.8360   32.2990 C   0  0  0  0  0  0  0  0  0  0  0  0
   35.0290   20.7460   32.2410 C   0  0  0  0  0  0  0  0  0  0  0  0
   35.4180   19.7440   33.3110 C   0  0  0  0  0  0  0  0  0  0  0  0
   35.9890   20.7470   34.3370 C   0  0  0  0  0  0  0  0  0  0  0  0
   41.5180   21.6680   34.5080 C   0  0  0  0  0  0  0  0  0  0  0  0
   40.2090   22.0800   34.7760 C   0  0  0  0  0  0  0  0  0  0  0  0
   39.2240   22.0280   33.7720 C   0  0  0  0  0  0  0  0  0  0  0  0
   39.6740   21.5590   32.5880 N   0  0  0  0  0  0  0  0  0  0  0  0
   40.9150   21.1660   32.3230 C   0  0  0  0  0  0  0  0  0  0  0  0
   41.8520   21.2210   33.2980 N   0  0  0  0  0  0  0  0  0  0  0  0
   37.5460   22.3980   35.5740 C   0  0  0  0  0  0  0  0  0  0  0  0
   37.5650   23.8380   33.5960 C   0  0  0  0  0  0  0  0  0  0  0  0
   38.2590   24.9240   34.3210 C   0  0  0  0  0  0  0  0  0  0  0  0
   38.1760   25.5810   35.5280 C   0  0  0  0  0  0  0  0  0  0  0  0
   39.1220   26.5250   35.6600 N   0  0  0  0  0  0  0  0  0  0  0  0
   39.8310   26.4860   34.5330 C   0  0  0  0  0  0  0  0  0  0  0  0
   40.9100   27.2850   34.2250 C   0  0  0  0  0  0  0  0  0  0  0  0
   41.5710   27.1590   33.0220 C   0  0  0  0  0  0  0  0  0  0  0  0
   41.0940   26.1890   32.1450 C   0  0  0  0  0  0  0  0  0  0  0  0
   40.0110   25.4020   32.4730 C   0  0  0  0  0  0  0  0  0  0  0  0
   39.3490   25.5310   33.6820 C   0  0  0  0  0  0  0  0  0  0  0  0
   37.7684   20.7715   33.0630 H   0  0  0  0  0  0  0  0  0  0  0  0
   35.6565   22.8215   32.4905 H   0  0  0  0  0  0  0  0  0  0  0  0
   36.6615   21.9365   31.3549 H   0  0  0  0  0  0  0  0  0  0  0  0
   34.0374   21.1720   32.4539 H   0  0  0  0  0  0  0  0  0  0  0  0
   34.9680   20.2813   31.2458 H   0  0  0  0  0  0  0  0  0  0  0  0
   34.5501   19.1936   33.7032 H   0  0  0  0  0  0  0  0  0  0  0  0
   36.0932   18.9348   32.9958 H   0  0  0  0  0  0  0  0  0  0  0  0
   36.4899   20.2473   35.1792 H   0  0  0  0  0  0  0  0  0  0  0  0
   35.2613   21.3948   34.8477 H   0  0  0  0  0  0  0  0  0  0  0  0
   42.2778   21.7132   35.3021 H   0  0  0  0  0  0  0  0  0  0  0  0
   39.9470   22.4476   35.7791 H   0  0  0  0  0  0  0  0  0  0  0  0
   41.1787   20.7992   31.3201 H   0  0  0  0  0  0  0  0  0  0  0  0
   38.4675   22.6014   36.1392 H   0  0  0  0  0  0  0  0  0  0  0  0
   36.7851   23.1498   35.8305 H   0  0  0  0  0  0  0  0  0  0  0  0
   37.1722   21.3957   35.8305 H   0  0  0  0  0  0  0  0  0  0  0  0
   37.8572   23.9001   32.5374 H   0  0  0  0  0  0  0  0  0  0  0  0
   36.4922   23.9993   33.7779 H   0  0  0  0  0  0  0  0  0  0  0  0
   37.4211   25.3582   36.2964 H   0  0  0  0  0  0  0  0  0  0  0  0
   39.2689   27.1497   36.4657 H   0  0  0  0  0  0  0  0  0  0  0  0
   41.2502   28.0371   34.9521 H   0  0  0  0  0  0  0  0  0  0  0  0
   42.4328   27.7936   32.7676 H   0  0  0  0  0  0  0  0  0  0  0  0
   41.5900   26.0481   31.1733 H   0  0  0  0  0  0  0  0  0  0  0  0
   39.6620   24.6482   31.7519 H   0  0  0  0  0  0  0  0  0  0  0  0
  1 14  1  6
  1 13  1  0
  2  1  1  0
  2  6  1  0
  3  2  1  0
  4  3  1  0
  4  5  1  0
  5  6  1  0
  7  8  2  0
  9  1  1  0
  9  8  1  0
 10  9  2  0
 11 10  1  0
 11 12  2  0
 12  7  1  0
 14 15  1  0
 15 16  2  0
 16 17  1  0
 18 17  1  0
 19 18  2  0
 20 19  1  0
 21 22  1  0
 21 20  2  0
 22 23  2  0
 23 15  1  0
 23 18  1  0
  2 24  1  0
  3 25  1  0
  3 26  1  0
  4 27  1  0
  4 28  1  0
  5 29  1  0
  5 30  1  0
  6 31  1  0
  6 32  1  0
  7 33  1  0
  8 34  1  0
 11 35  1  0
 13 36  1  0
 13 37  1  0
 13 38  1  0
 14 39  1  0
 14 40  1  0
 16 41  1  0
 17 42  1  0
 19 43  1  0
 20 44  1  0
 21 45  1  0
 22 46  1  0
M  ISO  8  24  13  25  13  26  13  27  13  28  13  29  13  30  13  31  13
M  ISO  8  32  13  33  14  34  14  35  14  36   8  37   8  38   8  39   8
M  ISO  7  40   8  41  14  42   9  43  14  44  14  45  14  46  14
M  END
>  <minimizedAffinity>  (1) 
-4.28911495

>  <minimizedRMSD>  (1) 
4.20764303

$$$$
