
     RDKit          3D

 41 43  0  0  1  0  0  0  0  0999 V2000
   38.6220   23.0820   35.9470 C   0  0  2  0  0  0  0  0  0  0  0  0
   37.6160   21.9840   35.7580 C   0  0  0  0  0  0  0  0  0  0  0  0
   37.1340   21.7460   34.3760 C   0  0  0  0  0  0  0  0  0  0  0  0
   35.8880   20.8660   34.6300 C   0  0  0  0  0  0  0  0  0  0  0  0
   35.7180   20.7820   36.1330 C   0  0  0  0  0  0  0  0  0  0  0  0
   36.3500   22.1370   36.5220 C   0  0  0  0  0  0  0  0  0  0  0  0
   41.6670   21.4460   37.4710 C   0  0  0  0  0  0  0  0  0  0  0  0
   40.4290   22.0760   37.3400 C   0  0  0  0  0  0  0  0  0  0  0  0
   39.9260   22.4180   36.0910 C   0  0  0  0  0  0  0  0  0  0  0  0
   40.7480   22.0840   35.0430 N   0  0  0  0  0  0  0  0  0  0  0  0
   41.9280   21.4850   35.1710 C   0  0  0  0  0  0  0  0  0  0  0  0
   42.3880   21.1640   36.3920 N   0  0  0  0  0  0  0  0  0  0  0  0
   38.2410   23.8090   37.2580 C   0  0  0  0  0  0  0  0  0  0  0  0
   38.6400   24.1160   34.9080 C   0  0  0  0  0  0  0  0  0  0  0  0
   37.9760   25.6630   35.5960 S   0  0  0  0  0  0  0  0  0  0  0  0
   37.1640   26.6450   34.3310 C   0  0  0  0  0  0  0  0  0  0  0  0
   36.6830   27.9100   34.5490 C   0  0  0  0  0  0  0  0  0  0  0  0
   36.0680   28.6310   33.5550 C   0  0  0  0  0  0  0  0  0  0  0  0
   35.9480   28.0470   32.3400 N   0  0  0  0  0  0  0  0  0  0  0  0
   36.4160   26.8090   32.1200 C   0  0  0  0  0  0  0  0  0  0  0  0
   37.0180   26.1110   33.1000 N   0  0  0  0  0  0  0  0  0  0  0  0
   38.2405   21.1532   36.1182 H   0  0  0  0  0  0  0  0  0  0  0  0
   37.8857   21.2138   33.7745 H   0  0  0  0  0  0  0  0  0  0  0  0
   36.9251   22.6656   33.8097 H   0  0  0  0  0  0  0  0  0  0  0  0
   34.9992   21.3250   34.1724 H   0  0  0  0  0  0  0  0  0  0  0  0
   36.0109   19.8664   34.1877 H   0  0  0  0  0  0  0  0  0  0  0  0
   34.6595   20.7211   36.4259 H   0  0  0  0  0  0  0  0  0  0  0  0
   36.1630   19.8970   36.6113 H   0  0  0  0  0  0  0  0  0  0  0  0
   36.5219   22.2239   37.6050 H   0  0  0  0  0  0  0  0  0  0  0  0
   35.7533   23.0350   36.3039 H   0  0  0  0  0  0  0  0  0  0  0  0
   42.0463   21.1825   38.4694 H   0  0  0  0  0  0  0  0  0  0  0  0
   39.8413   22.3058   38.2410 H   0  0  0  0  0  0  0  0  0  0  0  0
   42.5271   21.2524   34.2783 H   0  0  0  0  0  0  0  0  0  0  0  0
   38.5587   23.2028   38.1191 H   0  0  0  0  0  0  0  0  0  0  0  0
   38.7422   24.7875   37.2936 H   0  0  0  0  0  0  0  0  0  0  0  0
   37.1511   23.9537   37.2936 H   0  0  0  0  0  0  0  0  0  0  0  0
   39.6733   24.2780   34.5675 H   0  0  0  0  0  0  0  0  0  0  0  0
   38.0236   23.7951   34.0553 H   0  0  0  0  0  0  0  0  0  0  0  0
   36.7926   28.3597   35.5469 H   0  0  0  0  0  0  0  0  0  0  0  0
   35.6868   29.6462   33.7396 H   0  0  0  0  0  0  0  0  0  0  0  0
   36.3058   26.3577   31.1229 H   0  0  0  0  0  0  0  0  0  0  0  0
  1 14  1  6
  1  9  1  0
  1 13  1  0
  2  1  1  0
  2  6  1  0
  3  4  1  0
  3  2  1  0
  4  5  1  0
  5  6  1  0
  8  7  2  0
  9  8  1  0
 10 11  1  0
 10  9  2  0
 11 12  2  0
 12  7  1  0
 14 15  1  0
 16 17  2  0
 16 15  1  0
 18 17  1  0
 19 18  2  0
 20 19  1  0
 20 21  2  0
 21 16  1  0
  2 22  1  0
  3 23  1  0
  3 24  1  0
  4 25  1  0
  4 26  1  0
  5 27  1  0
  5 28  1  0
  6 29  1  0
  6 30  1  0
  7 31  1  0
  8 32  1  0
 11 33  1  0
 13 34  1  0
 13 35  1  0
 13 36  1  0
 14 37  1  0
 14 38  1  0
 17 39  1  0
 18 40  1  0
 20 41  1  0
M  ISO  8  22  13  23  13  24  13  25  13  26  13  27  13  28  13  29  13
M  ISO  8  30  13  31  14  32  14  33  14  34   8  35   8  36   8  37   8
M  ISO  4  38   8  39  14  40  14  41  14
M  END
>  <minimizedAffinity>  (1) 
-4.79029036

>  <minimizedRMSD>  (1) 
1.05556798

$$$$
