
     RDKit          3D

 49 52  0  0  1  0  0  0  0  0999 V2000
   38.6610   23.0900   35.5960 C   0  0  2  0  0  0  0  0  0  0  0  0
   37.6330   21.9840   35.6060 C   0  0  0  0  0  0  0  0  0  0  0  0
   36.9990   21.6760   34.2850 C   0  0  0  0  0  0  0  0  0  0  0  0
   35.8030   20.8050   34.7200 C   0  0  0  0  0  0  0  0  0  0  0  0
   35.7710   20.8450   36.2280 C   0  0  0  0  0  0  0  0  0  0  0  0
   36.4330   22.2240   36.4510 C   0  0  0  0  0  0  0  0  0  0  0  0
   41.4980   21.5690   37.5680 C   0  0  0  0  0  0  0  0  0  0  0  0
   40.2850   22.1810   37.2410 C   0  0  0  0  0  0  0  0  0  0  0  0
   39.9380   22.4430   35.9240 C   0  0  0  0  0  0  0  0  0  0  0  0
   40.8730   22.0530   35.0150 N   0  0  0  0  0  0  0  0  0  0  0  0
   42.0330   21.4680   35.3240 C   0  0  0  0  0  0  0  0  0  0  0  0
   42.3460   21.2250   36.6070 N   0  0  0  0  0  0  0  0  0  0  0  0
   38.2360   24.0760   36.7090 C   0  0  0  0  0  0  0  0  0  0  0  0
   38.7460   23.8860   34.3540 C   0  0  0  0  0  0  0  0  0  0  0  0
   38.0030   25.5140   34.6580 S   0  0  0  0  0  0  0  0  0  0  0  0
   37.8380   26.4240   33.1180 C   0  0  0  0  0  0  0  0  0  0  0  0
   38.3780   26.0380   31.9080 C   0  0  0  0  0  0  0  0  0  0  0  0
   38.1960   26.8050   30.7770 C   0  0  0  0  0  0  0  0  0  0  0  0
   37.4610   27.9740   30.8690 C   0  0  0  0  0  0  0  0  0  0  0  0
   36.9220   28.3640   32.0620 C   0  0  0  0  0  0  0  0  0  0  0  0
   36.1810   29.5450   32.1520 C   0  0  0  0  0  0  0  0  0  0  0  0
   35.6150   29.9820   33.3350 C   0  0  0  0  0  0  0  0  0  0  0  0
   35.8050   29.1980   34.4770 C   0  0  0  0  0  0  0  0  0  0  0  0
   36.5370   28.0310   34.3910 C   0  0  0  0  0  0  0  0  0  0  0  0
   37.0960   27.6050   33.2060 C   0  0  0  0  0  0  0  0  0  0  0  0
   38.2780   21.1764   35.9824 H   0  0  0  0  0  0  0  0  0  0  0  0
   37.6848   21.1198   33.6291 H   0  0  0  0  0  0  0  0  0  0  0  0
   36.7199   22.5653   33.7008 H   0  0  0  0  0  0  0  0  0  0  0  0
   34.8672   21.2116   34.3090 H   0  0  0  0  0  0  0  0  0  0  0  0
   35.9064   19.7738   34.3512 H   0  0  0  0  0  0  0  0  0  0  0  0
   34.7434   20.8133   36.6192 H   0  0  0  0  0  0  0  0  0  0  0  0
   36.2609   19.9993   36.7329 H   0  0  0  0  0  0  0  0  0  0  0  0
   36.6892   22.4028   37.5057 H   0  0  0  0  0  0  0  0  0  0  0  0
   35.8260   23.1082   36.2065 H   0  0  0  0  0  0  0  0  0  0  0  0
   41.7496   21.3727   38.6207 H   0  0  0  0  0  0  0  0  0  0  0  0
   39.5899   22.4612   38.0461 H   0  0  0  0  0  0  0  0  0  0  0  0
   42.7341   21.1844   34.5252 H   0  0  0  0  0  0  0  0  0  0  0  0
   38.4307   23.6243   37.6929 H   0  0  0  0  0  0  0  0  0  0  0  0
   38.8123   25.0080   36.6129 H   0  0  0  0  0  0  0  0  0  0  0  0
   37.1627   24.2970   36.6129 H   0  0  0  0  0  0  0  0  0  0  0  0
   39.7999   24.0080   34.0634 H   0  0  0  0  0  0  0  0  0  0  0  0
   38.2096   23.3737   33.5417 H   0  0  0  0  0  0  0  0  0  0  0  0
   38.9607   25.1071   31.8453 H   0  0  0  0  0  0  0  0  0  0  0  0
   38.6288   26.4923   29.8153 H   0  0  0  0  0  0  0  0  0  0  0  0
   37.3095   28.5946   29.9735 H   0  0  0  0  0  0  0  0  0  0  0  0
   36.0424   30.1516   31.2449 H   0  0  0  0  0  0  0  0  0  0  0  0
   35.0345   30.9154   33.3766 H   0  0  0  0  0  0  0  0  0  0  0  0
   35.3731   29.5098   35.4394 H   0  0  0  0  0  0  0  0  0  0  0  0
   36.6784   27.4224   35.2963 H   0  0  0  0  0  0  0  0  0  0  0  0
  1 14  1  6
  1  2  1  0
  1  9  1  0
  1 13  1  0
  2  6  1  0
  3  4  1  0
  3  2  1  0
  4  5  1  0
  5  6  1  0
  8  7  2  0
  9  8  1  0
 10 11  1  0
 10  9  2  0
 11 12  2  0
 12  7  1  0
 14 15  1  0
 16 25  1  0
 16 15  1  0
 17 16  2  0
 18 19  2  0
 18 17  1  0
 19 20  1  0
 20 21  1  0
 20 25  2  0
 21 22  2  0
 22 23  1  0
 24 23  2  0
 25 24  1  0
  2 26  1  0
  3 27  1  0
  3 28  1  0
  4 29  1  0
  4 30  1  0
  5 31  1  0
  5 32  1  0
  6 33  1  0
  6 34  1  0
  7 35  1  0
  8 36  1  0
 11 37  1  0
 13 38  1  0
 13 39  1  0
 13 40  1  0
 14 41  1  0
 14 42  1  0
 17 43  1  0
 18 44  1  0
 19 45  1  0
 21 46  1  0
 22 47  1  0
 23 48  1  0
 24 49  1  0
M  ISO  8  26  13  27  13  28  13  29  13  30  13  31  13  32  13  33  13
M  ISO  8  34  13  35  14  36  14  37  14  38   8  39   8  40   8  41   8
M  ISO  8  42   8  43  14  44  14  45  14  46  14  47  14  48  14  49  14
M  END
>  <minimizedAffinity>  (1) 
-5.58759785

>  <minimizedRMSD>  (1) 
1.77604103

$$$$
