
     RDKit          3D

 49 51  0  0  1  0  0  0  0  0999 V2000
   38.9960   22.8710   36.2590 C   0  0  2  0  0  0  0  0  0  0  0  0
   38.0030   21.8910   35.7210 C   0  0  0  0  0  0  0  0  0  0  0  0
   37.6100   22.1070   34.2910 C   0  0  0  0  0  0  0  0  0  0  0  0
   36.3570   21.2010   34.1910 C   0  0  0  0  0  0  0  0  0  0  0  0
   36.0340   20.7520   35.6020 C   0  0  0  0  0  0  0  0  0  0  0  0
   36.6610   21.9100   36.3870 C   0  0  0  0  0  0  0  0  0  0  0  0
   42.1210   21.0550   37.3900 C   0  0  0  0  0  0  0  0  0  0  0  0
   40.9030   21.7280   37.4170 C   0  0  0  0  0  0  0  0  0  0  0  0
   40.2900   22.1560   36.2490 C   0  0  0  0  0  0  0  0  0  0  0  0
   40.9900   21.8540   35.1040 N   0  0  0  0  0  0  0  0  0  0  0  0
   42.1550   21.2100   35.0760 C   0  0  0  0  0  0  0  0  0  0  0  0
   42.7260   20.8080   36.2170 N   0  0  0  0  0  0  0  0  0  0  0  0
   38.5750   23.1690   37.7330 C   0  0  0  0  0  0  0  0  0  0  0  0
   39.0890   24.1740   35.5920 C   0  0  0  0  0  0  0  0  0  0  0  0
   37.9720   25.3410   36.4460 S   0  0  0  0  0  0  0  0  0  0  0  0
   37.4070   26.5490   35.1950 C   0  0  0  0  0  0  0  0  0  0  0  0
   37.3840   25.9100   33.8190 C   0  0  0  0  0  0  0  0  0  0  0  0
   38.0420   26.8370   32.8280 C   0  0  0  0  0  0  0  0  0  0  0  0
   39.4730   27.1420   33.1570 C   0  0  0  0  0  0  0  0  0  0  0  0
   39.6910   27.1610   34.6520 C   0  0  0  0  0  0  0  0  0  0  0  0
   38.3870   27.7100   35.2450 C   0  0  0  0  0  0  0  0  0  0  0  0
   38.5675   20.9626   35.8923 H   0  0  0  0  0  0  0  0  0  0  0  0
   37.3637   23.1608   34.0941 H   0  0  0  0  0  0  0  0  0  0  0  0
   38.3998   21.8720   33.5623 H   0  0  0  0  0  0  0  0  0  0  0  0
   35.5125   21.7662   33.7698 H   0  0  0  0  0  0  0  0  0  0  0  0
   36.5419   20.3392   33.5329 H   0  0  0  0  0  0  0  0  0  0  0  0
   34.9495   20.6811   35.7717 H   0  0  0  0  0  0  0  0  0  0  0  0
   36.4029   19.7510   35.8704 H   0  0  0  0  0  0  0  0  0  0  0  0
   36.7250   21.6995   37.4648 H   0  0  0  0  0  0  0  0  0  0  0  0
   36.1179   22.8663   36.3638 H   0  0  0  0  0  0  0  0  0  0  0  0
   42.5881   20.7254   38.3298 H   0  0  0  0  0  0  0  0  0  0  0  0
   40.4169   21.9243   38.3841 H   0  0  0  0  0  0  0  0  0  0  0  0
   42.6484   21.0083   34.1138 H   0  0  0  0  0  0  0  0  0  0  0  0
   39.2751   22.6734   38.4216 H   0  0  0  0  0  0  0  0  0  0  0  0
   38.5956   24.2548   37.9078 H   0  0  0  0  0  0  0  0  0  0  0  0
   37.5578   22.7887   37.9078 H   0  0  0  0  0  0  0  0  0  0  0  0
   40.1234   24.5447   35.6437 H   0  0  0  0  0  0  0  0  0  0  0  0
   38.7993   24.0788   34.5351 H   0  0  0  0  0  0  0  0  0  0  0  0
   36.3838   26.8957   35.4019 H   0  0  0  0  0  0  0  0  0  0  0  0
   37.9300   24.9555   33.8479 H   0  0  0  0  0  0  0  0  0  0  0  0
   36.3429   25.7253   33.5158 H   0  0  0  0  0  0  0  0  0  0  0  0
   37.4797   27.7822   32.8082 H   0  0  0  0  0  0  0  0  0  0  0  0
   38.0344   26.3281   31.8528 H   0  0  0  0  0  0  0  0  0  0  0  0
   40.1175   26.3714   32.7090 H   0  0  0  0  0  0  0  0  0  0  0  0
   39.7223   28.1343   32.7531 H   0  0  0  0  0  0  0  0  0  0  0  0
   39.8864   26.1450   35.0257 H   0  0  0  0  0  0  0  0  0  0  0  0
   40.5592   27.7758   34.9318 H   0  0  0  0  0  0  0  0  0  0  0  0
   38.0159   28.5542   34.6454 H   0  0  0  0  0  0  0  0  0  0  0  0
   38.5272   28.0860   36.2692 H   0  0  0  0  0  0  0  0  0  0  0  0
  1 14  1  6
  1 13  1  0
  2  1  1  0
  2  6  1  0
  3  2  1  0
  4  3  1  0
  4  5  1  0
  5  6  1  0
  7  8  2  0
  9  1  1  0
  9  8  1  0
 10  9  2  0
 11 10  1  0
 11 12  2  0
 12  7  1  0
 14 15  1  0
 16 21  1  0
 16 15  1  0
 17 16  1  0
 18 19  1  0
 18 17  1  0
 19 20  1  0
 20 21  1  0
  2 22  1  0
  3 23  1  0
  3 24  1  0
  4 25  1  0
  4 26  1  0
  5 27  1  0
  5 28  1  0
  6 29  1  0
  6 30  1  0
  7 31  1  0
  8 32  1  0
 11 33  1  0
 13 34  1  0
 13 35  1  0
 13 36  1  0
 14 37  1  0
 14 38  1  0
 16 39  1  0
 17 40  1  0
 17 41  1  0
 18 42  1  0
 18 43  1  0
 19 44  1  0
 19 45  1  0
 20 46  1  0
 20 47  1  0
 21 48  1  0
 21 49  1  0
M  ISO  8  22  13  23  13  24  13  25  13  26  13  27  13  28  13  29  13
M  ISO  8  30  13  31  14  32  14  33  14  34   8  35   8  36   8  37   8
M  ISO  8  38   8  39  13  40  13  41  13  42  13  43  13  44  13  45  13
M  ISO  4  46  13  47  13  48  13  49  13
M  END
>  <minimizedAffinity>  (1) 
-4.73802185

>  <minimizedRMSD>  (1) 
0.758274019

$$$$
