
     RDKit          3D

 46 48  0  0  1  0  0  0  0  0999 V2000
   38.8910   23.0190   36.2480 C   0  0  2  0  0  0  0  0  0  0  0  0
   37.8770   21.9810   35.8850 C   0  0  0  0  0  0  0  0  0  0  0  0
   37.4570   21.9410   34.4540 C   0  0  0  0  0  0  0  0  0  0  0  0
   36.1740   21.0850   34.5300 C   0  0  0  0  0  0  0  0  0  0  0  0
   35.9050   20.8530   35.9960 C   0  0  0  0  0  0  0  0  0  0  0  0
   36.5540   22.1170   36.5680 C   0  0  0  0  0  0  0  0  0  0  0  0
   41.9880   21.2170   37.4620 C   0  0  0  0  0  0  0  0  0  0  0  0
   40.7630   21.8900   37.4510 C   0  0  0  0  0  0  0  0  0  0  0  0
   40.1830   22.3080   36.2610 C   0  0  0  0  0  0  0  0  0  0  0  0
   40.9170   22.0010   35.1430 N   0  0  0  0  0  0  0  0  0  0  0  0
   42.0810   21.3630   35.1510 C   0  0  0  0  0  0  0  0  0  0  0  0
   42.6270   20.9650   36.3050 N   0  0  0  0  0  0  0  0  0  0  0  0
   38.5340   23.5020   37.6760 C   0  0  0  0  0  0  0  0  0  0  0  0
   38.9400   24.2260   35.4060 C   0  0  0  0  0  0  0  0  0  0  0  0
   38.1390   25.5820   36.3000 S   0  0  0  0  0  0  0  0  0  0  0  0
   38.5540   27.1940   35.6070 C   0  0  0  0  0  0  0  0  0  0  0  0
   37.3050   27.7160   34.9310 C   0  0  0  0  0  0  0  0  0  0  0  0
   37.3230   26.9720   33.6140 C   0  0  0  0  0  0  0  0  0  0  0  0
   38.7830   27.1900   33.1960 C   0  0  0  0  0  0  0  0  0  0  0  0
   39.5390   26.9760   34.4780 C   0  0  0  0  0  0  0  0  0  0  0  0
   38.4496   21.0924   36.1894 H   0  0  0  0  0  0  0  0  0  0  0  0
   38.2218   21.4627   33.8245 H   0  0  0  0  0  0  0  0  0  0  0  0
   37.3065   22.9335   34.0042 H   0  0  0  0  0  0  0  0  0  0  0  0
   35.3312   21.6204   34.0683 H   0  0  0  0  0  0  0  0  0  0  0  0
   36.2958   20.1340   33.9908 H   0  0  0  0  0  0  0  0  0  0  0  0
   34.8279   20.8085   36.2147 H   0  0  0  0  0  0  0  0  0  0  0  0
   36.2865   19.9037   36.4002 H   0  0  0  0  0  0  0  0  0  0  0  0
   36.6427   22.0833   37.6639 H   0  0  0  0  0  0  0  0  0  0  0  0
   36.0139   23.0609   36.4025 H   0  0  0  0  0  0  0  0  0  0  0  0
   42.4295   20.8935   38.4162 H   0  0  0  0  0  0  0  0  0  0  0  0
   40.2492   22.0921   38.4024 H   0  0  0  0  0  0  0  0  0  0  0  0
   42.5997   21.1604   34.2024 H   0  0  0  0  0  0  0  0  0  0  0  0
   39.0177   22.8475   38.4161 H   0  0  0  0  0  0  0  0  0  0  0  0
   38.8877   24.5346   37.8129 H   0  0  0  0  0  0  0  0  0  0  0  0
   37.4431   23.4669   37.8129 H   0  0  0  0  0  0  0  0  0  0  0  0
   39.9870   24.4885   35.1940 H   0  0  0  0  0  0  0  0  0  0  0  0
   38.4205   24.0431   34.4538 H   0  0  0  0  0  0  0  0  0  0  0  0
   38.9452   27.8633   36.3874 H   0  0  0  0  0  0  0  0  0  0  0  0
   36.4044   27.4737   35.5142 H   0  0  0  0  0  0  0  0  0  0  0  0
   37.2857   28.8103   34.8209 H   0  0  0  0  0  0  0  0  0  0  0  0
   37.0926   25.9046   33.7464 H   0  0  0  0  0  0  0  0  0  0  0  0
   36.5780   27.3152   32.8810 H   0  0  0  0  0  0  0  0  0  0  0  0
   39.0880   26.4608   32.4310 H   0  0  0  0  0  0  0  0  0  0  0  0
   38.9620   28.1785   32.7477 H   0  0  0  0  0  0  0  0  0  0  0  0
   39.9382   25.9517   34.5160 H   0  0  0  0  0  0  0  0  0  0  0  0
   40.3892   27.6696   34.5559 H   0  0  0  0  0  0  0  0  0  0  0  0
  1 14  1  6
  1  9  1  0
  1 13  1  0
  2  1  1  0
  2  6  1  0
  3  4  1  0
  3  2  1  0
  4  5  1  0
  5  6  1  0
  8  7  2  0
  9  8  1  0
 10 11  1  0
 10  9  2  0
 11 12  2  0
 12  7  1  0
 14 15  1  0
 16 15  1  0
 17 16  1  0
 18 17  1  0
 19 18  1  0
 19 20  1  0
 20 16  1  0
  2 21  1  0
  3 22  1  0
  3 23  1  0
  4 24  1  0
  4 25  1  0
  5 26  1  0
  5 27  1  0
  6 28  1  0
  6 29  1  0
  7 30  1  0
  8 31  1  0
 11 32  1  0
 13 33  1  0
 13 34  1  0
 13 35  1  0
 14 36  1  0
 14 37  1  0
 16 38  1  0
 17 39  1  0
 17 40  1  0
 18 41  1  0
 18 42  1  0
 19 43  1  0
 19 44  1  0
 20 45  1  0
 20 46  1  0
M  ISO  8  21  13  22  13  23  13  24  13  25  13  26  13  27  13  28  13
M  ISO  8  29  13  30  14  31  14  32  14  33   8  34   8  35   8  36   8
M  ISO  8  37   8  38  13  39  13  40  13  41  13  42  13  43  13  44  13
M  ISO  2  45  13  46  13
M  END
>  <minimizedAffinity>  (1) 
-4.88230133

>  <minimizedRMSD>  (1) 
1.09788132

$$$$
