
     RDKit          3D

 41 43  0  0  1  0  0  0  0  0999 V2000
   38.8530   23.0600   36.0850 C   0  0  2  0  0  0  0  0  0  0  0  0
   37.8240   22.0010   35.7640 C   0  0  0  0  0  0  0  0  0  0  0  0
   37.3880   21.9330   34.3270 C   0  0  0  0  0  0  0  0  0  0  0  0
   36.1260   21.0520   34.4420 C   0  0  0  0  0  0  0  0  0  0  0  0
   35.8830   20.8420   35.9360 C   0  0  0  0  0  0  0  0  0  0  0  0
   36.5190   22.1370   36.4730 C   0  0  0  0  0  0  0  0  0  0  0  0
   41.9030   21.2860   37.4280 C   0  0  0  0  0  0  0  0  0  0  0  0
   40.6760   21.9540   37.3770 C   0  0  0  0  0  0  0  0  0  0  0  0
   40.1390   22.3560   36.1650 C   0  0  0  0  0  0  0  0  0  0  0  0
   40.9020   22.0420   35.0660 N   0  0  0  0  0  0  0  0  0  0  0  0
   42.0700   21.4080   35.1210 C   0  0  0  0  0  0  0  0  0  0  0  0
   42.5770   21.0260   36.2940 N   0  0  0  0  0  0  0  0  0  0  0  0
   38.4780   23.6390   37.4720 C   0  0  0  0  0  0  0  0  0  0  0  0
   38.8870   24.1980   35.1730 C   0  0  0  0  0  0  0  0  0  0  0  0
   38.1310   25.6470   35.9890 S   0  0  0  0  0  0  0  0  0  0  0  0
   37.3140   26.5800   34.6730 C   0  0  0  0  0  0  0  0  0  0  0  0
   37.2810   25.8740   33.4570 C   0  0  0  0  0  0  0  0  0  0  0  0
   36.6880   26.5090   32.3780 C   0  0  0  0  0  0  0  0  0  0  0  0
   36.1920   27.7310   32.5310 N   0  0  0  0  0  0  0  0  0  0  0  0
   36.2190   28.3960   33.6690 C   0  0  0  0  0  0  0  0  0  0  0  0
   36.7840   27.8170   34.7470 N   0  0  0  0  0  0  0  0  0  0  0  0
   38.3969   21.1172   36.0813 H   0  0  0  0  0  0  0  0  0  0  0  0
   38.1540   21.4604   33.6946 H   0  0  0  0  0  0  0  0  0  0  0  0
   37.2148   22.9135   33.8594 H   0  0  0  0  0  0  0  0  0  0  0  0
   35.2643   21.5595   33.9838 H   0  0  0  0  0  0  0  0  0  0  0  0
   36.2596   20.0928   33.9204 H   0  0  0  0  0  0  0  0  0  0  0  0
   34.8108   20.7805   36.1740 H   0  0  0  0  0  0  0  0  0  0  0  0
   36.2900   19.9090   36.3530 H   0  0  0  0  0  0  0  0  0  0  0  0
   36.6310   22.1293   37.5673 H   0  0  0  0  0  0  0  0  0  0  0  0
   35.9597   23.0690   36.3038 H   0  0  0  0  0  0  0  0  0  0  0  0
   42.3177   20.9726   38.3974 H   0  0  0  0  0  0  0  0  0  0  0  0
   40.1310   22.1627   38.3094 H   0  0  0  0  0  0  0  0  0  0  0  0
   42.6215   21.1973   34.1928 H   0  0  0  0  0  0  0  0  0  0  0  0
   38.8940   22.9967   38.2621 H   0  0  0  0  0  0  0  0  0  0  0  0
   38.8907   24.6540   37.5694 H   0  0  0  0  0  0  0  0  0  0  0  0
   37.3830   23.6775   37.5694 H   0  0  0  0  0  0  0  0  0  0  0  0
   39.9302   24.4271   34.9097 H   0  0  0  0  0  0  0  0  0  0  0  0
   38.3257   23.9549   34.2588 H   0  0  0  0  0  0  0  0  0  0  0  0
   37.7066   24.8637   33.3669 H   0  0  0  0  0  0  0  0  0  0  0  0
   36.6286   26.0048   31.4022 H   0  0  0  0  0  0  0  0  0  0  0  0
   35.7880   29.4057   33.7375 H   0  0  0  0  0  0  0  0  0  0  0  0
  1 14  1  6
  1  9  1  0
  1 13  1  0
  2  1  1  0
  2  6  1  0
  3  4  1  0
  3  2  1  0
  4  5  1  0
  5  6  1  0
  8  7  2  0
  9  8  1  0
 10 11  1  0
 10  9  2  0
 11 12  2  0
 12  7  1  0
 14 15  1  0
 16 21  1  0
 16 15  1  0
 17 16  2  0
 18 19  2  0
 18 17  1  0
 19 20  1  0
 20 21  2  0
  2 22  1  0
  3 23  1  0
  3 24  1  0
  4 25  1  0
  4 26  1  0
  5 27  1  0
  5 28  1  0
  6 29  1  0
  6 30  1  0
  7 31  1  0
  8 32  1  0
 11 33  1  0
 13 34  1  0
 13 35  1  0
 13 36  1  0
 14 37  1  0
 14 38  1  0
 17 39  1  0
 18 40  1  0
 20 41  1  0
M  ISO  8  22  13  23  13  24  13  25  13  26  13  27  13  28  13  29  13
M  ISO  8  30  13  31  14  32  14  33  14  34   8  35   8  36   8  37   8
M  ISO  4  38   8  39  14  40  14  41  14
M  END
>  <minimizedAffinity>  (1) 
-4.70933485

>  <minimizedRMSD>  (1) 
2.08268094

$$$$
