
     RDKit          3D

 40 42  0  0  1  0  0  0  0  0999 V2000
   38.6370   23.0970   35.9470 C   0  0  2  0  0  0  0  0  0  0  0  0
   37.6210   21.9820   35.7810 C   0  0  0  0  0  0  0  0  0  0  0  0
   37.1200   21.7590   34.3940 C   0  0  0  0  0  0  0  0  0  0  0  0
   35.8970   20.8560   34.6370 C   0  0  0  0  0  0  0  0  0  0  0  0
   35.7250   20.7900   36.1430 C   0  0  0  0  0  0  0  0  0  0  0  0
   36.3370   22.1510   36.5280 C   0  0  0  0  0  0  0  0  0  0  0  0
   41.6640   21.4520   37.4680 C   0  0  0  0  0  0  0  0  0  0  0  0
   40.4110   22.0910   37.3530 C   0  0  0  0  0  0  0  0  0  0  0  0
   39.9290   22.4310   36.0940 C   0  0  0  0  0  0  0  0  0  0  0  0
   40.7490   22.0980   35.0610 N   0  0  0  0  0  0  0  0  0  0  0  0
   41.9290   21.4950   35.1620 C   0  0  0  0  0  0  0  0  0  0  0  0
   42.3900   21.1700   36.3760 N   0  0  0  0  0  0  0  0  0  0  0  0
   38.2410   23.8390   37.2540 C   0  0  0  0  0  0  0  0  0  0  0  0
   38.6070   24.1160   34.8800 C   0  0  0  0  0  0  0  0  0  0  0  0
   37.9670   25.6620   35.5410 S   0  0  0  0  0  0  0  0  0  0  0  0
   36.2750   28.5020   33.5990 N   0  0  0  0  0  0  0  0  0  0  0  0
   36.5590   27.7900   34.6940 N   0  0  0  0  0  0  0  0  0  0  0  0
   37.4180   26.8210   34.3470 C   0  0  0  0  0  0  0  0  0  0  0  0
   37.6370   26.9910   32.9770 C   0  0  0  0  0  0  0  0  0  0  0  0
   36.9130   28.0560   32.5050 C   0  0  0  0  0  0  0  0  0  0  0  0
   38.2417   21.1568   36.1603 H   0  0  0  0  0  0  0  0  0  0  0  0
   37.8738   21.2525   33.7733 H   0  0  0  0  0  0  0  0  0  0  0  0
   36.8854   22.6873   33.8525 H   0  0  0  0  0  0  0  0  0  0  0  0
   35.0015   21.2894   34.1678 H   0  0  0  0  0  0  0  0  0  0  0  0
   36.0390   19.8560   34.2014 H   0  0  0  0  0  0  0  0  0  0  0  0
   34.6661   20.7194   36.4325 H   0  0  0  0  0  0  0  0  0  0  0  0
   36.1832   19.9160   36.6290 H   0  0  0  0  0  0  0  0  0  0  0  0
   36.4899   22.2535   37.6125 H   0  0  0  0  0  0  0  0  0  0  0  0
   35.7417   23.0458   36.2937 H   0  0  0  0  0  0  0  0  0  0  0  0
   42.0489   21.1826   38.4626 H   0  0  0  0  0  0  0  0  0  0  0  0
   39.8202   22.3183   38.2526 H   0  0  0  0  0  0  0  0  0  0  0  0
   42.5180   21.2664   34.2616 H   0  0  0  0  0  0  0  0  0  0  0  0
   38.5582   23.2446   38.1236 H   0  0  0  0  0  0  0  0  0  0  0  0
   38.7346   24.8216   37.2817 H   0  0  0  0  0  0  0  0  0  0  0  0
   37.1499   23.9759   37.2817 H   0  0  0  0  0  0  0  0  0  0  0  0
   39.6258   24.2753   34.4970 H   0  0  0  0  0  0  0  0  0  0  0  0
   37.9566   23.7707   34.0628 H   0  0  0  0  0  0  0  0  0  0  0  0
   35.6340   29.3082   33.5949 H   0  0  0  0  0  0  0  0  0  0  0  0
   38.2969   26.3597   32.3639 H   0  0  0  0  0  0  0  0  0  0  0  0
   36.8663   28.4494   31.4788 H   0  0  0  0  0  0  0  0  0  0  0  0
  1 14  1  6
  1  9  1  0
  1 13  1  0
  2  1  1  0
  2  6  1  0
  3  4  1  0
  3  2  1  0
  4  5  1  0
  5  6  1  0
  8  7  2  0
  9  8  1  0
 10 11  1  0
 10  9  2  0
 11 12  2  0
 12  7  1  0
 14 15  1  0
 16 17  1  0
 18 17  2  0
 18 15  1  0
 19 18  1  0
 20 19  2  0
 20 16  1  0
  2 21  1  0
  3 22  1  0
  3 23  1  0
  4 24  1  0
  4 25  1  0
  5 26  1  0
  5 27  1  0
  6 28  1  0
  6 29  1  0
  7 30  1  0
  8 31  1  0
 11 32  1  0
 13 33  1  0
 13 34  1  0
 13 35  1  0
 14 36  1  0
 14 37  1  0
 16 38  1  0
 19 39  1  0
 20 40  1  0
M  ISO  8  21  13  22  13  23  13  24  13  25  13  26  13  27  13  28  13
M  ISO  8  29  13  30  14  31  14  32  14  33   8  34   8  35   8  36   8
M  ISO  4  37   8  38   9  39  14  40  14
M  END
>  <minimizedAffinity>  (1) 
-4.45742702

>  <minimizedRMSD>  (1) 
2.0058589

$$$$
