
     RDKit          3D

 40 42  0  0  1  0  0  0  0  0999 V2000
   38.5610   23.0680   36.0160 C   0  0  2  0  0  0  0  0  0  0  0  0
   37.5640   21.9600   35.8020 C   0  0  0  0  0  0  0  0  0  0  0  0
   37.0950   21.7560   34.4080 C   0  0  0  0  0  0  0  0  0  0  0  0
   35.8810   20.8280   34.6250 C   0  0  0  0  0  0  0  0  0  0  0  0
   35.6770   20.7300   36.1170 C   0  0  0  0  0  0  0  0  0  0  0  0
   36.2770   22.0900   36.5350 C   0  0  0  0  0  0  0  0  0  0  0  0
   41.6690   21.4450   37.4140 C   0  0  0  0  0  0  0  0  0  0  0  0
   40.4190   22.0610   37.3290 C   0  0  0  0  0  0  0  0  0  0  0  0
   39.8730   22.4190   36.1060 C   0  0  0  0  0  0  0  0  0  0  0  0
   40.6590   22.1150   35.0180 N   0  0  0  0  0  0  0  0  0  0  0  0
   41.8510   21.5250   35.1170 C   0  0  0  0  0  0  0  0  0  0  0  0
   42.3600   21.1890   36.3100 N   0  0  0  0  0  0  0  0  0  0  0  0
   38.1900   23.7320   37.3670 C   0  0  0  0  0  0  0  0  0  0  0  0
   38.5400   24.1510   35.0160 C   0  0  0  0  0  0  0  0  0  0  0  0
   37.9600   25.6730   35.8410 S   0  0  0  0  0  0  0  0  0  0  0  0
   37.2340   26.7050   34.5510 C   0  0  0  0  0  0  0  0  0  0  0  0
   36.7500   28.0130   34.6590 C   0  0  0  0  0  0  0  0  0  0  0  0
   36.2940   28.3960   33.4290 C   0  0  0  0  0  0  0  0  0  0  0  0
   36.5120   27.3100   32.5980 C   0  0  0  0  0  0  0  0  0  0  0  0
   37.0720   26.3290   33.3020 O   0  0  0  0  0  0  0  0  0  0  0  0
   38.1902   21.1331   36.1681 H   0  0  0  0  0  0  0  0  0  0  0  0
   37.8662   21.2713   33.7914 H   0  0  0  0  0  0  0  0  0  0  0  0
   36.8577   22.6877   33.8736 H   0  0  0  0  0  0  0  0  0  0  0  0
   34.9868   21.2540   34.1465 H   0  0  0  0  0  0  0  0  0  0  0  0
   36.0544   19.8364   34.1815 H   0  0  0  0  0  0  0  0  0  0  0  0
   34.6127   20.6499   36.3830 H   0  0  0  0  0  0  0  0  0  0  0  0
   36.1254   19.8482   36.5980 H   0  0  0  0  0  0  0  0  0  0  0  0
   36.4196   22.1695   37.6228 H   0  0  0  0  0  0  0  0  0  0  0  0
   35.6732   22.9817   36.3108 H   0  0  0  0  0  0  0  0  0  0  0  0
   42.0814   21.1717   38.3964 H   0  0  0  0  0  0  0  0  0  0  0  0
   39.8558   22.2665   38.2513 H   0  0  0  0  0  0  0  0  0  0  0  0
   42.4258   21.3107   34.2040 H   0  0  0  0  0  0  0  0  0  0  0  0
   38.5431   23.1001   38.1953 H   0  0  0  0  0  0  0  0  0  0  0  0
   38.6659   24.7216   37.4321 H   0  0  0  0  0  0  0  0  0  0  0  0
   37.0978   23.8454   37.4321 H   0  0  0  0  0  0  0  0  0  0  0  0
   39.5520   24.3071   34.6141 H   0  0  0  0  0  0  0  0  0  0  0  0
   37.8695   23.8890   34.1843 H   0  0  0  0  0  0  0  0  0  0  0  0
   36.7385   28.6253   35.5728 H   0  0  0  0  0  0  0  0  0  0  0  0
   35.8476   29.3637   33.1563 H   0  0  0  0  0  0  0  0  0  0  0  0
   36.2624   27.2652   31.5276 H   0  0  0  0  0  0  0  0  0  0  0  0
  1 14  1  6
  1  9  1  0
  1 13  1  0
  2  1  1  0
  2  6  1  0
  3  4  1  0
  3  2  1  0
  4  5  1  0
  5  6  1  0
  8  7  2  0
  9  8  1  0
 10 11  1  0
 10  9  2  0
 11 12  2  0
 12  7  1  0
 14 15  1  0
 16 17  2  0
 16 15  1  0
 18 17  1  0
 19 20  1  0
 19 18  2  0
 20 16  1  0
  2 21  1  0
  3 22  1  0
  3 23  1  0
  4 24  1  0
  4 25  1  0
  5 26  1  0
  5 27  1  0
  6 28  1  0
  6 29  1  0
  7 30  1  0
  8 31  1  0
 11 32  1  0
 13 33  1  0
 13 34  1  0
 13 35  1  0
 14 36  1  0
 14 37  1  0
 17 38  1  0
 18 39  1  0
 19 40  1  0
M  ISO  8  21  13  22  13  23  13  24  13  25  13  26  13  27  13  28  13
M  ISO  8  29  13  30  14  31  14  32  14  33   8  34   8  35   8  36   8
M  ISO  4  37   8  38  14  39  14  40  14
M  END
>  <minimizedAffinity>  (1) 
-4.66151047

>  <minimizedRMSD>  (1) 
0.793433785

$$$$
