
     RDKit          3D

 39 40  0  0  1  0  0  0  0  0999 V2000
   38.7200   23.0640   36.0640 C   0  0  2  0  0  0  0  0  0  0  0  0
   37.7090   21.9770   35.8170 C   0  0  0  0  0  0  0  0  0  0  0  0
   37.2360   21.8300   34.4090 C   0  0  0  0  0  0  0  0  0  0  0  0
   36.0060   20.9220   34.5940 C   0  0  0  0  0  0  0  0  0  0  0  0
   35.7810   20.8090   36.0830 C   0  0  0  0  0  0  0  0  0  0  0  0
   36.4190   22.1300   36.5420 C   0  0  0  0  0  0  0  0  0  0  0  0
   41.8270   21.3540   37.3720 C   0  0  0  0  0  0  0  0  0  0  0  0
   40.5840   21.9980   37.3320 C   0  0  0  0  0  0  0  0  0  0  0  0
   40.0250   22.3850   36.1190 C   0  0  0  0  0  0  0  0  0  0  0  0
   40.7910   22.0790   35.0350 N   0  0  0  0  0  0  0  0  0  0  0  0
   41.9720   21.4680   35.0600 C   0  0  0  0  0  0  0  0  0  0  0  0
   42.4950   21.1020   36.2340 N   0  0  0  0  0  0  0  0  0  0  0  0
   38.3790   23.6850   37.4390 C   0  0  0  0  0  0  0  0  0  0  0  0
   38.7220   24.1850   35.1110 C   0  0  0  0  0  0  0  0  0  0  0  0
   37.9290   25.6170   35.8940 S   0  0  0  0  0  0  0  0  0  0  0  0
   38.9050   27.1120   35.6650 C   0  0  0  0  0  0  0  0  0  0  0  0
   40.1700   26.8440   34.8880 C   0  0  0  0  0  0  0  0  0  0  0  0
   38.3111   21.1228   36.1601 H   0  0  0  0  0  0  0  0  0  0  0  0
   37.9980   21.3510   33.7766 H   0  0  0  0  0  0  0  0  0  0  0  0
   37.0188   22.7839   33.9060 H   0  0  0  0  0  0  0  0  0  0  0  0
   35.1260   21.3696   34.1090 H   0  0  0  0  0  0  0  0  0  0  0  0
   36.1671   19.9338   34.1384 H   0  0  0  0  0  0  0  0  0  0  0  0
   34.7108   20.7624   36.3331 H   0  0  0  0  0  0  0  0  0  0  0  0
   36.1960   19.9036   36.5500 H   0  0  0  0  0  0  0  0  0  0  0  0
   36.5532   22.1747   37.6329 H   0  0  0  0  0  0  0  0  0  0  0  0
   35.8476   23.0474   36.3372 H   0  0  0  0  0  0  0  0  0  0  0  0
   42.2578   21.0535   38.3385 H   0  0  0  0  0  0  0  0  0  0  0  0
   40.0447   22.1996   38.2693 H   0  0  0  0  0  0  0  0  0  0  0  0
   42.5129   21.2659   34.1237 H   0  0  0  0  0  0  0  0  0  0  0  0
   38.7419   23.0241   38.2400 H   0  0  0  0  0  0  0  0  0  0  0  0
   38.8636   24.6686   37.5274 H   0  0  0  0  0  0  0  0  0  0  0  0
   37.2890   23.8040   37.5274 H   0  0  0  0  0  0  0  0  0  0  0  0
   39.7575   24.4380   34.8396 H   0  0  0  0  0  0  0  0  0  0  0  0
   38.1720   23.9037   34.2008 H   0  0  0  0  0  0  0  0  0  0  0  0
   38.3011   27.8507   35.1176 H   0  0  0  0  0  0  0  0  0  0  0  0
   39.1885   27.4897   36.6584 H   0  0  0  0  0  0  0  0  0  0  0  0
   41.0000   26.6682   35.5881 H   0  0  0  0  0  0  0  0  0  0  0  0
   40.0300   25.9556   34.2547 H   0  0  0  0  0  0  0  0  0  0  0  0
   40.4023   27.7129   34.2547 H   0  0  0  0  0  0  0  0  0  0  0  0
  1 14  1  6
  1  9  1  0
  1 13  1  0
  2  1  1  0
  2  6  1  0
  3  4  1  0
  3  2  1  0
  4  5  1  0
  5  6  1  0
  8  7  2  0
  9  8  1  0
 10 11  1  0
 10  9  2  0
 11 12  2  0
 12  7  1  0
 14 15  1  0
 16 15  1  0
 17 16  1  0
  2 18  1  0
  3 19  1  0
  3 20  1  0
  4 21  1  0
  4 22  1  0
  5 23  1  0
  5 24  1  0
  6 25  1  0
  6 26  1  0
  7 27  1  0
  8 28  1  0
 11 29  1  0
 13 30  1  0
 13 31  1  0
 13 32  1  0
 14 33  1  0
 14 34  1  0
 16 35  1  0
 16 36  1  0
 17 37  1  0
 17 38  1  0
 17 39  1  0
M  ISO  8  18  13  19  13  20  13  21  13  22  13  23  13  24  13  25  13
M  ISO  8  26  13  27  14  28  14  29  14  30   8  31   8  32   8  33   8
M  ISO  6  34   8  35   8  36   8  37   8  38   8  39   8
M  END
>  <minimizedAffinity>  (1) 
-4.13189602

>  <minimizedRMSD>  (1) 
0.606994212

$$$$
