
     RDKit          3D

 31 33  0  0  1  0  0  0  0  0999 V2000
   38.7270   25.2710   34.5540 C   0  0  1  0  0  0  0  0  0  0  0  0
   37.3810   25.7280   34.1720 C   0  0  0  0  0  0  0  0  0  0  0  0
   37.6160   26.9270   33.2750 C   0  0  0  0  0  0  0  0  0  0  0  0
   39.0930   27.2370   33.3430 C   0  0  0  0  0  0  0  0  0  0  0  0
   39.5470   26.5340   34.6090 C   0  0  2  0  0  0  0  0  0  0  0  0
   39.4840   22.7610   37.1500 C   0  0  0  0  0  0  0  0  0  0  0  0
   38.8240   23.2990   38.2980 C   0  0  0  0  0  0  0  0  0  0  0  0
   38.1210   24.5130   38.1770 C   0  0  0  0  0  0  0  0  0  0  0  0
   38.1150   25.1050   36.9520 N   0  0  0  0  0  0  0  0  0  0  0  0
   38.7580   24.5620   35.8780 C   0  0  0  0  0  0  0  0  0  0  0  0
   39.4330   23.4000   35.9890 N   0  0  0  0  0  0  0  0  0  0  0  0
   40.9920   26.3730   34.5440 C   0  0  0  0  0  0  0  0  0  0  0  0
   41.8380   27.1480   33.8110 C   0  0  0  0  0  0  0  0  0  0  0  0
   43.2180   27.0290   33.7220 C   0  0  0  0  0  0  0  0  0  0  0  0
   43.7460   26.0130   34.4640 N   0  0  0  0  0  0  0  0  0  0  0  0
   42.9550   25.2090   35.2130 C   0  0  0  0  0  0  0  0  0  0  0  0
   41.6130   25.3830   35.2540 N   0  0  0  0  0  0  0  0  0  0  0  0
   39.1090   24.5316   33.8347 H   0  0  0  0  0  0  0  0  0  0  0  0
   36.8437   24.9372   33.6281 H   0  0  0  0  0  0  0  0  0  0  0  0
   36.7654   25.9806   35.0479 H   0  0  0  0  0  0  0  0  0  0  0  0
   37.0312   27.7877   33.6316 H   0  0  0  0  0  0  0  0  0  0  0  0
   37.3032   26.7156   32.2418 H   0  0  0  0  0  0  0  0  0  0  0  0
   39.6188   26.8390   32.4626 H   0  0  0  0  0  0  0  0  0  0  0  0
   39.3031   28.3167   33.3547 H   0  0  0  0  0  0  0  0  0  0  0  0
   39.3899   27.0442   35.5708 H   0  0  0  0  0  0  0  0  0  0  0  0
   40.0365   21.8131   37.2298 H   0  0  0  0  0  0  0  0  0  0  0  0
   38.8647   22.7720   39.2627 H   0  0  0  0  0  0  0  0  0  0  0  0
   37.5997   24.9628   39.0349 H   0  0  0  0  0  0  0  0  0  0  0  0
   41.3774   27.9571   33.2251 H   0  0  0  0  0  0  0  0  0  0  0  0
   43.8349   27.6984   33.1044 H   0  0  0  0  0  0  0  0  0  0  0  0
   43.4117   24.3984   35.7998 H   0  0  0  0  0  0  0  0  0  0  0  0
  1  5  1  0
  1 10  1  0
  2  1  1  0
  3  4  1  0
  3  2  1  0
  4  5  1  0
  6  7  2  0
  8  7  1  0
  9  8  2  0
 10 11  2  0
 10  9  1  0
 11  6  1  0
 12  5  1  0
 12 17  1  0
 13 12  2  0
 14 13  1  0
 14 15  2  0
 15 16  1  0
 16 17  2  0
  1 18  1  6
  2 19  1  0
  2 20  1  0
  3 21  1  0
  3 22  1  0
  4 23  1  0
  4 24  1  0
  5 25  1  1
  6 26  1  0
  7 27  1  0
  8 28  1  0
 13 29  1  0
 14 30  1  0
 16 31  1  0
M  ISO  8  18  13  19  13  20  13  21  13  22  13  23  13  24  13  25  13
M  ISO  6  26  14  27  14  28  14  29  14  30  14  31  14
M  END
>  <minimizedAffinity>  (1) 
-4.39930487

>  <minimizedRMSD>  (1) 
0.778996825

$$$$
