
     RDKit          3D

 33 35  0  0  1  0  0  0  0  0999 V2000
   38.8300   25.2580   34.5570 C   0  0  1  0  0  0  0  0  0  0  0  0
   37.4970   25.7060   34.1160 C   0  0  0  0  0  0  0  0  0  0  0  0
   37.8020   26.8330   33.1510 C   0  0  0  0  0  0  0  0  0  0  0  0
   39.2430   27.2000   33.3200 C   0  0  0  0  0  0  0  0  0  0  0  0
   39.6580   26.5100   34.6010 C   0  0  2  0  0  0  0  0  0  0  0  0
   39.4750   22.7560   37.1850 C   0  0  0  0  0  0  0  0  0  0  0  0
   38.7880   23.2980   38.3130 C   0  0  0  0  0  0  0  0  0  0  0  0
   38.1100   24.5170   38.1470 C   0  0  0  0  0  0  0  0  0  0  0  0
   38.1350   25.1230   36.9310 N   0  0  0  0  0  0  0  0  0  0  0  0
   38.8100   24.5580   35.8860 C   0  0  0  0  0  0  0  0  0  0  0  0
   39.4820   23.3820   35.9940 N   0  0  0  0  0  0  0  0  0  0  0  0
   41.1060   26.3290   34.5810 C   0  0  0  0  0  0  0  0  0  0  0  0
   41.8200   25.3920   35.2870 C   0  0  0  0  0  0  0  0  0  0  0  0
   43.1950   25.2540   35.2400 C   0  0  0  0  0  0  0  0  0  0  0  0
   43.9370   26.1120   34.4290 C   0  0  0  0  0  0  0  0  0  0  0  0
   43.2680   27.0600   33.7100 C   0  0  0  0  0  0  0  0  0  0  0  0
   41.9060   27.1610   33.7860 C   0  0  0  0  0  0  0  0  0  0  0  0
   39.2406   24.5052   33.8680 H   0  0  0  0  0  0  0  0  0  0  0  0
   36.9561   24.8920   33.6111 H   0  0  0  0  0  0  0  0  0  0  0  0
   36.8535   26.0203   34.9510 H   0  0  0  0  0  0  0  0  0  0  0  0
   37.1654   27.7014   33.3761 H   0  0  0  0  0  0  0  0  0  0  0  0
   37.6038   26.5179   32.1159 H   0  0  0  0  0  0  0  0  0  0  0  0
   39.8398   26.8361   32.4706 H   0  0  0  0  0  0  0  0  0  0  0  0
   39.3970   28.2884   33.3605 H   0  0  0  0  0  0  0  0  0  0  0  0
   39.4810   27.0433   35.5466 H   0  0  0  0  0  0  0  0  0  0  0  0
   40.0124   21.8022   37.2923 H   0  0  0  0  0  0  0  0  0  0  0  0
   38.7895   22.7773   39.2819 H   0  0  0  0  0  0  0  0  0  0  0  0
   37.5675   24.9737   38.9879 H   0  0  0  0  0  0  0  0  0  0  0  0
   41.2587   24.7030   35.9353 H   0  0  0  0  0  0  0  0  0  0  0  0
   43.6973   24.4770   35.8350 H   0  0  0  0  0  0  0  0  0  0  0  0
   45.0321   26.0271   34.3702 H   0  0  0  0  0  0  0  0  0  0  0  0
   43.8298   27.7497   33.0629 H   0  0  0  0  0  0  0  0  0  0  0  0
   41.4100   27.9402   33.1887 H   0  0  0  0  0  0  0  0  0  0  0  0
  1  5  1  0
  1 10  1  0
  2  1  1  0
  3  4  1  0
  3  2  1  0
  4  5  1  0
  6  7  2  0
  8  7  1  0
  9  8  2  0
 10 11  2  0
 10  9  1  0
 11  6  1  0
 12  5  1  0
 12 13  2  0
 14 13  1  0
 15 14  2  0
 16 17  2  0
 16 15  1  0
 17 12  1  0
  1 18  1  6
  2 19  1  0
  2 20  1  0
  3 21  1  0
  3 22  1  0
  4 23  1  0
  4 24  1  0
  5 25  1  1
  6 26  1  0
  7 27  1  0
  8 28  1  0
 13 29  1  0
 14 30  1  0
 15 31  1  0
 16 32  1  0
 17 33  1  0
M  ISO  8  18  13  19  13  20  13  21  13  22  13  23  13  24  13  25  13
M  ISO  8  26  14  27  14  28  14  29  14  30  14  31  14  32  14  33  14
M  END
>  <minimizedAffinity>  (1) 
-4.54328299

>  <minimizedRMSD>  (1) 
0.781286299

$$$$
