
     RDKit          3D

 32 34  0  0  1  0  0  0  0  0999 V2000
   38.8270   25.2150   34.4200 C   0  0  1  0  0  0  0  0  0  0  0  0
   37.4710   25.5000   33.9180 C   0  0  0  0  0  0  0  0  0  0  0  0
   37.6570   26.6720   32.9750 C   0  0  0  0  0  0  0  0  0  0  0  0
   39.0490   27.1930   33.1970 C   0  0  0  0  0  0  0  0  0  0  0  0
   39.4590   26.5950   34.5320 C   0  0  2  0  0  0  0  0  0  0  0  0
   39.4730   22.7410   37.0800 C   0  0  0  0  0  0  0  0  0  0  0  0
   38.8190   23.3120   38.2170 C   0  0  0  0  0  0  0  0  0  0  0  0
   38.1590   24.5440   38.0510 C   0  0  0  0  0  0  0  0  0  0  0  0
   38.1770   25.1220   36.8190 N   0  0  0  0  0  0  0  0  0  0  0  0
   38.8160   24.5370   35.7650 C   0  0  0  0  0  0  0  0  0  0  0  0
   39.4580   23.3510   35.9030 N   0  0  0  0  0  0  0  0  0  0  0  0
   40.9370   26.4100   34.4860 C   0  0  0  0  0  0  0  0  0  0  0  0
   41.7240   27.2320   33.7060 C   0  0  0  0  0  0  0  0  0  0  0  0
   43.0890   27.0260   33.6920 C   0  0  0  0  0  0  0  0  0  0  0  0
   43.5810   25.9850   34.4800 C   0  0  0  0  0  0  0  0  0  0  0  0
   42.7790   25.1700   35.2580 C   0  0  0  0  0  0  0  0  0  0  0  0
   41.4350   25.4100   35.2410 N   0  0  0  0  0  0  0  0  0  0  0  0
   39.3700   24.5259   33.7564 H   0  0  0  0  0  0  0  0  0  0  0  0
   37.0634   24.6301   33.3822 H   0  0  0  0  0  0  0  0  0  0  0  0
   36.7618   25.7226   34.7288 H   0  0  0  0  0  0  0  0  0  0  0  0
   36.9192   27.4571   33.1969 H   0  0  0  0  0  0  0  0  0  0  0  0
   37.5140   26.3628   31.9291 H   0  0  0  0  0  0  0  0  0  0  0  0
   39.7238   26.8584   32.3953 H   0  0  0  0  0  0  0  0  0  0  0  0
   39.0942   28.2921   33.1946 H   0  0  0  0  0  0  0  0  0  0  0  0
   39.1805   27.1738   35.4250 H   0  0  0  0  0  0  0  0  0  0  0  0
   39.9972   21.7795   37.1841 H   0  0  0  0  0  0  0  0  0  0  0  0
   38.8316   22.8032   39.1922 H   0  0  0  0  0  0  0  0  0  0  0  0
   37.6427   25.0265   38.8940 H   0  0  0  0  0  0  0  0  0  0  0  0
   41.2724   28.0363   33.1066 H   0  0  0  0  0  0  0  0  0  0  0  0
   43.7588   27.6545   33.0867 H   0  0  0  0  0  0  0  0  0  0  0  0
   44.6658   25.8026   34.4826 H   0  0  0  0  0  0  0  0  0  0  0  0
   43.2072   24.3600   35.8667 H   0  0  0  0  0  0  0  0  0  0  0  0
  1  5  1  0
  1 10  1  0
  2  1  1  0
  3  4  1  0
  3  2  1  0
  4  5  1  0
  6  7  2  0
  8  7  1  0
  9  8  2  0
 10 11  2  0
 10  9  1  0
 11  6  1  0
 12  5  1  0
 12 17  1  0
 13 12  2  0
 14 13  1  0
 14 15  2  0
 15 16  1  0
 17 16  2  0
  1 18  1  6
  2 19  1  0
  2 20  1  0
  3 21  1  0
  3 22  1  0
  4 23  1  0
  4 24  1  0
  5 25  1  1
  6 26  1  0
  7 27  1  0
  8 28  1  0
 13 29  1  0
 14 30  1  0
 15 31  1  0
 16 32  1  0
M  ISO  8  18  13  19  13  20  13  21  13  22  13  23  13  24  13  25  13
M  ISO  7  26  14  27  14  28  14  29  14  30  14  31  14  32  14
M  END
>  <minimizedAffinity>  (1) 
-4.35773087

>  <minimizedRMSD>  (1) 
1.0733496

$$$$
