
     RDKit          3D

 36 39  0  0  0  0  0  0  0  0999 V2000
   38.7140   24.6050   34.7580 N   0  0  0  0  0  0  0  0  0  0  0  0
   39.6700   23.8380   34.1840 C   0  0  0  0  0  0  0  0  0  0  0  0
   40.1900   23.0140   35.1440 N   0  0  0  0  0  0  0  0  0  0  0  0
   39.5620   23.2780   36.2850 C   0  0  0  0  0  0  0  0  0  0  0  0
   39.6300   22.7980   37.5800 C   0  0  0  0  0  0  0  0  0  0  0  0
   38.8490   23.2490   38.6010 N   0  0  0  0  0  0  0  0  0  0  0  0
   37.9450   24.2340   38.3360 C   0  0  0  0  0  0  0  0  0  0  0  0
   37.8610   24.7140   37.0850 N   0  0  0  0  0  0  0  0  0  0  0  0
   38.6320   24.2670   36.0770 C   0  0  0  0  0  0  0  0  0  0  0  0
   37.8320   26.8680   34.6710 C   0  0  0  0  0  0  0  0  0  0  0  0
   37.9410   25.5880   34.0820 C   0  0  0  0  0  0  0  0  0  0  0  0
   37.2840   25.3770   32.8750 C   0  0  0  0  0  0  0  0  0  0  0  0
   36.5690   26.4080   32.3240 N   0  0  0  0  0  0  0  0  0  0  0  0
   36.4850   27.6070   32.9050 C   0  0  0  0  0  0  0  0  0  0  0  0
   37.1120   27.8230   34.0640 N   0  0  0  0  0  0  0  0  0  0  0  0
   35.7360   28.6380   32.2990 N   0  0  0  0  0  0  0  0  0  0  0  0
   36.0750   29.1230   30.9720 C   0  0  0  0  0  0  0  0  0  0  0  0
   36.1730   30.6110   31.0150 C   0  0  0  0  0  0  0  0  0  0  0  0
   35.9500   31.1240   32.2820 O   0  0  0  0  0  0  0  0  0  0  0  0
   34.7130   30.7390   32.7970 C   0  0  0  0  0  0  0  0  0  0  0  0
   34.6070   29.2500   32.9740 C   0  0  0  0  0  0  0  0  0  0  0  0
   40.5580   21.7690   37.9130 N   0  0  0  0  0  0  0  0  0  0  0  0
   39.9760   23.8715   33.1279 H   0  0  0  0  0  0  0  0  0  0  0  0
   37.2964   24.6283   39.1322 H   0  0  0  0  0  0  0  0  0  0  0  0
   38.3365   27.0806   35.6251 H   0  0  0  0  0  0  0  0  0  0  0  0
   37.3372   24.4004   32.3716 H   0  0  0  0  0  0  0  0  0  0  0  0
   35.2931   28.8244   30.2582 H   0  0  0  0  0  0  0  0  0  0  0  0
   37.0358   28.6941   30.6513 H   0  0  0  0  0  0  0  0  0  0  0  0
   37.1805   30.9071   30.6875 H   0  0  0  0  0  0  0  0  0  0  0  0
   35.3948   31.0150   30.3508 H   0  0  0  0  0  0  0  0  0  0  0  0
   34.5710   31.2224   33.7748 H   0  0  0  0  0  0  0  0  0  0  0  0
   33.9388   31.0485   32.0795 H   0  0  0  0  0  0  0  0  0  0  0  0
   33.6668   28.8874   32.5330 H   0  0  0  0  0  0  0  0  0  0  0  0
   34.6136   28.9903   34.0429 H   0  0  0  0  0  0  0  0  0  0  0  0
   40.6074   21.4126   38.8781 H   0  0  0  0  0  0  0  0  0  0  0  0
   41.1794   21.3817   37.1886 H   0  0  0  0  0  0  0  0  0  0  0  0
  1  9  1  0
  2  1  1  0
  2  3  2  0
  3  4  1  0
  4  5  2  0
  5 22  1  0
  5  6  1  0
  7  6  2  0
  8  7  1  0
  9  4  1  0
  9  8  2  0
 11 10  2  0
 11  1  1  0
 12 11  1  0
 13 12  2  0
 13 14  1  0
 14 15  2  0
 15 10  1  0
 16 14  1  0
 16 21  1  0
 17 18  1  0
 17 16  1  0
 18 19  1  0
 19 20  1  0
 20 21  1  0
  2 23  1  0
  7 24  1  0
 10 25  1  0
 12 26  1  0
 17 27  1  0
 17 28  1  0
 18 29  1  0
 18 30  1  0
 20 31  1  0
 20 32  1  0
 21 33  1  0
 21 34  1  0
 22 35  1  0
 22 36  1  0
M  ISO  8  23  14  24  14  25  14  26  14  27  13  28  13  29  13  30  13
M  ISO  4  31  13  32  13  33  13  34  13
M  END
>  <minimizedAffinity>  (1) 
-6.20038414

>  <minimizedRMSD>  (1) 
0.532724202

$$$$
