
     RDKit          3D

 33 35  0  0  1  0  0  0  0  0999 V2000
   38.3910   25.3730   33.7280 C   0  0  1  0  0  0  0  0  0  0  0  0
   37.0810   25.8630   33.2760 C   0  0  0  0  0  0  0  0  0  0  0  0
   37.4010   27.0870   32.4360 C   0  0  0  0  0  0  0  0  0  0  0  0
   38.8860   27.3200   32.5610 C   0  0  0  0  0  0  0  0  0  0  0  0
   39.2040   26.6540   33.8920 C   0  0  2  0  0  0  0  0  0  0  0  0
   38.6020   22.6070   36.1530 C   0  0  0  0  0  0  0  0  0  0  0  0
   38.2600   23.2380   37.3910 C   0  0  0  0  0  0  0  0  0  0  0  0
   37.9590   24.6120   37.3660 C   0  0  0  0  0  0  0  0  0  0  0  0
   38.0070   25.2610   36.1750 N   0  0  0  0  0  0  0  0  0  0  0  0
   38.3390   24.6150   35.0200 C   0  0  0  0  0  0  0  0  0  0  0  0
   38.6340   23.2910   35.0140 N   0  0  0  0  0  0  0  0  0  0  0  0
   40.6210   26.3970   34.1190 C   0  0  0  0  0  0  0  0  0  0  0  0
   41.0700   25.3150   34.8840 C   0  0  0  0  0  0  0  0  0  0  0  0
   42.4110   25.0920   35.0840 C   0  0  0  0  0  0  0  0  0  0  0  0
   43.3610   25.9490   34.5240 C   0  0  0  0  0  0  0  0  0  0  0  0
   42.9080   27.0180   33.7690 C   0  0  0  0  0  0  0  0  0  0  0  0
   41.5710   27.2170   33.5850 C   0  0  0  0  0  0  0  0  0  0  0  0
   38.8156   24.6527   33.0132 H   0  0  0  0  0  0  0  0  0  0  0  0
   36.5681   25.1002   32.6718 H   0  0  0  0  0  0  0  0  0  0  0  0
   36.4096   26.0962   34.1156 H   0  0  0  0  0  0  0  0  0  0  0  0
   36.8470   27.9601   32.8112 H   0  0  0  0  0  0  0  0  0  0  0  0
   37.1107   26.9342   31.3861 H   0  0  0  0  0  0  0  0  0  0  0  0
   39.4354   26.8441   31.7354 H   0  0  0  0  0  0  0  0  0  0  0  0
   39.1719   28.3813   32.5184 H   0  0  0  0  0  0  0  0  0  0  0  0
   38.9591   27.2688   34.7707 H   0  0  0  0  0  0  0  0  0  0  0  0
   38.8433   21.5338   36.1439 H   0  0  0  0  0  0  0  0  0  0  0  0
   38.2333   22.6675   38.3311 H   0  0  0  0  0  0  0  0  0  0  0  0
   37.6913   25.1472   38.2890 H   0  0  0  0  0  0  0  0  0  0  0  0
   40.3359   24.6302   35.3336 H   0  0  0  0  0  0  0  0  0  0  0  0
   42.7382   24.2334   35.6888 H   0  0  0  0  0  0  0  0  0  0  0  0
   44.4370   25.7799   34.6780 H   0  0  0  0  0  0  0  0  0  0  0  0
   43.6311   27.7113   33.3146 H   0  0  0  0  0  0  0  0  0  0  0  0
   41.2451   28.0758   32.9799 H   0  0  0  0  0  0  0  0  0  0  0  0
  1  5  1  0
  1 10  1  0
  2  1  1  0
  3  4  1  0
  3  2  1  0
  4  5  1  0
  5 12  1  0
  6  7  2  0
  8  7  1  0
  9  8  2  0
 10  9  1  0
 11 10  2  0
 11  6  1  0
 12 13  2  0
 13 14  1  0
 15 14  2  0
 16 15  1  0
 17 16  2  0
 17 12  1  0
  1 18  1  6
  2 19  1  0
  2 20  1  0
  3 21  1  0
  3 22  1  0
  4 23  1  0
  4 24  1  0
  5 25  1  1
  6 26  1  0
  7 27  1  0
  8 28  1  0
 13 29  1  0
 14 30  1  0
 15 31  1  0
 16 32  1  0
 17 33  1  0
M  ISO  8  18  13  19  13  20  13  21  13  22  13  23  13  24  13  25  13
M  ISO  8  26  14  27  14  28  14  29  14  30  14  31  14  32  14  33  14
M  END
>  <minimizedAffinity>  (1) 
-4.36978722

>  <minimizedRMSD>  (1) 
1.3510257

$$$$
