
     RDKit          3D

 30 32  0  0  1  0  0  0  0  0999 V2000
   38.6670   25.3140   34.6180 C   0  0  1  0  0  0  0  0  0  0  0  0
   37.3230   25.8180   34.2870 C   0  0  0  0  0  0  0  0  0  0  0  0
   37.5720   27.0060   33.3780 C   0  0  0  0  0  0  0  0  0  0  0  0
   39.0550   27.2650   33.3840 C   0  0  0  0  0  0  0  0  0  0  0  0
   39.5050   26.5900   34.6790 C   0  0  2  0  0  0  0  0  0  0  0  0
   39.4760   22.7730   37.1610 C   0  0  0  0  0  0  0  0  0  0  0  0
   38.8380   23.2780   38.3340 C   0  0  0  0  0  0  0  0  0  0  0  0
   38.1350   24.4930   38.2290 C   0  0  0  0  0  0  0  0  0  0  0  0
   38.1100   25.1060   37.0160 N   0  0  0  0  0  0  0  0  0  0  0  0
   38.7340   24.5850   35.9200 C   0  0  0  0  0  0  0  0  0  0  0  0
   39.4160   23.4250   35.9830 N   0  0  0  0  0  0  0  0  0  0  0  0
   40.9430   26.3170   34.6430 C   0  0  0  0  0  0  0  0  0  0  0  0
   41.8280   27.0500   33.8790 C   0  0  0  0  0  0  0  0  0  0  0  0
   43.0790   26.5050   34.1020 C   0  0  0  0  0  0  0  0  0  0  0  0
   42.8660   25.4610   35.0020 C   0  0  0  0  0  0  0  0  0  0  0  0
   41.5940   25.3750   35.3030 O   0  0  0  0  0  0  0  0  0  0  0  0
   39.0097   24.5736   33.8802 H   0  0  0  0  0  0  0  0  0  0  0  0
   36.7367   25.0468   33.7660 H   0  0  0  0  0  0  0  0  0  0  0  0
   36.7484   26.0927   35.1838 H   0  0  0  0  0  0  0  0  0  0  0  0
   37.0334   27.8883   33.7541 H   0  0  0  0  0  0  0  0  0  0  0  0
   37.2147   26.8003   32.3582 H   0  0  0  0  0  0  0  0  0  0  0  0
   39.5414   26.8095   32.5088 H   0  0  0  0  0  0  0  0  0  0  0  0
   39.3132   28.3331   33.3343 H   0  0  0  0  0  0  0  0  0  0  0  0
   39.3645   27.1754   35.5996 H   0  0  0  0  0  0  0  0  0  0  0  0
   40.0319   21.8256   37.2203 H   0  0  0  0  0  0  0  0  0  0  0  0
   38.8940   22.7352   39.2891 H   0  0  0  0  0  0  0  0  0  0  0  0
   37.6235   24.9313   39.0986 H   0  0  0  0  0  0  0  0  0  0  0  0
   41.5862   27.8992   33.2229 H   0  0  0  0  0  0  0  0  0  0  0  0
   44.0358   26.8256   33.6641 H   0  0  0  0  0  0  0  0  0  0  0  0
   43.6529   24.8044   35.4015 H   0  0  0  0  0  0  0  0  0  0  0  0
  1  5  1  0
  1 10  1  0
  2  1  1  0
  3  4  1  0
  3  2  1  0
  4  5  1  0
  6  7  2  0
  8  7  1  0
  9  8  2  0
 10 11  2  0
 10  9  1  0
 11  6  1  0
 12  5  1  0
 12 16  1  0
 13 14  1  0
 13 12  2  0
 14 15  2  0
 15 16  1  0
  1 17  1  6
  2 18  1  0
  2 19  1  0
  3 20  1  0
  3 21  1  0
  4 22  1  0
  4 23  1  0
  5 24  1  1
  6 25  1  0
  7 26  1  0
  8 27  1  0
 13 28  1  0
 14 29  1  0
 15 30  1  0
M  ISO  8  17  13  18  13  19  13  20  13  21  13  22  13  23  13  24  13
M  ISO  6  25  14  26  14  27  14  28  14  29  14  30  14
M  END
>  <minimizedAffinity>  (1) 
-4.2810998

>  <minimizedRMSD>  (1) 
0.666153371

$$$$
