
     RDKit          3D

 28 30  0  0  1  0  0  0  0  0999 V2000
   38.7730   25.2890   34.9050 C   0  0  1  0  0  0  0  0  0  0  0  0
   37.5430   26.0370   34.6410 C   0  0  0  0  0  0  0  0  0  0  0  0
   37.9670   27.1470   33.6970 C   0  0  0  0  0  0  0  0  0  0  0  0
   39.4730   27.0910   33.5960 C   0  0  0  0  0  0  0  0  0  0  0  0
   39.8760   26.3330   34.8530 C   0  0  2  0  0  0  0  0  0  0  0  0
   39.6040   22.8550   37.5460 C   0  0  0  0  0  0  0  0  0  0  0  0
   38.7960   23.2880   38.6470 C   0  0  0  0  0  0  0  0  0  0  0  0
   37.9730   24.4140   38.4580 C   0  0  0  0  0  0  0  0  0  0  0  0
   37.9970   25.0200   37.2410 N   0  0  0  0  0  0  0  0  0  0  0  0
   38.7820   24.5730   36.2210 C   0  0  0  0  0  0  0  0  0  0  0  0
   39.5790   23.4940   36.3840 N   0  0  0  0  0  0  0  0  0  0  0  0
   41.1450   25.6190   34.5560 C   0  0  0  0  0  0  0  0  0  0  0  0
   42.3770   25.6000   35.1180 N   0  0  0  0  0  0  0  0  0  0  0  0
   43.1350   24.7820   34.4480 O   0  0  0  0  0  0  0  0  0  0  0  0
   42.4580   24.2530   33.4630 C   0  0  0  0  0  0  0  0  0  0  0  0
   41.2260   24.7550   33.5100 N   0  0  0  0  0  0  0  0  0  0  0  0
   38.8942   24.4851   34.1640 H   0  0  0  0  0  0  0  0  0  0  0  0
   36.7893   25.3908   34.1673 H   0  0  0  0  0  0  0  0  0  0  0  0
   37.0839   26.4248   35.5624 H   0  0  0  0  0  0  0  0  0  0  0  0
   37.5161   26.9924   32.7057 H   0  0  0  0  0  0  0  0  0  0  0  0
   37.6352   28.1272   34.0701 H   0  0  0  0  0  0  0  0  0  0  0  0
   39.7882   26.5507   32.6911 H   0  0  0  0  0  0  0  0  0  0  0  0
   39.9385   28.0850   33.5229 H   0  0  0  0  0  0  0  0  0  0  0  0
   40.0008   26.9446   35.7587 H   0  0  0  0  0  0  0  0  0  0  0  0
   40.2563   21.9775   37.6664 H   0  0  0  0  0  0  0  0  0  0  0  0
   38.8182   22.7570   39.6101 H   0  0  0  0  0  0  0  0  0  0  0  0
   37.3316   24.7913   39.2680 H   0  0  0  0  0  0  0  0  0  0  0  0
   42.8369   23.5261   32.7295 H   0  0  0  0  0  0  0  0  0  0  0  0
  1 10  1  0
  2  1  1  0
  3  2  1  0
  4  3  1  0
  4  5  1  0
  5  1  1  0
  6  7  2  0
  8  7  1  0
  9  8  2  0
 10 11  2  0
 10  9  1  0
 11  6  1  0
 12  5  1  0
 12 13  2  0
 14 13  1  0
 15 16  2  0
 15 14  1  0
 16 12  1  0
  1 17  1  6
  2 18  1  0
  2 19  1  0
  3 20  1  0
  3 21  1  0
  4 22  1  0
  4 23  1  0
  5 24  1  1
  6 25  1  0
  7 26  1  0
  8 27  1  0
 15 28  1  0
M  ISO  8  17  13  18  13  19  13  20  13  21  13  22  13  23  13  24  13
M  ISO  4  25  14  26  14  27  14  28  14
M  END
>  <minimizedAffinity>  (1) 
-4.18257046

>  <minimizedRMSD>  (1) 
0.194234908

$$$$
