
     RDKit          3D

 30 32  0  0  1  0  0  0  0  0999 V2000
   38.7350   25.2900   34.7070 C   0  0  1  0  0  0  0  0  0  0  0  0
   37.4270   25.8770   34.3820 C   0  0  0  0  0  0  0  0  0  0  0  0
   37.7370   27.0880   33.5230 C   0  0  0  0  0  0  0  0  0  0  0  0
   39.2440   27.2220   33.4750 C   0  0  0  0  0  0  0  0  0  0  0  0
   39.6730   26.4950   34.7410 C   0  0  2  0  0  0  0  0  0  0  0  0
   39.4740   22.7490   37.2810 C   0  0  0  0  0  0  0  0  0  0  0  0
   38.8010   23.2720   38.4260 C   0  0  0  0  0  0  0  0  0  0  0  0
   38.0990   24.4850   38.3160 C   0  0  0  0  0  0  0  0  0  0  0  0
   38.1060   25.0920   37.0990 N   0  0  0  0  0  0  0  0  0  0  0  0
   38.7580   24.5690   36.0220 C   0  0  0  0  0  0  0  0  0  0  0  0
   39.4390   23.4020   36.1110 N   0  0  0  0  0  0  0  0  0  0  0  0
   41.0480   26.1670   34.7030 C   0  0  0  0  0  0  0  0  0  0  0  0
   41.9860   25.2660   35.2920 C   0  0  0  0  0  0  0  0  0  0  0  0
   43.2870   25.3150   34.9280 C   0  0  0  0  0  0  0  0  0  0  0  0
   43.6910   26.2780   33.9530 C   0  0  0  0  0  0  0  0  0  0  0  0
   42.1230   27.1680   33.5260 S   0  0  0  0  0  0  0  0  0  0  0  0
   39.0174   24.5224   33.9715 H   0  0  0  0  0  0  0  0  0  0  0  0
   36.8088   25.1573   33.8254 H   0  0  0  0  0  0  0  0  0  0  0  0
   36.8619   26.1480   35.2860 H   0  0  0  0  0  0  0  0  0  0  0  0
   37.3380   26.9435   32.5081 H   0  0  0  0  0  0  0  0  0  0  0  0
   37.2752   27.9946   33.9411 H   0  0  0  0  0  0  0  0  0  0  0  0
   39.6588   26.7390   32.5780 H   0  0  0  0  0  0  0  0  0  0  0  0
   39.5928   28.2640   33.4250 H   0  0  0  0  0  0  0  0  0  0  0  0
   39.5921   27.0706   35.6749 H   0  0  0  0  0  0  0  0  0  0  0  0
   40.0266   21.8011   37.3596 H   0  0  0  0  0  0  0  0  0  0  0  0
   38.8313   22.7319   39.3838 H   0  0  0  0  0  0  0  0  0  0  0  0
   37.5686   24.9229   39.1745 H   0  0  0  0  0  0  0  0  0  0  0  0
   41.6506   24.5332   36.0407 H   0  0  0  0  0  0  0  0  0  0  0  0
   44.0203   24.6268   35.3738 H   0  0  0  0  0  0  0  0  0  0  0  0
   44.6995   26.4510   33.5493 H   0  0  0  0  0  0  0  0  0  0  0  0
  1  5  1  0
  1 10  1  0
  2  1  1  0
  3  2  1  0
  4  3  1  0
  4  5  1  0
  6  7  2  0
  8  7  1  0
  9  8  2  0
 10 11  2  0
 10  9  1  0
 11  6  1  0
 12  5  1  0
 12 13  2  0
 14 13  1  0
 15 14  2  0
 16 15  1  0
 16 12  1  0
  1 17  1  6
  2 18  1  0
  2 19  1  0
  3 20  1  0
  3 21  1  0
  4 22  1  0
  4 23  1  0
  5 24  1  1
  6 25  1  0
  7 26  1  0
  8 27  1  0
 13 28  1  0
 14 29  1  0
 15 30  1  0
M  ISO  8  17  13  18  13  19  13  20  13  21  13  22  13  23  13  24  13
M  ISO  6  25  14  26  14  27  14  28  14  29  14  30  14
M  END
>  <minimizedAffinity>  (1) 
-4.24591446

>  <minimizedRMSD>  (1) 
0.473354071

$$$$
