
     RDKit          3D

 30 32  0  0  1  0  0  0  0  0999 V2000
   38.9590   24.8370   34.5240 C   0  0  1  0  0  0  0  0  0  0  0  0
   37.6920   24.6480   33.7950 C   0  0  0  0  0  0  0  0  0  0  0  0
   37.6190   25.8060   32.8100 C   0  0  0  0  0  0  0  0  0  0  0  0
   38.8520   26.6470   33.0690 C   0  0  0  0  0  0  0  0  0  0  0  0
   39.1290   26.3470   34.5450 C   0  0  2  0  0  0  0  0  0  0  0  0
   39.8250   22.8560   37.5110 C   0  0  0  0  0  0  0  0  0  0  0  0
   38.8740   23.3060   38.4800 C   0  0  0  0  0  0  0  0  0  0  0  0
   37.9390   24.2840   38.0940 C   0  0  0  0  0  0  0  0  0  0  0  0
   38.0040   24.7400   36.8160 N   0  0  0  0  0  0  0  0  0  0  0  0
   38.9270   24.2860   35.9220 C   0  0  0  0  0  0  0  0  0  0  0  0
   39.8170   23.3540   36.2890 N   0  0  0  0  0  0  0  0  0  0  0  0
   40.5520   26.6640   34.9220 C   0  0  0  0  0  0  0  0  0  0  0  0
   41.4600   27.2580   33.9030 C   0  0  0  0  0  0  0  0  0  0  0  0
   41.7000   25.8670   34.3540 C   0  0  0  0  0  0  0  0  0  0  0  0
   39.7877   24.2995   34.0398 H   0  0  0  0  0  0  0  0  0  0  0  0
   37.6949   23.6868   33.2602 H   0  0  0  0  0  0  0  0  0  0  0  0
   36.8266   24.6318   34.4739 H   0  0  0  0  0  0  0  0  0  0  0  0
   36.7083   26.3984   32.9822 H   0  0  0  0  0  0  0  0  0  0  0  0
   37.5827   25.4507   31.7696 H   0  0  0  0  0  0  0  0  0  0  0  0
   39.6921   26.3336   32.4318 H   0  0  0  0  0  0  0  0  0  0  0  0
   38.7172   27.7162   32.8486 H   0  0  0  0  0  0  0  0  0  0  0  0
   38.4995   26.9137   35.2469 H   0  0  0  0  0  0  0  0  0  0  0  0
   40.5664   22.0913   37.7857 H   0  0  0  0  0  0  0  0  0  0  0  0
   38.8736   22.8977   39.5014 H   0  0  0  0  0  0  0  0  0  0  0  0
   37.1852   24.6643   38.7991 H   0  0  0  0  0  0  0  0  0  0  0  0
   40.2220   26.9272   35.9378 H   0  0  0  0  0  0  0  0  0  0  0  0
   42.1601   28.0555   34.1926 H   0  0  0  0  0  0  0  0  0  0  0  0
   41.3127   27.7371   32.9239 H   0  0  0  0  0  0  0  0  0  0  0  0
   41.5030   25.0255   33.6735 H   0  0  0  0  0  0  0  0  0  0  0  0
   42.5559   25.3218   34.7784 H   0  0  0  0  0  0  0  0  0  0  0  0
  1  5  1  0
  1 10  1  0
  2  1  1  0
  3  4  1  0
  3  2  1  0
  4  5  1  0
  5 12  1  0
  6  7  2  0
  8  7  1  0
  9  8  2  0
 10 11  2  0
 10  9  1  0
 11  6  1  0
 13 14  1  0
 13 12  1  0
 14 12  1  0
  1 15  1  6
  2 16  1  0
  2 17  1  0
  3 18  1  0
  3 19  1  0
  4 20  1  0
  4 21  1  0
  5 22  1  1
  6 23  1  0
  7 24  1  0
  8 25  1  0
 12 26  1  0
 13 27  1  0
 13 28  1  0
 14 29  1  0
 14 30  1  0
M  ISO  8  15  13  16  13  17  13  18  13  19  13  20  13  21  13  22  13
M  ISO  8  23  14  24  14  25  14  26  13  27  13  28  13  29  13  30  13
M  END
>  <minimizedAffinity>  (1) 
-4.10139656

>  <minimizedRMSD>  (1) 
1.28623068

$$$$
