
     RDKit          3D

 35 36  0  0  1  0  0  0  0  0999 V2000
   38.4500   25.4340   34.6650 C   0  0  1  0  0  0  0  0  0  0  0  0
   37.1770   26.2190   34.6600 C   0  0  0  0  0  0  0  0  0  0  0  0
   37.4700   27.3850   33.7370 C   0  0  0  0  0  0  0  0  0  0  0  0
   38.9140   27.2440   33.3050 C   0  0  0  0  0  0  0  0  0  0  0  0
   39.5050   26.4270   34.4620 C   0  0  2  0  0  0  0  0  0  0  0  0
   39.4500   22.7590   36.9870 C   0  0  0  0  0  0  0  0  0  0  0  0
   38.9170   23.2100   38.2350 C   0  0  0  0  0  0  0  0  0  0  0  0
   38.2100   24.4280   38.2720 C   0  0  0  0  0  0  0  0  0  0  0  0
   38.0720   25.1140   37.1050 N   0  0  0  0  0  0  0  0  0  0  0  0
   38.5970   24.6440   35.9370 C   0  0  0  0  0  0  0  0  0  0  0  0
   39.2780   23.4770   35.8860 N   0  0  0  0  0  0  0  0  0  0  0  0
   40.8860   26.1330   34.1710 C   0  0  0  0  0  0  0  0  0  0  0  0
   41.7300   25.4960   35.2210 C   0  0  0  0  0  0  0  0  0  0  0  0
   41.6120   27.2780   33.5240 C   0  0  0  0  0  0  0  0  0  0  0  0
   40.8360   25.0390   33.0510 C   0  0  0  0  0  0  0  0  0  0  0  0
   38.4864   24.6707   33.8738 H   0  0  0  0  0  0  0  0  0  0  0  0
   36.3451   25.6127   34.2723 H   0  0  0  0  0  0  0  0  0  0  0  0
   36.8741   26.5415   35.6671 H   0  0  0  0  0  0  0  0  0  0  0  0
   36.8067   27.3507   32.8602 H   0  0  0  0  0  0  0  0  0  0  0  0
   37.3007   28.3454   34.2459 H   0  0  0  0  0  0  0  0  0  0  0  0
   38.9962   26.7046   32.3499 H   0  0  0  0  0  0  0  0  0  0  0  0
   39.4236   28.2028   33.1287 H   0  0  0  0  0  0  0  0  0  0  0  0
   39.6860   26.8546   35.4592 H   0  0  0  0  0  0  0  0  0  0  0  0
   40.0059   21.8109   36.9404 H   0  0  0  0  0  0  0  0  0  0  0  0
   39.0566   22.6161   39.1503 H   0  0  0  0  0  0  0  0  0  0  0  0
   37.7845   24.8110   39.2113 H   0  0  0  0  0  0  0  0  0  0  0  0
   41.3544   25.7795   36.2153 H   0  0  0  0  0  0  0  0  0  0  0  0
   41.6883   24.4023   35.1114 H   0  0  0  0  0  0  0  0  0  0  0  0
   42.7704   25.8360   35.1114 H   0  0  0  0  0  0  0  0  0  0  0  0
   42.0284   27.9347   34.3021 H   0  0  0  0  0  0  0  0  0  0  0  0
   42.4281   26.8879   32.8981 H   0  0  0  0  0  0  0  0  0  0  0  0
   40.9111   27.8498   32.8981 H   0  0  0  0  0  0  0  0  0  0  0  0
   40.7904   24.0422   33.5139 H   0  0  0  0  0  0  0  0  0  0  0  0
   39.9440   25.1943   32.4263 H   0  0  0  0  0  0  0  0  0  0  0  0
   41.7384   25.1123   32.4263 H   0  0  0  0  0  0  0  0  0  0  0  0
  1 10  1  0
  2  1  1  0
  3  2  1  0
  4  3  1  0
  4  5  1  0
  5  1  1  0
  6  7  2  0
  7  8  1  0
  9  8  2  0
 10  9  1  0
 11 10  2  0
 11  6  1  0
 12  5  1  0
 12 13  1  0
 14 12  1  0
 15 12  1  0
  1 16  1  6
  2 17  1  0
  2 18  1  0
  3 19  1  0
  3 20  1  0
  4 21  1  0
  4 22  1  0
  5 23  1  1
  6 24  1  0
  7 25  1  0
  8 26  1  0
 13 27  1  0
 13 28  1  0
 13 29  1  0
 14 30  1  0
 14 31  1  0
 14 32  1  0
 15 33  1  0
 15 34  1  0
 15 35  1  0
M  ISO  8  16  13  17  13  18  13  19  13  20  13  21  13  22  13  23  13
M  ISO  8  24  14  25  14  26  14  27   8  28   8  29   8  30   8  31   8
M  ISO  4  32   8  33   8  34   8  35   8
M  END
>  <minimizedAffinity>  (1) 
-3.96843863

>  <minimizedRMSD>  (1) 
0.564788222

$$$$
