
     RDKit          3D

 39 41  0  0  1  0  0  0  0  0999 V2000
   39.1740   24.1970   34.5330 C   0  0  1  0  0  0  0  0  0  0  0  0
   37.9400   23.9590   33.7710 C   0  0  0  0  0  0  0  0  0  0  0  0
   38.0510   24.8700   32.5670 C   0  0  0  0  0  0  0  0  0  0  0  0
   39.1900   25.8240   32.8380 C   0  0  0  0  0  0  0  0  0  0  0  0
   39.4630   25.6700   34.3140 C   0  0  2  0  0  0  0  0  0  0  0  0
   39.8100   22.7670   37.8680 C   0  0  0  0  0  0  0  0  0  0  0  0
   38.7980   23.3790   38.6740 C   0  0  0  0  0  0  0  0  0  0  0  0
   37.9000   24.2750   38.0580 C   0  0  0  0  0  0  0  0  0  0  0  0
   38.0740   24.4880   36.7250 N   0  0  0  0  0  0  0  0  0  0  0  0
   39.0360   23.8970   35.9980 C   0  0  0  0  0  0  0  0  0  0  0  0
   39.9030   23.0360   36.5760 N   0  0  0  0  0  0  0  0  0  0  0  0
   40.8720   26.0340   34.6530 C   0  0  0  0  0  0  0  0  0  0  0  0
   41.9000   25.0050   34.3320 C   0  0  0  0  0  0  0  0  0  0  0  0
   43.2220   25.5220   34.9160 C   0  0  0  0  0  0  0  0  0  0  0  0
   43.6890   26.6870   34.0890 C   0  0  0  0  0  0  0  0  0  0  0  0
   42.5760   27.2370   33.2650 C   0  0  0  0  0  0  0  0  0  0  0  0
   41.2530   27.3090   33.9660 C   0  0  0  0  0  0  0  0  0  0  0  0
   39.9818   23.5328   34.1921 H   0  0  0  0  0  0  0  0  0  0  0  0
   37.8748   22.9068   33.4568 H   0  0  0  0  0  0  0  0  0  0  0  0
   37.0374   24.1629   34.3657 H   0  0  0  0  0  0  0  0  0  0  0  0
   37.1141   25.4298   32.4293 H   0  0  0  0  0  0  0  0  0  0  0  0
   38.2352   24.2892   31.6512 H   0  0  0  0  0  0  0  0  0  0  0  0
   40.0765   25.5501   32.2472 H   0  0  0  0  0  0  0  0  0  0  0  0
   38.9447   26.8602   32.5621 H   0  0  0  0  0  0  0  0  0  0  0  0
   38.8597   26.3301   34.9546 H   0  0  0  0  0  0  0  0  0  0  0  0
   40.5196   22.0639   38.3287 H   0  0  0  0  0  0  0  0  0  0  0  0
   38.7224   23.1558   39.7485 H   0  0  0  0  0  0  0  0  0  0  0  0
   37.1011   24.7754   38.6249 H   0  0  0  0  0  0  0  0  0  0  0  0
   40.8701   26.1350   35.7484 H   0  0  0  0  0  0  0  0  0  0  0  0
   41.6315   24.0419   34.7907 H   0  0  0  0  0  0  0  0  0  0  0  0
   41.9782   24.8420   33.2470 H   0  0  0  0  0  0  0  0  0  0  0  0
   43.0666   25.8446   35.9561 H   0  0  0  0  0  0  0  0  0  0  0  0
   43.9778   24.7229   34.8998 H   0  0  0  0  0  0  0  0  0  0  0  0
   44.0649   27.4752   34.7578 H   0  0  0  0  0  0  0  0  0  0  0  0
   44.4864   26.3410   33.4148 H   0  0  0  0  0  0  0  0  0  0  0  0
   42.4589   26.5980   32.3773 H   0  0  0  0  0  0  0  0  0  0  0  0
   42.8540   28.2726   33.0197 H   0  0  0  0  0  0  0  0  0  0  0  0
   41.3008   28.1096   34.7189 H   0  0  0  0  0  0  0  0  0  0  0  0
   40.4897   27.5040   33.1983 H   0  0  0  0  0  0  0  0  0  0  0  0
  1 10  1  0
  2  1  1  0
  3  4  1  0
  3  2  1  0
  4  5  1  0
  5  1  1  0
  5 12  1  0
  6  7  2  0
  8  7  1  0
  9  8  2  0
 10 11  2  0
 10  9  1  0
 11  6  1  0
 13 12  1  0
 13 14  1  0
 15 14  1  0
 16 17  1  0
 16 15  1  0
 17 12  1  0
  1 18  1  6
  2 19  1  0
  2 20  1  0
  3 21  1  0
  3 22  1  0
  4 23  1  0
  4 24  1  0
  5 25  1  1
  6 26  1  0
  7 27  1  0
  8 28  1  0
 12 29  1  0
 13 30  1  0
 13 31  1  0
 14 32  1  0
 14 33  1  0
 15 34  1  0
 15 35  1  0
 16 36  1  0
 16 37  1  0
 17 38  1  0
 17 39  1  0
M  ISO  8  18  13  19  13  20  13  21  13  22  13  23  13  24  13  25  13
M  ISO  8  26  14  27  14  28  14  29  13  30  13  31  13  32  13  33  13
M  ISO  6  34  13  35  13  36  13  37  13  38  13  39  13
M  END
>  <minimizedAffinity>  (1) 
-4.37316656

>  <minimizedRMSD>  (1) 
1.70886183

$$$$
