
     RDKit          3D

 29 32  0  0  0  0  0  0  0  0999 V2000
   38.6470   24.6330   34.7890 N   0  0  0  0  0  0  0  0  0  0  0  0
   39.6080   23.8660   34.1810 C   0  0  0  0  0  0  0  0  0  0  0  0
   40.1510   23.0360   35.1230 N   0  0  0  0  0  0  0  0  0  0  0  0
   39.5420   23.2840   36.2810 C   0  0  0  0  0  0  0  0  0  0  0  0
   39.6300   22.8020   37.5610 C   0  0  0  0  0  0  0  0  0  0  0  0
   38.8630   23.2420   38.6030 N   0  0  0  0  0  0  0  0  0  0  0  0
   37.9430   24.2300   38.3630 C   0  0  0  0  0  0  0  0  0  0  0  0
   37.8410   24.7180   37.1160 N   0  0  0  0  0  0  0  0  0  0  0  0
   38.5950   24.2800   36.0980 C   0  0  0  0  0  0  0  0  0  0  0  0
   37.6680   26.8480   34.7900 C   0  0  0  0  0  0  0  0  0  0  0  0
   37.8710   25.6140   34.1100 C   0  0  0  0  0  0  0  0  0  0  0  0
   37.3060   25.4540   32.8550 C   0  0  0  0  0  0  0  0  0  0  0  0
   36.5830   26.4970   32.3350 N   0  0  0  0  0  0  0  0  0  0  0  0
   36.4100   27.6440   32.9950 C   0  0  0  0  0  0  0  0  0  0  0  0
   36.9470   27.8100   34.2060 N   0  0  0  0  0  0  0  0  0  0  0  0
   35.6580   28.7220   32.4510 N   0  0  0  0  0  0  0  0  0  0  0  0
   34.4760   29.2940   32.7410 C   0  0  0  0  0  0  0  0  0  0  0  0
   34.2760   30.2990   31.8600 N   0  0  0  0  0  0  0  0  0  0  0  0
   35.3240   30.3530   31.0280 C   0  0  0  0  0  0  0  0  0  0  0  0
   36.1770   29.3710   31.4020 N   0  0  0  0  0  0  0  0  0  0  0  0
   40.5660   21.7770   37.8690 N   0  0  0  0  0  0  0  0  0  0  0  0
   39.8928   23.9106   33.1194 H   0  0  0  0  0  0  0  0  0  0  0  0
   37.3041   24.6135   39.1721 H   0  0  0  0  0  0  0  0  0  0  0  0
   38.1011   27.0086   35.7883 H   0  0  0  0  0  0  0  0  0  0  0  0
   37.4336   24.5176   32.2921 H   0  0  0  0  0  0  0  0  0  0  0  0
   33.7936   28.9968   33.5509 H   0  0  0  0  0  0  0  0  0  0  0  0
   35.4648   31.0611   30.1981 H   0  0  0  0  0  0  0  0  0  0  0  0
   40.6338   21.4134   38.8303 H   0  0  0  0  0  0  0  0  0  0  0  0
   41.1763   21.3981   37.1308 H   0  0  0  0  0  0  0  0  0  0  0  0
  1  9  1  0
  2  1  1  0
  2  3  2  0
  3  4  1  0
  4  5  2  0
  5 21  1  0
  5  6  1  0
  7  6  2  0
  8  7  1  0
  9  4  1  0
  9  8  2  0
 11  1  1  0
 11 10  2  0
 12 11  1  0
 13 12  2  0
 13 14  1  0
 14 15  2  0
 15 10  1  0
 16 17  1  0
 16 14  1  0
 18 17  2  0
 19 20  2  0
 19 18  1  0
 20 16  1  0
  2 22  1  0
  7 23  1  0
 10 24  1  0
 12 25  1  0
 17 26  1  0
 19 27  1  0
 21 28  1  0
 21 29  1  0
M  ISO  6  22  14  23  14  24  14  25  14  26  14  27  14
M  END
>  <minimizedAffinity>  (1) 
-6.13142061

>  <minimizedRMSD>  (1) 
0.58248961

$$$$
