
     RDKit          3D

 40 42  0  0  1  0  0  0  0  0999 V2000
   36.1550   29.4690   32.4500 C   0  0  0  0  0  0  0  0  0  0  0  0
   36.8620   28.4910   31.8040 C   0  0  0  0  0  0  0  0  0  0  0  0
   37.2260   27.3590   32.5290 C   0  0  0  0  0  0  0  0  0  0  0  0
   36.8820   27.2370   33.8490 C   0  0  0  0  0  0  0  0  0  0  0  0
   36.1740   28.2140   34.5010 C   0  0  0  0  0  0  0  0  0  0  0  0
   35.8050   29.3400   33.8000 C   0  0  0  0  0  0  0  0  0  0  0  0
   37.3560   25.9680   34.4490 C   0  0  0  0  0  0  0  0  0  0  0  0
   38.7710   26.0130   34.9060 C   0  0  2  0  0  0  0  0  0  0  0  0
   40.7350   23.1680   36.1310 C   0  0  0  0  0  0  0  0  0  0  0  0
   39.9430   22.6480   37.1860 C   0  0  0  0  0  0  0  0  0  0  0  0
   38.7170   23.2900   37.4750 C   0  0  0  0  0  0  0  0  0  0  0  0
   38.3810   24.3760   36.7070 N   0  0  0  0  0  0  0  0  0  0  0  0
   39.1720   24.8340   35.7080 C   0  0  0  0  0  0  0  0  0  0  0  0
   40.3420   24.2480   35.4080 N   0  0  0  0  0  0  0  0  0  0  0  0
   38.9450   27.2590   35.7900 C   0  0  0  0  0  0  0  0  0  0  0  0
   35.6860   30.9020   31.5570 S   0  0  0  0  0  0  0  0  0  0  0  0
   36.2570   30.7620   30.1520 O   0  0  0  0  0  0  0  0  0  0  0  0
   36.2640   32.1390   32.1710 O   0  0  0  0  0  0  0  0  0  0  0  0
   33.9550   31.0410   31.4770 C   0  0  0  0  0  0  0  0  0  0  0  0
   32.9390   30.5710   32.2200 N   0  0  0  0  0  0  0  0  0  0  0  0
   31.8000   30.9650   31.7320 O   0  0  0  0  0  0  0  0  0  0  0  0
   32.0190   31.7000   30.6650 C   0  0  0  0  0  0  0  0  0  0  0  0
   33.3390   31.7460   30.5090 N   0  0  0  0  0  0  0  0  0  0  0  0
   30.9600   32.3380   29.8250 C   0  0  0  0  0  0  0  0  0  0  0  0
   31.3480   33.5850   29.4000 F   0  0  0  0  0  0  0  0  0  0  0  0
   30.6610   31.5290   28.7340 F   0  0  0  0  0  0  0  0  0  0  0  0
   29.8400   32.4550   30.6140 F   0  0  0  0  0  0  0  0  0  0  0  0
   37.1346   28.5961   30.7435 H   0  0  0  0  0  0  0  0  0  0  0  0
   37.7947   26.5560   32.0372 H   0  0  0  0  0  0  0  0  0  0  0  0
   35.9065   28.1003   35.5619 H   0  0  0  0  0  0  0  0  0  0  0  0
   35.2358   30.1376   34.2997 H   0  0  0  0  0  0  0  0  0  0  0  0
   36.7190   25.7342   35.3148 H   0  0  0  0  0  0  0  0  0  0  0  0
   37.2966   25.1999   33.6638 H   0  0  0  0  0  0  0  0  0  0  0  0
   39.4024   26.0307   34.0054 H   0  0  0  0  0  0  0  0  0  0  0  0
   41.6932   22.6836   35.8920 H   0  0  0  0  0  0  0  0  0  0  0  0
   40.2727   21.7711   37.7625 H   0  0  0  0  0  0  0  0  0  0  0  0
   38.0599   22.9336   38.2820 H   0  0  0  0  0  0  0  0  0  0  0  0
   38.9040   26.9656   36.8494 H   0  0  0  0  0  0  0  0  0  0  0  0
   39.9172   27.7272   35.5765 H   0  0  0  0  0  0  0  0  0  0  0  0
   38.1382   27.9756   35.5765 H   0  0  0  0  0  0  0  0  0  0  0  0
  1  6  1  0
  2  1  2  0
  2  3  1  0
  3  4  2  0
  4  7  1  0
  4  5  1  0
  6  5  2  0
  7  8  1  0
  8 13  1  0
  8 15  1  0
  9 10  2  0
 10 11  1  0
 12 11  2  0
 13 12  1  0
 14 13  2  0
 14  9  1  0
 16 18  2  0
 16  1  1  0
 17 16  2  0
 19 16  1  0
 19 20  2  0
 21 20  1  0
 22 21  1  0
 23 22  2  0
 23 19  1  0
 24 27  1  0
 24 22  1  0
 25 24  1  0
 26 24  1  0
  2 28  1  0
  3 29  1  0
  5 30  1  0
  6 31  1  0
  7 32  1  0
  7 33  1  0
  8 34  1  6
  9 35  1  0
 10 36  1  0
 11 37  1  0
 15 38  1  0
 15 39  1  0
 15 40  1  0
M  ISO  8  28  14  29  14  30  14  31  14  32   8  33   8  34   8  35  14
M  ISO  5  36  14  37  14  38   8  39   8  40   8
M  END
>  <minimizedAffinity>  (1) 
-5.19973326

>  <minimizedRMSD>  (1) 
0.681122482

$$$$
