
     RDKit          3D

 33 36  0  0  0  0  0  0  0  0999 V2000
   37.7280   26.9410   34.8830 C   0  0  0  0  0  0  0  0  0  0  0  0
   37.8900   25.7160   34.2060 C   0  0  0  0  0  0  0  0  0  0  0  0
   37.2920   25.5550   32.9600 C   0  0  0  0  0  0  0  0  0  0  0  0
   36.5710   26.6030   32.4530 N   0  0  0  0  0  0  0  0  0  0  0  0
   36.4270   27.7560   33.1050 C   0  0  0  0  0  0  0  0  0  0  0  0
   37.0010   27.9190   34.3070 N   0  0  0  0  0  0  0  0  0  0  0  0
   38.6670   24.7180   34.8550 N   0  0  0  0  0  0  0  0  0  0  0  0
   39.6360   23.9640   34.2390 C   0  0  0  0  0  0  0  0  0  0  0  0
   40.1720   23.1130   35.1600 N   0  0  0  0  0  0  0  0  0  0  0  0
   39.5570   23.3290   36.3120 C   0  0  0  0  0  0  0  0  0  0  0  0
   39.6380   22.8080   37.5900 C   0  0  0  0  0  0  0  0  0  0  0  0
   38.8590   23.2250   38.6300 N   0  0  0  0  0  0  0  0  0  0  0  0
   37.9450   24.2120   38.4070 C   0  0  0  0  0  0  0  0  0  0  0  0
   37.8470   24.7350   37.1720 N   0  0  0  0  0  0  0  0  0  0  0  0
   38.6100   24.3250   36.1600 C   0  0  0  0  0  0  0  0  0  0  0  0
   40.5700   21.7780   37.8800 N   0  0  0  0  0  0  0  0  0  0  0  0
   35.6490   28.8560   32.5330 C   0  0  0  0  0  0  0  0  0  0  0  0
   36.2040   29.5890   31.4800 C   0  0  0  0  0  0  0  0  0  0  0  0
   35.4570   30.6360   30.9400 C   0  0  0  0  0  0  0  0  0  0  0  0
   34.2020   30.9550   31.4210 C   0  0  0  0  0  0  0  0  0  0  0  0
   33.6580   30.2280   32.4600 C   0  0  0  0  0  0  0  0  0  0  0  0
   34.3940   29.1790   33.0100 C   0  0  0  0  0  0  0  0  0  0  0  0
   38.1891   27.0973   35.8694 H   0  0  0  0  0  0  0  0  0  0  0  0
   37.3953   24.6143   32.3992 H   0  0  0  0  0  0  0  0  0  0  0  0
   39.9300   24.0347   33.1814 H   0  0  0  0  0  0  0  0  0  0  0  0
   37.3002   24.5735   39.2216 H   0  0  0  0  0  0  0  0  0  0  0  0
   40.6295   21.3905   38.8325 H   0  0  0  0  0  0  0  0  0  0  0  0
   41.1870   21.4178   37.1380 H   0  0  0  0  0  0  0  0  0  0  0  0
   37.2028   29.3467   31.0878 H   0  0  0  0  0  0  0  0  0  0  0  0
   35.8780   31.2225   30.1101 H   0  0  0  0  0  0  0  0  0  0  0  0
   33.6370   31.7875   30.9763 H   0  0  0  0  0  0  0  0  0  0  0  0
   32.6584   30.4723   32.8487 H   0  0  0  0  0  0  0  0  0  0  0  0
   33.9665   28.5974   33.8401 H   0  0  0  0  0  0  0  0  0  0  0  0
  2  7  1  0
  2  1  2  0
  3  2  1  0
  4  3  2  0
  4  5  1  0
  5  6  2  0
  6  1  1  0
  7 15  1  0
  8  7  1  0
  8  9  2  0
  9 10  1  0
 10 11  2  0
 11 16  1  0
 11 12  1  0
 13 12  2  0
 14 13  1  0
 15 10  1  0
 15 14  2  0
 17 22  1  0
 17  5  1  0
 18 17  2  0
 19 20  2  0
 19 18  1  0
 20 21  1  0
 21 22  2  0
  1 23  1  0
  3 24  1  0
  8 25  1  0
 13 26  1  0
 16 27  1  0
 16 28  1  0
 18 29  1  0
 19 30  1  0
 20 31  1  0
 21 32  1  0
 22 33  1  0
M  ISO  8  23  14  24  14  25  14  26  14  29  14  30  14  31  14  32  14
M  ISO  1  33  14
M  END
>  <minimizedAffinity>  (1) 
-6.12983942

>  <minimizedRMSD>  (1) 
0.817743719

$$$$
