
     RDKit          3D

 41 43  0  0  1  0  0  0  0  0999 V2000
   38.0100   25.5520   34.5060 C   0  0  1  0  0  0  0  0  0  0  0  0
   38.7490   26.8120   34.4800 C   0  0  0  0  0  0  0  0  0  0  0  0
   38.6840   27.2540   33.0280 C   0  0  0  0  0  0  0  0  0  0  0  0
   38.2230   26.0630   32.2310 C   0  0  0  0  0  0  0  0  0  0  0  0
   38.3550   24.8890   33.1750 C   0  0  2  0  0  0  0  0  0  0  0  0
   37.3920   23.8010   32.8360 C   0  0  1  0  0  0  0  0  0  0  0  0
   36.4000   24.0810   31.7800 C   0  0  0  0  0  0  0  0  0  0  0  0
   35.4540   22.8550   31.7780 C   0  0  0  0  0  0  0  0  0  0  0  0
   36.1750   21.7100   31.1510 C   0  0  0  0  0  0  0  0  0  0  0  0
   37.6530   21.9260   31.1920 C   0  0  0  0  0  0  0  0  0  0  0  0
   38.1630   22.5660   32.4560 C   0  0  2  0  0  0  0  0  0  0  0  0
   37.9970   21.5300   33.5380 C   0  0  0  0  0  0  0  0  0  0  0  0
   37.2880   21.6710   34.5170 O   0  0  0  0  0  0  0  0  0  0  0  0
   37.9130   23.6950   37.6940 C   0  0  0  0  0  0  0  0  0  0  0  0
   39.1750   23.0010   37.6930 C   0  0  0  0  0  0  0  0  0  0  0  0
   40.0490   23.1800   36.5930 C   0  0  0  0  0  0  0  0  0  0  0  0
   39.6130   24.0110   35.6100 N   0  0  0  0  0  0  0  0  0  0  0  0
   38.4210   24.6490   35.6410 C   0  0  0  0  0  0  0  0  0  0  0  0
   37.5750   24.4830   36.6890 N   0  0  0  0  0  0  0  0  0  0  0  0
   36.9352   25.7348   34.6524 H   0  0  0  0  0  0  0  0  0  0  0  0
   38.2737   27.5563   35.1358 H   0  0  0  0  0  0  0  0  0  0  0  0
   39.7824   26.7012   34.8402 H   0  0  0  0  0  0  0  0  0  0  0  0
   37.9704   28.0836   32.9163 H   0  0  0  0  0  0  0  0  0  0  0  0
   39.6655   27.6068   32.6785 H   0  0  0  0  0  0  0  0  0  0  0  0
   37.1770   26.1900   31.9151 H   0  0  0  0  0  0  0  0  0  0  0  0
   38.8134   25.9250   31.3132 H   0  0  0  0  0  0  0  0  0  0  0  0
   39.3378   24.3955   33.1540 H   0  0  0  0  0  0  0  0  0  0  0  0
   36.7927   23.6798   33.7504 H   0  0  0  0  0  0  0  0  0  0  0  0
   35.8405   24.9998   32.0098 H   0  0  0  0  0  0  0  0  0  0  0  0
   36.8748   24.2362   30.7999 H   0  0  0  0  0  0  0  0  0  0  0  0
   35.1749   22.5986   32.8106 H   0  0  0  0  0  0  0  0  0  0  0  0
   34.5386   23.0828   31.2122 H   0  0  0  0  0  0  0  0  0  0  0  0
   35.8540   21.6120   30.1035 H   0  0  0  0  0  0  0  0  0  0  0  0
   35.9372   20.7943   31.7121 H   0  0  0  0  0  0  0  0  0  0  0  0
   38.1449   20.9484   31.0809 H   0  0  0  0  0  0  0  0  0  0  0  0
   37.8865   22.6248   30.3752 H   0  0  0  0  0  0  0  0  0  0  0  0
   39.2068   22.8827   32.3137 H   0  0  0  0  0  0  0  0  0  0  0  0
   38.5523   20.5859   33.4363 H   0  0  0  0  0  0  0  0  0  0  0  0
   37.2229   23.5675   38.5410 H   0  0  0  0  0  0  0  0  0  0  0  0
   39.4546   22.3447   38.5303 H   0  0  0  0  0  0  0  0  0  0  0  0
   41.0248   22.6753   36.5375 H   0  0  0  0  0  0  0  0  0  0  0  0
  1 18  1  0
  2  1  1  0
  3  2  1  0
  4  3  1  0
  4  5  1  0
  5  1  1  0
  6  5  1  0
  7  6  1  0
  8  7  1  0
  9 10  1  0
  9  8  1  0
 10 11  1  0
 11  6  1  0
 11 12  1  0
 12 13  2  0
 15 14  2  0
 16 15  1  0
 17 18  1  0
 17 16  2  0
 18 19  2  0
 19 14  1  0
  1 20  1  6
  2 21  1  0
  2 22  1  0
  3 23  1  0
  3 24  1  0
  4 25  1  0
  4 26  1  0
  5 27  1  1
  6 28  1  1
  7 29  1  0
  7 30  1  0
  8 31  1  0
  8 32  1  0
  9 33  1  0
  9 34  1  0
 10 35  1  0
 10 36  1  0
 11 37  1  6
 12 38  1  0
 14 39  1  0
 15 40  1  0
 16 41  1  0
M  ISO  8  20  13  21  13  22  13  23  13  24  13  25  13  26  13  27  13
M  ISO  8  28  13  29  13  30  13  31  13  32  13  33  13  34  13  35  13
M  ISO  6  36  13  37  13  38   6  39  14  40  14  41  14
M  END
>  <minimizedAffinity>  (1) 
-4.63105202

>  <minimizedRMSD>  (1) 
5.06568956

$$$$
