
     RDKit          3D

 42 44  0  0  1  0  0  0  0  0999 V2000
   38.1800   22.3640   34.4000 C   0  0  1  0  0  0  0  0  0  0  0  0
   37.0540   21.4520   34.2120 C   0  0  0  0  0  0  0  0  0  0  0  0
   36.5150   21.7900   32.8410 C   0  0  0  0  0  0  0  0  0  0  0  0
   37.1550   23.0930   32.4230 C   0  0  0  0  0  0  0  0  0  0  0  0
   37.7460   23.6470   33.6960 C   0  0  2  0  0  0  0  0  0  0  0  0
   38.9010   24.5430   33.4180 C   0  0  1  0  0  0  0  0  0  0  0  0
   39.3840   24.6120   32.0240 C   0  0  0  0  0  0  0  0  0  0  0  0
   40.6660   25.4710   32.0620 C   0  0  0  0  0  0  0  0  0  0  0  0
   40.3060   26.8920   32.3430 C   0  0  0  0  0  0  0  0  0  0  0  0
   38.9210   26.9930   32.8680 C   0  0  0  0  0  0  0  0  0  0  0  0
   38.5710   25.9360   33.8840 C   0  0  2  0  0  0  0  0  0  0  0  0
   39.3010   26.1720   35.2050 C   0  0  0  0  0  0  0  0  0  0  0  0
   39.6790   27.5160   35.1900 F   0  0  0  0  0  0  0  0  0  0  0  0
   38.4750   26.0330   36.2940 F   0  0  0  0  0  0  0  0  0  0  0  0
   40.4250   25.4150   35.3210 F   0  0  0  0  0  0  0  0  0  0  0  0
   40.0220   22.7330   37.5730 C   0  0  0  0  0  0  0  0  0  0  0  0
   39.0070   23.1990   38.4820 C   0  0  0  0  0  0  0  0  0  0  0  0
   37.7010   23.3790   37.9890 C   0  0  0  0  0  0  0  0  0  0  0  0
   37.5030   23.0930   36.6710 N   0  0  0  0  0  0  0  0  0  0  0  0
   38.4830   22.6550   35.8460 C   0  0  0  0  0  0  0  0  0  0  0  0
   39.7450   22.4780   36.3060 N   0  0  0  0  0  0  0  0  0  0  0  0
   39.1036   21.9209   33.9993 H   0  0  0  0  0  0  0  0  0  0  0  0
   37.3912   20.4056   34.2497 H   0  0  0  0  0  0  0  0  0  0  0  0
   36.2926   21.5613   34.9984 H   0  0  0  0  0  0  0  0  0  0  0  0
   36.7751   20.9952   32.1264 H   0  0  0  0  0  0  0  0  0  0  0  0
   35.4189   21.8802   32.8617 H   0  0  0  0  0  0  0  0  0  0  0  0
   37.9406   22.9178   31.6733 H   0  0  0  0  0  0  0  0  0  0  0  0
   36.4351   23.7838   31.9599 H   0  0  0  0  0  0  0  0  0  0  0  0
   37.0563   24.2713   34.2830 H   0  0  0  0  0  0  0  0  0  0  0  0
   39.7315   24.0835   33.9740 H   0  0  0  0  0  0  0  0  0  0  0  0
   38.6269   25.0829   31.3797 H   0  0  0  0  0  0  0  0  0  0  0  0
   39.5814   23.6101   31.6151 H   0  0  0  0  0  0  0  0  0  0  0  0
   41.3333   25.0987   32.8533 H   0  0  0  0  0  0  0  0  0  0  0  0
   41.1778   25.4082   31.0903 H   0  0  0  0  0  0  0  0  0  0  0  0
   41.0045   27.3000   33.0884 H   0  0  0  0  0  0  0  0  0  0  0  0
   40.3691   27.4630   31.4049 H   0  0  0  0  0  0  0  0  0  0  0  0
   38.8012   27.9794   33.3400 H   0  0  0  0  0  0  0  0  0  0  0  0
   38.2453   26.8475   32.0123 H   0  0  0  0  0  0  0  0  0  0  0  0
   37.4829   26.0174   34.0232 H   0  0  0  0  0  0  0  0  0  0  0  0
   41.0484   22.5863   37.9404 H   0  0  0  0  0  0  0  0  0  0  0  0
   39.2463   23.4090   39.5349 H   0  0  0  0  0  0  0  0  0  0  0  0
   36.8827   23.7321   38.6337 H   0  0  0  0  0  0  0  0  0  0  0  0
  1 20  1  0
  2  1  1  0
  3  2  1  0
  4  3  1  0
  4  5  1  0
  5  1  1  0
  6  5  1  0
  6 11  1  0
  7  8  1  0
  7  6  1  0
  8  9  1  0
  9 10  1  0
 10 11  1  0
 11 12  1  0
 12 15  1  0
 12 14  1  0
 13 12  1  0
 16 17  2  0
 18 17  1  0
 19 18  2  0
 20 21  2  0
 20 19  1  0
 21 16  1  0
  1 22  1  6
  2 23  1  0
  2 24  1  0
  3 25  1  0
  3 26  1  0
  4 27  1  0
  4 28  1  0
  5 29  1  1
  6 30  1  1
  7 31  1  0
  7 32  1  0
  8 33  1  0
  8 34  1  0
  9 35  1  0
  9 36  1  0
 10 37  1  0
 10 38  1  0
 11 39  1  1
 16 40  1  0
 17 41  1  0
 18 42  1  0
M  ISO  8  22  13  23  13  24  13  25  13  26  13  27  13  28  13  29  13
M  ISO  8  30  13  31  13  32  13  33  13  34  13  35  13  36  13  37  13
M  ISO  5  38  13  39  13  40  14  41  14  42  14
M  END
>  <minimizedAffinity>  (1) 
-5.07394266

>  <minimizedRMSD>  (1) 
2.73362565

$$$$
