
     RDKit          3D

 20 20  0  0  0  0  0  0  0  0999 V2000
   39.3390   21.6010   33.1990 C   0  0  0  0  0  0  0  0  0  0  0  0
   39.5970   22.3230   34.3600 C   0  0  0  0  0  0  0  0  0  0  0  0
   38.5510   22.4790   35.2680 C   0  0  0  0  0  0  0  0  0  0  0  0
   37.3490   21.9230   34.9720 N   0  0  0  0  0  0  0  0  0  0  0  0
   37.1440   21.2350   33.8420 C   0  0  0  0  0  0  0  0  0  0  0  0
   38.1390   21.0700   32.9470 N   0  0  0  0  0  0  0  0  0  0  0  0
   38.7420   23.2110   36.4850 N   0  0  0  0  0  0  0  0  0  0  0  0
   39.4680   22.6260   37.5580 C   0  0  0  0  0  0  0  0  0  0  0  0
   40.3960   21.7740   37.3070 N   0  0  0  0  0  0  0  0  0  0  0  0
   39.1540   22.9970   38.8990 N   0  0  0  0  0  0  0  0  0  0  0  0
   40.9250   21.3490   38.1060 H   0  0  0  0  0  0  0  0  0  0  0  0
   35.7470   20.7200   33.7360 C   0  0  0  0  0  0  0  0  0  0  0  0
   35.1280   20.7090   34.9890 F   0  0  0  0  0  0  0  0  0  0  0  0
   35.7070   19.4510   33.2140 F   0  0  0  0  0  0  0  0  0  0  0  0
   35.0150   21.5340   32.8780 F   0  0  0  0  0  0  0  0  0  0  0  0
   40.1476   21.4631   32.4661 H   0  0  0  0  0  0  0  0  0  0  0  0
   40.5899   22.7548   34.5542 H   0  0  0  0  0  0  0  0  0  0  0  0
   38.3537   24.1600   36.5822 H   0  0  0  0  0  0  0  0  0  0  0  0
   39.6737   22.5793   39.6840 H   0  0  0  0  0  0  0  0  0  0  0  0
   38.4075   23.6826   39.0823 H   0  0  0  0  0  0  0  0  0  0  0  0
  1  2  2  0
  2  3  1  0
  3  7  1  0
  4  3  2  0
  5  4  1  0
  6  1  1  0
  6  5  2  0
  7  8  1  0
  8 10  1  0
  9  8  2  0
  9 11  1  0
 12  5  1  0
 12 13  1  0
 14 12  1  0
 15 12  1  0
  1 16  1  0
  2 17  1  0
  7 18  1  0
 10 19  1  0
 10 20  1  0
M  ISO  2  16  14  17  14
M  END
>  <minimizedAffinity>  (1) 
-4.78551912

>  <minimizedRMSD>  (1) 
3.5771513

$$$$
