
     RDKit          3D

 23 24  0  0  0  0  0  0  0  0999 V2000
   38.2190   23.4310   38.1100 C   0  0  0  0  0  0  0  0  0  0  0  0
   37.4190   23.0600   37.0160 C   0  0  0  0  0  0  0  0  0  0  0  0
   38.0230   22.3390   36.0020 C   0  0  0  0  0  0  0  0  0  0  0  0
   39.3370   22.0380   36.1240 N   0  0  0  0  0  0  0  0  0  0  0  0
   40.0750   22.4020   37.1760 C   0  0  0  0  0  0  0  0  0  0  0  0
   39.5120   23.1060   38.1810 N   0  0  0  0  0  0  0  0  0  0  0  0
   37.2730   21.9140   34.8320 C   0  0  0  0  0  0  0  0  0  0  0  0
   37.4980   22.3660   33.5530 C   0  0  0  0  0  0  0  0  0  0  0  0
   36.7680   21.9430   32.4600 C   0  0  0  0  0  0  0  0  0  0  0  0
   35.7530   21.0130   32.6530 C   0  0  0  0  0  0  0  0  0  0  0  0
   35.4970   20.5350   33.9190 C   0  0  0  0  0  0  0  0  0  0  0  0
   36.2580   20.9920   34.9790 C   0  0  0  0  0  0  0  0  0  0  0  0
   41.4840   21.9450   37.0610 C   0  0  0  0  0  0  0  0  0  0  0  0
   41.8150   21.0560   38.0860 F   0  0  0  0  0  0  0  0  0  0  0  0
   42.3680   23.0110   37.1300 F   0  0  0  0  0  0  0  0  0  0  0  0
   41.6800   21.3210   35.8410 F   0  0  0  0  0  0  0  0  0  0  0  0
   37.7669   24.0058   38.9317 H   0  0  0  0  0  0  0  0  0  0  0  0
   36.3543   23.3323   36.9680 H   0  0  0  0  0  0  0  0  0  0  0  0
   38.2999   23.1016   33.3925 H   0  0  0  0  0  0  0  0  0  0  0  0
   36.9855   22.3346   31.4553 H   0  0  0  0  0  0  0  0  0  0  0  0
   35.1569   20.6604   31.7984 H   0  0  0  0  0  0  0  0  0  0  0  0
   34.6968   19.7986   34.0848 H   0  0  0  0  0  0  0  0  0  0  0  0
   36.0442   20.6025   35.9853 H   0  0  0  0  0  0  0  0  0  0  0  0
  1  6  2  0
  2  1  1  0
  3  4  1  0
  3  2  2  0
  4  5  2  0
  5  6  1  0
  7 12  1  0
  7  3  1  0
  8  7  2  0
  9 10  2  0
  9  8  1  0
 10 11  1  0
 11 12  2  0
 13 15  1  0
 13  5  1  0
 13 14  1  0
 16 13  1  0
  1 17  1  0
  2 18  1  0
  8 19  1  0
  9 20  1  0
 10 21  1  0
 11 22  1  0
 12 23  1  0
M  ISO  7  17  14  18  14  19  14  20  14  21  14  22  14  23  14
M  END
>  <minimizedAffinity>  (1) 
-4.85253143

>  <minimizedRMSD>  (1) 
5.13259506

$$$$
