
     RDKit          3D

 30 33  0  0  0  0  0  0  0  0999 V2000
   37.6820   26.9280   34.9000 C   0  0  0  0  0  0  0  0  0  0  0  0
   37.8930   25.7050   34.1990 C   0  0  0  0  0  0  0  0  0  0  0  0
   37.3160   25.5610   32.9450 C   0  0  0  0  0  0  0  0  0  0  0  0
   36.5690   26.5980   32.4360 N   0  0  0  0  0  0  0  0  0  0  0  0
   36.3940   27.7420   33.1360 C   0  0  0  0  0  0  0  0  0  0  0  0
   36.9430   27.8960   34.3410 N   0  0  0  0  0  0  0  0  0  0  0  0
   35.6220   28.8170   32.6110 N   0  0  0  0  0  0  0  0  0  0  0  0
   34.4990   29.2520   33.1750 N   0  0  0  0  0  0  0  0  0  0  0  0
   34.0000   30.2850   32.4380 C   0  0  0  0  0  0  0  0  0  0  0  0
   34.8810   30.4780   31.3700 C   0  0  0  0  0  0  0  0  0  0  0  0
   35.9030   29.5330   31.5050 C   0  0  0  0  0  0  0  0  0  0  0  0
   38.6850   24.7040   34.8350 N   0  0  0  0  0  0  0  0  0  0  0  0
   39.6450   23.9690   34.2280 C   0  0  0  0  0  0  0  0  0  0  0  0
   40.1750   23.1240   35.1640 N   0  0  0  0  0  0  0  0  0  0  0  0
   39.5590   23.3300   36.3200 C   0  0  0  0  0  0  0  0  0  0  0  0
   39.6360   22.8150   37.5900 C   0  0  0  0  0  0  0  0  0  0  0  0
   38.8520   23.2250   38.6360 N   0  0  0  0  0  0  0  0  0  0  0  0
   37.9390   24.2030   38.4040 C   0  0  0  0  0  0  0  0  0  0  0  0
   37.8350   24.7320   37.1730 N   0  0  0  0  0  0  0  0  0  0  0  0
   38.6090   24.3240   36.1480 C   0  0  0  0  0  0  0  0  0  0  0  0
   40.5820   21.7860   37.8740 N   0  0  0  0  0  0  0  0  0  0  0  0
   38.1242   27.0767   35.8962 H   0  0  0  0  0  0  0  0  0  0  0  0
   37.4535   24.6343   32.3685 H   0  0  0  0  0  0  0  0  0  0  0  0
   33.0824   30.8556   32.6439 H   0  0  0  0  0  0  0  0  0  0  0  0
   34.7880   31.2311   30.5736 H   0  0  0  0  0  0  0  0  0  0  0  0
   36.7677   29.4002   30.8382 H   0  0  0  0  0  0  0  0  0  0  0  0
   39.9452   24.0384   33.1720 H   0  0  0  0  0  0  0  0  0  0  0  0
   37.2897   24.5594   39.2172 H   0  0  0  0  0  0  0  0  0  0  0  0
   40.6466   21.3938   38.8242 H   0  0  0  0  0  0  0  0  0  0  0  0
   41.2005   21.4351   37.1289 H   0  0  0  0  0  0  0  0  0  0  0  0
  2 12  1  0
  2  1  2  0
  3  2  1  0
  4  3  2  0
  4  5  1  0
  5  6  2  0
  6  1  1  0
  7  5  1  0
  7  8  1  0
  9  8  2  0
 10 11  2  0
 10  9  1  0
 11  7  1  0
 12 20  1  0
 13 12  1  0
 13 14  2  0
 14 15  1  0
 15 16  2  0
 16 21  1  0
 16 17  1  0
 18 17  2  0
 19 18  1  0
 20 15  1  0
 20 19  2  0
  1 22  1  0
  3 23  1  0
  9 24  1  0
 10 25  1  0
 11 26  1  0
 13 27  1  0
 18 28  1  0
 21 29  1  0
 21 30  1  0
M  ISO  7  22  14  23  14  24  14  25  14  26  14  27  14  28  14
M  END
>  <minimizedAffinity>  (1) 
-6.10632706

>  <minimizedRMSD>  (1) 
0.690099537

$$$$
