
     RDKit          3D

 33 36  0  0  0  0  0  0  0  0999 V2000
   37.7710   26.9190   34.7750 C   0  0  0  0  0  0  0  0  0  0  0  0
   37.9000   25.6710   34.1440 C   0  0  0  0  0  0  0  0  0  0  0  0
   37.2680   25.4910   32.9260 C   0  0  0  0  0  0  0  0  0  0  0  0
   36.5530   26.5320   32.4020 N   0  0  0  0  0  0  0  0  0  0  0  0
   36.4460   27.7080   33.0190 C   0  0  0  0  0  0  0  0  0  0  0  0
   37.0530   27.8930   34.1980 N   0  0  0  0  0  0  0  0  0  0  0  0
   38.6760   24.6780   34.8060 N   0  0  0  0  0  0  0  0  0  0  0  0
   39.6400   23.9170   34.2090 C   0  0  0  0  0  0  0  0  0  0  0  0
   40.1660   23.0800   35.1430 N   0  0  0  0  0  0  0  0  0  0  0  0
   39.5460   23.3100   36.3040 C   0  0  0  0  0  0  0  0  0  0  0  0
   39.6210   22.8100   37.5780 C   0  0  0  0  0  0  0  0  0  0  0  0
   38.8400   23.2420   38.6180 N   0  0  0  0  0  0  0  0  0  0  0  0
   37.9400   24.2220   38.3670 C   0  0  0  0  0  0  0  0  0  0  0  0
   37.8440   24.7320   37.1260 N   0  0  0  0  0  0  0  0  0  0  0  0
   38.6170   24.3010   36.1100 C   0  0  0  0  0  0  0  0  0  0  0  0
   40.5600   21.7750   37.8760 N   0  0  0  0  0  0  0  0  0  0  0  0
   35.6770   28.8280   32.4550 C   0  0  0  0  0  0  0  0  0  0  0  0
   34.4160   29.1340   32.9060 C   0  0  0  0  0  0  0  0  0  0  0  0
   33.6350   30.1680   32.4260 C   0  0  0  0  0  0  0  0  0  0  0  0
   34.1820   30.9420   31.4160 C   0  0  0  0  0  0  0  0  0  0  0  0
   35.4560   30.6820   30.9160 C   0  0  0  0  0  0  0  0  0  0  0  0
   36.2060   29.6240   31.4350 C   0  0  0  0  0  0  0  0  0  0  0  0
   38.2598   27.0976   35.7441 H   0  0  0  0  0  0  0  0  0  0  0  0
   37.3393   24.5322   32.3916 H   0  0  0  0  0  0  0  0  0  0  0  0
   39.9401   23.9717   33.1521 H   0  0  0  0  0  0  0  0  0  0  0  0
   37.2920   24.5984   39.1722 H   0  0  0  0  0  0  0  0  0  0  0  0
   40.6215   21.3948   38.8313 H   0  0  0  0  0  0  0  0  0  0  0  0
   41.1754   21.4091   37.1355 H   0  0  0  0  0  0  0  0  0  0  0  0
   33.9969   28.5096   33.7088 H   0  0  0  0  0  0  0  0  0  0  0  0
   32.6296   30.3664   32.8259 H   0  0  0  0  0  0  0  0  0  0  0  0
   33.5995   31.7777   31.0009 H   0  0  0  0  0  0  0  0  0  0  0  0
   35.8710   31.3092   30.1133 H   0  0  0  0  0  0  0  0  0  0  0  0
   37.2121   29.4174   31.0413 H   0  0  0  0  0  0  0  0  0  0  0  0
  2  1  2  0
  2  7  1  0
  3  2  1  0
  4  3  2  0
  4  5  1  0
  5  6  2  0
  6  1  1  0
  7 15  1  0
  8  7  1  0
  8  9  2  0
  9 10  1  0
 10 11  2  0
 11 16  1  0
 11 12  1  0
 13 12  2  0
 14 13  1  0
 15 10  1  0
 15 14  2  0
 17 18  2  0
 17  5  1  0
 19 18  1  0
 20 19  2  0
 21 20  1  0
 21 22  2  0
 22 17  1  0
  1 23  1  0
  3 24  1  0
  8 25  1  0
 13 26  1  0
 16 27  1  0
 16 28  1  0
 18 29  1  0
 19 30  1  0
 20 31  1  0
 21 32  1  0
 22 33  1  0
M  ISO  8  23  14  24  14  25  14  26  14  29  14  30  14  31  14  32  14
M  ISO  1  33  14
M  END
>  <minimizedAffinity>  (1) 
-6.10412502

>  <minimizedRMSD>  (1) 
0.619214416

$$$$
