
     RDKit          3D

 26 28  0  0  0  0  0  0  0  0999 V2000
   44.0310   24.0850   36.6060 C   0  0  0  0  0  0  0  0  0  0  0  0
   42.8340   23.3680   36.5470 C   0  0  0  0  0  0  0  0  0  0  0  0
   41.8520   23.8010   35.6610 C   0  0  0  0  0  0  0  0  0  0  0  0
   42.1090   24.8960   34.9020 N   0  0  0  0  0  0  0  0  0  0  0  0
   43.2750   25.5750   34.9730 C   0  0  0  0  0  0  0  0  0  0  0  0
   44.2340   25.1640   35.8290 N   0  0  0  0  0  0  0  0  0  0  0  0
   40.6050   23.1150   35.5500 N   0  0  0  0  0  0  0  0  0  0  0  0
   40.3080   22.2530   34.5620 C   0  0  0  0  0  0  0  0  0  0  0  0
   39.0600   21.7850   34.7540 N   0  0  0  0  0  0  0  0  0  0  0  0
   38.5940   22.3680   35.8680 C   0  0  0  0  0  0  0  0  0  0  0  0
   37.3910   22.2740   36.5460 C   0  0  0  0  0  0  0  0  0  0  0  0
   37.1460   22.9790   37.6790 N   0  0  0  0  0  0  0  0  0  0  0  0
   38.1080   23.7880   38.1480 C   0  0  0  0  0  0  0  0  0  0  0  0
   39.3070   23.9050   37.5060 N   0  0  0  0  0  0  0  0  0  0  0  0
   39.5690   23.2160   36.3830 C   0  0  0  0  0  0  0  0  0  0  0  0
   43.3250   26.7330   34.0500 C   0  0  0  0  0  0  0  0  0  0  0  0
   43.5140   26.3100   32.7320 F   0  0  0  0  0  0  0  0  0  0  0  0
   44.3270   27.6080   34.3850 F   0  0  0  0  0  0  0  0  0  0  0  0
   42.1190   27.4390   34.1350 F   0  0  0  0  0  0  0  0  0  0  0  0
   36.4080   21.4180   36.0220 N   0  0  0  0  0  0  0  0  0  0  0  0
   44.8212   23.7619   37.2997 H   0  0  0  0  0  0  0  0  0  0  0  0
   42.6718   22.4854   37.1832 H   0  0  0  0  0  0  0  0  0  0  0  0
   40.9752   21.9755   33.7326 H   0  0  0  0  0  0  0  0  0  0  0  0
   37.9275   24.3670   39.0657 H   0  0  0  0  0  0  0  0  0  0  0  0
   35.5004   21.3226   36.4996 H   0  0  0  0  0  0  0  0  0  0  0  0
   36.5948   20.8858   35.1602 H   0  0  0  0  0  0  0  0  0  0  0  0
  2  1  2  0
  3  2  1  0
  4  5  1  0
  4  3  2  0
  5  6  2  0
  6  1  1  0
  7  3  1  0
  7 15  1  0
  8  9  2  0
  8  7  1  0
  9 10  1  0
 10 15  2  0
 10 11  1  0
 11 12  2  0
 12 13  1  0
 14 13  2  0
 15 14  1  0
 16 19  1  0
 16 18  1  0
 16  5  1  0
 17 16  1  0
 20 11  1  0
  1 21  1  0
  2 22  1  0
  8 23  1  0
 13 24  1  0
 20 25  1  0
 20 26  1  0
M  ISO  4  21  14  22  14  23  14  24  14
M  END
>  <minimizedAffinity>  (1) 
-4.40407038

>  <minimizedRMSD>  (1) 
6.0396204

$$$$
