
     RDKit          3D

 26 27  0  0  0  0  0  0  0  0999 V2000
   39.1760   22.8450   37.9270 C   0  0  0  0  0  0  0  0  0  0  0  0
   38.6010   23.7530   37.0390 C   0  0  0  0  0  0  0  0  0  0  0  0
   39.3910   24.2300   35.9850 C   0  0  0  0  0  0  0  0  0  0  0  0
   40.6670   23.7830   35.8850 N   0  0  0  0  0  0  0  0  0  0  0  0
   41.1960   22.9100   36.7530 C   0  0  0  0  0  0  0  0  0  0  0  0
   40.4400   22.4330   37.7890 N   0  0  0  0  0  0  0  0  0  0  0  0
   38.8600   25.1650   35.0380 N   0  0  0  0  0  0  0  0  0  0  0  0
   39.2420   26.5640   35.0860 C   0  0  0  0  0  0  0  0  0  0  0  0
   38.0660   27.4880   34.9870 C   0  0  0  0  0  0  0  0  0  0  0  0
   36.9570   26.8720   34.4380 O   0  0  0  0  0  0  0  0  0  0  0  0
   37.2550   25.9450   33.4490 C   0  0  0  0  0  0  0  0  0  0  0  0
   37.9440   24.7100   34.0420 C   0  0  0  0  0  0  0  0  0  0  0  0
   42.6010   22.5660   36.4470 C   0  0  0  0  0  0  0  0  0  0  0  0
   42.7760   22.4150   35.0720 F   0  0  0  0  0  0  0  0  0  0  0  0
   42.9940   21.3850   37.0590 F   0  0  0  0  0  0  0  0  0  0  0  0
   43.4390   23.5590   36.9150 F   0  0  0  0  0  0  0  0  0  0  0  0
   38.5742   22.4578   38.7624 H   0  0  0  0  0  0  0  0  0  0  0  0
   37.5594   24.0846   37.1621 H   0  0  0  0  0  0  0  0  0  0  0  0
   39.7605   26.7549   36.0372 H   0  0  0  0  0  0  0  0  0  0  0  0
   39.8930   26.7607   34.2214 H   0  0  0  0  0  0  0  0  0  0  0  0
   37.8097   27.8430   35.9961 H   0  0  0  0  0  0  0  0  0  0  0  0
   38.3485   28.3210   34.3265 H   0  0  0  0  0  0  0  0  0  0  0  0
   37.9242   26.4100   32.7101 H   0  0  0  0  0  0  0  0  0  0  0  0
   36.3159   25.6271   32.9726 H   0  0  0  0  0  0  0  0  0  0  0  0
   37.1953   24.0445   34.4965 H   0  0  0  0  0  0  0  0  0  0  0  0
   38.4726   24.1480   33.2580 H   0  0  0  0  0  0  0  0  0  0  0  0
  2  1  2  0
  3  2  1  0
  4  3  2  0
  4  5  1  0
  5  6  2  0
  6  1  1  0
  7  8  1  0
  7  3  1  0
  9  8  1  0
 10  9  1  0
 11 12  1  0
 11 10  1  0
 12  7  1  0
 13  5  1  0
 13 16  1  0
 13 15  1  0
 14 13  1  0
  1 17  1  0
  2 18  1  0
  8 19  1  0
  8 20  1  0
  9 21  1  0
  9 22  1  0
 11 23  1  0
 11 24  1  0
 12 25  1  0
 12 26  1  0
M  ISO  8  17  14  18  14  19  13  20  13  21  13  22  13  23  13  24  13
M  ISO  2  25  13  26  13
M  END
>  <minimizedAffinity>  (1) 
-4.21544027

>  <minimizedRMSD>  (1) 
4.92169857

$$$$
