
     RDKit          3D

 32 35  0  0  0  0  0  0  0  0999 V2000
   37.7130   26.9110   34.8180 C   0  0  0  0  0  0  0  0  0  0  0  0
   37.8720   25.6680   34.1550 C   0  0  0  0  0  0  0  0  0  0  0  0
   37.2590   25.5030   32.9250 C   0  0  0  0  0  0  0  0  0  0  0  0
   36.5330   26.5490   32.4140 N   0  0  0  0  0  0  0  0  0  0  0  0
   36.3970   27.7100   33.0560 C   0  0  0  0  0  0  0  0  0  0  0  0
   36.9880   27.8830   34.2550 N   0  0  0  0  0  0  0  0  0  0  0  0
   38.6540   24.6830   34.8140 N   0  0  0  0  0  0  0  0  0  0  0  0
   39.6270   23.9330   34.2000 C   0  0  0  0  0  0  0  0  0  0  0  0
   40.1630   23.1000   35.1280 N   0  0  0  0  0  0  0  0  0  0  0  0
   39.5440   23.3210   36.2950 C   0  0  0  0  0  0  0  0  0  0  0  0
   39.6370   22.8080   37.5710 C   0  0  0  0  0  0  0  0  0  0  0  0
   38.8610   23.2270   38.6010 N   0  0  0  0  0  0  0  0  0  0  0  0
   37.9420   24.2040   38.3710 C   0  0  0  0  0  0  0  0  0  0  0  0
   37.8270   24.7240   37.1410 N   0  0  0  0  0  0  0  0  0  0  0  0
   38.5980   24.3060   36.1190 C   0  0  0  0  0  0  0  0  0  0  0  0
   40.5750   21.7900   37.8650 N   0  0  0  0  0  0  0  0  0  0  0  0
   35.6220   28.8170   32.5040 C   0  0  0  0  0  0  0  0  0  0  0  0
   36.1440   29.6360   31.5220 C   0  0  0  0  0  0  0  0  0  0  0  0
   35.5030   30.7080   30.9300 C   0  0  0  0  0  0  0  0  0  0  0  0
   34.2290   30.9400   31.3920 C   0  0  0  0  0  0  0  0  0  0  0  0
   33.7010   30.1230   32.3750 C   0  0  0  0  0  0  0  0  0  0  0  0
   34.3700   29.0890   32.9200 N   0  0  0  0  0  0  0  0  0  0  0  0
   38.1868   27.0759   35.7969 H   0  0  0  0  0  0  0  0  0  0  0  0
   37.3516   24.5571   32.3712 H   0  0  0  0  0  0  0  0  0  0  0  0
   39.9205   23.9963   33.1418 H   0  0  0  0  0  0  0  0  0  0  0  0
   37.2990   24.5639   39.1877 H   0  0  0  0  0  0  0  0  0  0  0  0
   40.6404   21.4102   38.8202 H   0  0  0  0  0  0  0  0  0  0  0  0
   41.1924   21.4289   37.1238 H   0  0  0  0  0  0  0  0  0  0  0  0
   37.1654   29.4144   31.1789 H   0  0  0  0  0  0  0  0  0  0  0  0
   35.9744   31.3260   30.1516 H   0  0  0  0  0  0  0  0  0  0  0  0
   33.6339   31.7696   30.9826 H   0  0  0  0  0  0  0  0  0  0  0  0
   32.6806   30.3286   32.7306 H   0  0  0  0  0  0  0  0  0  0  0  0
  2  7  1  0
  2  1  2  0
  3  2  1  0
  4  3  2  0
  4  5  1  0
  5  6  2  0
  6  1  1  0
  7 15  1  0
  8  7  1  0
  8  9  2  0
  9 10  1  0
 10 11  2  0
 11 16  1  0
 11 12  1  0
 13 12  2  0
 14 13  1  0
 15 10  1  0
 15 14  2  0
 17 22  1  0
 17  5  1  0
 18 17  2  0
 19 20  2  0
 19 18  1  0
 20 21  1  0
 21 22  2  0
  1 23  1  0
  3 24  1  0
  8 25  1  0
 13 26  1  0
 16 27  1  0
 16 28  1  0
 18 29  1  0
 19 30  1  0
 20 31  1  0
 21 32  1  0
M  ISO  8  23  14  24  14  25  14  26  14  29  14  30  14  31  14  32  14
M  END
>  <minimizedAffinity>  (1) 
-6.06326437

>  <minimizedRMSD>  (1) 
0.726077855

$$$$
