
     RDKit          3D

 21 22  0  0  0  0  0  0  0  0999 V2000
   42.5700   20.6340   37.2690 C   0  0  0  0  0  0  0  0  0  0  0  0
   41.4760   21.4440   37.6200 C   0  0  0  0  0  0  0  0  0  0  0  0
   40.7960   22.0770   36.5950 C   0  0  0  0  0  0  0  0  0  0  0  0
   41.2100   21.8910   35.3070 N   0  0  0  0  0  0  0  0  0  0  0  0
   42.2680   21.1030   35.0130 C   0  0  0  0  0  0  0  0  0  0  0  0
   42.9600   20.4640   36.0040 N   0  0  0  0  0  0  0  0  0  0  0  0
   39.6500   22.9330   36.8900 C   0  0  0  0  0  0  0  0  0  0  0  0
   39.2490   23.0800   38.2000 C   0  0  0  0  0  0  0  0  0  0  0  0
   38.1480   23.9090   38.4280 C   0  0  0  0  0  0  0  0  0  0  0  0
   37.5500   24.5080   37.3830 N   0  0  0  0  0  0  0  0  0  0  0  0
   37.9640   24.3450   36.1200 C   0  0  0  0  0  0  0  0  0  0  0  0
   39.0380   23.5390   35.8770 N   0  0  0  0  0  0  0  0  0  0  0  0
   42.5340   21.0500   33.5490 C   0  0  0  0  0  0  0  0  0  0  0  0
   41.4240   20.6060   32.8550 F   0  0  0  0  0  0  0  0  0  0  0  0
   43.5970   20.2150   33.2610 F   0  0  0  0  0  0  0  0  0  0  0  0
   42.8880   22.3260   33.1110 F   0  0  0  0  0  0  0  0  0  0  0  0
   43.1258   20.1207   38.0675 H   0  0  0  0  0  0  0  0  0  0  0  0
   41.1722   21.5697   38.6697 H   0  0  0  0  0  0  0  0  0  0  0  0
   39.7694   22.5705   39.0244 H   0  0  0  0  0  0  0  0  0  0  0  0
   37.7746   24.0699   39.4501 H   0  0  0  0  0  0  0  0  0  0  0  0
   37.4470   24.8523   35.2922 H   0  0  0  0  0  0  0  0  0  0  0  0
  1  2  2  0
  3  7  1  0
  3  2  1  0
  4  3  2  0
  5  4  1  0
  5  6  2  0
  6  1  1  0
  7  8  2  0
  8  9  1  0
 10  9  2  0
 11 10  1  0
 12 11  2  0
 12  7  1  0
 13  5  1  0
 14 13  1  0
 15 13  1  0
 16 13  1  0
  1 17  1  0
  2 18  1  0
  8 19  1  0
  9 20  1  0
 11 21  1  0
M  ISO  5  17  14  18  14  19  14  20  14  21  14
M  END
>  <minimizedAffinity>  (1) 
-3.50495219

>  <minimizedRMSD>  (1) 
4.30089712

$$$$
