
     RDKit          3D

 31 34  0  0  0  0  0  0  0  0999 V2000
   37.6450   26.9570   34.9010 C   0  0  0  0  0  0  0  0  0  0  0  0
   37.8570   25.7440   34.2060 C   0  0  0  0  0  0  0  0  0  0  0  0
   37.2790   25.6130   32.9540 C   0  0  0  0  0  0  0  0  0  0  0  0
   36.5330   26.6500   32.4460 N   0  0  0  0  0  0  0  0  0  0  0  0
   36.3510   27.7810   33.1250 C   0  0  0  0  0  0  0  0  0  0  0  0
   36.9070   27.9220   34.3410 N   0  0  0  0  0  0  0  0  0  0  0  0
   38.6450   24.7490   34.8350 N   0  0  0  0  0  0  0  0  0  0  0  0
   39.6120   24.0160   34.2190 C   0  0  0  0  0  0  0  0  0  0  0  0
   40.1510   23.1650   35.1320 N   0  0  0  0  0  0  0  0  0  0  0  0
   39.5350   23.3590   36.2970 C   0  0  0  0  0  0  0  0  0  0  0  0
   39.6150   22.8320   37.5670 C   0  0  0  0  0  0  0  0  0  0  0  0
   38.8340   23.2320   38.6140 N   0  0  0  0  0  0  0  0  0  0  0  0
   37.9190   24.2090   38.3890 C   0  0  0  0  0  0  0  0  0  0  0  0
   37.8100   24.7480   37.1630 N   0  0  0  0  0  0  0  0  0  0  0  0
   38.5810   24.3510   36.1410 C   0  0  0  0  0  0  0  0  0  0  0  0
   40.5590   21.8070   37.8440 N   0  0  0  0  0  0  0  0  0  0  0  0
   35.5510   28.8570   32.5460 C   0  0  0  0  0  0  0  0  0  0  0  0
   36.0770   29.6440   31.5430 C   0  0  0  0  0  0  0  0  0  0  0  0
   35.2340   30.6330   31.0660 C   0  0  0  0  0  0  0  0  0  0  0  0
   33.9910   30.8060   31.5530 N   0  0  0  0  0  0  0  0  0  0  0  0
   33.5020   30.0300   32.5260 C   0  0  0  0  0  0  0  0  0  0  0  0
   34.3020   29.0640   33.0040 N   0  0  0  0  0  0  0  0  0  0  0  0
   38.0851   27.1065   35.8980 H   0  0  0  0  0  0  0  0  0  0  0  0
   37.4154   24.6893   32.3726 H   0  0  0  0  0  0  0  0  0  0  0  0
   39.9072   24.0980   33.1625 H   0  0  0  0  0  0  0  0  0  0  0  0
   37.2702   24.5577   39.2060 H   0  0  0  0  0  0  0  0  0  0  0  0
   40.6237   21.4088   38.7917 H   0  0  0  0  0  0  0  0  0  0  0  0
   41.1787   21.4621   37.0971 H   0  0  0  0  0  0  0  0  0  0  0  0
   37.0938   29.4964   31.1501 H   0  0  0  0  0  0  0  0  0  0  0  0
   35.5905   31.2974   30.2651 H   0  0  0  0  0  0  0  0  0  0  0  0
   32.4852   30.1773   32.9188 H   0  0  0  0  0  0  0  0  0  0  0  0
  2  7  1  0
  2  1  2  0
  3  2  1  0
  4  3  2  0
  4  5  1  0
  5  6  2  0
  6  1  1  0
  7 15  1  0
  8  7  1  0
  8  9  2  0
  9 10  1  0
 10 11  2  0
 11 16  1  0
 11 12  1  0
 13 12  2  0
 14 13  1  0
 15 10  1  0
 15 14  2  0
 17 22  1  0
 17  5  1  0
 18 17  2  0
 19 18  1  0
 19 20  2  0
 20 21  1  0
 21 22  2  0
  1 23  1  0
  3 24  1  0
  8 25  1  0
 13 26  1  0
 16 27  1  0
 16 28  1  0
 18 29  1  0
 19 30  1  0
 21 31  1  0
M  ISO  7  23  14  24  14  25  14  26  14  29  14  30  14  31  14
M  END
>  <minimizedAffinity>  (1) 
-6.05612659

>  <minimizedRMSD>  (1) 
0.754101455

$$$$
