
     RDKit          3D

 19 19  0  0  0  0  0  0  0  0999 V2000
   38.1810   23.7880   38.3350 C   0  0  0  0  0  0  0  0  0  0  0  0
   37.7490   24.4530   37.1730 C   0  0  0  0  0  0  0  0  0  0  0  0
   38.5290   24.3080   36.0270 C   0  0  0  0  0  0  0  0  0  0  0  0
   39.6430   23.5490   36.0790 N   0  0  0  0  0  0  0  0  0  0  0  0
   40.0260   22.9260   37.2150 C   0  0  0  0  0  0  0  0  0  0  0  0
   39.2950   23.0420   38.3480 N   0  0  0  0  0  0  0  0  0  0  0  0
   41.2840   22.1530   37.0220 C   0  0  0  0  0  0  0  0  0  0  0  0
   41.2750   21.4630   35.8220 F   0  0  0  0  0  0  0  0  0  0  0  0
   41.4650   21.2210   38.0320 F   0  0  0  0  0  0  0  0  0  0  0  0
   42.3730   23.0120   37.0820 F   0  0  0  0  0  0  0  0  0  0  0  0
   38.1190   24.9930   34.7580 C   0  0  0  0  0  0  0  0  0  0  0  0
   38.1350   24.0590   33.5950 C   0  0  0  0  0  0  0  0  0  0  0  0
   37.5891   23.8826   39.2574 H   0  0  0  0  0  0  0  0  0  0  0  0
   36.8332   25.0624   37.1690 H   0  0  0  0  0  0  0  0  0  0  0  0
   37.1010   25.3912   34.8810 H   0  0  0  0  0  0  0  0  0  0  0  0
   38.8378   25.8012   34.5577 H   0  0  0  0  0  0  0  0  0  0  0  0
   38.1528   23.0210   33.9586 H   0  0  0  0  0  0  0  0  0  0  0  0
   37.2340   24.2183   32.9844 H   0  0  0  0  0  0  0  0  0  0  0  0
   39.0300   24.2490   32.9844 H   0  0  0  0  0  0  0  0  0  0  0  0
  1  6  2  0
  2  1  1  0
  3  4  1  0
  3  2  2  0
  4  5  2  0
  5  6  1  0
  7 10  1  0
  7  5  1  0
  7  9  1  0
  8  7  1  0
 11  3  1  0
 12 11  1  0
  1 13  1  0
  2 14  1  0
 11 15  1  0
 11 16  1  0
 12 17  1  0
 12 18  1  0
 12 19  1  0
M  ISO  7  13  14  14  14  15   8  16   8  17   8  18   8  19   8
M  END
>  <minimizedAffinity>  (1) 
-3.60275555

>  <minimizedRMSD>  (1) 
4.00317097

$$$$
