
     RDKit          3D

 27 29  0  0  0  0  0  0  0  0999 V2000
   42.4600   20.7100   37.3390 C   0  0  0  0  0  0  0  0  0  0  0  0
   41.9620   21.9810   37.0630 C   0  0  0  0  0  0  0  0  0  0  0  0
   41.8860   22.3650   35.7280 C   0  0  0  0  0  0  0  0  0  0  0  0
   42.2990   21.4810   34.7870 N   0  0  0  0  0  0  0  0  0  0  0  0
   42.7720   20.2680   35.0840 C   0  0  0  0  0  0  0  0  0  0  0  0
   42.8560   19.8700   36.3720 N   0  0  0  0  0  0  0  0  0  0  0  0
   41.3700   23.6930   35.3690 C   0  0  0  0  0  0  0  0  0  0  0  0
   42.0840   24.6570   34.6900 C   0  0  0  0  0  0  0  0  0  0  0  0
   41.2550   25.7010   34.5690 N   0  0  0  0  0  0  0  0  0  0  0  0
   40.0620   25.4010   35.1520 C   0  0  0  0  0  0  0  0  0  0  0  0
   38.9210   26.1760   35.2650 C   0  0  0  0  0  0  0  0  0  0  0  0
   37.7880   25.7060   35.8970 C   0  0  0  0  0  0  0  0  0  0  0  0
   37.8400   24.4210   36.4170 C   0  0  0  0  0  0  0  0  0  0  0  0
   38.9800   23.6210   36.3160 C   0  0  0  0  0  0  0  0  0  0  0  0
   40.0960   24.1210   35.6780 C   0  0  0  0  0  0  0  0  0  0  0  0
   43.1510   19.5110   33.8620 C   0  0  0  0  0  0  0  0  0  0  0  0
   42.0470   19.2530   33.0540 F   0  0  0  0  0  0  0  0  0  0  0  0
   43.7030   18.2790   34.2050 F   0  0  0  0  0  0  0  0  0  0  0  0
   44.1160   20.1970   33.1490 F   0  0  0  0  0  0  0  0  0  0  0  0
   42.5309   20.3839   38.3871 H   0  0  0  0  0  0  0  0  0  0  0  0
   41.6409   22.6558   37.8701 H   0  0  0  0  0  0  0  0  0  0  0  0
   43.1188   24.5837   34.3241 H   0  0  0  0  0  0  0  0  0  0  0  0
   41.4841   26.5925   34.1068 H   0  0  0  0  0  0  0  0  0  0  0  0
   38.9172   27.1909   34.8409 H   0  0  0  0  0  0  0  0  0  0  0  0
   36.8822   26.3239   35.9847 H   0  0  0  0  0  0  0  0  0  0  0  0
   36.9523   24.0182   36.9266 H   0  0  0  0  0  0  0  0  0  0  0  0
   38.9879   22.6058   36.7395 H   0  0  0  0  0  0  0  0  0  0  0  0
  2  1  2  0
  3  2  1  0
  4  5  1  0
  4  3  2  0
  5  6  2  0
  6  1  1  0
  7 15  1  0
  7  3  1  0
  8  7  2  0
  9  8  1  0
  9 10  1  0
 10 11  2  0
 10 15  1  0
 11 12  1  0
 12 13  2  0
 14 13  1  0
 15 14  2  0
 16 18  1  0
 16  5  1  0
 17 16  1  0
 19 16  1  0
  1 20  1  0
  2 21  1  0
  8 22  1  0
  9 23  1  0
 11 24  1  0
 12 25  1  0
 13 26  1  0
 14 27  1  0
M  ISO  8  20  14  21  14  22  14  23   9  24  14  25  14  26  14  27  14
M  END
>  <minimizedAffinity>  (1) 
-3.58773851

>  <minimizedRMSD>  (1) 
5.70383024

$$$$
