
     RDKit          3D

 19 20  0  0  0  0  0  0  0  0999 V2000
   43.2380   21.3730   36.3780 C   0  0  0  0  0  0  0  0  0  0  0  0
   41.8460   21.4210   36.5440 C   0  0  0  0  0  0  0  0  0  0  0  0
   41.2150   22.6500   36.4240 C   0  0  0  0  0  0  0  0  0  0  0  0
   41.9750   23.7500   36.1520 N   0  0  0  0  0  0  0  0  0  0  0  0
   43.3190   23.6740   35.9970 C   0  0  0  0  0  0  0  0  0  0  0  0
   43.9420   22.4780   36.1130 N   0  0  0  0  0  0  0  0  0  0  0  0
   39.7930   22.7780   36.5800 N   0  0  0  0  0  0  0  0  0  0  0  0
   39.0470   23.5090   37.4280 C   0  0  0  0  0  0  0  0  0  0  0  0
   37.7390   23.2910   37.1840 N   0  0  0  0  0  0  0  0  0  0  0  0
   37.6550   22.4070   36.1700 C   0  0  0  0  0  0  0  0  0  0  0  0
   38.9300   22.1160   35.8240 N   0  0  0  0  0  0  0  0  0  0  0  0
   43.9220   24.9980   35.7090 C   0  0  0  0  0  0  0  0  0  0  0  0
   43.1380   25.7260   34.8130 F   0  0  0  0  0  0  0  0  0  0  0  0
   45.1920   24.8730   35.1920 F   0  0  0  0  0  0  0  0  0  0  0  0
   44.0360   25.7210   36.8990 F   0  0  0  0  0  0  0  0  0  0  0  0
   43.7597   20.4087   36.4675 H   0  0  0  0  0  0  0  0  0  0  0  0
   41.2710   20.5092   36.7632 H   0  0  0  0  0  0  0  0  0  0  0  0
   39.4437   24.1820   38.2024 H   0  0  0  0  0  0  0  0  0  0  0  0
   36.7372   22.0044   35.7165 H   0  0  0  0  0  0  0  0  0  0  0  0
  1  2  2  0
  3  2  1  0
  3  7  1  0
  4  3  2  0
  5  6  2  0
  5  4  1  0
  6  1  1  0
  7  8  1  0
  9  8  2  0
 10  9  1  0
 11 10  2  0
 11  7  1  0
 12  5  1  0
 12 15  1  0
 13 12  1  0
 14 12  1  0
  1 16  1  0
  2 17  1  0
  8 18  1  0
 10 19  1  0
M  ISO  4  16  14  17  14  18  14  19  14
M  END
>  <minimizedAffinity>  (1) 
-3.53583407

>  <minimizedRMSD>  (1) 
5.363276

$$$$
