
     RDKit          3D

 15 15  0  0  0  0  0  0  0  0999 V2000
   40.4360   22.2310   37.2550 C   0  0  0  0  0  0  0  0  0  0  0  0
   39.7610   23.0580   38.1800 C   0  0  0  0  0  0  0  0  0  0  0  0
   38.4920   23.4910   37.8310 C   0  0  0  0  0  0  0  0  0  0  0  0
   37.9670   23.1080   36.6400 N   0  0  0  0  0  0  0  0  0  0  0  0
   38.6340   22.3200   35.7800 C   0  0  0  0  0  0  0  0  0  0  0  0
   39.8800   21.8810   36.0980 N   0  0  0  0  0  0  0  0  0  0  0  0
   37.7700   24.3350   38.7440 N   0  0  0  0  0  0  0  0  0  0  0  0
   37.8480   22.0450   34.5590 C   0  0  0  0  0  0  0  0  0  0  0  0
   36.6750   21.3510   34.8590 F   0  0  0  0  0  0  0  0  0  0  0  0
   38.5720   21.2550   33.6760 F   0  0  0  0  0  0  0  0  0  0  0  0
   37.5700   23.2270   33.9050 F   0  0  0  0  0  0  0  0  0  0  0  0
   41.4456   21.8676   37.4970 H   0  0  0  0  0  0  0  0  0  0  0  0
   40.2228   23.3458   39.1360 H   0  0  0  0  0  0  0  0  0  0  0  0
   36.8255   24.6666   38.5015 H   0  0  0  0  0  0  0  0  0  0  0  0
   38.1973   24.6080   39.6405 H   0  0  0  0  0  0  0  0  0  0  0  0
  1  2  2  0
  3  2  1  0
  3  7  1  0
  4  3  2  0
  5  6  2  0
  5  4  1  0
  6  1  1  0
  8  9  1  0
  8  5  1  0
 10  8  1  0
 11  8  1  0
  1 12  1  0
  2 13  1  0
  7 14  1  0
  7 15  1  0
M  ISO  2  12  14  13  14
M  END
>  <minimizedAffinity>  (1) 
-3.4151423

>  <minimizedRMSD>  (1) 
0.576223373

$$$$
