
     RDKit          3D

 35 38  0  0  0  0  0  0  0  0999 V2000
   37.9850   23.2080   35.4740 C   0  0  0  0  0  0  0  0  0  0  0  0
   37.9890   22.6730   36.7150 N   0  0  0  0  0  0  0  0  0  0  0  0
   38.0820   23.3870   37.8300 C   0  0  0  0  0  0  0  0  0  0  0  0
   38.1840   24.7500   37.7990 N   0  0  0  0  0  0  0  0  0  0  0  0
   38.1880   25.3770   36.5960 C   0  0  0  0  0  0  0  0  0  0  0  0
   38.3070   26.7420   36.5340 C   0  0  0  0  0  0  0  0  0  0  0  0
   38.3280   27.3860   35.3100 C   0  0  0  0  0  0  0  0  0  0  0  0
   38.2230   26.5940   34.1780 C   0  0  0  0  0  0  0  0  0  0  0  0
   38.1060   25.2230   34.2990 C   0  0  0  0  0  0  0  0  0  0  0  0
   38.0860   24.5690   35.4870 C   0  0  0  0  0  0  0  0  0  0  0  0
   39.1690   21.0490   32.7340 C   0  0  0  0  0  0  0  0  0  0  0  0
   39.1480   21.8750   33.8440 C   0  0  0  0  0  0  0  0  0  0  0  0
   37.8990   22.3590   34.3120 C   0  0  0  0  0  0  0  0  0  0  0  0
   36.8500   21.9370   33.5900 N   0  0  0  0  0  0  0  0  0  0  0  0
   36.8540   21.1560   32.5360 C   0  0  0  0  0  0  0  0  0  0  0  0
   38.0370   20.6950   32.0880 N   0  0  0  0  0  0  0  0  0  0  0  0
   35.4960   20.9330   31.9980 C   0  0  0  0  0  0  0  0  0  0  0  0
   35.0130   19.6920   32.2870 F   0  0  0  0  0  0  0  0  0  0  0  0
   35.4900   21.1280   30.6040 F   0  0  0  0  0  0  0  0  0  0  0  0
   34.6260   21.9280   32.4750 F   0  0  0  0  0  0  0  0  0  0  0  0
   38.0390   24.7700   32.9150 C   0  0  0  0  0  0  0  0  0  0  0  0
   38.9970   24.2790   32.0530 C   0  0  0  0  0  0  0  0  0  0  0  0
   38.8170   23.7820   30.7900 C   0  0  0  0  0  0  0  0  0  0  0  0
   37.5500   23.7760   30.3460 N   0  0  0  0  0  0  0  0  0  0  0  0
   36.5720   24.2320   31.1200 C   0  0  0  0  0  0  0  0  0  0  0  0
   36.7850   24.7130   32.3540 N   0  0  0  0  0  0  0  0  0  0  0  0
   38.0769   22.8703   38.8011 H   0  0  0  0  0  0  0  0  0  0  0  0
   38.3861   27.3273   37.4620 H   0  0  0  0  0  0  0  0  0  0  0  0
   38.4239   28.4795   35.2385 H   0  0  0  0  0  0  0  0  0  0  0  0
   38.2328   27.0580   33.1807 H   0  0  0  0  0  0  0  0  0  0  0  0
   40.1345   20.6702   32.3676 H   0  0  0  0  0  0  0  0  0  0  0  0
   40.0825   22.1513   34.3542 H   0  0  0  0  0  0  0  0  0  0  0  0
   40.0319   24.2877   32.4256 H   0  0  0  0  0  0  0  0  0  0  0  0
   39.6544   23.4124   30.1799 H   0  0  0  0  0  0  0  0  0  0  0  0
   35.5427   24.2145   30.7325 H   0  0  0  0  0  0  0  0  0  0  0  0
  1 10  1  0
  1  2  2  0
  2  3  1  0
  4  3  2  0
  5  4  1  0
  6  5  2  0
  7  6  1  0
  8  9  1  0
  8  7  2  0
  9 10  2  0
 10  5  1  0
 11 12  2  0
 12 13  1  0
 13  1  1  0
 14 13  2  0
 15 14  1  0
 16 15  2  0
 16 11  1  0
 17 18  1  0
 17 20  1  0
 17 15  1  0
 19 17  1  0
 21  9  1  0
 22 21  2  0
 23 22  1  0
 24 23  2  0
 24 25  1  0
 25 26  2  0
 26 21  1  0
  3 27  1  0
  6 28  1  0
  7 29  1  0
  8 30  1  0
 11 31  1  0
 12 32  1  0
 22 33  1  0
 23 34  1  0
 25 35  1  0
M  ISO  8  27  14  28  14  29  14  30  14  31  14  32  14  33  14  34  14
M  ISO  1  35  14
M  END
>  <minimizedAffinity>  (1) 
-6.1135745

>  <minimizedRMSD>  (1) 
5.94859219

$$$$
