
     RDKit          3D

 37 40  0  0  0  0  0  0  0  0999 V2000
   37.9980   23.1950   35.4920 C   0  0  0  0  0  0  0  0  0  0  0  0
   37.9510   22.6670   36.7370 N   0  0  0  0  0  0  0  0  0  0  0  0
   38.0080   23.3980   37.8520 C   0  0  0  0  0  0  0  0  0  0  0  0
   38.1220   24.7560   37.8170 N   0  0  0  0  0  0  0  0  0  0  0  0
   38.1770   25.3700   36.6080 C   0  0  0  0  0  0  0  0  0  0  0  0
   38.3050   26.7340   36.5320 C   0  0  0  0  0  0  0  0  0  0  0  0
   38.3750   27.3670   35.3140 C   0  0  0  0  0  0  0  0  0  0  0  0
   38.3080   26.5660   34.1790 C   0  0  0  0  0  0  0  0  0  0  0  0
   38.1790   25.1990   34.3150 C   0  0  0  0  0  0  0  0  0  0  0  0
   38.1110   24.5590   35.5080 C   0  0  0  0  0  0  0  0  0  0  0  0
   38.1460   24.7660   32.9610 N   0  0  0  0  0  0  0  0  0  0  0  0
   37.1470   24.5200   32.0900 C   0  0  0  0  0  0  0  0  0  0  0  0
   37.3000   24.1650   30.7740 C   0  0  0  0  0  0  0  0  0  0  0  0
   38.5780   24.0430   30.2820 C   0  0  0  0  0  0  0  0  0  0  0  0
   38.7070   23.7180   29.0760 O   0  0  0  0  0  0  0  0  0  0  0  0
   39.6420   24.2670   31.0670 N   0  0  0  0  0  0  0  0  0  0  0  0
   39.3820   24.6150   32.3610 C   0  0  0  0  0  0  0  0  0  0  0  0
   40.4370   24.8140   33.0590 O   0  0  0  0  0  0  0  0  0  0  0  0
   39.2340   21.0210   32.8080 C   0  0  0  0  0  0  0  0  0  0  0  0
   39.1880   21.8520   33.9050 C   0  0  0  0  0  0  0  0  0  0  0  0
   37.9380   22.3420   34.3380 C   0  0  0  0  0  0  0  0  0  0  0  0
   36.9080   21.9100   33.5880 N   0  0  0  0  0  0  0  0  0  0  0  0
   36.9320   21.1200   32.5430 C   0  0  0  0  0  0  0  0  0  0  0  0
   38.1240   20.6570   32.1320 N   0  0  0  0  0  0  0  0  0  0  0  0
   35.5890   20.8890   31.9740 C   0  0  0  0  0  0  0  0  0  0  0  0
   35.1250   19.6270   32.2100 F   0  0  0  0  0  0  0  0  0  0  0  0
   35.6020   21.1410   30.5910 F   0  0  0  0  0  0  0  0  0  0  0  0
   34.6840   21.8380   32.4820 F   0  0  0  0  0  0  0  0  0  0  0  0
   37.9617   22.8905   38.8268 H   0  0  0  0  0  0  0  0  0  0  0  0
   38.3521   27.3279   37.4567 H   0  0  0  0  0  0  0  0  0  0  0  0
   38.4795   28.4595   35.2401 H   0  0  0  0  0  0  0  0  0  0  0  0
   38.3576   27.0199   33.1782 H   0  0  0  0  0  0  0  0  0  0  0  0
   36.1181   24.6121   32.4681 H   0  0  0  0  0  0  0  0  0  0  0  0
   36.4260   23.9833   30.1312 H   0  0  0  0  0  0  0  0  0  0  0  0
   40.6051   24.1809   30.7120 H   0  0  0  0  0  0  0  0  0  0  0  0
   40.2095   20.6405   32.4708 H   0  0  0  0  0  0  0  0  0  0  0  0
   40.1111   22.1293   34.4352 H   0  0  0  0  0  0  0  0  0  0  0  0
  1 10  1  0
  1  2  2  0
  2  3  1  0
  4  3  2  0
  5  4  1  0
  6  5  2  0
  7  6  1  0
  8  9  1  0
  8  7  2  0
  9 10  2  0
 10  5  1  0
 11  9  1  0
 12 11  1  0
 13 12  2  0
 14 13  1  0
 14 16  1  0
 15 14  2  0
 16 17  1  0
 17 11  1  0
 17 18  2  0
 19 20  2  0
 20 21  1  0
 21  1  1  0
 22 21  2  0
 23 22  1  0
 24 23  2  0
 24 19  1  0
 25 26  1  0
 25 28  1  0
 25 23  1  0
 27 25  1  0
  3 29  1  0
  6 30  1  0
  7 31  1  0
  8 32  1  0
 12 33  1  0
 13 34  1  0
 16 35  1  0
 19 36  1  0
 20 37  1  0
M  ISO  8  29  14  30  14  31  14  32  14  33  14  34  14  35   9  36  14
M  ISO  1  37  14
M  END
>  <minimizedAffinity>  (1) 
-6.28036737

>  <minimizedRMSD>  (1) 
6.0690155

$$$$
