
     RDKit          3D

 37 40  0  0  0  0  0  0  0  0999 V2000
   38.0020   23.2080   35.5360 C   0  0  0  0  0  0  0  0  0  0  0  0
   37.9280   22.6780   36.7770 N   0  0  0  0  0  0  0  0  0  0  0  0
   37.9750   23.4020   37.8970 C   0  0  0  0  0  0  0  0  0  0  0  0
   38.1060   24.7600   37.8620 N   0  0  0  0  0  0  0  0  0  0  0  0
   38.1890   25.3800   36.6570 C   0  0  0  0  0  0  0  0  0  0  0  0
   38.3280   26.7410   36.5960 C   0  0  0  0  0  0  0  0  0  0  0  0
   38.4210   27.3760   35.3700 C   0  0  0  0  0  0  0  0  0  0  0  0
   38.3670   26.5810   34.2330 C   0  0  0  0  0  0  0  0  0  0  0  0
   38.2240   25.2150   34.3660 C   0  0  0  0  0  0  0  0  0  0  0  0
   38.1310   24.5690   35.5530 C   0  0  0  0  0  0  0  0  0  0  0  0
   38.1510   24.7840   32.9760 C   0  0  0  0  0  0  0  0  0  0  0  0
   39.0770   24.3090   32.0680 C   0  0  0  0  0  0  0  0  0  0  0  0
   38.8070   23.9190   30.7810 C   0  0  0  0  0  0  0  0  0  0  0  0
   37.5130   23.9950   30.3260 C   0  0  0  0  0  0  0  0  0  0  0  0
   36.4780   24.4460   31.1130 C   0  0  0  0  0  0  0  0  0  0  0  0
   36.8520   24.8180   32.3990 C   0  0  0  0  0  0  0  0  0  0  0  0
   39.2600   21.0170   32.8690 C   0  0  0  0  0  0  0  0  0  0  0  0
   39.2050   21.8520   33.9670 C   0  0  0  0  0  0  0  0  0  0  0  0
   37.9540   22.3560   34.3800 C   0  0  0  0  0  0  0  0  0  0  0  0
   36.9270   21.9390   33.6190 N   0  0  0  0  0  0  0  0  0  0  0  0
   36.9620   21.1460   32.5710 C   0  0  0  0  0  0  0  0  0  0  0  0
   38.1520   20.6680   32.1770 N   0  0  0  0  0  0  0  0  0  0  0  0
   35.6240   20.9260   31.9820 C   0  0  0  0  0  0  0  0  0  0  0  0
   35.1440   19.6710   32.2140 F   0  0  0  0  0  0  0  0  0  0  0  0
   35.6590   21.1690   30.5980 F   0  0  0  0  0  0  0  0  0  0  0  0
   34.7240   21.8880   32.4710 F   0  0  0  0  0  0  0  0  0  0  0  0
   37.9067   22.8931   38.8698 H   0  0  0  0  0  0  0  0  0  0  0  0
   38.3658   27.3308   37.5237 H   0  0  0  0  0  0  0  0  0  0  0  0
   38.5333   28.4679   35.2990 H   0  0  0  0  0  0  0  0  0  0  0  0
   38.4376   27.0364   33.2342 H   0  0  0  0  0  0  0  0  0  0  0  0
   40.1213   24.2373   32.4062 H   0  0  0  0  0  0  0  0  0  0  0  0
   39.6110   23.5525   30.1259 H   0  0  0  0  0  0  0  0  0  0  0  0
   37.2959   23.6836   29.2936 H   0  0  0  0  0  0  0  0  0  0  0  0
   35.4401   24.5071   30.7539 H   0  0  0  0  0  0  0  0  0  0  0  0
   36.0441   25.1834   33.0500 H   0  0  0  0  0  0  0  0  0  0  0  0
   40.2354   20.6234   32.5471 H   0  0  0  0  0  0  0  0  0  0  0  0
   40.1225   22.1201   34.5113 H   0  0  0  0  0  0  0  0  0  0  0  0
  1 10  1  0
  1  2  2  0
  2  3  1  0
  4  3  2  0
  5  4  1  0
  6  5  2  0
  7  6  1  0
  8  9  1  0
  8  7  2  0
  9 10  2  0
 10  5  1  0
 11  9  1  0
 12 11  2  0
 13 12  1  0
 14 13  2  0
 14 15  1  0
 15 16  2  0
 16 11  1  0
 17 18  2  0
 18 19  1  0
 19  1  1  0
 20 19  2  0
 21 20  1  0
 22 21  2  0
 22 17  1  0
 23 24  1  0
 23 26  1  0
 23 21  1  0
 25 23  1  0
  3 27  1  0
  6 28  1  0
  7 29  1  0
  8 30  1  0
 12 31  1  0
 13 32  1  0
 14 33  1  0
 15 34  1  0
 16 35  1  0
 17 36  1  0
 18 37  1  0
M  ISO  8  27  14  28  14  29  14  30  14  31  14  32  14  33  14  34  14
M  ISO  3  35  14  36  14  37  14
M  END
>  <minimizedAffinity>  (1) 
-6.07961893

>  <minimizedRMSD>  (1) 
5.88389921

$$$$
