
     RDKit          3D

 34 37  0  0  0  0  0  0  0  0999 V2000
   38.0120   23.1650   35.3620 C   0  0  0  0  0  0  0  0  0  0  0  0
   38.0990   22.6500   36.6090 N   0  0  0  0  0  0  0  0  0  0  0  0
   38.2230   23.3900   37.7120 C   0  0  0  0  0  0  0  0  0  0  0  0
   38.2730   24.7480   37.6610 N   0  0  0  0  0  0  0  0  0  0  0  0
   38.1940   25.3610   36.4470 C   0  0  0  0  0  0  0  0  0  0  0  0
   38.2540   26.7270   36.3490 C   0  0  0  0  0  0  0  0  0  0  0  0
   38.1930   27.3530   35.1420 C   0  0  0  0  0  0  0  0  0  0  0  0
   38.0670   26.5460   34.0310 C   0  0  0  0  0  0  0  0  0  0  0  0
   38.0040   25.1720   34.1550 C   0  0  0  0  0  0  0  0  0  0  0  0
   38.0650   24.5350   35.3490 C   0  0  0  0  0  0  0  0  0  0  0  0
   39.0750   20.9220   32.6590 C   0  0  0  0  0  0  0  0  0  0  0  0
   39.1200   21.7690   33.7550 C   0  0  0  0  0  0  0  0  0  0  0  0
   37.8860   22.2990   34.2210 C   0  0  0  0  0  0  0  0  0  0  0  0
   36.7960   21.9070   33.5310 N   0  0  0  0  0  0  0  0  0  0  0  0
   36.7750   21.0960   32.4840 C   0  0  0  0  0  0  0  0  0  0  0  0
   37.9370   20.5880   32.0330 N   0  0  0  0  0  0  0  0  0  0  0  0
   35.4100   20.9050   31.9610 C   0  0  0  0  0  0  0  0  0  0  0  0
   34.9290   19.6500   32.1980 F   0  0  0  0  0  0  0  0  0  0  0  0
   35.3750   21.1670   30.5790 F   0  0  0  0  0  0  0  0  0  0  0  0
   34.5450   21.8700   32.5040 F   0  0  0  0  0  0  0  0  0  0  0  0
   37.8940   24.6840   32.7690 C   0  0  0  0  0  0  0  0  0  0  0  0
   36.6300   24.7410   32.1120 C   0  0  0  0  0  0  0  0  0  0  0  0
   36.6400   24.3010   30.8050 C   0  0  0  0  0  0  0  0  0  0  0  0
   37.9380   23.9850   30.7130 N   0  0  0  0  0  0  0  0  0  0  0  0
   38.6350   24.1920   31.7890 N   0  0  0  0  0  0  0  0  0  0  0  0
   38.2865   22.8883   38.6889 H   0  0  0  0  0  0  0  0  0  0  0  0
   38.3534   27.3292   37.2641 H   0  0  0  0  0  0  0  0  0  0  0  0
   38.2418   28.4486   35.0570 H   0  0  0  0  0  0  0  0  0  0  0  0
   38.0159   27.0031   33.0318 H   0  0  0  0  0  0  0  0  0  0  0  0
   40.0201   20.5026   32.2837 H   0  0  0  0  0  0  0  0  0  0  0  0
   40.0722   22.0210   34.2446 H   0  0  0  0  0  0  0  0  0  0  0  0
   35.7190   25.1069   32.6082 H   0  0  0  0  0  0  0  0  0  0  0  0
   35.8296   24.2310   30.0645 H   0  0  0  0  0  0  0  0  0  0  0  0
   38.3538   23.6050   29.8507 H   0  0  0  0  0  0  0  0  0  0  0  0
  1  2  2  0
  2  3  1  0
  4  3  2  0
  5  4  1  0
  6  5  2  0
  7  6  1  0
  8  9  1  0
  8  7  2  0
  9 10  2  0
 10  1  1  0
 10  5  1  0
 11 12  2  0
 12 13  1  0
 13  1  1  0
 14 13  2  0
 15 14  1  0
 16 15  2  0
 16 11  1  0
 17 18  1  0
 17 15  1  0
 17 20  1  0
 19 17  1  0
 21  9  1  0
 22 21  1  0
 23 22  2  0
 24 23  1  0
 24 25  1  0
 25 21  2  0
  3 26  1  0
  6 27  1  0
  7 28  1  0
  8 29  1  0
 11 30  1  0
 12 31  1  0
 22 32  1  0
 23 33  1  0
 24 34  1  0
M  ISO  8  26  14  27  14  28  14  29  14  30  14  31  14  32  14  33  14
M  ISO  1  34   9
M  END
>  <minimizedAffinity>  (1) 
-5.96167183

>  <minimizedRMSD>  (1) 
5.86798239

$$$$
