
     RDKit          3D

 30 32  0  0  0  0  0  0  0  0999 V2000
   37.9810   24.2180   33.7450 C   0  0  0  0  0  0  0  0  0  0  0  0
   37.5430   23.2890   32.8890 N   0  0  0  0  0  0  0  0  0  0  0  0
   36.7190   23.5570   31.8690 C   0  0  0  0  0  0  0  0  0  0  0  0
   36.2590   24.8160   31.6300 N   0  0  0  0  0  0  0  0  0  0  0  0
   36.6630   25.8100   32.4610 C   0  0  0  0  0  0  0  0  0  0  0  0
   36.1890   27.0900   32.3030 C   0  0  0  0  0  0  0  0  0  0  0  0
   36.5530   28.0800   33.1560 C   0  0  0  0  0  0  0  0  0  0  0  0
   37.4200   27.7380   34.1780 C   0  0  0  0  0  0  0  0  0  0  0  0
   37.8940   26.4760   34.3420 C   0  0  0  0  0  0  0  0  0  0  0  0
   37.5200   25.4800   33.4960 C   0  0  0  0  0  0  0  0  0  0  0  0
   38.7250   22.9130   37.1070 C   0  0  0  0  0  0  0  0  0  0  0  0
   38.0520   23.3500   35.9970 C   0  0  0  0  0  0  0  0  0  0  0  0
   38.7820   23.8380   34.8520 C   0  0  0  0  0  0  0  0  0  0  0  0
   40.0950   23.7640   35.0760 N   0  0  0  0  0  0  0  0  0  0  0  0
   40.7680   23.3610   36.1080 C   0  0  0  0  0  0  0  0  0  0  0  0
   40.0790   22.9190   37.1650 N   0  0  0  0  0  0  0  0  0  0  0  0
   42.2200   23.5340   35.9370 C   0  0  0  0  0  0  0  0  0  0  0  0
   42.9320   22.9730   36.9540 F   0  0  0  0  0  0  0  0  0  0  0  0
   42.5450   24.8960   35.8160 F   0  0  0  0  0  0  0  0  0  0  0  0
   42.6340   22.9720   34.7140 F   0  0  0  0  0  0  0  0  0  0  0  0
   38.7910   26.4200   35.5280 C   0  0  0  0  0  0  0  0  0  0  0  0
   38.8290   27.7810   36.0600 F   0  0  0  0  0  0  0  0  0  0  0  0
   38.2220   26.0490   36.7110 F   0  0  0  0  0  0  0  0  0  0  0  0
   40.1090   26.4660   35.3150 F   0  0  0  0  0  0  0  0  0  0  0  0
   36.4048   22.7377   31.2056 H   0  0  0  0  0  0  0  0  0  0  0  0
   35.5040   27.3153   31.4723 H   0  0  0  0  0  0  0  0  0  0  0  0
   36.1762   29.1070   33.0403 H   0  0  0  0  0  0  0  0  0  0  0  0
   37.7378   28.5183   34.8852 H   0  0  0  0  0  0  0  0  0  0  0  0
   38.1525   22.5482   37.9726 H   0  0  0  0  0  0  0  0  0  0  0  0
   36.9524   23.3289   35.9784 H   0  0  0  0  0  0  0  0  0  0  0  0
  1 13  1  0
  2  1  2  0
  3  2  1  0
  4  3  2  0
  4  5  1  0
  5 10  2  0
  6  5  1  0
  6  7  2  0
  7  8  1  0
  8  9  2  0
  9 21  1  0
 10  1  1  0
 10  9  1  0
 11 16  2  0
 12 11  1  0
 13 14  1  0
 13 12  2  0
 14 15  2  0
 15 16  1  0
 17 15  1  0
 17 18  1  0
 19 17  1  0
 20 17  1  0
 21 22  1  0
 21 23  1  0
 24 21  1  0
  3 25  1  0
  6 26  1  0
  7 27  1  0
  8 28  1  0
 11 29  1  0
 12 30  1  0
M  ISO  6  25  14  26  14  27  14  28  14  29  14  30  14
M  END
>  <minimizedAffinity>  (1) 
-5.765872

>  <minimizedRMSD>  (1) 
2.86973715

$$$$
