
     RDKit          3D

 33 36  0  0  0  0  0  0  0  0999 V2000
   38.0000   23.1680   35.3830 C   0  0  0  0  0  0  0  0  0  0  0  0
   38.0630   22.6690   36.6380 N   0  0  0  0  0  0  0  0  0  0  0  0
   38.1810   23.4310   37.7290 C   0  0  0  0  0  0  0  0  0  0  0  0
   38.2470   24.7890   37.6540 N   0  0  0  0  0  0  0  0  0  0  0  0
   38.1900   25.3840   36.4130 C   0  0  0  0  0  0  0  0  0  0  0  0
   38.2570   26.7420   36.3120 C   0  0  0  0  0  0  0  0  0  0  0  0
   38.2050   27.3500   35.0910 C   0  0  0  0  0  0  0  0  0  0  0  0
   38.0800   26.5230   33.9870 C   0  0  0  0  0  0  0  0  0  0  0  0
   38.0150   25.1540   34.1540 C   0  0  0  0  0  0  0  0  0  0  0  0
   38.0680   24.5300   35.3570 C   0  0  0  0  0  0  0  0  0  0  0  0
   39.1200   20.9710   32.6640 C   0  0  0  0  0  0  0  0  0  0  0  0
   39.1400   21.8200   33.7490 C   0  0  0  0  0  0  0  0  0  0  0  0
   37.8940   22.2870   34.2530 C   0  0  0  0  0  0  0  0  0  0  0  0
   36.8340   21.8130   33.5780 N   0  0  0  0  0  0  0  0  0  0  0  0
   36.8050   21.0080   32.5500 C   0  0  0  0  0  0  0  0  0  0  0  0
   37.9780   20.5660   32.0670 N   0  0  0  0  0  0  0  0  0  0  0  0
   35.4360   20.7220   32.0820 C   0  0  0  0  0  0  0  0  0  0  0  0
   34.9680   19.5150   32.5140 F   0  0  0  0  0  0  0  0  0  0  0  0
   35.3850   20.7720   30.6780 F   0  0  0  0  0  0  0  0  0  0  0  0
   34.5660   21.7470   32.4900 F   0  0  0  0  0  0  0  0  0  0  0  0
   37.8410   24.6520   32.8190 N   0  0  0  0  0  0  0  0  0  0  0  0
   39.0500   24.6410   32.1530 C   0  0  0  0  0  0  0  0  0  0  0  0
   38.8720   24.1150   30.8960 N   0  0  0  0  0  0  0  0  0  0  0  0
   37.5350   23.8250   30.8610 C   0  0  0  0  0  0  0  0  0  0  0  0
   36.9230   24.1450   32.0080 N   0  0  0  0  0  0  0  0  0  0  0  0
   38.2261   22.9476   38.7160 H   0  0  0  0  0  0  0  0  0  0  0  0
   38.3537   27.3526   37.2218 H   0  0  0  0  0  0  0  0  0  0  0  0
   38.2597   28.4439   34.9888 H   0  0  0  0  0  0  0  0  0  0  0  0
   38.0325   26.9568   32.9773 H   0  0  0  0  0  0  0  0  0  0  0  0
   40.0782   20.6062   32.2656 H   0  0  0  0  0  0  0  0  0  0  0  0
   40.0897   22.1272   34.2112 H   0  0  0  0  0  0  0  0  0  0  0  0
   40.0061   24.9974   32.5640 H   0  0  0  0  0  0  0  0  0  0  0  0
   37.0239   23.3817   29.9936 H   0  0  0  0  0  0  0  0  0  0  0  0
  1  2  2  0
  2  3  1  0
  4  3  2  0
  5  4  1  0
  6  5  2  0
  7  6  1  0
  8  9  1  0
  8  7  2  0
  9 10  2  0
 10  1  1  0
 10  5  1  0
 11 12  2  0
 12 13  1  0
 13  1  1  0
 14 13  2  0
 15 14  1  0
 16 15  2  0
 16 11  1  0
 17 20  1  0
 17 18  1  0
 17 15  1  0
 19 17  1  0
 21  9  1  0
 22 21  1  0
 23 22  2  0
 24 23  1  0
 24 25  2  0
 25 21  1  0
  3 26  1  0
  6 27  1  0
  7 28  1  0
  8 29  1  0
 11 30  1  0
 12 31  1  0
 22 32  1  0
 24 33  1  0
M  ISO  8  26  14  27  14  28  14  29  14  30  14  31  14  32  14  33  14
M  END
>  <minimizedAffinity>  (1) 
-5.81266451

>  <minimizedRMSD>  (1) 
5.7530694

$$$$
