
     RDKit          3D

 33 36  0  0  0  0  0  0  0  0999 V2000
   37.3870   24.3030   32.4000 C   0  0  0  0  0  0  0  0  0  0  0  0
   36.5570   23.3530   31.9080 N   0  0  0  0  0  0  0  0  0  0  0  0
   35.4310   23.6220   31.2480 C   0  0  0  0  0  0  0  0  0  0  0  0
   35.0230   24.8990   31.0160 N   0  0  0  0  0  0  0  0  0  0  0  0
   35.7950   25.9330   31.4760 C   0  0  0  0  0  0  0  0  0  0  0  0
   35.4140   27.2280   31.2740 C   0  0  0  0  0  0  0  0  0  0  0  0
   36.1590   28.2670   31.7350 C   0  0  0  0  0  0  0  0  0  0  0  0
   37.3170   27.9400   32.4160 C   0  0  0  0  0  0  0  0  0  0  0  0
   37.6770   26.6180   32.6030 C   0  0  0  0  0  0  0  0  0  0  0  0
   36.9500   25.5730   32.1530 C   0  0  0  0  0  0  0  0  0  0  0  0
   40.9240   23.4570   32.8900 C   0  0  0  0  0  0  0  0  0  0  0  0
   39.7320   23.8060   32.2760 C   0  0  0  0  0  0  0  0  0  0  0  0
   38.5910   23.9340   33.1090 C   0  0  0  0  0  0  0  0  0  0  0  0
   38.7950   23.7000   34.4210 N   0  0  0  0  0  0  0  0  0  0  0  0
   39.9410   23.3660   34.9900 C   0  0  0  0  0  0  0  0  0  0  0  0
   41.0390   23.2400   34.2090 N   0  0  0  0  0  0  0  0  0  0  0  0
   39.8050   23.1610   36.4380 C   0  0  0  0  0  0  0  0  0  0  0  0
   41.0010   23.1190   37.0870 F   0  0  0  0  0  0  0  0  0  0  0  0
   39.0890   21.9770   36.6990 F   0  0  0  0  0  0  0  0  0  0  0  0
   38.9780   24.1580   36.9820 F   0  0  0  0  0  0  0  0  0  0  0  0
   38.9160   26.6770   33.3650 C   0  0  0  0  0  0  0  0  0  0  0  0
   40.1600   27.0550   32.4030 C   0  0  0  0  0  0  0  0  0  0  0  0
   41.5890   27.1510   33.5090 S   0  0  0  0  0  0  0  0  0  0  0  0
   40.4940   26.7190   34.9940 C   0  0  0  0  0  0  0  0  0  0  0  0
   39.5090   26.6080   34.5260 N   0  0  0  0  0  0  0  0  0  0  0  0
   34.8143   22.7885   30.8806 H   0  0  0  0  0  0  0  0  0  0  0  0
   34.4831   27.4354   30.7258 H   0  0  0  0  0  0  0  0  0  0  0  0
   35.8568   29.3125   31.5748 H   0  0  0  0  0  0  0  0  0  0  0  0
   37.9589   28.7401   32.8133 H   0  0  0  0  0  0  0  0  0  0  0  0
   41.8223   23.3525   32.2638 H   0  0  0  0  0  0  0  0  0  0  0  0
   39.6731   23.9762   31.1909 H   0  0  0  0  0  0  0  0  0  0  0  0
   40.1415   27.2179   31.3153 H   0  0  0  0  0  0  0  0  0  0  0  0
   40.7743   26.6083   36.0519 H   0  0  0  0  0  0  0  0  0  0  0  0
  1 13  1  0
  2  1  2  0
  3  2  1  0
  4  3  2  0
  4  5  1  0
  5 10  2  0
  6  5  1  0
  6  7  2  0
  7  8  1  0
  8  9  2  0
  9 21  1  0
 10  1  1  0
 10  9  1  0
 11 16  2  0
 12 11  1  0
 12 13  2  0
 13 14  1  0
 14 15  2  0
 15 17  1  0
 16 15  1  0
 17 19  1  0
 17 20  1  0
 17 18  1  0
 21 25  1  0
 22 21  2  0
 22 23  1  0
 23 24  1  0
 25 24  2  0
  3 26  1  0
  6 27  1  0
  7 28  1  0
  8 29  1  0
 11 30  1  0
 12 31  1  0
 22 32  1  0
 24 33  1  0
M  ISO  8  26  14  27  14  28  14  29  14  30  14  31  14  32  14  33  14
M  END
>  <minimizedAffinity>  (1) 
-5.1087079

>  <minimizedRMSD>  (1) 
4.14347553

$$$$
