
     RDKit          3D

 38 41  0  0  0  0  0  0  0  0999 V2000
   38.3870   23.2460   35.4080 C   0  0  0  0  0  0  0  0  0  0  0  0
   38.1000   22.7100   36.6150 N   0  0  0  0  0  0  0  0  0  0  0  0
   37.8790   23.4320   37.7150 C   0  0  0  0  0  0  0  0  0  0  0  0
   37.9270   24.7950   37.6960 N   0  0  0  0  0  0  0  0  0  0  0  0
   38.2090   25.4190   36.5240 C   0  0  0  0  0  0  0  0  0  0  0  0
   38.2710   26.7910   36.4740 C   0  0  0  0  0  0  0  0  0  0  0  0
   38.5620   27.4360   35.2920 C   0  0  0  0  0  0  0  0  0  0  0  0
   38.7860   26.6420   34.1740 C   0  0  0  0  0  0  0  0  0  0  0  0
   38.7090   25.2670   34.2880 C   0  0  0  0  0  0  0  0  0  0  0  0
   38.4250   24.6100   35.4360 C   0  0  0  0  0  0  0  0  0  0  0  0
   38.9900   24.8380   32.9620 N   0  0  0  0  0  0  0  0  0  0  0  0
   40.0990   24.4250   32.3140 C   0  0  0  0  0  0  0  0  0  0  0  0
   40.1180   23.9850   31.0130 C   0  0  0  0  0  0  0  0  0  0  0  0
   38.9540   23.9420   30.2790 C   0  0  0  0  0  0  0  0  0  0  0  0
   39.0690   23.4760   28.9540 N   0  0  0  0  0  0  0  0  0  0  0  0
   37.7730   24.3370   30.8380 N   0  0  0  0  0  0  0  0  0  0  0  0
   37.8750   24.7570   32.1400 C   0  0  0  0  0  0  0  0  0  0  0  0
   36.7250   25.1050   32.5770 O   0  0  0  0  0  0  0  0  0  0  0  0
   40.2750   21.1490   33.0620 C   0  0  0  0  0  0  0  0  0  0  0  0
   39.9540   21.9700   34.1190 C   0  0  0  0  0  0  0  0  0  0  0  0
   38.6190   22.4000   34.2710 C   0  0  0  0  0  0  0  0  0  0  0  0
   37.7940   21.9280   33.3190 N   0  0  0  0  0  0  0  0  0  0  0  0
   38.0800   21.1450   32.3040 C   0  0  0  0  0  0  0  0  0  0  0  0
   39.3510   20.7400   32.1630 N   0  0  0  0  0  0  0  0  0  0  0  0
   36.9000   20.8540   31.4670 C   0  0  0  0  0  0  0  0  0  0  0  0
   36.3500   19.6320   31.7250 F   0  0  0  0  0  0  0  0  0  0  0  0
   37.2460   20.9320   30.1070 F   0  0  0  0  0  0  0  0  0  0  0  0
   35.9380   21.8640   31.6290 F   0  0  0  0  0  0  0  0  0  0  0  0
   37.6527   22.9158   38.6596 H   0  0  0  0  0  0  0  0  0  0  0  0
   38.0868   27.3789   37.3852 H   0  0  0  0  0  0  0  0  0  0  0  0
   38.6148   28.5333   35.2357 H   0  0  0  0  0  0  0  0  0  0  0  0
   39.0230   27.1048   33.2047 H   0  0  0  0  0  0  0  0  0  0  0  0
   41.0513   24.4418   32.8642 H   0  0  0  0  0  0  0  0  0  0  0  0
   41.0663   23.6659   30.5560 H   0  0  0  0  0  0  0  0  0  0  0  0
   39.9880   23.1912   28.5862 H   0  0  0  0  0  0  0  0  0  0  0  0
   38.2341   23.4202   28.3534 H   0  0  0  0  0  0  0  0  0  0  0  0
   41.3164   20.8148   32.9446 H   0  0  0  0  0  0  0  0  0  0  0  0
   40.7271   22.2862   34.8348 H   0  0  0  0  0  0  0  0  0  0  0  0
  1 10  1  0
  1  2  2  0
  2  3  1  0
  4  3  2  0
  5  4  1  0
  6  5  2  0
  7  6  1  0
  8  9  1  0
  8  7  2  0
  9 10  2  0
 10  5  1  0
 11  9  1  0
 12 11  1  0
 13 12  2  0
 14 16  2  0
 14 13  1  0
 15 14  1  0
 16 17  1  0
 17 18  2  0
 17 11  1  0
 19 20  2  0
 20 21  1  0
 21  1  1  0
 22 21  2  0
 23 22  1  0
 24 23  2  0
 24 19  1  0
 25 28  1  0
 25 26  1  0
 25 23  1  0
 27 25  1  0
  3 29  1  0
  6 30  1  0
  7 31  1  0
  8 32  1  0
 12 33  1  0
 13 34  1  0
 15 35  1  0
 15 36  1  0
 19 37  1  0
 20 38  1  0
M  ISO  8  29  14  30  14  31  14  32  14  33  14  34  14  37  14  38  14
M  END
>  <minimizedAffinity>  (1) 
-5.57337713

>  <minimizedRMSD>  (1) 
5.59374571

$$$$
