
     RDKit          3D

 39 42  0  0  0  0  0  0  0  0999 V2000
   39.6020   22.7960   33.8400 C   0  0  0  0  0  0  0  0  0  0  0  0
   40.4380   22.0250   34.5750 N   0  0  0  0  0  0  0  0  0  0  0  0
   41.3250   22.5140   35.4420 C   0  0  0  0  0  0  0  0  0  0  0  0
   41.4570   23.8510   35.6580 N   0  0  0  0  0  0  0  0  0  0  0  0
   40.6450   24.7150   34.9530 C   0  0  0  0  0  0  0  0  0  0  0  0
   40.7570   26.0630   35.1390 C   0  0  0  0  0  0  0  0  0  0  0  0
   39.9700   26.9300   34.4410 C   0  0  0  0  0  0  0  0  0  0  0  0
   39.0590   26.3760   33.5440 C   0  0  0  0  0  0  0  0  0  0  0  0
   38.9980   25.0030   33.4070 C   0  0  0  0  0  0  0  0  0  0  0  0
   39.7720   24.1250   34.0890 C   0  0  0  0  0  0  0  0  0  0  0  0
   38.3550   21.3980   30.6900 C   0  0  0  0  0  0  0  0  0  0  0  0
   39.1760   21.9850   31.6320 C   0  0  0  0  0  0  0  0  0  0  0  0
   38.6710   22.1950   32.9250 C   0  0  0  0  0  0  0  0  0  0  0  0
   37.4000   21.7800   33.0880 N   0  0  0  0  0  0  0  0  0  0  0  0
   36.6000   21.2210   32.2090 C   0  0  0  0  0  0  0  0  0  0  0  0
   37.0920   21.0210   30.9640 N   0  0  0  0  0  0  0  0  0  0  0  0
   35.2730   20.9070   32.7460 C   0  0  0  0  0  0  0  0  0  0  0  0
   35.3000   20.5200   34.0530 F   0  0  0  0  0  0  0  0  0  0  0  0
   34.6620   19.9050   31.9780 F   0  0  0  0  0  0  0  0  0  0  0  0
   34.4280   22.0170   32.5770 F   0  0  0  0  0  0  0  0  0  0  0  0
   37.9530   24.8530   32.4550 N   0  0  0  0  0  0  0  0  0  0  0  0
   36.5520   24.5620   32.2010 C   0  0  0  0  0  0  0  0  0  0  0  0
   36.0070   25.8380   31.5590 C   0  0  0  0  0  0  0  0  0  0  0  0
   37.1810   26.1720   30.6530 C   0  0  0  0  0  0  0  0  0  0  0  0
   38.2000   25.1090   31.0070 C   0  0  0  0  0  0  0  0  0  0  0  0
   41.9685   21.8168   35.9986 H   0  0  0  0  0  0  0  0  0  0  0  0
   41.4903   26.4536   35.8599 H   0  0  0  0  0  0  0  0  0  0  0  0
   40.0505   28.0182   34.5797 H   0  0  0  0  0  0  0  0  0  0  0  0
   38.3963   27.0244   32.9520 H   0  0  0  0  0  0  0  0  0  0  0  0
   38.7481   21.2319   29.6762 H   0  0  0  0  0  0  0  0  0  0  0  0
   40.2036   22.2817   31.3750 H   0  0  0  0  0  0  0  0  0  0  0  0
   36.4503   23.7077   31.5156 H   0  0  0  0  0  0  0  0  0  0  0  0
   36.0083   24.2894   33.1176 H   0  0  0  0  0  0  0  0  0  0  0  0
   35.0859   25.6507   30.9876 H   0  0  0  0  0  0  0  0  0  0  0  0
   35.7125   26.6313   32.2618 H   0  0  0  0  0  0  0  0  0  0  0  0
   37.5702   27.1787   30.8656 H   0  0  0  0  0  0  0  0  0  0  0  0
   36.9156   26.1787   29.5855 H   0  0  0  0  0  0  0  0  0  0  0  0
   38.0379   24.1969   30.4139 H   0  0  0  0  0  0  0  0  0  0  0  0
   39.2337   25.4225   30.7992 H   0  0  0  0  0  0  0  0  0  0  0  0
  1 10  1  0
  1  2  2  0
  2  3  1  0
  3  4  2  0
  5  6  2  0
  5  4  1  0
  7  6  1  0
  8  7  2  0
  9  8  1  0
  9 10  2  0
 10  5  1  0
 11 16  2  0
 11 12  1  0
 12 13  2  0
 13 14  1  0
 13  1  1  0
 15 17  1  0
 15 14  2  0
 16 15  1  0
 17 18  1  0
 19 17  1  0
 20 17  1  0
 21  9  1  0
 22 21  1  0
 23 22  1  0
 24 25  1  0
 24 23  1  0
 25 21  1  0
  3 26  1  0
  6 27  1  0
  7 28  1  0
  8 29  1  0
 11 30  1  0
 12 31  1  0
 22 32  1  0
 22 33  1  0
 23 34  1  0
 23 35  1  0
 24 36  1  0
 24 37  1  0
 25 38  1  0
 25 39  1  0
M  ISO  8  26  14  27  14  28  14  29  14  30  14  31  14  32  13  33  13
M  ISO  6  34  13  35  13  36  13  37  13  38  13  39  13
M  END
>  <minimizedAffinity>  (1) 
-4.79030418

>  <minimizedRMSD>  (1) 
6.02396441

$$$$
