
     RDKit          3D

 39 41  0  0  0  0  0  0  0  0999 V2000
   41.2740   25.6150   34.9840 C   0  0  0  0  0  0  0  0  0  0  0  0
   40.6820   26.7960   34.7650 N   0  0  0  0  0  0  0  0  0  0  0  0
   39.3570   26.9680   34.6680 C   0  0  0  0  0  0  0  0  0  0  0  0
   38.5070   25.9180   34.7840 N   0  0  0  0  0  0  0  0  0  0  0  0
   39.0370   24.6910   35.0040 C   0  0  0  0  0  0  0  0  0  0  0  0
   38.2280   23.5800   35.0270 C   0  0  0  0  0  0  0  0  0  0  0  0
   38.7740   22.3510   35.1630 C   0  0  0  0  0  0  0  0  0  0  0  0
   40.1500   22.2610   35.2860 C   0  0  0  0  0  0  0  0  0  0  0  0
   40.9540   23.3310   35.2660 C   0  0  0  0  0  0  0  0  0  0  0  0
   40.4170   24.5630   35.1070 C   0  0  0  0  0  0  0  0  0  0  0  0
   44.6220   25.5310   33.4560 C   0  0  0  0  0  0  0  0  0  0  0  0
   43.2630   25.5270   33.6140 C   0  0  0  0  0  0  0  0  0  0  0  0
   42.6760   25.5110   34.9310 C   0  0  0  0  0  0  0  0  0  0  0  0
   43.6460   25.5170   35.8310 N   0  0  0  0  0  0  0  0  0  0  0  0
   44.9400   25.5190   35.7510 C   0  0  0  0  0  0  0  0  0  0  0  0
   45.4550   25.5240   34.5220 N   0  0  0  0  0  0  0  0  0  0  0  0
   45.5940   25.4070   37.0550 C   0  0  0  0  0  0  0  0  0  0  0  0
   46.6250   26.2720   37.1960 F   0  0  0  0  0  0  0  0  0  0  0  0
   46.0400   24.0830   37.2560 F   0  0  0  0  0  0  0  0  0  0  0  0
   44.6570   25.6060   38.0840 F   0  0  0  0  0  0  0  0  0  0  0  0
   42.3590   22.8350   35.3710 C   0  0  0  0  0  0  0  0  0  0  0  0
   42.1680   21.2590   35.5490 C   0  0  0  0  0  0  0  0  0  0  0  0
   43.0200   22.9070   36.6800 C   0  0  0  0  0  0  0  0  0  0  0  0
   43.0730   22.5480   34.0790 C   0  0  0  0  0  0  0  0  0  0  0  0
   38.9527   27.9757   34.4917 H   0  0  0  0  0  0  0  0  0  0  0  0
   37.1375   23.6909   34.9348 H   0  0  0  0  0  0  0  0  0  0  0  0
   38.1439   21.4494   35.1756 H   0  0  0  0  0  0  0  0  0  0  0  0
   40.6028   21.2657   35.4055 H   0  0  0  0  0  0  0  0  0  0  0  0
   45.0462   25.5401   32.4411 H   0  0  0  0  0  0  0  0  0  0  0  0
   42.6117   25.5361   32.7276 H   0  0  0  0  0  0  0  0  0  0  0  0
   42.1381   21.0120   36.6205 H   0  0  0  0  0  0  0  0  0  0  0  0
   41.2256   20.9480   35.0745 H   0  0  0  0  0  0  0  0  0  0  0  0
   43.0088   20.7318   35.0745 H   0  0  0  0  0  0  0  0  0  0  0  0
   42.2659   22.8249   37.4766 H   0  0  0  0  0  0  0  0  0  0  0  0
   43.7419   22.0822   36.7721 H   0  0  0  0  0  0  0  0  0  0  0  0
   43.5474   23.8679   36.7721 H   0  0  0  0  0  0  0  0  0  0  0  0
   44.0738   22.1457   34.2947 H   0  0  0  0  0  0  0  0  0  0  0  0
   42.4988   21.8108   33.4986 H   0  0  0  0  0  0  0  0  0  0  0  0
   43.1687   23.4775   33.4986 H   0  0  0  0  0  0  0  0  0  0  0  0
  1 10  1  0
  2  1  2  0
  3  2  1  0
  3  4  2  0
  4  5  1  0
  5  6  1  0
  5 10  2  0
  6  7  2  0
  7  8  1  0
  9  8  2  0
  9 21  1  0
 10  9  1  0
 11 12  2  0
 11 16  1  0
 12 13  1  0
 13  1  1  0
 13 14  2  0
 15 14  1  0
 15 17  1  0
 16 15  2  0
 17 18  1  0
 17 19  1  0
 17 20  1  0
 21 22  1  0
 21 23  1  0
 24 21  1  0
  3 25  1  0
  6 26  1  0
  7 27  1  0
  8 28  1  0
 11 29  1  0
 12 30  1  0
 22 31  1  0
 22 32  1  0
 22 33  1  0
 23 34  1  0
 23 35  1  0
 23 36  1  0
 24 37  1  0
 24 38  1  0
 24 39  1  0
M  ISO  8  25  14  26  14  27  14  28  14  29  14  30  14  31   8  32   8
M  ISO  7  33   8  34   8  35   8  36   8  37   8  38   8  39   8
M  END
>  <minimizedAffinity>  (1) 
-4.63548374

>  <minimizedRMSD>  (1) 
4.39877129

$$$$
