
     RDKit          3D

 30 33  0  0  0  0  0  0  0  0999 V2000
   38.6580   24.6500   34.7860 N   0  0  0  0  0  0  0  0  0  0  0  0
   39.6140   23.8840   34.1630 C   0  0  0  0  0  0  0  0  0  0  0  0
   40.1430   23.0490   35.1120 N   0  0  0  0  0  0  0  0  0  0  0  0
   39.5370   23.2930   36.2700 C   0  0  0  0  0  0  0  0  0  0  0  0
   39.6230   22.7960   37.5530 C   0  0  0  0  0  0  0  0  0  0  0  0
   38.8650   23.2300   38.5840 N   0  0  0  0  0  0  0  0  0  0  0  0
   37.9540   24.2230   38.3540 C   0  0  0  0  0  0  0  0  0  0  0  0
   37.8440   24.7300   37.1100 N   0  0  0  0  0  0  0  0  0  0  0  0
   38.5970   24.2950   36.0950 C   0  0  0  0  0  0  0  0  0  0  0  0
   37.7510   26.8980   34.7860 C   0  0  0  0  0  0  0  0  0  0  0  0
   37.8790   25.6450   34.1180 C   0  0  0  0  0  0  0  0  0  0  0  0
   37.2590   25.4770   32.8910 C   0  0  0  0  0  0  0  0  0  0  0  0
   36.5540   26.5390   32.3940 N   0  0  0  0  0  0  0  0  0  0  0  0
   36.4360   27.7090   33.0190 C   0  0  0  0  0  0  0  0  0  0  0  0
   37.0410   27.8790   34.2190 N   0  0  0  0  0  0  0  0  0  0  0  0
   35.6700   28.8100   32.4390 C   0  0  0  0  0  0  0  0  0  0  0  0
   35.9010   29.7110   31.4100 C   0  0  0  0  0  0  0  0  0  0  0  0
   34.7990   30.5380   31.3150 C   0  0  0  0  0  0  0  0  0  0  0  0
   33.9360   30.0900   32.3120 C   0  0  0  0  0  0  0  0  0  0  0  0
   34.5020   29.0670   32.9450 O   0  0  0  0  0  0  0  0  0  0  0  0
   40.5490   21.7720   37.8650 N   0  0  0  0  0  0  0  0  0  0  0  0
   39.9006   23.9322   33.1021 H   0  0  0  0  0  0  0  0  0  0  0  0
   37.3215   24.6018   39.1703 H   0  0  0  0  0  0  0  0  0  0  0  0
   38.2333   27.0567   35.7618 H   0  0  0  0  0  0  0  0  0  0  0  0
   37.3305   24.5284   32.3386 H   0  0  0  0  0  0  0  0  0  0  0  0
   36.8022   29.7584   30.7811 H   0  0  0  0  0  0  0  0  0  0  0  0
   34.6386   31.3662   30.6090 H   0  0  0  0  0  0  0  0  0  0  0  0
   32.9466   30.5138   32.5389 H   0  0  0  0  0  0  0  0  0  0  0  0
   40.6074   21.4057   38.8259 H   0  0  0  0  0  0  0  0  0  0  0  0
   41.1644   21.3931   37.1311 H   0  0  0  0  0  0  0  0  0  0  0  0
  1  9  1  0
  2  1  1  0
  2  3  2  0
  3  4  1  0
  4  5  2  0
  5 21  1  0
  5  6  1  0
  7  6  2  0
  8  7  1  0
  9  4  1  0
  9  8  2  0
 11 10  2  0
 11  1  1  0
 12 11  1  0
 13 12  2  0
 13 14  1  0
 14 15  2  0
 15 10  1  0
 16 20  1  0
 16 14  1  0
 17 16  2  0
 18 17  1  0
 18 19  2  0
 19 20  1  0
  2 22  1  0
  7 23  1  0
 10 24  1  0
 12 25  1  0
 17 26  1  0
 18 27  1  0
 19 28  1  0
 21 29  1  0
 21 30  1  0
M  ISO  7  22  14  23  14  24  14  25  14  26  14  27  14  28  14
M  END
>  <minimizedAffinity>  (1) 
-5.86024189

>  <minimizedRMSD>  (1) 
0.689206719

$$$$
