
     RDKit          3D

 40 43  0  0  0  0  0  0  0  0999 V2000
   40.3830   23.7720   34.5110 C   0  0  0  0  0  0  0  0  0  0  0  0
   40.1470   22.5230   34.9760 N   0  0  0  0  0  0  0  0  0  0  0  0
   39.2930   22.2450   35.9620 C   0  0  0  0  0  0  0  0  0  0  0  0
   38.5790   23.2290   36.5850 N   0  0  0  0  0  0  0  0  0  0  0  0
   38.7540   24.5130   36.1830 C   0  0  0  0  0  0  0  0  0  0  0  0
   38.0560   25.5210   36.8040 C   0  0  0  0  0  0  0  0  0  0  0  0
   38.2350   26.8360   36.4090 C   0  0  0  0  0  0  0  0  0  0  0  0
   39.1360   27.0740   35.3780 C   0  0  0  0  0  0  0  0  0  0  0  0
   39.8020   26.0130   34.7990 C   0  0  0  0  0  0  0  0  0  0  0  0
   39.6450   24.7190   35.1680 C   0  0  0  0  0  0  0  0  0  0  0  0
   43.6430   24.3510   32.9280 C   0  0  0  0  0  0  0  0  0  0  0  0
   42.6710   24.1450   33.8840 C   0  0  0  0  0  0  0  0  0  0  0  0
   41.3300   23.9870   33.4520 C   0  0  0  0  0  0  0  0  0  0  0  0
   41.1820   24.0590   32.1190 N   0  0  0  0  0  0  0  0  0  0  0  0
   42.1050   24.2560   31.2080 C   0  0  0  0  0  0  0  0  0  0  0  0
   43.3750   24.4080   31.6140 N   0  0  0  0  0  0  0  0  0  0  0  0
   41.5480   24.2880   29.8390 C   0  0  0  0  0  0  0  0  0  0  0  0
   41.7820   23.1440   29.1350 F   0  0  0  0  0  0  0  0  0  0  0  0
   42.0650   25.3920   29.1350 F   0  0  0  0  0  0  0  0  0  0  0  0
   40.1700   24.5540   29.8900 F   0  0  0  0  0  0  0  0  0  0  0  0
   41.6820   27.8840   31.4420 C   0  0  0  0  0  0  0  0  0  0  0  0
   42.4430   27.7380   32.5790 C   0  0  0  0  0  0  0  0  0  0  0  0
   41.8690   27.1490   33.6770 C   0  0  0  0  0  0  0  0  0  0  0  0
   40.5740   26.6780   33.7580 C   0  0  0  0  0  0  0  0  0  0  0  0
   39.8890   26.8830   32.5300 C   0  0  0  0  0  0  0  0  0  0  0  0
   40.3740   27.4660   31.3620 C   0  0  0  0  0  0  0  0  0  0  0  0
   42.4220   28.6360   30.0480 S   0  0  0  0  0  0  0  0  0  0  0  0
   43.7320   27.9270   29.8240 O   0  0  0  0  0  0  0  0  0  0  0  0
   41.4960   28.4480   28.8590 O   0  0  0  0  0  0  0  0  0  0  0  0
   39.1607   21.2005   36.2805 H   0  0  0  0  0  0  0  0  0  0  0  0
   37.3538   25.2826   37.6164 H   0  0  0  0  0  0  0  0  0  0  0  0
   37.6866   27.6585   36.8914 H   0  0  0  0  0  0  0  0  0  0  0  0
   39.3169   28.1004   35.0261 H   0  0  0  0  0  0  0  0  0  0  0  0
   44.6854   24.4742   33.2571 H   0  0  0  0  0  0  0  0  0  0  0  0
   42.9290   24.1044   34.9526 H   0  0  0  0  0  0  0  0  0  0  0  0
   43.4864   28.0852   32.6069 H   0  0  0  0  0  0  0  0  0  0  0  0
   42.4973   27.0425   34.5736 H   0  0  0  0  0  0  0  0  0  0  0  0
   38.8450   26.5380   32.4980 H   0  0  0  0  0  0  0  0  0  0  0  0
   39.7639   27.5822   30.4541 H   0  0  0  0  0  0  0  0  0  0  0  0
   42.6359   29.9777   30.2238 H   0  0  0  0  0  0  0  0  0  0  0  0
  1  2  2  0
  1 10  1  0
  2  3  1  0
  3  4  2  0
  5  4  1  0
  5  6  2  0
  7  6  1  0
  8  7  2  0
  9 10  2  0
  9  8  1  0
 10  5  1  0
 11 12  2  0
 13 12  1  0
 13  1  1  0
 14 13  2  0
 15 16  2  0
 15 14  1  0
 16 11  1  0
 17 20  1  0
 17 15  1  0
 18 17  1  0
 19 17  1  0
 21 22  2  0
 22 23  1  0
 23 24  2  0
 24  9  1  0
 25 24  1  0
 26 21  1  0
 26 25  2  0
 27 21  1  0
 28 27  2  0
 29 27  2  0
  3 30  1  0
  6 31  1  0
  7 32  1  0
  8 33  1  0
 11 34  1  0
 12 35  1  0
 22 36  1  0
 23 37  1  0
 25 38  1  0
 26 39  1  0
 27 40  1  0
M  ISO  8  30  14  31  14  32  14  33  14  34  14  35  14  36  14  37  14
M  ISO  3  38  14  39  14  40  11
M  END
>  <minimizedAffinity>  (1) 
-4.62863541

>  <minimizedRMSD>  (1) 
5.46325445

$$$$
