
     RDKit          3D

 39 43  0  0  0  0  0  0  0  0999 V2000
   38.1190   23.1140   35.1190 C   0  0  0  0  0  0  0  0  0  0  0  0
   38.3870   22.5500   36.3200 N   0  0  0  0  0  0  0  0  0  0  0  0
   38.5860   23.2480   37.4390 C   0  0  0  0  0  0  0  0  0  0  0  0
   38.5340   24.5970   37.4490 N   0  0  0  0  0  0  0  0  0  0  0  0
   38.2680   25.2610   36.2750 C   0  0  0  0  0  0  0  0  0  0  0  0
   38.2120   26.6210   36.2590 C   0  0  0  0  0  0  0  0  0  0  0  0
   37.9490   27.3010   35.0920 C   0  0  0  0  0  0  0  0  0  0  0  0
   37.7500   26.5280   33.9600 C   0  0  0  0  0  0  0  0  0  0  0  0
   37.8170   25.1510   34.0240 C   0  0  0  0  0  0  0  0  0  0  0  0
   38.0740   24.4750   35.1700 C   0  0  0  0  0  0  0  0  0  0  0  0
   39.0030   21.0030   32.2380 C   0  0  0  0  0  0  0  0  0  0  0  0
   39.1150   21.8050   33.3640 C   0  0  0  0  0  0  0  0  0  0  0  0
   37.9150   22.2830   33.9560 C   0  0  0  0  0  0  0  0  0  0  0  0
   36.7830   21.8850   33.3330 N   0  0  0  0  0  0  0  0  0  0  0  0
   36.6930   21.1210   32.2610 C   0  0  0  0  0  0  0  0  0  0  0  0
   37.8250   20.6710   31.7030 N   0  0  0  0  0  0  0  0  0  0  0  0
   35.2940   20.9030   31.8630 C   0  0  0  0  0  0  0  0  0  0  0  0
   34.9370   19.5960   31.8270 F   0  0  0  0  0  0  0  0  0  0  0  0
   35.0630   21.4760   30.5900 F   0  0  0  0  0  0  0  0  0  0  0  0
   34.4370   21.6370   32.6940 F   0  0  0  0  0  0  0  0  0  0  0  0
   37.5690   24.6830   32.6230 C   0  0  0  0  0  0  0  0  0  0  0  0
   36.5090   24.3120   31.9170 N   0  0  0  0  0  0  0  0  0  0  0  0
   36.9090   24.0060   30.7350 O   0  0  0  0  0  0  0  0  0  0  0  0
   38.2040   24.1580   30.6180 C   0  0  0  0  0  0  0  0  0  0  0  0
   38.6750   24.5880   31.7960 N   0  0  0  0  0  0  0  0  0  0  0  0
   38.9910   23.9020   29.4170 C   0  0  0  0  0  0  0  0  0  0  0  0
   39.5670   22.7010   29.0560 C   0  0  0  0  0  0  0  0  0  0  0  0
   40.1880   22.9290   27.8870 N   0  0  0  0  0  0  0  0  0  0  0  0
   40.0430   24.1960   27.4890 C   0  0  0  0  0  0  0  0  0  0  0  0
   39.2950   24.7840   28.4530 N   0  0  0  0  0  0  0  0  0  0  0  0
   38.7975   22.7118   38.3759 H   0  0  0  0  0  0  0  0  0  0  0  0
   38.3789   27.1829   37.1898 H   0  0  0  0  0  0  0  0  0  0  0  0
   37.8995   28.3994   35.0598 H   0  0  0  0  0  0  0  0  0  0  0  0
   37.5360   27.0175   32.9985 H   0  0  0  0  0  0  0  0  0  0  0  0
   39.9219   20.6248   31.7662 H   0  0  0  0  0  0  0  0  0  0  0  0
   40.0986   22.0621   33.7841 H   0  0  0  0  0  0  0  0  0  0  0  0
   39.5260   21.7523   29.6113 H   0  0  0  0  0  0  0  0  0  0  0  0
   40.4441   24.6609   26.5763 H   0  0  0  0  0  0  0  0  0  0  0  0
   39.0006   25.7710   28.4468 H   0  0  0  0  0  0  0  0  0  0  0  0
  1 10  1  0
  1  2  2  0
  2  3  1  0
  3  4  2  0
  5  4  1  0
  6  5  2  0
  7  6  1  0
  8  9  1  0
  8  7  2  0
  9 10  2  0
 10  5  1  0
 11 12  2  0
 12 13  1  0
 13  1  1  0
 14 13  2  0
 15 14  1  0
 16 11  1  0
 16 15  2  0
 17 15  1  0
 17 20  1  0
 18 17  1  0
 19 17  1  0
 21  9  1  0
 22 21  2  0
 23 22  1  0
 24 23  1  0
 24 25  2  0
 25 21  1  0
 26 24  1  0
 27 26  2  0
 28 27  1  0
 29 28  2  0
 29 30  1  0
 30 26  1  0
  3 31  1  0
  6 32  1  0
  7 33  1  0
  8 34  1  0
 11 35  1  0
 12 36  1  0
 27 37  1  0
 29 38  1  0
 30 39  1  0
M  ISO  8  31  14  32  14  33  14  34  14  35  14  36  14  37  14  38  14
M  ISO  1  39   9
M  END
>  <minimizedAffinity>  (1) 
-6.27258825

>  <minimizedRMSD>  (1) 
0.513561547

$$$$
