
     RDKit          3D

 46 50  0  0  0  0  0  0  0  0999 V2000
   38.1820   23.2970   35.0130 C   0  0  0  0  0  0  0  0  0  0  0  0
   38.4360   22.6090   36.1490 N   0  0  0  0  0  0  0  0  0  0  0  0
   38.5930   23.1700   37.3370 C   0  0  0  0  0  0  0  0  0  0  0  0
   38.5070   24.5270   37.5020 N   0  0  0  0  0  0  0  0  0  0  0  0
   38.2530   25.3040   36.4040 C   0  0  0  0  0  0  0  0  0  0  0  0
   38.1680   26.6550   36.5400 C   0  0  0  0  0  0  0  0  0  0  0  0
   37.9200   27.4560   35.4580 C   0  0  0  0  0  0  0  0  0  0  0  0
   37.7640   26.8230   34.2340 C   0  0  0  0  0  0  0  0  0  0  0  0
   37.8600   25.4430   34.1540 C   0  0  0  0  0  0  0  0  0  0  0  0
   38.1020   24.6410   35.2080 C   0  0  0  0  0  0  0  0  0  0  0  0
   37.6540   25.1330   32.7030 C   0  0  0  0  0  0  0  0  0  0  0  0
   36.6450   24.7050   31.9560 N   0  0  0  0  0  0  0  0  0  0  0  0
   37.0690   24.6310   30.7320 O   0  0  0  0  0  0  0  0  0  0  0  0
   38.3040   24.9850   30.6330 C   0  0  0  0  0  0  0  0  0  0  0  0
   38.7350   25.3180   31.8610 N   0  0  0  0  0  0  0  0  0  0  0  0
   39.3100   25.1350   29.6400 N   0  0  0  0  0  0  0  0  0  0  0  0
   40.0460   23.9550   29.1530 C   0  0  0  0  0  0  0  0  0  0  0  0
   39.4790   23.7970   27.7420 C   0  0  0  0  0  0  0  0  0  0  0  0
   39.7360   24.9340   26.9470 N   0  0  0  0  0  0  0  0  0  0  0  0
   40.1960   26.1230   27.5830 C   0  0  0  0  0  0  0  0  0  0  0  0
   39.7490   26.3490   28.9960 C   0  0  0  0  0  0  0  0  0  0  0  0
   39.1780   21.6820   31.8540 C   0  0  0  0  0  0  0  0  0  0  0  0
   39.2300   22.3360   33.0720 C   0  0  0  0  0  0  0  0  0  0  0  0
   38.0250   22.6010   33.7580 C   0  0  0  0  0  0  0  0  0  0  0  0
   36.9150   22.1680   33.1190 N   0  0  0  0  0  0  0  0  0  0  0  0
   36.8570   21.5430   31.9560 C   0  0  0  0  0  0  0  0  0  0  0  0
   38.0110   21.2920   31.3060 N   0  0  0  0  0  0  0  0  0  0  0  0
   35.4660   21.2330   31.5620 C   0  0  0  0  0  0  0  0  0  0  0  0
   35.3080   19.9310   31.1850 F   0  0  0  0  0  0  0  0  0  0  0  0
   35.0840   22.0720   30.4990 F   0  0  0  0  0  0  0  0  0  0  0  0
   34.5910   21.5670   32.6010 F   0  0  0  0  0  0  0  0  0  0  0  0
   38.7969   22.5332   38.2105 H   0  0  0  0  0  0  0  0  0  0  0  0
   38.3003   27.1098   37.5328 H   0  0  0  0  0  0  0  0  0  0  0  0
   37.8479   28.5494   35.5548 H   0  0  0  0  0  0  0  0  0  0  0  0
   37.5645   27.4151   33.3287 H   0  0  0  0  0  0  0  0  0  0  0  0
   41.1302   24.1395   29.1312 H   0  0  0  0  0  0  0  0  0  0  0  0
   39.9271   23.0624   29.7847 H   0  0  0  0  0  0  0  0  0  0  0  0
   39.9413   22.9185   27.2681 H   0  0  0  0  0  0  0  0  0  0  0  0
   38.3889   23.6732   27.8219 H   0  0  0  0  0  0  0  0  0  0  0  0
   38.8584   25.1696   26.4619 H   0  0  0  0  0  0  0  0  0  0  0  0
   41.2957   26.0972   27.5818 H   0  0  0  0  0  0  0  0  0  0  0  0
   39.7541   26.9483   27.0054 H   0  0  0  0  0  0  0  0  0  0  0  0
   40.5897   26.7675   29.5688 H   0  0  0  0  0  0  0  0  0  0  0  0
   38.8932   27.0396   28.9683 H   0  0  0  0  0  0  0  0  0  0  0  0
   40.1160   21.4747   31.3181 H   0  0  0  0  0  0  0  0  0  0  0  0
   40.1954   22.6448   33.4993 H   0  0  0  0  0  0  0  0  0  0  0  0
  1 10  1  0
  1  2  2  0
  2  3  1  0
  3  4  2  0
  5  6  2  0
  5  4  1  0
  7  6  1  0
  8  7  2  0
  9  8  1  0
  9 10  2  0
 10  5  1  0
 11  9  1  0
 12 11  2  0
 13 12  1  0
 14 13  1  0
 14 15  2  0
 15 11  1  0
 16 14  1  0
 17 16  1  0
 18 17  1  0
 19 20  1  0
 19 18  1  0
 20 21  1  0
 21 16  1  0
 22 23  2  0
 23 24  1  0
 24  1  1  0
 25 24  2  0
 26 25  1  0
 27 22  1  0
 27 26  2  0
 28 26  1  0
 28 31  1  0
 29 28  1  0
 30 28  1  0
  3 32  1  0
  6 33  1  0
  7 34  1  0
  8 35  1  0
 17 36  1  0
 17 37  1  0
 18 38  1  0
 18 39  1  0
 19 40  1  0
 20 41  1  0
 20 42  1  0
 21 43  1  0
 21 44  1  0
 22 45  1  0
 23 46  1  0
M  ISO  8  32  14  33  14  34  14  35  14  36  13  37  13  38  13  39  13
M  ISO  7  40   5  41  13  42  13  43  13  44  13  45  14  46  14
M  END
>  <minimizedAffinity>  (1) 
-6.56447649

>  <minimizedRMSD>  (1) 
0.960507929

$$$$
