
     RDKit          3D

 44 48  0  0  0  0  0  0  0  0999 V2000
   38.1110   23.1430   34.9940 C   0  0  0  0  0  0  0  0  0  0  0  0
   38.3210   22.5300   36.1880 N   0  0  0  0  0  0  0  0  0  0  0  0
   38.4680   23.1910   37.3360 C   0  0  0  0  0  0  0  0  0  0  0  0
   38.4170   24.5390   37.3950 N   0  0  0  0  0  0  0  0  0  0  0  0
   38.2080   25.2430   36.2370 C   0  0  0  0  0  0  0  0  0  0  0  0
   38.1600   26.6010   36.2670 C   0  0  0  0  0  0  0  0  0  0  0  0
   37.9590   27.3260   35.1140 C   0  0  0  0  0  0  0  0  0  0  0  0
   37.8120   26.5970   33.9430 C   0  0  0  0  0  0  0  0  0  0  0  0
   37.8690   25.2220   33.9640 C   0  0  0  0  0  0  0  0  0  0  0  0
   38.0660   24.5000   35.0930 C   0  0  0  0  0  0  0  0  0  0  0  0
   37.6920   24.8040   32.5370 C   0  0  0  0  0  0  0  0  0  0  0  0
   36.6790   24.4360   31.7640 N   0  0  0  0  0  0  0  0  0  0  0  0
   37.1330   24.1850   30.5970 O   0  0  0  0  0  0  0  0  0  0  0  0
   38.4200   24.3680   30.5410 C   0  0  0  0  0  0  0  0  0  0  0  0
   38.8310   24.7640   31.7510 N   0  0  0  0  0  0  0  0  0  0  0  0
   39.3640   24.2150   29.4620 N   0  0  0  0  0  0  0  0  0  0  0  0
   39.7670   23.1050   28.5890 C   0  0  0  0  0  0  0  0  0  0  0  0
   39.5310   23.7340   27.2120 C   0  0  0  0  0  0  0  0  0  0  0  0
   39.9450   25.1940   27.4010 C   0  0  0  0  0  0  0  0  0  0  0  0
   40.2470   25.2430   28.8900 C   0  0  0  0  0  0  0  0  0  0  0  0
   39.1340   21.2040   32.0440 C   0  0  0  0  0  0  0  0  0  0  0  0
   39.1940   21.9600   33.2050 C   0  0  0  0  0  0  0  0  0  0  0  0
   37.9610   22.3540   33.7960 C   0  0  0  0  0  0  0  0  0  0  0  0
   36.8610   21.9350   33.1440 N   0  0  0  0  0  0  0  0  0  0  0  0
   36.8190   21.2120   32.0340 C   0  0  0  0  0  0  0  0  0  0  0  0
   37.9890   20.8390   31.4730 N   0  0  0  0  0  0  0  0  0  0  0  0
   35.4420   20.9450   31.5980 C   0  0  0  0  0  0  0  0  0  0  0  0
   35.2190   19.6560   31.2390 F   0  0  0  0  0  0  0  0  0  0  0  0
   35.1050   21.7900   30.5240 F   0  0  0  0  0  0  0  0  0  0  0  0
   34.5380   21.3410   32.6010 F   0  0  0  0  0  0  0  0  0  0  0  0
   38.6357   22.6219   38.2623 H   0  0  0  0  0  0  0  0  0  0  0  0
   38.2833   27.1276   37.2249 H   0  0  0  0  0  0  0  0  0  0  0  0
   37.9172   28.4252   35.1210 H   0  0  0  0  0  0  0  0  0  0  0  0
   37.6486   27.1219   32.9902 H   0  0  0  0  0  0  0  0  0  0  0  0
   40.8230   22.8349   28.7366 H   0  0  0  0  0  0  0  0  0  0  0  0
   39.2239   22.1643   28.7628 H   0  0  0  0  0  0  0  0  0  0  0  0
   38.4717   23.6613   26.9245 H   0  0  0  0  0  0  0  0  0  0  0  0
   40.0962   23.2320   26.4129 H   0  0  0  0  0  0  0  0  0  0  0  0
   40.8359   25.4380   26.8037 H   0  0  0  0  0  0  0  0  0  0  0  0
   39.1826   25.9180   27.0777 H   0  0  0  0  0  0  0  0  0  0  0  0
   41.3031   25.0040   29.0836 H   0  0  0  0  0  0  0  0  0  0  0  0
   40.0778   26.2389   29.3255 H   0  0  0  0  0  0  0  0  0  0  0  0
   40.0776   20.8913   31.5729 H   0  0  0  0  0  0  0  0  0  0  0  0
   40.1580   22.2443   33.6520 H   0  0  0  0  0  0  0  0  0  0  0  0
  1 10  1  0
  1  2  2  0
  2  3  1  0
  3  4  2  0
  5  6  2  0
  5  4  1  0
  7  6  1  0
  8  9  1  0
  8  7  2  0
  9 10  2  0
 10  5  1  0
 11  9  1  0
 12 11  2  0
 13 12  1  0
 14 13  1  0
 14 15  2  0
 15 11  1  0
 16 14  1  0
 17 16  1  0
 18 19  1  0
 18 17  1  0
 19 20  1  0
 20 16  1  0
 21 22  2  0
 22 23  1  0
 23  1  1  0
 24 23  2  0
 25 24  1  0
 26 25  2  0
 26 21  1  0
 27 25  1  0
 27 30  1  0
 28 27  1  0
 29 27  1  0
  3 31  1  0
  6 32  1  0
  7 33  1  0
  8 34  1  0
 17 35  1  0
 17 36  1  0
 18 37  1  0
 18 38  1  0
 19 39  1  0
 19 40  1  0
 20 41  1  0
 20 42  1  0
 21 43  1  0
 22 44  1  0
M  ISO  8  31  14  32  14  33  14  34  14  35  13  36  13  37  13  38  13
M  ISO  6  39  13  40  13  41  13  42  13  43  14  44  14
M  END
>  <minimizedAffinity>  (1) 
-6.51925802

>  <minimizedRMSD>  (1) 
0.439338982

$$$$
