
     RDKit          3D

 47 51  0  0  0  0  0  0  0  0999 V2000
   38.1350   23.1420   35.0530 C   0  0  0  0  0  0  0  0  0  0  0  0
   38.4130   22.5460   36.2410 N   0  0  0  0  0  0  0  0  0  0  0  0
   38.6070   23.2160   37.3750 C   0  0  0  0  0  0  0  0  0  0  0  0
   38.5350   24.5820   37.4190 N   0  0  0  0  0  0  0  0  0  0  0  0
   38.2600   25.2630   36.2700 C   0  0  0  0  0  0  0  0  0  0  0  0
   38.1840   26.6200   36.2930 C   0  0  0  0  0  0  0  0  0  0  0  0
   37.9070   27.3240   35.1420 C   0  0  0  0  0  0  0  0  0  0  0  0
   37.7160   26.5810   33.9940 C   0  0  0  0  0  0  0  0  0  0  0  0
   37.8030   25.2030   34.0200 C   0  0  0  0  0  0  0  0  0  0  0  0
   38.0730   24.5060   35.1420 C   0  0  0  0  0  0  0  0  0  0  0  0
   37.5540   24.7690   32.6100 C   0  0  0  0  0  0  0  0  0  0  0  0
   36.5070   24.3960   31.8880 N   0  0  0  0  0  0  0  0  0  0  0  0
   36.8970   24.1380   30.6960 O   0  0  0  0  0  0  0  0  0  0  0  0
   38.1820   24.3250   30.5820 C   0  0  0  0  0  0  0  0  0  0  0  0
   38.6490   24.7230   31.7640 N   0  0  0  0  0  0  0  0  0  0  0  0
   39.1150   24.1970   29.4990 N   0  0  0  0  0  0  0  0  0  0  0  0
   39.5810   25.4790   29.0360 C   0  0  0  0  0  0  0  0  0  0  0  0
   40.1310   25.5090   27.6630 C   0  0  0  0  0  0  0  0  0  0  0  0
   40.5820   24.2350   27.0700 C   0  0  0  0  0  0  0  0  0  0  0  0
   40.6790   23.0740   27.9830 C   0  0  0  0  0  0  0  0  0  0  0  0
   39.5350   22.9450   28.9500 C   0  0  0  0  0  0  0  0  0  0  0  0
   39.0340   21.1400   32.0990 C   0  0  0  0  0  0  0  0  0  0  0  0
   39.1370   21.9080   33.2460 C   0  0  0  0  0  0  0  0  0  0  0  0
   37.9370   22.3380   33.8680 C   0  0  0  0  0  0  0  0  0  0  0  0
   36.8080   21.9350   33.2490 N   0  0  0  0  0  0  0  0  0  0  0  0
   36.7220   21.2010   32.1530 C   0  0  0  0  0  0  0  0  0  0  0  0
   37.8640   20.7940   31.5610 N   0  0  0  0  0  0  0  0  0  0  0  0
   35.3260   20.9650   31.7560 C   0  0  0  0  0  0  0  0  0  0  0  0
   35.0100   19.6430   31.6650 F   0  0  0  0  0  0  0  0  0  0  0  0
   35.0660   21.5900   30.5220 F   0  0  0  0  0  0  0  0  0  0  0  0
   34.4580   21.6210   32.6470 F   0  0  0  0  0  0  0  0  0  0  0  0
   38.8301   22.6593   38.2971 H   0  0  0  0  0  0  0  0  0  0  0  0
   38.3449   27.1599   37.2378 H   0  0  0  0  0  0  0  0  0  0  0  0
   37.8413   28.4220   35.1376 H   0  0  0  0  0  0  0  0  0  0  0  0
   37.4917   27.0932   33.0467 H   0  0  0  0  0  0  0  0  0  0  0  0
   38.7340   26.1798   29.0752 H   0  0  0  0  0  0  0  0  0  0  0  0
   40.4173   25.7486   29.6977 H   0  0  0  0  0  0  0  0  0  0  0  0
   39.3488   25.9170   27.0060 H   0  0  0  0  0  0  0  0  0  0  0  0
   41.0466   26.1128   27.7466 H   0  0  0  0  0  0  0  0  0  0  0  0
   39.8751   23.9713   26.2695 H   0  0  0  0  0  0  0  0  0  0  0  0
   41.6114   24.4226   26.7307 H   0  0  0  0  0  0  0  0  0  0  0  0
   40.7183   22.1594   27.3731 H   0  0  0  0  0  0  0  0  0  0  0  0
   41.5849   23.2262   28.5881 H   0  0  0  0  0  0  0  0  0  0  0  0
   38.6825   22.4908   28.4238 H   0  0  0  0  0  0  0  0  0  0  0  0
   39.8843   22.3227   29.7871 H   0  0  0  0  0  0  0  0  0  0  0  0
   39.9585   20.8000   31.6095 H   0  0  0  0  0  0  0  0  0  0  0  0
   40.1192   22.1765   33.6623 H   0  0  0  0  0  0  0  0  0  0  0  0
  1 10  1  0
  1  2  2  0
  2  3  1  0
  3  4  2  0
  5  6  2  0
  5  4  1  0
  7  6  1  0
  8  9  1  0
  8  7  2  0
  9 10  2  0
 10  5  1  0
 11  9  1  0
 12 11  2  0
 13 12  1  0
 14 13  1  0
 14 15  2  0
 15 11  1  0
 16 14  1  0
 17 16  1  0
 18 17  1  0
 19 18  1  0
 19 20  1  0
 20 21  1  0
 21 16  1  0
 22 23  2  0
 23 24  1  0
 24  1  1  0
 25 24  2  0
 26 25  1  0
 27 22  1  0
 27 26  2  0
 28 26  1  0
 28 31  1  0
 29 28  1  0
 30 28  1  0
  3 32  1  0
  6 33  1  0
  7 34  1  0
  8 35  1  0
 17 36  1  0
 17 37  1  0
 18 38  1  0
 18 39  1  0
 19 40  1  0
 19 41  1  0
 20 42  1  0
 20 43  1  0
 21 44  1  0
 21 45  1  0
 22 46  1  0
 23 47  1  0
M  ISO  8  32  14  33  14  34  14  35  14  36  13  37  13  38  13  39  13
M  ISO  8  40  13  41  13  42  13  43  13  44  13  45  13  46  14  47  14
M  END
>  <minimizedAffinity>  (1) 
-6.41379166

>  <minimizedRMSD>  (1) 
0.525743961

$$$$
