
     RDKit          3D

 40 44  0  0  0  0  0  0  0  0999 V2000
   38.1070   23.1290   35.1380 C   0  0  0  0  0  0  0  0  0  0  0  0
   38.3560   22.5590   36.3450 N   0  0  0  0  0  0  0  0  0  0  0  0
   38.5420   23.2580   37.4680 C   0  0  0  0  0  0  0  0  0  0  0  0
   38.4910   24.6170   37.4800 N   0  0  0  0  0  0  0  0  0  0  0  0
   38.2440   25.2810   36.3000 C   0  0  0  0  0  0  0  0  0  0  0  0
   38.1940   26.6310   36.2890 C   0  0  0  0  0  0  0  0  0  0  0  0
   37.9530   27.3170   35.1210 C   0  0  0  0  0  0  0  0  0  0  0  0
   37.7690   26.5420   33.9840 C   0  0  0  0  0  0  0  0  0  0  0  0
   37.8290   25.1660   34.0480 C   0  0  0  0  0  0  0  0  0  0  0  0
   38.0660   24.4910   35.1930 C   0  0  0  0  0  0  0  0  0  0  0  0
   39.0110   21.0240   32.2680 C   0  0  0  0  0  0  0  0  0  0  0  0
   39.1160   21.8240   33.3930 C   0  0  0  0  0  0  0  0  0  0  0  0
   37.9190   22.2950   33.9730 C   0  0  0  0  0  0  0  0  0  0  0  0
   36.7950   21.8960   33.3430 N   0  0  0  0  0  0  0  0  0  0  0  0
   36.7050   21.1350   32.2730 C   0  0  0  0  0  0  0  0  0  0  0  0
   37.8410   20.6900   31.7240 N   0  0  0  0  0  0  0  0  0  0  0  0
   35.3040   20.9150   31.8620 C   0  0  0  0  0  0  0  0  0  0  0  0
   34.9520   19.6020   31.8300 F   0  0  0  0  0  0  0  0  0  0  0  0
   35.0910   21.4930   30.5900 F   0  0  0  0  0  0  0  0  0  0  0  0
   34.4380   21.6550   32.6850 F   0  0  0  0  0  0  0  0  0  0  0  0
   37.5880   24.6980   32.6430 C   0  0  0  0  0  0  0  0  0  0  0  0
   36.5340   24.3330   31.9270 N   0  0  0  0  0  0  0  0  0  0  0  0
   36.9400   24.0280   30.7490 O   0  0  0  0  0  0  0  0  0  0  0  0
   38.2370   24.1740   30.6450 C   0  0  0  0  0  0  0  0  0  0  0  0
   38.7060   24.6010   31.8260 N   0  0  0  0  0  0  0  0  0  0  0  0
   39.1290   23.9420   29.4940 C   0  0  0  0  0  0  0  0  0  0  0  0
   39.4370   22.6890   29.0070 C   0  0  0  0  0  0  0  0  0  0  0  0
   40.2940   22.5780   27.9090 C   0  0  0  0  0  0  0  0  0  0  0  0
   40.8020   23.6910   27.3520 N   0  0  0  0  0  0  0  0  0  0  0  0
   40.4900   24.9170   27.8420 C   0  0  0  0  0  0  0  0  0  0  0  0
   39.6610   25.0290   28.9040 N   0  0  0  0  0  0  0  0  0  0  0  0
   38.7415   22.7208   38.4069 H   0  0  0  0  0  0  0  0  0  0  0  0
   38.3478   27.1883   37.2248 H   0  0  0  0  0  0  0  0  0  0  0  0
   37.9087   28.4157   35.0899 H   0  0  0  0  0  0  0  0  0  0  0  0
   37.5727   27.0323   33.0191 H   0  0  0  0  0  0  0  0  0  0  0  0
   39.9338   20.6474   31.8026 H   0  0  0  0  0  0  0  0  0  0  0  0
   40.0965   22.0829   33.8191 H   0  0  0  0  0  0  0  0  0  0  0  0
   39.0136   21.7889   29.4767 H   0  0  0  0  0  0  0  0  0  0  0  0
   40.5508   21.5881   27.5038 H   0  0  0  0  0  0  0  0  0  0  0  0
   40.9114   25.8196   27.3754 H   0  0  0  0  0  0  0  0  0  0  0  0
  1 10  1  0
  1  2  2  0
  2  3  1  0
  3  4  2  0
  5  4  1  0
  6  5  2  0
  7  6  1  0
  8  9  1  0
  8  7  2  0
  9 10  2  0
 10  5  1  0
 11 12  2  0
 12 13  1  0
 13  1  1  0
 14 13  2  0
 15 14  1  0
 16 11  1  0
 16 15  2  0
 17 15  1  0
 17 20  1  0
 18 17  1  0
 19 17  1  0
 21  9  1  0
 22 21  2  0
 23 22  1  0
 24 23  1  0
 24 25  2  0
 25 21  1  0
 26 24  1  0
 27 26  2  0
 28 27  1  0
 29 30  1  0
 29 28  2  0
 30 31  2  0
 31 26  1  0
  3 32  1  0
  6 33  1  0
  7 34  1  0
  8 35  1  0
 11 36  1  0
 12 37  1  0
 27 38  1  0
 28 39  1  0
 30 40  1  0
M  ISO  8  32  14  33  14  34  14  35  14  36  14  37  14  38  14  39  14
M  ISO  1  40  14
M  END
>  <minimizedAffinity>  (1) 
-6.11936712

>  <minimizedRMSD>  (1) 
0.451896936

$$$$
