
     RDKit          3D

 48 52  0  0  0  0  0  0  0  0999 V2000
   37.9880   23.1140   35.1570 C   0  0  0  0  0  0  0  0  0  0  0  0
   37.9840   22.5830   36.4080 N   0  0  0  0  0  0  0  0  0  0  0  0
   38.0740   23.3120   37.5210 C   0  0  0  0  0  0  0  0  0  0  0  0
   38.1750   24.6570   37.4840 N   0  0  0  0  0  0  0  0  0  0  0  0
   38.1880   25.2880   36.2590 C   0  0  0  0  0  0  0  0  0  0  0  0
   38.2910   26.6390   36.1950 C   0  0  0  0  0  0  0  0  0  0  0  0
   38.3080   27.2860   34.9820 C   0  0  0  0  0  0  0  0  0  0  0  0
   38.2130   26.4870   33.8520 C   0  0  0  0  0  0  0  0  0  0  0  0
   38.1080   25.1150   33.9740 C   0  0  0  0  0  0  0  0  0  0  0  0
   38.0910   24.4710   35.1610 C   0  0  0  0  0  0  0  0  0  0  0  0
   39.1140   20.8870   32.4580 C   0  0  0  0  0  0  0  0  0  0  0  0
   39.1290   21.7190   33.5660 C   0  0  0  0  0  0  0  0  0  0  0  0
   37.8870   22.2510   34.0040 C   0  0  0  0  0  0  0  0  0  0  0  0
   36.8250   21.8700   33.2700 N   0  0  0  0  0  0  0  0  0  0  0  0
   36.8280   21.0770   32.2190 C   0  0  0  0  0  0  0  0  0  0  0  0
   37.9980   20.5750   31.8020 N   0  0  0  0  0  0  0  0  0  0  0  0
   35.4710   20.8910   31.6690 C   0  0  0  0  0  0  0  0  0  0  0  0
   35.2220   19.6270   31.2470 F   0  0  0  0  0  0  0  0  0  0  0  0
   35.2640   21.7880   30.5940 F   0  0  0  0  0  0  0  0  0  0  0  0
   34.5080   21.2990   32.6090 F   0  0  0  0  0  0  0  0  0  0  0  0
   38.0390   24.6080   32.5630 C   0  0  0  0  0  0  0  0  0  0  0  0
   37.0740   24.2440   31.7260 N   0  0  0  0  0  0  0  0  0  0  0  0
   37.6300   23.8900   30.6210 O   0  0  0  0  0  0  0  0  0  0  0  0
   38.9350   24.0030   30.6800 C   0  0  0  0  0  0  0  0  0  0  0  0
   39.2450   24.4580   31.8990 N   0  0  0  0  0  0  0  0  0  0  0  0
   39.8080   23.6560   29.5250 C   0  0  0  0  0  0  0  0  0  0  0  0
   39.6470   24.7040   28.4700 C   0  0  0  0  0  0  0  0  0  0  0  0
   39.8260   24.1790   27.0770 C   0  0  0  0  0  0  0  0  0  0  0  0
   40.7370   22.9850   27.0890 C   0  0  0  0  0  0  0  0  0  0  0  0
   40.1330   21.8240   27.8470 C   0  0  0  0  0  0  0  0  0  0  0  0
   39.3560   22.2870   29.0560 C   0  0  0  0  0  0  0  0  0  0  0  0
   38.0657   22.8028   38.4960 H   0  0  0  0  0  0  0  0  0  0  0  0
   38.3617   27.2236   37.1241 H   0  0  0  0  0  0  0  0  0  0  0  0
   38.3925   28.3805   34.9112 H   0  0  0  0  0  0  0  0  0  0  0  0
   38.2213   26.9484   32.8535 H   0  0  0  0  0  0  0  0  0  0  0  0
   40.0666   20.4654   32.1046 H   0  0  0  0  0  0  0  0  0  0  0  0
   40.0678   21.9585   34.0869 H   0  0  0  0  0  0  0  0  0  0  0  0
   40.8769   23.6229   29.7824 H   0  0  0  0  0  0  0  0  0  0  0  0
   38.6370   25.1315   28.5544 H   0  0  0  0  0  0  0  0  0  0  0  0
   40.4321   25.4562   28.6369 H   0  0  0  0  0  0  0  0  0  0  0  0
   40.2650   24.9653   26.4454 H   0  0  0  0  0  0  0  0  0  0  0  0
   38.8462   23.8805   26.6759 H   0  0  0  0  0  0  0  0  0  0  0  0
   40.9275   22.6723   26.0517 H   0  0  0  0  0  0  0  0  0  0  0  0
   41.6711   23.2732   27.5935 H   0  0  0  0  0  0  0  0  0  0  0  0
   39.4550   21.2753   27.1767 H   0  0  0  0  0  0  0  0  0  0  0  0
   40.9533   21.1787   28.1944 H   0  0  0  0  0  0  0  0  0  0  0  0
   38.2881   22.3342   28.7964 H   0  0  0  0  0  0  0  0  0  0  0  0
   39.5332   21.5703   29.8715 H   0  0  0  0  0  0  0  0  0  0  0  0
  1 10  1  0
  1  2  2  0
  2  3  1  0
  4  3  2  0
  5  4  1  0
  6  5  2  0
  7  6  1  0
  8  9  1  0
  8  7  2  0
  9 10  2  0
 10  5  1  0
 11 12  2  0
 12 13  1  0
 13  1  1  0
 14 13  2  0
 15 14  1  0
 16 15  2  0
 16 11  1  0
 17 15  1  0
 17 20  1  0
 18 17  1  0
 19 17  1  0
 21  9  1  0
 22 21  2  0
 23 24  1  0
 23 22  1  0
 24 25  2  0
 25 21  1  0
 26 24  1  0
 27 26  1  0
 28 29  1  0
 28 27  1  0
 29 30  1  0
 30 31  1  0
 31 26  1  0
  3 32  1  0
  6 33  1  0
  7 34  1  0
  8 35  1  0
 11 36  1  0
 12 37  1  0
 26 38  1  0
 27 39  1  0
 27 40  1  0
 28 41  1  0
 28 42  1  0
 29 43  1  0
 29 44  1  0
 30 45  1  0
 30 46  1  0
 31 47  1  0
 31 48  1  0
M  ISO  8  32  14  33  14  34  14  35  14  36  14  37  14  38  13  39  13
M  ISO  8  40  13  41  13  42  13  43  13  44  13  45  13  46  13  47  13
M  ISO  1  48  13
M  END
>  <minimizedAffinity>  (1) 
-6.26522636

>  <minimizedRMSD>  (1) 
0.264242828

$$$$
