
     RDKit          3D

 40 44  0  0  0  0  0  0  0  0999 V2000
   38.0950   23.1330   35.1390 C   0  0  0  0  0  0  0  0  0  0  0  0
   38.3480   22.5660   36.3460 N   0  0  0  0  0  0  0  0  0  0  0  0
   38.5400   23.2670   37.4680 C   0  0  0  0  0  0  0  0  0  0  0  0
   38.4940   24.6150   37.4820 N   0  0  0  0  0  0  0  0  0  0  0  0
   38.2440   25.2850   36.3040 C   0  0  0  0  0  0  0  0  0  0  0  0
   38.1990   26.6380   36.2910 C   0  0  0  0  0  0  0  0  0  0  0  0
   37.9560   27.3200   35.1210 C   0  0  0  0  0  0  0  0  0  0  0  0
   37.7640   26.5530   33.9850 C   0  0  0  0  0  0  0  0  0  0  0  0
   37.8180   25.1780   34.0440 C   0  0  0  0  0  0  0  0  0  0  0  0
   38.0590   24.4940   35.1980 C   0  0  0  0  0  0  0  0  0  0  0  0
   39.0190   21.0380   32.2650 C   0  0  0  0  0  0  0  0  0  0  0  0
   39.1150   21.8360   33.3940 C   0  0  0  0  0  0  0  0  0  0  0  0
   37.9040   22.3080   33.9780 C   0  0  0  0  0  0  0  0  0  0  0  0
   36.7870   21.9080   33.3430 N   0  0  0  0  0  0  0  0  0  0  0  0
   36.7110   21.1450   32.2660 C   0  0  0  0  0  0  0  0  0  0  0  0
   37.8450   20.7020   31.7170 N   0  0  0  0  0  0  0  0  0  0  0  0
   35.3150   20.9230   31.8550 C   0  0  0  0  0  0  0  0  0  0  0  0
   34.9650   19.6120   31.8080 F   0  0  0  0  0  0  0  0  0  0  0  0
   35.0970   21.5020   30.5860 F   0  0  0  0  0  0  0  0  0  0  0  0
   34.4450   21.6470   32.6890 F   0  0  0  0  0  0  0  0  0  0  0  0
   37.5830   24.7120   32.6430 C   0  0  0  0  0  0  0  0  0  0  0  0
   36.5340   24.3370   31.9250 N   0  0  0  0  0  0  0  0  0  0  0  0
   36.9560   24.0350   30.7450 O   0  0  0  0  0  0  0  0  0  0  0  0
   38.2520   24.1940   30.6440 C   0  0  0  0  0  0  0  0  0  0  0  0
   38.7000   24.6260   31.8300 N   0  0  0  0  0  0  0  0  0  0  0  0
   39.1370   23.9670   29.4890 C   0  0  0  0  0  0  0  0  0  0  0  0
   39.4300   22.7000   29.0140 C   0  0  0  0  0  0  0  0  0  0  0  0
   40.2650   22.5330   27.9310 C   0  0  0  0  0  0  0  0  0  0  0  0
   40.7940   23.6200   27.3370 N   0  0  0  0  0  0  0  0  0  0  0  0
   40.4910   24.8560   27.8230 C   0  0  0  0  0  0  0  0  0  0  0  0
   39.6670   25.0430   28.8920 N   0  0  0  0  0  0  0  0  0  0  0  0
   38.7412   22.7293   38.4063 H   0  0  0  0  0  0  0  0  0  0  0  0
   38.3582   27.1974   37.2247 H   0  0  0  0  0  0  0  0  0  0  0  0
   37.9163   28.4188   35.0900 H   0  0  0  0  0  0  0  0  0  0  0  0
   37.5658   27.0479   33.0228 H   0  0  0  0  0  0  0  0  0  0  0  0
   39.9443   20.6660   31.8009 H   0  0  0  0  0  0  0  0  0  0  0  0
   40.0931   22.0962   33.8248 H   0  0  0  0  0  0  0  0  0  0  0  0
   38.9922   21.8188   29.5057 H   0  0  0  0  0  0  0  0  0  0  0  0
   40.4967   21.5251   27.5563 H   0  0  0  0  0  0  0  0  0  0  0  0
   40.9289   25.7381   27.3330 H   0  0  0  0  0  0  0  0  0  0  0  0
  1 10  1  0
  1  2  2  0
  2  3  1  0
  3  4  2  0
  5  4  1  0
  6  5  2  0
  7  6  1  0
  8  9  1  0
  8  7  2  0
  9 10  2  0
 10  5  1  0
 11 12  2  0
 12 13  1  0
 13  1  1  0
 14 13  2  0
 15 14  1  0
 16 11  1  0
 16 15  2  0
 17 15  1  0
 17 20  1  0
 18 17  1  0
 19 17  1  0
 21  9  1  0
 22 21  2  0
 23 22  1  0
 24 23  1  0
 24 25  2  0
 25 21  1  0
 26 24  1  0
 27 26  2  0
 28 27  1  0
 29 30  1  0
 29 28  2  0
 30 31  2  0
 31 26  1  0
  3 32  1  0
  6 33  1  0
  7 34  1  0
  8 35  1  0
 11 36  1  0
 12 37  1  0
 27 38  1  0
 28 39  1  0
 30 40  1  0
M  ISO  8  32  14  33  14  34  14  35  14  36  14  37  14  38  14  39  14
M  ISO  1  40  14
M  END
>  <minimizedAffinity>  (1) 
-6.11269712

>  <minimizedRMSD>  (1) 
0.398621619

$$$$
