
     RDKit          3D

 35 38  0  0  0  0  0  0  0  0999 V2000
   38.0880   23.1350   35.1060 C   0  0  0  0  0  0  0  0  0  0  0  0
   38.3120   22.5800   36.3240 N   0  0  0  0  0  0  0  0  0  0  0  0
   38.4960   23.2860   37.4320 C   0  0  0  0  0  0  0  0  0  0  0  0
   38.4740   24.6470   37.4290 N   0  0  0  0  0  0  0  0  0  0  0  0
   38.2530   25.2950   36.2370 C   0  0  0  0  0  0  0  0  0  0  0  0
   38.2270   26.6550   36.2070 C   0  0  0  0  0  0  0  0  0  0  0  0
   38.0090   27.3190   35.0220 C   0  0  0  0  0  0  0  0  0  0  0  0
   37.8210   26.5380   33.8930 C   0  0  0  0  0  0  0  0  0  0  0  0
   37.8580   25.1620   33.9770 C   0  0  0  0  0  0  0  0  0  0  0  0
   38.0710   24.5060   35.1360 C   0  0  0  0  0  0  0  0  0  0  0  0
   39.0060   20.9830   32.2660 C   0  0  0  0  0  0  0  0  0  0  0  0
   39.1080   21.7980   33.3860 C   0  0  0  0  0  0  0  0  0  0  0  0
   37.8970   22.2900   33.9510 C   0  0  0  0  0  0  0  0  0  0  0  0
   36.7760   21.8960   33.3190 N   0  0  0  0  0  0  0  0  0  0  0  0
   36.7000   21.1150   32.2480 C   0  0  0  0  0  0  0  0  0  0  0  0
   37.8340   20.6530   31.7150 N   0  0  0  0  0  0  0  0  0  0  0  0
   35.2980   20.9040   31.8340 C   0  0  0  0  0  0  0  0  0  0  0  0
   34.9460   19.5920   31.7760 F   0  0  0  0  0  0  0  0  0  0  0  0
   35.0960   21.4950   30.5640 F   0  0  0  0  0  0  0  0  0  0  0  0
   34.4330   21.6150   32.6700 F   0  0  0  0  0  0  0  0  0  0  0  0
   37.6280   24.6790   32.5810 C   0  0  0  0  0  0  0  0  0  0  0  0
   36.5750   24.3320   31.8510 N   0  0  0  0  0  0  0  0  0  0  0  0
   36.9990   23.9910   30.6840 O   0  0  0  0  0  0  0  0  0  0  0  0
   38.2990   24.0960   30.6020 C   0  0  0  0  0  0  0  0  0  0  0  0
   38.7510   24.5300   31.7840 N   0  0  0  0  0  0  0  0  0  0  0  0
   39.1260   23.7840   29.3980 C   0  0  0  0  0  0  0  0  0  0  0  0
   38.6713   22.7565   38.3801 H   0  0  0  0  0  0  0  0  0  0  0  0
   38.3810   27.2262   37.1344 H   0  0  0  0  0  0  0  0  0  0  0  0
   37.9851   28.4177   34.9731 H   0  0  0  0  0  0  0  0  0  0  0  0
   37.6406   27.0200   32.9208 H   0  0  0  0  0  0  0  0  0  0  0  0
   39.9293   20.5925   31.8132 H   0  0  0  0  0  0  0  0  0  0  0  0
   40.0861   22.0535   33.8197 H   0  0  0  0  0  0  0  0  0  0  0  0
   40.1112   23.4123   29.7162 H   0  0  0  0  0  0  0  0  0  0  0  0
   38.6209   23.0146   28.7956 H   0  0  0  0  0  0  0  0  0  0  0  0
   39.2550   24.6953   28.7956 H   0  0  0  0  0  0  0  0  0  0  0  0
  1 10  1  0
  1  2  2  0
  2  3  1  0
  4  3  2  0
  5  4  1  0
  6  5  2  0
  7  6  1  0
  8  9  1  0
  8  7  2  0
  9 10  2  0
 10  5  1  0
 11 12  2  0
 12 13  1  0
 13  1  1  0
 14 13  2  0
 15 14  1  0
 16 15  2  0
 16 11  1  0
 17 15  1  0
 17 20  1  0
 18 17  1  0
 19 17  1  0
 21  9  1  0
 22 21  2  0
 23 22  1  0
 24 23  1  0
 24 25  2  0
 25 21  1  0
 26 24  1  0
  3 27  1  0
  6 28  1  0
  7 29  1  0
  8 30  1  0
 11 31  1  0
 12 32  1  0
 26 33  1  0
 26 34  1  0
 26 35  1  0
M  ISO  8  27  14  28  14  29  14  30  14  31  14  32  14  33   8  34   8
M  ISO  1  35   8
M  END
>  <minimizedAffinity>  (1) 
-6.0077939

>  <minimizedRMSD>  (1) 
0.232301563

$$$$
