
     RDKit          3D

 33 36  0  0  0  0  0  0  0  0999 V2000
   38.0330   23.1010   35.1920 C   0  0  0  0  0  0  0  0  0  0  0  0
   38.1520   22.5580   36.4260 N   0  0  0  0  0  0  0  0  0  0  0  0
   38.2910   23.2790   37.5460 C   0  0  0  0  0  0  0  0  0  0  0  0
   38.3220   24.6380   37.5180 N   0  0  0  0  0  0  0  0  0  0  0  0
   38.2060   25.2770   36.3010 C   0  0  0  0  0  0  0  0  0  0  0  0
   38.2460   26.6270   36.2490 C   0  0  0  0  0  0  0  0  0  0  0  0
   38.1470   27.2900   35.0470 C   0  0  0  0  0  0  0  0  0  0  0  0
   38.0080   26.4950   33.9240 C   0  0  0  0  0  0  0  0  0  0  0  0
   37.9710   25.1180   34.0220 C   0  0  0  0  0  0  0  0  0  0  0  0
   38.0690   24.4750   35.2040 C   0  0  0  0  0  0  0  0  0  0  0  0
   39.0200   20.9070   32.4200 C   0  0  0  0  0  0  0  0  0  0  0  0
   39.0910   21.7330   33.5350 C   0  0  0  0  0  0  0  0  0  0  0  0
   37.8840   22.2450   34.0410 C   0  0  0  0  0  0  0  0  0  0  0  0
   36.7790   21.8610   33.3640 N   0  0  0  0  0  0  0  0  0  0  0  0
   36.7210   21.0750   32.3040 C   0  0  0  0  0  0  0  0  0  0  0  0
   37.8740   20.5880   31.8230 N   0  0  0  0  0  0  0  0  0  0  0  0
   35.3380   20.8810   31.8320 C   0  0  0  0  0  0  0  0  0  0  0  0
   34.9960   19.5740   31.6870 F   0  0  0  0  0  0  0  0  0  0  0  0
   35.1730   21.5440   30.6030 F   0  0  0  0  0  0  0  0  0  0  0  0
   34.4370   21.5410   32.6770 F   0  0  0  0  0  0  0  0  0  0  0  0
   37.8130   24.6220   32.6230 C   0  0  0  0  0  0  0  0  0  0  0  0
   36.8030   24.2740   31.8410 N   0  0  0  0  0  0  0  0  0  0  0  0
   37.2810   23.9200   30.7030 O   0  0  0  0  0  0  0  0  0  0  0  0
   38.5810   24.0190   30.6920 C   0  0  0  0  0  0  0  0  0  0  0  0
   38.9820   24.4620   31.8900 N   0  0  0  0  0  0  0  0  0  0  0  0
   39.2990   23.6820   29.5500 O   0  0  0  0  0  0  0  0  0  0  0  0
   38.3822   22.7595   38.5113 H   0  0  0  0  0  0  0  0  0  0  0  0
   38.3591   27.2031   37.1792 H   0  0  0  0  0  0  0  0  0  0  0  0
   38.1767   28.3878   34.9833 H   0  0  0  0  0  0  0  0  0  0  0  0
   37.9254   26.9682   32.9344 H   0  0  0  0  0  0  0  0  0  0  0  0
   39.9554   20.4972   32.0112 H   0  0  0  0  0  0  0  0  0  0  0  0
   40.0556   21.9770   34.0040 H   0  0  0  0  0  0  0  0  0  0  0  0
   40.2860   23.7584   29.5453 H   0  0  0  0  0  0  0  0  0  0  0  0
  1 10  1  0
  1  2  2  0
  2  3  1  0
  4  3  2  0
  5  4  1  0
  6  5  2  0
  7  6  1  0
  8  9  1  0
  8  7  2  0
  9 10  2  0
 10  5  1  0
 11 12  2  0
 12 13  1  0
 13  1  1  0
 14 13  2  0
 15 14  1  0
 16 15  2  0
 16 11  1  0
 17 15  1  0
 17 20  1  0
 18 17  1  0
 19 17  1  0
 21  9  1  0
 22 21  2  0
 23 22  1  0
 24 23  1  0
 24 25  2  0
 25 21  1  0
 26 24  1  0
  3 27  1  0
  6 28  1  0
  7 29  1  0
  8 30  1  0
 11 31  1  0
 12 32  1  0
 26 33  1  0
M  ISO  7  27  14  28  14  29  14  30  14  31  14  32  14  33   3
M  END
>  <minimizedAffinity>  (1) 
-5.94090652

>  <minimizedRMSD>  (1) 
0.0555182397

$$$$
