
     RDKit          3D

 33 36  0  0  0  0  0  0  0  0999 V2000
   38.0490   23.1280   35.1460 C   0  0  0  0  0  0  0  0  0  0  0  0
   38.1930   22.5510   36.3680 N   0  0  0  0  0  0  0  0  0  0  0  0
   38.3390   23.2440   37.4980 C   0  0  0  0  0  0  0  0  0  0  0  0
   38.3530   24.6080   37.5080 N   0  0  0  0  0  0  0  0  0  0  0  0
   38.2140   25.2730   36.3120 C   0  0  0  0  0  0  0  0  0  0  0  0
   38.2310   26.6250   36.2990 C   0  0  0  0  0  0  0  0  0  0  0  0
   38.0990   27.3180   35.1180 C   0  0  0  0  0  0  0  0  0  0  0  0
   37.9510   26.5540   33.9650 C   0  0  0  0  0  0  0  0  0  0  0  0
   37.9410   25.1730   34.0410 C   0  0  0  0  0  0  0  0  0  0  0  0
   38.0690   24.4900   35.1970 C   0  0  0  0  0  0  0  0  0  0  0  0
   39.0440   21.0110   32.3170 C   0  0  0  0  0  0  0  0  0  0  0  0
   39.1150   21.8090   33.4490 C   0  0  0  0  0  0  0  0  0  0  0  0
   37.8970   22.3000   33.9760 C   0  0  0  0  0  0  0  0  0  0  0  0
   36.7960   21.9230   33.2990 N   0  0  0  0  0  0  0  0  0  0  0  0
   36.7450   21.1630   32.2240 C   0  0  0  0  0  0  0  0  0  0  0  0
   37.8910   20.6960   31.7190 N   0  0  0  0  0  0  0  0  0  0  0  0
   35.3600   20.9650   31.7500 C   0  0  0  0  0  0  0  0  0  0  0  0
   35.0320   19.6600   31.5630 F   0  0  0  0  0  0  0  0  0  0  0  0
   35.1690   21.6730   30.5400 F   0  0  0  0  0  0  0  0  0  0  0  0
   34.4600   21.5940   32.6220 F   0  0  0  0  0  0  0  0  0  0  0  0
   37.7750   24.7110   32.6230 C   0  0  0  0  0  0  0  0  0  0  0  0
   36.7570   24.3740   31.8440 N   0  0  0  0  0  0  0  0  0  0  0  0
   37.2250   24.0540   30.6940 O   0  0  0  0  0  0  0  0  0  0  0  0
   38.5280   24.1650   30.6680 C   0  0  0  0  0  0  0  0  0  0  0  0
   38.9350   24.5810   31.8720 N   0  0  0  0  0  0  0  0  0  0  0  0
   39.4640   23.7830   29.1860 S   0  0  0  0  0  0  0  0  0  0  0  0
   38.4512   22.7009   38.4480 H   0  0  0  0  0  0  0  0  0  0  0  0
   38.3517   27.1767   37.2430 H   0  0  0  0  0  0  0  0  0  0  0  0
   38.1099   28.4175   35.0871 H   0  0  0  0  0  0  0  0  0  0  0  0
   37.8415   27.0500   32.9893 H   0  0  0  0  0  0  0  0  0  0  0  0
   39.9798   20.6193   31.8917 H   0  0  0  0  0  0  0  0  0  0  0  0
   40.0799   22.0507   33.9186 H   0  0  0  0  0  0  0  0  0  0  0  0
   40.6902   23.2826   29.5366 H   0  0  0  0  0  0  0  0  0  0  0  0
  1 10  1  0
  1  2  2  0
  2  3  1  0
  3  4  2  0
  5  4  1  0
  6  5  2  0
  7  6  1  0
  8  9  1  0
  8  7  2  0
  9 10  2  0
 10  5  1  0
 11 12  2  0
 12 13  1  0
 13  1  1  0
 14 13  2  0
 15 14  1  0
 16 15  2  0
 16 11  1  0
 17 15  1  0
 17 20  1  0
 18 17  1  0
 19 17  1  0
 21  9  1  0
 22 21  2  0
 23 22  1  0
 24 23  1  0
 24 25  2  0
 25 21  1  0
 26 24  1  0
  3 27  1  0
  6 28  1  0
  7 29  1  0
  8 30  1  0
 11 31  1  0
 12 32  1  0
 26 33  1  0
M  ISO  7  27  14  28  14  29  14  30  14  31  14  32  14  33  11
M  END
>  <minimizedAffinity>  (1) 
-5.98463297

>  <minimizedRMSD>  (1) 
0.143363476

$$$$
