
     RDKit          3D

 41 44  0  0  0  0  0  0  0  0999 V2000
   37.9840   23.1140   35.1670 C   0  0  0  0  0  0  0  0  0  0  0  0
   38.0020   22.5770   36.4110 N   0  0  0  0  0  0  0  0  0  0  0  0
   38.1000   23.3000   37.5290 C   0  0  0  0  0  0  0  0  0  0  0  0
   38.1910   24.6460   37.4990 N   0  0  0  0  0  0  0  0  0  0  0  0
   38.1810   25.2910   36.2750 C   0  0  0  0  0  0  0  0  0  0  0  0
   38.2690   26.6400   36.2200 C   0  0  0  0  0  0  0  0  0  0  0  0
   38.2600   27.2930   35.0090 C   0  0  0  0  0  0  0  0  0  0  0  0
   38.1570   26.4970   33.8810 C   0  0  0  0  0  0  0  0  0  0  0  0
   38.0690   25.1270   33.9940 C   0  0  0  0  0  0  0  0  0  0  0  0
   38.0770   24.4750   35.1760 C   0  0  0  0  0  0  0  0  0  0  0  0
   39.0870   20.8940   32.4530 C   0  0  0  0  0  0  0  0  0  0  0  0
   39.1060   21.7210   33.5650 C   0  0  0  0  0  0  0  0  0  0  0  0
   37.8740   22.2610   34.0120 C   0  0  0  0  0  0  0  0  0  0  0  0
   36.8020   21.8930   33.2750 N   0  0  0  0  0  0  0  0  0  0  0  0
   36.8000   21.1050   32.2190 C   0  0  0  0  0  0  0  0  0  0  0  0
   37.9610   20.5940   31.7970 N   0  0  0  0  0  0  0  0  0  0  0  0
   35.4420   20.9330   31.6710 C   0  0  0  0  0  0  0  0  0  0  0  0
   35.1750   19.6570   31.2790 F   0  0  0  0  0  0  0  0  0  0  0  0
   35.2540   21.8070   30.5730 F   0  0  0  0  0  0  0  0  0  0  0  0
   34.4870   21.3800   32.5960 F   0  0  0  0  0  0  0  0  0  0  0  0
   37.9930   24.6280   32.5800 C   0  0  0  0  0  0  0  0  0  0  0  0
   37.0250   24.3030   31.7340 N   0  0  0  0  0  0  0  0  0  0  0  0
   37.5730   23.9310   30.6330 O   0  0  0  0  0  0  0  0  0  0  0  0
   38.8790   23.9920   30.7000 C   0  0  0  0  0  0  0  0  0  0  0  0
   39.1940   24.4310   31.9230 N   0  0  0  0  0  0  0  0  0  0  0  0
   39.8450   23.6380   29.6150 C   0  0  0  0  0  0  0  0  0  0  0  0
   39.7640   24.6290   28.4770 C   0  0  0  0  0  0  0  0  0  0  0  0
   39.5170   22.2850   29.0150 C   0  0  0  0  0  0  0  0  0  0  0  0
   38.1067   22.7846   38.5008 H   0  0  0  0  0  0  0  0  0  0  0  0
   38.3484   27.2197   37.1515 H   0  0  0  0  0  0  0  0  0  0  0  0
   38.3308   28.3886   34.9407 H   0  0  0  0  0  0  0  0  0  0  0  0
   38.1453   26.9631   32.8847 H   0  0  0  0  0  0  0  0  0  0  0  0
   40.0359   20.4674   32.0958 H   0  0  0  0  0  0  0  0  0  0  0  0
   40.0479   21.9512   34.0845 H   0  0  0  0  0  0  0  0  0  0  0  0
   40.8436   23.6380   30.0763 H   0  0  0  0  0  0  0  0  0  0  0  0
   39.6807   25.6478   28.8833 H   0  0  0  0  0  0  0  0  0  0  0  0
   40.6713   24.5534   27.8597 H   0  0  0  0  0  0  0  0  0  0  0  0
   38.8810   24.4071   27.8597 H   0  0  0  0  0  0  0  0  0  0  0  0
   39.3410   21.5588   29.8223 H   0  0  0  0  0  0  0  0  0  0  0  0
   38.6132   22.3688   28.3937 H   0  0  0  0  0  0  0  0  0  0  0  0
   40.3589   21.9456   28.3937 H   0  0  0  0  0  0  0  0  0  0  0  0
  1 10  1  0
  1  2  2  0
  2  3  1  0
  4  3  2  0
  5  4  1  0
  6  5  2  0
  7  6  1  0
  8  9  1  0
  8  7  2  0
  9 10  2  0
 10  5  1  0
 11 12  2  0
 12 13  1  0
 13  1  1  0
 14 13  2  0
 15 14  1  0
 16 15  2  0
 16 11  1  0
 17 15  1  0
 17 20  1  0
 18 17  1  0
 19 17  1  0
 21  9  1  0
 22 21  2  0
 23 24  1  0
 23 22  1  0
 24 25  2  0
 25 21  1  0
 26 24  1  0
 27 26  1  0
 28 26  1  0
  3 29  1  0
  6 30  1  0
  7 31  1  0
  8 32  1  0
 11 33  1  0
 12 34  1  0
 26 35  1  0
 27 36  1  0
 27 37  1  0
 27 38  1  0
 28 39  1  0
 28 40  1  0
 28 41  1  0
M  ISO  8  29  14  30  14  31  14  32  14  33  14  34  14  35   8  36   8
M  ISO  5  37   8  38   8  39   8  40   8  41   8
M  END
>  <minimizedAffinity>  (1) 
-5.92419529

>  <minimizedRMSD>  (1) 
0.313064128

$$$$
