
     RDKit          3D

 30 33  0  0  0  0  0  0  0  0999 V2000
   40.6110   24.7920   34.9970 C   0  0  0  0  0  0  0  0  0  0  0  0
   41.5280   25.8510   34.7530 C   0  0  0  0  0  0  0  0  0  0  0  0
   40.5780   26.9980   33.7050 S   0  0  0  0  0  0  0  0  0  0  0  0
   39.0850   25.8530   33.7670 C   0  0  0  0  0  0  0  0  0  0  0  0
   39.4810   25.0330   34.4010 N   0  0  0  0  0  0  0  0  0  0  0  0
   37.9030   26.3750   32.9890 C   0  0  0  0  0  0  0  0  0  0  0  0
   37.6090   27.6600   32.8580 N   0  0  0  0  0  0  0  0  0  0  0  0
   36.5450   28.0850   32.1560 C   0  0  0  0  0  0  0  0  0  0  0  0
   35.7190   27.2030   31.5440 N   0  0  0  0  0  0  0  0  0  0  0  0
   35.9640   25.8780   31.6400 C   0  0  0  0  0  0  0  0  0  0  0  0
   35.1410   24.9580   31.0280 C   0  0  0  0  0  0  0  0  0  0  0  0
   35.3950   23.5880   31.1270 C   0  0  0  0  0  0  0  0  0  0  0  0
   36.5220   23.2310   31.8770 C   0  0  0  0  0  0  0  0  0  0  0  0
   37.3290   24.1720   32.4780 C   0  0  0  0  0  0  0  0  0  0  0  0
   37.0680   25.4960   32.3720 C   0  0  0  0  0  0  0  0  0  0  0  0
   40.1000   23.0220   36.6490 C   0  0  0  0  0  0  0  0  0  0  0  0
   41.0130   23.6520   35.8150 C   0  0  0  0  0  0  0  0  0  0  0  0
   42.3050   23.1350   35.8100 C   0  0  0  0  0  0  0  0  0  0  0  0
   42.6250   22.0790   36.5830 N   0  0  0  0  0  0  0  0  0  0  0  0
   41.6780   21.5000   37.3870 C   0  0  0  0  0  0  0  0  0  0  0  0
   40.4350   21.9770   37.4090 N   0  0  0  0  0  0  0  0  0  0  0  0
   42.5630   25.9530   35.1113 H   0  0  0  0  0  0  0  0  0  0  0  0
   36.3421   29.1633   32.0773 H   0  0  0  0  0  0  0  0  0  0  0  0
   34.2709   25.3075   30.4528 H   0  0  0  0  0  0  0  0  0  0  0  0
   34.7505   22.8373   30.6462 H   0  0  0  0  0  0  0  0  0  0  0  0
   36.7710   22.1655   31.9900 H   0  0  0  0  0  0  0  0  0  0  0  0
   38.2040   23.8404   33.0563 H   0  0  0  0  0  0  0  0  0  0  0  0
   39.0662   23.3961   36.6849 H   0  0  0  0  0  0  0  0  0  0  0  0
   43.0724   23.5930   35.1687 H   0  0  0  0  0  0  0  0  0  0  0  0
   41.9457   20.6384   38.0162 H   0  0  0  0  0  0  0  0  0  0  0  0
  1 17  1  0
  2  1  2  0
  3  4  1  0
  3  2  1  0
  4  5  2  0
  5  1  1  0
  6  4  1  0
  7  6  2  0
  8  7  1  0
  9 10  1  0
  9  8  2  0
 10 15  2  0
 11 12  2  0
 11 10  1  0
 12 13  1  0
 13 14  2  0
 15 14  1  0
 15  6  1  0
 16 21  2  0
 17 16  1  0
 18 17  2  0
 18 19  1  0
 19 20  2  0
 20 21  1  0
  2 22  1  0
  8 23  1  0
 11 24  1  0
 12 25  1  0
 13 26  1  0
 14 27  1  0
 16 28  1  0
 18 29  1  0
 20 30  1  0
M  ISO  8  22  14  23  14  24  14  25  14  26  14  27  14  28  14  29  14
M  ISO  1  30  14
M  END
>  <minimizedAffinity>  (1) 
-5.13780737

>  <minimizedRMSD>  (1) 
7.77529478

$$$$
