
     RDKit          3D

 35 37  0  0  0  0  0  0  0  0999 V2000
   38.6120   24.9810   35.0220 N   0  0  0  0  0  0  0  0  0  0  0  0
   39.5460   24.2640   34.3140 C   0  0  0  0  0  0  0  0  0  0  0  0
   40.0870   23.3350   35.1560 N   0  0  0  0  0  0  0  0  0  0  0  0
   39.5140   23.4670   36.3420 C   0  0  0  0  0  0  0  0  0  0  0  0
   39.6110   22.8560   37.5730 C   0  0  0  0  0  0  0  0  0  0  0  0
   38.8720   23.2040   38.6680 N   0  0  0  0  0  0  0  0  0  0  0  0
   37.9720   24.2260   38.5450 C   0  0  0  0  0  0  0  0  0  0  0  0
   37.8480   24.8460   37.3610 N   0  0  0  0  0  0  0  0  0  0  0  0
   38.5800   24.4950   36.2910 C   0  0  0  0  0  0  0  0  0  0  0  0
   37.6820   27.2040   35.2710 C   0  0  0  0  0  0  0  0  0  0  0  0
   37.8390   26.0410   34.4720 C   0  0  0  0  0  0  0  0  0  0  0  0
   37.2350   26.0200   33.2270 C   0  0  0  0  0  0  0  0  0  0  0  0
   36.5160   27.1110   32.8170 N   0  0  0  0  0  0  0  0  0  0  0  0
   36.3830   28.1960   33.5870 C   0  0  0  0  0  0  0  0  0  0  0  0
   36.9590   28.2280   34.7890 N   0  0  0  0  0  0  0  0  0  0  0  0
   35.6020   29.3980   33.1570 C   0  0  0  0  0  0  0  0  0  0  0  0
   36.2360   30.0490   31.9460 C   0  0  0  0  0  0  0  0  0  0  0  0
   35.5170   30.4270   34.2450 C   0  0  0  0  0  0  0  0  0  0  0  0
   34.1920   29.0280   32.7620 C   0  0  0  0  0  0  0  0  0  0  0  0
   40.5270   21.7940   37.7560 N   0  0  0  0  0  0  0  0  0  0  0  0
   39.8109   24.4120   33.2567 H   0  0  0  0  0  0  0  0  0  0  0  0
   37.3585   24.5356   39.4039 H   0  0  0  0  0  0  0  0  0  0  0  0
   38.1444   27.2653   36.2672 H   0  0  0  0  0  0  0  0  0  0  0  0
   37.3312   25.1389   32.5756 H   0  0  0  0  0  0  0  0  0  0  0  0
   36.9683   30.8009   32.2752 H   0  0  0  0  0  0  0  0  0  0  0  0
   36.7436   29.2829   31.3415 H   0  0  0  0  0  0  0  0  0  0  0  0
   35.4567   30.5362   31.3415 H   0  0  0  0  0  0  0  0  0  0  0  0
   35.5582   29.9288   35.2249 H   0  0  0  0  0  0  0  0  0  0  0  0
   36.3604   31.1273   34.1540 H   0  0  0  0  0  0  0  0  0  0  0  0
   34.5702   30.9795   34.1540 H   0  0  0  0  0  0  0  0  0  0  0  0
   33.5873   28.8693   33.6671 H   0  0  0  0  0  0  0  0  0  0  0  0
   33.7529   29.8413   32.1656 H   0  0  0  0  0  0  0  0  0  0  0  0
   34.2088   28.1039   32.1656 H   0  0  0  0  0  0  0  0  0  0  0  0
   40.6044   21.3330   38.6738 H   0  0  0  0  0  0  0  0  0  0  0  0
   41.1167   21.4816   36.9714 H   0  0  0  0  0  0  0  0  0  0  0  0
  1  9  1  0
  2  1  1  0
  2  3  2  0
  3  4  1  0
  4  5  2  0
  5 20  1  0
  5  6  1  0
  7  6  2  0
  8  7  1  0
  9  4  1  0
  9  8  2  0
 11  1  1  0
 11 10  2  0
 12 11  1  0
 13 12  2  0
 13 14  1  0
 14 15  2  0
 15 10  1  0
 16 14  1  0
 16 18  1  0
 17 16  1  0
 19 16  1  0
  2 21  1  0
  7 22  1  0
 10 23  1  0
 12 24  1  0
 17 25  1  0
 17 26  1  0
 17 27  1  0
 18 28  1  0
 18 29  1  0
 18 30  1  0
 19 31  1  0
 19 32  1  0
 19 33  1  0
 20 34  1  0
 20 35  1  0
M  ISO  8  21  14  22  14  23  14  24  14  25   8  26   8  27   8  28   8
M  ISO  5  29   8  30   8  31   8  32   8  33   8
M  END
>  <minimizedAffinity>  (1) 
-5.7792387

>  <minimizedRMSD>  (1) 
1.16971493

$$$$
