
     RDKit          3D

 29 32  0  0  0  0  0  0  0  0999 V2000
   38.3010   24.6930   35.8520 C   0  0  0  0  0  0  0  0  0  0  0  0
   37.5620   24.4380   37.0450 C   0  0  0  0  0  0  0  0  0  0  0  0
   38.6080   23.3260   38.0200 S   0  0  0  0  0  0  0  0  0  0  0  0
   39.9260   23.3730   36.6320 C   0  0  0  0  0  0  0  0  0  0  0  0
   39.4580   24.0560   35.8600 N   0  0  0  0  0  0  0  0  0  0  0  0
   41.2100   22.6830   36.6080 N   0  0  0  0  0  0  0  0  0  0  0  0
   41.3990   21.4740   37.1660 C   0  0  0  0  0  0  0  0  0  0  0  0
   42.6880   21.1260   36.9670 N   0  0  0  0  0  0  0  0  0  0  0  0
   43.2800   22.1140   36.2930 C   0  0  0  0  0  0  0  0  0  0  0  0
   44.5760   22.3140   35.8140 C   0  0  0  0  0  0  0  0  0  0  0  0
   44.8660   23.4560   35.1510 N   0  0  0  0  0  0  0  0  0  0  0  0
   43.9310   24.4150   34.9380 C   0  0  0  0  0  0  0  0  0  0  0  0
   42.6590   24.2530   35.3900 N   0  0  0  0  0  0  0  0  0  0  0  0
   42.3570   23.1200   36.0520 C   0  0  0  0  0  0  0  0  0  0  0  0
   37.6750   25.1600   33.5000 C   0  0  0  0  0  0  0  0  0  0  0  0
   37.7570   25.5650   34.8250 C   0  0  0  0  0  0  0  0  0  0  0  0
   37.2890   26.8510   35.1090 C   0  0  0  0  0  0  0  0  0  0  0  0
   36.7910   27.6310   34.1260 N   0  0  0  0  0  0  0  0  0  0  0  0
   36.7390   27.1710   32.8370 C   0  0  0  0  0  0  0  0  0  0  0  0
   37.1850   25.9350   32.5400 N   0  0  0  0  0  0  0  0  0  0  0  0
   45.5310   21.2840   36.0580 N   0  0  0  0  0  0  0  0  0  0  0  0
   36.5709   24.8316   37.3147 H   0  0  0  0  0  0  0  0  0  0  0  0
   40.6393   20.8759   37.6906 H   0  0  0  0  0  0  0  0  0  0  0  0
   44.2041   25.3318   34.3949 H   0  0  0  0  0  0  0  0  0  0  0  0
   38.0313   24.1539   33.2340 H   0  0  0  0  0  0  0  0  0  0  0  0
   37.3267   27.2303   36.1408 H   0  0  0  0  0  0  0  0  0  0  0  0
   36.3318   27.8128   32.0418 H   0  0  0  0  0  0  0  0  0  0  0  0
   46.4991   21.3893   35.7225 H   0  0  0  0  0  0  0  0  0  0  0  0
   45.2528   20.4345   36.5698 H   0  0  0  0  0  0  0  0  0  0  0  0
  1  5  1  0
  1  2  2  0
  2  3  1  0
  4  3  1  0
  5  4  2  0
  6  4  1  0
  6  7  1  0
  8  7  2  0
  9  8  1  0
 10 21  1  0
 10  9  2  0
 11 10  1  0
 12 11  2  0
 12 13  1  0
 13 14  2  0
 14  9  1  0
 14  6  1  0
 15 16  2  0
 16 17  1  0
 16  1  1  0
 18 17  2  0
 19 18  1  0
 20 19  2  0
 20 15  1  0
  2 22  1  0
  7 23  1  0
 12 24  1  0
 15 25  1  0
 17 26  1  0
 19 27  1  0
 21 28  1  0
 21 29  1  0
M  ISO  6  22  14  23  14  24  14  25  14  26  14  27  14
M  END
>  <minimizedAffinity>  (1) 
-4.81673574

>  <minimizedRMSD>  (1) 
1.36127579

$$$$
