
     RDKit          3D

 23 24  0  0  0  0  0  0  0  0999 V2000
   38.3440   24.4450   36.1770 C   0  0  0  0  0  0  0  0  0  0  0  0
   37.8790   24.7900   37.4880 C   0  0  0  0  0  0  0  0  0  0  0  0
   38.5890   23.4980   38.5630 S   0  0  0  0  0  0  0  0  0  0  0  0
   39.4030   22.6980   37.0560 C   0  0  0  0  0  0  0  0  0  0  0  0
   39.0860   23.3670   36.2110 N   0  0  0  0  0  0  0  0  0  0  0  0
   40.2300   21.4960   37.0880 N   0  0  0  0  0  0  0  0  0  0  0  0
   41.6580   21.6010   37.2780 C   0  0  0  0  0  0  0  0  0  0  0  0
   42.0970   22.7180   36.7510 N   0  0  0  0  0  0  0  0  0  0  0  0
   42.2160   20.4730   37.9850 N   0  0  0  0  0  0  0  0  0  0  0  0
   43.0900   22.9940   36.7740 H   0  0  0  0  0  0  0  0  0  0  0  0
   38.1980   24.8170   33.7290 C   0  0  0  0  0  0  0  0  0  0  0  0
   37.9720   25.2700   35.0210 C   0  0  0  0  0  0  0  0  0  0  0  0
   37.3830   26.5280   35.1730 C   0  0  0  0  0  0  0  0  0  0  0  0
   37.0710   27.2260   34.0450 N   0  0  0  0  0  0  0  0  0  0  0  0
   37.3100   26.7450   32.8070 C   0  0  0  0  0  0  0  0  0  0  0  0
   37.8720   25.5410   32.6670 N   0  0  0  0  0  0  0  0  0  0  0  0
   37.2414   25.6378   37.7789 H   0  0  0  0  0  0  0  0  0  0  0  0
   39.7940   20.5698   36.9747 H   0  0  0  0  0  0  0  0  0  0  0  0
   43.2267   20.4360   38.1797 H   0  0  0  0  0  0  0  0  0  0  0  0
   41.6034   19.7051   38.2948 H   0  0  0  0  0  0  0  0  0  0  0  0
   38.6604   23.8299   33.5817 H   0  0  0  0  0  0  0  0  0  0  0  0
   37.1777   26.9417   36.1714 H   0  0  0  0  0  0  0  0  0  0  0  0
   37.0443   27.3394   31.9204 H   0  0  0  0  0  0  0  0  0  0  0  0
  1  5  1  0
  1  2  2  0
  2  3  1  0
  4  6  1  0
  4  3  1  0
  5  4  2  0
  6  7  1  0
  7  9  1  0
  8 10  1  0
  8  7  2  0
 11 12  2  0
 12 13  1  0
 12  1  1  0
 14 13  2  0
 15 14  1  0
 16 15  2  0
 16 11  1  0
  2 17  1  0
  6 18  1  0
  9 19  1  0
  9 20  1  0
 11 21  1  0
 13 22  1  0
 15 23  1  0
M  ISO  4  17  14  21  14  22  14  23  14
M  END
>  <minimizedAffinity>  (1) 
-4.81840849

>  <minimizedRMSD>  (1) 
0.416900158

$$$$
