
     RDKit          3D

 23 25  0  0  0  0  0  0  0  0999 V2000
   38.3630   24.5560   35.9930 C   0  0  0  0  0  0  0  0  0  0  0  0
   37.6890   24.5060   37.2620 C   0  0  0  0  0  0  0  0  0  0  0  0
   38.6960   23.3200   38.2230 S   0  0  0  0  0  0  0  0  0  0  0  0
   39.8510   23.0980   36.7430 C   0  0  0  0  0  0  0  0  0  0  0  0
   39.4110   23.7740   35.9670 N   0  0  0  0  0  0  0  0  0  0  0  0
   37.8130   24.9960   33.6050 C   0  0  0  0  0  0  0  0  0  0  0  0
   37.8390   25.4220   34.9370 C   0  0  0  0  0  0  0  0  0  0  0  0
   37.3430   26.7030   35.1950 C   0  0  0  0  0  0  0  0  0  0  0  0
   36.8730   27.4470   34.1560 N   0  0  0  0  0  0  0  0  0  0  0  0
   36.8740   26.9840   32.8890 C   0  0  0  0  0  0  0  0  0  0  0  0
   37.3430   25.7630   32.6320 N   0  0  0  0  0  0  0  0  0  0  0  0
   40.9810   22.1580   36.9360 C   0  0  0  0  0  0  0  0  0  0  0  0
   42.0670   22.2540   36.1070 C   0  0  0  0  0  0  0  0  0  0  0  0
   42.9070   21.2770   36.5330 N   0  0  0  0  0  0  0  0  0  0  0  0
   42.3430   20.6170   37.5820 C   0  0  0  0  0  0  0  0  0  0  0  0
   41.1440   21.1690   37.8300 N   0  0  0  0  0  0  0  0  0  0  0  0
   36.7864   25.0494   37.5782 H   0  0  0  0  0  0  0  0  0  0  0  0
   38.1941   23.9942   33.3577 H   0  0  0  0  0  0  0  0  0  0  0  0
   37.3325   27.1031   36.2196 H   0  0  0  0  0  0  0  0  0  0  0  0
   36.4894   27.6114   32.0714 H   0  0  0  0  0  0  0  0  0  0  0  0
   42.2233   22.9637   35.2812 H   0  0  0  0  0  0  0  0  0  0  0  0
   42.7920   19.7766   38.1316 H   0  0  0  0  0  0  0  0  0  0  0  0
   40.4782   20.8882   38.5639 H   0  0  0  0  0  0  0  0  0  0  0  0
  1  2  2  0
  2  3  1  0
  4 12  1  0
  4  3  1  0
  5  1  1  0
  5  4  2  0
  6  7  2  0
  7  8  1  0
  7  1  1  0
  9  8  2  0
 10  9  1  0
 11 10  2  0
 11  6  1  0
 12 16  1  0
 13 14  1  0
 13 12  2  0
 14 15  2  0
 15 16  1  0
  2 17  1  0
  6 18  1  0
  8 19  1  0
 10 20  1  0
 13 21  1  0
 15 22  1  0
 16 23  1  0
M  ISO  7  17  14  18  14  19  14  20  14  21  14  22  14  23   9
M  END
>  <minimizedAffinity>  (1) 
-4.42026711

>  <minimizedRMSD>  (1) 
0.543971062

$$$$
