
     RDKit          3D

 24 26  0  0  0  0  0  0  0  0999 V2000
   38.3800   24.7330   35.8230 C   0  0  0  0  0  0  0  0  0  0  0  0
   37.8230   24.6280   37.1380 C   0  0  0  0  0  0  0  0  0  0  0  0
   38.8190   23.3460   37.9530 S   0  0  0  0  0  0  0  0  0  0  0  0
   39.8380   23.1570   36.3710 C   0  0  0  0  0  0  0  0  0  0  0  0
   39.3800   23.9050   35.6540 N   0  0  0  0  0  0  0  0  0  0  0  0
   37.6070   25.3360   33.5550 C   0  0  0  0  0  0  0  0  0  0  0  0
   37.8100   25.6950   34.8800 C   0  0  0  0  0  0  0  0  0  0  0  0
   37.4500   26.9920   35.2490 C   0  0  0  0  0  0  0  0  0  0  0  0
   36.9270   27.8250   34.3080 N   0  0  0  0  0  0  0  0  0  0  0  0
   36.7500   27.4200   33.0190 C   0  0  0  0  0  0  0  0  0  0  0  0
   37.0960   26.1690   32.6590 N   0  0  0  0  0  0  0  0  0  0  0  0
   40.9740   22.1510   36.3210 C   0  0  0  0  0  0  0  0  0  0  0  0
   41.4480   21.5380   37.4620 C   0  0  0  0  0  0  0  0  0  0  0  0
   42.4820   20.6420   37.2990 C   0  0  0  0  0  0  0  0  0  0  0  0
   43.0240   20.3540   36.1050 N   0  0  0  0  0  0  0  0  0  0  0  0
   42.5390   20.9670   35.0140 C   0  0  0  0  0  0  0  0  0  0  0  0
   41.5250   21.8570   35.1110 N   0  0  0  0  0  0  0  0  0  0  0  0
   36.9809   25.1962   37.5600 H   0  0  0  0  0  0  0  0  0  0  0  0
   37.8810   24.3198   33.2353 H   0  0  0  0  0  0  0  0  0  0  0  0
   37.5869   27.3359   36.2848 H   0  0  0  0  0  0  0  0  0  0  0  0
   36.3265   28.1116   32.2758 H   0  0  0  0  0  0  0  0  0  0  0  0
   41.0218   21.7537   38.4529 H   0  0  0  0  0  0  0  0  0  0  0  0
   42.8830   20.1380   38.1908 H   0  0  0  0  0  0  0  0  0  0  0  0
   42.9718   20.7427   34.0279 H   0  0  0  0  0  0  0  0  0  0  0  0
  1  2  2  0
  2  3  1  0
  4  3  1  0
  5  1  1  0
  5  4  2  0
  6  7  2  0
  7  8  1  0
  7  1  1  0
  9  8  2  0
 10  9  1  0
 11 10  2  0
 11  6  1  0
 12  4  1  0
 12 13  2  0
 14 13  1  0
 15 14  2  0
 16 17  2  0
 16 15  1  0
 17 12  1  0
  2 18  1  0
  6 19  1  0
  8 20  1  0
 10 21  1  0
 13 22  1  0
 14 23  1  0
 16 24  1  0
M  ISO  7  18  14  19  14  20  14  21  14  22  14  23  14  24  14
M  END
>  <minimizedAffinity>  (1) 
-4.19118118

>  <minimizedRMSD>  (1) 
0.890134513

$$$$
