
     RDKit          3D

 21 23  0  0  0  0  0  0  0  0999 V2000
   38.3880   24.6180   36.0860 C   0  0  0  0  0  0  0  0  0  0  0  0
   37.7980   24.5860   37.3800 C   0  0  0  0  0  0  0  0  0  0  0  0
   38.7590   23.3170   38.2790 S   0  0  0  0  0  0  0  0  0  0  0  0
   39.8200   23.0300   36.7330 C   0  0  0  0  0  0  0  0  0  0  0  0
   39.3750   23.7560   36.0030 N   0  0  0  0  0  0  0  0  0  0  0  0
   37.7310   25.1060   33.7420 C   0  0  0  0  0  0  0  0  0  0  0  0
   37.8800   25.5300   35.0570 C   0  0  0  0  0  0  0  0  0  0  0  0
   37.5290   26.8500   35.3530 C   0  0  0  0  0  0  0  0  0  0  0  0
   37.0630   27.6480   34.3530 N   0  0  0  0  0  0  0  0  0  0  0  0
   36.9330   27.1960   33.0890 C   0  0  0  0  0  0  0  0  0  0  0  0
   37.2690   25.9280   32.7980 N   0  0  0  0  0  0  0  0  0  0  0  0
   40.9420   22.0700   36.5950 C   0  0  0  0  0  0  0  0  0  0  0  0
   41.6160   21.6480   35.5090 N   0  0  0  0  0  0  0  0  0  0  0  0
   42.5250   20.7960   35.8790 O   0  0  0  0  0  0  0  0  0  0  0  0
   42.4980   20.6190   37.1790 C   0  0  0  0  0  0  0  0  0  0  0  0
   41.5010   21.4180   37.6550 N   0  0  0  0  0  0  0  0  0  0  0  0
   36.9562   25.1872   37.7541 H   0  0  0  0  0  0  0  0  0  0  0  0
   37.9990   24.0733   33.4743 H   0  0  0  0  0  0  0  0  0  0  0  0
   37.6276   27.2381   36.3775 H   0  0  0  0  0  0  0  0  0  0  0  0
   36.5537   27.8622   32.3001 H   0  0  0  0  0  0  0  0  0  0  0  0
   43.1503   19.9573   37.7678 H   0  0  0  0  0  0  0  0  0  0  0  0
  1  2  2  0
  2  3  1  0
  4  3  1  0
  5  1  1  0
  5  4  2  0
  6  7  2  0
  7  8  1  0
  7  1  1  0
  9  8  2  0
 10  9  1  0
 11 10  2  0
 11  6  1  0
 12  4  1  0
 12 16  1  0
 13 14  1  0
 13 12  2  0
 14 15  1  0
 15 16  2  0
  2 17  1  0
  6 18  1  0
  8 19  1  0
 10 20  1  0
 15 21  1  0
M  ISO  5  17  14  18  14  19  14  20  14  21  14
M  END
>  <minimizedAffinity>  (1) 
-4.01838255

>  <minimizedRMSD>  (1) 
0.519598484

$$$$
