
     RDKit          3D

 30 33  0  0  0  0  0  0  0  0999 V2000
   38.6730   24.5160   34.6410 N   0  0  0  0  0  0  0  0  0  0  0  0
   39.6490   23.7380   34.0900 C   0  0  0  0  0  0  0  0  0  0  0  0
   40.1800   22.9580   35.0750 N   0  0  0  0  0  0  0  0  0  0  0  0
   39.5480   23.2460   36.2170 C   0  0  0  0  0  0  0  0  0  0  0  0
   39.6220   22.8160   37.5160 C   0  0  0  0  0  0  0  0  0  0  0  0
   38.8310   23.2890   38.5310 N   0  0  0  0  0  0  0  0  0  0  0  0
   37.9080   24.2510   38.2310 C   0  0  0  0  0  0  0  0  0  0  0  0
   37.8130   24.6940   36.9600 N   0  0  0  0  0  0  0  0  0  0  0  0
   38.5940   24.2190   35.9820 C   0  0  0  0  0  0  0  0  0  0  0  0
   37.8630   26.7890   34.4190 C   0  0  0  0  0  0  0  0  0  0  0  0
   37.8860   25.4630   33.9240 C   0  0  0  0  0  0  0  0  0  0  0  0
   37.1510   25.1720   32.7860 C   0  0  0  0  0  0  0  0  0  0  0  0
   36.4320   26.1600   32.1780 N   0  0  0  0  0  0  0  0  0  0  0  0
   36.4280   27.4170   32.6730 C   0  0  0  0  0  0  0  0  0  0  0  0
   37.1300   27.7100   33.7670 N   0  0  0  0  0  0  0  0  0  0  0  0
   35.6450   28.4890   32.0090 C   0  0  0  0  0  0  0  0  0  0  0  0
   36.3460   29.0950   30.8170 C   0  0  0  0  0  0  0  0  0  0  0  0
   36.1250   29.8950   32.0700 C   0  0  0  0  0  0  0  0  0  0  0  0
   40.5550   21.8210   37.8990 N   0  0  0  0  0  0  0  0  0  0  0  0
   39.9550   23.7395   33.0334 H   0  0  0  0  0  0  0  0  0  0  0  0
   37.2519   24.6584   39.0143 H   0  0  0  0  0  0  0  0  0  0  0  0
   38.4334   27.0613   35.3193 H   0  0  0  0  0  0  0  0  0  0  0  0
   37.1470   24.1515   32.3754 H   0  0  0  0  0  0  0  0  0  0  0  0
   34.6721   28.0267   32.2319 H   0  0  0  0  0  0  0  0  0  0  0  0
   37.3589   28.7637   30.5447 H   0  0  0  0  0  0  0  0  0  0  0  0
   36.1063   29.2269   29.7516 H   0  0  0  0  0  0  0  0  0  0  0  0
   35.3999   30.7222   32.0715 H   0  0  0  0  0  0  0  0  0  0  0  0
   36.7766   30.4615   32.7516 H   0  0  0  0  0  0  0  0  0  0  0  0
   40.5999   21.5070   38.8789 H   0  0  0  0  0  0  0  0  0  0  0  0
   41.1884   21.4116   37.1975 H   0  0  0  0  0  0  0  0  0  0  0  0
  1  9  1  0
  2  1  1  0
  2  3  2  0
  3  4  1  0
  4  5  2  0
  5 19  1  0
  5  6  1  0
  7  6  2  0
  8  7  1  0
  9  4  1  0
  9  8  2  0
 11 10  2  0
 11  1  1  0
 12 11  1  0
 13 14  1  0
 13 12  2  0
 14 15  2  0
 15 10  1  0
 16 18  1  0
 16 14  1  0
 17 16  1  0
 17 18  1  0
  2 20  1  0
  7 21  1  0
 10 22  1  0
 12 23  1  0
 16 24  1  0
 17 25  1  0
 17 26  1  0
 18 27  1  0
 18 28  1  0
 19 29  1  0
 19 30  1  0
M  ISO  8  20  14  21  14  22  14  23  14  24  13  25  13  26  13  27  13
M  ISO  1  28  13
M  END
>  <minimizedAffinity>  (1) 
-5.50642443

>  <minimizedRMSD>  (1) 
0.389525682

$$$$
