
     RDKit          3D

 22 24  0  0  0  0  0  0  0  0999 V2000
   38.3430   24.5270   35.9780 C   0  0  0  0  0  0  0  0  0  0  0  0
   37.6950   24.5210   37.2600 C   0  0  0  0  0  0  0  0  0  0  0  0
   38.6400   23.3050   38.2380 S   0  0  0  0  0  0  0  0  0  0  0  0
   39.7610   23.0030   36.7460 C   0  0  0  0  0  0  0  0  0  0  0  0
   39.3480   23.6890   35.9600 N   0  0  0  0  0  0  0  0  0  0  0  0
   40.9230   22.0710   36.6440 N   0  0  0  0  0  0  0  0  0  0  0  0
   41.5330   21.6940   35.5060 C   0  0  0  0  0  0  0  0  0  0  0  0
   42.5360   20.8490   35.7930 N   0  0  0  0  0  0  0  0  0  0  0  0
   42.5400   20.7050   37.1270 C   0  0  0  0  0  0  0  0  0  0  0  0
   41.5660   21.4440   37.6420 N   0  0  0  0  0  0  0  0  0  0  0  0
   37.8510   24.9770   33.5880 C   0  0  0  0  0  0  0  0  0  0  0  0
   37.8430   25.4060   34.9140 C   0  0  0  0  0  0  0  0  0  0  0  0
   37.3480   26.6850   35.1820 C   0  0  0  0  0  0  0  0  0  0  0  0
   36.9070   27.4290   34.1370 N   0  0  0  0  0  0  0  0  0  0  0  0
   36.9340   26.9720   32.8590 C   0  0  0  0  0  0  0  0  0  0  0  0
   37.4060   25.7510   32.6080 N   0  0  0  0  0  0  0  0  0  0  0  0
   36.8260   25.1149   37.5796 H   0  0  0  0  0  0  0  0  0  0  0  0
   41.2531   22.0268   34.4956 H   0  0  0  0  0  0  0  0  0  0  0  0
   43.2374   20.0765   37.7003 H   0  0  0  0  0  0  0  0  0  0  0  0
   38.2350   23.9742   33.3493 H   0  0  0  0  0  0  0  0  0  0  0  0
   37.3169   27.0767   36.2094 H   0  0  0  0  0  0  0  0  0  0  0  0
   36.5690   27.6047   32.0366 H   0  0  0  0  0  0  0  0  0  0  0  0
  1  2  2  0
  2  3  1  0
  4  3  1  0
  5  1  1  0
  5  4  2  0
  6  4  1  0
  6 10  1  0
  7  8  2  0
  7  6  1  0
  8  9  1  0
  9 10  2  0
 11 12  2  0
 12 13  1  0
 12  1  1  0
 14 13  2  0
 15 14  1  0
 16 15  2  0
 16 11  1  0
  2 17  1  0
  7 18  1  0
  9 19  1  0
 11 20  1  0
 13 21  1  0
 15 22  1  0
M  ISO  6  17  14  18  14  19  14  20  14  21  14  22  14
M  END
>  <minimizedAffinity>  (1) 
-4.1901207

>  <minimizedRMSD>  (1) 
0.401154459

$$$$
