
     RDKit          3D

 28 29  0  0  0  0  0  0  0  0999 V2000
   38.4630   24.7100   35.8170 C   0  0  0  0  0  0  0  0  0  0  0  0
   37.8040   24.4090   37.0600 C   0  0  0  0  0  0  0  0  0  0  0  0
   38.9160   23.2260   37.8750 S   0  0  0  0  0  0  0  0  0  0  0  0
   40.1050   23.3300   36.3890 C   0  0  0  0  0  0  0  0  0  0  0  0
   39.5970   24.0520   35.7040 N   0  0  0  0  0  0  0  0  0  0  0  0
   37.6320   25.2810   33.5450 C   0  0  0  0  0  0  0  0  0  0  0  0
   37.8520   25.6540   34.8720 C   0  0  0  0  0  0  0  0  0  0  0  0
   37.4790   26.9420   35.2650 C   0  0  0  0  0  0  0  0  0  0  0  0
   36.9230   27.7550   34.3220 N   0  0  0  0  0  0  0  0  0  0  0  0
   36.7290   27.3490   33.0460 C   0  0  0  0  0  0  0  0  0  0  0  0
   37.0830   26.1250   32.6730 N   0  0  0  0  0  0  0  0  0  0  0  0
   41.3880   22.5170   36.3780 C   0  0  0  0  0  0  0  0  0  0  0  0
   41.4080   21.8640   35.0250 C   0  0  0  0  0  0  0  0  0  0  0  0
   42.5990   23.3910   36.4960 C   0  0  0  0  0  0  0  0  0  0  0  0
   41.3540   21.4860   37.4830 C   0  0  0  0  0  0  0  0  0  0  0  0
   36.8470   24.8042   37.4314 H   0  0  0  0  0  0  0  0  0  0  0  0
   37.9172   24.2717   33.2134 H   0  0  0  0  0  0  0  0  0  0  0  0
   37.6286   27.2878   36.2985 H   0  0  0  0  0  0  0  0  0  0  0  0
   36.2764   28.0354   32.3152 H   0  0  0  0  0  0  0  0  0  0  0  0
   41.4415   20.7712   35.1458 H   0  0  0  0  0  0  0  0  0  0  0  0
   40.5009   22.1439   34.4693 H   0  0  0  0  0  0  0  0  0  0  0  0
   42.2963   22.1989   34.4693 H   0  0  0  0  0  0  0  0  0  0  0  0
   42.8292   23.5571   37.5587 H   0  0  0  0  0  0  0  0  0  0  0  0
   43.4541   22.9005   36.0079 H   0  0  0  0  0  0  0  0  0  0  0  0
   42.4029   24.3571   36.0079 H   0  0  0  0  0  0  0  0  0  0  0  0
   41.3707   21.9936   38.4587 H   0  0  0  0  0  0  0  0  0  0  0  0
   40.4356   20.8867   37.3972 H   0  0  0  0  0  0  0  0  0  0  0  0
   42.2309   20.8275   37.3972 H   0  0  0  0  0  0  0  0  0  0  0  0
  1  2  2  0
  2  3  1  0
  4  3  1  0
  5  1  1  0
  5  4  2  0
  6  7  2  0
  7  8  1  0
  7  1  1  0
  9  8  2  0
 10  9  1  0
 11 10  2  0
 11  6  1  0
 12  4  1  0
 12 14  1  0
 12 15  1  0
 13 12  1  0
  2 16  1  0
  6 17  1  0
  8 18  1  0
 10 19  1  0
 13 20  1  0
 13 21  1  0
 13 22  1  0
 14 23  1  0
 14 24  1  0
 14 25  1  0
 15 26  1  0
 15 27  1  0
 15 28  1  0
M  ISO  8  16  14  17  14  18  14  19  14  20   8  21   8  22   8  23   8
M  ISO  5  24   8  25   8  26   8  27   8  28   8
M  END
>  <minimizedAffinity>  (1) 
-4.03122997

>  <minimizedRMSD>  (1) 
0.968200922

$$$$
