
     RDKit          3D

 26 28  0  0  0  0  0  0  0  0999 V2000
   38.6790   24.7400   34.8910 N   0  0  0  0  0  0  0  0  0  0  0  0
   39.6420   24.0030   34.2680 C   0  0  0  0  0  0  0  0  0  0  0  0
   40.1830   23.1420   35.1740 N   0  0  0  0  0  0  0  0  0  0  0  0
   39.5650   23.3420   36.3380 C   0  0  0  0  0  0  0  0  0  0  0  0
   39.6500   22.8070   37.6020 C   0  0  0  0  0  0  0  0  0  0  0  0
   38.8670   23.2130   38.6530 N   0  0  0  0  0  0  0  0  0  0  0  0
   37.9570   24.1950   38.4430 C   0  0  0  0  0  0  0  0  0  0  0  0
   37.8590   24.7290   37.2150 N   0  0  0  0  0  0  0  0  0  0  0  0
   38.6230   24.3330   36.1900 C   0  0  0  0  0  0  0  0  0  0  0  0
   37.7150   26.9610   34.9480 C   0  0  0  0  0  0  0  0  0  0  0  0
   37.8920   25.7510   34.2580 C   0  0  0  0  0  0  0  0  0  0  0  0
   37.2960   25.6020   33.0030 C   0  0  0  0  0  0  0  0  0  0  0  0
   36.5660   26.6500   32.5090 N   0  0  0  0  0  0  0  0  0  0  0  0
   36.4140   27.7890   33.1850 C   0  0  0  0  0  0  0  0  0  0  0  0
   36.9820   27.9340   34.3840 N   0  0  0  0  0  0  0  0  0  0  0  0
   35.6400   28.9160   32.6730 C   0  0  0  0  0  0  0  0  0  0  0  0
   36.1640   29.9630   32.2260 O   0  0  0  0  0  0  0  0  0  0  0  0
   34.2530   28.9340   32.6340 O   0  0  0  0  0  0  0  0  0  0  0  0
   40.5890   21.7750   37.8750 N   0  0  0  0  0  0  0  0  0  0  0  0
   39.9332   24.0893   33.2108 H   0  0  0  0  0  0  0  0  0  0  0  0
   37.3121   24.5473   39.2615 H   0  0  0  0  0  0  0  0  0  0  0  0
   38.1711   27.1097   35.9379 H   0  0  0  0  0  0  0  0  0  0  0  0
   37.4098   24.6706   32.4289 H   0  0  0  0  0  0  0  0  0  0  0  0
   33.7781   29.7254   32.2760 H   0  0  0  0  0  0  0  0  0  0  0  0
   40.6529   21.3741   38.8216 H   0  0  0  0  0  0  0  0  0  0  0  0
   41.2054   21.4283   37.1262 H   0  0  0  0  0  0  0  0  0  0  0  0
  1  9  1  0
  2  1  1  0
  2  3  2  0
  3  4  1  0
  4  5  2  0
  5 19  1  0
  5  6  1  0
  7  6  2  0
  8  7  1  0
  9  4  1  0
  9  8  2  0
 11  1  1  0
 11 10  2  0
 12 11  1  0
 13 12  2  0
 13 14  1  0
 14 15  2  0
 15 10  1  0
 16 14  1  0
 17 16  2  0
 18 16  1  0
  2 20  1  0
  7 21  1  0
 10 22  1  0
 12 23  1  0
 18 24  1  0
 19 25  1  0
 19 26  1  0
M  ISO  5  20  14  21  14  22  14  23  14  24   3
M  END
>  <minimizedAffinity>  (1) 
-5.41073465

>  <minimizedRMSD>  (1) 
0.674945831

$$$$
