
     RDKit          3D

 19 20  0  0  0  0  0  0  0  0999 V2000
   38.0370   24.5670   33.8140 C   0  0  0  0  0  0  0  0  0  0  0  0
   37.9680   25.1260   35.0960 C   0  0  0  0  0  0  0  0  0  0  0  0
   37.4630   26.4220   35.2280 C   0  0  0  0  0  0  0  0  0  0  0  0
   37.0600   27.0860   34.1100 N   0  0  0  0  0  0  0  0  0  0  0  0
   37.1460   26.4990   32.8750 C   0  0  0  0  0  0  0  0  0  0  0  0
   37.6250   25.2680   32.7490 N   0  0  0  0  0  0  0  0  0  0  0  0
   38.4200   24.3590   36.2580 C   0  0  0  0  0  0  0  0  0  0  0  0
   37.7400   24.4900   37.5180 C   0  0  0  0  0  0  0  0  0  0  0  0
   38.6360   23.3740   38.6370 S   0  0  0  0  0  0  0  0  0  0  0  0
   39.8010   22.9020   37.2070 C   0  0  0  0  0  0  0  0  0  0  0  0
   39.4160   23.5100   36.3480 N   0  0  0  0  0  0  0  0  0  0  0  0
   40.9620   21.9150   37.3040 C   0  0  0  0  0  0  0  0  0  0  0  0
   38.4309   23.5486   33.6807 H   0  0  0  0  0  0  0  0  0  0  0  0
   37.3923   26.8973   36.2175 H   0  0  0  0  0  0  0  0  0  0  0  0
   36.8161   27.0514   31.9828 H   0  0  0  0  0  0  0  0  0  0  0  0
   36.8719   25.1238   37.7520 H   0  0  0  0  0  0  0  0  0  0  0  0
   41.1906   21.7207   38.3623 H   0  0  0  0  0  0  0  0  0  0  0  0
   40.6842   20.9724   36.8098 H   0  0  0  0  0  0  0  0  0  0  0  0
   41.8476   22.3409   36.8098 H   0  0  0  0  0  0  0  0  0  0  0  0
  1  2  2  0
  2  3  1  0
  2  7  1  0
  4  3  2  0
  5  4  1  0
  6  5  2  0
  6  1  1  0
  7 11  1  0
  7  8  2  0
  8  9  1  0
 10 12  1  0
 10  9  1  0
 11 10  2  0
  1 13  1  0
  3 14  1  0
  5 15  1  0
  8 16  1  0
 12 17  1  0
 12 18  1  0
 12 19  1  0
M  ISO  7  13  14  14  14  15  14  16  14  17   8  18   8  19   8
M  END
>  <minimizedAffinity>  (1) 
-3.55921149

>  <minimizedRMSD>  (1) 
0.206603706

$$$$
