
     RDKit          3D

 23 25  0  0  0  0  0  0  0  0999 V2000
   38.2900   24.6960   35.8710 C   0  0  0  0  0  0  0  0  0  0  0  0
   37.5310   24.4450   37.0530 C   0  0  0  0  0  0  0  0  0  0  0  0
   38.5760   23.3410   38.0570 S   0  0  0  0  0  0  0  0  0  0  0  0
   39.8970   23.3890   36.7030 C   0  0  0  0  0  0  0  0  0  0  0  0
   39.4390   24.0570   35.9280 N   0  0  0  0  0  0  0  0  0  0  0  0
   41.1940   22.7070   36.6970 N   0  0  0  0  0  0  0  0  0  0  0  0
   41.3040   21.4280   37.1120 C   0  0  0  0  0  0  0  0  0  0  0  0
   42.6510   21.0850   36.9820 C   0  0  0  0  0  0  0  0  0  0  0  0
   43.2740   22.1790   36.4950 N   0  0  0  0  0  0  0  0  0  0  0  0
   42.3910   23.1860   36.3150 C   0  0  0  0  0  0  0  0  0  0  0  0
   37.7180   25.1170   33.4960 C   0  0  0  0  0  0  0  0  0  0  0  0
   37.7670   25.5550   34.8140 C   0  0  0  0  0  0  0  0  0  0  0  0
   37.2960   26.8430   35.0870 C   0  0  0  0  0  0  0  0  0  0  0  0
   36.8180   27.5980   34.0550 N   0  0  0  0  0  0  0  0  0  0  0  0
   36.7930   27.1230   32.7850 C   0  0  0  0  0  0  0  0  0  0  0  0
   37.2450   25.8860   32.5230 N   0  0  0  0  0  0  0  0  0  0  0  0
   36.5327   24.8334   37.3033 H   0  0  0  0  0  0  0  0  0  0  0  0
   40.4926   20.7829   37.4801 H   0  0  0  0  0  0  0  0  0  0  0  0
   43.1123   20.1170   37.2273 H   0  0  0  0  0  0  0  0  0  0  0  0
   42.6078   24.1945   35.9329 H   0  0  0  0  0  0  0  0  0  0  0  0
   38.0804   24.1073   33.2529 H   0  0  0  0  0  0  0  0  0  0  0  0
   37.3104   27.2399   36.1128 H   0  0  0  0  0  0  0  0  0  0  0  0
   36.4028   27.7505   31.9702 H   0  0  0  0  0  0  0  0  0  0  0  0
  1  5  1  0
  1  2  2  0
  2  3  1  0
  4  3  1  0
  5  4  2  0
  6  4  1  0
  6  7  1  0
  8  7  2  0
  9  8  1  0
 10  9  2  0
 10  6  1  0
 11 12  2  0
 12 13  1  0
 12  1  1  0
 14 13  2  0
 15 14  1  0
 16 15  2  0
 16 11  1  0
  2 17  1  0
  7 18  1  0
  8 19  1  0
 10 20  1  0
 11 21  1  0
 13 22  1  0
 15 23  1  0
M  ISO  7  17  14  18  14  19  14  20  14  21  14  22  14  23  14
M  END
>  <minimizedAffinity>  (1) 
-4.15842056

>  <minimizedRMSD>  (1) 
0.900564969

$$$$
