
     RDKit          3D

 30 32  0  0  0  0  0  0  0  0999 V2000
   37.7580   24.3440   33.0100 C   0  0  0  0  0  0  0  0  0  0  0  0
   37.7880   25.0340   34.2150 C   0  0  0  0  0  0  0  0  0  0  0  0
   37.2980   26.3340   34.2070 C   0  0  0  0  0  0  0  0  0  0  0  0
   36.8190   26.8640   33.0460 N   0  0  0  0  0  0  0  0  0  0  0  0
   36.8100   26.1510   31.8960 C   0  0  0  0  0  0  0  0  0  0  0  0
   37.2800   24.9070   31.9050 N   0  0  0  0  0  0  0  0  0  0  0  0
   36.2880   26.7880   30.7350 N   0  0  0  0  0  0  0  0  0  0  0  0
   36.8920   27.9780   30.2600 C   0  0  0  0  0  0  0  0  0  0  0  0
   37.3350   28.8650   31.0700 N   0  0  0  0  0  0  0  0  0  0  0  0
   37.0200   28.2190   28.8510 N   0  0  0  0  0  0  0  0  0  0  0  0
   37.3220   28.8540   32.0900 H   0  0  0  0  0  0  0  0  0  0  0  0
   38.3110   24.4140   35.4170 C   0  0  0  0  0  0  0  0  0  0  0  0
   37.5670   24.4670   36.6390 C   0  0  0  0  0  0  0  0  0  0  0  0
   38.5950   23.5730   37.8490 S   0  0  0  0  0  0  0  0  0  0  0  0
   39.8900   23.2600   36.5050 C   0  0  0  0  0  0  0  0  0  0  0  0
   39.4240   23.7610   35.6180 N   0  0  0  0  0  0  0  0  0  0  0  0
   41.1540   22.5490   36.6260 N   0  0  0  0  0  0  0  0  0  0  0  0
   41.2330   21.4030   37.3160 C   0  0  0  0  0  0  0  0  0  0  0  0
   42.5450   20.9570   37.2610 C   0  0  0  0  0  0  0  0  0  0  0  0
   43.1930   21.8840   36.5220 N   0  0  0  0  0  0  0  0  0  0  0  0
   42.3520   22.8640   36.1280 C   0  0  0  0  0  0  0  0  0  0  0  0
   38.1370   23.3121   32.9694 H   0  0  0  0  0  0  0  0  0  0  0  0
   37.2966   26.9312   35.1307 H   0  0  0  0  0  0  0  0  0  0  0  0
   35.4767   26.3864   30.2437 H   0  0  0  0  0  0  0  0  0  0  0  0
   37.4606   29.0872   28.5150 H   0  0  0  0  0  0  0  0  0  0  0  0
   36.6712   27.5237   28.1758 H   0  0  0  0  0  0  0  0  0  0  0  0
   36.5900   24.9426   36.8098 H   0  0  0  0  0  0  0  0  0  0  0  0
   40.4021   20.9032   37.8354 H   0  0  0  0  0  0  0  0  0  0  0  0
   42.9653   20.0490   37.7181 H   0  0  0  0  0  0  0  0  0  0  0  0
   42.6034   23.7449   35.5191 H   0  0  0  0  0  0  0  0  0  0  0  0
  1  2  2  0
  2 12  1  0
  3  2  1  0
  4  3  2  0
  5  6  2  0
  5  4  1  0
  6  1  1  0
  7  5  1  0
  8  7  1  0
  8  9  2  0
  9 11  1  0
 10  8  1  0
 12 16  1  0
 12 13  2  0
 13 14  1  0
 15 17  1  0
 15 14  1  0
 16 15  2  0
 17 18  1  0
 19 18  2  0
 20 19  1  0
 21 20  2  0
 21 17  1  0
  1 22  1  0
  3 23  1  0
  7 24  1  0
 10 25  1  0
 10 26  1  0
 13 27  1  0
 18 28  1  0
 19 29  1  0
 21 30  1  0
M  ISO  6  22  14  23  14  27  14  28  14  29  14  30  14
M  END
>  <minimizedAffinity>  (1) 
-5.40383482

>  <minimizedRMSD>  (1) 
1.04411256

$$$$
