
     RDKit          3D

 37 41  0  0  0  0  0  0  0  0999 V2000
   37.5700   25.3260   33.8140 C   0  0  0  0  0  0  0  0  0  0  0  0
   37.9000   25.7220   35.1070 C   0  0  0  0  0  0  0  0  0  0  0  0
   37.7110   27.0630   35.4480 C   0  0  0  0  0  0  0  0  0  0  0  0
   37.2130   27.9090   34.4980 N   0  0  0  0  0  0  0  0  0  0  0  0
   36.9070   27.4850   33.2570 C   0  0  0  0  0  0  0  0  0  0  0  0
   37.0900   26.1850   32.9260 N   0  0  0  0  0  0  0  0  0  0  0  0
   38.4270   24.7560   36.0660 C   0  0  0  0  0  0  0  0  0  0  0  0
   37.6680   24.3840   37.2170 C   0  0  0  0  0  0  0  0  0  0  0  0
   38.6990   23.1850   38.1000 S   0  0  0  0  0  0  0  0  0  0  0  0
   40.0250   23.3630   36.7730 C   0  0  0  0  0  0  0  0  0  0  0  0
   39.5620   24.1110   36.0730 N   0  0  0  0  0  0  0  0  0  0  0  0
   41.3170   22.6860   36.6960 N   0  0  0  0  0  0  0  0  0  0  0  0
   41.4260   21.3630   36.9650 C   0  0  0  0  0  0  0  0  0  0  0  0
   42.7750   21.0360   36.8030 C   0  0  0  0  0  0  0  0  0  0  0  0
   43.3970   22.1880   36.4450 N   0  0  0  0  0  0  0  0  0  0  0  0
   42.5170   23.2040   36.3760 C   0  0  0  0  0  0  0  0  0  0  0  0
   36.3790   28.4350   32.2840 C   0  0  0  0  0  0  0  0  0  0  0  0
   36.6130   28.3440   30.9260 C   0  0  0  0  0  0  0  0  0  0  0  0
   35.9700   29.3860   30.3720 N   0  0  0  0  0  0  0  0  0  0  0  0
   35.3390   30.1350   31.3060 C   0  0  0  0  0  0  0  0  0  0  0  0
   34.5680   31.2710   31.2590 C   0  0  0  0  0  0  0  0  0  0  0  0
   34.0350   31.8400   32.3990 C   0  0  0  0  0  0  0  0  0  0  0  0
   34.3310   31.1910   33.5780 C   0  0  0  0  0  0  0  0  0  0  0  0
   35.0910   30.0500   33.7370 C   0  0  0  0  0  0  0  0  0  0  0  0
   35.5960   29.5330   32.5420 C   0  0  0  0  0  0  0  0  0  0  0  0
   37.7110   24.2748   33.5221 H   0  0  0  0  0  0  0  0  0  0  0  0
   37.9569   27.4287   36.4559 H   0  0  0  0  0  0  0  0  0  0  0  0
   36.6708   24.7477   37.5055 H   0  0  0  0  0  0  0  0  0  0  0  0
   40.6131   20.6806   37.2540 H   0  0  0  0  0  0  0  0  0  0  0  0
   43.2380   20.0473   36.9380 H   0  0  0  0  0  0  0  0  0  0  0  0
   42.7351   24.2491   36.1110 H   0  0  0  0  0  0  0  0  0  0  0  0
   37.2041   27.5765   30.4049 H   0  0  0  0  0  0  0  0  0  0  0  0
   35.9588   29.5892   29.3623 H   0  0  0  0  0  0  0  0  0  0  0  0
   34.3693   31.7413   30.2847 H   0  0  0  0  0  0  0  0  0  0  0  0
   33.4165   32.7491   32.3679 H   0  0  0  0  0  0  0  0  0  0  0  0
   33.9147   31.6320   34.4957 H   0  0  0  0  0  0  0  0  0  0  0  0
   35.2819   29.5890   34.7173 H   0  0  0  0  0  0  0  0  0  0  0  0
  1  2  2  0
  2  3  1  0
  2  7  1  0
  4  3  2  0
  5  4  1  0
  6  5  2  0
  6  1  1  0
  7 11  1  0
  7  8  2  0
  8  9  1  0
 10  9  1  0
 11 10  2  0
 12 10  1  0
 12 13  1  0
 14 13  2  0
 15 14  1  0
 16 15  2  0
 16 12  1  0
 17 25  1  0
 17  5  1  0
 18 17  2  0
 19 18  1  0
 19 20  1  0
 20 25  2  0
 21 20  1  0
 21 22  2  0
 22 23  1  0
 23 24  2  0
 25 24  1  0
  1 26  1  0
  3 27  1  0
  8 28  1  0
 13 29  1  0
 14 30  1  0
 16 31  1  0
 18 32  1  0
 19 33  1  0
 21 34  1  0
 22 35  1  0
 23 36  1  0
 24 37  1  0
M  ISO  8  26  14  27  14  28  14  29  14  30  14  31  14  32  14  33   9
M  ISO  4  34  14  35  14  36  14  37  14
M  END
>  <minimizedAffinity>  (1) 
-5.87990522

>  <minimizedRMSD>  (1) 
0.659279406

$$$$
