
     RDKit          3D

 37 41  0  0  0  0  0  0  0  0999 V2000
   37.5280   25.4680   34.3370 C   0  0  0  0  0  0  0  0  0  0  0  0
   38.0900   25.7470   35.5650 C   0  0  0  0  0  0  0  0  0  0  0  0
   38.1080   27.0810   35.9370 C   0  0  0  0  0  0  0  0  0  0  0  0
   37.5910   28.0120   35.1070 N   0  0  0  0  0  0  0  0  0  0  0  0
   37.0560   27.7160   33.9280 C   0  0  0  0  0  0  0  0  0  0  0  0
   37.0390   26.4390   33.5720 N   0  0  0  0  0  0  0  0  0  0  0  0
   38.6240   24.6970   36.4140 C   0  0  0  0  0  0  0  0  0  0  0  0
   37.9010   24.2390   37.5490 C   0  0  0  0  0  0  0  0  0  0  0  0
   38.9460   22.9470   38.2810 S   0  0  0  0  0  0  0  0  0  0  0  0
   40.2370   23.2260   36.9090 C   0  0  0  0  0  0  0  0  0  0  0  0
   39.7610   24.0400   36.3030 N   0  0  0  0  0  0  0  0  0  0  0  0
   41.5130   22.5360   36.7260 N   0  0  0  0  0  0  0  0  0  0  0  0
   41.5930   21.1870   36.8700 C   0  0  0  0  0  0  0  0  0  0  0  0
   42.9270   20.8620   36.6300 C   0  0  0  0  0  0  0  0  0  0  0  0
   43.5670   22.0310   36.3570 N   0  0  0  0  0  0  0  0  0  0  0  0
   42.6990   23.0670   36.4140 C   0  0  0  0  0  0  0  0  0  0  0  0
   36.4510   28.5570   32.8900 C   0  0  0  0  0  0  0  0  0  0  0  0
   36.9360   28.7050   31.6320 N   0  0  0  0  0  0  0  0  0  0  0  0
   36.4190   29.4500   30.6780 C   0  0  0  0  0  0  0  0  0  0  0  0
   35.3000   30.1600   30.9030 N   0  0  0  0  0  0  0  0  0  0  0  0
   34.7080   30.0990   32.1300 C   0  0  0  0  0  0  0  0  0  0  0  0
   33.5630   30.8360   32.3350 C   0  0  0  0  0  0  0  0  0  0  0  0
   32.9390   30.7980   33.5630 C   0  0  0  0  0  0  0  0  0  0  0  0
   33.5080   29.9990   34.5560 C   0  0  0  0  0  0  0  0  0  0  0  0
   34.6510   29.2990   34.2680 C   0  0  0  0  0  0  0  0  0  0  0  0
   35.3090   29.2990   33.0740 C   0  0  0  0  0  0  0  0  0  0  0  0
   37.4837   24.4267   33.9853 H   0  0  0  0  0  0  0  0  0  0  0  0
   38.5409   27.3802   36.9029 H   0  0  0  0  0  0  0  0  0  0  0  0
   36.9218   24.5907   37.9061 H   0  0  0  0  0  0  0  0  0  0  0  0
   40.7756   20.4958   37.1231 H   0  0  0  0  0  0  0  0  0  0  0  0
   43.3745   19.8575   36.6562 H   0  0  0  0  0  0  0  0  0  0  0  0
   42.9236   24.1296   36.2392 H   0  0  0  0  0  0  0  0  0  0  0  0
   36.9049   29.4918   29.6920 H   0  0  0  0  0  0  0  0  0  0  0  0
   33.1488   31.4517   31.5230 H   0  0  0  0  0  0  0  0  0  0  0  0
   32.0238   31.3775   33.7542 H   0  0  0  0  0  0  0  0  0  0  0  0
   33.0472   29.9321   35.5526 H   0  0  0  0  0  0  0  0  0  0  0  0
   35.0756   28.6814   35.0732 H   0  0  0  0  0  0  0  0  0  0  0  0
  1  2  2  0
  2  3  1  0
  2  7  1  0
  4  3  2  0
  5  4  1  0
  6  5  2  0
  6  1  1  0
  7  8  2  0
  8  9  1  0
 10  9  1  0
 11  7  1  0
 11 10  2  0
 12 13  1  0
 12 10  1  0
 14 13  2  0
 15 16  2  0
 15 14  1  0
 16 12  1  0
 17 26  1  0
 17  5  1  0
 18 17  2  0
 19 20  2  0
 19 18  1  0
 20 21  1  0
 21 22  1  0
 21 26  2  0
 22 23  2  0
 23 24  1  0
 25 24  2  0
 26 25  1  0
  1 27  1  0
  3 28  1  0
  8 29  1  0
 13 30  1  0
 14 31  1  0
 16 32  1  0
 19 33  1  0
 22 34  1  0
 23 35  1  0
 24 36  1  0
 25 37  1  0
M  ISO  8  27  14  28  14  29  14  30  14  31  14  32  14  33  14  34  14
M  ISO  3  35  14  36  14  37  14
M  END
>  <minimizedAffinity>  (1) 
-5.67219353

>  <minimizedRMSD>  (1) 
1.40843546

$$$$
