
     RDKit          3D

 33 36  0  0  0  0  0  0  0  0999 V2000
   37.7170   25.3260   34.1480 C   0  0  0  0  0  0  0  0  0  0  0  0
   38.0960   25.6620   35.4380 C   0  0  0  0  0  0  0  0  0  0  0  0
   37.9520   27.0010   35.8130 C   0  0  0  0  0  0  0  0  0  0  0  0
   37.4590   27.8970   34.9140 N   0  0  0  0  0  0  0  0  0  0  0  0
   37.1050   27.5220   33.6690 C   0  0  0  0  0  0  0  0  0  0  0  0
   37.2430   26.2270   33.3050 N   0  0  0  0  0  0  0  0  0  0  0  0
   38.6180   24.6640   36.3630 C   0  0  0  0  0  0  0  0  0  0  0  0
   37.9080   24.3220   37.5410 C   0  0  0  0  0  0  0  0  0  0  0  0
   38.9320   23.0630   38.3570 S   0  0  0  0  0  0  0  0  0  0  0  0
   40.1960   23.1980   36.9430 C   0  0  0  0  0  0  0  0  0  0  0  0
   39.7240   23.9710   36.2880 N   0  0  0  0  0  0  0  0  0  0  0  0
   41.4410   22.4600   36.7990 N   0  0  0  0  0  0  0  0  0  0  0  0
   41.5080   21.1390   37.0680 C   0  0  0  0  0  0  0  0  0  0  0  0
   42.8220   20.7510   36.8320 C   0  0  0  0  0  0  0  0  0  0  0  0
   43.4830   21.8560   36.4330 N   0  0  0  0  0  0  0  0  0  0  0  0
   42.6360   22.9120   36.4100 C   0  0  0  0  0  0  0  0  0  0  0  0
   36.5740   28.4650   32.6890 C   0  0  0  0  0  0  0  0  0  0  0  0
   35.6120   29.3810   33.0580 C   0  0  0  0  0  0  0  0  0  0  0  0
   35.0230   30.3280   32.2390 C   0  0  0  0  0  0  0  0  0  0  0  0
   35.4640   30.3290   30.9310 C   0  0  0  0  0  0  0  0  0  0  0  0
   36.4250   29.4310   30.5170 C   0  0  0  0  0  0  0  0  0  0  0  0
   36.9930   28.4950   31.3650 C   0  0  0  0  0  0  0  0  0  0  0  0
   37.8132   24.2815   33.8168 H   0  0  0  0  0  0  0  0  0  0  0  0
   38.2343   27.3277   36.8247 H   0  0  0  0  0  0  0  0  0  0  0  0
   36.9465   24.7300   37.8859 H   0  0  0  0  0  0  0  0  0  0  0  0
   40.6836   20.4949   37.4078 H   0  0  0  0  0  0  0  0  0  0  0  0
   43.2403   19.7403   36.9481 H   0  0  0  0  0  0  0  0  0  0  0  0
   42.8846   23.9450   36.1253 H   0  0  0  0  0  0  0  0  0  0  0  0
   35.2801   29.3566   34.1065 H   0  0  0  0  0  0  0  0  0  0  0  0
   34.2584   31.0295   32.6040 H   0  0  0  0  0  0  0  0  0  0  0  0
   35.0460   31.0510   30.2141 H   0  0  0  0  0  0  0  0  0  0  0  0
   36.7547   29.4593   29.4679 H   0  0  0  0  0  0  0  0  0  0  0  0
   37.7568   27.7929   30.9993 H   0  0  0  0  0  0  0  0  0  0  0  0
  1  2  2  0
  2  3  1  0
  2  7  1  0
  4  3  2  0
  5  4  1  0
  6  5  2  0
  6  1  1  0
  7  8  2  0
  8  9  1  0
 10  9  1  0
 11  7  1  0
 11 10  2  0
 12 10  1  0
 12 13  1  0
 14 13  2  0
 15 14  1  0
 16 15  2  0
 16 12  1  0
 17 18  2  0
 17  5  1  0
 19 18  1  0
 20 19  2  0
 21 20  1  0
 21 22  2  0
 22 17  1  0
  1 23  1  0
  3 24  1  0
  8 25  1  0
 13 26  1  0
 14 27  1  0
 16 28  1  0
 18 29  1  0
 19 30  1  0
 20 31  1  0
 21 32  1  0
 22 33  1  0
M  ISO  8  23  14  24  14  25  14  26  14  27  14  28  14  29  14  30  14
M  ISO  3  31  14  32  14  33  14
M  END
>  <minimizedAffinity>  (1) 
-5.24729967

>  <minimizedRMSD>  (1) 
0.940738261

$$$$
