
     RDKit          3D

 39 42  0  0  0  0  0  0  0  0999 V2000
   38.4580   24.7550   36.1800 C   0  0  0  0  0  0  0  0  0  0  0  0
   37.6870   24.4160   37.3140 C   0  0  0  0  0  0  0  0  0  0  0  0
   38.6660   23.1810   38.2040 S   0  0  0  0  0  0  0  0  0  0  0  0
   40.0160   23.3020   36.8790 C   0  0  0  0  0  0  0  0  0  0  0  0
   39.5830   24.0650   36.1800 N   0  0  0  0  0  0  0  0  0  0  0  0
   41.2780   22.5730   36.8190 N   0  0  0  0  0  0  0  0  0  0  0  0
   41.3400   21.2660   37.1080 C   0  0  0  0  0  0  0  0  0  0  0  0
   42.6660   20.8690   36.9590 C   0  0  0  0  0  0  0  0  0  0  0  0
   43.3400   21.9850   36.5820 N   0  0  0  0  0  0  0  0  0  0  0  0
   42.4910   23.0260   36.4960 C   0  0  0  0  0  0  0  0  0  0  0  0
   37.7600   25.3830   33.8780 C   0  0  0  0  0  0  0  0  0  0  0  0
   38.0010   25.7320   35.2030 C   0  0  0  0  0  0  0  0  0  0  0  0
   37.7820   27.0750   35.5680 C   0  0  0  0  0  0  0  0  0  0  0  0
   37.3520   27.9580   34.6210 N   0  0  0  0  0  0  0  0  0  0  0  0
   37.1340   27.5590   33.3390 C   0  0  0  0  0  0  0  0  0  0  0  0
   37.3420   26.2720   32.9880 N   0  0  0  0  0  0  0  0  0  0  0  0
   36.6710   28.5780   32.3810 C   0  0  0  0  0  0  0  0  0  0  0  0
   37.2220   28.4460   31.0010 C   0  0  0  0  0  0  0  0  0  0  0  0
   36.5370   29.4480   30.1230 C   0  0  0  0  0  0  0  0  0  0  0  0
   35.8180   30.5390   30.8820 C   0  0  0  0  0  0  0  0  0  0  0  0
   34.7790   29.9900   31.8330 C   0  0  0  0  0  0  0  0  0  0  0  0
   35.1460   28.5700   32.2520 C   0  0  0  0  0  0  0  0  0  0  0  0
   36.7022   24.8169   37.5959 H   0  0  0  0  0  0  0  0  0  0  0  0
   40.4980   20.6247   37.4078 H   0  0  0  0  0  0  0  0  0  0  0  0
   43.0805   19.8620   37.1143 H   0  0  0  0  0  0  0  0  0  0  0  0
   42.7488   24.0571   36.2125 H   0  0  0  0  0  0  0  0  0  0  0  0
   37.9205   24.3421   33.5606 H   0  0  0  0  0  0  0  0  0  0  0  0
   37.9553   27.4071   36.6023 H   0  0  0  0  0  0  0  0  0  0  0  0
   37.0456   29.5186   32.8111 H   0  0  0  0  0  0  0  0  0  0  0  0
   38.3046   28.6403   31.0126 H   0  0  0  0  0  0  0  0  0  0  0  0
   37.0503   27.4284   30.6202 H   0  0  0  0  0  0  0  0  0  0  0  0
   35.8017   28.9172   29.5004 H   0  0  0  0  0  0  0  0  0  0  0  0
   37.3209   29.9380   29.5269 H   0  0  0  0  0  0  0  0  0  0  0  0
   36.5570   31.1137   31.4595 H   0  0  0  0  0  0  0  0  0  0  0  0
   35.2993   31.1729   30.1477 H   0  0  0  0  0  0  0  0  0  0  0  0
   34.7290   30.6307   32.7257 H   0  0  0  0  0  0  0  0  0  0  0  0
   33.8024   29.9737   31.3270 H   0  0  0  0  0  0  0  0  0  0  0  0
   34.6777   28.3175   33.2148 H   0  0  0  0  0  0  0  0  0  0  0  0
   34.7962   27.8211   31.5262 H   0  0  0  0  0  0  0  0  0  0  0  0
  1  5  1  0
  1  2  2  0
  2  3  1  0
  4  3  1  0
  5  4  2  0
  6  4  1  0
  6  7  1  0
  8  7  2  0
  9  8  1  0
 10  9  2  0
 10  6  1  0
 11 12  2  0
 12 13  1  0
 12  1  1  0
 14 13  2  0
 15 14  1  0
 16 15  2  0
 16 11  1  0
 17 15  1  0
 18 17  1  0
 19 20  1  0
 19 18  1  0
 20 21  1  0
 21 22  1  0
 22 17  1  0
  2 23  1  0
  7 24  1  0
  8 25  1  0
 10 26  1  0
 11 27  1  0
 13 28  1  0
 17 29  1  0
 18 30  1  0
 18 31  1  0
 19 32  1  0
 19 33  1  0
 20 34  1  0
 20 35  1  0
 21 36  1  0
 21 37  1  0
 22 38  1  0
 22 39  1  0
M  ISO  8  23  14  24  14  25  14  26  14  27  14  28  14  29  13  30  13
M  ISO  8  31  13  32  13  33  13  34  13  35  13  36  13  37  13  38  13
M  ISO  1  39  13
M  END
>  <minimizedAffinity>  (1) 
-5.23777151

>  <minimizedRMSD>  (1) 
0.714087307

$$$$
