
     RDKit          3D

 29 32  0  0  0  0  0  0  0  0999 V2000
   38.3440   24.7670   35.9610 C   0  0  0  0  0  0  0  0  0  0  0  0
   37.5590   24.4270   37.1100 C   0  0  0  0  0  0  0  0  0  0  0  0
   38.5920   23.2490   38.0330 S   0  0  0  0  0  0  0  0  0  0  0  0
   39.9350   23.3990   36.7150 C   0  0  0  0  0  0  0  0  0  0  0  0
   39.4820   24.1280   35.9930 N   0  0  0  0  0  0  0  0  0  0  0  0
   41.2280   22.7240   36.6750 N   0  0  0  0  0  0  0  0  0  0  0  0
   41.3280   21.4150   36.9800 C   0  0  0  0  0  0  0  0  0  0  0  0
   42.6870   21.0840   36.8450 C   0  0  0  0  0  0  0  0  0  0  0  0
   43.3150   22.2270   36.4640 N   0  0  0  0  0  0  0  0  0  0  0  0
   42.4350   23.2440   36.3550 C   0  0  0  0  0  0  0  0  0  0  0  0
   37.6380   25.3020   33.6430 C   0  0  0  0  0  0  0  0  0  0  0  0
   37.8200   25.7130   34.9690 C   0  0  0  0  0  0  0  0  0  0  0  0
   37.4940   27.0200   35.3070 C   0  0  0  0  0  0  0  0  0  0  0  0
   37.0110   27.8350   34.3220 N   0  0  0  0  0  0  0  0  0  0  0  0
   36.8460   27.4120   33.0550 C   0  0  0  0  0  0  0  0  0  0  0  0
   37.1640   26.1430   32.7310 N   0  0  0  0  0  0  0  0  0  0  0  0
   36.3300   28.4500   32.2280 N   0  0  0  0  0  0  0  0  0  0  0  0
   36.9620   28.5280   31.0250 C   0  0  0  0  0  0  0  0  0  0  0  0
   36.4110   29.5370   30.3060 N   0  0  0  0  0  0  0  0  0  0  0  0
   35.4410   30.0670   31.0880 C   0  0  0  0  0  0  0  0  0  0  0  0
   35.4120   29.3900   32.2500 N   0  0  0  0  0  0  0  0  0  0  0  0
   36.5569   24.7956   37.3744 H   0  0  0  0  0  0  0  0  0  0  0  0
   40.5102   20.7412   37.2753 H   0  0  0  0  0  0  0  0  0  0  0  0
   43.1485   20.0998   37.0135 H   0  0  0  0  0  0  0  0  0  0  0  0
   42.6541   24.2824   36.0655 H   0  0  0  0  0  0  0  0  0  0  0  0
   37.8904   24.2712   33.3535 H   0  0  0  0  0  0  0  0  0  0  0  0
   37.6207   27.3879   36.3359 H   0  0  0  0  0  0  0  0  0  0  0  0
   37.7848   27.8789   30.6909 H   0  0  0  0  0  0  0  0  0  0  0  0
   34.7869   30.9093   30.8185 H   0  0  0  0  0  0  0  0  0  0  0  0
  1  5  1  0
  1  2  2  0
  2  3  1  0
  4  3  1  0
  5  4  2  0
  6  4  1  0
  6  7  1  0
  8  7  2  0
  9  8  1  0
 10  9  2  0
 10  6  1  0
 11 12  2  0
 12 13  1  0
 12  1  1  0
 14 13  2  0
 15 14  1  0
 16 15  2  0
 16 11  1  0
 17 21  1  0
 17 15  1  0
 18 17  1  0
 19 18  2  0
 19 20  1  0
 20 21  2  0
  2 22  1  0
  7 23  1  0
  8 24  1  0
 10 25  1  0
 11 26  1  0
 13 27  1  0
 18 28  1  0
 20 29  1  0
M  ISO  8  22  14  23  14  24  14  25  14  26  14  27  14  28  14  29  14
M  END
>  <minimizedAffinity>  (1) 
-5.23184252

>  <minimizedRMSD>  (1) 
0.336048722

$$$$
