
     RDKit          3D

 30 33  0  0  0  0  0  0  0  0999 V2000
   37.6730   25.3770   33.6920 C   0  0  0  0  0  0  0  0  0  0  0  0
   37.8630   25.7230   35.0130 C   0  0  0  0  0  0  0  0  0  0  0  0
   37.5860   27.0430   35.4190 C   0  0  0  0  0  0  0  0  0  0  0  0
   37.1380   27.9150   34.4600 N   0  0  0  0  0  0  0  0  0  0  0  0
   36.9700   27.5150   33.1640 C   0  0  0  0  0  0  0  0  0  0  0  0
   37.2390   26.2600   32.8060 N   0  0  0  0  0  0  0  0  0  0  0  0
   38.3490   24.7460   35.9940 C   0  0  0  0  0  0  0  0  0  0  0  0
   37.5680   24.3520   37.1040 C   0  0  0  0  0  0  0  0  0  0  0  0
   38.5840   23.1550   38.0060 S   0  0  0  0  0  0  0  0  0  0  0  0
   39.9530   23.3620   36.7220 C   0  0  0  0  0  0  0  0  0  0  0  0
   39.5000   24.1080   36.0300 N   0  0  0  0  0  0  0  0  0  0  0  0
   41.2580   22.6980   36.6810 N   0  0  0  0  0  0  0  0  0  0  0  0
   41.3650   21.3750   36.9520 C   0  0  0  0  0  0  0  0  0  0  0  0
   42.7180   21.0540   36.8280 C   0  0  0  0  0  0  0  0  0  0  0  0
   43.3470   22.2120   36.4880 N   0  0  0  0  0  0  0  0  0  0  0  0
   42.4550   23.2160   36.3990 C   0  0  0  0  0  0  0  0  0  0  0  0
   36.4940   28.4470   32.1450 C   0  0  0  0  0  0  0  0  0  0  0  0
   35.8740   29.6830   32.2450 C   0  0  0  0  0  0  0  0  0  0  0  0
   35.6720   30.0650   30.9190 C   0  0  0  0  0  0  0  0  0  0  0  0
   36.1380   29.1250   30.0840 N   0  0  0  0  0  0  0  0  0  0  0  0
   36.6290   28.1600   30.8250 N   0  0  0  0  0  0  0  0  0  0  0  0
   37.8861   24.3476   33.3679 H   0  0  0  0  0  0  0  0  0  0  0  0
   37.7234   27.3615   36.4629 H   0  0  0  0  0  0  0  0  0  0  0  0
   36.5572   24.6989   37.3647 H   0  0  0  0  0  0  0  0  0  0  0  0
   40.5471   20.6890   37.2174 H   0  0  0  0  0  0  0  0  0  0  0  0
   43.1809   20.0671   36.9750 H   0  0  0  0  0  0  0  0  0  0  0  0
   42.6714   24.2636   36.1427 H   0  0  0  0  0  0  0  0  0  0  0  0
   35.6042   30.2342   33.1579 H   0  0  0  0  0  0  0  0  0  0  0  0
   35.1971   31.0054   30.6026 H   0  0  0  0  0  0  0  0  0  0  0  0
   36.1149   29.1549   29.0547 H   0  0  0  0  0  0  0  0  0  0  0  0
  1  2  2  0
  2  3  1  0
  2  7  1  0
  4  3  2  0
  5  4  1  0
  6  5  2  0
  6  1  1  0
  7 11  1  0
  7  8  2  0
  8  9  1  0
 10  9  1  0
 11 10  2  0
 12 10  1  0
 12 13  1  0
 14 13  2  0
 15 14  1  0
 16 15  2  0
 16 12  1  0
 17 18  1  0
 17  5  1  0
 19 18  2  0
 20 21  1  0
 20 19  1  0
 21 17  2  0
  1 22  1  0
  3 23  1  0
  8 24  1  0
 13 25  1  0
 14 26  1  0
 16 27  1  0
 18 28  1  0
 19 29  1  0
 20 30  1  0
M  ISO  8  22  14  23  14  24  14  25  14  26  14  27  14  28  14  29  14
M  ISO  1  30   9
M  END
>  <minimizedAffinity>  (1) 
-5.12903023

>  <minimizedRMSD>  (1) 
0.579658091

$$$$
