
     RDKit          3D

 28 31  0  0  0  0  0  0  0  0999 V2000
   38.3960   24.7300   36.0280 C   0  0  0  0  0  0  0  0  0  0  0  0
   37.6350   24.3890   37.1910 C   0  0  0  0  0  0  0  0  0  0  0  0
   38.6770   23.2180   38.1030 S   0  0  0  0  0  0  0  0  0  0  0  0
   40.0060   23.3610   36.7630 C   0  0  0  0  0  0  0  0  0  0  0  0
   39.5360   24.0840   36.0550 N   0  0  0  0  0  0  0  0  0  0  0  0
   41.3030   22.6880   36.6980 N   0  0  0  0  0  0  0  0  0  0  0  0
   41.4020   21.3710   37.0170 C   0  0  0  0  0  0  0  0  0  0  0  0
   42.7610   21.0510   36.8510 C   0  0  0  0  0  0  0  0  0  0  0  0
   43.3780   22.1710   36.4520 N   0  0  0  0  0  0  0  0  0  0  0  0
   42.4930   23.1890   36.3530 C   0  0  0  0  0  0  0  0  0  0  0  0
   37.6720   25.2710   33.7170 C   0  0  0  0  0  0  0  0  0  0  0  0
   37.8670   25.6670   35.0400 C   0  0  0  0  0  0  0  0  0  0  0  0
   37.5430   26.9770   35.3840 C   0  0  0  0  0  0  0  0  0  0  0  0
   37.0550   27.8020   34.4210 N   0  0  0  0  0  0  0  0  0  0  0  0
   36.8790   27.3850   33.1500 C   0  0  0  0  0  0  0  0  0  0  0  0
   37.1940   26.1120   32.8170 N   0  0  0  0  0  0  0  0  0  0  0  0
   36.3460   28.4110   32.2590 C   0  0  0  0  0  0  0  0  0  0  0  0
   35.1370   29.0400   32.1740 N   0  0  0  0  0  0  0  0  0  0  0  0
   35.1700   29.8910   31.1890 O   0  0  0  0  0  0  0  0  0  0  0  0
   36.3610   29.8410   30.6250 C   0  0  0  0  0  0  0  0  0  0  0  0
   37.1170   28.9310   31.2660 N   0  0  0  0  0  0  0  0  0  0  0  0
   36.6367   24.7567   37.4705 H   0  0  0  0  0  0  0  0  0  0  0  0
   40.5921   20.6988   37.3368 H   0  0  0  0  0  0  0  0  0  0  0  0
   43.2281   20.0690   37.0170 H   0  0  0  0  0  0  0  0  0  0  0  0
   42.7096   24.2237   36.0489 H   0  0  0  0  0  0  0  0  0  0  0  0
   37.9202   24.2419   33.4180 H   0  0  0  0  0  0  0  0  0  0  0  0
   37.6794   27.3366   36.4146 H   0  0  0  0  0  0  0  0  0  0  0  0
   36.6851   30.4473   29.7663 H   0  0  0  0  0  0  0  0  0  0  0  0
  1  5  1  0
  1  2  2  0
  2  3  1  0
  4  3  1  0
  5  4  2  0
  6  4  1  0
  6  7  1  0
  8  7  2  0
  9  8  1  0
 10  9  2  0
 10  6  1  0
 11 12  2  0
 12 13  1  0
 12  1  1  0
 14 13  2  0
 15 14  1  0
 16 15  2  0
 16 11  1  0
 17 15  1  0
 18 17  2  0
 19 18  1  0
 20 19  1  0
 20 21  2  0
 21 17  1  0
  2 22  1  0
  7 23  1  0
  8 24  1  0
 10 25  1  0
 11 26  1  0
 13 27  1  0
 20 28  1  0
M  ISO  7  22  14  23  14  24  14  25  14  26  14  27  14  28  14
M  END
>  <minimizedAffinity>  (1) 
-5.00652885

>  <minimizedRMSD>  (1) 
0.776872694

$$$$
