
     RDKit          3D

 29 32  0  0  0  0  0  0  0  0999 V2000
   38.4530   24.7470   36.1230 C   0  0  0  0  0  0  0  0  0  0  0  0
   37.6980   24.3650   37.2820 C   0  0  0  0  0  0  0  0  0  0  0  0
   38.7360   23.1570   38.1500 S   0  0  0  0  0  0  0  0  0  0  0  0
   40.0530   23.3480   36.8050 C   0  0  0  0  0  0  0  0  0  0  0  0
   39.5880   24.0990   36.1170 N   0  0  0  0  0  0  0  0  0  0  0  0
   41.3520   22.6650   36.7150 N   0  0  0  0  0  0  0  0  0  0  0  0
   41.4520   21.3370   36.9760 C   0  0  0  0  0  0  0  0  0  0  0  0
   42.7900   21.0050   36.8050 C   0  0  0  0  0  0  0  0  0  0  0  0
   43.4200   22.1570   36.4480 N   0  0  0  0  0  0  0  0  0  0  0  0
   42.5430   23.1720   36.3930 C   0  0  0  0  0  0  0  0  0  0  0  0
   37.6480   25.3350   33.8580 C   0  0  0  0  0  0  0  0  0  0  0  0
   37.9210   25.7200   35.1760 C   0  0  0  0  0  0  0  0  0  0  0  0
   37.6760   27.0360   35.5550 C   0  0  0  0  0  0  0  0  0  0  0  0
   37.1770   27.8880   34.6060 N   0  0  0  0  0  0  0  0  0  0  0  0
   36.9240   27.4900   33.3450 C   0  0  0  0  0  0  0  0  0  0  0  0
   37.1630   26.2140   32.9820 N   0  0  0  0  0  0  0  0  0  0  0  0
   36.3870   28.5510   32.4610 C   0  0  0  0  0  0  0  0  0  0  0  0
   35.2750   29.4650   32.7370 C   0  0  0  0  0  0  0  0  0  0  0  0
   35.2570   30.4250   31.1900 S   0  0  0  0  0  0  0  0  0  0  0  0
   36.7150   29.4570   30.4470 C   0  0  0  0  0  0  0  0  0  0  0  0
   37.0430   28.6160   31.3070 N   0  0  0  0  0  0  0  0  0  0  0  0
   36.7030   24.7271   37.5801 H   0  0  0  0  0  0  0  0  0  0  0  0
   40.6360   20.6585   37.2654 H   0  0  0  0  0  0  0  0  0  0  0  0
   43.2472   20.0127   36.9323 H   0  0  0  0  0  0  0  0  0  0  0  0
   42.7636   24.2178   36.1331 H   0  0  0  0  0  0  0  0  0  0  0  0
   37.8355   24.2979   33.5429 H   0  0  0  0  0  0  0  0  0  0  0  0
   37.8760   27.3800   36.5805 H   0  0  0  0  0  0  0  0  0  0  0  0
   34.6332   29.5476   33.6266 H   0  0  0  0  0  0  0  0  0  0  0  0
   37.1754   29.6082   29.4595 H   0  0  0  0  0  0  0  0  0  0  0  0
  1  2  2  0
  2  3  1  0
  4  3  1  0
  5  1  1  0
  5  4  2  0
  6  4  1  0
  6  7  1  0
  8  7  2  0
  9  8  1  0
 10  9  2  0
 10  6  1  0
 11 12  2  0
 12 13  1  0
 12  1  1  0
 14 13  2  0
 15 14  1  0
 16 15  2  0
 16 11  1  0
 17 18  2  0
 17 15  1  0
 19 18  1  0
 20 19  1  0
 20 21  2  0
 21 17  1  0
  2 22  1  0
  7 23  1  0
  8 24  1  0
 10 25  1  0
 11 26  1  0
 13 27  1  0
 18 28  1  0
 20 29  1  0
M  ISO  8  22  14  23  14  24  14  25  14  26  14  27  14  28  14  29  14
M  END
>  <minimizedAffinity>  (1) 
-4.89562654

>  <minimizedRMSD>  (1) 
0.578415334

$$$$
