
     RDKit          3D

 32 34  0  0  0  0  0  0  0  0999 V2000
   38.2900   24.7120   35.8500 C   0  0  0  0  0  0  0  0  0  0  0  0
   37.5300   24.4410   37.0320 C   0  0  0  0  0  0  0  0  0  0  0  0
   38.5730   23.3410   38.0200 S   0  0  0  0  0  0  0  0  0  0  0  0
   39.9070   23.4110   36.6640 C   0  0  0  0  0  0  0  0  0  0  0  0
   39.4330   24.0830   35.9100 N   0  0  0  0  0  0  0  0  0  0  0  0
   41.2050   22.7430   36.6500 N   0  0  0  0  0  0  0  0  0  0  0  0
   41.3200   21.4550   37.0610 C   0  0  0  0  0  0  0  0  0  0  0  0
   42.6720   21.1300   36.9220 C   0  0  0  0  0  0  0  0  0  0  0  0
   43.2800   22.2260   36.4410 N   0  0  0  0  0  0  0  0  0  0  0  0
   42.3910   23.2240   36.2700 C   0  0  0  0  0  0  0  0  0  0  0  0
   37.6800   25.1490   33.4930 C   0  0  0  0  0  0  0  0  0  0  0  0
   37.7500   25.5790   34.8110 C   0  0  0  0  0  0  0  0  0  0  0  0
   37.2820   26.8680   35.0930 C   0  0  0  0  0  0  0  0  0  0  0  0
   36.7880   27.6350   34.0880 N   0  0  0  0  0  0  0  0  0  0  0  0
   36.7440   27.1650   32.8110 C   0  0  0  0  0  0  0  0  0  0  0  0
   37.1880   25.9380   32.5410 N   0  0  0  0  0  0  0  0  0  0  0  0
   36.1980   28.0180   31.7110 C   0  0  0  0  0  0  0  0  0  0  0  0
   36.0580   29.4560   32.1650 C   0  0  0  0  0  0  0  0  0  0  0  0
   37.0140   27.8750   30.4550 C   0  0  0  0  0  0  0  0  0  0  0  0
   36.5286   24.8195   37.2851 H   0  0  0  0  0  0  0  0  0  0  0  0
   40.5149   20.8014   37.4280 H   0  0  0  0  0  0  0  0  0  0  0  0
   43.1450   20.1658   37.1599 H   0  0  0  0  0  0  0  0  0  0  0  0
   42.6010   24.2354   35.8919 H   0  0  0  0  0  0  0  0  0  0  0  0
   38.0363   24.1416   33.2318 H   0  0  0  0  0  0  0  0  0  0  0  0
   37.3144   27.2564   36.1216 H   0  0  0  0  0  0  0  0  0  0  0  0
   35.1862   27.6655   31.4619 H   0  0  0  0  0  0  0  0  0  0  0  0
   36.0542   29.4947   33.2643 H   0  0  0  0  0  0  0  0  0  0  0  0
   36.9030   30.0459   31.7802 H   0  0  0  0  0  0  0  0  0  0  0  0
   35.1151   29.8718   31.7802 H   0  0  0  0  0  0  0  0  0  0  0  0
   38.0656   27.6907   30.7199 H   0  0  0  0  0  0  0  0  0  0  0  0
   36.6315   27.0302   29.8634 H   0  0  0  0  0  0  0  0  0  0  0  0
   36.9415   28.7995   29.8634 H   0  0  0  0  0  0  0  0  0  0  0  0
  1  5  1  0
  1  2  2  0
  2  3  1  0
  4  3  1  0
  5  4  2  0
  6  4  1  0
  6  7  1  0
  8  7  2  0
  9  8  1  0
 10  9  2  0
 10  6  1  0
 11 12  2  0
 12 13  1  0
 12  1  1  0
 14 13  2  0
 15 14  1  0
 16 15  2  0
 16 11  1  0
 17 18  1  0
 17 15  1  0
 19 17  1  0
  2 20  1  0
  7 21  1  0
  8 22  1  0
 10 23  1  0
 11 24  1  0
 13 25  1  0
 17 26  1  0
 18 27  1  0
 18 28  1  0
 18 29  1  0
 19 30  1  0
 19 31  1  0
 19 32  1  0
M  ISO  8  20  14  21  14  22  14  23  14  24  14  25  14  26   8  27   8
M  ISO  5  28   8  29   8  30   8  31   8  32   8
M  END
>  <minimizedAffinity>  (1) 
-4.72367573

>  <minimizedRMSD>  (1) 
0.227360889

$$$$
