
     RDKit          3D

 24 26  0  0  0  0  0  0  0  0999 V2000
   38.3000   24.7020   35.8700 C   0  0  0  0  0  0  0  0  0  0  0  0
   37.5350   24.4460   37.0520 C   0  0  0  0  0  0  0  0  0  0  0  0
   38.5670   23.3420   38.0590 S   0  0  0  0  0  0  0  0  0  0  0  0
   39.9000   23.3910   36.7120 C   0  0  0  0  0  0  0  0  0  0  0  0
   39.4380   24.0640   35.9420 N   0  0  0  0  0  0  0  0  0  0  0  0
   41.1920   22.7150   36.7010 N   0  0  0  0  0  0  0  0  0  0  0  0
   41.3050   21.4260   37.1090 C   0  0  0  0  0  0  0  0  0  0  0  0
   42.6450   21.0760   36.9820 C   0  0  0  0  0  0  0  0  0  0  0  0
   43.2650   22.1750   36.5040 N   0  0  0  0  0  0  0  0  0  0  0  0
   42.3840   23.1870   36.3280 C   0  0  0  0  0  0  0  0  0  0  0  0
   37.7200   25.1250   33.5080 C   0  0  0  0  0  0  0  0  0  0  0  0
   37.7730   25.5600   34.8280 C   0  0  0  0  0  0  0  0  0  0  0  0
   37.3000   26.8410   35.0850 C   0  0  0  0  0  0  0  0  0  0  0  0
   36.8160   27.5980   34.0620 N   0  0  0  0  0  0  0  0  0  0  0  0
   36.7840   27.1310   32.7980 C   0  0  0  0  0  0  0  0  0  0  0  0
   37.2430   25.8870   32.5330 N   0  0  0  0  0  0  0  0  0  0  0  0
   36.1020   28.3240   31.6560 S   0  0  0  0  0  0  0  0  0  0  0  0
   36.5358   24.8347   37.2979 H   0  0  0  0  0  0  0  0  0  0  0  0
   40.4914   20.7804   37.4714 H   0  0  0  0  0  0  0  0  0  0  0  0
   43.1039   20.1054   37.2214 H   0  0  0  0  0  0  0  0  0  0  0  0
   42.6057   24.1969   35.9526 H   0  0  0  0  0  0  0  0  0  0  0  0
   38.0855   24.1164   33.2649 H   0  0  0  0  0  0  0  0  0  0  0  0
   37.3165   27.2414   36.1094 H   0  0  0  0  0  0  0  0  0  0  0  0
   35.5180   29.3456   32.3575 H   0  0  0  0  0  0  0  0  0  0  0  0
  1  5  1  0
  1  2  2  0
  2  3  1  0
  4  3  1  0
  5  4  2  0
  6  4  1  0
  6  7  1  0
  8  7  2  0
  9  8  1  0
 10  9  2  0
 10  6  1  0
 11 12  2  0
 12 13  1  0
 12  1  1  0
 14 13  2  0
 15 14  1  0
 16 15  2  0
 16 11  1  0
 17 15  1  0
  2 18  1  0
  7 19  1  0
  8 20  1  0
 10 21  1  0
 11 22  1  0
 13 23  1  0
 17 24  1  0
M  ISO  7  18  14  19  14  20  14  21  14  22  14  23  14  24  11
M  END
>  <minimizedAffinity>  (1) 
-4.40936518

>  <minimizedRMSD>  (1) 
0.00765828509

$$$$
