
     RDKit          3D

 29 31  0  0  0  0  0  0  0  0999 V2000
   38.2860   24.6960   35.8600 C   0  0  0  0  0  0  0  0  0  0  0  0
   37.5350   24.4420   37.0510 C   0  0  0  0  0  0  0  0  0  0  0  0
   38.5770   23.3470   38.0510 S   0  0  0  0  0  0  0  0  0  0  0  0
   39.9040   23.3920   36.6880 C   0  0  0  0  0  0  0  0  0  0  0  0
   39.4360   24.0590   35.9180 N   0  0  0  0  0  0  0  0  0  0  0  0
   41.1980   22.7120   36.6850 N   0  0  0  0  0  0  0  0  0  0  0  0
   41.3030   21.4310   37.0990 C   0  0  0  0  0  0  0  0  0  0  0  0
   42.6580   21.0920   36.9690 C   0  0  0  0  0  0  0  0  0  0  0  0
   43.2770   22.1890   36.4880 N   0  0  0  0  0  0  0  0  0  0  0  0
   42.3910   23.2000   36.3060 C   0  0  0  0  0  0  0  0  0  0  0  0
   37.7040   25.1220   33.4910 C   0  0  0  0  0  0  0  0  0  0  0  0
   37.7600   25.5510   34.8020 C   0  0  0  0  0  0  0  0  0  0  0  0
   37.2940   26.8310   35.0770 C   0  0  0  0  0  0  0  0  0  0  0  0
   36.8090   27.6030   34.0670 N   0  0  0  0  0  0  0  0  0  0  0  0
   36.7790   27.1280   32.7910 C   0  0  0  0  0  0  0  0  0  0  0  0
   37.2290   25.8910   32.5270 N   0  0  0  0  0  0  0  0  0  0  0  0
   36.2640   27.9120   31.6370 C   0  0  0  0  0  0  0  0  0  0  0  0
   36.1740   29.3940   32.0050 C   0  0  0  0  0  0  0  0  0  0  0  0
   36.5373   24.8290   37.3056 H   0  0  0  0  0  0  0  0  0  0  0  0
   40.4911   20.7847   37.4640 H   0  0  0  0  0  0  0  0  0  0  0  0
   43.1226   20.1247   37.2110 H   0  0  0  0  0  0  0  0  0  0  0  0
   42.6050   24.2101   35.9267 H   0  0  0  0  0  0  0  0  0  0  0  0
   38.0645   24.1130   33.2422 H   0  0  0  0  0  0  0  0  0  0  0  0
   37.3171   27.2182   36.1063 H   0  0  0  0  0  0  0  0  0  0  0  0
   35.2640   27.5437   31.3645 H   0  0  0  0  0  0  0  0  0  0  0  0
   36.9516   27.7939   30.7866 H   0  0  0  0  0  0  0  0  0  0  0  0
   36.1676   29.5002   33.0998 H   0  0  0  0  0  0  0  0  0  0  0  0
   37.0414   29.9282   31.5899 H   0  0  0  0  0  0  0  0  0  0  0  0
   35.2484   29.8193   31.5899 H   0  0  0  0  0  0  0  0  0  0  0  0
  1  5  1  0
  1  2  2  0
  2  3  1  0
  4  3  1  0
  5  4  2  0
  6  4  1  0
  6  7  1  0
  8  7  2  0
  9  8  1  0
 10  9  2  0
 10  6  1  0
 11 12  2  0
 12 13  1  0
 12  1  1  0
 14 13  2  0
 15 14  1  0
 16 15  2  0
 16 11  1  0
 17 18  1  0
 17 15  1  0
  2 19  1  0
  7 20  1  0
  8 21  1  0
 10 22  1  0
 11 23  1  0
 13 24  1  0
 17 25  1  0
 17 26  1  0
 18 27  1  0
 18 28  1  0
 18 29  1  0
M  ISO  8  19  14  20  14  21  14  22  14  23  14  24  14  25   8  26   8
M  ISO  3  27   8  28   8  29   8
M  END
>  <minimizedAffinity>  (1) 
-4.47845364

>  <minimizedRMSD>  (1) 
0.16971837

$$$$
