
     RDKit          3D

 24 26  0  0  0  0  0  0  0  0999 V2000
   38.2880   24.6970   35.8590 C   0  0  0  0  0  0  0  0  0  0  0  0
   37.5390   24.4420   37.0520 C   0  0  0  0  0  0  0  0  0  0  0  0
   38.5850   23.3430   38.0480 S   0  0  0  0  0  0  0  0  0  0  0  0
   39.9120   23.3900   36.6820 C   0  0  0  0  0  0  0  0  0  0  0  0
   39.4260   24.0560   35.9330 N   0  0  0  0  0  0  0  0  0  0  0  0
   41.2030   22.7080   36.6790 N   0  0  0  0  0  0  0  0  0  0  0  0
   41.3140   21.4300   37.0930 C   0  0  0  0  0  0  0  0  0  0  0  0
   42.6700   21.1040   36.9580 C   0  0  0  0  0  0  0  0  0  0  0  0
   43.2830   22.1970   36.4760 N   0  0  0  0  0  0  0  0  0  0  0  0
   42.3880   23.2010   36.2970 C   0  0  0  0  0  0  0  0  0  0  0  0
   37.7060   25.1160   33.4980 C   0  0  0  0  0  0  0  0  0  0  0  0
   37.7610   25.5500   34.8120 C   0  0  0  0  0  0  0  0  0  0  0  0
   37.2920   26.8300   35.0800 C   0  0  0  0  0  0  0  0  0  0  0  0
   36.8060   27.5930   34.0610 N   0  0  0  0  0  0  0  0  0  0  0  0
   36.7700   27.1320   32.7950 C   0  0  0  0  0  0  0  0  0  0  0  0
   37.2240   25.8900   32.5300 N   0  0  0  0  0  0  0  0  0  0  0  0
   36.2590   27.9730   31.8140 O   0  0  0  0  0  0  0  0  0  0  0  0
   36.5423   24.8294   37.3100 H   0  0  0  0  0  0  0  0  0  0  0  0
   40.5076   20.7784   37.4605 H   0  0  0  0  0  0  0  0  0  0  0  0
   43.1409   20.1398   37.1999 H   0  0  0  0  0  0  0  0  0  0  0  0
   42.5936   24.2123   35.9163 H   0  0  0  0  0  0  0  0  0  0  0  0
   38.0693   24.1080   33.2493 H   0  0  0  0  0  0  0  0  0  0  0  0
   37.3128   27.2244   36.1067 H   0  0  0  0  0  0  0  0  0  0  0  0
   36.2171   27.6679   30.8731 H   0  0  0  0  0  0  0  0  0  0  0  0
  1  5  1  0
  1  2  2  0
  2  3  1  0
  4  3  1  0
  5  4  2  0
  6  4  1  0
  6  7  1  0
  8  7  2  0
  9  8  1  0
 10  9  2  0
 10  6  1  0
 11 12  2  0
 12 13  1  0
 12  1  1  0
 14 13  2  0
 15 14  1  0
 16 15  2  0
 16 11  1  0
 17 15  1  0
  2 18  1  0
  7 19  1  0
  8 20  1  0
 10 21  1  0
 11 22  1  0
 13 23  1  0
 17 24  1  0
M  ISO  7  18  14  19  14  20  14  21  14  22  14  23  14  24   3
M  END
>  <minimizedAffinity>  (1) 
-4.35326004

>  <minimizedRMSD>  (1) 
0.018681705

$$$$
