
     RDKit          3D

 25 27  0  0  0  0  0  0  0  0999 V2000
   38.2700   24.6970   35.8760 C   0  0  0  0  0  0  0  0  0  0  0  0
   37.5330   24.4370   37.0510 C   0  0  0  0  0  0  0  0  0  0  0  0
   38.5820   23.3400   38.0430 S   0  0  0  0  0  0  0  0  0  0  0  0
   39.9080   23.3940   36.6800 C   0  0  0  0  0  0  0  0  0  0  0  0
   39.4240   24.0630   35.9270 N   0  0  0  0  0  0  0  0  0  0  0  0
   41.2040   22.7190   36.6700 N   0  0  0  0  0  0  0  0  0  0  0  0
   41.3160   21.4430   37.0890 C   0  0  0  0  0  0  0  0  0  0  0  0
   42.6710   21.1080   36.9510 C   0  0  0  0  0  0  0  0  0  0  0  0
   43.2830   22.2120   36.4560 N   0  0  0  0  0  0  0  0  0  0  0  0
   42.3860   23.2030   36.2820 C   0  0  0  0  0  0  0  0  0  0  0  0
   37.6940   25.1250   33.4990 C   0  0  0  0  0  0  0  0  0  0  0  0
   37.7470   25.5570   34.8100 C   0  0  0  0  0  0  0  0  0  0  0  0
   37.2880   26.8400   35.0950 C   0  0  0  0  0  0  0  0  0  0  0  0
   36.8090   27.6080   34.0750 N   0  0  0  0  0  0  0  0  0  0  0  0
   36.7800   27.1290   32.7970 C   0  0  0  0  0  0  0  0  0  0  0  0
   37.2210   25.8990   32.5320 N   0  0  0  0  0  0  0  0  0  0  0  0
   36.2770   27.9140   31.6740 C   0  0  0  0  0  0  0  0  0  0  0  0
   36.2920   27.5010   30.4850 O   0  0  0  0  0  0  0  0  0  0  0  0
   36.5344   24.8187   37.3101 H   0  0  0  0  0  0  0  0  0  0  0  0
   40.5090   20.7959   37.4631 H   0  0  0  0  0  0  0  0  0  0  0  0
   43.1420   20.1444   37.1950 H   0  0  0  0  0  0  0  0  0  0  0  0
   42.5884   24.2129   35.8958 H   0  0  0  0  0  0  0  0  0  0  0  0
   38.0527   24.1150   33.2515 H   0  0  0  0  0  0  0  0  0  0  0  0
   37.3113   27.2273   36.1243 H   0  0  0  0  0  0  0  0  0  0  0  0
   35.8653   28.9138   31.8763 H   0  0  0  0  0  0  0  0  0  0  0  0
  1  5  1  0
  1  2  2  0
  2  3  1  0
  4  3  1  0
  5  4  2  0
  6  4  1  0
  6  7  1  0
  8  7  2  0
  9  8  1  0
 10  9  2  0
 10  6  1  0
 11 12  2  0
 12 13  1  0
 12  1  1  0
 14 13  2  0
 15 14  1  0
 16 15  2  0
 16 11  1  0
 17 15  1  0
 18 17  2  0
  2 19  1  0
  7 20  1  0
  8 21  1  0
 10 22  1  0
 11 23  1  0
 13 24  1  0
 17 25  1  0
M  ISO  7  19  14  20  14  21  14  22  14  23  14  24  14  25   6
M  END
>  <minimizedAffinity>  (1) 
-4.42207098

>  <minimizedRMSD>  (1) 
0.0715670511

$$$$
