
     RDKit          3D

 21 22  0  0  0  0  0  0  0  0999 V2000
   39.8850   22.6330   37.2260 C   0  0  0  0  0  0  0  0  0  0  0  0
   39.2470   23.3350   38.2600 C   0  0  0  0  0  0  0  0  0  0  0  0
   37.8620   23.4890   38.2080 C   0  0  0  0  0  0  0  0  0  0  0  0
   37.1960   22.9470   37.1480 N   0  0  0  0  0  0  0  0  0  0  0  0
   37.8400   22.2780   36.1680 C   0  0  0  0  0  0  0  0  0  0  0  0
   39.1790   22.1220   36.2090 N   0  0  0  0  0  0  0  0  0  0  0  0
   37.1360   21.7140   35.0610 N   0  0  0  0  0  0  0  0  0  0  0  0
   37.6900   21.9540   33.8690 C   0  0  0  0  0  0  0  0  0  0  0  0
   37.0670   21.4410   32.7480 C   0  0  0  0  0  0  0  0  0  0  0  0
   35.9160   20.7200   32.9710 C   0  0  0  0  0  0  0  0  0  0  0  0
   35.1750   20.1370   31.9100 N   0  0  0  0  0  0  0  0  0  0  0  0
   35.3870   20.4990   34.1900 N   0  0  0  0  0  0  0  0  0  0  0  0
   36.0100   21.0090   35.2790 C   0  0  0  0  0  0  0  0  0  0  0  0
   35.6100   20.8660   36.4570 O   0  0  0  0  0  0  0  0  0  0  0  0
   40.9768   22.5009   37.2510 H   0  0  0  0  0  0  0  0  0  0  0  0
   39.8275   23.7552   39.0945 H   0  0  0  0  0  0  0  0  0  0  0  0
   37.3225   24.0315   38.9983 H   0  0  0  0  0  0  0  0  0  0  0  0
   38.6151   22.5429   33.7829 H   0  0  0  0  0  0  0  0  0  0  0  0
   37.4675   21.5995   31.7358 H   0  0  0  0  0  0  0  0  0  0  0  0
   34.3176   19.6035   32.1130 H   0  0  0  0  0  0  0  0  0  0  0  0
   35.4947   20.2474   30.9371 H   0  0  0  0  0  0  0  0  0  0  0  0
  1  2  2  0
  3  2  1  0
  4  3  2  0
  5  6  2  0
  5  4  1  0
  6  1  1  0
  7 13  1  0
  7  5  1  0
  8  7  1  0
  9 10  1  0
  9  8  2  0
 10 12  2  0
 11 10  1  0
 12 13  1  0
 13 14  2  0
  1 15  1  0
  2 16  1  0
  3 17  1  0
  8 18  1  0
  9 19  1  0
 11 20  1  0
 11 21  1  0
M  ISO  5  15  14  16  14  17  14  18  14  19  14
M  END
>  <minimizedAffinity>  (1) 
-4.63920593

>  <minimizedRMSD>  (1) 
1.58998954

$$$$
