
     RDKit          3D

 42 46  0  0  1  0  0  0  0  0999 V2000
   37.6860   24.9970   33.7330 C   0  0  0  0  0  0  0  0  0  0  0  0
   37.8210   25.4700   35.0250 C   0  0  0  0  0  0  0  0  0  0  0  0
   37.4010   26.7770   35.3090 C   0  0  0  0  0  0  0  0  0  0  0  0
   36.8760   27.5160   34.2830 N   0  0  0  0  0  0  0  0  0  0  0  0
   36.7660   27.0110   33.0450 C   0  0  0  0  0  0  0  0  0  0  0  0
   37.1670   25.7680   32.7760 N   0  0  0  0  0  0  0  0  0  0  0  0
   36.2060   27.8660   32.0490 N   0  0  0  0  0  0  0  0  0  0  0  0
   35.2300   28.9040   32.2840 C   0  0  0  0  0  0  0  0  0  0  0  0
   35.7340   29.9920   31.3450 C   0  0  0  0  0  0  0  0  0  0  0  0
   36.7680   29.3690   30.4530 C   0  0  0  0  0  0  0  0  0  0  0  0
   36.4870   27.8800   30.6190 C   0  0  1  0  0  0  0  0  0  0  0  0
   38.3940   24.6130   36.0700 C   0  0  0  0  0  0  0  0  0  0  0  0
   37.7080   24.4040   37.2970 C   0  0  0  0  0  0  0  0  0  0  0  0
   38.7770   23.2990   38.2560 S   0  0  0  0  0  0  0  0  0  0  0  0
   40.0270   23.2810   36.8180 C   0  0  0  0  0  0  0  0  0  0  0  0
   39.5200   23.9470   36.0780 N   0  0  0  0  0  0  0  0  0  0  0  0
   41.2900   22.5660   36.7620 N   0  0  0  0  0  0  0  0  0  0  0  0
   41.4090   21.3140   37.1970 C   0  0  0  0  0  0  0  0  0  0  0  0
   42.7430   20.9240   37.0020 C   0  0  0  0  0  0  0  0  0  0  0  0
   43.3530   21.9990   36.4480 N   0  0  0  0  0  0  0  0  0  0  0  0
   42.4770   23.0080   36.2970 C   0  0  0  0  0  0  0  0  0  0  0  0
   37.7870   27.1900   30.4250 C   0  0  0  0  0  0  0  0  0  0  0  0
   38.9640   27.9070   30.6740 C   0  0  0  0  0  0  0  0  0  0  0  0
   40.0130   27.0760   30.4310 N   0  0  0  0  0  0  0  0  0  0  0  0
   39.4680   25.8970   30.0470 C   0  0  0  0  0  0  0  0  0  0  0  0
   38.1300   25.9680   30.0450 N   0  0  0  0  0  0  0  0  0  0  0  0
   38.0100   23.9739   33.4915 H   0  0  0  0  0  0  0  0  0  0  0  0
   37.4903   27.1949   36.3226 H   0  0  0  0  0  0  0  0  0  0  0  0
   34.2160   28.5743   32.0135 H   0  0  0  0  0  0  0  0  0  0  0  0
   35.1428   29.2159   33.3352 H   0  0  0  0  0  0  0  0  0  0  0  0
   34.9020   30.3827   30.7408 H   0  0  0  0  0  0  0  0  0  0  0  0
   36.1646   30.8288   31.9145 H   0  0  0  0  0  0  0  0  0  0  0  0
   37.7855   29.6217   30.7859 H   0  0  0  0  0  0  0  0  0  0  0  0
   36.7143   29.7134   29.4097 H   0  0  0  0  0  0  0  0  0  0  0  0
   35.7219   27.4368   29.9647 H   0  0  0  0  0  0  0  0  0  0  0  0
   36.7369   24.8229   37.5995 H   0  0  0  0  0  0  0  0  0  0  0  0
   40.6079   20.6972   37.6304 H   0  0  0  0  0  0  0  0  0  0  0  0
   43.1966   19.9523   37.2469 H   0  0  0  0  0  0  0  0  0  0  0  0
   42.6875   24.0020   35.8756 H   0  0  0  0  0  0  0  0  0  0  0  0
   39.0285   28.9536   31.0062 H   0  0  0  0  0  0  0  0  0  0  0  0
   40.0459   25.0019   29.7736 H   0  0  0  0  0  0  0  0  0  0  0  0
   37.4828   25.2074   29.7928 H   0  0  0  0  0  0  0  0  0  0  0  0
  1  2  2  0
  2  3  1  0
  2 12  1  0
  4  3  2  0
  5  4  1  0
  6  5  2  0
  6  1  1  0
  7  8  1  0
  7  5  1  0
  9  8  1  0
 10 11  1  0
 10  9  1  0
 11  7  1  0
 12 16  1  0
 12 13  2  0
 13 14  1  0
 15 14  1  0
 16 15  2  0
 17 15  1  0
 17 18  1  0
 19 18  2  0
 20 19  1  0
 21 20  2  0
 21 17  1  0
 22 11  1  0
 22 23  2  0
 24 23  1  0
 25 24  2  0
 26 25  1  0
 26 22  1  0
  1 27  1  0
  3 28  1  0
  8 29  1  0
  8 30  1  0
  9 31  1  0
  9 32  1  0
 10 33  1  0
 10 34  1  0
 11 35  1  6
 13 36  1  0
 18 37  1  0
 19 38  1  0
 21 39  1  0
 23 40  1  0
 25 41  1  0
 26 42  1  0
M  ISO  8  27  14  28  14  29  13  30  13  31  13  32  13  33  13  34  13
M  ISO  8  35  13  36  14  37  14  38  14  39  14  40  14  41  14  42   9
M  END
>  <minimizedAffinity>  (1) 
-6.11868954

>  <minimizedRMSD>  (1) 
0.247191563

$$$$
