
     RDKit          3D

 37 40  0  0  1  0  0  0  0  0999 V2000
   38.2790   25.2860   33.5490 C   0  0  0  0  0  0  0  0  0  0  0  0
   37.9690   25.5470   34.8750 C   0  0  0  0  0  0  0  0  0  0  0  0
   37.1900   26.6610   35.1780 C   0  0  0  0  0  0  0  0  0  0  0  0
   36.7670   27.4490   34.1380 N   0  0  0  0  0  0  0  0  0  0  0  0
   37.0930   27.1570   32.8570 C   0  0  0  0  0  0  0  0  0  0  0  0
   37.8350   26.0940   32.5720 N   0  0  0  0  0  0  0  0  0  0  0  0
   36.6010   28.0400   31.8520 N   0  0  0  0  0  0  0  0  0  0  0  0
   35.3530   28.7590   31.9140 C   0  0  0  0  0  0  0  0  0  0  0  0
   35.7760   30.1100   31.3270 C   0  0  0  0  0  0  0  0  0  0  0  0
   37.1340   29.9170   30.6970 C   0  0  0  0  0  0  0  0  0  0  0  0
   37.2160   28.4060   30.5900 C   0  0  2  0  0  0  0  0  0  0  0  0
   38.4530   24.6660   35.9420 C   0  0  0  0  0  0  0  0  0  0  0  0
   37.7070   24.4450   37.1150 C   0  0  0  0  0  0  0  0  0  0  0  0
   38.6990   23.3050   38.1110 S   0  0  0  0  0  0  0  0  0  0  0  0
   40.0270   23.2880   36.7580 C   0  0  0  0  0  0  0  0  0  0  0  0
   39.5670   23.9750   36.0120 N   0  0  0  0  0  0  0  0  0  0  0  0
   41.2720   22.5520   36.7720 N   0  0  0  0  0  0  0  0  0  0  0  0
   41.3610   21.2940   37.1940 C   0  0  0  0  0  0  0  0  0  0  0  0
   42.6980   20.8980   37.0710 C   0  0  0  0  0  0  0  0  0  0  0  0
   43.3500   21.9620   36.5720 N   0  0  0  0  0  0  0  0  0  0  0  0
   42.4930   22.9810   36.3820 C   0  0  0  0  0  0  0  0  0  0  0  0
   36.5480   27.8930   29.4360 N   0  0  0  0  0  0  0  0  0  0  0  0
   38.8937   24.4099   33.2949 H   0  0  0  0  0  0  0  0  0  0  0  0
   36.9226   26.9011   36.2176 H   0  0  0  0  0  0  0  0  0  0  0  0
   34.5761   28.2765   31.3027 H   0  0  0  0  0  0  0  0  0  0  0  0
   34.9076   28.8161   32.9182 H   0  0  0  0  0  0  0  0  0  0  0  0
   35.0504   30.4344   30.5666 H   0  0  0  0  0  0  0  0  0  0  0  0
   35.8148   30.8813   32.1103 H   0  0  0  0  0  0  0  0  0  0  0  0
   37.1868   30.3919   29.7062 H   0  0  0  0  0  0  0  0  0  0  0  0
   37.9581   30.3679   31.2693 H   0  0  0  0  0  0  0  0  0  0  0  0
   38.2264   27.9949   30.4482 H   0  0  0  0  0  0  0  0  0  0  0  0
   36.7276   24.8746   37.3721 H   0  0  0  0  0  0  0  0  0  0  0  0
   40.5331   20.6760   37.5717 H   0  0  0  0  0  0  0  0  0  0  0  0
   43.1264   19.9184   37.3294 H   0  0  0  0  0  0  0  0  0  0  0  0
   42.7394   23.9764   35.9840 H   0  0  0  0  0  0  0  0  0  0  0  0
   35.7654   27.2920   29.7312 H   0  0  0  0  0  0  0  0  0  0  0  0
   36.1863   28.6756   28.8724 H   0  0  0  0  0  0  0  0  0  0  0  0
  1  2  2  0
  2  3  1  0
  2 12  1  0
  4  3  2  0
  5  4  1  0
  6  5  2  0
  6  1  1  0
  7  8  1  0
  7  5  1  0
  9  8  1  0
 10  9  1  0
 11 10  1  0
 11  7  1  0
 12 16  1  0
 12 13  2  0
 13 14  1  0
 15 17  1  0
 15 14  1  0
 16 15  2  0
 17 18  1  0
 19 18  2  0
 20 19  1  0
 21 20  2  0
 21 17  1  0
 22 11  1  0
  1 23  1  0
  3 24  1  0
  8 25  1  0
  8 26  1  0
  9 27  1  0
  9 28  1  0
 10 29  1  0
 10 30  1  0
 11 31  1  1
 13 32  1  0
 18 33  1  0
 19 34  1  0
 21 35  1  0
 22 36  1  0
 22 37  1  0
M  ISO  8  23  14  24  14  25  13  26  13  27  13  28  13  29  13  30  13
M  ISO  7  31  13  32  14  33  14  34  14  35  14  36   5  37   5
M  END
>  <minimizedAffinity>  (1) 
-5.78576899

>  <minimizedRMSD>  (1) 
0.382583112

$$$$
