
     RDKit          3D

 48 52  0  0  1  0  0  0  0  0999 V2000
   37.9810   25.0160   33.7630 C   0  0  0  0  0  0  0  0  0  0  0  0
   37.9010   25.4150   35.1060 C   0  0  0  0  0  0  0  0  0  0  0  0
   37.2730   26.6240   35.4320 C   0  0  0  0  0  0  0  0  0  0  0  0
   36.7620   27.3660   34.4040 N   0  0  0  0  0  0  0  0  0  0  0  0
   36.8560   26.9560   33.1310 C   0  0  0  0  0  0  0  0  0  0  0  0
   37.4530   25.8010   32.8130 N   0  0  0  0  0  0  0  0  0  0  0  0
   36.3140   27.7930   32.1000 N   0  0  0  0  0  0  0  0  0  0  0  0
   35.1560   28.6560   32.3110 C   0  0  0  0  0  0  0  0  0  0  0  0
   35.5800   29.8910   31.5340 C   0  0  0  0  0  0  0  0  0  0  0  0
   36.8070   29.5110   30.7290 C   0  0  0  0  0  0  0  0  0  0  0  0
   36.7170   27.9870   30.7280 C   0  0  1  0  0  0  0  0  0  0  0  0
   38.4810   24.5490   36.1490 C   0  0  0  0  0  0  0  0  0  0  0  0
   37.7960   24.3600   37.3820 C   0  0  0  0  0  0  0  0  0  0  0  0
   38.8620   23.2410   38.3240 S   0  0  0  0  0  0  0  0  0  0  0  0
   40.0960   23.2010   36.8730 C   0  0  0  0  0  0  0  0  0  0  0  0
   39.5970   23.8720   36.1360 N   0  0  0  0  0  0  0  0  0  0  0  0
   41.3490   22.4670   36.8120 N   0  0  0  0  0  0  0  0  0  0  0  0
   41.4560   21.2060   37.2520 C   0  0  0  0  0  0  0  0  0  0  0  0
   42.7960   20.8290   37.0360 C   0  0  0  0  0  0  0  0  0  0  0  0
   43.4110   21.8900   36.4790 N   0  0  0  0  0  0  0  0  0  0  0  0
   42.5370   22.9090   36.3310 C   0  0  0  0  0  0  0  0  0  0  0  0
   37.9060   27.3220   30.2290 C   0  0  0  0  0  0  0  0  0  0  0  0
   39.1160   27.7240   31.0890 C   0  0  0  0  0  0  0  0  0  0  0  0
   40.1270   26.6210   30.8750 C   0  0  0  0  0  0  0  0  0  0  0  0
   39.4350   25.5590   30.0800 C   0  0  0  0  0  0  0  0  0  0  0  0
   37.9470   25.8010   30.3930 C   0  0  0  0  0  0  0  0  0  0  0  0
   38.4716   24.0693   33.4926 H   0  0  0  0  0  0  0  0  0  0  0  0
   37.1941   26.9633   36.4754 H   0  0  0  0  0  0  0  0  0  0  0  0
   34.2387   28.2118   31.8971 H   0  0  0  0  0  0  0  0  0  0  0  0
   34.9119   28.8425   33.3672 H   0  0  0  0  0  0  0  0  0  0  0  0
   34.7706   30.2096   30.8606 H   0  0  0  0  0  0  0  0  0  0  0  0
   35.8016   30.7256   32.2154 H   0  0  0  0  0  0  0  0  0  0  0  0
   36.7577   29.9162   29.7075 H   0  0  0  0  0  0  0  0  0  0  0  0
   37.7493   29.9023   31.1399 H   0  0  0  0  0  0  0  0  0  0  0  0
   36.0193   27.5149   30.0207 H   0  0  0  0  0  0  0  0  0  0  0  0
   36.8350   24.7959   37.6926 H   0  0  0  0  0  0  0  0  0  0  0  0
   40.6586   20.5897   37.6928 H   0  0  0  0  0  0  0  0  0  0  0  0
   43.2516   19.8569   37.2757 H   0  0  0  0  0  0  0  0  0  0  0  0
   42.7474   23.9010   35.9047 H   0  0  0  0  0  0  0  0  0  0  0  0
   37.9123   27.6101   29.1674 H   0  0  0  0  0  0  0  0  0  0  0  0
   39.5222   28.6912   30.7580 H   0  0  0  0  0  0  0  0  0  0  0  0
   38.8498   27.8425   32.1497 H   0  0  0  0  0  0  0  0  0  0  0  0
   40.9964   27.0046   30.3210 H   0  0  0  0  0  0  0  0  0  0  0  0
   40.4930   26.2252   31.8339 H   0  0  0  0  0  0  0  0  0  0  0  0
   39.7485   24.5558   30.4044 H   0  0  0  0  0  0  0  0  0  0  0  0
   39.6636   25.6061   29.0050 H   0  0  0  0  0  0  0  0  0  0  0  0
   37.6857   25.4901   31.4153 H   0  0  0  0  0  0  0  0  0  0  0  0
   37.2370   25.2406   29.7671 H   0  0  0  0  0  0  0  0  0  0  0  0
  1  2  2  0
  2  3  1  0
  2 12  1  0
  4  3  2  0
  5  4  1  0
  6  5  2  0
  6  1  1  0
  7  8  1  0
  7  5  1  0
  9  8  1  0
 10  9  1  0
 11 10  1  0
 11  7  1  0
 12 13  2  0
 13 14  1  0
 15 14  1  0
 16 12  1  0
 16 15  2  0
 17 15  1  0
 17 18  1  0
 19 18  2  0
 20 19  1  0
 21 20  2  0
 21 17  1  0
 22 26  1  0
 22 11  1  0
 22 23  1  0
 24 23  1  0
 25 26  1  0
 25 24  1  0
  1 27  1  0
  3 28  1  0
  8 29  1  0
  8 30  1  0
  9 31  1  0
  9 32  1  0
 10 33  1  0
 10 34  1  0
 11 35  1  6
 13 36  1  0
 18 37  1  0
 19 38  1  0
 21 39  1  0
 22 40  1  0
 23 41  1  0
 23 42  1  0
 24 43  1  0
 24 44  1  0
 25 45  1  0
 25 46  1  0
 26 47  1  0
 26 48  1  0
M  ISO  8  27  14  28  14  29  13  30  13  31  13  32  13  33  13  34  13
M  ISO  8  35  13  36  14  37  14  38  14  39  14  40  13  41  13  42  13
M  ISO  6  43  13  44  13  45  13  46  13  47  13  48  13
M  END
>  <minimizedAffinity>  (1) 
-5.65860271

>  <minimizedRMSD>  (1) 
0.417501092

$$$$
