
     RDKit          3D

 48 52  0  0  1  0  0  0  0  0999 V2000
   38.0380   24.8350   33.8170 C   0  0  0  0  0  0  0  0  0  0  0  0
   37.9950   25.2870   35.1390 C   0  0  0  0  0  0  0  0  0  0  0  0
   37.3990   26.5340   35.4020 C   0  0  0  0  0  0  0  0  0  0  0  0
   36.8960   27.2300   34.3470 N   0  0  0  0  0  0  0  0  0  0  0  0
   36.9590   26.7560   33.0880 C   0  0  0  0  0  0  0  0  0  0  0  0
   37.5200   25.5800   32.8340 N   0  0  0  0  0  0  0  0  0  0  0  0
   36.4110   27.5450   32.0410 N   0  0  0  0  0  0  0  0  0  0  0  0
   35.2950   28.4770   32.2070 C   0  0  0  0  0  0  0  0  0  0  0  0
   35.7590   29.6450   31.3450 C   0  0  0  0  0  0  0  0  0  0  0  0
   36.9260   29.1720   30.5450 C   0  0  0  0  0  0  0  0  0  0  0  0
   36.7590   27.6460   30.6490 C   0  0  1  0  0  0  0  0  0  0  0  0
   38.5590   24.4760   36.2170 C   0  0  0  0  0  0  0  0  0  0  0  0
   37.9110   24.3790   37.4700 C   0  0  0  0  0  0  0  0  0  0  0  0
   38.9590   23.2870   38.4650 S   0  0  0  0  0  0  0  0  0  0  0  0
   40.1600   23.1180   36.9880 C   0  0  0  0  0  0  0  0  0  0  0  0
   39.6510   23.7600   36.2340 N   0  0  0  0  0  0  0  0  0  0  0  0
   41.3890   22.3420   36.9370 N   0  0  0  0  0  0  0  0  0  0  0  0
   41.4570   21.1080   37.4670 C   0  0  0  0  0  0  0  0  0  0  0  0
   42.7530   20.6470   37.2530 C   0  0  0  0  0  0  0  0  0  0  0  0
   43.4000   21.6380   36.5990 N   0  0  0  0  0  0  0  0  0  0  0  0
   42.5660   22.6890   36.3990 C   0  0  0  0  0  0  0  0  0  0  0  0
   37.9360   26.9540   30.2530 N   0  0  0  0  0  0  0  0  0  0  0  0
   37.9500   25.6270   30.0480 C   0  0  0  0  0  0  0  0  0  0  0  0
   39.1340   25.0020   29.6600 C   0  0  0  0  0  0  0  0  0  0  0  0
   39.2130   23.5210   29.4140 C   0  0  0  0  0  0  0  0  0  0  0  0
   40.2880   25.7360   29.4860 C   0  0  0  0  0  0  0  0  0  0  0  0
   41.4030   25.2270   29.1330 O   0  0  0  0  0  0  0  0  0  0  0  0
   40.2860   27.0810   29.6920 N   0  0  0  0  0  0  0  0  0  0  0  0
   39.1040   27.6010   30.0630 C   0  0  0  0  0  0  0  0  0  0  0  0
   39.0740   28.8630   30.2620 O   0  0  0  0  0  0  0  0  0  0  0  0
   38.4991   23.8638   33.5842 H   0  0  0  0  0  0  0  0  0  0  0  0
   37.3417   26.9325   36.4257 H   0  0  0  0  0  0  0  0  0  0  0  0
   34.3528   28.0492   31.8339 H   0  0  0  0  0  0  0  0  0  0  0  0
   35.0789   28.7433   33.2522 H   0  0  0  0  0  0  0  0  0  0  0  0
   34.9473   29.9632   30.6742 H   0  0  0  0  0  0  0  0  0  0  0  0
   36.0402   30.5036   31.9725 H   0  0  0  0  0  0  0  0  0  0  0  0
   37.8779   29.5045   30.9848 H   0  0  0  0  0  0  0  0  0  0  0  0
   36.9522   29.5546   29.5140 H   0  0  0  0  0  0  0  0  0  0  0  0
   36.0162   27.1810   29.9842 H   0  0  0  0  0  0  0  0  0  0  0  0
   36.9716   24.8631   37.7752 H   0  0  0  0  0  0  0  0  0  0  0  0
   40.6441   20.5665   37.9729 H   0  0  0  0  0  0  0  0  0  0  0  0
   43.1669   19.6736   37.5548 H   0  0  0  0  0  0  0  0  0  0  0  0
   42.8077   23.6368   35.8957 H   0  0  0  0  0  0  0  0  0  0  0  0
   37.0322   25.0364   30.1855 H   0  0  0  0  0  0  0  0  0  0  0  0
   39.2413   22.9903   30.3771 H   0  0  0  0  0  0  0  0  0  0  0  0
   38.3309   23.1967   28.8424 H   0  0  0  0  0  0  0  0  0  0  0  0
   40.1246   23.2924   28.8424 H   0  0  0  0  0  0  0  0  0  0  0  0
   41.1301   27.6590   29.5721 H   0  0  0  0  0  0  0  0  0  0  0  0
  1  2  2  0
  2  3  1  0
  2 12  1  0
  4  3  2  0
  5  4  1  0
  6  5  2  0
  6  1  1  0
  7  8  1  0
  7  5  1  0
  9  8  1  0
 10 11  1  0
 10  9  1  0
 11  7  1  0
 12 16  1  0
 12 13  2  0
 13 14  1  0
 15 14  1  0
 16 15  2  0
 17 15  1  0
 17 18  1  0
 19 18  2  0
 20 19  1  0
 21 20  2  0
 21 17  1  0
 22 11  1  0
 23 22  1  0
 24 23  2  0
 25 24  1  0
 26 24  1  0
 26 28  1  0
 27 26  2  0
 28 29  1  0
 29 22  1  0
 29 30  2  0
  1 31  1  0
  3 32  1  0
  8 33  1  0
  8 34  1  0
  9 35  1  0
  9 36  1  0
 10 37  1  0
 10 38  1  0
 11 39  1  6
 13 40  1  0
 18 41  1  0
 19 42  1  0
 21 43  1  0
 23 44  1  0
 25 45  1  0
 25 46  1  0
 25 47  1  0
 28 48  1  0
M  ISO  8  31  14  32  14  33  13  34  13  35  13  36  13  37  13  38  13
M  ISO  8  39  13  40  14  41  14  42  14  43  14  44  14  45   8  46   8
M  ISO  2  47   8  48   9
M  END
>  <minimizedAffinity>  (1) 
-5.62037802

>  <minimizedRMSD>  (1) 
0.54974103

$$$$
