
     RDKit          3D

 48 52  0  0  1  0  0  0  0  0999 V2000
   38.7320   25.5300   33.0430 C   0  0  0  0  0  0  0  0  0  0  0  0
   38.1980   25.7540   34.3080 C   0  0  0  0  0  0  0  0  0  0  0  0
   37.3250   26.8250   34.4750 C   0  0  0  0  0  0  0  0  0  0  0  0
   37.0390   27.6000   33.3850 N   0  0  0  0  0  0  0  0  0  0  0  0
   37.5740   27.3510   32.1870 C   0  0  0  0  0  0  0  0  0  0  0  0
   38.4010   26.3330   32.0410 N   0  0  0  0  0  0  0  0  0  0  0  0
   37.2390   28.1860   31.0840 N   0  0  0  0  0  0  0  0  0  0  0  0
   35.9590   28.9030   30.9800 C   0  0  0  0  0  0  0  0  0  0  0  0
   36.4170   30.2520   30.4510 C   0  0  0  0  0  0  0  0  0  0  0  0
   37.8520   30.0830   30.0320 C   0  0  0  0  0  0  0  0  0  0  0  0
   37.9390   28.5420   29.8940 C   0  0  1  0  0  0  0  0  0  0  0  0
   38.5440   24.8850   35.4360 C   0  0  0  0  0  0  0  0  0  0  0  0
   37.6610   24.7100   36.5280 C   0  0  0  0  0  0  0  0  0  0  0  0
   38.5180   23.5660   37.6440 S   0  0  0  0  0  0  0  0  0  0  0  0
   39.9820   23.4890   36.4370 C   0  0  0  0  0  0  0  0  0  0  0  0
   39.6460   24.1700   35.6160 N   0  0  0  0  0  0  0  0  0  0  0  0
   41.2100   22.7220   36.5880 N   0  0  0  0  0  0  0  0  0  0  0  0
   41.2020   21.4680   37.0320 C   0  0  0  0  0  0  0  0  0  0  0  0
   42.5290   21.0220   37.0590 C   0  0  0  0  0  0  0  0  0  0  0  0
   43.2670   22.0680   36.6170 N   0  0  0  0  0  0  0  0  0  0  0  0
   42.4720   23.1200   36.3250 C   0  0  0  0  0  0  0  0  0  0  0  0
   39.2410   28.0870   29.6850 N   0  0  0  0  0  0  0  0  0  0  0  0
   39.2660   26.9420   28.8100 C   0  0  0  0  0  0  0  0  0  0  0  0
   39.7520   27.3410   27.4070 C   0  0  0  0  0  0  0  0  0  0  0  0
   39.6310   28.7190   27.2320 O   0  0  0  0  0  0  0  0  0  0  0  0
   40.6390   29.2740   28.0190 C   0  0  0  0  0  0  0  0  0  0  0  0
   40.2770   29.0350   29.4650 C   0  0  0  0  0  0  0  0  0  0  0  0
   39.4245   24.6920   32.8751 H   0  0  0  0  0  0  0  0  0  0  0  0
   36.8776   27.0421   35.4562 H   0  0  0  0  0  0  0  0  0  0  0  0
   35.2746   28.4058   30.2769 H   0  0  0  0  0  0  0  0  0  0  0  0
   35.3941   28.9563   31.9223 H   0  0  0  0  0  0  0  0  0  0  0  0
   35.8023   30.5505   29.5890 H   0  0  0  0  0  0  0  0  0  0  0  0
   36.3165   31.0344   31.2177 H   0  0  0  0  0  0  0  0  0  0  0  0
   38.0557   30.5866   29.0755 H   0  0  0  0  0  0  0  0  0  0  0  0
   38.5828   30.5182   30.7295 H   0  0  0  0  0  0  0  0  0  0  0  0
   37.4968   28.0628   29.0081 H   0  0  0  0  0  0  0  0  0  0  0  0
   36.6709   25.1680   36.6691 H   0  0  0  0  0  0  0  0  0  0  0  0
   40.3147   20.8874   37.3246 H   0  0  0  0  0  0  0  0  0  0  0  0
   42.8942   20.0329   37.3724 H   0  0  0  0  0  0  0  0  0  0  0  0
   42.7896   24.1035   35.9485 H   0  0  0  0  0  0  0  0  0  0  0  0
   39.9464   26.1844   29.2260 H   0  0  0  0  0  0  0  0  0  0  0  0
   38.2468   26.5362   28.7292 H   0  0  0  0  0  0  0  0  0  0  0  0
   40.8067   27.0507   27.2911 H   0  0  0  0  0  0  0  0  0  0  0  0
   39.1374   26.8270   26.6533 H   0  0  0  0  0  0  0  0  0  0  0  0
   41.6012   28.7930   27.7893 H   0  0  0  0  0  0  0  0  0  0  0  0
   40.7345   30.3514   27.8190 H   0  0  0  0  0  0  0  0  0  0  0  0
   41.1782   28.6801   29.9864 H   0  0  0  0  0  0  0  0  0  0  0  0
   39.8959   29.9944   29.8448 H   0  0  0  0  0  0  0  0  0  0  0  0
  1  2  2  0
  2  3  1  0
  2 12  1  0
  4  3  2  0
  5  4  1  0
  6  5  2  0
  6  1  1  0
  7  5  1  0
  8  7  1  0
  9  8  1  0
 10  9  1  0
 11 10  1  0
 11  7  1  0
 12 16  1  0
 12 13  2  0
 13 14  1  0
 15 17  1  0
 15 14  1  0
 16 15  2  0
 17 18  1  0
 18 19  2  0
 20 19  1  0
 21 17  1  0
 21 20  2  0
 22 11  1  0
 23 22  1  0
 24 23  1  0
 25 24  1  0
 25 26  1  0
 26 27  1  0
 27 22  1  0
  1 28  1  0
  3 29  1  0
  8 30  1  0
  8 31  1  0
  9 32  1  0
  9 33  1  0
 10 34  1  0
 10 35  1  0
 11 36  1  6
 13 37  1  0
 18 38  1  0
 19 39  1  0
 21 40  1  0
 23 41  1  0
 23 42  1  0
 24 43  1  0
 24 44  1  0
 26 45  1  0
 26 46  1  0
 27 47  1  0
 27 48  1  0
M  ISO  8  28  14  29  14  30  13  31  13  32  13  33  13  34  13  35  13
M  ISO  8  36  13  37  14  38  14  39  14  40  14  41  13  42  13  43  13
M  ISO  5  44  13  45  13  46  13  47  13  48  13
M  END
>  <minimizedAffinity>  (1) 
-5.31127977

>  <minimizedRMSD>  (1) 
2.19309664

$$$$
