
     RDKit          3D

 42 46  0  0  1  0  0  0  0  0999 V2000
   36.6910   27.1720   32.3210 C   0  0  0  0  0  0  0  0  0  0  0  0
   37.1460   26.4870   33.4330 C   0  0  0  0  0  0  0  0  0  0  0  0
   37.0410   27.1000   34.6780 C   0  0  0  0  0  0  0  0  0  0  0  0
   36.4910   28.3500   34.7370 N   0  0  0  0  0  0  0  0  0  0  0  0
   36.0590   28.9810   33.6150 C   0  0  0  0  0  0  0  0  0  0  0  0
   36.1580   28.3990   32.4320 N   0  0  0  0  0  0  0  0  0  0  0  0
   35.5080   30.2890   33.7950 N   0  0  0  0  0  0  0  0  0  0  0  0
   34.8030   30.7330   34.9910 C   0  0  0  0  0  0  0  0  0  0  0  0
   35.2850   32.1690   35.0790 C   0  0  0  0  0  0  0  0  0  0  0  0
   36.0060   32.4910   33.7910 C   0  0  0  0  0  0  0  0  0  0  0  0
   35.5450   31.4010   32.8620 C   0  0  2  0  0  0  0  0  0  0  0  0
   37.7250   25.1500   33.3030 C   0  0  0  0  0  0  0  0  0  0  0  0
   39.0560   24.8870   33.6830 C   0  0  0  0  0  0  0  0  0  0  0  0
   39.3080   23.1220   33.3410 S   0  0  0  0  0  0  0  0  0  0  0  0
   37.5230   22.9970   32.7150 C   0  0  0  0  0  0  0  0  0  0  0  0
   37.1560   24.0480   32.8470 N   0  0  0  0  0  0  0  0  0  0  0  0
   36.8480   21.8110   32.2040 N   0  0  0  0  0  0  0  0  0  0  0  0
   36.9780   20.6140   32.8080 C   0  0  0  0  0  0  0  0  0  0  0  0
   36.1990   19.7140   32.0510 C   0  0  0  0  0  0  0  0  0  0  0  0
   35.6580   20.4180   31.0530 N   0  0  0  0  0  0  0  0  0  0  0  0
   36.0410   21.7120   31.1240 C   0  0  0  0  0  0  0  0  0  0  0  0
   34.4080   31.6060   32.0760 C   0  0  0  0  0  0  0  0  0  0  0  0
   33.1130   30.8600   31.8110 C   0  0  0  0  0  0  0  0  0  0  0  0
   32.2920   31.4800   30.9460 C   0  0  0  0  0  0  0  0  0  0  0  0
   32.5790   32.7070   30.3250 C   0  0  0  0  0  0  0  0  0  0  0  0
   34.2050   33.1340   30.9820 S   0  0  0  0  0  0  0  0  0  0  0  0
   36.7672   26.7034   31.3287 H   0  0  0  0  0  0  0  0  0  0  0  0
   37.3909   26.5927   35.5892 H   0  0  0  0  0  0  0  0  0  0  0  0
   33.7118   30.6780   34.8631 H   0  0  0  0  0  0  0  0  0  0  0  0
   34.9978   30.1283   35.8890 H   0  0  0  0  0  0  0  0  0  0  0  0
   34.4268   32.8451   35.2071 H   0  0  0  0  0  0  0  0  0  0  0  0
   35.9577   32.2976   35.9398 H   0  0  0  0  0  0  0  0  0  0  0  0
   35.7152   33.4820   33.4125 H   0  0  0  0  0  0  0  0  0  0  0  0
   37.0994   32.5293   33.9048 H   0  0  0  0  0  0  0  0  0  0  0  0
   36.2079   31.2699   31.9941 H   0  0  0  0  0  0  0  0  0  0  0  0
   39.7855   25.5982   34.0977 H   0  0  0  0  0  0  0  0  0  0  0  0
   37.5698   20.3854   33.7066 H   0  0  0  0  0  0  0  0  0  0  0  0
   36.0633   18.6398   32.2451 H   0  0  0  0  0  0  0  0  0  0  0  0
   35.7533   22.5234   30.4392 H   0  0  0  0  0  0  0  0  0  0  0  0
   32.8682   29.8978   32.2846 H   0  0  0  0  0  0  0  0  0  0  0  0
   31.3334   30.9953   30.7090 H   0  0  0  0  0  0  0  0  0  0  0  0
   31.9617   33.2714   29.6106 H   0  0  0  0  0  0  0  0  0  0  0  0
  1  6  2  0
  1  2  1  0
  2  3  2  0
  3  4  1  0
  5  7  1  0
  5  4  2  0
  6  5  1  0
  7  8  1  0
  8  9  1  0
 10  9  1  0
 11 10  1  0
 11  7  1  0
 12  2  1  0
 12 13  2  0
 14 13  1  0
 15 16  2  0
 15 14  1  0
 16 12  1  0
 17 15  1  0
 17 18  1  0
 19 18  2  0
 20 21  2  0
 20 19  1  0
 21 17  1  0
 22 11  1  0
 23 22  2  0
 24 23  1  0
 25 24  2  0
 25 26  1  0
 26 22  1  0
  1 27  1  0
  3 28  1  0
  8 29  1  0
  8 30  1  0
  9 31  1  0
  9 32  1  0
 10 33  1  0
 10 34  1  0
 11 35  1  6
 13 36  1  0
 18 37  1  0
 19 38  1  0
 21 39  1  0
 23 40  1  0
 24 41  1  0
 25 42  1  0
M  ISO  8  27  14  28  14  29  13  30  13  31  13  32  13  33  13  34  13
M  ISO  8  35  13  36  14  37  14  38  14  39  14  40  14  41  14  42  14
M  END
>  <minimizedAffinity>  (1) 
-5.10559368

>  <minimizedRMSD>  (1) 
5.08640766

$$$$
