
     RDKit          3D

 38 41  0  0  1  0  0  0  0  0999 V2000
   38.7410   25.9240   33.7510 C   0  0  0  0  0  0  0  0  0  0  0  0
   38.0980   25.7580   34.9730 C   0  0  0  0  0  0  0  0  0  0  0  0
   36.9500   26.5290   35.2360 C   0  0  0  0  0  0  0  0  0  0  0  0
   36.5350   27.4000   34.2680 N   0  0  0  0  0  0  0  0  0  0  0  0
   37.1960   27.5270   33.0920 C   0  0  0  0  0  0  0  0  0  0  0  0
   38.2730   26.7980   32.8540 N   0  0  0  0  0  0  0  0  0  0  0  0
   36.6690   28.4660   32.1610 N   0  0  0  0  0  0  0  0  0  0  0  0
   35.2670   28.8360   32.0460 C   0  0  0  0  0  0  0  0  0  0  0  0
   35.3900   30.3290   31.7820 C   0  0  0  0  0  0  0  0  0  0  0  0
   36.8360   30.6120   31.4770 C   0  0  0  0  0  0  0  0  0  0  0  0
   37.3890   29.2330   31.1610 C   0  0  2  0  0  0  0  0  0  0  0  0
   38.5990   24.8080   35.9590 C   0  0  0  0  0  0  0  0  0  0  0  0
   37.8510   24.4960   37.1190 C   0  0  0  0  0  0  0  0  0  0  0  0
   38.8530   23.2950   38.0290 S   0  0  0  0  0  0  0  0  0  0  0  0
   40.1700   23.3910   36.6760 C   0  0  0  0  0  0  0  0  0  0  0  0
   39.7140   24.1290   35.9720 N   0  0  0  0  0  0  0  0  0  0  0  0
   41.4330   22.6720   36.6140 N   0  0  0  0  0  0  0  0  0  0  0  0
   41.5140   21.3690   36.9460 C   0  0  0  0  0  0  0  0  0  0  0  0
   42.8570   21.0030   36.7730 C   0  0  0  0  0  0  0  0  0  0  0  0
   43.5040   22.1000   36.3490 N   0  0  0  0  0  0  0  0  0  0  0  0
   42.6510   23.1330   36.2450 C   0  0  0  0  0  0  0  0  0  0  0  0
   37.0270   28.8530   29.7920 C   0  0  0  0  0  0  0  0  0  0  0  0
   37.2030   29.5210   28.7490 O   0  0  0  0  0  0  0  0  0  0  0  0
   36.4150   27.6710   29.3700 O   0  0  0  0  0  0  0  0  0  0  0  0
   39.6397   25.3328   33.5212 H   0  0  0  0  0  0  0  0  0  0  0  0
   36.4060   26.4338   36.1873 H   0  0  0  0  0  0  0  0  0  0  0  0
   34.7777   28.3155   31.2095 H   0  0  0  0  0  0  0  0  0  0  0  0
   34.6530   28.5761   32.9209 H   0  0  0  0  0  0  0  0  0  0  0  0
   34.7620   30.6126   30.9246 H   0  0  0  0  0  0  0  0  0  0  0  0
   35.0559   30.9077   32.6557 H   0  0  0  0  0  0  0  0  0  0  0  0
   36.9343   31.2859   30.6131 H   0  0  0  0  0  0  0  0  0  0  0  0
   37.3645   31.1152   32.3001 H   0  0  0  0  0  0  0  0  0  0  0  0
   38.4820   29.1143   31.1973 H   0  0  0  0  0  0  0  0  0  0  0  0
   36.8685   24.8984   37.4066 H   0  0  0  0  0  0  0  0  0  0  0  0
   40.6917   20.7217   37.2849 H   0  0  0  0  0  0  0  0  0  0  0  0
   43.2950   20.0097   36.9504 H   0  0  0  0  0  0  0  0  0  0  0  0
   42.8953   24.1558   35.9223 H   0  0  0  0  0  0  0  0  0  0  0  0
   36.2201   27.5300   28.4097 H   0  0  0  0  0  0  0  0  0  0  0  0
  1  2  2  0
  2  3  1  0
  2 12  1  0
  4  3  2  0
  5  4  1  0
  6  5  2  0
  6  1  1  0
  7  5  1  0
  8  7  1  0
  9  8  1  0
 10  9  1  0
 11 10  1  0
 11  7  1  0
 12 16  1  0
 12 13  2  0
 13 14  1  0
 15 14  1  0
 16 15  2  0
 17 15  1  0
 17 18  1  0
 19 18  2  0
 20 19  1  0
 21 20  2  0
 21 17  1  0
 22 11  1  0
 23 22  2  0
 24 22  1  0
  1 25  1  0
  3 26  1  0
  8 27  1  0
  8 28  1  0
  9 29  1  0
  9 30  1  0
 10 31  1  0
 10 32  1  0
 11 33  1  6
 13 34  1  0
 18 35  1  0
 19 36  1  0
 21 37  1  0
 24 38  1  0
M  ISO  8  25  14  26  14  27  13  28  13  29  13  30  13  31  13  32  13
M  ISO  6  33  13  34  14  35  14  36  14  37  14  38   3
M  END
>  <minimizedAffinity>  (1) 
-5.23151779

>  <minimizedRMSD>  (1) 
1.05761766

$$$$
