
     RDKit          3D

 24 25  0  0  1  0  0  0  0  0999 V2000
   37.5460   22.3010   34.3840 N   0  0  0  0  0  0  0  0  0  0  0  0
   37.6090   22.0440   35.8020 C   0  0  0  0  0  0  0  0  0  0  0  0
   39.1010   22.2200   36.1040 C   0  0  1  0  0  0  0  0  0  0  0  0
   39.7040   22.8160   34.8410 C   0  0  0  0  0  0  0  0  0  0  0  0
   38.4450   23.4500   34.2400 C   0  0  0  0  0  0  0  0  0  0  0  0
   36.8080   21.6210   33.3750 C   0  0  0  0  0  0  0  0  0  0  0  0
   35.7890   20.7160   33.6760 C   0  0  0  0  0  0  0  0  0  0  0  0
   35.1110   20.0880   32.6330 C   0  0  0  0  0  0  0  0  0  0  0  0
   35.4890   20.4010   31.3570 N   0  0  0  0  0  0  0  0  0  0  0  0
   36.4770   21.2810   31.1020 C   0  0  0  0  0  0  0  0  0  0  0  0
   37.1260   21.8810   32.0990 N   0  0  0  0  0  0  0  0  0  0  0  0
   39.2210   23.1600   37.2590 C   0  0  0  0  0  0  0  0  0  0  0  0
   38.3610   23.2840   38.1150 O   0  0  0  0  0  0  0  0  0  0  0  0
   37.0013   22.7679   36.3647 H   0  0  0  0  0  0  0  0  0  0  0  0
   37.2171   21.0565   36.0869 H   0  0  0  0  0  0  0  0  0  0  0  0
   39.6146   21.2834   36.3668 H   0  0  0  0  0  0  0  0  0  0  0  0
   40.4743   23.5676   35.0683 H   0  0  0  0  0  0  0  0  0  0  0  0
   40.2280   22.1022   34.1884 H   0  0  0  0  0  0  0  0  0  0  0  0
   38.5860   23.7388   33.1880 H   0  0  0  0  0  0  0  0  0  0  0  0
   38.1077   24.3871   34.7070 H   0  0  0  0  0  0  0  0  0  0  0  0
   35.5248   20.5014   34.7220 H   0  0  0  0  0  0  0  0  0  0  0  0
   34.3027   19.3681   32.8289 H   0  0  0  0  0  0  0  0  0  0  0  0
   36.7504   21.5062   30.0606 H   0  0  0  0  0  0  0  0  0  0  0  0
   40.1316   23.7716   37.3417 H   0  0  0  0  0  0  0  0  0  0  0  0
  1  2  1  0
  2  3  1  0
  3 12  1  0
  4  3  1  0
  5  1  1  0
  5  4  1  0
  6  7  2  0
  6  1  1  0
  8  7  1  0
  9  8  2  0
 10  9  1  0
 10 11  2  0
 11  6  1  0
 12 13  2  0
  2 14  1  0
  2 15  1  0
  3 16  1  1
  4 17  1  0
  4 18  1  0
  5 19  1  0
  5 20  1  0
  7 21  1  0
  8 22  1  0
 10 23  1  0
 12 24  1  0
M  ISO  8  14  13  15  13  16  13  17  13  18  13  19  13  20  13  21  14
M  ISO  3  22  14  23  14  24   6
M  END
>  <minimizedAffinity>  (1) 
-3.42161274

>  <minimizedRMSD>  (1) 
2.43198848

$$$$
