
     RDKit          3D

 25 26  0  0  1  0  0  0  0  0999 V2000
   37.1930   21.5020   33.7790 N   0  0  0  0  0  0  0  0  0  0  0  0
   35.9430   20.7710   33.7880 C   0  0  0  0  0  0  0  0  0  0  0  0
   35.5580   20.7520   32.3100 C   0  0  1  0  0  0  0  0  0  0  0  0
   36.7920   21.2680   31.5690 C   0  0  0  0  0  0  0  0  0  0  0  0
   37.8510   20.9230   32.6210 C   0  0  0  0  0  0  0  0  0  0  0  0
   37.6510   22.5130   34.6630 C   0  0  0  0  0  0  0  0  0  0  0  0
   38.1950   23.7180   34.2270 C   0  0  0  0  0  0  0  0  0  0  0  0
   38.6210   24.6570   35.1610 C   0  0  0  0  0  0  0  0  0  0  0  0
   38.4740   24.3300   36.4930 N   0  0  0  0  0  0  0  0  0  0  0  0
   37.9430   23.1540   36.8880 C   0  0  0  0  0  0  0  0  0  0  0  0
   37.5310   22.2460   35.9880 N   0  0  0  0  0  0  0  0  0  0  0  0
   35.4290   19.3170   31.8910 C   0  0  0  0  0  0  0  0  0  0  0  0
   35.0180   18.3830   32.6590 O   0  0  0  0  0  0  0  0  0  0  0  0
   35.7720   18.9390   30.5780 O   0  0  0  0  0  0  0  0  0  0  0  0
   36.0823   19.7509   34.1753 H   0  0  0  0  0  0  0  0  0  0  0  0
   35.1762   21.2231   34.4342 H   0  0  0  0  0  0  0  0  0  0  0  0
   34.6389   21.3248   32.1175 H   0  0  0  0  0  0  0  0  0  0  0  0
   36.9597   20.7343   30.6219 H   0  0  0  0  0  0  0  0  0  0  0  0
   36.7551   22.3221   31.2569 H   0  0  0  0  0  0  0  0  0  0  0  0
   37.9951   19.8374   32.7248 H   0  0  0  0  0  0  0  0  0  0  0  0
   38.8683   21.2874   32.4151 H   0  0  0  0  0  0  0  0  0  0  0  0
   38.2874   23.9264   33.1509 H   0  0  0  0  0  0  0  0  0  0  0  0
   39.0562   25.6185   34.8508 H   0  0  0  0  0  0  0  0  0  0  0  0
   37.8462   22.9360   37.9618 H   0  0  0  0  0  0  0  0  0  0  0  0
   35.6884   17.9933   30.2973 H   0  0  0  0  0  0  0  0  0  0  0  0
  1  2  1  0
  1  6  1  0
  3  2  1  0
  4  3  1  0
  4  5  1  0
  5  1  1  0
  6 11  1  0
  7  6  2  0
  7  8  1  0
  8  9  2  0
  9 10  1  0
 11 10  2  0
 12  3  1  0
 12 13  2  0
 14 12  1  0
  2 15  1  0
  2 16  1  0
  3 17  1  1
  4 18  1  0
  4 19  1  0
  5 20  1  0
  5 21  1  0
  7 22  1  0
  8 23  1  0
 10 24  1  0
 14 25  1  0
M  ISO  8  15  13  16  13  17  13  18  13  19  13  20  13  21  13  22  14
M  ISO  3  23  14  24  14  25   3
M  END
>  <minimizedAffinity>  (1) 
-3.77955961

>  <minimizedRMSD>  (1) 
6.5012579

$$$$
