
     RDKit          3D

 43 46  0  0  1  0  0  0  0  0999 V2000
   37.2330   22.2870   33.3510 N   0  0  0  0  0  0  0  0  0  0  0  0
   36.4460   21.0810   33.6040 C   0  0  0  0  0  0  0  0  0  0  0  0
   35.2760   21.2820   32.6830 C   0  0  1  0  0  0  0  0  0  0  0  0
   35.6040   22.5020   31.8380 C   0  0  0  0  0  0  0  0  0  0  0  0
   37.1240   22.4020   31.9180 C   0  0  0  0  0  0  0  0  0  0  0  0
   37.9220   23.0940   34.3060 C   0  0  0  0  0  0  0  0  0  0  0  0
   38.2910   22.6250   35.5650 C   0  0  0  0  0  0  0  0  0  0  0  0
   38.9660   23.4760   36.4310 C   0  0  0  0  0  0  0  0  0  0  0  0
   39.2310   24.7580   35.9730 N   0  0  0  0  0  0  0  0  0  0  0  0
   38.8600   25.1720   34.7540 C   0  0  0  0  0  0  0  0  0  0  0  0
   38.2120   24.3530   33.9230 N   0  0  0  0  0  0  0  0  0  0  0  0
   35.2510   20.0990   31.7600 C   0  0  2  0  0  0  0  0  0  0  0  0
   34.9620   18.7500   32.2740 C   0  0  0  0  0  0  0  0  0  0  0  0
   36.3860   19.1720   31.8740 C   0  0  1  0  0  0  0  0  0  0  0  0
   36.8510   18.4780   30.6750 N   0  0  0  0  0  0  0  0  0  0  0  0
   36.5100   17.0930   30.7250 C   0  0  0  0  0  0  0  0  0  0  0  0
   36.8840   16.3800   29.4680 C   0  0  0  0  0  0  0  0  0  0  0  0
   36.3550   17.0430   28.2880 N   0  0  0  0  0  0  0  0  0  0  0  0
   36.9640   18.3670   28.2930 C   0  0  0  0  0  0  0  0  0  0  0  0
   36.5060   19.1670   29.4620 C   0  0  0  0  0  0  0  0  0  0  0  0
   37.0094   20.1727   33.3442 H   0  0  0  0  0  0  0  0  0  0  0  0
   36.1656   20.9439   34.6588 H   0  0  0  0  0  0  0  0  0  0  0  0
   34.3260   21.3980   33.2252 H   0  0  0  0  0  0  0  0  0  0  0  0
   35.2223   23.4331   32.2822 H   0  0  0  0  0  0  0  0  0  0  0  0
   35.1709   22.5237   30.8271 H   0  0  0  0  0  0  0  0  0  0  0  0
   37.5128   21.5150   31.3965 H   0  0  0  0  0  0  0  0  0  0  0  0
   37.6905   23.2213   31.4514 H   0  0  0  0  0  0  0  0  0  0  0  0
   38.0512   21.5954   35.8690 H   0  0  0  0  0  0  0  0  0  0  0  0
   39.2761   23.1481   37.4341 H   0  0  0  0  0  0  0  0  0  0  0  0
   39.0921   26.1986   34.4344 H   0  0  0  0  0  0  0  0  0  0  0  0
   34.7915   20.6873   30.9521 H   0  0  0  0  0  0  0  0  0  0  0  0
   34.7041   18.6039   33.3333 H   0  0  0  0  0  0  0  0  0  0  0  0
   34.2771   17.9337   32.0010 H   0  0  0  0  0  0  0  0  0  0  0  0
   37.3814   19.2576   32.3343 H   0  0  0  0  0  0  0  0  0  0  0  0
   37.0398   16.6269   31.5689 H   0  0  0  0  0  0  0  0  0  0  0  0
   35.4197   17.0155   30.8484 H   0  0  0  0  0  0  0  0  0  0  0  0
   37.9809   16.3437   29.3932 H   0  0  0  0  0  0  0  0  0  0  0  0
   36.4543   15.3683   29.5106 H   0  0  0  0  0  0  0  0  0  0  0  0
   35.3291   17.1164   28.3435 H   0  0  0  0  0  0  0  0  0  0  0  0
   38.0577   18.2585   28.3391 H   0  0  0  0  0  0  0  0  0  0  0  0
   36.6641   18.8913   27.3737 H   0  0  0  0  0  0  0  0  0  0  0  0
   36.9954   20.1520   29.4473 H   0  0  0  0  0  0  0  0  0  0  0  0
   35.4153   19.3003   29.4120 H   0  0  0  0  0  0  0  0  0  0  0  0
  1  2  1  0
  1  6  1  0
  3  2  1  0
  4  5  1  0
  4  3  1  0
  5  1  1  0
  6  7  2  0
  7  8  1  0
  9  8  2  0
 10  9  1  0
 11  6  1  0
 11 10  2  0
 12 14  1  0
 12 13  1  0
 12  3  1  0
 14 13  1  0
 15 16  1  0
 15 14  1  0
 17 16  1  0
 18 19  1  0
 18 17  1  0
 19 20  1  0
 20 15  1  0
  2 21  1  0
  2 22  1  0
  3 23  1  1
  4 24  1  0
  4 25  1  0
  5 26  1  0
  5 27  1  0
  7 28  1  0
  8 29  1  0
 10 30  1  0
 12 31  1  6
 13 32  1  0
 13 33  1  0
 14 34  1  1
 16 35  1  0
 16 36  1  0
 17 37  1  0
 17 38  1  0
 18 39  1  0
 19 40  1  0
 19 41  1  0
 20 42  1  0
 20 43  1  0
M  ISO  8  21  13  22  13  23  13  24  13  25  13  26  13  27  13  28  14
M  ISO  8  29  14  30  14  31  13  32  13  33  13  34  13  35  13  36  13
M  ISO  7  37  13  38  13  39   5  40  13  41  13  42  13  43  13
M  END
>  <minimizedAffinity>  (1) 
-4.59095097

>  <minimizedRMSD>  (1) 
8.3501215

$$$$
