
     RDKit          3D

 34 37  0  0  1  0  0  0  0  0999 V2000
   37.1860   22.0060   33.4660 N   0  0  0  0  0  0  0  0  0  0  0  0
   36.2500   20.9070   33.6990 C   0  0  0  0  0  0  0  0  0  0  0  0
   35.1400   21.2380   32.7420 C   0  0  1  0  0  0  0  0  0  0  0  0
   35.6350   22.4070   31.9070 C   0  0  0  0  0  0  0  0  0  0  0  0
   37.1280   22.1180   32.0300 C   0  0  0  0  0  0  0  0  0  0  0  0
   37.9370   22.7340   34.4380 C   0  0  0  0  0  0  0  0  0  0  0  0
   38.4530   22.1540   35.5920 C   0  0  0  0  0  0  0  0  0  0  0  0
   39.1730   22.9420   36.4720 C   0  0  0  0  0  0  0  0  0  0  0  0
   39.3370   24.2680   36.1510 N   0  0  0  0  0  0  0  0  0  0  0  0
   38.8270   24.7960   35.0290 C   0  0  0  0  0  0  0  0  0  0  0  0
   38.1320   24.0440   34.1750 N   0  0  0  0  0  0  0  0  0  0  0  0
   35.0060   20.0620   31.8240 C   0  0  2  0  0  0  0  0  0  0  0  0
   34.8790   18.7020   32.3380 C   0  0  0  0  0  0  0  0  0  0  0  0
   36.1990   19.1960   31.7470 C   0  0  1  0  0  0  0  0  0  0  0  0
   36.5950   18.5990   30.4180 C   0  0  0  0  0  0  0  0  0  0  0  0
   36.5670   19.2600   29.2470 N   0  0  0  0  0  0  0  0  0  0  0  0
   36.9700   18.4580   28.2910 O   0  0  0  0  0  0  0  0  0  0  0  0
   37.2710   17.2650   28.7960 C   0  0  0  0  0  0  0  0  0  0  0  0
   37.0340   17.3630   30.1180 N   0  0  0  0  0  0  0  0  0  0  0  0
   36.7069   19.9350   33.4612 H   0  0  0  0  0  0  0  0  0  0  0  0
   35.9228   20.8158   34.7452 H   0  0  0  0  0  0  0  0  0  0  0  0
   34.1929   21.4673   33.2524 H   0  0  0  0  0  0  0  0  0  0  0  0
   35.3590   23.3791   32.3416 H   0  0  0  0  0  0  0  0  0  0  0  0
   35.2344   22.4818   30.8853 H   0  0  0  0  0  0  0  0  0  0  0  0
   37.4156   21.1835   31.5261 H   0  0  0  0  0  0  0  0  0  0  0  0
   37.8044   22.8553   31.5729 H   0  0  0  0  0  0  0  0  0  0  0  0
   38.2913   21.0863   35.8015 H   0  0  0  0  0  0  0  0  0  0  0  0
   39.5988   22.5223   37.3953 H   0  0  0  0  0  0  0  0  0  0  0  0
   38.9839   25.8626   34.8104 H   0  0  0  0  0  0  0  0  0  0  0  0
   34.3799   20.6285   31.1189 H   0  0  0  0  0  0  0  0  0  0  0  0
   34.7897   18.5267   33.4203 H   0  0  0  0  0  0  0  0  0  0  0  0
   34.2055   17.8533   32.1482 H   0  0  0  0  0  0  0  0  0  0  0  0
   37.2446   19.2939   32.0744 H   0  0  0  0  0  0  0  0  0  0  0  0
   37.6367   16.3836   28.2488 H   0  0  0  0  0  0  0  0  0  0  0  0
  1  2  1  0
  1  6  1  0
  3  2  1  0
  4  5  1  0
  4  3  1  0
  5  1  1  0
  6  7  2  0
  7  8  1  0
  9  8  2  0
 10  9  1  0
 11  6  1  0
 11 10  2  0
 12 13  1  0
 12  3  1  0
 14 12  1  0
 14 13  1  0
 15 14  1  0
 16 15  2  0
 17 18  1  0
 17 16  1  0
 18 19  2  0
 19 15  1  0
  2 20  1  0
  2 21  1  0
  3 22  1  1
  4 23  1  0
  4 24  1  0
  5 25  1  0
  5 26  1  0
  7 27  1  0
  8 28  1  0
 10 29  1  0
 12 30  1  6
 13 31  1  0
 13 32  1  0
 14 33  1  1
 18 34  1  0
M  ISO  8  20  13  21  13  22  13  23  13  24  13  25  13  26  13  27  14
M  ISO  7  28  14  29  14  30  13  31  13  32  13  33  13  34  14
M  END
>  <minimizedAffinity>  (1) 
-4.48120213

>  <minimizedRMSD>  (1) 
7.70051384

$$$$
