
     RDKit          3D

 43 47  0  0  1  0  0  0  0  0999 V2000
   38.1560   21.4870   32.4700 N   0  0  0  0  0  0  0  0  0  0  0  0
   38.0430   21.9780   33.8440 C   0  0  0  0  0  0  0  0  0  0  0  0
   39.4810   22.1870   34.2120 C   0  0  1  0  0  0  0  0  0  0  0  0
   40.2830   21.9750   32.9400 C   0  0  0  0  0  0  0  0  0  0  0  0
   39.1860   22.3520   31.9490 C   0  0  0  0  0  0  0  0  0  0  0  0
   37.4090   20.4390   31.8490 C   0  0  0  0  0  0  0  0  0  0  0  0
   36.4040   19.7350   32.4990 C   0  0  0  0  0  0  0  0  0  0  0  0
   35.7260   18.7340   31.8060 C   0  0  0  0  0  0  0  0  0  0  0  0
   36.1020   18.5060   30.5030 N   0  0  0  0  0  0  0  0  0  0  0  0
   37.0750   19.2030   29.9090 C   0  0  0  0  0  0  0  0  0  0  0  0
   37.7260   20.1620   30.5710 N   0  0  0  0  0  0  0  0  0  0  0  0
   39.6080   23.6500   34.5760 C   0  0  2  0  0  0  0  0  0  0  0  0
   39.9330   24.0170   35.9630 C   0  0  0  0  0  0  0  0  0  0  0  0
   38.5000   24.1730   35.4050 C   0  0  1  0  0  0  0  0  0  0  0  0
   38.0590   25.6050   35.1960 C   0  0  0  0  0  0  0  0  0  0  0  0
   38.2710   26.5950   36.1660 C   0  0  0  0  0  0  0  0  0  0  0  0
   37.8000   27.7880   35.7630 N   0  0  0  0  0  0  0  0  0  0  0  0
   37.2760   27.6080   34.5380 C   0  0  0  0  0  0  0  0  0  0  0  0
   36.6480   28.4070   33.5950 C   0  0  0  0  0  0  0  0  0  0  0  0
   36.2140   27.8920   32.3900 C   0  0  0  0  0  0  0  0  0  0  0  0
   36.3870   26.5700   32.0820 C   0  0  0  0  0  0  0  0  0  0  0  0
   37.0060   25.7450   32.9940 C   0  0  0  0  0  0  0  0  0  0  0  0
   37.4320   26.2830   34.1880 C   0  0  0  0  0  0  0  0  0  0  0  0
   37.4770   22.9202   33.8877 H   0  0  0  0  0  0  0  0  0  0  0  0
   37.5043   21.2963   34.5186 H   0  0  0  0  0  0  0  0  0  0  0  0
   39.8155   21.5242   35.0237 H   0  0  0  0  0  0  0  0  0  0  0  0
   41.1530   22.6451   32.8768 H   0  0  0  0  0  0  0  0  0  0  0  0
   40.7379   20.9820   32.8098 H   0  0  0  0  0  0  0  0  0  0  0  0
   39.4556   22.1044   30.9117 H   0  0  0  0  0  0  0  0  0  0  0  0
   38.9365   23.4212   31.8814 H   0  0  0  0  0  0  0  0  0  0  0  0
   36.1472   19.9637   33.5439 H   0  0  0  0  0  0  0  0  0  0  0  0
   34.9236   18.1506   32.2813 H   0  0  0  0  0  0  0  0  0  0  0  0
   37.3421   18.9844   28.8645 H   0  0  0  0  0  0  0  0  0  0  0  0
   40.0724   23.9262   33.6179 H   0  0  0  0  0  0  0  0  0  0  0  0
   40.1564   23.2359   36.7046 H   0  0  0  0  0  0  0  0  0  0  0  0
   40.6631   24.6805   36.4496 H   0  0  0  0  0  0  0  0  0  0  0  0
   37.4898   23.8140   35.6513 H   0  0  0  0  0  0  0  0  0  0  0  0
   38.7610   26.4179   37.1348 H   0  0  0  0  0  0  0  0  0  0  0  0
   37.8341   28.6713   36.2918 H   0  0  0  0  0  0  0  0  0  0  0  0
   36.4922   29.4741   33.8116 H   0  0  0  0  0  0  0  0  0  0  0  0
   35.7206   28.5558   31.6648 H   0  0  0  0  0  0  0  0  0  0  0  0
   36.0362   26.1717   31.1185 H   0  0  0  0  0  0  0  0  0  0  0  0
   37.1572   24.6780   32.7735 H   0  0  0  0  0  0  0  0  0  0  0  0
  1  2  1  0
  2  3  1  0
  3 12  1  0
  4  3  1  0
  5  1  1  0
  5  4  1  0
  6  1  1  0
  6  7  2  0
  8  7  1  0
  9  8  2  0
 10  9  1  0
 10 11  2  0
 11  6  1  0
 12 14  1  0
 12 13  1  0
 14 13  1  0
 15 14  1  0
 15 16  2  0
 17 16  1  0
 18 17  1  0
 19 18  2  0
 20 19  1  0
 21 20  2  0
 21 22  1  0
 22 23  2  0
 23 18  1  0
 23 15  1  0
  2 24  1  0
  2 25  1  0
  3 26  1  1
  4 27  1  0
  4 28  1  0
  5 29  1  0
  5 30  1  0
  7 31  1  0
  8 32  1  0
 10 33  1  0
 12 34  1  6
 13 35  1  0
 13 36  1  0
 14 37  1  1
 16 38  1  0
 17 39  1  0
 19 40  1  0
 20 41  1  0
 21 42  1  0
 22 43  1  0
M  ISO  8  24  13  25  13  26  13  27  13  28  13  29  13  30  13  31  14
M  ISO  8  32  14  33  14  34  13  35  13  36  13  37  13  38  14  39   9
M  ISO  4  40  14  41  14  42  14  43  14
M  END
>  <minimizedAffinity>  (1) 
-4.72631073

>  <minimizedRMSD>  (1) 
2.61382389

$$$$
