
     RDKit          3D

 36 39  0  0  1  0  0  0  0  0999 V2000
   37.6470   22.0110   34.0020 N   0  0  0  0  0  0  0  0  0  0  0  0
   37.4430   22.2360   35.4280 C   0  0  0  0  0  0  0  0  0  0  0  0
   38.8570   22.2220   35.9410 C   0  0  1  0  0  0  0  0  0  0  0  0
   39.7550   22.2390   34.7150 C   0  0  0  0  0  0  0  0  0  0  0  0
   38.7650   22.8800   33.7480 C   0  0  0  0  0  0  0  0  0  0  0  0
   36.9040   21.1620   33.1260 C   0  0  0  0  0  0  0  0  0  0  0  0
   35.7480   20.4860   33.5290 C   0  0  0  0  0  0  0  0  0  0  0  0
   35.0840   19.6860   32.6150 C   0  0  0  0  0  0  0  0  0  0  0  0
   35.6170   19.6090   31.3490 N   0  0  0  0  0  0  0  0  0  0  0  0
   36.7210   20.2660   30.9950 C   0  0  0  0  0  0  0  0  0  0  0  0
   37.3670   21.0390   31.8720 N   0  0  0  0  0  0  0  0  0  0  0  0
   39.0610   23.5330   36.6410 C   0  0  2  0  0  0  0  0  0  0  0  0
   38.3330   23.8470   37.8790 C   0  0  0  0  0  0  0  0  0  0  0  0
   37.9230   24.4670   36.5350 C   0  0  1  0  0  0  0  0  0  0  0  0
   38.2030   25.9740   36.4790 C   0  0  0  0  0  0  0  0  0  0  0  0
   39.0580   26.5660   35.4530 C   0  0  0  0  0  0  0  0  0  0  0  0
   37.5610   26.6640   35.3010 C   0  0  0  0  0  0  0  0  0  0  0  0
   36.9572   23.2048   35.6162 H   0  0  0  0  0  0  0  0  0  0  0  0
   36.7851   21.4968   35.9083 H   0  0  0  0  0  0  0  0  0  0  0  0
   39.0619   21.3622   36.5958 H   0  0  0  0  0  0  0  0  0  0  0  0
   40.6537   22.8557   34.8634 H   0  0  0  0  0  0  0  0  0  0  0  0
   40.1773   21.2708   34.4080 H   0  0  0  0  0  0  0  0  0  0  0  0
   39.1070   22.8248   32.7040 H   0  0  0  0  0  0  0  0  0  0  0  0
   38.5819   23.9558   33.8867 H   0  0  0  0  0  0  0  0  0  0  0  0
   35.3717   20.5885   34.5576 H   0  0  0  0  0  0  0  0  0  0  0  0
   34.1712   19.1365   32.8887 H   0  0  0  0  0  0  0  0  0  0  0  0
   37.1048   20.1706   29.9685 H   0  0  0  0  0  0  0  0  0  0  0  0
   40.1359   23.5541   36.4082 H   0  0  0  0  0  0  0  0  0  0  0  0
   37.6964   23.0864   38.3547 H   0  0  0  0  0  0  0  0  0  0  0  0
   38.6039   24.2346   38.8722 H   0  0  0  0  0  0  0  0  0  0  0  0
   37.0418   24.5060   35.8777 H   0  0  0  0  0  0  0  0  0  0  0  0
   38.2203   26.0649   37.5751 H   0  0  0  0  0  0  0  0  0  0  0  0
   39.6447   27.4676   35.6832 H   0  0  0  0  0  0  0  0  0  0  0  0
   39.8750   26.1911   34.8190 H   0  0  0  0  0  0  0  0  0  0  0  0
   37.0511   27.6297   35.4329 H   0  0  0  0  0  0  0  0  0  0  0  0
   36.8259   26.3902   34.5299 H   0  0  0  0  0  0  0  0  0  0  0  0
  1  2  1  0
  2  3  1  0
  3 12  1  0
  4  3  1  0
  5  1  1  0
  5  4  1  0
  6  7  2  0
  6  1  1  0
  8  7  1  0
  9  8  2  0
 10  9  1  0
 10 11  2  0
 11  6  1  0
 12 13  1  0
 14 12  1  0
 14 13  1  0
 15 14  1  0
 16 15  1  0
 17 16  1  0
 17 15  1  0
  2 18  1  0
  2 19  1  0
  3 20  1  1
  4 21  1  0
  4 22  1  0
  5 23  1  0
  5 24  1  0
  7 25  1  0
  8 26  1  0
 10 27  1  0
 12 28  1  1
 13 29  1  0
 13 30  1  0
 14 31  1  6
 15 32  1  0
 16 33  1  0
 16 34  1  0
 17 35  1  0
 17 36  1  0
M  ISO  8  18  13  19  13  20  13  21  13  22  13  23  13  24  13  25  14
M  ISO  8  26  14  27  14  28  13  29  13  30  13  31  13  32  13  33  13
M  ISO  3  34  13  35  13  36  13
M  END
>  <minimizedAffinity>  (1) 
-4.63033915

>  <minimizedRMSD>  (1) 
1.00760281

$$$$
