
     RDKit          3D

 36 38  0  0  1  0  0  0  0  0999 V2000
   37.7220   22.2760   34.2670 N   0  0  0  0  0  0  0  0  0  0  0  0
   37.5680   22.2930   35.7170 C   0  0  0  0  0  0  0  0  0  0  0  0
   38.9930   22.1430   36.1750 C   0  0  1  0  0  0  0  0  0  0  0  0
   39.8550   22.3050   34.9350 C   0  0  0  0  0  0  0  0  0  0  0  0
   38.8690   23.1310   34.1150 C   0  0  0  0  0  0  0  0  0  0  0  0
   36.9140   21.5980   33.3030 C   0  0  0  0  0  0  0  0  0  0  0  0
   35.8140   20.8200   33.6480 C   0  0  0  0  0  0  0  0  0  0  0  0
   35.0780   20.2010   32.6510 C   0  0  0  0  0  0  0  0  0  0  0  0
   35.5010   20.4070   31.3470 N   0  0  0  0  0  0  0  0  0  0  0  0
   36.5670   21.1630   31.0470 C   0  0  0  0  0  0  0  0  0  0  0  0
   37.2730   21.7570   32.0130 N   0  0  0  0  0  0  0  0  0  0  0  0
   39.2780   23.3210   37.0580 C   0  0  2  0  0  0  0  0  0  0  0  0
   38.8100   23.3640   38.4440 C   0  0  0  0  0  0  0  0  0  0  0  0
   38.0750   24.1350   37.3620 C   0  0  1  0  0  0  0  0  0  0  0  0
   38.1370   25.5610   37.3100 N   0  0  0  0  0  0  0  0  0  0  0  0
   38.0830   26.3350   36.0930 C   0  0  0  0  0  0  0  0  0  0  0  0
   37.2650   25.8700   35.2030 N   0  0  0  0  0  0  0  0  0  0  0  0
   38.9280   27.5020   36.0210 N   0  0  0  0  0  0  0  0  0  0  0  0
   37.1080   26.3040   34.2800 H   0  0  0  0  0  0  0  0  0  0  0  0
   37.1330   23.2422   36.0632 H   0  0  0  0  0  0  0  0  0  0  0  0
   36.8900   21.5180   36.1038 H   0  0  0  0  0  0  0  0  0  0  0  0
   39.1758   21.1871   36.6877 H   0  0  0  0  0  0  0  0  0  0  0  0
   40.7879   22.8500   35.1416 H   0  0  0  0  0  0  0  0  0  0  0  0
   40.2198   21.3774   34.4697 H   0  0  0  0  0  0  0  0  0  0  0  0
   39.1797   23.2295   33.0644 H   0  0  0  0  0  0  0  0  0  0  0  0
   38.7374   24.1776   34.4270 H   0  0  0  0  0  0  0  0  0  0  0  0
   35.5308   20.6972   34.7038 H   0  0  0  0  0  0  0  0  0  0  0  0
   34.2019   19.5773   32.8824 H   0  0  0  0  0  0  0  0  0  0  0  0
   36.8629   21.2953   29.9958 H   0  0  0  0  0  0  0  0  0  0  0  0
   40.2794   23.4785   36.6310 H   0  0  0  0  0  0  0  0  0  0  0  0
   38.3479   22.4746   38.8973 H   0  0  0  0  0  0  0  0  0  0  0  0
   39.2638   23.6203   39.4127 H   0  0  0  0  0  0  0  0  0  0  0  0
   37.0383   24.1799   36.9968 H   0  0  0  0  0  0  0  0  0  0  0  0
   38.2262   26.0710   38.2004 H   0  0  0  0  0  0  0  0  0  0  0  0
   38.9260   28.0878   35.1738 H   0  0  0  0  0  0  0  0  0  0  0  0
   39.5333   27.7494   36.8168 H   0  0  0  0  0  0  0  0  0  0  0  0
  1  2  1  0
  2  3  1  0
  3 12  1  0
  4  3  1  0
  5  1  1  0
  5  4  1  0
  6  7  2  0
  6  1  1  0
  8  7  1  0
  9  8  2  0
 10  9  1  0
 10 11  2  0
 11  6  1  0
 12 14  1  0
 12 13  1  0
 14 13  1  0
 15 14  1  0
 16 15  1  0
 17 16  2  0
 18 16  1  0
 19 17  1  0
  2 20  1  0
  2 21  1  0
  3 22  1  1
  4 23  1  0
  4 24  1  0
  5 25  1  0
  5 26  1  0
  7 27  1  0
  8 28  1  0
 10 29  1  0
 12 30  1  1
 13 31  1  0
 13 32  1  0
 14 33  1  6
 15 34  1  0
 18 35  1  0
 18 36  1  0
M  ISO  8  20  13  21  13  22  13  23  13  24  13  25  13  26  13  27  14
M  ISO  6  28  14  29  14  30  13  31  13  32  13  33  13
M  END
>  <minimizedAffinity>  (1) 
-4.88572693

>  <minimizedRMSD>  (1) 
0.953426123

$$$$
