
     RDKit          3D

 45 48  0  0  1  0  0  0  0  0999 V2000
   37.7200   21.5000   33.4790 N   0  0  0  0  0  0  0  0  0  0  0  0
   37.5580   21.8070   34.8970 C   0  0  0  0  0  0  0  0  0  0  0  0
   38.9860   21.9660   35.3380 C   0  0  1  0  0  0  0  0  0  0  0  0
   39.8270   21.9620   34.0720 C   0  0  0  0  0  0  0  0  0  0  0  0
   38.7450   22.4400   33.1110 C   0  0  0  0  0  0  0  0  0  0  0  0
   37.0220   20.5400   32.6910 C   0  0  0  0  0  0  0  0  0  0  0  0
   35.7540   20.0550   33.0700 C   0  0  0  0  0  0  0  0  0  0  0  0
   35.1310   19.1220   32.2320 C   0  0  0  0  0  0  0  0  0  0  0  0
   35.8080   18.7480   31.0970 N   0  0  0  0  0  0  0  0  0  0  0  0
   37.0110   19.2340   30.7790 C   0  0  0  0  0  0  0  0  0  0  0  0
   37.6120   20.1210   31.5660 N   0  0  0  0  0  0  0  0  0  0  0  0
   39.0950   23.3400   35.9290 C   0  0  2  0  0  0  0  0  0  0  0  0
   38.7420   23.6020   37.3180 C   0  0  0  0  0  0  0  0  0  0  0  0
   37.7670   23.9630   36.1900 C   0  0  1  0  0  0  0  0  0  0  0  0
   37.5500   25.4340   35.9330 C   0  0  0  0  0  0  0  0  0  0  0  0
   37.2670   25.6910   34.4670 C   0  0  0  0  0  0  0  0  0  0  0  0
   36.8210   27.0890   34.2130 C   0  0  0  0  0  0  0  0  0  0  0  0
   37.9890   27.9950   34.5720 C   0  0  0  0  0  0  0  0  0  0  0  0
   38.3540   27.7320   35.9970 C   0  0  0  0  0  0  0  0  0  0  0  0
   38.6930   26.3110   36.3170 C   0  0  0  0  0  0  0  0  0  0  0  0
   36.9870   22.7357   35.0438 H   0  0  0  0  0  0  0  0  0  0  0  0
   36.9990   21.0440   35.4586 H   0  0  0  0  0  0  0  0  0  0  0  0
   39.2994   21.1848   36.0462 H   0  0  0  0  0  0  0  0  0  0  0  0
   40.6740   22.6615   34.1300 H   0  0  0  0  0  0  0  0  0  0  0  0
   40.3193   21.0118   33.8174 H   0  0  0  0  0  0  0  0  0  0  0  0
   39.0472   22.3360   32.0584 H   0  0  0  0  0  0  0  0  0  0  0  0
   38.4724   23.5033   33.1816 H   0  0  0  0  0  0  0  0  0  0  0  0
   35.2688   20.3988   33.9954 H   0  0  0  0  0  0  0  0  0  0  0  0
   34.1414   18.7063   32.4725 H   0  0  0  0  0  0  0  0  0  0  0  0
   37.5088   18.8972   29.8577 H   0  0  0  0  0  0  0  0  0  0  0  0
   40.0116   23.5818   35.3709 H   0  0  0  0  0  0  0  0  0  0  0  0
   38.5150   22.7659   37.9958 H   0  0  0  0  0  0  0  0  0  0  0  0
   39.2077   24.1492   38.1509 H   0  0  0  0  0  0  0  0  0  0  0  0
   36.7338   23.7229   35.8988 H   0  0  0  0  0  0  0  0  0  0  0  0
   36.6927   25.6911   36.5725 H   0  0  0  0  0  0  0  0  0  0  0  0
   38.1853   25.5028   33.8914 H   0  0  0  0  0  0  0  0  0  0  0  0
   36.4537   25.0175   34.1587 H   0  0  0  0  0  0  0  0  0  0  0  0
   36.5558   27.2152   33.1529 H   0  0  0  0  0  0  0  0  0  0  0  0
   35.9320   27.3348   34.8125 H   0  0  0  0  0  0  0  0  0  0  0  0
   38.8470   27.7747   33.9198 H   0  0  0  0  0  0  0  0  0  0  0  0
   37.7106   29.0505   34.4366 H   0  0  0  0  0  0  0  0  0  0  0  0
   39.2268   28.3539   36.2448 H   0  0  0  0  0  0  0  0  0  0  0  0
   37.4594   27.9728   36.5901 H   0  0  0  0  0  0  0  0  0  0  0  0
   38.8854   26.2129   37.3956 H   0  0  0  0  0  0  0  0  0  0  0  0
   39.5918   26.0114   35.7580 H   0  0  0  0  0  0  0  0  0  0  0  0
  1  2  1  0
  2  3  1  0
  3 12  1  0
  4  3  1  0
  5  1  1  0
  5  4  1  0
  6  7  2  0
  6  1  1  0
  8  7  1  0
  9  8  2  0
 10  9  1  0
 10 11  2  0
 11  6  1  0
 12 14  1  0
 12 13  1  0
 14 13  1  0
 15 14  1  0
 15 20  1  0
 16 15  1  0
 17 16  1  0
 17 18  1  0
 18 19  1  0
 19 20  1  0
  2 21  1  0
  2 22  1  0
  3 23  1  1
  4 24  1  0
  4 25  1  0
  5 26  1  0
  5 27  1  0
  7 28  1  0
  8 29  1  0
 10 30  1  0
 12 31  1  6
 13 32  1  0
 13 33  1  0
 14 34  1  1
 15 35  1  0
 16 36  1  0
 16 37  1  0
 17 38  1  0
 17 39  1  0
 18 40  1  0
 18 41  1  0
 19 42  1  0
 19 43  1  0
 20 44  1  0
 20 45  1  0
M  ISO  8  21  13  22  13  23  13  24  13  25  13  26  13  27  13  28  14
M  ISO  8  29  14  30  14  31  13  32  13  33  13  34  13  35  13  36  13
M  ISO  8  37  13  38  13  39  13  40  13  41  13  42  13  43  13  44  13
M  ISO  1  45  13
M  END
>  <minimizedAffinity>  (1) 
-4.00272274

>  <minimizedRMSD>  (1) 
1.72987831

$$$$
