
     RDKit          3D

 35 38  0  0  1  0  0  0  0  0999 V2000
   37.7670   21.3220   32.9050 N   0  0  0  0  0  0  0  0  0  0  0  0
   37.6760   22.1060   34.1360 C   0  0  0  0  0  0  0  0  0  0  0  0
   39.1120   22.4680   34.3770 C   0  0  1  0  0  0  0  0  0  0  0  0
   39.8820   21.9970   33.1540 C   0  0  0  0  0  0  0  0  0  0  0  0
   38.7340   22.0770   32.1530 C   0  0  0  0  0  0  0  0  0  0  0  0
   37.0590   20.1360   32.5540 C   0  0  0  0  0  0  0  0  0  0  0  0
   35.7370   19.9020   32.9830 C   0  0  0  0  0  0  0  0  0  0  0  0
   35.1030   18.7270   32.5930 C   0  0  0  0  0  0  0  0  0  0  0  0
   35.8250   17.8620   31.8030 N   0  0  0  0  0  0  0  0  0  0  0  0
   37.0780   18.1210   31.4200 C   0  0  0  0  0  0  0  0  0  0  0  0
   37.7070   19.2460   31.7830 N   0  0  0  0  0  0  0  0  0  0  0  0
   39.1810   23.9620   34.3950 C   0  0  2  0  0  0  0  0  0  0  0  0
   39.3360   24.7140   35.6350 C   0  0  0  0  0  0  0  0  0  0  0  0
   37.9790   24.6370   34.9330 C   0  0  1  0  0  0  0  0  0  0  0  0
   37.4850   25.9100   34.2880 C   0  0  0  0  0  0  0  0  0  0  0  0
   37.5030   25.9750   32.8890 C   0  0  0  0  0  0  0  0  0  0  0  0
   36.8150   27.6960   32.6350 S   0  0  0  0  0  0  0  0  0  0  0  0
   36.6400   27.9810   34.5060 C   0  0  0  0  0  0  0  0  0  0  0  0
   37.0610   26.9010   35.0130 N   0  0  0  0  0  0  0  0  0  0  0  0
   37.0553   23.0030   33.9945 H   0  0  0  0  0  0  0  0  0  0  0  0
   37.2060   21.5682   34.9726 H   0  0  0  0  0  0  0  0  0  0  0  0
   39.5063   22.0314   35.3065 H   0  0  0  0  0  0  0  0  0  0  0  0
   40.7109   22.6723   32.8954 H   0  0  0  0  0  0  0  0  0  0  0  0
   40.3864   21.0233   33.2406 H   0  0  0  0  0  0  0  0  0  0  0  0
   38.9823   21.5994   31.1937 H   0  0  0  0  0  0  0  0  0  0  0  0
   38.4277   23.0880   31.8463 H   0  0  0  0  0  0  0  0  0  0  0  0
   35.2157   20.6358   33.6152 H   0  0  0  0  0  0  0  0  0  0  0  0
   34.0720   18.4997   32.9018 H   0  0  0  0  0  0  0  0  0  0  0  0
   37.6071   17.3910   30.7898 H   0  0  0  0  0  0  0  0  0  0  0  0
   39.7645   23.9830   33.4627 H   0  0  0  0  0  0  0  0  0  0  0  0
   39.4965   24.1840   36.5855 H   0  0  0  0  0  0  0  0  0  0  0  0
   39.9928   25.5261   35.9800 H   0  0  0  0  0  0  0  0  0  0  0  0
   36.9577   24.3116   35.1799 H   0  0  0  0  0  0  0  0  0  0  0  0
   37.8287   25.2276   32.1505 H   0  0  0  0  0  0  0  0  0  0  0  0
   36.2620   28.8740   35.0253 H   0  0  0  0  0  0  0  0  0  0  0  0
  1  2  1  0
  2  3  1  0
  3 12  1  0
  4  3  1  0
  5  1  1  0
  5  4  1  0
  6  1  1  0
  6  7  2  0
  8  7  1  0
  9  8  2  0
 10 11  2  0
 10  9  1  0
 11  6  1  0
 12 14  1  0
 12 13  1  0
 14 13  1  0
 15 14  1  0
 15 19  1  0
 16 15  2  0
 17 16  1  0
 17 18  1  0
 18 19  2  0
  2 20  1  0
  2 21  1  0
  3 22  1  1
  4 23  1  0
  4 24  1  0
  5 25  1  0
  5 26  1  0
  7 27  1  0
  8 28  1  0
 10 29  1  0
 12 30  1  6
 13 31  1  0
 13 32  1  0
 14 33  1  1
 16 34  1  0
 18 35  1  0
M  ISO  8  20  13  21  13  22  13  23  13  24  13  25  13  26  13  27  14
M  ISO  8  28  14  29  14  30  13  31  13  32  13  33  13  34  14  35  14
M  END
>  <minimizedAffinity>  (1) 
-3.85969734

>  <minimizedRMSD>  (1) 
2.78542304

$$$$
