
     RDKit          3D

 31 33  0  0  1  0  0  0  0  0999 V2000
   37.4630   22.2920   34.2420 N   0  0  0  0  0  0  0  0  0  0  0  0
   37.6750   22.0270   35.6630 C   0  0  0  0  0  0  0  0  0  0  0  0
   39.1590   22.2190   35.7890 C   0  0  1  0  0  0  0  0  0  0  0  0
   39.6320   22.7890   34.4610 C   0  0  0  0  0  0  0  0  0  0  0  0
   38.3160   23.4320   34.0400 C   0  0  0  0  0  0  0  0  0  0  0  0
   36.6180   21.6080   33.3230 C   0  0  0  0  0  0  0  0  0  0  0  0
   35.8280   20.5090   33.7190 C   0  0  0  0  0  0  0  0  0  0  0  0
   35.0080   19.8940   32.7720 C   0  0  0  0  0  0  0  0  0  0  0  0
   35.0330   20.4140   31.5010 N   0  0  0  0  0  0  0  0  0  0  0  0
   35.7930   21.4530   31.1670 C   0  0  0  0  0  0  0  0  0  0  0  0
   36.5860   22.0580   32.0630 N   0  0  0  0  0  0  0  0  0  0  0  0
   39.3640   23.2900   36.8180 C   0  0  2  0  0  0  0  0  0  0  0  0
   39.9280   22.9830   38.1300 C   0  0  0  0  0  0  0  0  0  0  0  0
   38.4200   23.2010   37.9600 C   0  0  1  0  0  0  0  0  0  0  0  0
   37.8550   24.4260   38.5150 N   0  0  0  0  0  0  0  0  0  0  0  0
   37.1232   22.7418   36.2911 H   0  0  0  0  0  0  0  0  0  0  0  0
   37.3228   21.0378   35.9907 H   0  0  0  0  0  0  0  0  0  0  0  0
   39.6825   21.2878   36.0514 H   0  0  0  0  0  0  0  0  0  0  0  0
   40.4378   23.5274   34.5855 H   0  0  0  0  0  0  0  0  0  0  0  0
   40.0730   22.0724   33.7524 H   0  0  0  0  0  0  0  0  0  0  0  0
   38.3300   23.7612   32.9905 H   0  0  0  0  0  0  0  0  0  0  0  0
   38.0325   24.3486   34.5781 H   0  0  0  0  0  0  0  0  0  0  0  0
   35.8576   20.1430   34.7559 H   0  0  0  0  0  0  0  0  0  0  0  0
   34.3724   19.0344   33.0309 H   0  0  0  0  0  0  0  0  0  0  0  0
   35.7705   21.8246   30.1319 H   0  0  0  0  0  0  0  0  0  0  0  0
   39.6588   24.0406   36.0699 H   0  0  0  0  0  0  0  0  0  0  0  0
   40.3197   21.9769   38.3404 H   0  0  0  0  0  0  0  0  0  0  0  0
   40.7140   23.4190   38.7641 H   0  0  0  0  0  0  0  0  0  0  0  0
   37.4998   22.6353   38.1676 H   0  0  0  0  0  0  0  0  0  0  0  0
   37.8768   24.3788   39.5437 H   0  0  0  0  0  0  0  0  0  0  0  0
   38.4083   25.2343   38.1966 H   0  0  0  0  0  0  0  0  0  0  0  0
  1  2  1  0
  2  3  1  0
  3 12  1  0
  4  3  1  0
  5  1  1  0
  5  4  1  0
  6  7  2  0
  6  1  1  0
  8  7  1  0
  9  8  2  0
 10  9  1  0
 10 11  2  0
 11  6  1  0
 12 14  1  0
 12 13  1  0
 14 13  1  0
 14 15  1  0
  2 16  1  0
  2 17  1  0
  3 18  1  1
  4 19  1  0
  4 20  1  0
  5 21  1  0
  5 22  1  0
  7 23  1  0
  8 24  1  0
 10 25  1  0
 12 26  1  6
 13 27  1  0
 13 28  1  0
 14 29  1  6
 15 30  1  0
 15 31  1  0
M  ISO  8  16  13  17  13  18  13  19  13  20  13  21  13  22  13  23  14
M  ISO  8  24  14  25  14  26  13  27  13  28  13  29  13  30   5  31   5
M  END
>  <minimizedAffinity>  (1) 
-4.14602518

>  <minimizedRMSD>  (1) 
0.702596128

$$$$
