
     RDKit          3D

 33 35  0  0  1  0  0  0  0  0999 V2000
   38.0440   22.9690   34.0300 N   0  0  0  0  0  0  0  0  0  0  0  0
   39.0430   22.2240   34.7750 C   0  0  0  0  0  0  0  0  0  0  0  0
   40.1910   23.1850   34.8110 C   0  0  1  0  0  0  0  0  0  0  0  0
   39.6660   24.5010   34.2370 C   0  0  0  0  0  0  0  0  0  0  0  0
   38.1990   24.2920   34.5890 C   0  0  0  0  0  0  0  0  0  0  0  0
   37.1530   22.4940   33.0160 C   0  0  0  0  0  0  0  0  0  0  0  0
   36.7940   21.1440   32.9120 C   0  0  0  0  0  0  0  0  0  0  0  0
   35.9200   20.7590   31.8950 C   0  0  0  0  0  0  0  0  0  0  0  0
   35.4710   21.7460   31.0610 N   0  0  0  0  0  0  0  0  0  0  0  0
   35.8330   23.0290   31.1860 C   0  0  0  0  0  0  0  0  0  0  0  0
   36.6700   23.4090   32.1570 N   0  0  0  0  0  0  0  0  0  0  0  0
   40.5070   23.4250   36.2470 C   0  0  2  0  0  0  0  0  0  0  0  0
   41.5240   22.6230   36.9380 C   0  0  0  0  0  0  0  0  0  0  0  0
   40.0340   22.3610   37.1560 C   0  0  1  0  0  0  0  0  0  0  0  0
   39.4620   22.7250   38.4410 N   0  0  0  0  0  0  0  0  0  0  0  0
   38.2180   23.4140   38.4940 C   0  0  0  0  0  0  0  0  0  0  0  0
   38.0580   24.6530   38.7550 O   0  0  0  0  0  0  0  0  0  0  0  0
   38.6895   21.9865   35.7892 H   0  0  0  0  0  0  0  0  0  0  0  0
   39.2945   21.2515   34.3266 H   0  0  0  0  0  0  0  0  0  0  0  0
   41.0677   22.8137   34.2600 H   0  0  0  0  0  0  0  0  0  0  0  0
   39.8302   24.5811   33.1523 H   0  0  0  0  0  0  0  0  0  0  0  0
   40.1343   25.4219   34.6147 H   0  0  0  0  0  0  0  0  0  0  0  0
   37.5445   25.0295   34.1015 H   0  0  0  0  0  0  0  0  0  0  0  0
   37.9377   24.4003   35.6520 H   0  0  0  0  0  0  0  0  0  0  0  0
   37.1935   20.4017   33.6186 H   0  0  0  0  0  0  0  0  0  0  0  0
   35.6069   19.7120   31.7698 H   0  0  0  0  0  0  0  0  0  0  0  0
   35.4381   23.7775   30.4833 H   0  0  0  0  0  0  0  0  0  0  0  0
   40.3846   24.5142   36.1538 H   0  0  0  0  0  0  0  0  0  0  0  0
   42.1354   21.9021   36.3755 H   0  0  0  0  0  0  0  0  0  0  0  0
   42.3846   22.8401   37.5878 H   0  0  0  0  0  0  0  0  0  0  0  0
   39.3552   21.5007   37.0608 H   0  0  0  0  0  0  0  0  0  0  0  0
   39.9561   22.4847   39.3122 H   0  0  0  0  0  0  0  0  0  0  0  0
   37.3114   22.8248   38.2915 H   0  0  0  0  0  0  0  0  0  0  0  0
  1  5  1  0
  1  2  1  0
  2  3  1  0
  3 12  1  0
  4  5  1  0
  4  3  1  0
  6  1  1  0
  7  6  2  0
  8  7  1  0
  9 10  1  0
  9  8  2  0
 10 11  2  0
 11  6  1  0
 12 13  1  0
 12 14  1  0
 13 14  1  0
 14 15  1  0
 15 16  1  0
 16 17  2  0
  2 18  1  0
  2 19  1  0
  3 20  1  6
  4 21  1  0
  4 22  1  0
  5 23  1  0
  5 24  1  0
  7 25  1  0
  8 26  1  0
 10 27  1  0
 12 28  1  1
 13 29  1  0
 13 30  1  0
 14 31  1  6
 15 32  1  0
 16 33  1  0
M  ISO  8  18  13  19  13  20  13  21  13  22  13  23  13  24  13  25  14
M  ISO  7  26  14  27  14  28  13  29  13  30  13  31  13  33   6
M  END
>  <minimizedAffinity>  (1) 
-4.71171379

>  <minimizedRMSD>  (1) 
1.68316126

$$$$
