
     RDKit          3D

 32 35  0  0  0  0  0  0  0  0999 V2000
   39.8870   22.6570   37.5850 C   0  0  0  0  0  0  0  0  0  0  0  0
   39.1890   23.4410   38.5230 C   0  0  0  0  0  0  0  0  0  0  0  0
   37.8260   23.6630   38.3270 C   0  0  0  0  0  0  0  0  0  0  0  0
   37.2350   23.1050   37.2290 N   0  0  0  0  0  0  0  0  0  0  0  0
   37.9410   22.3530   36.3450 C   0  0  0  0  0  0  0  0  0  0  0  0
   39.2490   22.1400   36.5310 N   0  0  0  0  0  0  0  0  0  0  0  0
   37.3050   21.7840   35.2120 N   0  0  0  0  0  0  0  0  0  0  0  0
   37.9850   21.9460   34.0630 C   0  0  0  0  0  0  0  0  0  0  0  0
   37.4330   21.4230   32.9070 C   0  0  0  0  0  0  0  0  0  0  0  0
   36.2340   20.7830   33.0460 C   0  0  0  0  0  0  0  0  0  0  0  0
   35.5330   20.1910   31.9610 N   0  0  0  0  0  0  0  0  0  0  0  0
   35.5830   20.6390   34.2050 N   0  0  0  0  0  0  0  0  0  0  0  0
   36.1320   21.1570   35.3410 C   0  0  0  0  0  0  0  0  0  0  0  0
   35.6120   21.0840   36.4870 O   0  0  0  0  0  0  0  0  0  0  0  0
   38.0440   21.5260   31.6500 N   0  0  0  0  0  0  0  0  0  0  0  0
   38.4050   20.4230   30.9570 C   0  0  0  0  0  0  0  0  0  0  0  0
   38.9660   20.7970   29.7910 N   0  0  0  0  0  0  0  0  0  0  0  0
   38.9770   22.1420   29.7100 C   0  0  0  0  0  0  0  0  0  0  0  0
   39.3980   23.1210   28.8030 C   0  0  0  0  0  0  0  0  0  0  0  0
   39.2150   24.4210   29.1230 N   0  0  0  0  0  0  0  0  0  0  0  0
   38.6490   24.8220   30.2660 C   0  0  0  0  0  0  0  0  0  0  0  0
   38.2320   23.8830   31.1630 N   0  0  0  0  0  0  0  0  0  0  0  0
   38.3950   22.5710   30.8850 C   0  0  0  0  0  0  0  0  0  0  0  0
   40.9624   22.4692   37.7204 H   0  0  0  0  0  0  0  0  0  0  0  0
   39.7080   23.8699   39.3929 H   0  0  0  0  0  0  0  0  0  0  0  0
   37.2438   24.2698   39.0361 H   0  0  0  0  0  0  0  0  0  0  0  0
   38.9483   22.4768   34.0429 H   0  0  0  0  0  0  0  0  0  0  0  0
   34.6314   19.7210   32.1255 H   0  0  0  0  0  0  0  0  0  0  0  0
   35.9265   20.2319   31.0100 H   0  0  0  0  0  0  0  0  0  0  0  0
   38.2631   19.3849   31.2921 H   0  0  0  0  0  0  0  0  0  0  0  0
   39.8680   22.8382   27.8495 H   0  0  0  0  0  0  0  0  0  0  0  0
   38.5215   25.8935   30.4798 H   0  0  0  0  0  0  0  0  0  0  0  0
  1  2  2  0
  3  2  1  0
  4  3  2  0
  5  6  2  0
  5  4  1  0
  6  1  1  0
  7 13  1  0
  7  5  1  0
  8  7  1  0
  9 10  1  0
  9  8  2  0
 10 12  2  0
 11 10  1  0
 12 13  1  0
 13 14  2  0
 15  9  1  0
 16 15  1  0
 17 16  2  0
 18 17  1  0
 18 23  2  0
 19 20  2  0
 19 18  1  0
 20 21  1  0
 21 22  2  0
 23 22  1  0
 23 15  1  0
  1 24  1  0
  2 25  1  0
  3 26  1  0
  8 27  1  0
 11 28  1  0
 11 29  1  0
 16 30  1  0
 19 31  1  0
 21 32  1  0
M  ISO  7  24  14  25  14  26  14  27  14  30  14  31  14  32  14
M  END
>  <minimizedAffinity>  (1) 
-5.39587641

>  <minimizedRMSD>  (1) 
0.993399322

$$$$
