
     RDKit          3D

 44 47  0  0  1  0  0  0  0  0999 V2000
   37.7500   22.7980   34.0930 N   0  0  0  0  0  0  0  0  0  0  0  0
   37.1830   21.4720   33.8110 C   0  0  0  0  0  0  0  0  0  0  0  0
   36.4520   21.7240   32.5360 C   0  0  1  0  0  0  0  0  0  0  0  0
   36.8070   23.1430   32.0940 C   0  0  0  0  0  0  0  0  0  0  0  0
   38.1580   23.2310   32.7770 C   0  0  0  0  0  0  0  0  0  0  0  0
   37.8660   23.4720   35.3420 C   0  0  0  0  0  0  0  0  0  0  0  0
   37.7370   22.7910   36.5640 C   0  0  0  0  0  0  0  0  0  0  0  0
   37.8540   23.4760   37.7630 C   0  0  0  0  0  0  0  0  0  0  0  0
   38.0970   24.8220   37.6600 N   0  0  0  0  0  0  0  0  0  0  0  0
   38.2180   25.4520   36.4820 C   0  0  0  0  0  0  0  0  0  0  0  0
   38.1020   24.7790   35.3300 N   0  0  0  0  0  0  0  0  0  0  0  0
   37.0240   20.8000   31.4980 C   0  0  2  0  0  0  0  0  0  0  0  0
   36.1830   20.2430   30.4470 C   0  0  0  0  0  0  0  0  0  0  0  0
   36.5710   19.3910   31.6710 C   0  0  1  0  0  0  0  0  0  0  0  0
   37.5010   18.3010   31.4580 N   0  0  0  0  0  0  0  0  0  0  0  0
   36.8150   17.0210   31.4720 C   0  0  0  0  0  0  0  0  0  0  0  0
   37.6260   15.9740   32.2150 C   0  0  0  0  0  0  0  0  0  0  0  0
   36.5990   14.9220   32.6470 C   0  0  0  0  0  0  0  0  0  0  0  0
   35.2790   15.6590   32.7310 C   0  0  0  0  0  0  0  0  0  0  0  0
   35.5430   17.0710   32.2570 C   0  0  0  0  0  0  0  0  0  0  0  0
   37.9726   20.7176   33.6788 H   0  0  0  0  0  0  0  0  0  0  0  0
   36.5507   21.0745   34.6186 H   0  0  0  0  0  0  0  0  0  0  0  0
   35.3682   21.5818   32.6587 H   0  0  0  0  0  0  0  0  0  0  0  0
   36.8839   23.2340   31.0005 H   0  0  0  0  0  0  0  0  0  0  0  0
   36.0803   23.9288   32.3478 H   0  0  0  0  0  0  0  0  0  0  0  0
   38.8972   22.5524   32.3262 H   0  0  0  0  0  0  0  0  0  0  0  0
   38.6607   24.2081   32.7259 H   0  0  0  0  0  0  0  0  0  0  0  0
   37.5421   21.7084   36.5691 H   0  0  0  0  0  0  0  0  0  0  0  0
   37.7580   22.9720   38.7360 H   0  0  0  0  0  0  0  0  0  0  0  0
   38.4148   26.5341   36.4620 H   0  0  0  0  0  0  0  0  0  0  0  0
   37.9800   21.3402   31.4333 H   0  0  0  0  0  0  0  0  0  0  0  0
   35.1476   20.5939   30.3254 H   0  0  0  0  0  0  0  0  0  0  0  0
   36.2701   20.1278   29.3565 H   0  0  0  0  0  0  0  0  0  0  0  0
   36.0510   18.8322   32.4631 H   0  0  0  0  0  0  0  0  0  0  0  0
   38.2093   18.3117   32.2057 H   0  0  0  0  0  0  0  0  0  0  0  0
   36.6503   16.7830   30.4108 H   0  0  0  0  0  0  0  0  0  0  0  0
   38.3833   15.5282   31.5533 H   0  0  0  0  0  0  0  0  0  0  0  0
   38.1714   16.3994   33.0703 H   0  0  0  0  0  0  0  0  0  0  0  0
   36.5413   14.1128   31.9042 H   0  0  0  0  0  0  0  0  0  0  0  0
   36.8692   14.4565   33.6063 H   0  0  0  0  0  0  0  0  0  0  0  0
   34.5320   15.1749   32.0848 H   0  0  0  0  0  0  0  0  0  0  0  0
   34.8847   15.6519   33.7579 H   0  0  0  0  0  0  0  0  0  0  0  0
   35.6533   17.7470   33.1177 H   0  0  0  0  0  0  0  0  0  0  0  0
   34.7108   17.4487   31.6449 H   0  0  0  0  0  0  0  0  0  0  0  0
  1  6  1  0
  2  1  1  0
  3  2  1  0
  4  3  1  0
  4  5  1  0
  5  1  1  0
  6  7  2  0
  7  8  1  0
  9  8  2  0
 10  9  1  0
 11  6  1  0
 11 10  2  0
 12 14  1  0
 12  3  1  0
 13 12  1  0
 13 14  1  0
 15 16  1  0
 15 14  1  0
 16 17  1  0
 16 20  1  0
 17 18  1  0
 18 19  1  0
 20 19  1  0
  2 21  1  0
  2 22  1  0
  3 23  1  1
  4 24  1  0
  4 25  1  0
  5 26  1  0
  5 27  1  0
  7 28  1  0
  8 29  1  0
 10 30  1  0
 12 31  1  6
 13 32  1  0
 13 33  1  0
 14 34  1  1
 15 35  1  0
 16 36  1  0
 17 37  1  0
 17 38  1  0
 18 39  1  0
 18 40  1  0
 19 41  1  0
 19 42  1  0
 20 43  1  0
 20 44  1  0
M  ISO  8  21  13  22  13  23  13  24  13  25  13  26  13  27  13  28  14
M  ISO  8  29  14  30  14  31  13  32  13  33  13  34  13  35   5  36  13
M  ISO  8  37  13  38  13  39  13  40  13  41  13  42  13  43  13  44  13
M  END
>  <minimizedAffinity>  (1) 
-4.166049

>  <minimizedRMSD>  (1) 
7.42848682

$$$$
