
     RDKit          3D

 40 42  0  0  1  0  0  0  0  0999 V2000
   38.2250   23.2680   34.0830 N   0  0  0  0  0  0  0  0  0  0  0  0
   39.1670   22.3590   34.7410 C   0  0  0  0  0  0  0  0  0  0  0  0
   40.3880   23.2140   34.8610 C   0  0  1  0  0  0  0  0  0  0  0  0
   39.9960   24.6010   34.4110 C   0  0  0  0  0  0  0  0  0  0  0  0
   38.5070   24.5060   34.7630 C   0  0  0  0  0  0  0  0  0  0  0  0
   37.2910   22.9810   33.0470 C   0  0  0  0  0  0  0  0  0  0  0  0
   36.6930   21.7170   32.9120 C   0  0  0  0  0  0  0  0  0  0  0  0
   35.7860   21.4970   31.8810 C   0  0  0  0  0  0  0  0  0  0  0  0
   35.5360   22.5620   31.0430 N   0  0  0  0  0  0  0  0  0  0  0  0
   36.1230   23.7470   31.2010 C   0  0  0  0  0  0  0  0  0  0  0  0
   36.9960   23.9600   32.1950 N   0  0  0  0  0  0  0  0  0  0  0  0
   40.7340   23.2750   36.3180 C   0  0  2  0  0  0  0  0  0  0  0  0
   41.4090   22.1740   36.9920 C   0  0  0  0  0  0  0  0  0  0  0  0
   39.8900   22.3860   37.1730 C   0  0  1  0  0  0  0  0  0  0  0  0
   39.4650   22.8600   38.4670 N   0  0  0  0  0  0  0  0  0  0  0  0
   38.0960   23.2640   38.5270 C   0  0  0  0  0  0  0  0  0  0  0  0
   38.0170   24.7640   38.4810 C   0  0  0  0  0  0  0  0  0  0  0  0
   37.2140   22.6660   37.4950 C   0  0  0  0  0  0  0  0  0  0  0  0
   38.7981   22.0473   35.7293 H   0  0  0  0  0  0  0  0  0  0  0  0
   39.3342   21.4197   34.1936 H   0  0  0  0  0  0  0  0  0  0  0  0
   41.2307   22.8276   34.2689 H   0  0  0  0  0  0  0  0  0  0  0  0
   40.1638   24.7561   33.3350 H   0  0  0  0  0  0  0  0  0  0  0  0
   40.5528   25.4369   34.8596 H   0  0  0  0  0  0  0  0  0  0  0  0
   37.9271   25.3475   34.3561 H   0  0  0  0  0  0  0  0  0  0  0  0
   38.2588   24.5385   35.8341 H   0  0  0  0  0  0  0  0  0  0  0  0
   36.9400   20.9084   33.6156 H   0  0  0  0  0  0  0  0  0  0  0  0
   35.2936   20.5233   31.7416 H   0  0  0  0  0  0  0  0  0  0  0  0
   35.8872   24.5646   30.5039 H   0  0  0  0  0  0  0  0  0  0  0  0
   40.9892   24.3439   36.2699 H   0  0  0  0  0  0  0  0  0  0  0  0
   41.7803   21.3170   36.4110 H   0  0  0  0  0  0  0  0  0  0  0  0
   42.2704   22.0855   37.6704 H   0  0  0  0  0  0  0  0  0  0  0  0
   38.9672   21.8072   37.0199 H   0  0  0  0  0  0  0  0  0  0  0  0
   39.6076   22.1026   39.1503 H   0  0  0  0  0  0  0  0  0  0  0  0
   37.7096   22.8762   39.4811 H   0  0  0  0  0  0  0  0  0  0  0  0
   37.9961   25.1617   39.5064 H   0  0  0  0  0  0  0  0  0  0  0  0
   38.8955   25.1614   37.9515 H   0  0  0  0  0  0  0  0  0  0  0  0
   37.1017   25.0669   37.9515 H   0  0  0  0  0  0  0  0  0  0  0  0
   36.3988   22.1133   37.9849 H   0  0  0  0  0  0  0  0  0  0  0  0
   36.7906   23.4640   36.8674 H   0  0  0  0  0  0  0  0  0  0  0  0
   37.7986   21.9772   36.8674 H   0  0  0  0  0  0  0  0  0  0  0  0
  1  2  1  0
  1  5  1  0
  2  3  1  0
  3 12  1  0
  4  5  1  0
  4  3  1  0
  6  1  1  0
  7  6  2  0
  8  7  1  0
  9 10  1  0
  9  8  2  0
 10 11  2  0
 11  6  1  0
 12 13  1  0
 12 14  1  0
 13 14  1  0
 14 15  1  0
 15 16  1  0
 17 16  1  0
 18 16  1  0
  2 19  1  0
  2 20  1  0
  3 21  1  6
  4 22  1  0
  4 23  1  0
  5 24  1  0
  5 25  1  0
  7 26  1  0
  8 27  1  0
 10 28  1  0
 12 29  1  1
 13 30  1  0
 13 31  1  0
 14 32  1  6
 15 33  1  0
 16 34  1  0
 17 35  1  0
 17 36  1  0
 17 37  1  0
 18 38  1  0
 18 39  1  0
 18 40  1  0
M  ISO  8  19  13  20  13  21  13  22  13  23  13  24  13  25  13  26  14
M  ISO  8  27  14  28  14  29  13  30  13  31  13  32  13  33   5  34   8
M  ISO  6  35   8  36   8  37   8  38   8  39   8  40   8
M  END
>  <minimizedAffinity>  (1) 
-4.44828367

>  <minimizedRMSD>  (1) 
1.91708124

$$$$
