
     RDKit          3D

 32 34  0  0  0  0  0  0  0  0999 V2000
   39.8900   22.7480   37.4650 C   0  0  0  0  0  0  0  0  0  0  0  0
   39.1410   23.2760   38.5380 C   0  0  0  0  0  0  0  0  0  0  0  0
   37.7450   23.3640   38.4110 C   0  0  0  0  0  0  0  0  0  0  0  0
   37.1900   22.9290   37.2430 N   0  0  0  0  0  0  0  0  0  0  0  0
   37.9270   22.4310   36.2400 C   0  0  0  0  0  0  0  0  0  0  0  0
   39.2630   22.3440   36.3570 N   0  0  0  0  0  0  0  0  0  0  0  0
   37.3390   21.9800   35.0300 N   0  0  0  0  0  0  0  0  0  0  0  0
   37.9440   22.3930   33.9070 C   0  0  0  0  0  0  0  0  0  0  0  0
   37.4030   21.9770   32.6960 C   0  0  0  0  0  0  0  0  0  0  0  0
   36.2940   21.1780   32.7520 C   0  0  0  0  0  0  0  0  0  0  0  0
   35.6860   20.7130   31.5670 N   0  0  0  0  0  0  0  0  0  0  0  0
   35.7170   20.7860   33.8940 N   0  0  0  0  0  0  0  0  0  0  0  0
   36.2400   21.1880   35.0680 C   0  0  0  0  0  0  0  0  0  0  0  0
   35.7720   20.8750   36.1940 O   0  0  0  0  0  0  0  0  0  0  0  0
   38.0040   22.3840   31.4720 N   0  0  0  0  0  0  0  0  0  0  0  0
   38.9040   21.6250   30.7990 C   0  0  0  0  0  0  0  0  0  0  0  0
   39.4780   22.0320   29.6170 C   0  0  0  0  0  0  0  0  0  0  0  0
   39.0880   23.2810   29.1320 C   0  0  0  0  0  0  0  0  0  0  0  0
   39.7040   23.6720   27.9010 N   0  0  0  0  0  0  0  0  0  0  0  0
   38.1960   24.0300   29.8020 N   0  0  0  0  0  0  0  0  0  0  0  0
   37.6560   23.5830   30.9700 C   0  0  0  0  0  0  0  0  0  0  0  0
   36.8370   24.3810   31.4920 O   0  0  0  0  0  0  0  0  0  0  0  0
   40.9846   22.6695   37.5407 H   0  0  0  0  0  0  0  0  0  0  0  0
   39.6416   23.6128   39.4578 H   0  0  0  0  0  0  0  0  0  0  0  0
   37.1225   23.7684   39.2227 H   0  0  0  0  0  0  0  0  0  0  0  0
   38.8351   23.0369   33.9427 H   0  0  0  0  0  0  0  0  0  0  0  0
   34.8512   20.1118   31.6181 H   0  0  0  0  0  0  0  0  0  0  0  0
   36.0768   20.9747   30.6507 H   0  0  0  0  0  0  0  0  0  0  0  0
   39.1859   20.6462   31.2143 H   0  0  0  0  0  0  0  0  0  0  0  0
   40.2067   21.4054   29.0818 H   0  0  0  0  0  0  0  0  0  0  0  0
   39.4712   24.5801   27.4743 H   0  0  0  0  0  0  0  0  0  0  0  0
   40.3802   23.0454   27.4417 H   0  0  0  0  0  0  0  0  0  0  0  0
  1  2  2  0
  3  2  1  0
  4  3  2  0
  5  6  2  0
  5  4  1  0
  6  1  1  0
  7 13  1  0
  7  5  1  0
  8  7  1  0
  9 10  1  0
  9  8  2  0
 10 12  2  0
 11 10  1  0
 12 13  1  0
 13 14  2  0
 15  9  1  0
 16 15  1  0
 17 16  2  0
 18 17  1  0
 18 20  2  0
 19 18  1  0
 20 21  1  0
 21 15  1  0
 21 22  2  0
  1 23  1  0
  2 24  1  0
  3 25  1  0
  8 26  1  0
 11 27  1  0
 11 28  1  0
 16 29  1  0
 17 30  1  0
 19 31  1  0
 19 32  1  0
M  ISO  6  23  14  24  14  25  14  26  14  29  14  30  14
M  END
>  <minimizedAffinity>  (1) 
-5.32985735

>  <minimizedRMSD>  (1) 
0.991856873

$$$$
