
     RDKit          3D

 29 30  0  0  0  0  0  0  0  0999 V2000
   38.3940   26.2260   34.7020 C   0  0  0  0  0  0  0  0  0  0  0  0
   37.6170   27.1760   33.9570 N   0  0  0  0  0  0  0  0  0  0  0  0
   36.6160   27.9390   34.4400 C   0  0  0  0  0  0  0  0  0  0  0  0
   35.9340   28.8250   33.6250 C   0  0  0  0  0  0  0  0  0  0  0  0
   34.8320   29.6560   34.1770 C   0  0  0  0  0  0  0  0  0  0  0  0
   36.2440   28.9620   32.3080 C   0  0  0  0  0  0  0  0  0  0  0  0
   35.6610   29.7430   31.5380 O   0  0  0  0  0  0  0  0  0  0  0  0
   37.2400   28.2050   31.8210 N   0  0  0  0  0  0  0  0  0  0  0  0
   37.8870   27.3530   32.6330 C   0  0  0  0  0  0  0  0  0  0  0  0
   38.8080   26.6740   32.1230 O   0  0  0  0  0  0  0  0  0  0  0  0
   37.6570   25.5240   35.8010 C   0  0  0  0  0  0  0  0  0  0  0  0
   38.2280   24.0790   37.8080 C   0  0  0  0  0  0  0  0  0  0  0  0
   38.4850   24.5260   36.5010 C   0  0  0  0  0  0  0  0  0  0  0  0
   39.5950   23.9860   35.8310 C   0  0  0  0  0  0  0  0  0  0  0  0
   40.3470   23.0680   36.4900 N   0  0  0  0  0  0  0  0  0  0  0  0
   40.0780   22.6570   37.7450 C   0  0  0  0  0  0  0  0  0  0  0  0
   39.0190   23.1640   38.4000 N   0  0  0  0  0  0  0  0  0  0  0  0
   39.2460   26.7589   35.1494 H   0  0  0  0  0  0  0  0  0  0  0  0
   38.6919   25.4457   33.9862 H   0  0  0  0  0  0  0  0  0  0  0  0
   36.3365   27.8557   35.5006 H   0  0  0  0  0  0  0  0  0  0  0  0
   34.8677   29.6291   35.2761 H   0  0  0  0  0  0  0  0  0  0  0  0
   34.9472   30.6940   33.8317 H   0  0  0  0  0  0  0  0  0  0  0  0
   33.8657   29.2598   33.8317 H   0  0  0  0  0  0  0  0  0  0  0  0
   37.5069   28.2773   30.8288 H   0  0  0  0  0  0  0  0  0  0  0  0
   37.3187   26.2738   36.5314 H   0  0  0  0  0  0  0  0  0  0  0  0
   36.8125   24.9888   35.3424 H   0  0  0  0  0  0  0  0  0  0  0  0
   37.3653   24.4837   38.3575 H   0  0  0  0  0  0  0  0  0  0  0  0
   39.8466   24.2967   34.8062 H   0  0  0  0  0  0  0  0  0  0  0  0
   40.7222   21.9098   38.2314 H   0  0  0  0  0  0  0  0  0  0  0  0
  1 11  1  0
  2  3  1  0
  2  1  1  0
  4  5  1  0
  4  3  2  0
  6  4  1  0
  7  6  2  0
  8  6  1  0
  8  9  1  0
  9  2  1  0
 10  9  2  0
 11 13  1  0
 12 17  2  0
 13 12  1  0
 14 15  1  0
 14 13  2  0
 15 16  2  0
 16 17  1  0
  1 18  1  0
  1 19  1  0
  3 20  1  0
  5 21  1  0
  5 22  1  0
  5 23  1  0
  8 24  1  0
 11 25  1  0
 11 26  1  0
 12 27  1  0
 14 28  1  0
 16 29  1  0
M  ISO  8  18   8  19   8  20  14  21   8  22   8  23   8  24   9  25   8
M  ISO  4  26   8  27  14  28  14  29  14
M  END
>  <minimizedAffinity>  (1) 
-4.37717438

>  <minimizedRMSD>  (1) 
1.6009196

$$$$
