
     RDKit          3D

 30 32  0  0  0  0  0  0  0  0999 V2000
   38.0060   26.1840   34.7250 C   0  0  0  0  0  0  0  0  0  0  0  0
   37.3500   26.4790   33.4230 C   0  0  0  0  0  0  0  0  0  0  0  0
   37.4560   25.7120   32.3320 N   0  0  0  0  0  0  0  0  0  0  0  0
   36.8160   26.0730   31.1960 C   0  0  0  0  0  0  0  0  0  0  0  0
   36.0680   27.2030   31.1490 N   0  0  0  0  0  0  0  0  0  0  0  0
   35.9240   28.0160   32.2160 C   0  0  0  0  0  0  0  0  0  0  0  0
   35.1520   29.1650   32.1380 C   0  0  0  0  0  0  0  0  0  0  0  0
   35.0280   29.9740   33.2550 C   0  0  0  0  0  0  0  0  0  0  0  0
   35.6670   29.6260   34.4120 C   0  0  0  0  0  0  0  0  0  0  0  0
   36.4170   28.4860   34.4490 C   0  0  0  0  0  0  0  0  0  0  0  0
   36.5770   27.6440   33.3700 C   0  0  0  0  0  0  0  0  0  0  0  0
   38.5150   24.7650   34.7940 C   0  0  0  0  0  0  0  0  0  0  0  0
   37.8070   24.7300   37.2270 C   0  0  0  0  0  0  0  0  0  0  0  0
   38.6330   24.2690   36.1670 C   0  0  0  0  0  0  0  0  0  0  0  0
   39.5950   23.2980   36.4600 C   0  0  0  0  0  0  0  0  0  0  0  0
   39.6800   22.8580   37.7450 N   0  0  0  0  0  0  0  0  0  0  0  0
   38.8820   23.3160   38.7290 C   0  0  0  0  0  0  0  0  0  0  0  0
   37.9540   24.2440   38.4710 N   0  0  0  0  0  0  0  0  0  0  0  0
   37.2762   26.3390   35.5333 H   0  0  0  0  0  0  0  0  0  0  0  0
   38.8678   26.8592   34.8314 H   0  0  0  0  0  0  0  0  0  0  0  0
   36.9035   25.4419   30.2993 H   0  0  0  0  0  0  0  0  0  0  0  0
   34.6437   29.4310   31.1994 H   0  0  0  0  0  0  0  0  0  0  0  0
   34.4199   30.8896   33.2115 H   0  0  0  0  0  0  0  0  0  0  0  0
   35.5776   30.2598   35.3066 H   0  0  0  0  0  0  0  0  0  0  0  0
   36.9210   28.2254   35.3914 H   0  0  0  0  0  0  0  0  0  0  0  0
   37.8183   24.1149   34.2444 H   0  0  0  0  0  0  0  0  0  0  0  0
   39.5216   24.7530   34.3505 H   0  0  0  0  0  0  0  0  0  0  0  0
   37.0395   25.4923   37.0273 H   0  0  0  0  0  0  0  0  0  0  0  0
   40.2607   22.9030   35.6784 H   0  0  0  0  0  0  0  0  0  0  0  0
   38.9943   22.9244   39.7508 H   0  0  0  0  0  0  0  0  0  0  0  0
  1 12  1  0
  2  1  1  0
  3  2  2  0
  4  3  1  0
  5  4  2  0
  5  6  1  0
  6 11  2  0
  7  6  1  0
  7  8  2  0
  8  9  1  0
  9 10  2  0
 11  2  1  0
 11 10  1  0
 12 14  1  0
 13 18  2  0
 14 15  2  0
 14 13  1  0
 15 16  1  0
 16 17  2  0
 18 17  1  0
  1 19  1  0
  1 20  1  0
  4 21  1  0
  7 22  1  0
  8 23  1  0
  9 24  1  0
 10 25  1  0
 12 26  1  0
 12 27  1  0
 13 28  1  0
 15 29  1  0
 17 30  1  0
M  ISO  8  19   8  20   8  21  14  22  14  23  14  24  14  25  14  26   8
M  ISO  4  27   8  28  14  29  14  30  14
M  END
>  <minimizedAffinity>  (1) 
-4.80255747

>  <minimizedRMSD>  (1) 
3.00506282

$$$$
