
     RDKit          3D

 29 30  0  0  0  0  0  0  0  0999 V2000
   38.1680   26.7210   35.8740 C   0  0  0  0  0  0  0  0  0  0  0  0
   36.9220   28.3900   32.1840 C   0  0  0  0  0  0  0  0  0  0  0  0
   38.0490   27.5830   32.2340 C   0  0  0  0  0  0  0  0  0  0  0  0
   38.4390   27.0500   33.4410 C   0  0  0  0  0  0  0  0  0  0  0  0
   37.7240   27.3090   34.5880 C   0  0  0  0  0  0  0  0  0  0  0  0
   36.6120   28.1000   34.5630 C   0  0  0  0  0  0  0  0  0  0  0  0
   36.2330   28.6280   33.3520 C   0  0  0  0  0  0  0  0  0  0  0  0
   36.4030   29.0840   30.6620 S   0  0  0  0  0  0  0  0  0  0  0  0
   37.5870   29.6800   29.9910 O   0  0  0  0  0  0  0  0  0  0  0  0
   35.3370   30.1010   30.9730 O   0  0  0  0  0  0  0  0  0  0  0  0
   37.6020   25.3310   35.9900 C   0  0  0  0  0  0  0  0  0  0  0  0
   38.4130   23.8460   37.8830 C   0  0  0  0  0  0  0  0  0  0  0  0
   38.5460   24.3720   36.5820 C   0  0  0  0  0  0  0  0  0  0  0  0
   39.6340   23.9590   35.8120 C   0  0  0  0  0  0  0  0  0  0  0  0
   40.5120   23.0640   36.3690 N   0  0  0  0  0  0  0  0  0  0  0  0
   40.3420   22.5900   37.6180 C   0  0  0  0  0  0  0  0  0  0  0  0
   39.3080   22.9730   38.3700 N   0  0  0  0  0  0  0  0  0  0  0  0
   37.8053   27.3392   36.7085 H   0  0  0  0  0  0  0  0  0  0  0  0
   39.2668   26.6824   35.9090 H   0  0  0  0  0  0  0  0  0  0  0  0
   38.6237   27.3718   31.3202 H   0  0  0  0  0  0  0  0  0  0  0  0
   39.3322   26.4098   33.4897 H   0  0  0  0  0  0  0  0  0  0  0  0
   36.0397   28.3075   35.4792 H   0  0  0  0  0  0  0  0  0  0  0  0
   35.3398   29.2690   33.3143 H   0  0  0  0  0  0  0  0  0  0  0  0
   35.8753   28.1522   29.8075 H   0  0  0  0  0  0  0  0  0  0  0  0
   36.7017   25.3710   36.6208 H   0  0  0  0  0  0  0  0  0  0  0  0
   37.3758   24.9827   34.9714 H   0  0  0  0  0  0  0  0  0  0  0  0
   37.5628   24.1559   38.5084 H   0  0  0  0  0  0  0  0  0  0  0  0
   39.7830   24.3391   34.7906 H   0  0  0  0  0  0  0  0  0  0  0  0
   41.0696   21.8732   38.0264 H   0  0  0  0  0  0  0  0  0  0  0  0
  1 11  1  0
  2  3  2  0
  2  7  1  0
  3  4  1  0
  4  5  2  0
  5  1  1  0
  6  5  1  0
  7  6  2  0
  8 10  2  0
  8  2  1  0
  9  8  2  0
 11 13  1  0
 12 17  2  0
 13 12  1  0
 14 15  1  0
 14 13  2  0
 15 16  2  0
 16 17  1  0
  1 18  1  0
  1 19  1  0
  3 20  1  0
  4 21  1  0
  6 22  1  0
  7 23  1  0
  8 24  1  0
 11 25  1  0
 11 26  1  0
 12 27  1  0
 14 28  1  0
 16 29  1  0
M  ISO  8  18   8  19   8  20  14  21  14  22  14  23  14  24  11  25   8
M  ISO  4  26   8  27  14  28  14  29  14
M  END
>  <minimizedAffinity>  (1) 
-4.66411877

>  <minimizedRMSD>  (1) 
1.8253336

$$$$
