
     RDKit          3D

 30 32  0  0  0  0  0  0  0  0999 V2000
   38.3490   26.1910   34.5090 C   0  0  0  0  0  0  0  0  0  0  0  0
   37.5010   27.1850   33.8650 N   0  0  0  0  0  0  0  0  0  0  0  0
   36.6040   27.9620   34.5210 C   0  0  0  0  0  0  0  0  0  0  0  0
   35.9750   28.7800   33.6550 N   0  0  0  0  0  0  0  0  0  0  0  0
   36.4720   28.5260   32.4260 C   0  0  0  0  0  0  0  0  0  0  0  0
   36.2440   29.0200   31.1450 C   0  0  0  0  0  0  0  0  0  0  0  0
   35.3700   29.9240   31.0730 O   0  0  0  0  0  0  0  0  0  0  0  0
   36.9460   28.5220   30.1000 N   0  0  0  0  0  0  0  0  0  0  0  0
   37.8630   27.5530   30.2770 C   0  0  0  0  0  0  0  0  0  0  0  0
   38.5300   27.1160   29.1060 N   0  0  0  0  0  0  0  0  0  0  0  0
   38.1280   27.0340   31.4950 N   0  0  0  0  0  0  0  0  0  0  0  0
   37.4310   27.5240   32.5620 C   0  0  0  0  0  0  0  0  0  0  0  0
   37.6100   25.7500   35.7510 C   0  0  0  0  0  0  0  0  0  0  0  0
   38.0310   24.2900   37.8150 C   0  0  0  0  0  0  0  0  0  0  0  0
   38.3380   24.7140   36.5000 C   0  0  0  0  0  0  0  0  0  0  0  0
   39.4250   24.0990   35.8510 C   0  0  0  0  0  0  0  0  0  0  0  0
   40.1070   23.1390   36.5300 N   0  0  0  0  0  0  0  0  0  0  0  0
   39.7850   22.7640   37.7810 C   0  0  0  0  0  0  0  0  0  0  0  0
   38.7460   23.3430   38.4140 N   0  0  0  0  0  0  0  0  0  0  0  0
   39.3189   26.6342   34.7791 H   0  0  0  0  0  0  0  0  0  0  0  0
   38.5518   25.3420   33.8397 H   0  0  0  0  0  0  0  0  0  0  0  0
   36.4169   27.9291   35.6045 H   0  0  0  0  0  0  0  0  0  0  0  0
   36.7754   28.8909   29.1536 H   0  0  0  0  0  0  0  0  0  0  0  0
   39.2448   26.3768   29.1659 H   0  0  0  0  0  0  0  0  0  0  0  0
   38.3002   27.5375   28.1947 H   0  0  0  0  0  0  0  0  0  0  0  0
   37.4661   26.6228   36.4048 H   0  0  0  0  0  0  0  0  0  0  0  0
   36.6484   25.3204   35.4337 H   0  0  0  0  0  0  0  0  0  0  0  0
   37.1876   24.7513   38.3496 H   0  0  0  0  0  0  0  0  0  0  0  0
   39.7129   24.3856   34.8288 H   0  0  0  0  0  0  0  0  0  0  0  0
   40.3709   21.9833   38.2881 H   0  0  0  0  0  0  0  0  0  0  0  0
  1 13  1  0
  2  1  1  0
  2  3  1  0
  4  3  2  0
  5 12  2  0
  5  4  1  0
  6  5  1  0
  7  6  2  0
  8  9  1  0
  8  6  1  0
  9 11  2  0
 10  9  1  0
 11 12  1  0
 12  2  1  0
 13 15  1  0
 14 19  2  0
 15 14  1  0
 16 15  2  0
 16 17  1  0
 17 18  2  0
 18 19  1  0
  1 20  1  0
  1 21  1  0
  3 22  1  0
  8 23  1  0
 10 24  1  0
 10 25  1  0
 13 26  1  0
 13 27  1  0
 14 28  1  0
 16 29  1  0
 18 30  1  0
M  ISO  8  20   8  21   8  22  14  23   9  26   8  27   8  28  14  29  14
M  ISO  1  30  14
M  END
>  <minimizedAffinity>  (1) 
-4.81978321

>  <minimizedRMSD>  (1) 
1.62123024

$$$$
