
     RDKit          3D

 26 27  0  0  0  0  0  0  0  0999 V2000
   37.5740   25.3540   35.8930 C   0  0  0  0  0  0  0  0  0  0  0  0
   38.3240   23.8980   37.8500 C   0  0  0  0  0  0  0  0  0  0  0  0
   38.4880   24.4030   36.5510 C   0  0  0  0  0  0  0  0  0  0  0  0
   39.6040   23.9820   35.8030 C   0  0  0  0  0  0  0  0  0  0  0  0
   40.4750   23.1010   36.3780 N   0  0  0  0  0  0  0  0  0  0  0  0
   40.2800   22.6340   37.6410 C   0  0  0  0  0  0  0  0  0  0  0  0
   39.2140   23.0350   38.3610 N   0  0  0  0  0  0  0  0  0  0  0  0
   38.1800   26.6940   35.6470 C   0  0  0  0  0  0  0  0  0  0  0  0
   37.6030   27.3690   34.4830 C   0  0  0  0  0  0  0  0  0  0  0  0
   36.5260   28.2310   34.5840 C   0  0  0  0  0  0  0  0  0  0  0  0
   35.9190   28.9070   33.5620 C   0  0  0  0  0  0  0  0  0  0  0  0
   36.4730   28.6730   32.3070 C   0  0  0  0  0  0  0  0  0  0  0  0
   37.5570   27.8180   32.1260 C   0  0  0  0  0  0  0  0  0  0  0  0
   38.1000   27.1850   33.2070 C   0  0  0  0  0  0  0  0  0  0  0  0
   37.2672   24.9286   34.9261 H   0  0  0  0  0  0  0  0  0  0  0  0
   36.7230   25.5056   36.5733 H   0  0  0  0  0  0  0  0  0  0  0  0
   37.4594   24.2123   38.4531 H   0  0  0  0  0  0  0  0  0  0  0  0
   39.7703   24.3533   34.7810 H   0  0  0  0  0  0  0  0  0  0  0  0
   40.9978   21.9239   38.0775 H   0  0  0  0  0  0  0  0  0  0  0  0
   38.0171   27.3224   36.5350 H   0  0  0  0  0  0  0  0  0  0  0  0
   39.2511   26.5430   35.4469 H   0  0  0  0  0  0  0  0  0  0  0  0
   36.1148   28.3893   35.5919 H   0  0  0  0  0  0  0  0  0  0  0  0
   35.0634   29.5802   33.7189 H   0  0  0  0  0  0  0  0  0  0  0  0
   36.0412   29.1791   31.4310 H   0  0  0  0  0  0  0  0  0  0  0  0
   37.9723   27.6540   31.1207 H   0  0  0  0  0  0  0  0  0  0  0  0
   38.9561   26.5105   33.0581 H   0  0  0  0  0  0  0  0  0  0  0  0
  1  3  1  0
  2  7  2  0
  3  2  1  0
  4  5  1  0
  4  3  2  0
  5  6  2  0
  6  7  1  0
  8  1  1  0
  9 10  2  0
  9  8  1  0
 11 10  1  0
 12 11  2  0
 13 12  1  0
 13 14  2  0
 14  9  1  0
  1 15  1  0
  1 16  1  0
  2 17  1  0
  4 18  1  0
  6 19  1  0
  8 20  1  0
  8 21  1  0
 10 22  1  0
 11 23  1  0
 12 24  1  0
 13 25  1  0
 14 26  1  0
M  ISO  8  15   8  16   8  17  14  18  14  19  14  20   8  21   8  22  14
M  ISO  4  23  14  24  14  25  14  26  14
M  END
>  <minimizedAffinity>  (1) 
-4.32039881

>  <minimizedRMSD>  (1) 
1.1008606

$$$$
