
     RDKit          3D

 26 27  0  0  0  0  0  0  0  0999 V2000
   37.5790   25.3610   35.8800 C   0  0  0  0  0  0  0  0  0  0  0  0
   38.3210   23.9210   37.8190 C   0  0  0  0  0  0  0  0  0  0  0  0
   38.4960   24.4170   36.5200 C   0  0  0  0  0  0  0  0  0  0  0  0
   39.6030   23.9850   35.7990 C   0  0  0  0  0  0  0  0  0  0  0  0
   40.4630   23.1010   36.3930 N   0  0  0  0  0  0  0  0  0  0  0  0
   40.2670   22.6370   37.6570 C   0  0  0  0  0  0  0  0  0  0  0  0
   39.1940   23.0510   38.3660 N   0  0  0  0  0  0  0  0  0  0  0  0
   38.1330   26.7360   35.7260 C   0  0  0  0  0  0  0  0  0  0  0  0
   37.5730   27.4040   34.5460 C   0  0  0  0  0  0  0  0  0  0  0  0
   36.4780   28.2510   34.5250 C   0  0  0  0  0  0  0  0  0  0  0  0
   36.0750   28.8040   33.3110 C   0  0  0  0  0  0  0  0  0  0  0  0
   36.7320   28.5360   32.1270 C   0  0  0  0  0  0  0  0  0  0  0  0
   37.8230   27.6940   32.1380 C   0  0  0  0  0  0  0  0  0  0  0  0
   38.2290   27.1410   33.3420 C   0  0  0  0  0  0  0  0  0  0  0  0
   37.3279   24.9756   34.8808 H   0  0  0  0  0  0  0  0  0  0  0  0
   36.6998   25.4442   36.5358 H   0  0  0  0  0  0  0  0  0  0  0  0
   37.4508   24.2492   38.4063 H   0  0  0  0  0  0  0  0  0  0  0  0
   39.7837   24.3449   34.7754 H   0  0  0  0  0  0  0  0  0  0  0  0
   40.9803   21.9267   38.1005 H   0  0  0  0  0  0  0  0  0  0  0  0
   37.8869   27.3245   36.6221 H   0  0  0  0  0  0  0  0  0  0  0  0
   39.2230   26.6604   35.5992 H   0  0  0  0  0  0  0  0  0  0  0  0
   35.9344   28.4839   35.4525 H   0  0  0  0  0  0  0  0  0  0  0  0
   35.2045   29.4763   33.2958 H   0  0  0  0  0  0  0  0  0  0  0  0
   36.3887   28.9893   31.1854 H   0  0  0  0  0  0  0  0  0  0  0  0
   38.3622   27.4649   31.2070 H   0  0  0  0  0  0  0  0  0  0  0  0
   39.1005   26.4699   33.3494 H   0  0  0  0  0  0  0  0  0  0  0  0
  1  3  1  0
  2  7  2  0
  3  2  1  0
  4  5  1  0
  4  3  2  0
  5  6  2  0
  6  7  1  0
  8  1  1  0
  9  8  1  0
 10  9  2  0
 11 10  1  0
 12 13  1  0
 12 11  2  0
 13 14  2  0
 14  9  1  0
  1 15  1  0
  1 16  1  0
  2 17  1  0
  4 18  1  0
  6 19  1  0
  8 20  1  0
  8 21  1  0
 10 22  1  0
 11 23  1  0
 12 24  1  0
 13 25  1  0
 14 26  1  0
M  ISO  8  15   8  16   8  17  14  18  14  19  14  20   8  21   8  22  14
M  ISO  4  23  14  24  14  25  14  26  14
M  END
>  <minimizedAffinity>  (1) 
-4.34780598

>  <minimizedRMSD>  (1) 
1.05217707

$$$$
