
     RDKit          3D

 24 25  0  0  0  0  0  0  0  0999 V2000
   37.6360   25.6780   35.5880 C   0  0  0  0  0  0  0  0  0  0  0  0
   38.0020   24.3240   37.7080 C   0  0  0  0  0  0  0  0  0  0  0  0
   38.3420   24.6870   36.3980 C   0  0  0  0  0  0  0  0  0  0  0  0
   39.4360   24.0540   35.8190 C   0  0  0  0  0  0  0  0  0  0  0  0
   40.1250   23.1180   36.5450 N   0  0  0  0  0  0  0  0  0  0  0  0
   39.7600   22.8000   37.8100 C   0  0  0  0  0  0  0  0  0  0  0  0
   38.6990   23.4040   38.3880 N   0  0  0  0  0  0  0  0  0  0  0  0
   38.2500   25.9370   34.2470 C   0  0  0  0  0  0  0  0  0  0  0  0
   37.2660   26.0690   33.1600 C   0  0  0  0  0  0  0  0  0  0  0  0
   36.7490   27.2850   32.7610 C   0  0  0  0  0  0  0  0  0  0  0  0
   35.8420   27.2270   31.7320 C   0  0  0  0  0  0  0  0  0  0  0  0
   35.4640   26.0790   31.1330 N   0  0  0  0  0  0  0  0  0  0  0  0
   35.9710   24.9170   31.5290 C   0  0  0  0  0  0  0  0  0  0  0  0
   36.8740   24.9350   32.5470 N   0  0  0  0  0  0  0  0  0  0  0  0
   36.6066   25.3232   35.4315 H   0  0  0  0  0  0  0  0  0  0  0  0
   37.6850   26.6268   36.1424 H   0  0  0  0  0  0  0  0  0  0  0  0
   37.1399   24.8073   38.1908 H   0  0  0  0  0  0  0  0  0  0  0  0
   39.7443   24.3011   34.7924 H   0  0  0  0  0  0  0  0  0  0  0  0
   40.3312   22.0451   38.3702 H   0  0  0  0  0  0  0  0  0  0  0  0
   38.8301   26.8698   34.3052 H   0  0  0  0  0  0  0  0  0  0  0  0
   38.8777   25.0660   34.0077 H   0  0  0  0  0  0  0  0  0  0  0  0
   37.0429   28.2336   33.2341 H   0  0  0  0  0  0  0  0  0  0  0  0
   35.3990   28.1689   31.3763 H   0  0  0  0  0  0  0  0  0  0  0  0
   35.6714   23.9728   31.0507 H   0  0  0  0  0  0  0  0  0  0  0  0
  1  3  1  0
  2  7  2  0
  3  2  1  0
  4  3  2  0
  4  5  1  0
  5  6  2  0
  6  7  1  0
  8  1  1  0
  9  8  1  0
 10  9  2  0
 11 10  1  0
 12 13  1  0
 12 11  2  0
 13 14  2  0
 14  9  1  0
  1 15  1  0
  1 16  1  0
  2 17  1  0
  4 18  1  0
  6 19  1  0
  8 20  1  0
  8 21  1  0
 10 22  1  0
 11 23  1  0
 13 24  1  0
M  ISO  8  15   8  16   8  17  14  18  14  19  14  20   8  21   8  22  14
M  ISO  2  23  14  24  14
M  END
>  <minimizedAffinity>  (1) 
-3.91726255

>  <minimizedRMSD>  (1) 
3.97558713

$$$$
