
     RDKit          3D

 30 31  0  0  0  0  0  0  0  0999 V2000
   37.9920   25.0240   34.1860 C   0  0  0  0  0  0  0  0  0  0  0  0
   36.5770   25.3670   32.1030 C   0  0  0  0  0  0  0  0  0  0  0  0
   37.2360   25.8700   33.2340 C   0  0  0  0  0  0  0  0  0  0  0  0
   37.1820   27.2350   33.4880 C   0  0  0  0  0  0  0  0  0  0  0  0
   36.4820   28.0040   32.6110 N   0  0  0  0  0  0  0  0  0  0  0  0
   35.8540   27.5090   31.5300 C   0  0  0  0  0  0  0  0  0  0  0  0
   35.9100   26.1810   31.2880 N   0  0  0  0  0  0  0  0  0  0  0  0
   37.7890   25.3970   35.6140 C   0  0  0  0  0  0  0  0  0  0  0  0
   38.6130   24.6830   36.5570 N   0  0  0  0  0  0  0  0  0  0  0  0
   37.8060   24.0990   37.5790 C   0  0  0  0  0  0  0  0  0  0  0  0
   38.6220   23.3870   38.6290 C   0  0  0  0  0  0  0  0  0  0  0  0
   39.6570   22.5570   38.0620 N   0  0  0  0  0  0  0  0  0  0  0  0
   39.5870   22.4320   36.6290 C   0  0  0  0  0  0  0  0  0  0  0  0
   39.5800   23.8100   35.9730 C   0  0  0  0  0  0  0  0  0  0  0  0
   39.0635   25.1125   33.9534 H   0  0  0  0  0  0  0  0  0  0  0  0
   37.6189   23.9960   34.0672 H   0  0  0  0  0  0  0  0  0  0  0  0
   36.6116   24.2889   31.8872 H   0  0  0  0  0  0  0  0  0  0  0  0
   37.6844   27.6754   34.3619 H   0  0  0  0  0  0  0  0  0  0  0  0
   35.3020   28.1764   30.8518 H   0  0  0  0  0  0  0  0  0  0  0  0
   38.0033   26.4708   35.7192 H   0  0  0  0  0  0  0  0  0  0  0  0
   36.7490   25.1315   35.8544 H   0  0  0  0  0  0  0  0  0  0  0  0
   37.2238   24.8953   38.0658 H   0  0  0  0  0  0  0  0  0  0  0  0
   37.1542   23.3524   37.1018 H   0  0  0  0  0  0  0  0  0  0  0  0
   39.0914   24.1394   39.2799 H   0  0  0  0  0  0  0  0  0  0  0  0
   37.9407   22.7311   39.1908 H   0  0  0  0  0  0  0  0  0  0  0  0
   40.5704   22.9650   38.3075 H   0  0  0  0  0  0  0  0  0  0  0  0
   40.4595   21.8653   36.2718 H   0  0  0  0  0  0  0  0  0  0  0  0
   38.6586   21.9058   36.3623 H   0  0  0  0  0  0  0  0  0  0  0  0
   39.3498   23.6917   34.9039 H   0  0  0  0  0  0  0  0  0  0  0  0
   40.5729   24.2591   36.1228 H   0  0  0  0  0  0  0  0  0  0  0  0
  1  8  1  0
  2  3  2  0
  3  4  1  0
  3  1  1  0
  5  4  2  0
  6  5  1  0
  7  6  2  0
  7  2  1  0
  8  9  1  0
  9 10  1  0
 10 11  1  0
 12 11  1  0
 13 12  1  0
 14  9  1  0
 14 13  1  0
  1 15  1  0
  1 16  1  0
  2 17  1  0
  4 18  1  0
  6 19  1  0
  8 20  1  0
  8 21  1  0
 10 22  1  0
 10 23  1  0
 11 24  1  0
 11 25  1  0
 12 26  1  0
 13 27  1  0
 13 28  1  0
 14 29  1  0
 14 30  1  0
M  ISO  8  15   8  16   8  17  14  18  14  19  14  20   8  21   8  22  13
M  ISO  8  23  13  24  13  25  13  26   5  27  13  28  13  29  13  30  13
M  END
>  <minimizedAffinity>  (1) 
-4.1183362

>  <minimizedRMSD>  (1) 
6.34074163

$$$$
