
     RDKit          3D

 23 24  0  0  0  0  0  0  0  0999 V2000
   37.7030   25.6800   35.7780 C   0  0  0  0  0  0  0  0  0  0  0  0
   38.0950   24.3550   37.9200 C   0  0  0  0  0  0  0  0  0  0  0  0
   38.3860   24.6470   36.5710 C   0  0  0  0  0  0  0  0  0  0  0  0
   39.3960   23.9040   35.9420 C   0  0  0  0  0  0  0  0  0  0  0  0
   40.0340   22.9420   36.6760 N   0  0  0  0  0  0  0  0  0  0  0  0
   39.7220   22.6980   37.9590 C   0  0  0  0  0  0  0  0  0  0  0  0
   38.7570   23.4030   38.5730 N   0  0  0  0  0  0  0  0  0  0  0  0
   38.4290   27.0050   35.7970 C   0  0  0  0  0  0  0  0  0  0  0  0
   39.5020   27.0640   34.7760 C   0  0  0  0  0  0  0  0  0  0  0  0
   39.2300   27.0800   33.4060 C   0  0  0  0  0  0  0  0  0  0  0  0
   40.4100   27.1360   32.7510 N   0  0  0  0  0  0  0  0  0  0  0  0
   41.4060   27.1540   33.6830 C   0  0  0  0  0  0  0  0  0  0  0  0
   40.8330   27.1110   34.8840 N   0  0  0  0  0  0  0  0  0  0  0  0
   36.6924   25.8266   36.1869 H   0  0  0  0  0  0  0  0  0  0  0  0
   37.6734   25.3324   34.7348 H   0  0  0  0  0  0  0  0  0  0  0  0
   37.3092   24.9226   38.4399 H   0  0  0  0  0  0  0  0  0  0  0  0
   39.6664   24.0891   34.8919 H   0  0  0  0  0  0  0  0  0  0  0  0
   40.2609   21.9145   38.5119 H   0  0  0  0  0  0  0  0  0  0  0  0
   37.7054   27.8095   35.5989 H   0  0  0  0  0  0  0  0  0  0  0  0
   38.8943   27.1238   36.7867 H   0  0  0  0  0  0  0  0  0  0  0  0
   38.2326   27.0520   32.9430 H   0  0  0  0  0  0  0  0  0  0  0  0
   42.4861   27.1963   33.4793 H   0  0  0  0  0  0  0  0  0  0  0  0
   41.3468   27.1136   35.7767 H   0  0  0  0  0  0  0  0  0  0  0  0
  1  8  1  0
  1  3  1  0
  2  7  2  0
  3  2  1  0
  4  3  2  0
  4  5  1  0
  5  6  2  0
  6  7  1  0
  9 13  1  0
  9  8  1  0
 10  9  2  0
 11 10  1  0
 11 12  2  0
 12 13  1  0
  1 14  1  0
  1 15  1  0
  2 16  1  0
  4 17  1  0
  6 18  1  0
  8 19  1  0
  8 20  1  0
 10 21  1  0
 12 22  1  0
 13 23  1  0
M  ISO  8  14   8  15   8  16  14  17  14  18  14  19   8  20   8  21  14
M  ISO  2  22  14  23   9
M  END
>  <minimizedAffinity>  (1) 
-3.86531663

>  <minimizedRMSD>  (1) 
0.863731802

$$$$
