
     RDKit          3D

 28 29  0  0  0  0  0  0  0  0999 V2000
   37.7690   25.3420   35.9240 C   0  0  0  0  0  0  0  0  0  0  0  0
   38.4680   23.8010   37.8260 C   0  0  0  0  0  0  0  0  0  0  0  0
   38.6510   24.3440   36.5450 C   0  0  0  0  0  0  0  0  0  0  0  0
   39.7430   23.9100   35.8020 C   0  0  0  0  0  0  0  0  0  0  0  0
   40.5760   22.9770   36.3650 N   0  0  0  0  0  0  0  0  0  0  0  0
   40.3710   22.4720   37.6040 C   0  0  0  0  0  0  0  0  0  0  0  0
   39.3120   22.8980   38.3160 N   0  0  0  0  0  0  0  0  0  0  0  0
   38.2390   26.7510   36.0960 C   0  0  0  0  0  0  0  0  0  0  0  0
   38.1470   27.5650   34.9160 N   0  0  0  0  0  0  0  0  0  0  0  0
   38.9100   27.0070   33.8130 C   0  0  0  0  0  0  0  0  0  0  0  0
   38.1550   27.4020   32.5560 C   0  0  0  0  0  0  0  0  0  0  0  0
   36.7300   27.3120   33.0430 C   0  0  0  0  0  0  0  0  0  0  0  0
   36.8330   27.8420   34.4500 C   0  0  0  0  0  0  0  0  0  0  0  0
   36.7702   25.2517   36.3760 H   0  0  0  0  0  0  0  0  0  0  0  0
   37.7615   25.1357   34.8435 H   0  0  0  0  0  0  0  0  0  0  0  0
   37.6121   24.1278   38.4348 H   0  0  0  0  0  0  0  0  0  0  0  0
   39.9333   24.3032   34.7925 H   0  0  0  0  0  0  0  0  0  0  0  0
   41.0604   21.7240   38.0227 H   0  0  0  0  0  0  0  0  0  0  0  0
   37.6317   27.2206   36.8838 H   0  0  0  0  0  0  0  0  0  0  0  0
   39.3079   26.6922   36.3490 H   0  0  0  0  0  0  0  0  0  0  0  0
   39.9269   27.4261   33.7982 H   0  0  0  0  0  0  0  0  0  0  0  0
   39.0143   25.9154   33.9001 H   0  0  0  0  0  0  0  0  0  0  0  0
   38.3462   26.6997   31.7313 H   0  0  0  0  0  0  0  0  0  0  0  0
   38.4352   28.3833   32.1455 H   0  0  0  0  0  0  0  0  0  0  0  0
   36.0607   27.9349   32.4314 H   0  0  0  0  0  0  0  0  0  0  0  0
   36.3101   26.2969   32.9861 H   0  0  0  0  0  0  0  0  0  0  0  0
   36.6532   28.9272   34.4566 H   0  0  0  0  0  0  0  0  0  0  0  0
   36.0834   27.3658   35.0991 H   0  0  0  0  0  0  0  0  0  0  0  0
  1  8  1  0
  1  3  1  0
  2  7  2  0
  3  2  1  0
  4  5  1  0
  4  3  2  0
  5  6  2  0
  6  7  1  0
  9  8  1  0
 10  9  1  0
 11 12  1  0
 11 10  1  0
 12 13  1  0
 13  9  1  0
  1 14  1  0
  1 15  1  0
  2 16  1  0
  4 17  1  0
  6 18  1  0
  8 19  1  0
  8 20  1  0
 10 21  1  0
 10 22  1  0
 11 23  1  0
 11 24  1  0
 12 25  1  0
 12 26  1  0
 13 27  1  0
 13 28  1  0
M  ISO  8  14   8  15   8  16  14  17  14  18  14  19   8  20   8  21  13
M  ISO  7  22  13  23  13  24  13  25  13  26  13  27  13  28  13
M  END
>  <minimizedAffinity>  (1) 
-3.58599257

>  <minimizedRMSD>  (1) 
1.1751982

$$$$
