
     RDKit          3D

 22 23  0  0  0  0  0  0  0  0999 V2000
   37.5820   25.4230   35.7840 C   0  0  0  0  0  0  0  0  0  0  0  0
   38.2010   24.0390   37.8090 C   0  0  0  0  0  0  0  0  0  0  0  0
   38.4490   24.4720   36.4960 C   0  0  0  0  0  0  0  0  0  0  0  0
   39.5700   23.9770   35.8400 C   0  0  0  0  0  0  0  0  0  0  0  0
   40.3640   23.0910   36.5250 N   0  0  0  0  0  0  0  0  0  0  0  0
   40.1070   22.6910   37.7800 C   0  0  0  0  0  0  0  0  0  0  0  0
   39.0210   23.1690   38.4190 N   0  0  0  0  0  0  0  0  0  0  0  0
   38.1690   26.7860   35.6480 C   0  0  0  0  0  0  0  0  0  0  0  0
   37.4970   27.4410   34.5360 N   0  0  0  0  0  0  0  0  0  0  0  0
   37.7810   27.3100   33.2280 C   0  0  0  0  0  0  0  0  0  0  0  0
   36.9390   28.0770   32.4970 N   0  0  0  0  0  0  0  0  0  0  0  0
   36.1270   28.6870   33.3820 C   0  0  0  0  0  0  0  0  0  0  0  0
   36.4830   28.2860   34.6270 N   0  0  0  0  0  0  0  0  0  0  0  0
   37.3869   25.0272   34.7764 H   0  0  0  0  0  0  0  0  0  0  0  0
   36.6635   25.5276   36.3801 H   0  0  0  0  0  0  0  0  0  0  0  0
   37.3198   24.4194   38.3464 H   0  0  0  0  0  0  0  0  0  0  0  0
   39.8116   24.2834   34.8115 H   0  0  0  0  0  0  0  0  0  0  0  0
   40.7774   21.9787   38.2831 H   0  0  0  0  0  0  0  0  0  0  0  0
   38.0088   27.3583   36.5737 H   0  0  0  0  0  0  0  0  0  0  0  0
   39.2521   26.7257   35.4657 H   0  0  0  0  0  0  0  0  0  0  0  0
   38.5781   26.6747   32.8144 H   0  0  0  0  0  0  0  0  0  0  0  0
   35.3160   29.3886   33.1370 H   0  0  0  0  0  0  0  0  0  0  0  0
  1  3  1  0
  2  7  2  0
  3  2  1  0
  4  3  2  0
  4  5  1  0
  5  6  2  0
  6  7  1  0
  8  1  1  0
  9 13  1  0
  9  8  1  0
 10  9  1  0
 11 10  2  0
 11 12  1  0
 12 13  2  0
  1 14  1  0
  1 15  1  0
  2 16  1  0
  4 17  1  0
  6 18  1  0
  8 19  1  0
  8 20  1  0
 10 21  1  0
 12 22  1  0
M  ISO  8  14   8  15   8  16  14  17  14  18  14  19   8  20   8  21  14
M  ISO  1  22  14
M  END
>  <minimizedAffinity>  (1) 
-3.54553413

>  <minimizedRMSD>  (1) 
0.968123555

$$$$
