
     RDKit          3D

 23 24  0  0  0  0  0  0  0  0999 V2000
   37.5860   25.3560   35.8450 C   0  0  0  0  0  0  0  0  0  0  0  0
   38.3100   23.9200   37.8210 C   0  0  0  0  0  0  0  0  0  0  0  0
   38.5030   24.4070   36.5080 C   0  0  0  0  0  0  0  0  0  0  0  0
   39.6200   23.9680   35.8000 C   0  0  0  0  0  0  0  0  0  0  0  0
   40.4510   23.0930   36.4290 N   0  0  0  0  0  0  0  0  0  0  0  0
   40.2510   22.6410   37.6780 C   0  0  0  0  0  0  0  0  0  0  0  0
   39.1740   23.0650   38.3600 N   0  0  0  0  0  0  0  0  0  0  0  0
   38.1660   26.7460   35.7240 C   0  0  0  0  0  0  0  0  0  0  0  0
   37.5210   27.4190   34.5970 C   0  0  0  0  0  0  0  0  0  0  0  0
   36.4660   28.3020   34.5570 C   0  0  0  0  0  0  0  0  0  0  0  0
   36.0500   28.7940   33.3580 C   0  0  0  0  0  0  0  0  0  0  0  0
   36.7480   28.3510   32.2270 C   0  0  0  0  0  0  0  0  0  0  0  0
   38.0040   27.2220   32.9030 S   0  0  0  0  0  0  0  0  0  0  0  0
   37.3613   24.9803   34.8359 H   0  0  0  0  0  0  0  0  0  0  0  0
   36.6806   25.4287   36.4654 H   0  0  0  0  0  0  0  0  0  0  0  0
   37.4369   24.2515   38.4022 H   0  0  0  0  0  0  0  0  0  0  0  0
   39.8216   24.3142   34.7756 H   0  0  0  0  0  0  0  0  0  0  0  0
   40.9587   21.9341   38.1357 H   0  0  0  0  0  0  0  0  0  0  0  0
   37.9777   27.3090   36.6501 H   0  0  0  0  0  0  0  0  0  0  0  0
   39.2521   26.6892   35.5589 H   0  0  0  0  0  0  0  0  0  0  0  0
   35.9631   28.6076   35.4864 H   0  0  0  0  0  0  0  0  0  0  0  0
   35.2110   29.5013   33.2812 H   0  0  0  0  0  0  0  0  0  0  0  0
   36.5765   28.6227   31.1750 H   0  0  0  0  0  0  0  0  0  0  0  0
  1  3  1  0
  2  7  2  0
  3  2  1  0
  4  5  1  0
  4  3  2  0
  5  6  2  0
  6  7  1  0
  8  1  1  0
  9  8  1  0
 10  9  2  0
 11 10  1  0
 12 13  1  0
 12 11  2  0
 13  9  1  0
  1 14  1  0
  1 15  1  0
  2 16  1  0
  4 17  1  0
  6 18  1  0
  8 19  1  0
  8 20  1  0
 10 21  1  0
 11 22  1  0
 12 23  1  0
M  ISO  8  14   8  15   8  16  14  17  14  18  14  19   8  20   8  21  14
M  ISO  2  22  14  23  14
M  END
>  <minimizedAffinity>  (1) 
-3.85603046

>  <minimizedRMSD>  (1) 
0.972903311

$$$$
