
     RDKit          3D

 22 23  0  0  0  0  0  0  0  0999 V2000
   37.5660   25.3740   35.8330 C   0  0  0  0  0  0  0  0  0  0  0  0
   38.2800   23.9560   37.8120 C   0  0  0  0  0  0  0  0  0  0  0  0
   38.4700   24.4330   36.5040 C   0  0  0  0  0  0  0  0  0  0  0  0
   39.5900   23.9820   35.7980 C   0  0  0  0  0  0  0  0  0  0  0  0
   40.4280   23.1110   36.4170 N   0  0  0  0  0  0  0  0  0  0  0  0
   40.2220   22.6650   37.6850 C   0  0  0  0  0  0  0  0  0  0  0  0
   39.1480   23.0920   38.3730 N   0  0  0  0  0  0  0  0  0  0  0  0
   38.1650   26.7240   35.6170 C   0  0  0  0  0  0  0  0  0  0  0  0
   37.5280   27.3960   34.4530 C   0  0  0  0  0  0  0  0  0  0  0  0
   38.0340   27.1960   33.1390 C   0  0  0  0  0  0  0  0  0  0  0  0
   36.9230   28.2180   32.1300 S   0  0  0  0  0  0  0  0  0  0  0  0
   35.9430   28.7540   33.6770 C   0  0  0  0  0  0  0  0  0  0  0  0
   36.4830   28.2010   34.5410 N   0  0  0  0  0  0  0  0  0  0  0  0
   37.2909   24.9545   34.8541 H   0  0  0  0  0  0  0  0  0  0  0  0
   36.6936   25.5084   36.4894 H   0  0  0  0  0  0  0  0  0  0  0  0
   37.4064   24.2943   38.3885 H   0  0  0  0  0  0  0  0  0  0  0  0
   39.7864   24.3231   34.7708 H   0  0  0  0  0  0  0  0  0  0  0  0
   40.9293   21.9594   38.1452 H   0  0  0  0  0  0  0  0  0  0  0  0
   38.0111   27.3367   36.5175 H   0  0  0  0  0  0  0  0  0  0  0  0
   39.2404   26.6083   35.4165 H   0  0  0  0  0  0  0  0  0  0  0  0
   38.8844   26.5778   32.8154 H   0  0  0  0  0  0  0  0  0  0  0  0
   35.0743   29.4263   33.7351 H   0  0  0  0  0  0  0  0  0  0  0  0
  1  3  1  0
  2  7  2  0
  3  2  1  0
  4  5  1  0
  4  3  2  0
  5  6  2  0
  6  7  1  0
  8  1  1  0
  9 13  1  0
  9  8  1  0
 10  9  2  0
 11 10  1  0
 11 12  1  0
 12 13  2  0
  1 14  1  0
  1 15  1  0
  2 16  1  0
  4 17  1  0
  6 18  1  0
  8 19  1  0
  8 20  1  0
 10 21  1  0
 12 22  1  0
M  ISO  8  14   8  15   8  16  14  17  14  18  14  19   8  20   8  21  14
M  ISO  1  22  14
M  END
>  <minimizedAffinity>  (1) 
-3.66201949

>  <minimizedRMSD>  (1) 
0.989970505

$$$$
