
     RDKit          3D

 17 17  0  0  0  0  0  0  0  0999 V2000
   38.0260   24.3170   37.7620 C   0  0  0  0  0  0  0  0  0  0  0  0
   38.3660   24.7120   36.4590 C   0  0  0  0  0  0  0  0  0  0  0  0
   39.4490   24.0840   35.8570 C   0  0  0  0  0  0  0  0  0  0  0  0
   40.1320   23.1170   36.5540 N   0  0  0  0  0  0  0  0  0  0  0  0
   39.7690   22.7640   37.8180 C   0  0  0  0  0  0  0  0  0  0  0  0
   38.7160   23.3750   38.4010 N   0  0  0  0  0  0  0  0  0  0  0  0
   37.6700   25.7300   35.6760 C   0  0  0  0  0  0  0  0  0  0  0  0
   38.5140   26.9000   35.3060 C   0  0  0  0  0  0  0  0  0  0  0  0
   38.7110   27.7440   36.4090 O   0  0  0  0  0  0  0  0  0  0  0  0
   37.1726   24.7952   38.2651 H   0  0  0  0  0  0  0  0  0  0  0  0
   39.7554   24.3572   34.8365 H   0  0  0  0  0  0  0  0  0  0  0  0
   40.3292   21.9874   38.3595 H   0  0  0  0  0  0  0  0  0  0  0  0
   37.3040   25.2623   34.7501 H   0  0  0  0  0  0  0  0  0  0  0  0
   36.8575   26.1148   36.3098 H   0  0  0  0  0  0  0  0  0  0  0  0
   39.4903   26.5410   34.9483 H   0  0  0  0  0  0  0  0  0  0  0  0
   38.0005   27.4680   34.5162 H   0  0  0  0  0  0  0  0  0  0  0  0
   38.5905   27.2278   37.2452 H   0  0  0  0  0  0  0  0  0  0  0  0
  1  6  2  0
  2  1  1  0
  3  2  2  0
  3  4  1  0
  4  5  2  0
  5  6  1  0
  7  2  1  0
  8  7  1  0
  8  9  1  0
  1 10  1  0
  3 11  1  0
  5 12  1  0
  7 13  1  0
  7 14  1  0
  8 15  1  0
  8 16  1  0
  9 17  1  0
M  ISO  8  10  14  11  14  12  14  13   8  14   8  15   8  16   8  17   3
M  END
>  <minimizedAffinity>  (1) 
-3.3760705

>  <minimizedRMSD>  (1) 
0.36217463

$$$$
