
     RDKit          3D

 29 30  0  0  0  0  0  0  0  0999 V2000
   37.3960   22.8120   32.9080 C   0  0  0  0  0  0  0  0  0  0  0  0
   38.3490   22.0790   35.1510 C   0  0  0  0  0  0  0  0  0  0  0  0
   37.9800   23.0760   34.2310 C   0  0  0  0  0  0  0  0  0  0  0  0
   38.1820   24.4190   34.5960 C   0  0  0  0  0  0  0  0  0  0  0  0
   38.7250   24.6680   35.8250 N   0  0  0  0  0  0  0  0  0  0  0  0
   39.0600   23.6790   36.6690 C   0  0  0  0  0  0  0  0  0  0  0  0
   38.8740   22.4020   36.3350 N   0  0  0  0  0  0  0  0  0  0  0  0
   38.0690   23.5540   31.7950 C   0  0  0  0  0  0  0  0  0  0  0  0
   37.1840   24.3050   30.8730 C   0  0  0  0  0  0  0  0  0  0  0  0
   35.7300   23.8580   31.0310 C   0  0  0  0  0  0  0  0  0  0  0  0
   34.8780   25.0800   31.0630 C   0  0  0  0  0  0  0  0  0  0  0  0
   35.7630   26.2790   31.0050 C   0  0  0  0  0  0  0  0  0  0  0  0
   37.1440   25.7800   31.2390 C   0  0  0  0  0  0  0  0  0  0  0  0
   37.4727   21.7340   32.7032 H   0  0  0  0  0  0  0  0  0  0  0  0
   36.3527   23.1591   32.9416 H   0  0  0  0  0  0  0  0  0  0  0  0
   38.2033   21.0199   34.8920 H   0  0  0  0  0  0  0  0  0  0  0  0
   37.9123   25.2404   33.9159 H   0  0  0  0  0  0  0  0  0  0  0  0
   39.4938   23.9258   37.6493 H   0  0  0  0  0  0  0  0  0  0  0  0
   38.7684   24.2727   32.2470 H   0  0  0  0  0  0  0  0  0  0  0  0
   38.5469   22.7807   31.1757 H   0  0  0  0  0  0  0  0  0  0  0  0
   37.5813   24.1259   29.8630 H   0  0  0  0  0  0  0  0  0  0  0  0
   35.4399   23.2218   30.1818 H   0  0  0  0  0  0  0  0  0  0  0  0
   35.6050   23.2784   31.9576 H   0  0  0  0  0  0  0  0  0  0  0  0
   34.1972   25.0798   30.1990 H   0  0  0  0  0  0  0  0  0  0  0  0
   34.2813   25.0978   31.9869 H   0  0  0  0  0  0  0  0  0  0  0  0
   35.6921   26.7591   30.0179 H   0  0  0  0  0  0  0  0  0  0  0  0
   35.4735   27.0304   31.7544 H   0  0  0  0  0  0  0  0  0  0  0  0
   37.4119   25.9083   32.2981 H   0  0  0  0  0  0  0  0  0  0  0  0
   37.8612   26.3438   30.6243 H   0  0  0  0  0  0  0  0  0  0  0  0
  1  3  1  0
  2  7  2  0
  3  4  2  0
  3  2  1  0
  4  5  1  0
  5  6  2  0
  7  6  1  0
  8  1  1  0
  9 10  1  0
  9 13  1  0
  9  8  1  0
 10 11  1  0
 12 11  1  0
 12 13  1  0
  1 14  1  0
  1 15  1  0
  2 16  1  0
  4 17  1  0
  6 18  1  0
  8 19  1  0
  8 20  1  0
  9 21  1  0
 10 22  1  0
 10 23  1  0
 11 24  1  0
 11 25  1  0
 12 26  1  0
 12 27  1  0
 13 28  1  0
 13 29  1  0
M  ISO  8  14   8  15   8  16  14  17  14  18  14  19   8  20   8  21  13
M  ISO  8  22  13  23  13  24  13  25  13  26  13  27  13  28  13  29  13
M  END
>  <minimizedAffinity>  (1) 
-3.32577348

>  <minimizedRMSD>  (1) 
5.60316181

$$$$
