
     RDKit          3D

 35 37  0  0  0  0  0  0  0  0999 V2000
   39.8980   22.7170   37.2070 C   0  0  0  0  0  0  0  0  0  0  0  0
   39.2820   23.2880   38.3400 C   0  0  0  0  0  0  0  0  0  0  0  0
   37.8970   23.3570   38.3670 C   0  0  0  0  0  0  0  0  0  0  0  0
   37.2150   22.8710   37.2970 N   0  0  0  0  0  0  0  0  0  0  0  0
   37.8270   22.3340   36.2310 C   0  0  0  0  0  0  0  0  0  0  0  0
   39.1640   22.2570   36.1880 N   0  0  0  0  0  0  0  0  0  0  0  0
   37.0970   21.8300   35.1190 N   0  0  0  0  0  0  0  0  0  0  0  0
   37.5590   22.1960   33.9220 C   0  0  0  0  0  0  0  0  0  0  0  0
   36.8990   21.7430   32.7940 C   0  0  0  0  0  0  0  0  0  0  0  0
   35.8080   20.9410   33.0260 C   0  0  0  0  0  0  0  0  0  0  0  0
   35.0540   20.4190   31.9390 N   0  0  0  0  0  0  0  0  0  0  0  0
   35.3660   20.5890   34.2380 N   0  0  0  0  0  0  0  0  0  0  0  0
   36.0220   21.0400   35.3320 C   0  0  0  0  0  0  0  0  0  0  0  0
   35.6940   20.7720   36.5110 O   0  0  0  0  0  0  0  0  0  0  0  0
   37.3240   22.0860   31.4720 N   0  0  0  0  0  0  0  0  0  0  0  0
   37.0390   23.2660   30.6880 C   0  0  0  0  0  0  0  0  0  0  0  0
   38.3490   23.8060   30.1960 C   0  0  0  0  0  0  0  0  0  0  0  0
   39.4680   23.1740   30.8550 N   0  0  0  0  0  0  0  0  0  0  0  0
   39.5450   21.7530   30.6830 C   0  0  0  0  0  0  0  0  0  0  0  0
   38.1810   21.1490   30.7300 C   0  0  0  0  0  0  0  0  0  0  0  0
   40.9949   22.6492   37.1609 H   0  0  0  0  0  0  0  0  0  0  0  0
   39.8833   23.6681   39.1790 H   0  0  0  0  0  0  0  0  0  0  0  0
   37.3673   23.7915   39.2276 H   0  0  0  0  0  0  0  0  0  0  0  0
   38.4443   22.8430   33.8342 H   0  0  0  0  0  0  0  0  0  0  0  0
   34.2372   19.8183   32.1203 H   0  0  0  0  0  0  0  0  0  0  0  0
   35.3248   20.6416   30.9705 H   0  0  0  0  0  0  0  0  0  0  0  0
   36.3962   23.0040   29.8347 H   0  0  0  0  0  0  0  0  0  0  0  0
   36.5130   24.0175   31.2951 H   0  0  0  0  0  0  0  0  0  0  0  0
   38.4248   23.6263   29.1134 H   0  0  0  0  0  0  0  0  0  0  0  0
   38.3822   24.8825   30.4199 H   0  0  0  0  0  0  0  0  0  0  0  0
   40.3344   23.5888   30.4832 H   0  0  0  0  0  0  0  0  0  0  0  0
   40.1597   21.3232   31.4876 H   0  0  0  0  0  0  0  0  0  0  0  0
   39.9981   21.5359   29.7044 H   0  0  0  0  0  0  0  0  0  0  0  0
   37.7939   21.0091   29.7099 H   0  0  0  0  0  0  0  0  0  0  0  0
   38.2033   20.1641   31.2193 H   0  0  0  0  0  0  0  0  0  0  0  0
  1  2  2  0
  2  3  1  0
  4  3  2  0
  5  4  1  0
  6  5  2  0
  6  1  1  0
  7 13  1  0
  7  5  1  0
  8  7  1  0
  9 10  1  0
  9  8  2  0
 10 12  2  0
 11 10  1  0
 12 13  1  0
 13 14  2  0
 15  9  1  0
 16 15  1  0
 17 16  1  0
 17 18  1  0
 19 20  1  0
 19 18  1  0
 20 15  1  0
  1 21  1  0
  2 22  1  0
  3 23  1  0
  8 24  1  0
 11 25  1  0
 11 26  1  0
 16 27  1  0
 16 28  1  0
 17 29  1  0
 17 30  1  0
 18 31  1  0
 19 32  1  0
 19 33  1  0
 20 34  1  0
 20 35  1  0
M  ISO  8  21  14  22  14  23  14  24  14  27  13  28  13  29  13  30  13
M  ISO  5  31   5  32  13  33  13  34  13  35  13
M  END
>  <minimizedAffinity>  (1) 
-5.14784718

>  <minimizedRMSD>  (1) 
1.2585088

$$$$
