
     RDKit          3D

 42 44  0  0  1  0  0  0  0  0999 V2000
   37.3700   27.3270   33.5410 C   0  0  2  0  0  0  0  0  0  0  0  0
   36.4510   28.1380   34.4210 C   0  0  0  0  0  0  0  0  0  0  0  0
   35.7400   29.1690   33.5860 C   0  0  0  0  0  0  0  0  0  0  0  0
   36.3140   29.2540   32.1930 C   0  0  0  0  0  0  0  0  0  0  0  0
   36.2350   27.9400   31.4770 C   0  0  0  0  0  0  0  0  0  0  0  0
   36.5900   26.8020   32.3970 C   0  0  1  0  0  0  0  0  0  0  0  0
   37.2610   25.8370   31.5550 N   0  0  0  0  0  0  0  0  0  0  0  0
   38.4620   26.1910   31.0060 C   0  0  0  0  0  0  0  0  0  0  0  0
   39.0500   25.2260   30.2190 C   0  0  0  0  0  0  0  0  0  0  0  0
   38.4780   23.9820   29.9930 C   0  0  0  0  0  0  0  0  0  0  0  0
   39.0520   23.1260   29.2640 O   0  0  0  0  0  0  0  0  0  0  0  0
   37.2820   23.7120   30.5760 N   0  0  0  0  0  0  0  0  0  0  0  0
   36.6810   24.6410   31.3530 C   0  0  0  0  0  0  0  0  0  0  0  0
   35.6000   24.2770   31.8280 O   0  0  0  0  0  0  0  0  0  0  0  0
   38.1190   26.2840   34.3130 C   0  0  0  0  0  0  0  0  0  0  0  0
   37.5520   25.9940   35.6500 C   0  0  0  0  0  0  0  0  0  0  0  0
   37.8980   24.3970   37.6240 C   0  0  0  0  0  0  0  0  0  0  0  0
   38.2400   24.9020   36.3560 C   0  0  0  0  0  0  0  0  0  0  0  0
   39.3260   24.3300   35.6940 C   0  0  0  0  0  0  0  0  0  0  0  0
   40.0070   23.3070   36.3070 N   0  0  0  0  0  0  0  0  0  0  0  0
   39.6340   22.8590   37.5300 C   0  0  0  0  0  0  0  0  0  0  0  0
   38.5880   23.4110   38.1660 N   0  0  0  0  0  0  0  0  0  0  0  0
   38.1651   27.9687   33.1335 H   0  0  0  0  0  0  0  0  0  0  0  0
   35.7115   27.4729   34.8909 H   0  0  0  0  0  0  0  0  0  0  0  0
   37.0398   28.6407   35.2025 H   0  0  0  0  0  0  0  0  0  0  0  0
   34.6759   28.8991   33.5169 H   0  0  0  0  0  0  0  0  0  0  0  0
   35.8685   30.1487   34.0694 H   0  0  0  0  0  0  0  0  0  0  0  0
   35.7502   30.0056   31.6209 H   0  0  0  0  0  0  0  0  0  0  0  0
   37.3744   29.5343   32.2768 H   0  0  0  0  0  0  0  0  0  0  0  0
   35.2105   27.7947   31.1038 H   0  0  0  0  0  0  0  0  0  0  0  0
   36.9511   27.9522   30.6421 H   0  0  0  0  0  0  0  0  0  0  0  0
   35.7348   26.3005   32.8736 H   0  0  0  0  0  0  0  0  0  0  0  0
   38.9244   27.1738   31.1800 H   0  0  0  0  0  0  0  0  0  0  0  0
   40.0179   25.4517   29.7477 H   0  0  0  0  0  0  0  0  0  0  0  0
   36.8317   22.7978   30.4261 H   0  0  0  0  0  0  0  0  0  0  0  0
   38.1156   25.3528   33.7275 H   0  0  0  0  0  0  0  0  0  0  0  0
   39.1319   26.6799   34.4784 H   0  0  0  0  0  0  0  0  0  0  0  0
   37.6236   26.9044   36.2633 H   0  0  0  0  0  0  0  0  0  0  0  0
   36.5107   25.6742   35.4969 H   0  0  0  0  0  0  0  0  0  0  0  0
   37.0461   24.8288   38.1697 H   0  0  0  0  0  0  0  0  0  0  0  0
   39.6310   24.6910   34.7007 H   0  0  0  0  0  0  0  0  0  0  0  0
   40.1914   22.0381   38.0049 H   0  0  0  0  0  0  0  0  0  0  0  0
  1 15  1  0
  1  2  1  0
  3  2  1  0
  4  3  1  0
  5  4  1  0
  5  6  1  0
  6  1  1  0
  7  6  1  0
  8  7  1  0
  9  8  2  0
 10  9  1  0
 10 12  1  0
 11 10  2  0
 12 13  1  0
 13  7  1  0
 13 14  2  0
 15 16  1  0
 16 18  1  0
 17 22  2  0
 18 17  1  0
 19 20  1  0
 19 18  2  0
 20 21  2  0
 21 22  1  0
  1 23  1  6
  2 24  1  0
  2 25  1  0
  3 26  1  0
  3 27  1  0
  4 28  1  0
  4 29  1  0
  5 30  1  0
  5 31  1  0
  6 32  1  1
  8 33  1  0
  9 34  1  0
 12 35  1  0
 15 36  1  0
 15 37  1  0
 16 38  1  0
 16 39  1  0
 17 40  1  0
 19 41  1  0
 21 42  1  0
M  ISO  8  23  13  24  13  25  13  26  13  27  13  28  13  29  13  30  13
M  ISO  8  31  13  32  13  33  14  34  14  35   9  36   8  37   8  38   8
M  ISO  4  39   8  40  14  41  14  42  14
M  END
>  <minimizedAffinity>  (1) 
-5.31371641

>  <minimizedRMSD>  (1) 
1.68150187

$$$$
