
     RDKit          3D

 42 44  0  0  1  0  0  0  0  0999 V2000
   37.4780   27.0870   33.6050 C   0  0  2  0  0  0  0  0  0  0  0  0
   36.6700   27.9890   34.5040 C   0  0  0  0  0  0  0  0  0  0  0  0
   35.8310   28.9290   33.6640 C   0  0  0  0  0  0  0  0  0  0  0  0
   36.3880   28.9870   32.2410 C   0  0  0  0  0  0  0  0  0  0  0  0
   36.3420   27.6600   31.5620 C   0  0  0  0  0  0  0  0  0  0  0  0
   36.5940   26.5340   32.5470 C   0  0  1  0  0  0  0  0  0  0  0  0
   37.1300   25.4140   31.7580 C   0  0  0  0  0  0  0  0  0  0  0  0
   36.3770   24.2630   31.9590 C   0  0  0  0  0  0  0  0  0  0  0  0
   36.7030   23.0660   31.3110 C   0  0  0  0  0  0  0  0  0  0  0  0
   37.7960   23.0480   30.4610 C   0  0  0  0  0  0  0  0  0  0  0  0
   38.5330   24.1950   30.2730 C   0  0  0  0  0  0  0  0  0  0  0  0
   38.2310   25.3690   30.8940 C   0  0  0  0  0  0  0  0  0  0  0  0
   38.2600   26.0840   34.4000 C   0  0  0  0  0  0  0  0  0  0  0  0
   37.6160   25.7050   35.6720 C   0  0  0  0  0  0  0  0  0  0  0  0
   38.0060   24.2990   37.7720 C   0  0  0  0  0  0  0  0  0  0  0  0
   38.3380   24.6900   36.4540 C   0  0  0  0  0  0  0  0  0  0  0  0
   39.4190   24.0870   35.8340 C   0  0  0  0  0  0  0  0  0  0  0  0
   40.1230   23.1300   36.5300 N   0  0  0  0  0  0  0  0  0  0  0  0
   39.7630   22.7930   37.7920 C   0  0  0  0  0  0  0  0  0  0  0  0
   38.7150   23.3760   38.3960 N   0  0  0  0  0  0  0  0  0  0  0  0
   38.2579   27.6538   33.0754 H   0  0  0  0  0  0  0  0  0  0  0  0
   36.0106   27.3779   35.1377 H   0  0  0  0  0  0  0  0  0  0  0  0
   37.3510   28.5764   35.1374 H   0  0  0  0  0  0  0  0  0  0  0  0
   34.7931   28.5659   33.6356 H   0  0  0  0  0  0  0  0  0  0  0  0
   35.8589   29.9355   34.1068 H   0  0  0  0  0  0  0  0  0  0  0  0
   35.7928   29.7043   31.6569 H   0  0  0  0  0  0  0  0  0  0  0  0
   37.4415   29.2972   32.3038 H   0  0  0  0  0  0  0  0  0  0  0  0
   35.3501   27.5236   31.1064 H   0  0  0  0  0  0  0  0  0  0  0  0
   37.1276   27.6336   30.7925 H   0  0  0  0  0  0  0  0  0  0  0  0
   35.7116   26.1412   33.0735 H   0  0  0  0  0  0  0  0  0  0  0  0
   35.5118   24.2934   32.6376 H   0  0  0  0  0  0  0  0  0  0  0  0
   36.1033   22.1583   31.4736 H   0  0  0  0  0  0  0  0  0  0  0  0
   38.0740   22.1209   29.9383 H   0  0  0  0  0  0  0  0  0  0  0  0
   39.3989   24.1624   29.5954 H   0  0  0  0  0  0  0  0  0  0  0  0
   38.8419   26.2670   30.7197 H   0  0  0  0  0  0  0  0  0  0  0  0
   38.3841   25.1773   33.7896 H   0  0  0  0  0  0  0  0  0  0  0  0
   39.2220   26.5534   34.6535 H   0  0  0  0  0  0  0  0  0  0  0  0
   37.5225   26.6099   36.2904 H   0  0  0  0  0  0  0  0  0  0  0  0
   36.6472   25.2572   35.4056 H   0  0  0  0  0  0  0  0  0  0  0  0
   37.1507   24.7673   38.2812 H   0  0  0  0  0  0  0  0  0  0  0  0
   39.7085   24.3657   34.8100 H   0  0  0  0  0  0  0  0  0  0  0  0
   40.3399   22.0276   38.3318 H   0  0  0  0  0  0  0  0  0  0  0  0
  1 13  1  0
  1  2  1  0
  3  2  1  0
  4  3  1  0
  5  4  1  0
  5  6  1  0
  6  1  1  0
  7  8  2  0
  7  6  1  0
  9  8  1  0
 10  9  2  0
 11 10  1  0
 11 12  2  0
 12  7  1  0
 13 14  1  0
 14 16  1  0
 15 20  2  0
 16 15  1  0
 17 16  2  0
 17 18  1  0
 18 19  2  0
 19 20  1  0
  1 21  1  6
  2 22  1  0
  2 23  1  0
  3 24  1  0
  3 25  1  0
  4 26  1  0
  4 27  1  0
  5 28  1  0
  5 29  1  0
  6 30  1  1
  8 31  1  0
  9 32  1  0
 10 33  1  0
 11 34  1  0
 12 35  1  0
 13 36  1  0
 13 37  1  0
 14 38  1  0
 14 39  1  0
 15 40  1  0
 17 41  1  0
 19 42  1  0
M  ISO  8  21  13  22  13  23  13  24  13  25  13  26  13  27  13  28  13
M  ISO  8  29  13  30  13  31  14  32  14  33  14  34  14  35  14  36   8
M  ISO  6  37   8  38   8  39   8  40  14  41  14  42  14
M  END
>  <minimizedAffinity>  (1) 
-5.1102109

>  <minimizedRMSD>  (1) 
1.44506443

$$$$
