
     RDKit          3D

 48 50  0  0  1  0  0  0  0  0999 V2000
   37.6860   27.3970   34.0210 C   0  0  2  0  0  0  0  0  0  0  0  0
   36.5240   28.1880   34.5860 C   0  0  0  0  0  0  0  0  0  0  0  0
   35.7330   28.8290   33.4800 C   0  0  0  0  0  0  0  0  0  0  0  0
   36.5610   28.8880   32.2260 C   0  0  0  0  0  0  0  0  0  0  0  0
   37.0460   27.5600   31.7390 C   0  0  0  0  0  0  0  0  0  0  0  0
   37.2530   26.5870   32.8920 C   0  0  1  0  0  0  0  0  0  0  0  0
   38.0210   25.4850   32.3200 C   0  0  0  0  0  0  0  0  0  0  0  0
   38.5920   25.6010   30.9600 C   0  0  0  0  0  0  0  0  0  0  0  0
   39.2170   24.2270   30.6520 C   0  0  0  0  0  0  0  0  0  0  0  0
   38.0810   23.2930   30.2830 C   0  0  0  0  0  0  0  0  0  0  0  0
   36.8020   23.7950   30.9170 C   0  0  0  0  0  0  0  0  0  0  0  0
   37.1220   24.2510   32.3250 C   0  0  0  0  0  0  0  0  0  0  0  0
   38.4000   26.7260   35.1500 C   0  0  0  0  0  0  0  0  0  0  0  0
   37.5360   25.7870   35.9210 C   0  0  0  0  0  0  0  0  0  0  0  0
   38.0610   24.2450   37.8840 C   0  0  0  0  0  0  0  0  0  0  0  0
   38.3060   24.7170   36.5810 C   0  0  0  0  0  0  0  0  0  0  0  0
   39.3570   24.1550   35.8660 C   0  0  0  0  0  0  0  0  0  0  0  0
   40.1110   23.1610   36.4630 N   0  0  0  0  0  0  0  0  0  0  0  0
   39.8180   22.7560   37.7200 C   0  0  0  0  0  0  0  0  0  0  0  0
   38.8180   23.2900   38.4050 N   0  0  0  0  0  0  0  0  0  0  0  0
   38.4564   28.0314   33.5583 H   0  0  0  0  0  0  0  0  0  0  0  0
   35.8685   27.5116   35.1542 H   0  0  0  0  0  0  0  0  0  0  0  0
   36.9182   28.9769   35.2434 H   0  0  0  0  0  0  0  0  0  0  0  0
   34.8255   28.2370   33.2903 H   0  0  0  0  0  0  0  0  0  0  0  0
   35.4551   29.8505   33.7787 H   0  0  0  0  0  0  0  0  0  0  0  0
   35.9501   29.3426   31.4322 H   0  0  0  0  0  0  0  0  0  0  0  0
   37.4570   29.4773   32.4707 H   0  0  0  0  0  0  0  0  0  0  0  0
   36.3028   27.1400   31.0453 H   0  0  0  0  0  0  0  0  0  0  0  0
   38.0117   27.7083   31.2336 H   0  0  0  0  0  0  0  0  0  0  0  0
   36.4106   26.0472   33.3492 H   0  0  0  0  0  0  0  0  0  0  0  0
   38.9138   25.4544   32.9619 H   0  0  0  0  0  0  0  0  0  0  0  0
   37.8022   25.8352   30.2311 H   0  0  0  0  0  0  0  0  0  0  0  0
   39.3365   26.4085   30.8996 H   0  0  0  0  0  0  0  0  0  0  0  0
   39.9225   24.3131   29.8125 H   0  0  0  0  0  0  0  0  0  0  0  0
   39.7710   23.8450   31.5222 H   0  0  0  0  0  0  0  0  0  0  0  0
   37.9650   23.2680   29.1894 H   0  0  0  0  0  0  0  0  0  0  0  0
   38.3019   22.2787   30.6468 H   0  0  0  0  0  0  0  0  0  0  0  0
   36.4027   24.6379   30.3338 H   0  0  0  0  0  0  0  0  0  0  0  0
   36.0476   22.9948   30.9379 H   0  0  0  0  0  0  0  0  0  0  0  0
   37.6352   23.4364   32.8571 H   0  0  0  0  0  0  0  0  0  0  0  0
   36.1788   24.5118   32.8273 H   0  0  0  0  0  0  0  0  0  0  0  0
   39.2494   26.1608   34.7388 H   0  0  0  0  0  0  0  0  0  0  0  0
   38.7236   27.5150   35.8448 H   0  0  0  0  0  0  0  0  0  0  0  0
   36.9955   26.3576   36.6906 H   0  0  0  0  0  0  0  0  0  0  0  0
   36.8465   25.3095   35.2092 H   0  0  0  0  0  0  0  0  0  0  0  0
   37.2361   24.6714   38.4737 H   0  0  0  0  0  0  0  0  0  0  0  0
   39.5848   24.4943   34.8447 H   0  0  0  0  0  0  0  0  0  0  0  0
   40.4246   21.9645   38.1842 H   0  0  0  0  0  0  0  0  0  0  0  0
  1  2  1  0
  1 13  1  0
  3  2  1  0
  4  3  1  0
  5  4  1  0
  5  6  1  0
  6  1  1  0
  7 12  1  0
  7  6  1  0
  8  7  1  0
  9  8  1  0
 10  9  1  0
 10 11  1  0
 11 12  1  0
 13 14  1  0
 14 16  1  0
 15 20  2  0
 16 15  1  0
 17 18  1  0
 17 16  2  0
 18 19  2  0
 19 20  1  0
  1 21  1  6
  2 22  1  0
  2 23  1  0
  3 24  1  0
  3 25  1  0
  4 26  1  0
  4 27  1  0
  5 28  1  0
  5 29  1  0
  6 30  1  1
  7 31  1  0
  8 32  1  0
  8 33  1  0
  9 34  1  0
  9 35  1  0
 10 36  1  0
 10 37  1  0
 11 38  1  0
 11 39  1  0
 12 40  1  0
 12 41  1  0
 13 42  1  0
 13 43  1  0
 14 44  1  0
 14 45  1  0
 15 46  1  0
 17 47  1  0
 19 48  1  0
M  ISO  8  21  13  22  13  23  13  24  13  25  13  26  13  27  13  28  13
M  ISO  8  29  13  30  13  31  13  32  13  33  13  34  13  35  13  36  13
M  ISO  8  37  13  38  13  39  13  40  13  41  13  42   8  43   8  44   8
M  ISO  4  45   8  46  14  47  14  48  14
M  END
>  <minimizedAffinity>  (1) 
-5.02973032

>  <minimizedRMSD>  (1) 
0.378668964

$$$$
