
     RDKit          3D

 43 46  0  0  1  0  0  0  0  0999 V2000
   37.3770   26.9670   33.5860 C   0  0  2  0  0  0  0  0  0  0  0  0
   36.7200   27.9590   34.5170 C   0  0  0  0  0  0  0  0  0  0  0  0
   35.9460   28.9740   33.7200 C   0  0  0  0  0  0  0  0  0  0  0  0
   36.3220   28.9110   32.2510 C   0  0  0  0  0  0  0  0  0  0  0  0
   36.0850   27.5730   31.6390 C   0  0  0  0  0  0  0  0  0  0  0  0
   36.3840   26.4530   32.6110 C   0  0  1  0  0  0  0  0  0  0  0  0
   36.8360   25.3530   31.7790 N   0  0  0  0  0  0  0  0  0  0  0  0
   36.2600   24.1370   31.7660 C   0  0  0  0  0  0  0  0  0  0  0  0
   36.9500   23.3420   30.8940 N   0  0  0  0  0  0  0  0  0  0  0  0
   37.9530   24.0660   30.3660 C   0  0  0  0  0  0  0  0  0  0  0  0
   38.9790   23.8710   29.4560 C   0  0  0  0  0  0  0  0  0  0  0  0
   39.8610   24.8280   29.1170 N   0  0  0  0  0  0  0  0  0  0  0  0
   39.7660   26.0400   29.6710 C   0  0  0  0  0  0  0  0  0  0  0  0
   38.7750   26.2940   30.5740 N   0  0  0  0  0  0  0  0  0  0  0  0
   37.8950   25.3520   30.9180 C   0  0  0  0  0  0  0  0  0  0  0  0
   38.1370   25.9300   34.3630 C   0  0  0  0  0  0  0  0  0  0  0  0
   37.6240   25.7310   35.7350 C   0  0  0  0  0  0  0  0  0  0  0  0
   38.0250   24.2900   37.8140 C   0  0  0  0  0  0  0  0  0  0  0  0
   38.3420   24.7030   36.5050 C   0  0  0  0  0  0  0  0  0  0  0  0
   39.4140   24.0960   35.8740 C   0  0  0  0  0  0  0  0  0  0  0  0
   40.1310   23.1200   36.5340 N   0  0  0  0  0  0  0  0  0  0  0  0
   39.7750   22.7660   37.7940 C   0  0  0  0  0  0  0  0  0  0  0  0
   38.7360   23.3510   38.4140 N   0  0  0  0  0  0  0  0  0  0  0  0
   38.1477   27.4567   32.9726 H   0  0  0  0  0  0  0  0  0  0  0  0
   36.0348   27.4264   35.1929 H   0  0  0  0  0  0  0  0  0  0  0  0
   37.4953   28.4737   35.1036 H   0  0  0  0  0  0  0  0  0  0  0  0
   34.8702   28.7702   33.8254 H   0  0  0  0  0  0  0  0  0  0  0  0
   36.1864   29.9774   34.1013 H   0  0  0  0  0  0  0  0  0  0  0  0
   35.7239   29.6555   31.7052 H   0  0  0  0  0  0  0  0  0  0  0  0
   37.4008   29.1147   32.1817 H   0  0  0  0  0  0  0  0  0  0  0  0
   35.0319   27.5043   31.3287 H   0  0  0  0  0  0  0  0  0  0  0  0
   36.7578   27.4666   30.7753 H   0  0  0  0  0  0  0  0  0  0  0  0
   35.5366   26.0971   33.2154 H   0  0  0  0  0  0  0  0  0  0  0  0
   35.3829   23.8341   32.3567 H   0  0  0  0  0  0  0  0  0  0  0  0
   39.0775   22.8814   28.9859 H   0  0  0  0  0  0  0  0  0  0  0  0
   40.4830   26.8292   29.4006 H   0  0  0  0  0  0  0  0  0  0  0  0
   38.0715   24.9733   33.8242 H   0  0  0  0  0  0  0  0  0  0  0  0
   39.1736   26.2868   34.4527 H   0  0  0  0  0  0  0  0  0  0  0  0
   37.7049   26.6858   36.2753 H   0  0  0  0  0  0  0  0  0  0  0  0
   36.5850   25.3834   35.6363 H   0  0  0  0  0  0  0  0  0  0  0  0
   37.1781   24.7531   38.3416 H   0  0  0  0  0  0  0  0  0  0  0  0
   39.6927   24.3905   34.8514 H   0  0  0  0  0  0  0  0  0  0  0  0
   40.3470   21.9860   38.3179 H   0  0  0  0  0  0  0  0  0  0  0  0
  1 16  1  0
  1  2  1  0
  3  2  1  0
  4  3  1  0
  5  4  1  0
  5  6  1  0
  6  1  1  0
  7  6  1  0
  8  7  1  0
  9  8  2  0
 10  9  1  0
 10 15  2  0
 11 10  1  0
 12 11  2  0
 12 13  1  0
 13 14  2  0
 14 15  1  0
 15  7  1  0
 16 17  1  0
 17 19  1  0
 18 23  2  0
 19 18  1  0
 20 19  2  0
 20 21  1  0
 21 22  2  0
 22 23  1  0
  1 24  1  6
  2 25  1  0
  2 26  1  0
  3 27  1  0
  3 28  1  0
  4 29  1  0
  4 30  1  0
  5 31  1  0
  5 32  1  0
  6 33  1  1
  8 34  1  0
 11 35  1  0
 13 36  1  0
 16 37  1  0
 16 38  1  0
 17 39  1  0
 17 40  1  0
 18 41  1  0
 20 42  1  0
 22 43  1  0
M  ISO  8  24  13  25  13  26  13  27  13  28  13  29  13  30  13  31  13
M  ISO  8  32  13  33  13  34  14  35  14  36  14  37   8  38   8  39   8
M  ISO  4  40   8  41  14  42  14  43  14
M  END
>  <minimizedAffinity>  (1) 
-5.39183235

>  <minimizedRMSD>  (1) 
1.32029152

$$$$
