
     RDKit          3D

 37 39  0  0  1  0  0  0  0  0999 V2000
   37.3990   26.9790   33.5510 C   0  0  2  0  0  0  0  0  0  0  0  0
   36.7030   27.9390   34.4840 C   0  0  0  0  0  0  0  0  0  0  0  0
   35.9140   28.9490   33.6790 C   0  0  0  0  0  0  0  0  0  0  0  0
   36.4160   28.9700   32.2380 C   0  0  0  0  0  0  0  0  0  0  0  0
   36.2670   27.6630   31.5490 C   0  0  0  0  0  0  0  0  0  0  0  0
   36.4500   26.5070   32.5100 C   0  0  1  0  0  0  0  0  0  0  0  0
   36.8410   25.3600   31.6980 C   0  0  0  0  0  0  0  0  0  0  0  0
   37.7850   25.0440   30.7920 N   0  0  0  0  0  0  0  0  0  0  0  0
   37.6570   23.8240   30.3980 O   0  0  0  0  0  0  0  0  0  0  0  0
   36.6230   23.2630   31.0180 C   0  0  0  0  0  0  0  0  0  0  0  0
   36.1200   24.2300   31.8270 N   0  0  0  0  0  0  0  0  0  0  0  0
   38.1290   25.9040   34.3030 C   0  0  0  0  0  0  0  0  0  0  0  0
   37.6320   25.7420   35.7050 C   0  0  0  0  0  0  0  0  0  0  0  0
   38.0220   24.3010   37.7830 C   0  0  0  0  0  0  0  0  0  0  0  0
   38.3580   24.7000   36.4680 C   0  0  0  0  0  0  0  0  0  0  0  0
   39.4310   24.0920   35.8370 C   0  0  0  0  0  0  0  0  0  0  0  0
   40.1150   23.1290   36.5280 N   0  0  0  0  0  0  0  0  0  0  0  0
   39.7540   22.7820   37.7870 C   0  0  0  0  0  0  0  0  0  0  0  0
   38.7240   23.3610   38.4020 N   0  0  0  0  0  0  0  0  0  0  0  0
   38.2004   27.4979   33.0046 H   0  0  0  0  0  0  0  0  0  0  0  0
   36.0198   27.3805   35.1407 H   0  0  0  0  0  0  0  0  0  0  0  0
   37.4533   28.4641   35.0934 H   0  0  0  0  0  0  0  0  0  0  0  0
   34.8492   28.6731   33.6904 H   0  0  0  0  0  0  0  0  0  0  0  0
   36.0439   29.9472   34.1226 H   0  0  0  0  0  0  0  0  0  0  0  0
   35.8455   29.7269   31.6797 H   0  0  0  0  0  0  0  0  0  0  0  0
   37.4905   29.2033   32.2689 H   0  0  0  0  0  0  0  0  0  0  0  0
   35.2617   27.6045   31.1063 H   0  0  0  0  0  0  0  0  0  0  0  0
   37.0413   27.5919   30.7709 H   0  0  0  0  0  0  0  0  0  0  0  0
   35.5607   26.1735   33.0650 H   0  0  0  0  0  0  0  0  0  0  0  0
   36.2536   22.2336   30.9003 H   0  0  0  0  0  0  0  0  0  0  0  0
   37.9976   24.9505   33.7705 H   0  0  0  0  0  0  0  0  0  0  0  0
   39.1880   26.1965   34.3572 H   0  0  0  0  0  0  0  0  0  0  0  0
   37.7470   26.7022   36.2292 H   0  0  0  0  0  0  0  0  0  0  0  0
   36.5800   25.4266   35.6431 H   0  0  0  0  0  0  0  0  0  0  0  0
   37.1718   24.7740   38.2963 H   0  0  0  0  0  0  0  0  0  0  0  0
   39.7234   24.3739   34.8147 H   0  0  0  0  0  0  0  0  0  0  0  0
   40.3252   22.0035   38.3139 H   0  0  0  0  0  0  0  0  0  0  0  0
  1 12  1  0
  1  2  1  0
  3  2  1  0
  4  3  1  0
  5  4  1  0
  5  6  1  0
  6  1  1  0
  7 11  1  0
  7  6  1  0
  8  7  2  0
  9  8  1  0
  9 10  1  0
 10 11  2  0
 12 13  1  0
 13 15  1  0
 14 19  2  0
 15 14  1  0
 16 15  2  0
 16 17  1  0
 17 18  2  0
 18 19  1  0
  1 20  1  6
  2 21  1  0
  2 22  1  0
  3 23  1  0
  3 24  1  0
  4 25  1  0
  4 26  1  0
  5 27  1  0
  5 28  1  0
  6 29  1  1
 10 30  1  0
 12 31  1  0
 12 32  1  0
 13 33  1  0
 13 34  1  0
 14 35  1  0
 16 36  1  0
 18 37  1  0
M  ISO  8  20  13  21  13  22  13  23  13  24  13  25  13  26  13  27  13
M  ISO  8  28  13  29  13  30  14  31   8  32   8  33   8  34   8  35  14
M  ISO  2  36  14  37  14
M  END
>  <minimizedAffinity>  (1) 
-4.90974903

>  <minimizedRMSD>  (1) 
1.37904322

$$$$
