
     RDKit          3D

 39 41  0  0  1  0  0  0  0  0999 V2000
   37.4180   27.0450   33.6300 C   0  0  2  0  0  0  0  0  0  0  0  0
   36.7010   28.0190   34.5370 C   0  0  0  0  0  0  0  0  0  0  0  0
   35.8970   28.9880   33.7080 C   0  0  0  0  0  0  0  0  0  0  0  0
   36.3210   28.9300   32.2490 C   0  0  0  0  0  0  0  0  0  0  0  0
   36.1630   27.5820   31.6420 C   0  0  0  0  0  0  0  0  0  0  0  0
   36.4580   26.4850   32.6470 C   0  0  1  0  0  0  0  0  0  0  0  0
   36.8800   25.3380   31.8480 C   0  0  0  0  0  0  0  0  0  0  0  0
   37.8740   25.2050   30.8710 C   0  0  0  0  0  0  0  0  0  0  0  0
   37.8650   23.8970   30.4260 C   0  0  0  0  0  0  0  0  0  0  0  0
   36.8530   23.2740   31.1560 C   0  0  0  0  0  0  0  0  0  0  0  0
   36.3210   24.1570   31.9600 O   0  0  0  0  0  0  0  0  0  0  0  0
   38.2060   26.0480   34.4290 C   0  0  0  0  0  0  0  0  0  0  0  0
   37.6170   25.7220   35.7360 C   0  0  0  0  0  0  0  0  0  0  0  0
   38.0230   24.2940   37.8110 C   0  0  0  0  0  0  0  0  0  0  0  0
   38.3450   24.6990   36.5020 C   0  0  0  0  0  0  0  0  0  0  0  0
   39.4210   24.0870   35.8800 C   0  0  0  0  0  0  0  0  0  0  0  0
   40.1310   23.1120   36.5530 N   0  0  0  0  0  0  0  0  0  0  0  0
   39.7740   22.7670   37.8010 C   0  0  0  0  0  0  0  0  0  0  0  0
   38.7340   23.3520   38.4190 N   0  0  0  0  0  0  0  0  0  0  0  0
   38.1836   27.5551   33.0270 H   0  0  0  0  0  0  0  0  0  0  0  0
   36.0277   27.4658   35.2082 H   0  0  0  0  0  0  0  0  0  0  0  0
   37.4407   28.5750   35.1318 H   0  0  0  0  0  0  0  0  0  0  0  0
   34.8305   28.7297   33.7843 H   0  0  0  0  0  0  0  0  0  0  0  0
   36.0720   30.0060   34.0863 H   0  0  0  0  0  0  0  0  0  0  0  0
   35.7077   29.6433   31.6789 H   0  0  0  0  0  0  0  0  0  0  0  0
   37.3916   29.1799   32.2115 H   0  0  0  0  0  0  0  0  0  0  0  0
   35.1293   27.4700   31.2829 H   0  0  0  0  0  0  0  0  0  0  0  0
   36.8770   27.4908   30.8102 H   0  0  0  0  0  0  0  0  0  0  0  0
   35.6206   26.1291   33.2651 H   0  0  0  0  0  0  0  0  0  0  0  0
   38.5449   26.0025   30.5192 H   0  0  0  0  0  0  0  0  0  0  0  0
   38.5148   23.4452   29.6620 H   0  0  0  0  0  0  0  0  0  0  0  0
   36.5534   22.2191   31.0699 H   0  0  0  0  0  0  0  0  0  0  0  0
   38.2820   25.1197   33.8437 H   0  0  0  0  0  0  0  0  0  0  0  0
   39.1853   26.5070   34.6295 H   0  0  0  0  0  0  0  0  0  0  0  0
   37.5868   26.6427   36.3371 H   0  0  0  0  0  0  0  0  0  0  0  0
   36.6200   25.3048   35.5313 H   0  0  0  0  0  0  0  0  0  0  0  0
   37.1758   24.7615   38.3342 H   0  0  0  0  0  0  0  0  0  0  0  0
   39.7077   24.3754   34.8579 H   0  0  0  0  0  0  0  0  0  0  0  0
   40.3452   21.9889   38.3285 H   0  0  0  0  0  0  0  0  0  0  0  0
  1 12  1  0
  1  2  1  0
  3  2  1  0
  4  3  1  0
  5  4  1  0
  5  6  1  0
  6  1  1  0
  7 11  1  0
  7  6  1  0
  8  7  2  0
  9  8  1  0
  9 10  2  0
 10 11  1  0
 12 13  1  0
 13 15  1  0
 14 19  2  0
 15 14  1  0
 16 15  2  0
 16 17  1  0
 17 18  2  0
 18 19  1  0
  1 20  1  6
  2 21  1  0
  2 22  1  0
  3 23  1  0
  3 24  1  0
  4 25  1  0
  4 26  1  0
  5 27  1  0
  5 28  1  0
  6 29  1  1
  8 30  1  0
  9 31  1  0
 10 32  1  0
 12 33  1  0
 12 34  1  0
 13 35  1  0
 13 36  1  0
 14 37  1  0
 16 38  1  0
 18 39  1  0
M  ISO  8  20  13  21  13  22  13  23  13  24  13  25  13  26  13  27  13
M  ISO  8  28  13  29  13  30  14  31  14  32  14  33   8  34   8  35   8
M  ISO  4  36   8  37  14  38  14  39  14
M  END
>  <minimizedAffinity>  (1) 
-4.91087532

>  <minimizedRMSD>  (1) 
1.28539121

$$$$
