
     RDKit          3D

 39 41  0  0  1  0  0  0  0  0999 V2000
   37.4270   27.0420   33.6190 C   0  0  2  0  0  0  0  0  0  0  0  0
   36.6850   27.9840   34.5290 C   0  0  0  0  0  0  0  0  0  0  0  0
   35.9190   28.9840   33.7030 C   0  0  0  0  0  0  0  0  0  0  0  0
   36.3530   28.9410   32.2480 C   0  0  0  0  0  0  0  0  0  0  0  0
   36.1200   27.5930   31.6450 C   0  0  0  0  0  0  0  0  0  0  0  0
   36.4770   26.4890   32.6140 C   0  0  1  0  0  0  0  0  0  0  0  0
   37.0450   25.4590   31.7660 N   0  0  0  0  0  0  0  0  0  0  0  0
   36.5870   24.1830   31.7480 C   0  0  0  0  0  0  0  0  0  0  0  0
   37.3550   23.4540   30.8300 C   0  0  0  0  0  0  0  0  0  0  0  0
   38.2620   24.3260   30.3190 N   0  0  0  0  0  0  0  0  0  0  0  0
   38.0800   25.5370   30.8790 C   0  0  0  0  0  0  0  0  0  0  0  0
   38.1870   26.0160   34.4050 C   0  0  0  0  0  0  0  0  0  0  0  0
   37.6160   25.7370   35.7430 C   0  0  0  0  0  0  0  0  0  0  0  0
   38.0220   24.2920   37.8120 C   0  0  0  0  0  0  0  0  0  0  0  0
   38.3390   24.7030   36.5020 C   0  0  0  0  0  0  0  0  0  0  0  0
   39.4180   24.1010   35.8520 C   0  0  0  0  0  0  0  0  0  0  0  0
   40.1180   23.1290   36.5320 N   0  0  0  0  0  0  0  0  0  0  0  0
   39.7700   22.7720   37.7900 C   0  0  0  0  0  0  0  0  0  0  0  0
   38.7330   23.3520   38.4140 N   0  0  0  0  0  0  0  0  0  0  0  0
   38.2040   27.5773   33.0536 H   0  0  0  0  0  0  0  0  0  0  0  0
   35.9841   27.4124   35.1551 H   0  0  0  0  0  0  0  0  0  0  0  0
   37.4036   28.5140   35.1715 H   0  0  0  0  0  0  0  0  0  0  0  0
   34.8453   28.7528   33.7643 H   0  0  0  0  0  0  0  0  0  0  0  0
   36.1218   29.9905   34.0977 H   0  0  0  0  0  0  0  0  0  0  0  0
   35.7793   29.6896   31.6819 H   0  0  0  0  0  0  0  0  0  0  0  0
   37.4307   29.1568   32.2034 H   0  0  0  0  0  0  0  0  0  0  0  0
   35.0583   27.5010   31.3723 H   0  0  0  0  0  0  0  0  0  0  0  0
   36.7600   27.4950   30.7557 H   0  0  0  0  0  0  0  0  0  0  0  0
   35.6396   26.0760   33.1956 H   0  0  0  0  0  0  0  0  0  0  0  0
   35.7556   23.7879   32.3503 H   0  0  0  0  0  0  0  0  0  0  0  0
   37.2452   22.3897   30.5747 H   0  0  0  0  0  0  0  0  0  0  0  0
   38.6681   26.4400   30.6583 H   0  0  0  0  0  0  0  0  0  0  0  0
   38.1967   25.0779   33.8307 H   0  0  0  0  0  0  0  0  0  0  0  0
   39.1956   26.4234   34.5683 H   0  0  0  0  0  0  0  0  0  0  0  0
   37.6328   26.6691   36.3269 H   0  0  0  0  0  0  0  0  0  0  0  0
   36.5971   25.3560   35.5796 H   0  0  0  0  0  0  0  0  0  0  0  0
   37.1758   24.7567   38.3392 H   0  0  0  0  0  0  0  0  0  0  0  0
   39.7000   24.3935   34.8298 H   0  0  0  0  0  0  0  0  0  0  0  0
   40.3469   21.9931   38.3101 H   0  0  0  0  0  0  0  0  0  0  0  0
  1 12  1  0
  1  2  1  0
  3  2  1  0
  4  3  1  0
  5  4  1  0
  5  6  1  0
  6  1  1  0
  7  6  1  0
  8  7  1  0
  9  8  2  0
 10  9  1  0
 10 11  2  0
 11  7  1  0
 12 13  1  0
 13 15  1  0
 14 19  2  0
 15 14  1  0
 16 15  2  0
 16 17  1  0
 17 18  2  0
 18 19  1  0
  1 20  1  6
  2 21  1  0
  2 22  1  0
  3 23  1  0
  3 24  1  0
  4 25  1  0
  4 26  1  0
  5 27  1  0
  5 28  1  0
  6 29  1  1
  8 30  1  0
  9 31  1  0
 11 32  1  0
 12 33  1  0
 12 34  1  0
 13 35  1  0
 13 36  1  0
 14 37  1  0
 16 38  1  0
 18 39  1  0
M  ISO  8  20  13  21  13  22  13  23  13  24  13  25  13  26  13  27  13
M  ISO  8  28  13  29  13  30  14  31  14  32  14  33   8  34   8  35   8
M  ISO  4  36   8  37  14  38  14  39  14
M  END
>  <minimizedAffinity>  (1) 
-4.79475069

>  <minimizedRMSD>  (1) 
1.22876275

$$$$
