
     RDKit          3D

 39 40  0  0  1  0  0  0  0  0999 V2000
   37.9090   27.2690   33.6090 C   0  0  2  0  0  0  0  0  0  0  0  0
   36.6030   27.7960   34.1230 C   0  0  0  0  0  0  0  0  0  0  0  0
   35.9570   28.6170   33.0310 C   0  0  0  0  0  0  0  0  0  0  0  0
   36.9230   28.9060   31.8890 C   0  0  0  0  0  0  0  0  0  0  0  0
   37.5010   27.6820   31.2680 C   0  0  0  0  0  0  0  0  0  0  0  0
   37.6800   26.5780   32.3060 C   0  0  2  0  0  0  0  0  0  0  0  0
   36.4290   25.8460   32.2520 N   0  0  0  0  0  0  0  0  0  0  0  0
   36.3720   24.8490   31.2110 C   0  0  0  0  0  0  0  0  0  0  0  0
   37.3400   24.4190   30.4670 N   0  0  0  0  0  0  0  0  0  0  0  0
   35.1190   24.2040   30.8990 N   0  0  0  0  0  0  0  0  0  0  0  0
   38.3250   24.7480   30.5220 H   0  0  0  0  0  0  0  0  0  0  0  0
   38.6480   26.4640   34.6340 C   0  0  0  0  0  0  0  0  0  0  0  0
   37.7830   25.8540   35.6600 C   0  0  0  0  0  0  0  0  0  0  0  0
   38.0520   24.3480   37.7110 C   0  0  0  0  0  0  0  0  0  0  0  0
   38.4390   24.7770   36.4240 C   0  0  0  0  0  0  0  0  0  0  0  0
   39.5210   24.1440   35.8140 C   0  0  0  0  0  0  0  0  0  0  0  0
   40.1480   23.1320   36.5140 N   0  0  0  0  0  0  0  0  0  0  0  0
   39.7360   22.7650   37.7390 C   0  0  0  0  0  0  0  0  0  0  0  0
   38.6940   23.3740   38.3270 N   0  0  0  0  0  0  0  0  0  0  0  0
   38.5945   28.1060   33.4103 H   0  0  0  0  0  0  0  0  0  0  0  0
   35.9454   26.9574   34.3956 H   0  0  0  0  0  0  0  0  0  0  0  0
   36.7710   28.4182   35.0144 H   0  0  0  0  0  0  0  0  0  0  0  0
   35.0930   28.0637   32.6343 H   0  0  0  0  0  0  0  0  0  0  0  0
   35.6470   29.5785   33.4662 H   0  0  0  0  0  0  0  0  0  0  0  0
   36.3838   29.4678   31.1121 H   0  0  0  0  0  0  0  0  0  0  0  0
   37.7616   29.4766   32.3146 H   0  0  0  0  0  0  0  0  0  0  0  0
   36.8251   27.3261   30.4765 H   0  0  0  0  0  0  0  0  0  0  0  0
   38.4862   27.9326   30.8477 H   0  0  0  0  0  0  0  0  0  0  0  0
   38.5197   25.8852   32.1480 H   0  0  0  0  0  0  0  0  0  0  0  0
   35.6488   26.0228   32.9008 H   0  0  0  0  0  0  0  0  0  0  0  0
   35.0773   23.4920   30.1559 H   0  0  0  0  0  0  0  0  0  0  0  0
   34.2666   24.4557   31.4195 H   0  0  0  0  0  0  0  0  0  0  0  0
   39.1895   25.6588   34.1158 H   0  0  0  0  0  0  0  0  0  0  0  0
   39.3197   27.1594   35.1587 H   0  0  0  0  0  0  0  0  0  0  0  0
   37.4723   26.6398   36.3642 H   0  0  0  0  0  0  0  0  0  0  0  0
   36.9299   25.4011   35.1335 H   0  0  0  0  0  0  0  0  0  0  0  0
   37.2003   24.8340   38.2094 H   0  0  0  0  0  0  0  0  0  0  0  0
   39.8630   24.4399   34.8113 H   0  0  0  0  0  0  0  0  0  0  0  0
   40.2595   21.9546   38.2673 H   0  0  0  0  0  0  0  0  0  0  0  0
  1  2  1  0
  1 12  1  0
  3  2  1  0
  4  3  1  0
  5  4  1  0
  5  6  1  0
  6  1  1  0
  7  6  1  0
  8  7  1  0
  9 11  1  0
  9  8  2  0
 10  8  1  0
 12 13  1  0
 13 15  1  0
 14 19  2  0
 15 14  1  0
 16 15  2  0
 16 17  1  0
 17 18  2  0
 18 19  1  0
  1 20  1  6
  2 21  1  0
  2 22  1  0
  3 23  1  0
  3 24  1  0
  4 25  1  0
  4 26  1  0
  5 27  1  0
  5 28  1  0
  6 29  1  6
  7 30  1  0
 10 31  1  0
 10 32  1  0
 12 33  1  0
 12 34  1  0
 13 35  1  0
 13 36  1  0
 14 37  1  0
 16 38  1  0
 18 39  1  0
M  ISO  8  20  13  21  13  22  13  23  13  24  13  25  13  26  13  27  13
M  ISO  8  28  13  29  13  33   8  34   8  35   8  36   8  37  14  38  14
M  ISO  1  39  14
M  END
>  <minimizedAffinity>  (1) 
-4.82038164

>  <minimizedRMSD>  (1) 
1.071293

$$$$
