
     RDKit          3D

 38 39  0  0  1  0  0  0  0  0999 V2000
   37.5470   27.1800   33.7780 C   0  0  2  0  0  0  0  0  0  0  0  0
   36.7120   28.1420   34.5900 C   0  0  0  0  0  0  0  0  0  0  0  0
   35.8550   28.9790   33.6760 C   0  0  0  0  0  0  0  0  0  0  0  0
   36.3710   28.8860   32.2490 C   0  0  0  0  0  0  0  0  0  0  0  0
   36.3010   27.4910   31.7310 C   0  0  0  0  0  0  0  0  0  0  0  0
   36.7040   26.4870   32.7990 C   0  0  1  0  0  0  0  0  0  0  0  0
   38.3880   26.3360   34.6810 C   0  0  0  0  0  0  0  0  0  0  0  0
   37.6210   25.7180   35.7840 C   0  0  0  0  0  0  0  0  0  0  0  0
   38.0430   24.2690   37.8430 C   0  0  0  0  0  0  0  0  0  0  0  0
   38.3820   24.6720   36.5160 C   0  0  0  0  0  0  0  0  0  0  0  0
   39.4500   24.0760   35.8720 C   0  0  0  0  0  0  0  0  0  0  0  0
   40.1450   23.1120   36.5420 N   0  0  0  0  0  0  0  0  0  0  0  0
   39.8000   22.7490   37.8020 C   0  0  0  0  0  0  0  0  0  0  0  0
   38.7650   23.3230   38.4340 N   0  0  0  0  0  0  0  0  0  0  0  0
   37.1960   25.3300   32.0250 C   0  0  0  0  0  0  0  0  0  0  0  0
   35.9130   24.6540   31.4520 C   0  0  0  0  0  0  0  0  0  0  0  0
   38.2879   27.7049   33.1570 H   0  0  0  0  0  0  0  0  0  0  0  0
   36.0663   27.5743   35.2761 H   0  0  0  0  0  0  0  0  0  0  0  0
   37.3783   28.8020   35.1649 H   0  0  0  0  0  0  0  0  0  0  0  0
   34.8182   28.6134   33.7129 H   0  0  0  0  0  0  0  0  0  0  0  0
   35.8930   30.0277   34.0058 H   0  0  0  0  0  0  0  0  0  0  0  0
   35.7608   29.5369   31.6055 H   0  0  0  0  0  0  0  0  0  0  0  0
   37.4242   29.2033   32.2423 H   0  0  0  0  0  0  0  0  0  0  0  0
   35.2706   27.2789   31.4097 H   0  0  0  0  0  0  0  0  0  0  0  0
   36.9980   27.3982   30.8851 H   0  0  0  0  0  0  0  0  0  0  0  0
   35.9359   26.0696   33.4666 H   0  0  0  0  0  0  0  0  0  0  0  0
   38.8472   25.5350   34.0831 H   0  0  0  0  0  0  0  0  0  0  0  0
   39.1410   26.9958   35.1367 H   0  0  0  0  0  0  0  0  0  0  0  0
   37.3376   26.5065   36.4967 H   0  0  0  0  0  0  0  0  0  0  0  0
   36.7435   25.2288   35.3362 H   0  0  0  0  0  0  0  0  0  0  0  0
   37.1964   24.7349   38.3685 H   0  0  0  0  0  0  0  0  0  0  0  0
   39.7311   24.3701   34.8500 H   0  0  0  0  0  0  0  0  0  0  0  0
   40.3801   21.9685   38.3162 H   0  0  0  0  0  0  0  0  0  0  0  0
   37.8552   25.6623   31.2095 H   0  0  0  0  0  0  0  0  0  0  0  0
   37.7861   24.6387   32.6446 H   0  0  0  0  0  0  0  0  0  0  0  0
   35.2741   24.3174   32.2818 H   0  0  0  0  0  0  0  0  0  0  0  0
   35.3612   25.3785   30.8350 H   0  0  0  0  0  0  0  0  0  0  0  0
   36.1986   23.7893   30.8350 H   0  0  0  0  0  0  0  0  0  0  0  0
  1  2  1  0
  1  7  1  0
  3  2  1  0
  4  3  1  0
  5  4  1  0
  5  6  1  0
  6  1  1  0
  7  8  1  0
  8 10  1  0
  9 14  2  0
 10  9  1  0
 11 10  2  0
 11 12  1  0
 12 13  2  0
 13 14  1  0
 15  6  1  0
 16 15  1  0
  1 17  1  6
  2 18  1  0
  2 19  1  0
  3 20  1  0
  3 21  1  0
  4 22  1  0
  4 23  1  0
  5 24  1  0
  5 25  1  0
  6 26  1  1
  7 27  1  0
  7 28  1  0
  8 29  1  0
  8 30  1  0
  9 31  1  0
 11 32  1  0
 13 33  1  0
 15 34  1  0
 15 35  1  0
 16 36  1  0
 16 37  1  0
 16 38  1  0
M  ISO  8  17  13  18  13  19  13  20  13  21  13  22  13  23  13  24  13
M  ISO  8  25  13  26  13  27   8  28   8  29   8  30   8  31  14  32  14
M  ISO  6  33  14  34   8  35   8  36   8  37   8  38   8
M  END
>  <minimizedAffinity>  (1) 
-4.43691063

>  <minimizedRMSD>  (1) 
0.64472729

$$$$
