
     RDKit          3D

 45 48  0  0  1  0  0  0  0  0999 V2000
   37.1780   27.8390   33.5270 C   0  0  2  0  0  0  0  0  0  0  0  0
   36.0840   28.6170   34.2210 C   0  0  0  0  0  0  0  0  0  0  0  0
   35.0720   29.0890   33.1990 C   0  0  0  0  0  0  0  0  0  0  0  0
   35.6460   28.9690   31.7990 C   0  0  0  0  0  0  0  0  0  0  0  0
   36.0220   27.5770   31.4300 C   0  0  0  0  0  0  0  0  0  0  0  0
   36.5730   26.8300   32.6280 C   0  0  1  0  0  0  0  0  0  0  0  0
   37.4750   25.8320   32.0930 N   0  0  0  0  0  0  0  0  0  0  0  0
   38.4910   25.9940   31.2100 C   0  0  0  0  0  0  0  0  0  0  0  0
   39.0620   24.7730   30.9990 N   0  0  0  0  0  0  0  0  0  0  0  0
   38.3970   23.8610   31.7530 C   0  0  0  0  0  0  0  0  0  0  0  0
   37.4460   24.5360   32.3990 N   0  0  0  0  0  0  0  0  0  0  0  0
   38.2030   27.3460   34.5010 C   0  0  0  0  0  0  0  0  0  0  0  0
   37.6530   26.4430   35.5380 C   0  0  0  0  0  0  0  0  0  0  0  0
   38.2440   24.3360   36.8440 C   0  0  0  0  0  0  0  0  0  0  0  0
   38.5160   25.2890   35.8540 C   0  0  0  0  0  0  0  0  0  0  0  0
   39.6720   25.1380   35.1230 C   0  0  0  0  0  0  0  0  0  0  0  0
   40.5120   24.0800   35.3770 N   0  0  0  0  0  0  0  0  0  0  0  0
   40.1970   23.1940   36.3430 C   0  0  0  0  0  0  0  0  0  0  0  0
   39.0720   23.3280   37.0660 N   0  0  0  0  0  0  0  0  0  0  0  0
   41.1690   22.1430   36.4930 N   0  0  0  0  0  0  0  0  0  0  0  0
   41.9530   21.6760   35.4870 C   0  0  0  0  0  0  0  0  0  0  0  0
   42.7540   20.6730   36.0150 C   0  0  0  0  0  0  0  0  0  0  0  0
   42.4260   20.5720   37.3150 N   0  0  0  0  0  0  0  0  0  0  0  0
   41.4600   21.4650   37.6130 C   0  0  0  0  0  0  0  0  0  0  0  0
   37.7674   28.4913   32.8659 H   0  0  0  0  0  0  0  0  0  0  0  0
   35.5858   27.9704   34.9583 H   0  0  0  0  0  0  0  0  0  0  0  0
   36.5215   29.4874   34.7318 H   0  0  0  0  0  0  0  0  0  0  0  0
   34.1648   28.4715   33.2739 H   0  0  0  0  0  0  0  0  0  0  0  0
   34.8264   30.1428   33.3972 H   0  0  0  0  0  0  0  0  0  0  0  0
   34.8932   29.3283   31.0819 H   0  0  0  0  0  0  0  0  0  0  0  0
   36.5664   29.5709   31.7734 H   0  0  0  0  0  0  0  0  0  0  0  0
   35.1316   27.0506   31.0557 H   0  0  0  0  0  0  0  0  0  0  0  0
   36.7995   27.6172   30.6529 H   0  0  0  0  0  0  0  0  0  0  0  0
   35.8334   26.2931   33.2401 H   0  0  0  0  0  0  0  0  0  0  0  0
   38.8002   26.9421   30.7458 H   0  0  0  0  0  0  0  0  0  0  0  0
   38.6016   22.7821   31.8179 H   0  0  0  0  0  0  0  0  0  0  0  0
   38.9791   26.8018   33.9428 H   0  0  0  0  0  0  0  0  0  0  0  0
   38.6020   28.2287   35.0222 H   0  0  0  0  0  0  0  0  0  0  0  0
   37.5047   27.0255   36.4593 H   0  0  0  0  0  0  0  0  0  0  0  0
   36.7139   26.0349   35.1362 H   0  0  0  0  0  0  0  0  0  0  0  0
   37.3280   24.4270   37.4461 H   0  0  0  0  0  0  0  0  0  0  0  0
   39.9238   25.8637   34.3356 H   0  0  0  0  0  0  0  0  0  0  0  0
   41.9531   22.0281   34.4449 H   0  0  0  0  0  0  0  0  0  0  0  0
   43.5073   20.0789   35.4769 H   0  0  0  0  0  0  0  0  0  0  0  0
   40.9941   21.6111   38.5987 H   0  0  0  0  0  0  0  0  0  0  0  0
  1  2  1  0
  1 12  1  0
  3  2  1  0
  4  3  1  0
  5  4  1  0
  5  6  1  0
  6  1  1  0
  7 11  1  0
  7  6  1  0
  8  7  1  0
  9  8  2  0
  9 10  1  0
 10 11  2  0
 12 13  1  0
 13 15  1  0
 14 19  2  0
 15 14  1  0
 16 17  1  0
 16 15  2  0
 17 18  2  0
 18 20  1  0
 18 19  1  0
 20 24  1  0
 21 22  2  0
 21 20  1  0
 22 23  1  0
 23 24  2  0
  1 25  1  6
  2 26  1  0
  2 27  1  0
  3 28  1  0
  3 29  1  0
  4 30  1  0
  4 31  1  0
  5 32  1  0
  5 33  1  0
  6 34  1  1
  8 35  1  0
 10 36  1  0
 12 37  1  0
 12 38  1  0
 13 39  1  0
 13 40  1  0
 14 41  1  0
 16 42  1  0
 21 43  1  0
 22 44  1  0
 24 45  1  0
M  ISO  8  25  13  26  13  27  13  28  13  29  13  30  13  31  13  32  13
M  ISO  8  33  13  34  13  35  14  36  14  37   8  38   8  39   8  40   8
M  ISO  5  41  14  42  14  43  14  44  14  45  14
M  END
>  <minimizedAffinity>  (1) 
-5.08111238

>  <minimizedRMSD>  (1) 
1.50713634

$$$$
