
     RDKit          3D

 41 43  0  0  1  0  0  0  0  0999 V2000
   37.6030   27.1000   33.6350 C   0  0  2  0  0  0  0  0  0  0  0  0
   36.9280   27.9290   34.6920 C   0  0  0  0  0  0  0  0  0  0  0  0
   35.8960   28.8270   34.0590 C   0  0  0  0  0  0  0  0  0  0  0  0
   36.0750   28.8590   32.5470 C   0  0  0  0  0  0  0  0  0  0  0  0
   35.9650   27.5250   31.9050 C   0  0  0  0  0  0  0  0  0  0  0  0
   36.5660   26.4450   32.7920 C   0  0  1  0  0  0  0  0  0  0  0  0
   37.0210   25.4060   31.9040 N   0  0  0  0  0  0  0  0  0  0  0  0
   37.8680   25.4860   30.8500 C   0  0  0  0  0  0  0  0  0  0  0  0
   37.9910   24.2390   30.3220 N   0  0  0  0  0  0  0  0  0  0  0  0
   37.2330   23.3890   31.0340 C   0  0  0  0  0  0  0  0  0  0  0  0
   36.6550   24.1200   31.9870 N   0  0  0  0  0  0  0  0  0  0  0  0
   38.6270   26.1830   34.2300 C   0  0  0  0  0  0  0  0  0  0  0  0
   38.1630   25.4410   35.4180 C   0  0  0  0  0  0  0  0  0  0  0  0
   38.8590   23.5410   36.9550 C   0  0  0  0  0  0  0  0  0  0  0  0
   39.1110   24.4250   35.8970 C   0  0  0  0  0  0  0  0  0  0  0  0
   40.3340   24.3290   35.2640 C   0  0  0  0  0  0  0  0  0  0  0  0
   41.2540   23.4000   35.6700 N   0  0  0  0  0  0  0  0  0  0  0  0
   40.9630   22.5720   36.6960 C   0  0  0  0  0  0  0  0  0  0  0  0
   39.7780   22.6480   37.3250 N   0  0  0  0  0  0  0  0  0  0  0  0
   41.9420   21.5820   37.1280 C   0  0  0  0  0  0  0  0  0  0  0  0
   43.0680   21.4230   36.6260 O   0  0  0  0  0  0  0  0  0  0  0  0
   41.6510   20.7220   38.1750 O   0  0  0  0  0  0  0  0  0  0  0  0
   38.1901   27.7364   32.9566 H   0  0  0  0  0  0  0  0  0  0  0  0
   36.4370   27.2645   35.4182 H   0  0  0  0  0  0  0  0  0  0  0  0
   37.6810   28.5470   35.2030 H   0  0  0  0  0  0  0  0  0  0  0  0
   34.8911   28.4481   34.2970 H   0  0  0  0  0  0  0  0  0  0  0  0
   36.0195   29.8461   34.4543 H   0  0  0  0  0  0  0  0  0  0  0  0
   35.3023   29.5149   32.1196 H   0  0  0  0  0  0  0  0  0  0  0  0
   37.0930   29.2271   32.3514 H   0  0  0  0  0  0  0  0  0  0  0  0
   34.9036   27.2967   31.7283 H   0  0  0  0  0  0  0  0  0  0  0  0
   36.5167   27.5460   30.9536 H   0  0  0  0  0  0  0  0  0  0  0  0
   35.8748   25.9652   33.5005 H   0  0  0  0  0  0  0  0  0  0  0  0
   38.3669   26.3965   30.4864 H   0  0  0  0  0  0  0  0  0  0  0  0
   37.1135   22.3087   30.8649 H   0  0  0  0  0  0  0  0  0  0  0  0
   38.9228   25.4530   33.4622 H   0  0  0  0  0  0  0  0  0  0  0  0
   39.4618   26.8176   34.5622 H   0  0  0  0  0  0  0  0  0  0  0  0
   37.9895   26.1623   36.2302 H   0  0  0  0  0  0  0  0  0  0  0  0
   37.2477   24.9075   35.1222 H   0  0  0  0  0  0  0  0  0  0  0  0
   37.8957   23.5840   37.4844 H   0  0  0  0  0  0  0  0  0  0  0  0
   40.5709   25.0034   34.4279 H   0  0  0  0  0  0  0  0  0  0  0  0
   42.3190   20.0513   38.4649 H   0  0  0  0  0  0  0  0  0  0  0  0
  1 12  1  0
  1  2  1  0
  3  2  1  0
  4  3  1  0
  5  4  1  0
  5  6  1  0
  6  1  1  0
  7 11  1  0
  7  6  1  0
  8  7  1  0
  9  8  2  0
  9 10  1  0
 10 11  2  0
 12 13  1  0
 13 15  1  0
 14 19  2  0
 15 14  1  0
 16 17  1  0
 16 15  2  0
 17 18  2  0
 18 20  1  0
 18 19  1  0
 20 22  1  0
 21 20  2  0
  1 23  1  6
  2 24  1  0
  2 25  1  0
  3 26  1  0
  3 27  1  0
  4 28  1  0
  4 29  1  0
  5 30  1  0
  5 31  1  0
  6 32  1  1
  8 33  1  0
 10 34  1  0
 12 35  1  0
 12 36  1  0
 13 37  1  0
 13 38  1  0
 14 39  1  0
 16 40  1  0
 22 41  1  0
M  ISO  8  23  13  24  13  25  13  26  13  27  13  28  13  29  13  30  13
M  ISO  8  31  13  32  13  33  14  34  14  35   8  36   8  37   8  38   8
M  ISO  3  39  14  40  14  41   3
M  END
>  <minimizedAffinity>  (1) 
-5.06657219

>  <minimizedRMSD>  (1) 
1.11268413

$$$$
