
     RDKit          3D

 44 47  0  0  1  0  0  0  0  0999 V2000
   37.1640   27.9480   33.7160 C   0  0  2  0  0  0  0  0  0  0  0  0
   36.0260   28.6900   34.3950 C   0  0  0  0  0  0  0  0  0  0  0  0
   35.0310   29.1560   33.3550 C   0  0  0  0  0  0  0  0  0  0  0  0
   35.6580   29.0920   31.9690 C   0  0  0  0  0  0  0  0  0  0  0  0
   36.0710   27.7130   31.5780 C   0  0  0  0  0  0  0  0  0  0  0  0
   36.5910   26.9420   32.7680 C   0  0  1  0  0  0  0  0  0  0  0  0
   37.5210   25.9670   32.2420 N   0  0  0  0  0  0  0  0  0  0  0  0
   38.6200   26.1720   31.4750 C   0  0  0  0  0  0  0  0  0  0  0  0
   39.1760   24.9480   31.2300 N   0  0  0  0  0  0  0  0  0  0  0  0
   38.4380   24.0020   31.8310 C   0  0  0  0  0  0  0  0  0  0  0  0
   37.4460   24.6560   32.4340 N   0  0  0  0  0  0  0  0  0  0  0  0
   38.1340   27.4080   34.7320 C   0  0  0  0  0  0  0  0  0  0  0  0
   37.5670   26.3920   35.6230 C   0  0  0  0  0  0  0  0  0  0  0  0
   38.1350   24.1660   36.7570 C   0  0  0  0  0  0  0  0  0  0  0  0
   38.4380   25.2300   35.8910 C   0  0  0  0  0  0  0  0  0  0  0  0
   39.6540   25.2010   35.2210 C   0  0  0  0  0  0  0  0  0  0  0  0
   40.5170   24.1480   35.4210 N   0  0  0  0  0  0  0  0  0  0  0  0
   40.1630   23.1620   36.2670 C   0  0  0  0  0  0  0  0  0  0  0  0
   39.0000   23.1680   36.9210 N   0  0  0  0  0  0  0  0  0  0  0  0
   41.1300   22.1230   36.3990 N   0  0  0  0  0  0  0  0  0  0  0  0
   41.8990   21.5160   35.4820 C   0  0  0  0  0  0  0  0  0  0  0  0
   42.6440   20.5930   36.1570 N   0  0  0  0  0  0  0  0  0  0  0  0
   42.3220   20.6510   37.4610 C   0  0  0  0  0  0  0  0  0  0  0  0
   41.3820   21.6100   37.5690 N   0  0  0  0  0  0  0  0  0  0  0  0
   37.7749   28.6277   33.1038 H   0  0  0  0  0  0  0  0  0  0  0  0
   35.5239   28.0179   35.1065 H   0  0  0  0  0  0  0  0  0  0  0  0
   36.4278   29.5618   34.9321 H   0  0  0  0  0  0  0  0  0  0  0  0
   34.1433   28.5070   33.3836 H   0  0  0  0  0  0  0  0  0  0  0  0
   34.7410   30.1945   33.5725 H   0  0  0  0  0  0  0  0  0  0  0  0
   34.9250   29.4594   31.2356 H   0  0  0  0  0  0  0  0  0  0  0  0
   36.5655   29.7132   31.9900 H   0  0  0  0  0  0  0  0  0  0  0  0
   35.2028   27.1835   31.1586 H   0  0  0  0  0  0  0  0  0  0  0  0
   36.8760   27.7882   30.8321 H   0  0  0  0  0  0  0  0  0  0  0  0
   35.8381   26.3801   33.3402 H   0  0  0  0  0  0  0  0  0  0  0  0
   38.9942   27.1424   31.1168 H   0  0  0  0  0  0  0  0  0  0  0  0
   38.6146   22.9163   31.8267 H   0  0  0  0  0  0  0  0  0  0  0  0
   38.9830   26.9605   34.1945 H   0  0  0  0  0  0  0  0  0  0  0  0
   38.4308   28.2555   35.3673 H   0  0  0  0  0  0  0  0  0  0  0  0
   37.3376   26.8736   36.5850 H   0  0  0  0  0  0  0  0  0  0  0  0
   36.6809   25.9949   35.1062 H   0  0  0  0  0  0  0  0  0  0  0  0
   37.1793   24.1578   37.3015 H   0  0  0  0  0  0  0  0  0  0  0  0
   39.9260   26.0157   34.5338 H   0  0  0  0  0  0  0  0  0  0  0  0
   41.9239   21.7214   34.4016 H   0  0  0  0  0  0  0  0  0  0  0  0
   42.7408   20.0399   38.2741 H   0  0  0  0  0  0  0  0  0  0  0  0
  1  2  1  0
  1 12  1  0
  3  2  1  0
  4  3  1  0
  5  4  1  0
  5  6  1  0
  6  1  1  0
  7 11  1  0
  7  6  1  0
  8  7  1  0
  9  8  2  0
  9 10  1  0
 10 11  2  0
 12 13  1  0
 13 15  1  0
 14 19  2  0
 15 14  1  0
 16 17  1  0
 16 15  2  0
 17 18  2  0
 18 20  1  0
 18 19  1  0
 20 24  1  0
 21 22  2  0
 21 20  1  0
 22 23  1  0
 23 24  2  0
  1 25  1  6
  2 26  1  0
  2 27  1  0
  3 28  1  0
  3 29  1  0
  4 30  1  0
  4 31  1  0
  5 32  1  0
  5 33  1  0
  6 34  1  1
  8 35  1  0
 10 36  1  0
 12 37  1  0
 12 38  1  0
 13 39  1  0
 13 40  1  0
 14 41  1  0
 16 42  1  0
 21 43  1  0
 23 44  1  0
M  ISO  8  25  13  26  13  27  13  28  13  29  13  30  13  31  13  32  13
M  ISO  8  33  13  34  13  35  14  36  14  37   8  38   8  39   8  40   8
M  ISO  4  41  14  42  14  43  14  44  14
M  END
>  <minimizedAffinity>  (1) 
-5.08337975

>  <minimizedRMSD>  (1) 
1.60559249

$$$$
