
     RDKit          3D

 45 48  0  0  1  0  0  0  0  0999 V2000
   37.3920   27.3940   33.5100 C   0  0  2  0  0  0  0  0  0  0  0  0
   36.6210   28.2540   34.4940 C   0  0  0  0  0  0  0  0  0  0  0  0
   35.5440   29.0100   33.7570 C   0  0  0  0  0  0  0  0  0  0  0  0
   35.7810   28.9690   32.2600 C   0  0  0  0  0  0  0  0  0  0  0  0
   35.8140   27.5880   31.7060 C   0  0  0  0  0  0  0  0  0  0  0  0
   36.4370   26.6070   32.6830 C   0  0  1  0  0  0  0  0  0  0  0  0
   37.0110   25.5530   31.8850 N   0  0  0  0  0  0  0  0  0  0  0  0
   37.8550   25.6360   30.8280 C   0  0  0  0  0  0  0  0  0  0  0  0
   38.1260   24.3830   30.3960 N   0  0  0  0  0  0  0  0  0  0  0  0
   37.4510   23.5050   31.1840 C   0  0  0  0  0  0  0  0  0  0  0  0
   36.7920   24.2520   32.0700 N   0  0  0  0  0  0  0  0  0  0  0  0
   38.4640   26.6100   34.2070 C   0  0  0  0  0  0  0  0  0  0  0  0
   37.9970   25.8860   35.4150 C   0  0  0  0  0  0  0  0  0  0  0  0
   38.6020   23.8930   36.8640 C   0  0  0  0  0  0  0  0  0  0  0  0
   38.8680   24.7670   35.8090 C   0  0  0  0  0  0  0  0  0  0  0  0
   40.0260   24.5630   35.0920 C   0  0  0  0  0  0  0  0  0  0  0  0
   40.8770   23.5360   35.4120 N   0  0  0  0  0  0  0  0  0  0  0  0
   40.5610   22.7170   36.4540 C   0  0  0  0  0  0  0  0  0  0  0  0
   39.4400   22.9010   37.1630 N   0  0  0  0  0  0  0  0  0  0  0  0
   41.4750   21.6290   36.7850 C   0  0  0  0  0  0  0  0  0  0  0  0
   42.2790   21.1200   35.7740 C   0  0  0  0  0  0  0  0  0  0  0  0
   43.0400   20.1070   36.3590 C   0  0  0  0  0  0  0  0  0  0  0  0
   42.6850   20.0340   37.6680 N   0  0  0  0  0  0  0  0  0  0  0  0
   41.7450   20.9450   37.9320 N   0  0  0  0  0  0  0  0  0  0  0  0
   37.9502   28.0158   32.7946 H   0  0  0  0  0  0  0  0  0  0  0  0
   36.1612   27.6131   35.2607 H   0  0  0  0  0  0  0  0  0  0  0  0
   37.3063   28.9658   34.9774 H   0  0  0  0  0  0  0  0  0  0  0  0
   34.5678   28.5545   33.9796 H   0  0  0  0  0  0  0  0  0  0  0  0
   35.5630   30.0592   34.0869 H   0  0  0  0  0  0  0  0  0  0  0  0
   34.9723   29.5251   31.7633 H   0  0  0  0  0  0  0  0  0  0  0  0
   36.7680   29.4178   32.0743 H   0  0  0  0  0  0  0  0  0  0  0  0
   34.7851   27.2673   31.4858 H   0  0  0  0  0  0  0  0  0  0  0  0
   36.4268   27.5990   30.7926 H   0  0  0  0  0  0  0  0  0  0  0  0
   35.7461   26.1202   33.3871 H   0  0  0  0  0  0  0  0  0  0  0  0
   38.2527   26.5655   30.3944 H   0  0  0  0  0  0  0  0  0  0  0  0
   37.4489   22.4077   31.1068 H   0  0  0  0  0  0  0  0  0  0  0  0
   38.8695   25.8732   33.4979 H   0  0  0  0  0  0  0  0  0  0  0  0
   39.2190   27.3355   34.5442 H   0  0  0  0  0  0  0  0  0  0  0  0
   37.9495   26.5997   36.2507 H   0  0  0  0  0  0  0  0  0  0  0  0
   37.0136   25.4572   35.1721 H   0  0  0  0  0  0  0  0  0  0  0  0
   37.6858   24.0251   37.4583 H   0  0  0  0  0  0  0  0  0  0  0  0
   40.2712   25.2312   34.2533 H   0  0  0  0  0  0  0  0  0  0  0  0
   42.3099   21.4486   34.7247 H   0  0  0  0  0  0  0  0  0  0  0  0
   43.7902   19.4819   35.8526 H   0  0  0  0  0  0  0  0  0  0  0  0
   43.0811   19.3753   38.3536 H   0  0  0  0  0  0  0  0  0  0  0  0
  1 12  1  0
  1  2  1  0
  3  2  1  0
  4  3  1  0
  5  4  1  0
  5  6  1  0
  6  1  1  0
  7 11  1  0
  7  6  1  0
  8  7  1  0
  9  8  2  0
  9 10  1  0
 10 11  2  0
 12 13  1  0
 13 15  1  0
 14 19  2  0
 15 14  1  0
 16 17  1  0
 16 15  2  0
 17 18  2  0
 18 20  1  0
 18 19  1  0
 20 24  2  0
 21 22  2  0
 21 20  1  0
 22 23  1  0
 23 24  1  0
  1 25  1  6
  2 26  1  0
  2 27  1  0
  3 28  1  0
  3 29  1  0
  4 30  1  0
  4 31  1  0
  5 32  1  0
  5 33  1  0
  6 34  1  1
  8 35  1  0
 10 36  1  0
 12 37  1  0
 12 38  1  0
 13 39  1  0
 13 40  1  0
 14 41  1  0
 16 42  1  0
 21 43  1  0
 22 44  1  0
 23 45  1  0
M  ISO  8  25  13  26  13  27  13  28  13  29  13  30  13  31  13  32  13
M  ISO  8  33  13  34  13  35  14  36  14  37   8  38   8  39   8  40   8
M  ISO  5  41  14  42  14  43  14  44  14  45   9
M  END
>  <minimizedAffinity>  (1) 
-5.21803427

>  <minimizedRMSD>  (1) 
1.42184055

$$$$
