
     RDKit          3D

 48 51  0  0  1  0  0  0  0  0999 V2000
   38.8590   26.9190   33.3140 C   0  0  2  0  0  0  0  0  0  0  0  0
   39.8090   26.8320   34.4860 C   0  0  0  0  0  0  0  0  0  0  0  0
   39.0840   27.1680   35.7630 C   0  0  0  0  0  0  0  0  0  0  0  0
   37.7180   27.7750   35.4520 C   0  0  0  0  0  0  0  0  0  0  0  0
   36.8470   26.8740   34.6550 C   0  0  0  0  0  0  0  0  0  0  0  0
   37.6480   26.1030   33.6340 C   0  0  1  0  0  0  0  0  0  0  0  0
   36.7530   25.8410   32.5240 N   0  0  0  0  0  0  0  0  0  0  0  0
   36.0780   26.7270   31.7520 C   0  0  0  0  0  0  0  0  0  0  0  0
   35.3550   26.0210   30.8260 N   0  0  0  0  0  0  0  0  0  0  0  0
   35.5880   24.7060   31.0310 C   0  0  0  0  0  0  0  0  0  0  0  0
   36.4330   24.6360   32.0590 N   0  0  0  0  0  0  0  0  0  0  0  0
   39.5520   26.5650   32.0210 C   0  0  0  0  0  0  0  0  0  0  0  0
   40.4300   25.3840   32.1020 C   0  0  0  0  0  0  0  0  0  0  0  0
   39.5520   23.0070   32.2650 C   0  0  0  0  0  0  0  0  0  0  0  0
   39.8590   24.1590   31.5330 C   0  0  0  0  0  0  0  0  0  0  0  0
   39.6070   24.1450   30.1730 C   0  0  0  0  0  0  0  0  0  0  0  0
   39.0720   23.0280   29.5740 N   0  0  0  0  0  0  0  0  0  0  0  0
   38.7960   21.9450   30.3280 C   0  0  0  0  0  0  0  0  0  0  0  0
   39.0320   21.9360   31.6520 N   0  0  0  0  0  0  0  0  0  0  0  0
   38.2430   20.7310   29.8340 N   0  0  0  0  0  0  0  0  0  0  0  0
   37.3110   20.1630   30.6250 C   0  0  0  0  0  0  0  0  0  0  0  0
   36.7100   18.9720   30.2290 C   0  0  0  0  0  0  0  0  0  0  0  0
   37.0830   18.3840   29.0190 C   0  0  0  0  0  0  0  0  0  0  0  0
   36.5660   17.2930   28.6060 O   0  0  0  0  0  0  0  0  0  0  0  0
   38.0240   18.9950   28.2620 N   0  0  0  0  0  0  0  0  0  0  0  0
   38.5860   20.1390   28.6640 C   0  0  0  0  0  0  0  0  0  0  0  0
   39.4620   20.7350   27.9900 O   0  0  0  0  0  0  0  0  0  0  0  0
   38.5167   27.9515   33.1504 H   0  0  0  0  0  0  0  0  0  0  0  0
   40.2115   25.8105   34.5536 H   0  0  0  0  0  0  0  0  0  0  0  0
   40.6310   27.5479   34.3384 H   0  0  0  0  0  0  0  0  0  0  0  0
   38.9475   26.2510   36.3550 H   0  0  0  0  0  0  0  0  0  0  0  0
   39.6792   27.8979   36.3313 H   0  0  0  0  0  0  0  0  0  0  0  0
   37.2113   28.0015   36.4017 H   0  0  0  0  0  0  0  0  0  0  0  0
   37.8908   28.6798   34.8508 H   0  0  0  0  0  0  0  0  0  0  0  0
   36.3504   26.1636   35.3323 H   0  0  0  0  0  0  0  0  0  0  0  0
   36.1043   27.4876   34.1240 H   0  0  0  0  0  0  0  0  0  0  0  0
   38.0248   25.1264   33.9722 H   0  0  0  0  0  0  0  0  0  0  0  0
   36.1056   27.8222   31.8513 H   0  0  0  0  0  0  0  0  0  0  0  0
   35.1655   23.8634   30.4639 H   0  0  0  0  0  0  0  0  0  0  0  0
   40.1622   27.4262   31.7112 H   0  0  0  0  0  0  0  0  0  0  0  0
   38.7600   26.3173   31.2990 H   0  0  0  0  0  0  0  0  0  0  0  0
   41.3614   25.6112   31.5626 H   0  0  0  0  0  0  0  0  0  0  0  0
   40.5887   25.1862   33.1724 H   0  0  0  0  0  0  0  0  0  0  0  0
   39.7386   22.9809   33.3487 H   0  0  0  0  0  0  0  0  0  0  0  0
   39.8360   25.0333   29.5660 H   0  0  0  0  0  0  0  0  0  0  0  0
   37.0277   20.6373   31.5762 H   0  0  0  0  0  0  0  0  0  0  0  0
   35.9473   18.4978   30.8641 H   0  0  0  0  0  0  0  0  0  0  0  0
   38.3100   18.5739   27.3666 H   0  0  0  0  0  0  0  0  0  0  0  0
  1  6  1  0
  1  2  1  0
  2  3  1  0
  4  3  1  0
  5  4  1  0
  6  5  1  0
  7  6  1  0
  8  7  1  0
  9 10  1  0
  9  8  2  0
 10 11  2  0
 11  7  1  0
 12 13  1  0
 12  1  1  0
 15 13  1  0
 15 14  2  0
 16 15  1  0
 17 16  2  0
 17 18  1  0
 18 19  2  0
 19 14  1  0
 20 18  1  0
 20 21  1  0
 22 21  2  0
 23 22  1  0
 24 23  2  0
 25 26  1  0
 25 23  1  0
 26 20  1  0
 27 26  2  0
  1 28  1  6
  2 29  1  0
  2 30  1  0
  3 31  1  0
  3 32  1  0
  4 33  1  0
  4 34  1  0
  5 35  1  0
  5 36  1  0
  6 37  1  1
  8 38  1  0
 10 39  1  0
 12 40  1  0
 12 41  1  0
 13 42  1  0
 13 43  1  0
 14 44  1  0
 16 45  1  0
 21 46  1  0
 22 47  1  0
 25 48  1  0
M  ISO  8  28  13  29  13  30  13  31  13  32  13  33  13  34  13  35  13
M  ISO  8  36  13  37  13  38  14  39  14  40   8  41   8  42   8  43   8
M  ISO  5  44  14  45  14  46  14  47  14  48   9
M  END
>  <minimizedAffinity>  (1) 
-5.08189058

>  <minimizedRMSD>  (1) 
7.02446175

$$$$
