
     RDKit          3D

 41 43  0  0  1  0  0  0  0  0999 V2000
   37.3450   27.4550   33.5250 C   0  0  2  0  0  0  0  0  0  0  0  0
   36.5680   28.3370   34.4700 C   0  0  0  0  0  0  0  0  0  0  0  0
   35.6170   29.2060   33.6810 C   0  0  0  0  0  0  0  0  0  0  0  0
   35.9790   29.1910   32.2010 C   0  0  0  0  0  0  0  0  0  0  0  0
   35.9390   27.8330   31.6020 C   0  0  0  0  0  0  0  0  0  0  0  0
   36.3980   26.7830   32.5840 C   0  0  1  0  0  0  0  0  0  0  0  0
   36.9450   25.7080   31.7960 N   0  0  0  0  0  0  0  0  0  0  0  0
   37.9130   25.7440   30.8470 C   0  0  0  0  0  0  0  0  0  0  0  0
   38.1000   24.4880   30.3710 N   0  0  0  0  0  0  0  0  0  0  0  0
   37.2490   23.6600   31.0220 C   0  0  0  0  0  0  0  0  0  0  0  0
   36.5680   24.4290   31.8710 N   0  0  0  0  0  0  0  0  0  0  0  0
   38.2820   26.5400   34.2690 C   0  0  0  0  0  0  0  0  0  0  0  0
   37.6780   25.8910   35.4360 C   0  0  0  0  0  0  0  0  0  0  0  0
   38.1640   24.1400   37.2350 C   0  0  0  0  0  0  0  0  0  0  0  0
   38.4810   24.8270   36.0430 C   0  0  0  0  0  0  0  0  0  0  0  0
   39.6530   24.4680   35.3830 C   0  0  0  0  0  0  0  0  0  0  0  0
   40.4580   23.4750   35.8960 N   0  0  0  0  0  0  0  0  0  0  0  0
   40.0970   22.8600   37.0370 C   0  0  0  0  0  0  0  0  0  0  0  0
   38.9660   23.1850   37.7020 N   0  0  0  0  0  0  0  0  0  0  0  0
   41.0000   21.7880   37.5580 C   0  0  0  0  0  0  0  0  0  0  0  0
   38.0178   28.0583   32.8979 H   0  0  0  0  0  0  0  0  0  0  0  0
   35.9965   27.7101   35.1703 H   0  0  0  0  0  0  0  0  0  0  0  0
   37.2653   28.9744   35.0335 H   0  0  0  0  0  0  0  0  0  0  0  0
   34.5921   28.8266   33.8063 H   0  0  0  0  0  0  0  0  0  0  0  0
   35.6887   30.2387   34.0531 H   0  0  0  0  0  0  0  0  0  0  0  0
   35.2672   29.8324   31.6606 H   0  0  0  0  0  0  0  0  0  0  0  0
   37.0131   29.5559   32.1141 H   0  0  0  0  0  0  0  0  0  0  0  0
   34.9072   27.6081   31.2942 H   0  0  0  0  0  0  0  0  0  0  0  0
   36.6175   27.8169   30.7364 H   0  0  0  0  0  0  0  0  0  0  0  0
   35.6120   26.3405   33.2136 H   0  0  0  0  0  0  0  0  0  0  0  0
   38.4560   26.6423   30.5181 H   0  0  0  0  0  0  0  0  0  0  0  0
   37.1417   22.5746   30.8792 H   0  0  0  0  0  0  0  0  0  0  0  0
   38.6242   25.7572   33.5761 H   0  0  0  0  0  0  0  0  0  0  0  0
   39.1071   27.1641   34.6428 H   0  0  0  0  0  0  0  0  0  0  0  0
   37.5009   26.6619   36.2004 H   0  0  0  0  0  0  0  0  0  0  0  0
   36.7568   25.4102   35.0752 H   0  0  0  0  0  0  0  0  0  0  0  0
   37.2455   24.3961   37.7834 H   0  0  0  0  0  0  0  0  0  0  0  0
   39.9366   24.9780   34.4506 H   0  0  0  0  0  0  0  0  0  0  0  0
   40.9886   21.8015   38.6579 H   0  0  0  0  0  0  0  0  0  0  0  0
   40.6509   20.8083   37.1997 H   0  0  0  0  0  0  0  0  0  0  0  0
   42.0247   21.9656   37.1997 H   0  0  0  0  0  0  0  0  0  0  0  0
  1 12  1  0
  1  2  1  0
  3  2  1  0
  4  3  1  0
  5  4  1  0
  5  6  1  0
  6  1  1  0
  7 11  1  0
  7  6  1  0
  8  7  1  0
  9  8  2  0
  9 10  1  0
 10 11  2  0
 12 13  1  0
 13 15  1  0
 14 19  2  0
 15 14  1  0
 16 17  1  0
 16 15  2  0
 17 18  2  0
 18 20  1  0
 18 19  1  0
  1 21  1  6
  2 22  1  0
  2 23  1  0
  3 24  1  0
  3 25  1  0
  4 26  1  0
  4 27  1  0
  5 28  1  0
  5 29  1  0
  6 30  1  1
  8 31  1  0
 10 32  1  0
 12 33  1  0
 12 34  1  0
 13 35  1  0
 13 36  1  0
 14 37  1  0
 16 38  1  0
 20 39  1  0
 20 40  1  0
 20 41  1  0
M  ISO  8  21  13  22  13  23  13  24  13  25  13  26  13  27  13  28  13
M  ISO  8  29  13  30  13  31  14  32  14  33   8  34   8  35   8  36   8
M  ISO  5  37  14  38  14  39   8  40   8  41   8
M  END
>  <minimizedAffinity>  (1) 
-4.9802022

>  <minimizedRMSD>  (1) 
0.585610569

$$$$
