
     RDKit          3D

 45 48  0  0  1  0  0  0  0  0999 V2000
   37.1830   27.8740   33.5580 C   0  0  2  0  0  0  0  0  0  0  0  0
   36.1110   28.6410   34.2840 C   0  0  0  0  0  0  0  0  0  0  0  0
   35.0070   29.0340   33.3170 C   0  0  0  0  0  0  0  0  0  0  0  0
   35.5260   28.9260   31.8840 C   0  0  0  0  0  0  0  0  0  0  0  0
   35.9130   27.5320   31.5270 C   0  0  0  0  0  0  0  0  0  0  0  0
   36.5570   26.8200   32.7040 C   0  0  1  0  0  0  0  0  0  0  0  0
   37.4660   25.8520   32.1370 N   0  0  0  0  0  0  0  0  0  0  0  0
   38.4630   26.0370   31.2380 C   0  0  0  0  0  0  0  0  0  0  0  0
   39.0410   24.8200   31.0100 N   0  0  0  0  0  0  0  0  0  0  0  0
   38.4190   23.8900   31.7510 C   0  0  0  0  0  0  0  0  0  0  0  0
   37.4750   24.5530   32.4170 N   0  0  0  0  0  0  0  0  0  0  0  0
   38.2420   27.3990   34.5110 C   0  0  0  0  0  0  0  0  0  0  0  0
   37.7540   26.4800   35.5490 C   0  0  0  0  0  0  0  0  0  0  0  0
   38.3250   24.2760   36.7060 C   0  0  0  0  0  0  0  0  0  0  0  0
   38.6100   25.3050   35.7970 C   0  0  0  0  0  0  0  0  0  0  0  0
   39.7880   25.2350   35.0590 C   0  0  0  0  0  0  0  0  0  0  0  0
   40.6370   24.1600   35.2410 N   0  0  0  0  0  0  0  0  0  0  0  0
   40.2990   23.1920   36.1420 C   0  0  0  0  0  0  0  0  0  0  0  0
   39.1680   23.2680   36.8460 N   0  0  0  0  0  0  0  0  0  0  0  0
   41.2940   22.0990   36.2390 C   0  0  0  0  0  0  0  0  0  0  0  0
   41.6000   21.4350   37.4640 C   0  0  0  0  0  0  0  0  0  0  0  0
   42.5430   20.4420   37.3980 C   0  0  0  0  0  0  0  0  0  0  0  0
   43.1760   20.0840   36.2390 C   0  0  0  0  0  0  0  0  0  0  0  0
   42.3790   21.2810   34.9950 S   0  0  0  0  0  0  0  0  0  0  0  0
   37.7275   28.5282   32.8612 H   0  0  0  0  0  0  0  0  0  0  0  0
   35.6895   28.0115   35.0815 H   0  0  0  0  0  0  0  0  0  0  0  0
   36.5502   29.5508   34.7192 H   0  0  0  0  0  0  0  0  0  0  0  0
   34.1474   28.3603   33.4478 H   0  0  0  0  0  0  0  0  0  0  0  0
   34.6939   30.0693   33.5176 H   0  0  0  0  0  0  0  0  0  0  0  0
   34.7364   29.2614   31.1954 H   0  0  0  0  0  0  0  0  0  0  0  0
   36.4239   29.5562   31.8026 H   0  0  0  0  0  0  0  0  0  0  0  0
   35.0136   26.9775   31.2212 H   0  0  0  0  0  0  0  0  0  0  0  0
   36.6425   27.5737   30.7048 H   0  0  0  0  0  0  0  0  0  0  0  0
   35.8697   26.2655   33.3599 H   0  0  0  0  0  0  0  0  0  0  0  0
   38.7538   26.9921   30.7763 H   0  0  0  0  0  0  0  0  0  0  0  0
   38.6407   22.8136   31.7982 H   0  0  0  0  0  0  0  0  0  0  0  0
   39.0202   26.8814   33.9310 H   0  0  0  0  0  0  0  0  0  0  0  0
   38.6193   28.2911   35.0324 H   0  0  0  0  0  0  0  0  0  0  0  0
   37.6678   27.0434   36.4898 H   0  0  0  0  0  0  0  0  0  0  0  0
   36.7935   26.0876   35.1837 H   0  0  0  0  0  0  0  0  0  0  0  0
   37.4009   24.3078   37.3018 H   0  0  0  0  0  0  0  0  0  0  0  0
   40.0405   26.0270   34.3385 H   0  0  0  0  0  0  0  0  0  0  0  0
   41.1066   21.7048   38.4094 H   0  0  0  0  0  0  0  0  0  0  0  0
   42.8037   19.9065   38.3228 H   0  0  0  0  0  0  0  0  0  0  0  0
   43.9407   19.3112   36.0718 H   0  0  0  0  0  0  0  0  0  0  0  0
  1  2  1  0
  1 12  1  0
  3  2  1  0
  4  3  1  0
  5  4  1  0
  5  6  1  0
  6  1  1  0
  7 11  1  0
  7  6  1  0
  8  7  1  0
  9  8  2  0
  9 10  1  0
 10 11  2  0
 12 13  1  0
 13 15  1  0
 14 19  2  0
 15 14  1  0
 16 17  1  0
 16 15  2  0
 17 18  2  0
 18 20  1  0
 18 19  1  0
 20 21  2  0
 22 21  1  0
 23 22  2  0
 24 20  1  0
 24 23  1  0
  1 25  1  6
  2 26  1  0
  2 27  1  0
  3 28  1  0
  3 29  1  0
  4 30  1  0
  4 31  1  0
  5 32  1  0
  5 33  1  0
  6 34  1  1
  8 35  1  0
 10 36  1  0
 12 37  1  0
 12 38  1  0
 13 39  1  0
 13 40  1  0
 14 41  1  0
 16 42  1  0
 21 43  1  0
 22 44  1  0
 23 45  1  0
M  ISO  8  25  13  26  13  27  13  28  13  29  13  30  13  31  13  32  13
M  ISO  8  33  13  34  13  35  14  36  14  37   8  38   8  39   8  40   8
M  ISO  5  41  14  42  14  43  14  44  14  45  14
M  END
>  <minimizedAffinity>  (1) 
-4.93317032

>  <minimizedRMSD>  (1) 
1.71745253

$$$$
