
     RDKit          3D

 46 49  0  0  1  0  0  0  0  0999 V2000
   38.2940   26.7220   33.0890 C   0  0  2  0  0  0  0  0  0  0  0  0
   37.1050   27.5590   33.4530 C   0  0  0  0  0  0  0  0  0  0  0  0
   37.0810   27.8070   34.9510 C   0  0  0  0  0  0  0  0  0  0  0  0
   37.9820   26.7860   35.6410 C   0  0  0  0  0  0  0  0  0  0  0  0
   39.4040   26.8660   35.2110 C   0  0  0  0  0  0  0  0  0  0  0  0
   39.5200   27.2480   33.7480 C   0  0  1  0  0  0  0  0  0  0  0  0
   40.7740   26.6990   33.2880 N   0  0  0  0  0  0  0  0  0  0  0  0
   41.2420   25.4300   33.3990 C   0  0  0  0  0  0  0  0  0  0  0  0
   42.4660   25.3760   32.8220 N   0  0  0  0  0  0  0  0  0  0  0  0
   42.7650   26.6020   32.3540 C   0  0  0  0  0  0  0  0  0  0  0  0
   41.7210   27.3750   32.6520 N   0  0  0  0  0  0  0  0  0  0  0  0
   38.3820   26.5360   31.5970 C   0  0  0  0  0  0  0  0  0  0  0  0
   37.1470   26.0560   30.9720 C   0  0  0  0  0  0  0  0  0  0  0  0
   35.6730   24.0730   31.6110 C   0  0  0  0  0  0  0  0  0  0  0  0
   36.8720   24.6200   31.1460 C   0  0  0  0  0  0  0  0  0  0  0  0
   37.8860   23.7500   30.8240 C   0  0  0  0  0  0  0  0  0  0  0  0
   37.7180   22.3910   30.9550 N   0  0  0  0  0  0  0  0  0  0  0  0
   36.5380   21.9180   31.4100 C   0  0  0  0  0  0  0  0  0  0  0  0
   35.5330   22.7580   31.7300 N   0  0  0  0  0  0  0  0  0  0  0  0
   36.2730   20.4860   31.5800 C   0  0  0  0  0  0  0  0  0  0  0  0
   36.7950   19.6290   30.6030 C   0  0  0  0  0  0  0  0  0  0  0  0
   36.5180   18.2720   30.8060 C   0  0  0  0  0  0  0  0  0  0  0  0
   35.8090   17.8020   31.8490 N   0  0  0  0  0  0  0  0  0  0  0  0
   35.3310   18.6710   32.7610 C   0  0  0  0  0  0  0  0  0  0  0  0
   35.5670   19.9820   32.6130 N   0  0  0  0  0  0  0  0  0  0  0  0
   38.1786   25.7017   33.4836 H   0  0  0  0  0  0  0  0  0  0  0  0
   37.1630   28.5225   32.9255 H   0  0  0  0  0  0  0  0  0  0  0  0
   36.1873   27.0274   33.1611 H   0  0  0  0  0  0  0  0  0  0  0  0
   37.4465   28.8228   35.1621 H   0  0  0  0  0  0  0  0  0  0  0  0
   36.0520   27.7068   35.3267 H   0  0  0  0  0  0  0  0  0  0  0  0
   37.9359   26.9578   36.7265 H   0  0  0  0  0  0  0  0  0  0  0  0
   37.6143   25.7876   35.3617 H   0  0  0  0  0  0  0  0  0  0  0  0
   39.9199   27.6227   35.8203 H   0  0  0  0  0  0  0  0  0  0  0  0
   39.8627   25.8755   35.3472 H   0  0  0  0  0  0  0  0  0  0  0  0
   39.5551   28.3248   33.5259 H   0  0  0  0  0  0  0  0  0  0  0  0
   40.7170   24.5892   33.8760 H   0  0  0  0  0  0  0  0  0  0  0  0
   43.6845   26.9046   31.8315 H   0  0  0  0  0  0  0  0  0  0  0  0
   38.6425   27.5042   31.1446 H   0  0  0  0  0  0  0  0  0  0  0  0
   39.1433   25.7616   31.4221 H   0  0  0  0  0  0  0  0  0  0  0  0
   37.2094   26.2620   29.8933 H   0  0  0  0  0  0  0  0  0  0  0  0
   36.3249   26.5867   31.4745 H   0  0  0  0  0  0  0  0  0  0  0  0
   34.8386   24.7372   31.8806 H   0  0  0  0  0  0  0  0  0  0  0  0
   38.8445   24.1456   30.4567 H   0  0  0  0  0  0  0  0  0  0  0  0
   37.3769   19.9936   29.7437 H   0  0  0  0  0  0  0  0  0  0  0  0
   36.9016   17.5487   30.0714 H   0  0  0  0  0  0  0  0  0  0  0  0
   34.7507   18.3068   33.6216 H   0  0  0  0  0  0  0  0  0  0  0  0
  1  2  1  0
  1  6  1  0
  2  3  1  0
  3  4  1  0
  5  4  1  0
  6  5  1  0
  7  8  1  0
  7  6  1  0
  9  8  2  0
 10 11  2  0
 10  9  1  0
 11  7  1  0
 12  1  1  0
 13 15  1  0
 13 12  1  0
 14 19  2  0
 15 14  1  0
 16 17  1  0
 16 15  2  0
 17 18  2  0
 18 20  1  0
 18 19  1  0
 20 25  2  0
 21 22  2  0
 21 20  1  0
 22 23  1  0
 23 24  2  0
 25 24  1  0
  1 26  1  1
  2 27  1  0
  2 28  1  0
  3 29  1  0
  3 30  1  0
  4 31  1  0
  4 32  1  0
  5 33  1  0
  5 34  1  0
  6 35  1  1
  8 36  1  0
 10 37  1  0
 12 38  1  0
 12 39  1  0
 13 40  1  0
 13 41  1  0
 14 42  1  0
 16 43  1  0
 21 44  1  0
 22 45  1  0
 24 46  1  0
M  ISO  8  26  13  27  13  28  13  29  13  30  13  31  13  32  13  33  13
M  ISO  8  34  13  35  13  36  14  37  14  38   8  39   8  40   8  41   8
M  ISO  5  42  14  43  14  44  14  45  14  46  14
M  END
>  <minimizedAffinity>  (1) 
-5.02567053

>  <minimizedRMSD>  (1) 
6.42355204

$$$$
