
     RDKit          3D

 46 49  0  0  1  0  0  0  0  0999 V2000
   37.0940   29.2330   31.1350 C   0  0  2  0  0  0  0  0  0  0  0  0
   35.6720   29.2930   31.6490 C   0  0  0  0  0  0  0  0  0  0  0  0
   35.0680   30.6260   31.2850 C   0  0  0  0  0  0  0  0  0  0  0  0
   36.1320   31.5900   30.7780 C   0  0  0  0  0  0  0  0  0  0  0  0
   36.8710   31.0840   29.5880 C   0  0  0  0  0  0  0  0  0  0  0  0
   37.0910   29.5890   29.6810 C   0  0  1  0  0  0  0  0  0  0  0  0
   38.3180   29.3170   28.9720 N   0  0  0  0  0  0  0  0  0  0  0  0
   39.5090   29.9630   29.0270 C   0  0  0  0  0  0  0  0  0  0  0  0
   40.3810   29.3520   28.1820 N   0  0  0  0  0  0  0  0  0  0  0  0
   39.7420   28.3250   27.5960 C   0  0  0  0  0  0  0  0  0  0  0  0
   38.5090   28.3430   28.1000 N   0  0  0  0  0  0  0  0  0  0  0  0
   37.7320   27.9180   31.4840 C   0  0  0  0  0  0  0  0  0  0  0  0
   37.1100   27.2300   32.6340 C   0  0  0  0  0  0  0  0  0  0  0  0
   37.6300   24.7660   33.0570 C   0  0  0  0  0  0  0  0  0  0  0  0
   36.8860   25.7800   32.4270 C   0  0  0  0  0  0  0  0  0  0  0  0
   35.8840   25.4120   31.5590 C   0  0  0  0  0  0  0  0  0  0  0  0
   35.6190   24.0900   31.3160 N   0  0  0  0  0  0  0  0  0  0  0  0
   36.3700   23.1470   31.9540 C   0  0  0  0  0  0  0  0  0  0  0  0
   37.3590   23.4860   32.8100 N   0  0  0  0  0  0  0  0  0  0  0  0
   36.0900   21.7340   31.6990 C   0  0  0  0  0  0  0  0  0  0  0  0
   35.0500   21.1110   32.3200 C   0  0  0  0  0  0  0  0  0  0  0  0
   34.8120   19.7760   32.0590 C   0  0  0  0  0  0  0  0  0  0  0  0
   35.6210   19.1510   31.2020 N   0  0  0  0  0  0  0  0  0  0  0  0
   36.6410   19.7530   30.5900 C   0  0  0  0  0  0  0  0  0  0  0  0
   36.8750   21.0540   30.8440 N   0  0  0  0  0  0  0  0  0  0  0  0
   37.7364   29.9754   31.6311 H   0  0  0  0  0  0  0  0  0  0  0  0
   35.0816   28.4848   31.1926 H   0  0  0  0  0  0  0  0  0  0  0  0
   35.6693   29.1727   32.7424 H   0  0  0  0  0  0  0  0  0  0  0  0
   34.3146   30.4760   30.4976 H   0  0  0  0  0  0  0  0  0  0  0  0
   34.6060   31.0576   32.1851 H   0  0  0  0  0  0  0  0  0  0  0  0
   35.6433   32.5377   30.5078 H   0  0  0  0  0  0  0  0  0  0  0  0
   36.8669   31.7164   31.5866 H   0  0  0  0  0  0  0  0  0  0  0  0
   37.8469   31.5882   29.5295 H   0  0  0  0  0  0  0  0  0  0  0  0
   36.2736   31.2950   28.6888 H   0  0  0  0  0  0  0  0  0  0  0  0
   36.3093   28.9686   29.2183 H   0  0  0  0  0  0  0  0  0  0  0  0
   39.7330   30.8390   29.6535 H   0  0  0  0  0  0  0  0  0  0  0  0
   40.1503   27.6196   26.8573 H   0  0  0  0  0  0  0  0  0  0  0  0
   37.6620   27.2571   30.6075 H   0  0  0  0  0  0  0  0  0  0  0  0
   38.7712   28.1368   31.7706 H   0  0  0  0  0  0  0  0  0  0  0  0
   37.7665   27.3562   33.5075 H   0  0  0  0  0  0  0  0  0  0  0  0
   36.1188   27.6854   32.7758 H   0  0  0  0  0  0  0  0  0  0  0  0
   38.4375   25.0311   33.7553 H   0  0  0  0  0  0  0  0  0  0  0  0
   35.2891   26.1877   31.0546 H   0  0  0  0  0  0  0  0  0  0  0  0
   34.4076   21.6645   33.0208 H   0  0  0  0  0  0  0  0  0  0  0  0
   33.9801   19.2438   32.5434 H   0  0  0  0  0  0  0  0  0  0  0  0
   37.2805   19.1960   29.8894 H   0  0  0  0  0  0  0  0  0  0  0  0
  1 12  1  0
  1  2  1  0
  3  2  1  0
  4  3  1  0
  5  6  1  0
  5  4  1  0
  6  1  1  0
  7  8  1  0
  7  6  1  0
  9  8  2  0
 10 11  2  0
 10  9  1  0
 11  7  1  0
 12 13  1  0
 15 13  1  0
 15 14  2  0
 16 15  1  0
 17 16  2  0
 17 18  1  0
 18 19  2  0
 19 14  1  0
 20 18  1  0
 20 21  2  0
 22 21  1  0
 23 22  2  0
 24 25  2  0
 24 23  1  0
 25 20  1  0
  1 26  1  1
  2 27  1  0
  2 28  1  0
  3 29  1  0
  3 30  1  0
  4 31  1  0
  4 32  1  0
  5 33  1  0
  5 34  1  0
  6 35  1  6
  8 36  1  0
 10 37  1  0
 12 38  1  0
 12 39  1  0
 13 40  1  0
 13 41  1  0
 14 42  1  0
 16 43  1  0
 21 44  1  0
 22 45  1  0
 24 46  1  0
M  ISO  8  26  13  27  13  28  13  29  13  30  13  31  13  32  13  33  13
M  ISO  8  34  13  35  13  36  14  37  14  38   8  39   8  40   8  41   8
M  ISO  5  42  14  43  14  44  14  45  14  46  14
M  END
>  <minimizedAffinity>  (1) 
-5.0170393

>  <minimizedRMSD>  (1) 
6.40562296

$$$$
