
     RDKit          3D

 45 48  0  0  1  0  0  0  0  0999 V2000
   37.6330   27.0480   33.6230 C   0  0  2  0  0  0  0  0  0  0  0  0
   36.9830   27.8790   34.6970 C   0  0  0  0  0  0  0  0  0  0  0  0
   35.9430   28.7830   34.0830 C   0  0  0  0  0  0  0  0  0  0  0  0
   36.1070   28.8280   32.5720 C   0  0  0  0  0  0  0  0  0  0  0  0
   35.9800   27.4950   31.9270 C   0  0  0  0  0  0  0  0  0  0  0  0
   36.5890   26.4120   32.7860 C   0  0  1  0  0  0  0  0  0  0  0  0
   37.0380   25.3750   31.8830 N   0  0  0  0  0  0  0  0  0  0  0  0
   37.8880   25.4730   30.8330 C   0  0  0  0  0  0  0  0  0  0  0  0
   38.0100   24.2270   30.2780 N   0  0  0  0  0  0  0  0  0  0  0  0
   37.2470   23.3740   30.9790 C   0  0  0  0  0  0  0  0  0  0  0  0
   36.6720   24.0930   31.9400 N   0  0  0  0  0  0  0  0  0  0  0  0
   38.6710   26.1310   34.2070 C   0  0  0  0  0  0  0  0  0  0  0  0
   38.1860   25.2850   35.3080 C   0  0  0  0  0  0  0  0  0  0  0  0
   38.9280   23.4320   36.8920 C   0  0  0  0  0  0  0  0  0  0  0  0
   39.1810   24.3480   35.8580 C   0  0  0  0  0  0  0  0  0  0  0  0
   40.4380   24.3910   35.3040 C   0  0  0  0  0  0  0  0  0  0  0  0
   41.4270   23.5430   35.7660 N   0  0  0  0  0  0  0  0  0  0  0  0
   41.1270   22.6740   36.7710 C   0  0  0  0  0  0  0  0  0  0  0  0
   39.8920   22.6310   37.3160 N   0  0  0  0  0  0  0  0  0  0  0  0
   42.1900   21.7430   37.2870 C   0  0  0  0  0  0  0  0  0  0  0  0
   43.3740   21.4830   36.3130 C   0  0  0  0  0  0  0  0  0  0  0  0
   42.4090   20.4200   36.6880 C   0  0  0  0  0  0  0  0  0  0  0  0
   38.2091   27.6778   32.9291 H   0  0  0  0  0  0  0  0  0  0  0  0
   36.5028   27.2159   35.4317 H   0  0  0  0  0  0  0  0  0  0  0  0
   37.7484   28.4916   35.1960 H   0  0  0  0  0  0  0  0  0  0  0  0
   34.9408   28.4014   34.3278 H   0  0  0  0  0  0  0  0  0  0  0  0
   36.0692   29.7985   34.4865 H   0  0  0  0  0  0  0  0  0  0  0  0
   35.3346   29.4919   32.1566 H   0  0  0  0  0  0  0  0  0  0  0  0
   37.1234   29.1945   32.3653 H   0  0  0  0  0  0  0  0  0  0  0  0
   34.9142   27.2721   31.7708 H   0  0  0  0  0  0  0  0  0  0  0  0
   36.5159   27.5203   30.9667 H   0  0  0  0  0  0  0  0  0  0  0  0
   35.8996   25.9282   33.4936 H   0  0  0  0  0  0  0  0  0  0  0  0
   38.3901   26.3889   30.4880 H   0  0  0  0  0  0  0  0  0  0  0  0
   37.1220   22.2966   30.7959 H   0  0  0  0  0  0  0  0  0  0  0  0
   39.0395   25.4741   33.4053 H   0  0  0  0  0  0  0  0  0  0  0  0
   39.4562   26.7753   34.6294 H   0  0  0  0  0  0  0  0  0  0  0  0
   37.8510   25.9439   36.1226 H   0  0  0  0  0  0  0  0  0  0  0  0
   37.3799   24.6657   34.8877 H   0  0  0  0  0  0  0  0  0  0  0  0
   37.9288   23.3805   37.3492 H   0  0  0  0  0  0  0  0  0  0  0  0
   40.6571   25.1006   34.4925 H   0  0  0  0  0  0  0  0  0  0  0  0
   42.0367   22.0807   38.3226 H   0  0  0  0  0  0  0  0  0  0  0  0
   44.4073   21.4539   36.6890 H   0  0  0  0  0  0  0  0  0  0  0  0
   43.7373   21.9258   35.3739 H   0  0  0  0  0  0  0  0  0  0  0  0
   41.7004   20.0442   35.9353 H   0  0  0  0  0  0  0  0  0  0  0  0
   42.5223   19.4094   37.1073 H   0  0  0  0  0  0  0  0  0  0  0  0
  1 12  1  0
  1  2  1  0
  3  2  1  0
  4  3  1  0
  5  4  1  0
  5  6  1  0
  6  1  1  0
  7 11  1  0
  7  6  1  0
  8  7  1  0
  9  8  2  0
  9 10  1  0
 10 11  2  0
 12 13  1  0
 13 15  1  0
 14 19  2  0
 15 14  1  0
 16 17  1  0
 16 15  2  0
 17 18  2  0
 18 20  1  0
 18 19  1  0
 21 22  1  0
 21 20  1  0
 22 20  1  0
  1 23  1  6
  2 24  1  0
  2 25  1  0
  3 26  1  0
  3 27  1  0
  4 28  1  0
  4 29  1  0
  5 30  1  0
  5 31  1  0
  6 32  1  1
  8 33  1  0
 10 34  1  0
 12 35  1  0
 12 36  1  0
 13 37  1  0
 13 38  1  0
 14 39  1  0
 16 40  1  0
 20 41  1  0
 21 42  1  0
 21 43  1  0
 22 44  1  0
 22 45  1  0
M  ISO  8  23  13  24  13  25  13  26  13  27  13  28  13  29  13  30  13
M  ISO  8  31  13  32  13  33  14  34  14  35   8  36   8  37   8  38   8
M  ISO  7  39  14  40  14  41  13  42  13  43  13  44  13  45  13
M  END
>  <minimizedAffinity>  (1) 
-4.75308418

>  <minimizedRMSD>  (1) 
1.27343941

$$$$
