
     RDKit          3D

 44 47  0  0  1  0  0  0  0  0999 V2000
   37.2070   27.8330   33.6180 C   0  0  2  0  0  0  0  0  0  0  0  0
   36.0980   28.5950   34.3030 C   0  0  0  0  0  0  0  0  0  0  0  0
   35.0750   29.0370   33.2850 C   0  0  0  0  0  0  0  0  0  0  0  0
   35.6430   28.8880   31.8680 C   0  0  0  0  0  0  0  0  0  0  0  0
   36.0440   27.5020   31.5400 C   0  0  0  0  0  0  0  0  0  0  0  0
   36.6120   26.7830   32.7490 C   0  0  1  0  0  0  0  0  0  0  0  0
   37.5240   25.7920   32.2370 N   0  0  0  0  0  0  0  0  0  0  0  0
   38.5990   25.9610   31.4300 C   0  0  0  0  0  0  0  0  0  0  0  0
   39.1610   24.7320   31.2070 N   0  0  0  0  0  0  0  0  0  0  0  0
   38.4320   23.8070   31.8770 C   0  0  0  0  0  0  0  0  0  0  0  0
   37.4610   24.4940   32.4790 N   0  0  0  0  0  0  0  0  0  0  0  0
   38.2390   27.3720   34.6070 C   0  0  0  0  0  0  0  0  0  0  0  0
   37.7370   26.4170   35.5970 C   0  0  0  0  0  0  0  0  0  0  0  0
   38.3370   24.2120   36.7520 C   0  0  0  0  0  0  0  0  0  0  0  0
   38.6070   25.2500   35.8450 C   0  0  0  0  0  0  0  0  0  0  0  0
   39.7790   25.1930   35.1140 C   0  0  0  0  0  0  0  0  0  0  0  0
   40.6500   24.1310   35.2880 N   0  0  0  0  0  0  0  0  0  0  0  0
   40.3280   23.1700   36.1750 C   0  0  0  0  0  0  0  0  0  0  0  0
   39.1870   23.2040   36.9010 N   0  0  0  0  0  0  0  0  0  0  0  0
   41.2960   22.0590   36.3190 C   0  0  0  0  0  0  0  0  0  0  0  0
   41.9710   21.6100   35.1870 C   0  0  0  0  0  0  0  0  0  0  0  0
   43.0330   20.2570   35.8480 S   0  0  0  0  0  0  0  0  0  0  0  0
   42.3390   20.5620   37.6020 C   0  0  0  0  0  0  0  0  0  0  0  0
   41.6180   21.4080   37.4290 N   0  0  0  0  0  0  0  0  0  0  0  0
   37.7802   28.4842   32.9417 H   0  0  0  0  0  0  0  0  0  0  0  0
   35.6148   27.9454   35.0477 H   0  0  0  0  0  0  0  0  0  0  0  0
   36.5202   29.4804   34.8008 H   0  0  0  0  0  0  0  0  0  0  0  0
   34.1727   28.4155   33.3825 H   0  0  0  0  0  0  0  0  0  0  0  0
   34.8232   30.0929   33.4627 H   0  0  0  0  0  0  0  0  0  0  0  0
   34.8750   29.2086   31.1487 H   0  0  0  0  0  0  0  0  0  0  0  0
   36.5484   29.5103   31.8132 H   0  0  0  0  0  0  0  0  0  0  0  0
   35.1627   26.9516   31.1790 H   0  0  0  0  0  0  0  0  0  0  0  0
   36.8253   27.5442   30.7669 H   0  0  0  0  0  0  0  0  0  0  0  0
   35.8870   26.2412   33.3742 H   0  0  0  0  0  0  0  0  0  0  0  0
   38.9580   26.9185   31.0245 H   0  0  0  0  0  0  0  0  0  0  0  0
   38.6045   22.7213   31.9159 H   0  0  0  0  0  0  0  0  0  0  0  0
   39.0596   26.8941   34.0518 H   0  0  0  0  0  0  0  0  0  0  0  0
   38.5636   28.2634   35.1639 H   0  0  0  0  0  0  0  0  0  0  0  0
   37.6060   26.9518   36.5493 H   0  0  0  0  0  0  0  0  0  0  0  0
   36.7995   26.0156   35.1847 H   0  0  0  0  0  0  0  0  0  0  0  0
   37.4109   24.2350   37.3452 H   0  0  0  0  0  0  0  0  0  0  0  0
   40.0192   25.9903   34.3952 H   0  0  0  0  0  0  0  0  0  0  0  0
   41.8901   21.9737   34.1520 H   0  0  0  0  0  0  0  0  0  0  0  0
   42.5823   20.0430   38.5409 H   0  0  0  0  0  0  0  0  0  0  0  0
  1  2  1  0
  1 12  1  0
  3  2  1  0
  4  3  1  0
  5  4  1  0
  5  6  1  0
  6  1  1  0
  7 11  1  0
  7  6  1  0
  8  7  1  0
  9  8  2  0
  9 10  1  0
 10 11  2  0
 12 13  1  0
 13 15  1  0
 14 19  2  0
 15 14  1  0
 16 17  1  0
 16 15  2  0
 17 18  2  0
 18 20  1  0
 18 19  1  0
 20 24  1  0
 21 22  1  0
 21 20  2  0
 22 23  1  0
 24 23  2  0
  1 25  1  6
  2 26  1  0
  2 27  1  0
  3 28  1  0
  3 29  1  0
  4 30  1  0
  4 31  1  0
  5 32  1  0
  5 33  1  0
  6 34  1  1
  8 35  1  0
 10 36  1  0
 12 37  1  0
 12 38  1  0
 13 39  1  0
 13 40  1  0
 14 41  1  0
 16 42  1  0
 21 43  1  0
 23 44  1  0
M  ISO  8  25  13  26  13  27  13  28  13  29  13  30  13  31  13  32  13
M  ISO  8  33  13  34  13  35  14  36  14  37   8  38   8  39   8  40   8
M  ISO  4  41  14  42  14  43  14  44  14
M  END
>  <minimizedAffinity>  (1) 
-4.78804159

>  <minimizedRMSD>  (1) 
1.71978033

$$$$
