
     RDKit          3D

 24 25  0  0  0  0  0  0  0  0999 V2000
   39.8720   22.6540   37.0290 C   0  0  0  0  0  0  0  0  0  0  0  0
   39.2600   23.2890   38.1230 C   0  0  0  0  0  0  0  0  0  0  0  0
   37.8770   23.4000   38.1400 C   0  0  0  0  0  0  0  0  0  0  0  0
   37.1980   22.8810   37.0850 N   0  0  0  0  0  0  0  0  0  0  0  0
   37.8010   22.2790   36.0520 C   0  0  0  0  0  0  0  0  0  0  0  0
   39.1360   22.1640   36.0210 N   0  0  0  0  0  0  0  0  0  0  0  0
   37.0600   21.7380   34.9480 N   0  0  0  0  0  0  0  0  0  0  0  0
   37.5310   22.0490   33.7480 C   0  0  0  0  0  0  0  0  0  0  0  0
   36.8510   21.5510   32.6550 C   0  0  0  0  0  0  0  0  0  0  0  0
   35.7490   20.7790   32.9060 C   0  0  0  0  0  0  0  0  0  0  0  0
   34.9880   20.2250   31.8510 N   0  0  0  0  0  0  0  0  0  0  0  0
   35.3060   20.4870   34.1350 N   0  0  0  0  0  0  0  0  0  0  0  0
   35.9740   20.9770   35.2050 C   0  0  0  0  0  0  0  0  0  0  0  0
   35.6400   20.7620   36.4010 O   0  0  0  0  0  0  0  0  0  0  0  0
   37.2960   21.8420   31.2960 C   0  0  0  0  0  0  0  0  0  0  0  0
   37.6550   21.0190   30.4460 O   0  0  0  0  0  0  0  0  0  0  0  0
   37.3340   23.1700   30.8830 O   0  0  0  0  0  0  0  0  0  0  0  0
   40.9674   22.5578   36.9992 H   0  0  0  0  0  0  0  0  0  0  0  0
   39.8652   23.6901   38.9494 H   0  0  0  0  0  0  0  0  0  0  0  0
   37.3521   23.8885   38.9742 H   0  0  0  0  0  0  0  0  0  0  0  0
   38.4259   22.6774   33.6287 H   0  0  0  0  0  0  0  0  0  0  0  0
   34.1619   19.6466   32.0604 H   0  0  0  0  0  0  0  0  0  0  0  0
   35.2598   20.3998   30.8730 H   0  0  0  0  0  0  0  0  0  0  0  0
   37.6320   23.3949   29.9661 H   0  0  0  0  0  0  0  0  0  0  0  0
  1  2  2  0
  2  3  1  0
  4  3  2  0
  5  4  1  0
  6  5  2  0
  6  1  1  0
  7 13  1  0
  7  5  1  0
  8  7  1  0
  9 10  1  0
  9  8  2  0
 10 12  2  0
 11 10  1  0
 12 13  1  0
 13 14  2  0
 15  9  1  0
 16 15  2  0
 17 15  1  0
  1 18  1  0
  2 19  1  0
  3 20  1  0
  8 21  1  0
 11 22  1  0
 11 23  1  0
 17 24  1  0
M  ISO  5  18  14  19  14  20  14  21  14  24   3
M  END
>  <minimizedAffinity>  (1) 
-4.97787762

>  <minimizedRMSD>  (1) 
0.287697643

$$$$
