
     RDKit          3D

 25 26  0  0  0  0  0  0  0  0999 V2000
   41.1890   21.7090   37.5110 C   0  0  0  0  0  0  0  0  0  0  0  0
   40.0230   22.4000   37.1300 C   0  0  0  0  0  0  0  0  0  0  0  0
   39.8390   22.6520   35.7800 C   0  0  0  0  0  0  0  0  0  0  0  0
   40.7650   22.2330   34.8900 N   0  0  0  0  0  0  0  0  0  0  0  0
   41.8730   21.5750   35.2660 C   0  0  0  0  0  0  0  0  0  0  0  0
   42.0860   21.3100   36.5870 N   0  0  0  0  0  0  0  0  0  0  0  0
   38.6190   23.3640   35.4970 C   0  0  0  0  0  0  0  0  0  0  0  0
   38.4160   24.6010   35.7220 O   0  0  0  0  0  0  0  0  0  0  0  0
   37.5340   22.5970   34.9050 C   0  0  0  0  0  0  0  0  0  0  0  0
   36.8770   21.5970   35.8340 C   0  0  0  0  0  0  0  0  0  0  0  0
   35.9630   20.8790   34.8410 C   0  0  0  0  0  0  0  0  0  0  0  0
   36.5360   21.1730   33.4530 C   0  0  0  0  0  0  0  0  0  0  0  0
   37.9580   21.6370   33.8150 C   0  0  0  0  0  0  0  0  0  0  0  0
   41.3701   21.4923   38.5741 H   0  0  0  0  0  0  0  0  0  0  0  0
   39.2850   22.7279   37.8769 H   0  0  0  0  0  0  0  0  0  0  0  0
   42.6058   21.2510   34.5123 H   0  0  0  0  0  0  0  0  0  0  0  0
   36.8918   23.4288   34.5799 H   0  0  0  0  0  0  0  0  0  0  0  0
   37.6114   20.9120   36.2828 H   0  0  0  0  0  0  0  0  0  0  0  0
   36.3652   22.0364   36.7029 H   0  0  0  0  0  0  0  0  0  0  0  0
   35.9647   19.7960   35.0338 H   0  0  0  0  0  0  0  0  0  0  0  0
   34.9222   21.2239   34.9289 H   0  0  0  0  0  0  0  0  0  0  0  0
   35.9701   21.9659   32.9419 H   0  0  0  0  0  0  0  0  0  0  0  0
   36.5000   20.3214   32.7577 H   0  0  0  0  0  0  0  0  0  0  0  0
   38.5900   20.8188   34.1907 H   0  0  0  0  0  0  0  0  0  0  0  0
   38.5779   22.0415   33.0013 H   0  0  0  0  0  0  0  0  0  0  0  0
  2  1  2  0
  3  2  1  0
  4  5  1  0
  4  3  2  0
  5  6  2  0
  6  1  1  0
  7  8  2  0
  7  3  1  0
  9  7  1  0
  9 10  1  0
 11 10  1  0
 12 13  1  0
 12 11  1  0
 13  9  1  0
  1 14  1  0
  2 15  1  0
  5 16  1  0
  9 17  1  0
 10 18  1  0
 10 19  1  0
 11 20  1  0
 11 21  1  0
 12 22  1  0
 12 23  1  0
 13 24  1  0
 13 25  1  0
M  ISO  8  14  14  15  14  16  14  17  13  18  13  19  13  20  13  21  13
M  ISO  4  22  13  23  13  24  13  25  13
M  END
>  <minimizedAffinity>  (1) 
-3.02643442

>  <minimizedRMSD>  (1) 
2.85467601

$$$$
