
     RDKit          3D

 39 42  0  0  1  0  0  0  0  0999 V2000
   38.2040   23.0840   33.7960 C   0  0  2  0  0  0  0  0  0  0  0  0
   38.5550   21.6030   33.9130 C   0  0  0  0  0  0  0  0  0  0  0  0
   38.2570   21.1720   32.4710 C   0  0  0  0  0  0  0  0  0  0  0  0
   38.2900   22.4440   31.6340 C   0  0  0  0  0  0  0  0  0  0  0  0
   39.0100   23.4230   32.5780 C   0  0  1  0  0  0  0  0  0  0  0  0
   38.6820   24.8290   32.2340 C   0  0  0  0  0  0  0  0  0  0  0  0
   39.5800   25.8400   32.3380 N   0  0  0  0  0  0  0  0  0  0  0  0
   39.2830   27.1220   32.0260 C   0  0  0  0  0  0  0  0  0  0  0  0
   38.0420   27.4540   31.5850 N   0  0  0  0  0  0  0  0  0  0  0  0
   37.0790   26.5080   31.4490 C   0  0  0  0  0  0  0  0  0  0  0  0
   35.8180   26.8300   31.0030 C   0  0  0  0  0  0  0  0  0  0  0  0
   34.8390   25.8670   30.8670 C   0  0  0  0  0  0  0  0  0  0  0  0
   35.1630   24.5680   31.1910 C   0  0  0  0  0  0  0  0  0  0  0  0
   36.4360   24.2770   31.6350 C   0  0  0  0  0  0  0  0  0  0  0  0
   37.4390   25.2190   31.7830 C   0  0  0  0  0  0  0  0  0  0  0  0
   38.5190   23.8620   34.9740 C   0  0  0  0  0  0  0  0  0  0  0  0
   37.7170   24.7900   35.3230 O   0  0  0  0  0  0  0  0  0  0  0  0
   40.7000   22.4840   37.5820 C   0  0  0  0  0  0  0  0  0  0  0  0
   39.5420   22.8370   36.8480 C   0  0  0  0  0  0  0  0  0  0  0  0
   39.7350   23.5270   35.6780 C   0  0  0  0  0  0  0  0  0  0  0  0
   41.0020   23.8340   35.2860 N   0  0  0  0  0  0  0  0  0  0  0  0
   42.0820   23.4950   35.9890 C   0  0  0  0  0  0  0  0  0  0  0  0
   41.9250   22.8130   37.1500 N   0  0  0  0  0  0  0  0  0  0  0  0
   37.1306   23.3087   33.7102 H   0  0  0  0  0  0  0  0  0  0  0  0
   39.6110   21.4491   34.1798 H   0  0  0  0  0  0  0  0  0  0  0  0
   38.0142   21.0486   34.6941 H   0  0  0  0  0  0  0  0  0  0  0  0
   39.0211   20.4634   32.1188 H   0  0  0  0  0  0  0  0  0  0  0  0
   37.2827   20.6670   32.3960 H   0  0  0  0  0  0  0  0  0  0  0  0
   38.8562   22.2961   30.7026 H   0  0  0  0  0  0  0  0  0  0  0  0
   37.2977   22.7884   31.3074 H   0  0  0  0  0  0  0  0  0  0  0  0
   40.1070   23.3469   32.6074 H   0  0  0  0  0  0  0  0  0  0  0  0
   40.0521   27.9015   32.1302 H   0  0  0  0  0  0  0  0  0  0  0  0
   35.5857   27.8750   30.7500 H   0  0  0  0  0  0  0  0  0  0  0  0
   33.8316   26.1285   30.5110 H   0  0  0  0  0  0  0  0  0  0  0  0
   34.4126   23.7693   31.0964 H   0  0  0  0  0  0  0  0  0  0  0  0
   36.6684   23.2318   31.8870 H   0  0  0  0  0  0  0  0  0  0  0  0
   40.5920   21.9288   38.5254 H   0  0  0  0  0  0  0  0  0  0  0  0
   38.5343   22.5704   37.1995 H   0  0  0  0  0  0  0  0  0  0  0  0
   43.0870   23.7648   35.6322 H   0  0  0  0  0  0  0  0  0  0  0  0
  1  2  1  0
  1 16  1  0
  3  2  1  0
  4  3  1  0
  4  5  1  0
  5  1  1  0
  6  7  2  0
  6  5  1  0
  8  7  1  0
  9  8  2  0
 10  9  1  0
 10 15  2  0
 11 10  1  0
 12 11  2  0
 12 13  1  0
 13 14  2  0
 14 15  1  0
 15  6  1  0
 16 17  2  0
 16 20  1  0
 19 18  2  0
 20 19  1  0
 21 20  2  0
 21 22  1  0
 22 23  2  0
 23 18  1  0
  1 24  1  6
  2 25  1  0
  2 26  1  0
  3 27  1  0
  3 28  1  0
  4 29  1  0
  4 30  1  0
  5 31  1  1
  8 32  1  0
 11 33  1  0
 12 34  1  0
 13 35  1  0
 14 36  1  0
 18 37  1  0
 19 38  1  0
 22 39  1  0
M  ISO  8  24  13  25  13  26  13  27  13  28  13  29  13  30  13  31  13
M  ISO  8  32  14  33  14  34  14  35  14  36  14  37  14  38  14  39  14
M  END
>  <minimizedAffinity>  (1) 
-4.70980835

>  <minimizedRMSD>  (1) 
2.23335862

$$$$
