
     RDKit          3D

 41 44  0  0  1  0  0  0  0  0999 V2000
   38.1940   23.5590   34.7010 C   0  0  2  0  0  0  0  0  0  0  0  0
   37.7910   22.1010   34.9460 C   0  0  0  0  0  0  0  0  0  0  0  0
   37.1280   21.7980   33.6130 C   0  0  0  0  0  0  0  0  0  0  0  0
   37.7040   22.8140   32.6080 C   0  0  0  0  0  0  0  0  0  0  0  0
   38.9020   23.3490   33.3940 C   0  0  1  0  0  0  0  0  0  0  0  0
   39.3570   24.5690   32.7500 C   0  0  0  0  0  0  0  0  0  0  0  0
   40.6760   24.6790   32.3470 C   0  0  0  0  0  0  0  0  0  0  0  0
   41.1520   25.8180   31.7320 C   0  0  0  0  0  0  0  0  0  0  0  0
   40.3150   26.8880   31.5020 C   0  0  0  0  0  0  0  0  0  0  0  0
   39.0010   26.7740   31.9060 C   0  0  0  0  0  0  0  0  0  0  0  0
   38.1800   27.8680   31.6610 C   0  0  0  0  0  0  0  0  0  0  0  0
   36.8380   27.8310   32.0390 C   0  0  0  0  0  0  0  0  0  0  0  0
   36.4210   26.6790   32.6430 C   0  0  0  0  0  0  0  0  0  0  0  0
   37.2140   25.5780   32.9000 C   0  0  0  0  0  0  0  0  0  0  0  0
   38.5280   25.6260   32.5240 C   0  0  0  0  0  0  0  0  0  0  0  0
   39.0040   24.1310   35.7550 C   0  0  0  0  0  0  0  0  0  0  0  0
   38.5970   25.2080   36.2990 O   0  0  0  0  0  0  0  0  0  0  0  0
   41.2060   21.7220   37.4230 C   0  0  0  0  0  0  0  0  0  0  0  0
   40.0440   22.4340   37.0360 C   0  0  0  0  0  0  0  0  0  0  0  0
   40.2180   23.4360   36.1120 C   0  0  0  0  0  0  0  0  0  0  0  0
   41.4600   23.6970   35.6210 N   0  0  0  0  0  0  0  0  0  0  0  0
   42.5430   23.0130   36.0000 C   0  0  0  0  0  0  0  0  0  0  0  0
   42.4120   22.0160   36.9100 N   0  0  0  0  0  0  0  0  0  0  0  0
   37.3789   24.2974   34.6823 H   0  0  0  0  0  0  0  0  0  0  0  0
   38.6653   21.4580   35.1252 H   0  0  0  0  0  0  0  0  0  0  0  0
   37.1614   21.9313   35.8319 H   0  0  0  0  0  0  0  0  0  0  0  0
   37.3624   20.7715   33.2947 H   0  0  0  0  0  0  0  0  0  0  0  0
   36.0330   21.8776   33.6817 H   0  0  0  0  0  0  0  0  0  0  0  0
   36.9814   23.6112   32.3795 H   0  0  0  0  0  0  0  0  0  0  0  0
   37.9576   22.3886   31.6258 H   0  0  0  0  0  0  0  0  0  0  0  0
   39.8136   22.7392   33.4778 H   0  0  0  0  0  0  0  0  0  0  0  0
   41.3621   23.8371   32.5214 H   0  0  0  0  0  0  0  0  0  0  0  0
   42.2064   25.8725   31.4232 H   0  0  0  0  0  0  0  0  0  0  0  0
   40.6822   27.8022   31.0128 H   0  0  0  0  0  0  0  0  0  0  0  0
   38.5884   28.7631   31.1690 H   0  0  0  0  0  0  0  0  0  0  0  0
   36.1576   28.6770   31.8617 H   0  0  0  0  0  0  0  0  0  0  0  0
   35.3662   26.6237   32.9501 H   0  0  0  0  0  0  0  0  0  0  0  0
   36.8000   24.6865   33.3938 H   0  0  0  0  0  0  0  0  0  0  0  0
   41.1186   20.9102   38.1601 H   0  0  0  0  0  0  0  0  0  0  0  0
   39.0542   22.1971   37.4534 H   0  0  0  0  0  0  0  0  0  0  0  0
   43.5298   23.2556   35.5788 H   0  0  0  0  0  0  0  0  0  0  0  0
  1  2  1  0
  1 16  1  0
  3  2  1  0
  4  5  1  0
  4  3  1  0
  5  1  1  0
  6  5  1  0
  7  6  2  0
  8  7  1  0
  9  8  2  0
  9 10  1  0
 10 15  2  0
 11 10  1  0
 11 12  2  0
 12 13  1  0
 13 14  2  0
 15  6  1  0
 15 14  1  0
 16 20  1  0
 16 17  2  0
 19 18  2  0
 20 19  1  0
 21 22  1  0
 21 20  2  0
 22 23  2  0
 23 18  1  0
  1 24  1  6
  2 25  1  0
  2 26  1  0
  3 27  1  0
  3 28  1  0
  4 29  1  0
  4 30  1  0
  5 31  1  1
  7 32  1  0
  8 33  1  0
  9 34  1  0
 11 35  1  0
 12 36  1  0
 13 37  1  0
 14 38  1  0
 18 39  1  0
 19 40  1  0
 22 41  1  0
M  ISO  8  24  13  25  13  26  13  27  13  28  13  29  13  30  13  31  13
M  ISO  8  32  14  33  14  34  14  35  14  36  14  37  14  38  14  39  14
M  ISO  2  40  14  41  14
M  END
>  <minimizedAffinity>  (1) 
-4.67502356

>  <minimizedRMSD>  (1) 
3.54819512

$$$$
