
     RDKit          3D

 41 43  0  0  1  0  0  0  0  0999 V2000
   37.9940   23.5230   34.8850 C   0  0  2  0  0  0  0  0  0  0  0  0
   37.9280   21.9950   34.8200 C   0  0  0  0  0  0  0  0  0  0  0  0
   37.2120   21.8310   33.4820 C   0  0  0  0  0  0  0  0  0  0  0  0
   37.4180   23.1290   32.7330 C   0  0  0  0  0  0  0  0  0  0  0  0
   38.5450   23.7930   33.5380 C   0  0  1  0  0  0  0  0  0  0  0  0
   38.5160   25.2520   33.1320 C   0  0  0  0  0  0  0  0  0  0  0  0
   38.9170   25.3930   31.6950 C   0  0  0  0  0  0  0  0  0  0  0  0
   38.3260   26.5980   31.0220 C   0  0  0  0  0  0  0  0  0  0  0  0
   37.9990   27.7410   31.9230 C   0  0  0  0  0  0  0  0  0  0  0  0
   37.3660   27.3870   33.2250 C   0  0  0  0  0  0  0  0  0  0  0  0
   37.1570   25.8640   33.2740 C   0  0  0  0  0  0  0  0  0  0  0  0
   38.7860   24.0270   35.9900 C   0  0  0  0  0  0  0  0  0  0  0  0
   38.3060   24.9930   36.6760 O   0  0  0  0  0  0  0  0  0  0  0  0
   41.2760   21.8120   37.5080 C   0  0  0  0  0  0  0  0  0  0  0  0
   40.0430   22.4580   37.2370 C   0  0  0  0  0  0  0  0  0  0  0  0
   40.0670   23.3920   36.2300 C   0  0  0  0  0  0  0  0  0  0  0  0
   41.2250   23.6420   35.5640 N   0  0  0  0  0  0  0  0  0  0  0  0
   42.3690   23.0250   35.8320 C   0  0  0  0  0  0  0  0  0  0  0  0
   42.3950   22.0970   36.8170 N   0  0  0  0  0  0  0  0  0  0  0  0
   37.0414   24.0325   35.0922 H   0  0  0  0  0  0  0  0  0  0  0  0
   38.9299   21.5411   34.8077 H   0  0  0  0  0  0  0  0  0  0  0  0
   37.4366   21.5105   35.6767 H   0  0  0  0  0  0  0  0  0  0  0  0
   37.6451   20.9920   32.9177 H   0  0  0  0  0  0  0  0  0  0  0  0
   36.1428   21.6140   33.6227 H   0  0  0  0  0  0  0  0  0  0  0  0
   37.7258   22.9449   31.6931 H   0  0  0  0  0  0  0  0  0  0  0  0
   36.5089   23.7436   32.6564 H   0  0  0  0  0  0  0  0  0  0  0  0
   39.5905   23.4692   33.4285 H   0  0  0  0  0  0  0  0  0  0  0  0
   39.2158   25.7708   33.8037 H   0  0  0  0  0  0  0  0  0  0  0  0
   40.0132   25.4697   31.6457 H   0  0  0  0  0  0  0  0  0  0  0  0
   38.5355   24.5078   31.1651 H   0  0  0  0  0  0  0  0  0  0  0  0
   39.0464   26.9540   30.2708 H   0  0  0  0  0  0  0  0  0  0  0  0
   37.3680   26.2661   30.5954 H   0  0  0  0  0  0  0  0  0  0  0  0
   38.9346   28.2777   32.1387 H   0  0  0  0  0  0  0  0  0  0  0  0
   37.2507   28.3394   31.3827 H   0  0  0  0  0  0  0  0  0  0  0  0
   38.0217   27.6974   34.0519 H   0  0  0  0  0  0  0  0  0  0  0  0
   36.3986   27.9013   33.3235 H   0  0  0  0  0  0  0  0  0  0  0  0
   36.5053   25.5416   32.4485 H   0  0  0  0  0  0  0  0  0  0  0  0
   36.6741   25.5553   34.2129 H   0  0  0  0  0  0  0  0  0  0  0  0
   41.3189   21.0562   38.3060 H   0  0  0  0  0  0  0  0  0  0  0  0
   39.1255   22.2259   37.7976 H   0  0  0  0  0  0  0  0  0  0  0  0
   43.2801   23.2636   35.2636 H   0  0  0  0  0  0  0  0  0  0  0  0
  1 12  1  0
  2  1  1  0
  3  2  1  0
  4  3  1  0
  4  5  1  0
  5  1  1  0
  6 11  1  0
  6  5  1  0
  7  6  1  0
  8  7  1  0
  8  9  1  0
  9 10  1  0
 10 11  1  0
 12 16  1  0
 12 13  2  0
 15 14  2  0
 16 15  1  0
 17 18  1  0
 17 16  2  0
 18 19  2  0
 19 14  1  0
  1 20  1  6
  2 21  1  0
  2 22  1  0
  3 23  1  0
  3 24  1  0
  4 25  1  0
  4 26  1  0
  5 27  1  1
  6 28  1  0
  7 29  1  0
  7 30  1  0
  8 31  1  0
  8 32  1  0
  9 33  1  0
  9 34  1  0
 10 35  1  0
 10 36  1  0
 11 37  1  0
 11 38  1  0
 14 39  1  0
 15 40  1  0
 18 41  1  0
M  ISO  8  20  13  21  13  22  13  23  13  24  13  25  13  26  13  27  13
M  ISO  8  28  13  29  13  30  13  31  13  32  13  33  13  34  13  35  13
M  ISO  6  36  13  37  13  38  13  39  14  40  14  41  14
M  END
>  <minimizedAffinity>  (1) 
-4.24084759

>  <minimizedRMSD>  (1) 
2.79065514

$$$$
