
     RDKit          3D

 35 37  0  0  1  0  0  0  0  0999 V2000
   37.6530   23.4840   34.4300 C   0  0  2  0  0  0  0  0  0  0  0  0
   37.8900   21.9720   34.4720 C   0  0  0  0  0  0  0  0  0  0  0  0
   37.1810   21.5770   33.1740 C   0  0  0  0  0  0  0  0  0  0  0  0
   37.1530   22.8400   32.3170 C   0  0  0  0  0  0  0  0  0  0  0  0
   38.1530   23.7460   33.0470 C   0  0  1  0  0  0  0  0  0  0  0  0
   37.9410   25.1100   32.6160 N   0  0  0  0  0  0  0  0  0  0  0  0
   36.6980   25.5360   32.4020 C   0  0  0  0  0  0  0  0  0  0  0  0
   36.4210   26.8300   31.9870 C   0  0  0  0  0  0  0  0  0  0  0  0
   37.4450   27.7370   31.7770 C   0  0  0  0  0  0  0  0  0  0  0  0
   37.2600   28.9110   31.4050 O   0  0  0  0  0  0  0  0  0  0  0  0
   38.6920   27.2740   32.0020 N   0  0  0  0  0  0  0  0  0  0  0  0
   38.9140   26.0150   32.4020 C   0  0  0  0  0  0  0  0  0  0  0  0
   40.1110   25.6410   32.5960 O   0  0  0  0  0  0  0  0  0  0  0  0
   38.3450   24.2190   35.4770 C   0  0  0  0  0  0  0  0  0  0  0  0
   37.8060   25.2930   35.9010 O   0  0  0  0  0  0  0  0  0  0  0  0
   40.6700   22.4000   37.6460 C   0  0  0  0  0  0  0  0  0  0  0  0
   39.4810   22.9610   37.1280 C   0  0  0  0  0  0  0  0  0  0  0  0
   39.5990   23.6680   35.9550 C   0  0  0  0  0  0  0  0  0  0  0  0
   40.8140   23.7950   35.3560 N   0  0  0  0  0  0  0  0  0  0  0  0
   41.9220   23.2550   35.8620 C   0  0  0  0  0  0  0  0  0  0  0  0
   41.8570   22.5500   37.0160 N   0  0  0  0  0  0  0  0  0  0  0  0
   36.6206   23.8121   34.6209 H   0  0  0  0  0  0  0  0  0  0  0  0
   38.9611   21.7224   34.4484 H   0  0  0  0  0  0  0  0  0  0  0  0
   37.5303   21.4637   35.3788 H   0  0  0  0  0  0  0  0  0  0  0  0
   37.7368   20.7780   32.6614 H   0  0  0  0  0  0  0  0  0  0  0  0
   36.1677   21.1941   33.3655 H   0  0  0  0  0  0  0  0  0  0  0  0
   36.1484   23.2877   32.2984 H   0  0  0  0  0  0  0  0  0  0  0  0
   37.4047   22.6638   31.2608 H   0  0  0  0  0  0  0  0  0  0  0  0
   39.2304   23.5774   32.9025 H   0  0  0  0  0  0  0  0  0  0  0  0
   35.8625   24.8381   32.5597 H   0  0  0  0  0  0  0  0  0  0  0  0
   35.3778   27.1383   31.8233 H   0  0  0  0  0  0  0  0  0  0  0  0
   39.4941   27.9049   31.8626 H   0  0  0  0  0  0  0  0  0  0  0  0
   40.6290   21.8275   38.5844 H   0  0  0  0  0  0  0  0  0  0  0  0
   38.5131   22.8386   37.6361 H   0  0  0  0  0  0  0  0  0  0  0  0
   42.8846   23.3813   35.3448 H   0  0  0  0  0  0  0  0  0  0  0  0
  1  2  1  0
  1 14  1  0
  3  2  1  0
  4  5  1  0
  4  3  1  0
  5  1  1  0
  6  5  1  0
  7  6  1  0
  8  7  2  0
  9  8  1  0
  9 11  1  0
 10  9  2  0
 11 12  1  0
 12 13  2  0
 12  6  1  0
 14 15  2  0
 14 18  1  0
 17 16  2  0
 18 17  1  0
 19 20  1  0
 19 18  2  0
 20 21  2  0
 21 16  1  0
  1 22  1  6
  2 23  1  0
  2 24  1  0
  3 25  1  0
  3 26  1  0
  4 27  1  0
  4 28  1  0
  5 29  1  1
  7 30  1  0
  8 31  1  0
 11 32  1  0
 16 33  1  0
 17 34  1  0
 20 35  1  0
M  ISO  8  22  13  23  13  24  13  25  13  26  13  27  13  28  13  29  13
M  ISO  6  30  14  31  14  32   9  33  14  34  14  35  14
M  END
>  <minimizedAffinity>  (1) 
-4.27763414

>  <minimizedRMSD>  (1) 
2.76677036

$$$$
