
     RDKit          3D

 39 41  0  0  1  0  0  0  0  0999 V2000
   37.1590   22.3750   34.2600 C   0  0  2  0  0  0  0  0  0  0  0  0
   36.6130   21.5150   35.4030 C   0  0  0  0  0  0  0  0  0  0  0  0
   35.7040   20.6010   34.5740 C   0  0  0  0  0  0  0  0  0  0  0  0
   36.2690   20.6250   33.1450 C   0  0  0  0  0  0  0  0  0  0  0  0
   37.6320   21.2560   33.3940 C   0  0  1  0  0  0  0  0  0  0  0  0
   38.3390   21.6140   32.2130 N   0  0  0  0  0  0  0  0  0  0  0  0
   39.6100   20.9120   32.2020 C   0  0  0  0  0  0  0  0  0  0  0  0
   40.4280   21.5030   31.0820 C   0  0  0  0  0  0  0  0  0  0  0  0
   39.7740   21.3070   29.8280 N   0  0  0  0  0  0  0  0  0  0  0  0
   38.4160   20.8770   29.8900 C   0  0  0  0  0  0  0  0  0  0  0  0
   37.6060   21.5260   31.0000 C   0  0  0  0  0  0  0  0  0  0  0  0
   38.1830   23.3180   34.6740 C   0  0  0  0  0  0  0  0  0  0  0  0
   38.7190   24.0500   33.7780 O   0  0  0  0  0  0  0  0  0  0  0  0
   37.9700   24.2360   38.2170 C   0  0  0  0  0  0  0  0  0  0  0  0
   37.6940   24.1600   36.8350 C   0  0  0  0  0  0  0  0  0  0  0  0
   38.5170   23.3530   36.0850 C   0  0  0  0  0  0  0  0  0  0  0  0
   39.5350   22.6750   36.6790 N   0  0  0  0  0  0  0  0  0  0  0  0
   39.7810   22.7600   37.9970 C   0  0  0  0  0  0  0  0  0  0  0  0
   38.9930   23.5460   38.7680 N   0  0  0  0  0  0  0  0  0  0  0  0
   36.4563   23.0745   33.7836 H   0  0  0  0  0  0  0  0  0  0  0  0
   37.4074   20.9550   35.9181 H   0  0  0  0  0  0  0  0  0  0  0  0
   36.1258   22.0604   36.2247 H   0  0  0  0  0  0  0  0  0  0  0  0
   35.7231   19.5770   34.9754 H   0  0  0  0  0  0  0  0  0  0  0  0
   34.6585   20.9419   34.5997 H   0  0  0  0  0  0  0  0  0  0  0  0
   35.6523   21.2423   32.4752 H   0  0  0  0  0  0  0  0  0  0  0  0
   36.3027   19.6434   32.6497 H   0  0  0  0  0  0  0  0  0  0  0  0
   38.4082   20.6186   33.8427 H   0  0  0  0  0  0  0  0  0  0  0  0
   40.1274   21.0517   33.1626 H   0  0  0  0  0  0  0  0  0  0  0  0
   39.4617   19.8322   32.0534 H   0  0  0  0  0  0  0  0  0  0  0  0
   40.5575   22.5811   31.2582 H   0  0  0  0  0  0  0  0  0  0  0  0
   41.4074   21.0030   31.0545 H   0  0  0  0  0  0  0  0  0  0  0  0
   40.3053   20.5975   29.3034 H   0  0  0  0  0  0  0  0  0  0  0  0
   37.9354   21.1132   28.9292 H   0  0  0  0  0  0  0  0  0  0  0  0
   38.4360   19.7981   30.1034 H   0  0  0  0  0  0  0  0  0  0  0  0
   37.3195   22.5399   30.6840 H   0  0  0  0  0  0  0  0  0  0  0  0
   36.7199   20.9006   31.1836 H   0  0  0  0  0  0  0  0  0  0  0  0
   37.3398   24.8696   38.8585 H   0  0  0  0  0  0  0  0  0  0  0  0
   36.8623   24.7183   36.3806 H   0  0  0  0  0  0  0  0  0  0  0  0
   40.6134   22.1973   38.4448 H   0  0  0  0  0  0  0  0  0  0  0  0
  1 12  1  0
  1  2  1  0
  3  2  1  0
  4  5  1  0
  4  3  1  0
  5  1  1  0
  6  5  1  0
  7  6  1  0
  8  7  1  0
  9 10  1  0
  9  8  1  0
 10 11  1  0
 11  6  1  0
 12 16  1  0
 13 12  2  0
 14 19  2  0
 15 14  1  0
 16 17  1  0
 16 15  2  0
 17 18  2  0
 18 19  1  0
  1 20  1  6
  2 21  1  0
  2 22  1  0
  3 23  1  0
  3 24  1  0
  4 25  1  0
  4 26  1  0
  5 27  1  1
  7 28  1  0
  7 29  1  0
  8 30  1  0
  8 31  1  0
  9 32  1  0
 10 33  1  0
 10 34  1  0
 11 35  1  0
 11 36  1  0
 14 37  1  0
 15 38  1  0
 18 39  1  0
M  ISO  8  20  13  21  13  22  13  23  13  24  13  25  13  26  13  27  13
M  ISO  8  28  13  29  13  30  13  31  13  32   5  33  13  34  13  35  13
M  ISO  4  36  13  37  14  38  14  39  14
M  END
>  <minimizedAffinity>  (1) 
-3.91604781

>  <minimizedRMSD>  (1) 
2.06221461

$$$$
