
     RDKit          3D

 37 39  0  0  1  0  0  0  0  0999 V2000
   37.6270   23.3640   33.7010 C   0  0  2  0  0  0  0  0  0  0  0  0
   38.6590   23.0900   34.7980 C   0  0  0  0  0  0  0  0  0  0  0  0
   37.9210   21.9850   35.5570 C   0  0  0  0  0  0  0  0  0  0  0  0
   36.8610   21.4430   34.5990 C   0  0  0  0  0  0  0  0  0  0  0  0
   37.4000   21.9540   33.2610 C   0  0  1  0  0  0  0  0  0  0  0  0
   36.4870   21.8390   32.1850 N   0  0  0  0  0  0  0  0  0  0  0  0
   35.1690   21.4180   32.4810 C   0  0  0  0  0  0  0  0  0  0  0  0
   35.0760   20.0090   31.9470 C   0  0  0  0  0  0  0  0  0  0  0  0
   36.0950   19.9540   30.8110 C   0  0  0  0  0  0  0  0  0  0  0  0
   36.9940   21.1450   31.0530 C   0  0  0  0  0  0  0  0  0  0  0  0
   38.0890   24.2710   32.6680 C   0  0  0  0  0  0  0  0  0  0  0  0
   39.1570   23.9900   32.0450 O   0  0  0  0  0  0  0  0  0  0  0  0
   35.5870   26.4440   31.0890 C   0  0  0  0  0  0  0  0  0  0  0  0
   36.4010   25.3310   31.3750 C   0  0  0  0  0  0  0  0  0  0  0  0
   37.2790   25.4500   32.4230 C   0  0  0  0  0  0  0  0  0  0  0  0
   37.3250   26.6150   33.1250 N   0  0  0  0  0  0  0  0  0  0  0  0
   36.5490   27.6620   32.8430 C   0  0  0  0  0  0  0  0  0  0  0  0
   35.6700   27.5770   31.8140 N   0  0  0  0  0  0  0  0  0  0  0  0
   36.7193   23.9006   34.0142 H   0  0  0  0  0  0  0  0  0  0  0  0
   39.6155   22.7374   34.3847 H   0  0  0  0  0  0  0  0  0  0  0  0
   38.9490   23.9631   35.4009 H   0  0  0  0  0  0  0  0  0  0  0  0
   38.6209   21.1859   35.8426 H   0  0  0  0  0  0  0  0  0  0  0  0
   37.4659   22.3696   36.4817 H   0  0  0  0  0  0  0  0  0  0  0  0
   36.8154   20.3442   34.6246 H   0  0  0  0  0  0  0  0  0  0  0  0
   35.8331   21.7605   34.8284 H   0  0  0  0  0  0  0  0  0  0  0  0
   38.2630   21.4145   32.8436 H   0  0  0  0  0  0  0  0  0  0  0  0
   34.9941   21.4316   33.5669 H   0  0  0  0  0  0  0  0  0  0  0  0
   34.4144   22.0797   32.0307 H   0  0  0  0  0  0  0  0  0  0  0  0
   35.3298   19.2801   32.7308 H   0  0  0  0  0  0  0  0  0  0  0  0
   34.0602   19.7606   31.6058 H   0  0  0  0  0  0  0  0  0  0  0  0
   35.5944   20.0363   29.8350 H   0  0  0  0  0  0  0  0  0  0  0  0
   36.6519   19.0055   30.7934 H   0  0  0  0  0  0  0  0  0  0  0  0
   38.0219   20.8061   31.2494 H   0  0  0  0  0  0  0  0  0  0  0  0
   37.0124   21.8025   30.1713 H   0  0  0  0  0  0  0  0  0  0  0  0
   34.8692   26.3875   30.2574 H   0  0  0  0  0  0  0  0  0  0  0  0
   36.3359   24.4058   30.7836 H   0  0  0  0  0  0  0  0  0  0  0  0
   36.6211   28.5842   33.4383 H   0  0  0  0  0  0  0  0  0  0  0  0
  1  2  1  0
  2  3  1  0
  4  3  1  0
  5  1  1  0
  5  4  1  0
  6  7  1  0
  6  5  1  0
  8  7  1  0
  9 10  1  0
  9  8  1  0
 10  6  1  0
 11  1  1  0
 12 11  2  0
 13 14  2  0
 13 18  1  0
 14 15  1  0
 15 11  1  0
 15 16  2  0
 17 16  1  0
 18 17  2  0
  1 19  1  1
  2 20  1  0
  2 21  1  0
  3 22  1  0
  3 23  1  0
  4 24  1  0
  4 25  1  0
  5 26  1  6
  7 27  1  0
  7 28  1  0
  8 29  1  0
  8 30  1  0
  9 31  1  0
  9 32  1  0
 10 33  1  0
 10 34  1  0
 13 35  1  0
 14 36  1  0
 17 37  1  0
M  ISO  8  19  13  20  13  21  13  22  13  23  13  24  13  25  13  26  13
M  ISO  8  27  13  28  13  29  13  30  13  31  13  32  13  33  13  34  13
M  ISO  3  35  14  36  14  37  14
M  END
>  <minimizedAffinity>  (1) 
-3.98307633

>  <minimizedRMSD>  (1) 
5.47645521

$$$$
