
     RDKit          3D

 37 38  0  0  1  0  0  0  0  0999 V2000
   36.9700   22.3840   34.3810 C   0  0  2  0  0  0  0  0  0  0  0  0
   36.6980   21.4830   35.5900 C   0  0  0  0  0  0  0  0  0  0  0  0
   35.6490   20.5610   35.0240 C   0  0  0  0  0  0  0  0  0  0  0  0
   35.7510   20.6880   33.5370 C   0  0  0  0  0  0  0  0  0  0  0  0
   37.1270   21.3940   33.3160 C   0  0  1  0  0  0  0  0  0  0  0  0
   37.0080   21.8130   31.8830 C   0  0  0  0  0  0  0  0  0  0  0  0
   38.1920   22.2300   31.1370 C   0  0  0  0  0  0  0  0  0  0  0  0
   36.4340   20.5750   31.1600 C   0  0  0  0  0  0  0  0  0  0  0  0
   35.9660   22.8840   31.6220 C   0  0  0  0  0  0  0  0  0  0  0  0
   38.1180   23.2610   34.6220 C   0  0  0  0  0  0  0  0  0  0  0  0
   38.2340   24.3060   33.8980 O   0  0  0  0  0  0  0  0  0  0  0  0
   39.6100   23.0460   37.9510 C   0  0  0  0  0  0  0  0  0  0  0  0
   38.7370   23.3910   36.8930 C   0  0  0  0  0  0  0  0  0  0  0  0
   39.0290   22.8680   35.6640 C   0  0  0  0  0  0  0  0  0  0  0  0
   40.1050   22.0790   35.5510 N   0  0  0  0  0  0  0  0  0  0  0  0
   40.9330   21.7450   36.5260 C   0  0  0  0  0  0  0  0  0  0  0  0
   40.6800   22.2420   37.7650 N   0  0  0  0  0  0  0  0  0  0  0  0
   36.1865   23.1154   34.1335 H   0  0  0  0  0  0  0  0  0  0  0  0
   37.5996   20.9317   35.8951 H   0  0  0  0  0  0  0  0  0  0  0  0
   36.3896   22.0207   36.4988 H   0  0  0  0  0  0  0  0  0  0  0  0
   35.8440   19.5237   35.3337 H   0  0  0  0  0  0  0  0  0  0  0  0
   34.6434   20.8241   35.3838 H   0  0  0  0  0  0  0  0  0  0  0  0
   35.7371   19.6981   33.0574 H   0  0  0  0  0  0  0  0  0  0  0  0
   34.9110   21.2475   33.0995 H   0  0  0  0  0  0  0  0  0  0  0  0
   38.1188   20.9251   33.3969 H   0  0  0  0  0  0  0  0  0  0  0  0
   38.9890   22.5107   31.8412 H   0  0  0  0  0  0  0  0  0  0  0  0
   38.5378   21.3996   30.5039 H   0  0  0  0  0  0  0  0  0  0  0  0
   37.9411   23.0938   30.5039 H   0  0  0  0  0  0  0  0  0  0  0  0
   36.0935   19.8406   31.9047 H   0  0  0  0  0  0  0  0  0  0  0  0
   35.5850   20.8791   30.5301 H   0  0  0  0  0  0  0  0  0  0  0  0
   37.2147   20.1235   30.5301 H   0  0  0  0  0  0  0  0  0  0  0  0
   35.5897   23.2708   32.5805 H   0  0  0  0  0  0  0  0  0  0  0  0
   36.4201   23.7052   31.0481 H   0  0  0  0  0  0  0  0  0  0  0  0
   35.1326   22.4526   31.0481 H   0  0  0  0  0  0  0  0  0  0  0  0
   39.4117   23.4447   38.9568 H   0  0  0  0  0  0  0  0  0  0  0  0
   37.8678   24.0464   37.0509 H   0  0  0  0  0  0  0  0  0  0  0  0
   41.7958   21.0883   36.3408 H   0  0  0  0  0  0  0  0  0  0  0  0
  1 10  1  0
  1  2  1  0
  3  2  1  0
  4  3  1  0
  5  4  1  0
  5  1  1  0
  6  5  1  0
  7  6  1  0
  8  6  1  0
  9  6  1  0
 10 14  1  0
 11 10  2  0
 13 12  2  0
 14 13  1  0
 15 14  2  0
 15 16  1  0
 16 17  2  0
 17 12  1  0
  1 18  1  6
  2 19  1  0
  2 20  1  0
  3 21  1  0
  3 22  1  0
  4 23  1  0
  4 24  1  0
  5 25  1  6
  7 26  1  0
  7 27  1  0
  7 28  1  0
  8 29  1  0
  8 30  1  0
  8 31  1  0
  9 32  1  0
  9 33  1  0
  9 34  1  0
 12 35  1  0
 13 36  1  0
 16 37  1  0
M  ISO  8  18  13  19  13  20  13  21  13  22  13  23  13  24  13  25  13
M  ISO  8  26   8  27   8  28   8  29   8  30   8  31   8  32   8  33   8
M  ISO  4  34   8  35  14  36  14  37  14
M  END
>  <minimizedAffinity>  (1) 
-4.024405

>  <minimizedRMSD>  (1) 
1.42096615

$$$$
