
     RDKit          3D

 28 29  0  0  1  0  0  0  0  0999 V2000
   37.1060   22.4800   34.5690 C   0  0  2  0  0  0  0  0  0  0  0  0
   36.8380   21.5190   35.7280 C   0  0  0  0  0  0  0  0  0  0  0  0
   35.7420   20.6760   35.1040 C   0  0  0  0  0  0  0  0  0  0  0  0
   35.8750   20.8350   33.6140 C   0  0  0  0  0  0  0  0  0  0  0  0
   37.2730   21.4990   33.4580 C   0  0  1  0  0  0  0  0  0  0  0  0
   37.1660   22.1610   32.0850 C   0  0  0  0  0  0  0  0  0  0  0  0
   36.5660   21.3170   31.1790 F   0  0  0  0  0  0  0  0  0  0  0  0
   38.3630   22.6810   31.6850 F   0  0  0  0  0  0  0  0  0  0  0  0
   36.2900   23.2620   32.1720 F   0  0  0  0  0  0  0  0  0  0  0  0
   38.2540   23.3540   34.7930 C   0  0  0  0  0  0  0  0  0  0  0  0
   38.2260   24.5160   34.2670 O   0  0  0  0  0  0  0  0  0  0  0  0
   40.2630   22.6680   37.7630 C   0  0  0  0  0  0  0  0  0  0  0  0
   39.2450   23.1470   36.9280 C   0  0  0  0  0  0  0  0  0  0  0  0
   39.3340   22.8230   35.5990 C   0  0  0  0  0  0  0  0  0  0  0  0
   40.3690   22.0820   35.1860 N   0  0  0  0  0  0  0  0  0  0  0  0
   41.3410   21.6230   35.9660 C   0  0  0  0  0  0  0  0  0  0  0  0
   41.2860   21.9240   37.2880 N   0  0  0  0  0  0  0  0  0  0  0  0
   36.3198   23.2277   34.3880 H   0  0  0  0  0  0  0  0  0  0  0  0
   37.7256   20.9191   35.9776 H   0  0  0  0  0  0  0  0  0  0  0  0
   36.5749   21.9979   36.6827 H   0  0  0  0  0  0  0  0  0  0  0  0
   35.8678   19.6202   35.3860 H   0  0  0  0  0  0  0  0  0  0  0  0
   34.7484   20.9964   35.4506 H   0  0  0  0  0  0  0  0  0  0  0  0
   35.8418   19.8591   33.1075 H   0  0  0  0  0  0  0  0  0  0  0  0
   35.0618   21.4250   33.1661 H   0  0  0  0  0  0  0  0  0  0  0  0
   38.2094   20.9236   33.5042 H   0  0  0  0  0  0  0  0  0  0  0  0
   40.2284   22.9045   38.8367 H   0  0  0  0  0  0  0  0  0  0  0  0
   38.4150   23.7534   37.3197 H   0  0  0  0  0  0  0  0  0  0  0  0
   42.1630   21.0191   35.5542 H   0  0  0  0  0  0  0  0  0  0  0  0
  1 10  1  0
  1  2  1  0
  3  2  1  0
  4  3  1  0
  5  4  1  0
  5  1  1  0
  6  9  1  0
  6  5  1  0
  7  6  1  0
  8  6  1  0
 10 14  1  0
 11 10  2  0
 13 12  2  0
 14 13  1  0
 15 14  2  0
 15 16  1  0
 16 17  2  0
 17 12  1  0
  1 18  1  6
  2 19  1  0
  2 20  1  0
  3 21  1  0
  3 22  1  0
  4 23  1  0
  4 24  1  0
  5 25  1  1
 12 26  1  0
 13 27  1  0
 16 28  1  0
M  ISO  8  18  13  19  13  20  13  21  13  22  13  23  13  24  13  25  13
M  ISO  3  26  14  27  14  28  14
M  END
>  <minimizedAffinity>  (1) 
-3.67607498

>  <minimizedRMSD>  (1) 
1.02314067

$$$$
