
     RDKit          3D

 28 30  0  0  0  0  0  0  0  0999 V2000
   39.8570   22.7190   37.2940 C   0  0  0  0  0  0  0  0  0  0  0  0
   39.1240   23.2030   38.3740 C   0  0  0  0  0  0  0  0  0  0  0  0
   37.7460   23.2820   38.2480 C   0  0  0  0  0  0  0  0  0  0  0  0
   37.1600   22.8840   37.0780 N   0  0  0  0  0  0  0  0  0  0  0  0
   37.9100   22.4170   36.0460 C   0  0  0  0  0  0  0  0  0  0  0  0
   39.2400   22.3420   36.1690 N   0  0  0  0  0  0  0  0  0  0  0  0
   37.3080   22.0020   34.8250 N   0  0  0  0  0  0  0  0  0  0  0  0
   37.9230   22.4790   33.7240 C   0  0  0  0  0  0  0  0  0  0  0  0
   37.3760   22.1110   32.5030 C   0  0  0  0  0  0  0  0  0  0  0  0
   36.2750   21.3060   32.5320 C   0  0  0  0  0  0  0  0  0  0  0  0
   35.6410   20.8770   31.3410 N   0  0  0  0  0  0  0  0  0  0  0  0
   35.7010   20.8590   33.6590 N   0  0  0  0  0  0  0  0  0  0  0  0
   36.2300   21.2140   34.8470 C   0  0  0  0  0  0  0  0  0  0  0  0
   35.7770   20.8550   35.9620 O   0  0  0  0  0  0  0  0  0  0  0  0
   37.9900   22.5900   31.2880 C   0  0  0  0  0  0  0  0  0  0  0  0
   37.8580   23.7480   30.5620 C   0  0  0  0  0  0  0  0  0  0  0  0
   38.6790   23.7050   29.4720 N   0  0  0  0  0  0  0  0  0  0  0  0
   39.3290   22.5310   29.5020 C   0  0  0  0  0  0  0  0  0  0  0  0
   38.9000   21.8820   30.5970 N   0  0  0  0  0  0  0  0  0  0  0  0
   40.9522   22.6461   37.3665 H   0  0  0  0  0  0  0  0  0  0  0  0
   39.6250   23.5144   39.3025 H   0  0  0  0  0  0  0  0  0  0  0  0
   37.1315   23.6600   39.0784 H   0  0  0  0  0  0  0  0  0  0  0  0
   38.8107   23.1252   33.7901 H   0  0  0  0  0  0  0  0  0  0  0  0
   34.8108   20.2693   31.3896 H   0  0  0  0  0  0  0  0  0  0  0  0
   36.0099   21.1726   30.4259 H   0  0  0  0  0  0  0  0  0  0  0  0
   37.1914   24.5842   30.8197 H   0  0  0  0  0  0  0  0  0  0  0  0
   40.0688   22.1706   28.7721 H   0  0  0  0  0  0  0  0  0  0  0  0
   39.2310   20.9473   30.8757 H   0  0  0  0  0  0  0  0  0  0  0  0
  1  2  2  0
  3  2  1  0
  4  3  2  0
  5  6  2  0
  5  4  1  0
  6  1  1  0
  7 13  1  0
  7  5  1  0
  8  7  1  0
  9 10  1  0
  9  8  2  0
 10 12  2  0
 11 10  1  0
 12 13  1  0
 13 14  2  0
 15  9  1  0
 16 15  2  0
 17 18  2  0
 17 16  1  0
 18 19  1  0
 19 15  1  0
  1 20  1  0
  2 21  1  0
  3 22  1  0
  8 23  1  0
 11 24  1  0
 11 25  1  0
 16 26  1  0
 18 27  1  0
 19 28  1  0
M  ISO  7  20  14  21  14  22  14  23  14  26  14  27  14  28   9
M  END
>  <minimizedAffinity>  (1) 
-4.95157003

>  <minimizedRMSD>  (1) 
0.924654543

$$$$
