
     RDKit          3D

 31 32  0  0  1  0  0  0  0  0999 V2000
   37.0580   22.3570   34.2470 C   0  0  2  0  0  0  0  0  0  0  0  0
   36.6400   21.4490   35.4080 C   0  0  0  0  0  0  0  0  0  0  0  0
   35.6850   20.5350   34.6750 C   0  0  0  0  0  0  0  0  0  0  0  0
   36.0240   20.6630   33.2110 C   0  0  0  0  0  0  0  0  0  0  0  0
   37.4370   21.3180   33.2470 C   0  0  1  0  0  0  0  0  0  0  0  0
   38.1250   23.2980   34.5930 C   0  0  0  0  0  0  0  0  0  0  0  0
   38.1860   24.3930   33.9510 O   0  0  0  0  0  0  0  0  0  0  0  0
   39.5340   23.0650   37.9620 C   0  0  0  0  0  0  0  0  0  0  0  0
   38.6970   23.4140   36.8740 C   0  0  0  0  0  0  0  0  0  0  0  0
   39.0260   22.8930   35.6480 C   0  0  0  0  0  0  0  0  0  0  0  0
   40.0990   22.1050   35.5700 N   0  0  0  0  0  0  0  0  0  0  0  0
   40.8950   21.7650   36.5700 C   0  0  0  0  0  0  0  0  0  0  0  0
   40.6040   22.2590   37.7970 N   0  0  0  0  0  0  0  0  0  0  0  0
   37.7340   21.8530   31.8640 C   0  0  0  0  0  0  0  0  0  0  0  0
   36.5350   22.5160   31.2300 C   0  0  0  0  0  0  0  0  0  0  0  0
   36.2873   23.0590   33.8959 H   0  0  0  0  0  0  0  0  0  0  0  0
   37.4950   20.8986   35.8274 H   0  0  0  0  0  0  0  0  0  0  0  0
   36.2163   21.9679   36.2805 H   0  0  0  0  0  0  0  0  0  0  0  0
   35.8197   19.4955   35.0086 H   0  0  0  0  0  0  0  0  0  0  0  0
   34.6375   20.8083   34.8703 H   0  0  0  0  0  0  0  0  0  0  0  0
   35.3004   21.3076   32.6905 H   0  0  0  0  0  0  0  0  0  0  0  0
   35.9986   19.7055   32.6701 H   0  0  0  0  0  0  0  0  0  0  0  0
   38.3342   20.7320   33.4952 H   0  0  0  0  0  0  0  0  0  0  0  0
   39.3070   23.4595   38.9634 H   0  0  0  0  0  0  0  0  0  0  0  0
   37.8249   24.0713   37.0056 H   0  0  0  0  0  0  0  0  0  0  0  0
   41.7610   21.1056   36.4111 H   0  0  0  0  0  0  0  0  0  0  0  0
   38.5466   22.5907   31.9383 H   0  0  0  0  0  0  0  0  0  0  0  0
   38.0181   21.0002   31.2300 H   0  0  0  0  0  0  0  0  0  0  0  0
   35.8626   22.8878   32.0172 H   0  0  0  0  0  0  0  0  0  0  0  0
   36.8690   23.3576   30.6054 H   0  0  0  0  0  0  0  0  0  0  0  0
   35.9997   21.7857   30.6054 H   0  0  0  0  0  0  0  0  0  0  0  0
  1  6  1  0
  1  2  1  0
  3  2  1  0
  4  5  1  0
  4  3  1  0
  5  1  1  0
  6 10  1  0
  7  6  2  0
  9  8  2  0
 10  9  1  0
 11 10  2  0
 11 12  1  0
 12 13  2  0
 13  8  1  0
 14  5  1  0
 15 14  1  0
  1 16  1  6
  2 17  1  0
  2 18  1  0
  3 19  1  0
  3 20  1  0
  4 21  1  0
  4 22  1  0
  5 23  1  1
  8 24  1  0
  9 25  1  0
 12 26  1  0
 14 27  1  0
 14 28  1  0
 15 29  1  0
 15 30  1  0
 15 31  1  0
M  ISO  8  16  13  17  13  18  13  19  13  20  13  21  13  22  13  23  13
M  ISO  8  24  14  25  14  26  14  27   8  28   8  29   8  30   8  31   8
M  END
>  <minimizedAffinity>  (1) 
-3.50707459

>  <minimizedRMSD>  (1) 
1.30016243

$$$$
