
     RDKit          3D

 32 33  0  0  1  0  0  0  0  0999 V2000
   37.2340   22.4630   34.5100 C   0  0  2  0  0  0  0  0  0  0  0  0
   36.6870   21.4710   35.5440 C   0  0  0  0  0  0  0  0  0  0  0  0
   35.8150   20.6220   34.6200 C   0  0  0  0  0  0  0  0  0  0  0  0
   36.3140   20.8920   33.1910 C   0  0  0  0  0  0  0  0  0  0  0  0
   37.6990   21.4970   33.4800 C   0  0  1  0  0  0  0  0  0  0  0  0
   38.1420   22.1000   32.2490 N   0  0  0  0  0  0  0  0  0  0  0  0
   37.3520   23.0480   31.5420 C   0  0  0  0  0  0  0  0  0  0  0  0
   36.1270   23.2610   31.8940 N   0  0  0  0  0  0  0  0  0  0  0  0
   37.8550   23.7950   30.4370 N   0  0  0  0  0  0  0  0  0  0  0  0
   35.6620   22.7730   32.6820 H   0  0  0  0  0  0  0  0  0  0  0  0
   38.2460   23.3600   35.0360 C   0  0  0  0  0  0  0  0  0  0  0  0
   38.0260   24.6100   35.0150 O   0  0  0  0  0  0  0  0  0  0  0  0
   40.7060   22.1690   37.4810 C   0  0  0  0  0  0  0  0  0  0  0  0
   39.5550   22.7520   36.9240 C   0  0  0  0  0  0  0  0  0  0  0  0
   39.4500   22.7470   35.5560 C   0  0  0  0  0  0  0  0  0  0  0  0
   40.4460   22.1880   34.8130 N   0  0  0  0  0  0  0  0  0  0  0  0
   41.5320   21.6380   35.3540 C   0  0  0  0  0  0  0  0  0  0  0  0
   41.6680   21.6260   36.7010 N   0  0  0  0  0  0  0  0  0  0  0  0
   36.5171   23.2071   34.1328 H   0  0  0  0  0  0  0  0  0  0  0  0
   37.4877   20.8806   36.0134 H   0  0  0  0  0  0  0  0  0  0  0  0
   36.1685   21.9205   36.4037 H   0  0  0  0  0  0  0  0  0  0  0  0
   35.9238   19.5556   34.8667 H   0  0  0  0  0  0  0  0  0  0  0  0
   34.7504   20.8772   34.7276 H   0  0  0  0  0  0  0  0  0  0  0  0
   35.6632   21.6042   32.6625 H   0  0  0  0  0  0  0  0  0  0  0  0
   36.3305   20.0063   32.5389 H   0  0  0  0  0  0  0  0  0  0  0  0
   38.5414   20.8688   33.8052 H   0  0  0  0  0  0  0  0  0  0  0  0
   39.0618   21.8357   31.8681 H   0  0  0  0  0  0  0  0  0  0  0  0
   38.8259   23.6577   30.1218 H   0  0  0  0  0  0  0  0  0  0  0  0
   37.2475   24.4721   29.9538 H   0  0  0  0  0  0  0  0  0  0  0  0
   40.8269   22.1540   38.5742 H   0  0  0  0  0  0  0  0  0  0  0  0
   38.7717   23.1935   37.5577 H   0  0  0  0  0  0  0  0  0  0  0  0
   42.3102   21.1981   34.7130 H   0  0  0  0  0  0  0  0  0  0  0  0
  1 11  1  0
  1  2  1  0
  3  2  1  0
  4  5  1  0
  4  3  1  0
  5  1  1  0
  6  5  1  0
  7  8  2  0
  7  6  1  0
  8 10  1  0
  9  7  1  0
 11 15  1  0
 12 11  2  0
 14 13  2  0
 15 14  1  0
 16 17  1  0
 16 15  2  0
 17 18  2  0
 18 13  1  0
  1 19  1  6
  2 20  1  0
  2 21  1  0
  3 22  1  0
  3 23  1  0
  4 24  1  0
  4 25  1  0
  5 26  1  1
  6 27  1  0
  9 28  1  0
  9 29  1  0
 13 30  1  0
 14 31  1  0
 17 32  1  0
M  ISO  8  19  13  20  13  21  13  22  13  23  13  24  13  25  13  26  13
M  ISO  3  30  14  31  14  32  14
M  END
>  <minimizedAffinity>  (1) 
-3.61024785

>  <minimizedRMSD>  (1) 
0.867181182

$$$$
