
     RDKit          3D

 26 27  0  0  1  0  0  0  0  0999 V2000
   37.1990   23.4800   32.8800 C   0  0  2  0  0  0  0  0  0  0  0  0
   37.0520   22.1690   32.0980 C   0  0  0  0  0  0  0  0  0  0  0  0
   35.7650   22.5020   31.3280 C   0  0  0  0  0  0  0  0  0  0  0  0
   35.6470   24.0290   31.3450 C   0  0  0  0  0  0  0  0  0  0  0  0
   37.0830   24.4330   31.7370 C   0  0  2  0  0  0  0  0  0  0  0  0
   38.4200   23.5700   33.6500 C   0  0  0  0  0  0  0  0  0  0  0  0
   39.2290   22.5890   33.6350 O   0  0  0  0  0  0  0  0  0  0  0  0
   39.9740   26.7340   34.6710 C   0  0  0  0  0  0  0  0  0  0  0  0
   39.7160   25.5310   33.9820 C   0  0  0  0  0  0  0  0  0  0  0  0
   38.6320   24.7970   34.3940 C   0  0  0  0  0  0  0  0  0  0  0  0
   37.8720   25.2500   35.4270 N   0  0  0  0  0  0  0  0  0  0  0  0
   38.1290   26.3920   36.0700 C   0  0  0  0  0  0  0  0  0  0  0  0
   39.1910   27.1390   35.6860 N   0  0  0  0  0  0  0  0  0  0  0  0
   38.1080   23.9690   30.3240 S   0  0  0  0  0  0  0  0  0  0  0  0
   36.4707   23.6474   33.6872 H   0  0  0  0  0  0  0  0  0  0  0  0
   37.9032   21.9913   31.4243 H   0  0  0  0  0  0  0  0  0  0  0  0
   37.0199   21.2528   32.7059 H   0  0  0  0  0  0  0  0  0  0  0  0
   34.8947   22.0457   31.8224 H   0  0  0  0  0  0  0  0  0  0  0  0
   35.7976   22.1115   30.3002 H   0  0  0  0  0  0  0  0  0  0  0  0
   35.3725   24.4236   30.3556 H   0  0  0  0  0  0  0  0  0  0  0  0
   34.8682   24.4153   32.0189 H   0  0  0  0  0  0  0  0  0  0  0  0
   37.3402   25.4744   31.9806 H   0  0  0  0  0  0  0  0  0  0  0  0
   40.8327   27.3531   34.3721 H   0  0  0  0  0  0  0  0  0  0  0  0
   40.3549   25.1959   33.1516 H   0  0  0  0  0  0  0  0  0  0  0  0
   37.4867   26.7212   36.9001 H   0  0  0  0  0  0  0  0  0  0  0  0
   39.2877   23.4350   30.7713 H   0  0  0  0  0  0  0  0  0  0  0  0
  1  6  1  0
  2  1  1  0
  3  4  1  0
  3  2  1  0
  4  5  1  0
  5  1  1  0
  6 10  1  0
  7  6  2  0
  8 13  2  0
  9 10  2  0
  9  8  1  0
 10 11  1  0
 11 12  2  0
 13 12  1  0
 14  5  1  0
  1 15  1  1
  2 16  1  0
  2 17  1  0
  3 18  1  0
  3 19  1  0
  4 20  1  0
  4 21  1  0
  5 22  1  1
  8 23  1  0
  9 24  1  0
 12 25  1  0
 14 26  1  0
M  ISO  8  15  13  16  13  17  13  18  13  19  13  20  13  21  13  22  13
M  ISO  4  23  14  24  14  25  14  26  11
M  END
>  <minimizedAffinity>  (1) 
-3.38430166

>  <minimizedRMSD>  (1) 
4.36111355

$$$$
