
     RDKit          3D

 28 30  0  0  0  0  0  0  0  0999 V2000
   39.8680   22.6650   37.0120 C   0  0  0  0  0  0  0  0  0  0  0  0
   39.2580   23.2730   38.1220 C   0  0  0  0  0  0  0  0  0  0  0  0
   37.8760   23.3660   38.1570 C   0  0  0  0  0  0  0  0  0  0  0  0
   37.1790   22.8580   37.1020 N   0  0  0  0  0  0  0  0  0  0  0  0
   37.7760   22.2800   36.0500 C   0  0  0  0  0  0  0  0  0  0  0  0
   39.1290   22.1830   36.0020 N   0  0  0  0  0  0  0  0  0  0  0  0
   37.0540   21.7490   34.9480 N   0  0  0  0  0  0  0  0  0  0  0  0
   37.5200   22.0730   33.7490 C   0  0  0  0  0  0  0  0  0  0  0  0
   36.8730   21.5950   32.6300 C   0  0  0  0  0  0  0  0  0  0  0  0
   35.7660   20.8000   32.8820 C   0  0  0  0  0  0  0  0  0  0  0  0
   35.0010   20.2380   31.8270 N   0  0  0  0  0  0  0  0  0  0  0  0
   35.3110   20.4840   34.1160 N   0  0  0  0  0  0  0  0  0  0  0  0
   35.9710   20.9700   35.1940 C   0  0  0  0  0  0  0  0  0  0  0  0
   35.6480   20.7490   36.3760 O   0  0  0  0  0  0  0  0  0  0  0  0
   37.2730   21.8710   31.2500 C   0  0  0  0  0  0  0  0  0  0  0  0
   38.5600   22.4570   30.8560 C   0  0  0  0  0  0  0  0  0  0  0  0
   38.4450   20.9690   30.7960 C   0  0  0  0  0  0  0  0  0  0  0  0
   40.9642   22.5834   36.9709 H   0  0  0  0  0  0  0  0  0  0  0  0
   39.8667   23.6682   38.9486 H   0  0  0  0  0  0  0  0  0  0  0  0
   37.3590   23.8341   39.0076 H   0  0  0  0  0  0  0  0  0  0  0  0
   38.4090   22.7132   33.6495 H   0  0  0  0  0  0  0  0  0  0  0  0
   34.1825   19.6504   32.0407 H   0  0  0  0  0  0  0  0  0  0  0  0
   35.2643   20.4177   30.8476 H   0  0  0  0  0  0  0  0  0  0  0  0
   36.2488   22.1514   30.9630 H   0  0  0  0  0  0  0  0  0  0  0  0
   38.6294   23.0330   29.9214 H   0  0  0  0  0  0  0  0  0  0  0  0
   39.2635   23.1456   31.3468 H   0  0  0  0  0  0  0  0  0  0  0  0
   38.4060   20.4528   29.8254 H   0  0  0  0  0  0  0  0  0  0  0  0
   38.9957   20.1154   31.2180 H   0  0  0  0  0  0  0  0  0  0  0  0
  1  2  2  0
  2  3  1  0
  4  3  2  0
  5  4  1  0
  6  5  2  0
  6  1  1  0
  7 13  1  0
  7  5  1  0
  8  7  1  0
  9 10  1  0
  9  8  2  0
 10 12  2  0
 11 10  1  0
 12 13  1  0
 13 14  2  0
 15  9  1  0
 16 15  1  0
 17 16  1  0
 17 15  1  0
  1 18  1  0
  2 19  1  0
  3 20  1  0
  8 21  1  0
 11 22  1  0
 11 23  1  0
 15 24  1  0
 16 25  1  0
 16 26  1  0
 17 27  1  0
 17 28  1  0
M  ISO  8  18  14  19  14  20  14  21  14  24  13  25  13  26  13  27  13
M  ISO  1  28  13
M  END
>  <minimizedAffinity>  (1) 
-4.92775726

>  <minimizedRMSD>  (1) 
0.244371504

$$$$
