
     RDKit          3D

 40 43  0  0  1  0  0  0  0  0999 V2000
   36.8850   22.3150   33.0230 C   0  0  2  0  0  0  0  0  0  0  0  0
   36.3440   20.8850   32.9170 C   0  0  0  0  0  0  0  0  0  0  0  0
   35.1780   21.1300   31.9560 C   0  0  0  0  0  0  0  0  0  0  0  0
   35.4510   22.4890   31.3020 C   0  0  0  0  0  0  0  0  0  0  0  0
   36.9450   22.6310   31.5890 C   0  0  1  0  0  0  0  0  0  0  0  0
   37.5390   23.8170   31.0910 C   0  0  0  0  0  0  0  0  0  0  0  0
   38.4940   23.8650   30.0530 C   0  0  0  0  0  0  0  0  0  0  0  0
   38.8330   25.1320   29.8430 N   0  0  0  0  0  0  0  0  0  0  0  0
   38.1770   25.9640   30.6670 C   0  0  0  0  0  0  0  0  0  0  0  0
   38.2180   27.3290   30.7960 C   0  0  0  0  0  0  0  0  0  0  0  0
   37.4190   27.9450   31.7470 C   0  0  0  0  0  0  0  0  0  0  0  0
   36.6110   27.1400   32.5280 C   0  0  0  0  0  0  0  0  0  0  0  0
   36.5890   25.7620   32.3760 C   0  0  0  0  0  0  0  0  0  0  0  0
   37.3700   25.1510   31.4460 C   0  0  0  0  0  0  0  0  0  0  0  0
   38.1360   22.3840   33.7580 C   0  0  0  0  0  0  0  0  0  0  0  0
   39.1690   21.8520   33.2450 O   0  0  0  0  0  0  0  0  0  0  0  0
   38.3890   25.1080   36.2060 C   0  0  0  0  0  0  0  0  0  0  0  0
   38.4140   24.4030   34.9750 C   0  0  0  0  0  0  0  0  0  0  0  0
   38.0990   23.0650   35.0380 C   0  0  0  0  0  0  0  0  0  0  0  0
   37.7910   22.5090   36.2300 N   0  0  0  0  0  0  0  0  0  0  0  0
   37.7720   23.1850   37.3730 C   0  0  0  0  0  0  0  0  0  0  0  0
   38.0770   24.5060   37.3600 N   0  0  0  0  0  0  0  0  0  0  0  0
   37.4460   22.5590   38.5800 O   0  0  0  0  0  0  0  0  0  0  0  0
   36.2932   23.0377   33.6039 H   0  0  0  0  0  0  0  0  0  0  0  0
   37.0880   20.1947   32.4928 H   0  0  0  0  0  0  0  0  0  0  0  0
   36.0730   20.4136   33.8732 H   0  0  0  0  0  0  0  0  0  0  0  0
   35.1387   20.3390   31.1926 H   0  0  0  0  0  0  0  0  0  0  0  0
   34.2122   21.1219   32.4825 H   0  0  0  0  0  0  0  0  0  0  0  0
   34.8671   23.2930   31.7739 H   0  0  0  0  0  0  0  0  0  0  0  0
   35.1770   22.5530   30.2386 H   0  0  0  0  0  0  0  0  0  0  0  0
   37.6688   21.9920   31.0619 H   0  0  0  0  0  0  0  0  0  0  0  0
   38.8920   22.9964   29.5078 H   0  0  0  0  0  0  0  0  0  0  0  0
   39.5154   25.4383   29.1349 H   0  0  0  0  0  0  0  0  0  0  0  0
   38.8778   27.9286   30.1517 H   0  0  0  0  0  0  0  0  0  0  0  0
   37.4278   29.0374   31.8757 H   0  0  0  0  0  0  0  0  0  0  0  0
   35.9685   27.6049   33.2902 H   0  0  0  0  0  0  0  0  0  0  0  0
   35.9313   25.1555   33.0160 H   0  0  0  0  0  0  0  0  0  0  0  0
   38.6331   26.1805   36.2122 H   0  0  0  0  0  0  0  0  0  0  0  0
   38.6701   24.8969   34.0261 H   0  0  0  0  0  0  0  0  0  0  0  0
   37.4374   23.0804   39.4215 H   0  0  0  0  0  0  0  0  0  0  0  0
  1 15  1  0
  2  1  1  0
  3  2  1  0
  4  5  1  0
  4  3  1  0
  5  1  1  0
  6 14  1  0
  6  5  1  0
  7  6  2  0
  8  7  1  0
  8  9  1  0
  9 10  2  0
  9 14  1  0
 10 11  1  0
 11 12  2  0
 13 12  1  0
 14 13  2  0
 15 19  1  0
 16 15  2  0
 17 22  2  0
 18 19  2  0
 18 17  1  0
 19 20  1  0
 20 21  2  0
 21 23  1  0
 22 21  1  0
  1 24  1  1
  2 25  1  0
  2 26  1  0
  3 27  1  0
  3 28  1  0
  4 29  1  0
  4 30  1  0
  5 31  1  6
  7 32  1  0
  8 33  1  0
 10 34  1  0
 11 35  1  0
 12 36  1  0
 13 37  1  0
 17 38  1  0
 18 39  1  0
 23 40  1  0
M  ISO  8  24  13  25  13  26  13  27  13  28  13  29  13  30  13  31  13
M  ISO  8  32  14  33   9  34  14  35  14  36  14  37  14  38  14  39  14
M  ISO  1  40   3
M  END
>  <minimizedAffinity>  (1) 
-5.8567481

>  <minimizedRMSD>  (1) 
0.293506086

$$$$
