
     RDKit          3D

 42 45  0  0  1  0  0  0  0  0999 V2000
   36.8910   22.3840   32.9850 C   0  0  2  0  0  0  0  0  0  0  0  0
   36.4000   20.9320   32.9280 C   0  0  0  0  0  0  0  0  0  0  0  0
   35.2190   21.1100   31.9690 C   0  0  0  0  0  0  0  0  0  0  0  0
   35.4510   22.4510   31.2610 C   0  0  0  0  0  0  0  0  0  0  0  0
   36.9390   22.6480   31.5410 C   0  0  1  0  0  0  0  0  0  0  0  0
   37.4930   23.8350   31.0010 C   0  0  0  0  0  0  0  0  0  0  0  0
   38.6550   23.8900   30.1980 C   0  0  0  0  0  0  0  0  0  0  0  0
   38.8890   25.1560   29.8670 N   0  0  0  0  0  0  0  0  0  0  0  0
   37.9750   25.9820   30.3830 C   0  0  0  0  0  0  0  0  0  0  0  0
   37.8210   27.3440   30.3030 C   0  0  0  0  0  0  0  0  0  0  0  0
   36.7550   27.9520   30.9520 C   0  0  0  0  0  0  0  0  0  0  0  0
   35.8850   27.1430   31.6570 C   0  0  0  0  0  0  0  0  0  0  0  0
   36.0570   25.7680   31.7250 C   0  0  0  0  0  0  0  0  0  0  0  0
   37.1090   25.1560   31.0870 C   0  0  0  0  0  0  0  0  0  0  0  0
   38.1450   22.5150   33.7100 C   0  0  0  0  0  0  0  0  0  0  0  0
   39.1210   21.7680   33.3780 O   0  0  0  0  0  0  0  0  0  0  0  0
   38.3140   25.8070   35.3130 C   0  0  0  0  0  0  0  0  0  0  0  0
   38.2730   24.8010   34.3180 C   0  0  0  0  0  0  0  0  0  0  0  0
   38.1840   23.5040   34.7700 C   0  0  0  0  0  0  0  0  0  0  0  0
   38.1410   23.2600   36.0930 N   0  0  0  0  0  0  0  0  0  0  0  0
   38.1800   24.2160   37.0180 C   0  0  0  0  0  0  0  0  0  0  0  0
   38.2680   25.5090   36.6240 N   0  0  0  0  0  0  0  0  0  0  0  0
   38.1290   23.8630   38.4750 C   0  0  0  0  0  0  0  0  0  0  0  0
   37.8800   24.9990   39.2130 F   0  0  0  0  0  0  0  0  0  0  0  0
   39.3900   23.4130   38.8830 F   0  0  0  0  0  0  0  0  0  0  0  0
   37.2530   22.8310   38.7340 F   0  0  0  0  0  0  0  0  0  0  0  0
   36.2771   23.1069   33.5423 H   0  0  0  0  0  0  0  0  0  0  0  0
   37.1642   20.2549   32.5186 H   0  0  0  0  0  0  0  0  0  0  0  0
   36.1535   20.4797   33.8999 H   0  0  0  0  0  0  0  0  0  0  0  0
   35.1940   20.2898   31.2364 H   0  0  0  0  0  0  0  0  0  0  0  0
   34.2583   21.0969   32.5045 H   0  0  0  0  0  0  0  0  0  0  0  0
   34.8432   23.2551   31.7014 H   0  0  0  0  0  0  0  0  0  0  0  0
   35.1752   22.4653   30.1962 H   0  0  0  0  0  0  0  0  0  0  0  0
   37.6809   22.0111   31.0370 H   0  0  0  0  0  0  0  0  0  0  0  0
   39.2658   23.0263   29.8963 H   0  0  0  0  0  0  0  0  0  0  0  0
   39.6799   25.4630   29.2829 H   0  0  0  0  0  0  0  0  0  0  0  0
   38.5375   27.9494   29.7285 H   0  0  0  0  0  0  0  0  0  0  0  0
   36.6080   29.0412   30.9064 H   0  0  0  0  0  0  0  0  0  0  0  0
   35.0322   27.6017   32.1789 H   0  0  0  0  0  0  0  0  0  0  0  0
   35.3415   25.1594   32.2974 H   0  0  0  0  0  0  0  0  0  0  0  0
   38.3854   26.8608   35.0059 H   0  0  0  0  0  0  0  0  0  0  0  0
   38.3101   25.0419   33.2454 H   0  0  0  0  0  0  0  0  0  0  0  0
  1 15  1  0
  2  1  1  0
  3  2  1  0
  4  5  1  0
  4  3  1  0
  5  1  1  0
  6 14  1  0
  6  5  1  0
  7  6  2  0
  8  7  1  0
  8  9  1  0
  9 14  2  0
 10  9  1  0
 10 11  2  0
 11 12  1  0
 12 13  2  0
 14 13  1  0
 15 19  1  0
 16 15  2  0
 17 22  2  0
 18 19  2  0
 18 17  1  0
 19 20  1  0
 20 21  2  0
 21 23  1  0
 22 21  1  0
 23 26  1  0
 23 25  1  0
 23 24  1  0
  1 27  1  1
  2 28  1  0
  2 29  1  0
  3 30  1  0
  3 31  1  0
  4 32  1  0
  4 33  1  0
  5 34  1  6
  7 35  1  0
  8 36  1  0
 10 37  1  0
 11 38  1  0
 12 39  1  0
 13 40  1  0
 17 41  1  0
 18 42  1  0
M  ISO  8  27  13  28  13  29  13  30  13  31  13  32  13  33  13  34  13
M  ISO  8  35  14  36   9  37  14  38  14  39  14  40  14  41  14  42  14
M  END
>  <minimizedAffinity>  (1) 
-6.40857029

>  <minimizedRMSD>  (1) 
1.00161719

$$$$
