
     RDKit          3D

 52 56  0  0  1  0  0  0  0  0999 V2000
   37.3290   21.3850   32.3400 C   0  0  2  0  0  0  0  0  0  0  0  0
   36.3770   20.2200   32.0160 C   0  0  0  0  0  0  0  0  0  0  0  0
   35.0590   20.9960   31.9540 C   0  0  0  0  0  0  0  0  0  0  0  0
   35.4400   22.4740   31.7890 C   0  0  0  0  0  0  0  0  0  0  0  0
   36.8790   22.3230   31.3010 C   0  0  1  0  0  0  0  0  0  0  0  0
   37.5500   23.5390   31.0220 C   0  0  0  0  0  0  0  0  0  0  0  0
   38.2470   23.8250   29.8350 C   0  0  0  0  0  0  0  0  0  0  0  0
   38.7510   25.0530   29.9180 N   0  0  0  0  0  0  0  0  0  0  0  0
   38.4490   25.6390   31.0880 C   0  0  0  0  0  0  0  0  0  0  0  0
   38.7520   26.8740   31.5900 C   0  0  0  0  0  0  0  0  0  0  0  0
   38.2980   27.2230   32.8570 C   0  0  0  0  0  0  0  0  0  0  0  0
   37.5510   26.2900   33.5530 C   0  0  0  0  0  0  0  0  0  0  0  0
   37.2570   25.0450   33.0200 C   0  0  0  0  0  0  0  0  0  0  0  0
   37.7010   24.6900   31.7700 C   0  0  0  0  0  0  0  0  0  0  0  0
   38.7240   20.9820   32.2940 C   0  0  0  0  0  0  0  0  0  0  0  0
   39.0990   20.2050   31.3510 O   0  0  0  0  0  0  0  0  0  0  0  0
   41.8050   21.6870   34.1460 C   0  0  0  0  0  0  0  0  0  0  0  0
   40.9170   21.1980   33.1520 C   0  0  0  0  0  0  0  0  0  0  0  0
   39.5880   21.5010   33.3320 C   0  0  0  0  0  0  0  0  0  0  0  0
   39.2040   22.2210   34.4010 N   0  0  0  0  0  0  0  0  0  0  0  0
   40.0490   22.6760   35.3320 C   0  0  0  0  0  0  0  0  0  0  0  0
   41.3720   22.3970   35.1920 N   0  0  0  0  0  0  0  0  0  0  0  0
   39.5560   23.4520   36.4700 C   0  0  0  0  0  0  0  0  0  0  0  0
   38.0320   23.5440   36.3510 C   0  0  0  0  0  0  0  0  0  0  0  0
   37.7000   24.1480   37.7030 C   0  0  0  0  0  0  0  0  0  0  0  0
   38.7140   23.5440   38.6640 C   0  0  0  0  0  0  0  0  0  0  0  0
   39.7270   22.8120   37.8080 C   0  0  0  0  0  0  0  0  0  0  0  0
   37.2909   21.8088   33.3544 H   0  0  0  0  0  0  0  0  0  0  0  0
   36.6206   19.7437   31.0548 H   0  0  0  0  0  0  0  0  0  0  0  0
   36.3982   19.3808   32.7268 H   0  0  0  0  0  0  0  0  0  0  0  0
   34.4580   20.6590   31.0965 H   0  0  0  0  0  0  0  0  0  0  0  0
   34.4564   20.8360   32.8603 H   0  0  0  0  0  0  0  0  0  0  0  0
   34.8069   22.9782   31.0440 H   0  0  0  0  0  0  0  0  0  0  0  0
   35.3192   23.0877   32.6938 H   0  0  0  0  0  0  0  0  0  0  0  0
   37.0771   21.9342   30.2913 H   0  0  0  0  0  0  0  0  0  0  0  0
   38.3574   23.1445   28.9779 H   0  0  0  0  0  0  0  0  0  0  0  0
   39.3060   25.5006   29.1746 H   0  0  0  0  0  0  0  0  0  0  0  0
   39.3484   27.5838   30.9980 H   0  0  0  0  0  0  0  0  0  0  0  0
   38.5252   28.2078   33.2911 H   0  0  0  0  0  0  0  0  0  0  0  0
   37.1801   26.5431   34.5572 H   0  0  0  0  0  0  0  0  0  0  0  0
   36.6597   24.3313   33.6064 H   0  0  0  0  0  0  0  0  0  0  0  0
   42.8804   21.4753   34.0524 H   0  0  0  0  0  0  0  0  0  0  0  0
   41.2706   20.6125   32.2905 H   0  0  0  0  0  0  0  0  0  0  0  0
   40.1248   24.3926   36.4275 H   0  0  0  0  0  0  0  0  0  0  0  0
   37.7257   24.2011   35.5237 H   0  0  0  0  0  0  0  0  0  0  0  0
   37.5255   22.5927   36.1308 H   0  0  0  0  0  0  0  0  0  0  0  0
   37.8008   25.2430   37.6725 H   0  0  0  0  0  0  0  0  0  0  0  0
   36.6646   23.9354   38.0075 H   0  0  0  0  0  0  0  0  0  0  0  0
   39.2080   24.3371   39.2445 H   0  0  0  0  0  0  0  0  0  0  0  0
   38.2301   22.8640   39.3806 H   0  0  0  0  0  0  0  0  0  0  0  0
   39.5038   21.7358   37.7635 H   0  0  0  0  0  0  0  0  0  0  0  0
   40.7543   22.8813   38.1950 H   0  0  0  0  0  0  0  0  0  0  0  0
  2  1  1  0
  3  2  1  0
  4  3  1  0
  5  4  1  0
  5  1  1  0
  6  5  1  0
  6 14  1  0
  7  8  1  0
  7  6  2  0
  8  9  1  0
  9 10  1  0
  9 14  2  0
 10 11  2  0
 11 12  1  0
 13 12  2  0
 14 13  1  0
 15  1  1  0
 15 19  1  0
 16 15  2  0
 17 22  2  0
 18 19  2  0
 18 17  1  0
 19 20  1  0
 20 21  2  0
 21 23  1  0
 22 21  1  0
 23 27  1  0
 24 23  1  0
 24 25  1  0
 25 26  1  0
 27 26  1  0
  1 28  1  1
  2 29  1  0
  2 30  1  0
  3 31  1  0
  3 32  1  0
  4 33  1  0
  4 34  1  0
  5 35  1  6
  7 36  1  0
  8 37  1  0
 10 38  1  0
 11 39  1  0
 12 40  1  0
 13 41  1  0
 17 42  1  0
 18 43  1  0
 23 44  1  0
 24 45  1  0
 24 46  1  0
 25 47  1  0
 25 48  1  0
 26 49  1  0
 26 50  1  0
 27 51  1  0
 27 52  1  0
M  ISO  8  28  13  29  13  30  13  31  13  32  13  33  13  34  13  35  13
M  ISO  8  36  14  37   9  38  14  39  14  40  14  41  14  42  14  43  14
M  ISO  8  44  13  45  13  46  13  47  13  48  13  49  13  50  13  51  13
M  ISO  1  52  13
M  END
>  <minimizedAffinity>  (1) 
-5.9079895

>  <minimizedRMSD>  (1) 
2.49113369

$$$$
