
     RDKit          3D

 42 45  0  0  1  0  0  0  0  0999 V2000
   36.9370   22.1710   32.9170 C   0  0  2  0  0  0  0  0  0  0  0  0
   36.3510   20.7490   32.8160 C   0  0  0  0  0  0  0  0  0  0  0  0
   35.1290   21.0530   31.9440 C   0  0  0  0  0  0  0  0  0  0  0  0
   35.3930   22.4120   31.2980 C   0  0  0  0  0  0  0  0  0  0  0  0
   36.9060   22.5100   31.4910 C   0  0  1  0  0  0  0  0  0  0  0  0
   37.5000   23.6900   30.9620 C   0  0  0  0  0  0  0  0  0  0  0  0
   38.4870   23.7200   29.9650 C   0  0  0  0  0  0  0  0  0  0  0  0
   38.8060   24.9900   29.7200 N   0  0  0  0  0  0  0  0  0  0  0  0
   38.1060   25.8410   30.4830 C   0  0  0  0  0  0  0  0  0  0  0  0
   38.1070   27.2110   30.5680 C   0  0  0  0  0  0  0  0  0  0  0  0
   37.2580   27.8330   31.4670 C   0  0  0  0  0  0  0  0  0  0  0  0
   36.4390   27.0360   32.2470 C   0  0  0  0  0  0  0  0  0  0  0  0
   36.4530   25.6560   32.1470 C   0  0  0  0  0  0  0  0  0  0  0  0
   37.2940   25.0250   31.2560 C   0  0  0  0  0  0  0  0  0  0  0  0
   38.2430   22.1880   33.5550 C   0  0  0  0  0  0  0  0  0  0  0  0
   39.1210   21.3420   33.1750 O   0  0  0  0  0  0  0  0  0  0  0  0
   39.2720   25.3220   35.1320 C   0  0  0  0  0  0  0  0  0  0  0  0
   39.0550   24.3280   34.1560 C   0  0  0  0  0  0  0  0  0  0  0  0
   38.4460   23.1820   34.5890 C   0  0  0  0  0  0  0  0  0  0  0  0
   38.0910   23.0510   35.8840 N   0  0  0  0  0  0  0  0  0  0  0  0
   38.3000   24.0010   36.8020 C   0  0  0  0  0  0  0  0  0  0  0  0
   38.8990   25.1480   36.4190 N   0  0  0  0  0  0  0  0  0  0  0  0
   37.8740   23.7550   38.1770 C   0  0  0  0  0  0  0  0  0  0  0  0
   37.9280   24.7260   38.9760 O   0  0  0  0  0  0  0  0  0  0  0  0
   37.4230   22.5340   38.6310 O   0  0  0  0  0  0  0  0  0  0  0  0
   36.4079   22.8944   33.5548 H   0  0  0  0  0  0  0  0  0  0  0  0
   37.0448   20.0512   32.3244 H   0  0  0  0  0  0  0  0  0  0  0  0
   36.1357   20.2574   33.7762 H   0  0  0  0  0  0  0  0  0  0  0  0
   35.0107   20.2798   31.1706 H   0  0  0  0  0  0  0  0  0  0  0  0
   34.2046   21.0657   32.5402 H   0  0  0  0  0  0  0  0  0  0  0  0
   34.8619   23.2218   31.8197 H   0  0  0  0  0  0  0  0  0  0  0  0
   35.0526   22.5029   30.2559 H   0  0  0  0  0  0  0  0  0  0  0  0
   37.5781   21.8592   30.9124 H   0  0  0  0  0  0  0  0  0  0  0  0
   38.9244   22.8413   29.4685 H   0  0  0  0  0  0  0  0  0  0  0  0
   39.5081   25.2834   29.0258 H   0  0  0  0  0  0  0  0  0  0  0  0
   38.7747   27.8076   29.9291 H   0  0  0  0  0  0  0  0  0  0  0  0
   37.2351   28.9289   31.5586 H   0  0  0  0  0  0  0  0  0  0  0  0
   35.7576   27.5129   32.9669 H   0  0  0  0  0  0  0  0  0  0  0  0
   35.7865   25.0568   32.7848 H   0  0  0  0  0  0  0  0  0  0  0  0
   39.7578   26.2641   34.8380 H   0  0  0  0  0  0  0  0  0  0  0  0
   39.3577   24.4659   33.1075 H   0  0  0  0  0  0  0  0  0  0  0  0
   37.1475   22.4283   39.5760 H   0  0  0  0  0  0  0  0  0  0  0  0
  1 15  1  0
  2  1  1  0
  3  2  1  0
  4  5  1  0
  4  3  1  0
  5  1  1  0
  6 14  1  0
  6  5  1  0
  7  6  2  0
  8  7  1  0
  8  9  1  0
  9 10  2  0
  9 14  1  0
 10 11  1  0
 11 12  2  0
 13 12  1  0
 14 13  2  0
 15 19  1  0
 16 15  2  0
 17 22  2  0
 18 19  2  0
 18 17  1  0
 19 20  1  0
 20 21  2  0
 21 23  1  0
 22 21  1  0
 23 25  1  0
 23 24  2  0
  1 26  1  1
  2 27  1  0
  2 28  1  0
  3 29  1  0
  3 30  1  0
  4 31  1  0
  4 32  1  0
  5 33  1  6
  7 34  1  0
  8 35  1  0
 10 36  1  0
 11 37  1  0
 12 38  1  0
 13 39  1  0
 17 40  1  0
 18 41  1  0
 25 42  1  0
M  ISO  8  26  13  27  13  28  13  29  13  30  13  31  13  32  13  33  13
M  ISO  8  34  14  35   9  36  14  37  14  38  14  39  14  40  14  41  14
M  ISO  1  42   3
M  END
>  <minimizedAffinity>  (1) 
-5.91976976

>  <minimizedRMSD>  (1) 
0.808085561

$$$$
