
     RDKit          3D

 46 50  0  0  1  0  0  0  0  0999 V2000
   37.3250   21.4770   32.3450 C   0  0  2  0  0  0  0  0  0  0  0  0
   36.3850   20.3260   31.9660 C   0  0  0  0  0  0  0  0  0  0  0  0
   35.0630   21.1000   31.9160 C   0  0  0  0  0  0  0  0  0  0  0  0
   35.4370   22.5790   31.7830 C   0  0  0  0  0  0  0  0  0  0  0  0
   36.8890   22.4480   31.3280 C   0  0  1  0  0  0  0  0  0  0  0  0
   37.5620   23.6820   31.1060 C   0  0  0  0  0  0  0  0  0  0  0  0
   38.1820   24.0630   29.9080 C   0  0  0  0  0  0  0  0  0  0  0  0
   38.7060   25.2740   30.0600 N   0  0  0  0  0  0  0  0  0  0  0  0
   38.4900   25.7610   31.2930 C   0  0  0  0  0  0  0  0  0  0  0  0
   38.8480   26.9490   31.8720 C   0  0  0  0  0  0  0  0  0  0  0  0
   38.4810   27.1920   33.1920 C   0  0  0  0  0  0  0  0  0  0  0  0
   37.7700   26.2120   33.8560 C   0  0  0  0  0  0  0  0  0  0  0  0
   37.4210   25.0160   33.2430 C   0  0  0  0  0  0  0  0  0  0  0  0
   37.7770   24.7700   31.9440 C   0  0  0  0  0  0  0  0  0  0  0  0
   38.7210   21.0920   32.3200 C   0  0  0  0  0  0  0  0  0  0  0  0
   39.1400   20.3930   31.3390 O   0  0  0  0  0  0  0  0  0  0  0  0
   41.7420   21.8110   34.2620 C   0  0  0  0  0  0  0  0  0  0  0  0
   40.8900   21.3950   33.2140 C   0  0  0  0  0  0  0  0  0  0  0  0
   39.5420   21.5350   33.4260 C   0  0  0  0  0  0  0  0  0  0  0  0
   39.1020   22.0450   34.5810 N   0  0  0  0  0  0  0  0  0  0  0  0
   39.9070   22.4450   35.5840 C   0  0  0  0  0  0  0  0  0  0  0  0
   41.2500   22.3190   35.4080 N   0  0  0  0  0  0  0  0  0  0  0  0
   39.2780   22.9830   36.7890 C   0  0  0  0  0  0  0  0  0  0  0  0
   38.1170   23.7550   36.7280 C   0  0  0  0  0  0  0  0  0  0  0  0
   37.7690   24.1150   38.0310 C   0  0  0  0  0  0  0  0  0  0  0  0
   38.7580   23.5290   38.8130 C   0  0  0  0  0  0  0  0  0  0  0  0
   39.6040   22.8880   38.0410 O   0  0  0  0  0  0  0  0  0  0  0  0
   37.2660   21.8613   33.3740 H   0  0  0  0  0  0  0  0  0  0  0  0
   36.6429   19.8873   30.9908 H   0  0  0  0  0  0  0  0  0  0  0  0
   36.4003   19.4606   32.6449 H   0  0  0  0  0  0  0  0  0  0  0  0
   34.4658   20.7786   31.0500 H   0  0  0  0  0  0  0  0  0  0  0  0
   34.4591   20.9193   32.8175 H   0  0  0  0  0  0  0  0  0  0  0  0
   34.8184   23.0900   31.0306 H   0  0  0  0  0  0  0  0  0  0  0  0
   35.2902   23.1769   32.6946 H   0  0  0  0  0  0  0  0  0  0  0  0
   37.1106   22.0900   30.3118 H   0  0  0  0  0  0  0  0  0  0  0  0
   38.2272   23.4574   28.9908 H   0  0  0  0  0  0  0  0  0  0  0  0
   39.2164   25.7788   29.3214 H   0  0  0  0  0  0  0  0  0  0  0  0
   39.4166   27.6992   31.3028 H   0  0  0  0  0  0  0  0  0  0  0  0
   38.7488   28.1351   33.6909 H   0  0  0  0  0  0  0  0  0  0  0  0
   37.4715   26.3838   34.9007 H   0  0  0  0  0  0  0  0  0  0  0  0
   36.8538   24.2599   33.8057 H   0  0  0  0  0  0  0  0  0  0  0  0
   42.8311   21.7178   34.1389 H   0  0  0  0  0  0  0  0  0  0  0  0
   41.2876   20.9801   32.2760 H   0  0  0  0  0  0  0  0  0  0  0  0
   37.5717   24.0313   35.8135 H   0  0  0  0  0  0  0  0  0  0  0  0
   36.9125   24.7208   38.3618 H   0  0  0  0  0  0  0  0  0  0  0  0
   38.8216   23.5928   39.9093 H   0  0  0  0  0  0  0  0  0  0  0  0
  2  1  1  0
  3  2  1  0
  4  3  1  0
  5  4  1  0
  5  1  1  0
  6  5  1  0
  6 14  1  0
  7  8  1  0
  7  6  2  0
  8  9  1  0
  9 10  1  0
  9 14  2  0
 10 11  2  0
 11 12  1  0
 13 12  2  0
 14 13  1  0
 15  1  1  0
 15 19  1  0
 16 15  2  0
 17 22  2  0
 18 19  2  0
 18 17  1  0
 19 20  1  0
 20 21  2  0
 21 23  1  0
 22 21  1  0
 23 27  1  0
 24 23  2  0
 24 25  1  0
 25 26  2  0
 27 26  1  0
  1 28  1  1
  2 29  1  0
  2 30  1  0
  3 31  1  0
  3 32  1  0
  4 33  1  0
  4 34  1  0
  5 35  1  6
  7 36  1  0
  8 37  1  0
 10 38  1  0
 11 39  1  0
 12 40  1  0
 13 41  1  0
 17 42  1  0
 18 43  1  0
 24 44  1  0
 25 45  1  0
 26 46  1  0
M  ISO  8  28  13  29  13  30  13  31  13  32  13  33  13  34  13  35  13
M  ISO  8  36  14  37   9  38  14  39  14  40  14  41  14  42  14  43  14
M  ISO  3  44  14  45  14  46  14
M  END
>  <minimizedAffinity>  (1) 
-5.75298166

>  <minimizedRMSD>  (1) 
2.46440434

$$$$
