
     RDKit          3D

 53 57  0  0  1  0  0  0  0  0999 V2000
   37.5500   21.7450   31.8040 C   0  0  2  0  0  0  0  0  0  0  0  0
   36.6800   20.7010   31.0870 C   0  0  0  0  0  0  0  0  0  0  0  0
   35.3820   21.5010   30.9530 C   0  0  0  0  0  0  0  0  0  0  0  0
   35.7670   22.9680   31.1730 C   0  0  0  0  0  0  0  0  0  0  0  0
   37.2710   22.8840   30.9200 C   0  0  1  0  0  0  0  0  0  0  0  0
   37.9610   24.1230   31.0220 C   0  0  0  0  0  0  0  0  0  0  0  0
   38.7390   24.7050   30.0020 C   0  0  0  0  0  0  0  0  0  0  0  0
   39.2320   25.8570   30.4470 N   0  0  0  0  0  0  0  0  0  0  0  0
   38.8520   26.1180   31.7030 C   0  0  0  0  0  0  0  0  0  0  0  0
   39.1220   27.1700   32.5330 C   0  0  0  0  0  0  0  0  0  0  0  0
   38.5780   27.1750   33.8160 C   0  0  0  0  0  0  0  0  0  0  0  0
   37.7860   26.1060   34.1890 C   0  0  0  0  0  0  0  0  0  0  0  0
   37.5280   25.0490   33.3290 C   0  0  0  0  0  0  0  0  0  0  0  0
   38.0550   25.0310   32.0640 C   0  0  0  0  0  0  0  0  0  0  0  0
   38.9400   21.3370   31.9230 C   0  0  0  0  0  0  0  0  0  0  0  0
   39.4860   20.7740   30.9200 O   0  0  0  0  0  0  0  0  0  0  0  0
   41.6520   21.7400   34.3490 C   0  0  0  0  0  0  0  0  0  0  0  0
   40.9650   21.4830   33.1390 C   0  0  0  0  0  0  0  0  0  0  0  0
   39.5910   21.6090   33.1790 C   0  0  0  0  0  0  0  0  0  0  0  0
   38.9870   21.9610   34.3390 N   0  0  0  0  0  0  0  0  0  0  0  0
   39.6550   22.1970   35.4610 C   0  0  0  0  0  0  0  0  0  0  0  0
   40.9980   22.0880   35.4790 N   0  0  0  0  0  0  0  0  0  0  0  0
   39.0020   22.5660   36.6690 N   0  0  0  0  0  0  0  0  0  0  0  0
   37.5650   22.7180   36.7830 C   0  0  0  0  0  0  0  0  0  0  0  0
   37.1950   24.1160   37.2550 C   0  0  0  0  0  0  0  0  0  0  0  0
   38.3410   24.7440   37.9180 N   0  0  0  0  0  0  0  0  0  0  0  0
   38.9000   23.7350   38.8060 C   0  0  0  0  0  0  0  0  0  0  0  0
   39.7240   22.8220   37.8880 C   0  0  0  0  0  0  0  0  0  0  0  0
   37.3350   21.9433   32.8644 H   0  0  0  0  0  0  0  0  0  0  0  0
   37.0949   20.4252   30.1063 H   0  0  0  0  0  0  0  0  0  0  0  0
   36.5833   19.7363   31.6066 H   0  0  0  0  0  0  0  0  0  0  0  0
   34.9507   21.3650   29.9502 H   0  0  0  0  0  0  0  0  0  0  0  0
   34.6264   21.1688   31.6801 H   0  0  0  0  0  0  0  0  0  0  0  0
   35.2679   23.6340   30.4537 H   0  0  0  0  0  0  0  0  0  0  0  0
   35.4827   23.3814   32.1519 H   0  0  0  0  0  0  0  0  0  0  0  0
   37.6461   22.7011   29.9022 H   0  0  0  0  0  0  0  0  0  0  0  0
   38.9103   24.2774   29.0031 H   0  0  0  0  0  0  0  0  0  0  0  0
   39.8366   26.4768   29.8892 H   0  0  0  0  0  0  0  0  0  0  0  0
   39.7590   28.0000   32.1934 H   0  0  0  0  0  0  0  0  0  0  0  0
   38.7733   28.0051   34.5109 H   0  0  0  0  0  0  0  0  0  0  0  0
   37.3473   26.0929   35.1976 H   0  0  0  0  0  0  0  0  0  0  0  0
   36.8935   24.2160   33.6659 H   0  0  0  0  0  0  0  0  0  0  0  0
   42.7484   21.6541   34.3703 H   0  0  0  0  0  0  0  0  0  0  0  0
   41.4959   21.1988   32.2184 H   0  0  0  0  0  0  0  0  0  0  0  0
   37.1061   22.5382   35.7996 H   0  0  0  0  0  0  0  0  0  0  0  0
   37.1957   21.9919   37.5221 H   0  0  0  0  0  0  0  0  0  0  0  0
   36.8970   24.7253   36.3890 H   0  0  0  0  0  0  0  0  0  0  0  0
   36.3607   24.0458   37.9684 H   0  0  0  0  0  0  0  0  0  0  0  0
   39.0418   25.0339   37.2211 H   0  0  0  0  0  0  0  0  0  0  0  0
   39.5424   24.2013   39.5675 H   0  0  0  0  0  0  0  0  0  0  0  0
   38.1207   23.1828   39.3516 H   0  0  0  0  0  0  0  0  0  0  0  0
   39.9194   21.8694   38.4022 H   0  0  0  0  0  0  0  0  0  0  0  0
   40.6754   23.3182   37.6460 H   0  0  0  0  0  0  0  0  0  0  0  0
  1 15  1  0
  2  1  1  0
  3  2  1  0
  3  4  1  0
  5  6  1  0
  5  4  1  0
  5  1  1  0
  6 14  1  0
  7  8  1  0
  7  6  2  0
  8  9  1  0
  9 14  2  0
  9 10  1  0
 10 11  2  0
 11 12  1  0
 13 12  2  0
 14 13  1  0
 15 19  1  0
 16 15  2  0
 17 22  2  0
 18 19  2  0
 18 17  1  0
 19 20  1  0
 20 21  2  0
 21 22  1  0
 21 23  1  0
 23 24  1  0
 23 28  1  0
 24 25  1  0
 25 26  1  0
 26 27  1  0
 28 27  1  0
  1 29  1  1
  2 30  1  0
  2 31  1  0
  3 32  1  0
  3 33  1  0
  4 34  1  0
  4 35  1  0
  5 36  1  6
  7 37  1  0
  8 38  1  0
 10 39  1  0
 11 40  1  0
 12 41  1  0
 13 42  1  0
 17 43  1  0
 18 44  1  0
 24 45  1  0
 24 46  1  0
 25 47  1  0
 25 48  1  0
 26 49  1  0
 27 50  1  0
 27 51  1  0
 28 52  1  0
 28 53  1  0
M  ISO  8  29  13  30  13  31  13  32  13  33  13  34  13  35  13  36  13
M  ISO  8  37  14  38   9  39  14  40  14  41  14  42  14  43  14  44  14
M  ISO  8  45  13  46  13  47  13  48  13  49   5  50  13  51  13  52  13
M  ISO  1  53  13
M  END
>  <minimizedAffinity>  (1) 
-5.37470007

>  <minimizedRMSD>  (1) 
2.67770267

$$$$
