
     RDKit          3D

 42 45  0  0  1  0  0  0  0  0999 V2000
   36.8460   22.1040   33.1090 C   0  0  2  0  0  0  0  0  0  0  0  0
   36.2630   20.6840   33.0350 C   0  0  0  0  0  0  0  0  0  0  0  0
   35.1100   20.9490   32.0640 C   0  0  0  0  0  0  0  0  0  0  0  0
   35.4310   22.2840   31.3820 C   0  0  0  0  0  0  0  0  0  0  0  0
   36.9290   22.3770   31.6670 C   0  0  1  0  0  0  0  0  0  0  0  0
   37.5710   23.5220   31.1370 C   0  0  0  0  0  0  0  0  0  0  0  0
   38.5830   23.5000   30.1600 C   0  0  0  0  0  0  0  0  0  0  0  0
   38.9560   24.7500   29.8990 N   0  0  0  0  0  0  0  0  0  0  0  0
   38.2670   25.6330   30.6320 C   0  0  0  0  0  0  0  0  0  0  0  0
   38.3220   27.0070   30.6860 C   0  0  0  0  0  0  0  0  0  0  0  0
   37.4750   27.6820   31.5550 C   0  0  0  0  0  0  0  0  0  0  0  0
   36.6110   26.9310   32.3300 C   0  0  0  0  0  0  0  0  0  0  0  0
   36.5770   25.5490   32.2550 C   0  0  0  0  0  0  0  0  0  0  0  0
   37.4000   24.8730   31.4090 C   0  0  0  0  0  0  0  0  0  0  0  0
   38.1100   22.1360   33.8430 C   0  0  0  0  0  0  0  0  0  0  0  0
   39.0950   21.4720   33.3950 O   0  0  0  0  0  0  0  0  0  0  0  0
   38.6620   25.0420   36.0170 C   0  0  0  0  0  0  0  0  0  0  0  0
   38.6240   24.2160   34.8610 C   0  0  0  0  0  0  0  0  0  0  0  0
   38.1300   22.9420   35.0470 C   0  0  0  0  0  0  0  0  0  0  0  0
   37.7230   22.5560   36.2760 N   0  0  0  0  0  0  0  0  0  0  0  0
   37.7660   23.3450   37.3430 C   0  0  0  0  0  0  0  0  0  0  0  0
   38.2420   24.6060   37.2130 N   0  0  0  0  0  0  0  0  0  0  0  0
   37.2850   22.8070   38.6590 C   0  0  0  0  0  0  0  0  0  0  0  0
   36.2738   22.8607   33.6658 H   0  0  0  0  0  0  0  0  0  0  0  0
   36.9865   19.9617   32.6289 H   0  0  0  0  0  0  0  0  0  0  0  0
   35.9766   20.2393   33.9995 H   0  0  0  0  0  0  0  0  0  0  0  0
   35.0463   20.1438   31.3173 H   0  0  0  0  0  0  0  0  0  0  0  0
   34.1429   20.9857   32.5869 H   0  0  0  0  0  0  0  0  0  0  0  0
   34.8767   23.1181   31.8371 H   0  0  0  0  0  0  0  0  0  0  0  0
   35.1587   22.3366   30.3175 H   0  0  0  0  0  0  0  0  0  0  0  0
   37.6323   21.6994   31.1608 H   0  0  0  0  0  0  0  0  0  0  0  0
   38.9980   22.5968   29.6889 H   0  0  0  0  0  0  0  0  0  0  0  0
   39.6845   25.0065   29.2175 H   0  0  0  0  0  0  0  0  0  0  0  0
   39.0268   27.5626   30.0499 H   0  0  0  0  0  0  0  0  0  0  0  0
   37.4910   28.7797   31.6245 H   0  0  0  0  0  0  0  0  0  0  0  0
   35.9318   27.4457   33.0255 H   0  0  0  0  0  0  0  0  0  0  0  0
   35.8738   24.9892   32.8892 H   0  0  0  0  0  0  0  0  0  0  0  0
   39.0471   26.0685   35.9277 H   0  0  0  0  0  0  0  0  0  0  0  0
   38.9676   24.5712   33.8782 H   0  0  0  0  0  0  0  0  0  0  0  0
   37.7736   23.3535   39.4792 H   0  0  0  0  0  0  0  0  0  0  0  0
   36.1949   22.9352   38.7312 H   0  0  0  0  0  0  0  0  0  0  0  0
   37.5340   21.7380   38.7312 H   0  0  0  0  0  0  0  0  0  0  0  0
  1 15  1  0
  2  1  1  0
  3  2  1  0
  4  5  1  0
  4  3  1  0
  5  1  1  0
  6 14  1  0
  6  5  1  0
  7  6  2  0
  8  7  1  0
  8  9  1  0
  9 10  2  0
  9 14  1  0
 10 11  1  0
 11 12  2  0
 13 12  1  0
 14 13  2  0
 15 19  1  0
 16 15  2  0
 17 22  2  0
 18 19  2  0
 18 17  1  0
 19 20  1  0
 20 21  2  0
 21 23  1  0
 22 21  1  0
  1 24  1  1
  2 25  1  0
  2 26  1  0
  3 27  1  0
  3 28  1  0
  4 29  1  0
  4 30  1  0
  5 31  1  6
  7 32  1  0
  8 33  1  0
 10 34  1  0
 11 35  1  0
 12 36  1  0
 13 37  1  0
 17 38  1  0
 18 39  1  0
 23 40  1  0
 23 41  1  0
 23 42  1  0
M  ISO  8  24  13  25  13  26  13  27  13  28  13  29  13  30  13  31  13
M  ISO  8  32  14  33   9  34  14  35  14  36  14  37  14  38  14  39  14
M  ISO  3  40   8  41   8  42   8
M  END
>  <minimizedAffinity>  (1) 
-5.11677122

>  <minimizedRMSD>  (1) 
0.146156818

$$$$
