
     RDKit          3D

 34 36  0  0  0  0  0  0  0  0999 V2000
   39.8920   22.6710   37.4550 C   0  0  0  0  0  0  0  0  0  0  0  0
   39.1900   23.2860   38.4910 C   0  0  0  0  0  0  0  0  0  0  0  0
   37.8140   23.4290   38.3650 C   0  0  0  0  0  0  0  0  0  0  0  0
   37.2070   22.9620   37.2350 N   0  0  0  0  0  0  0  0  0  0  0  0
   37.9060   22.3760   36.2550 C   0  0  0  0  0  0  0  0  0  0  0  0
   39.2520   22.2310   36.3680 N   0  0  0  0  0  0  0  0  0  0  0  0
   37.2870   21.8850   35.0660 N   0  0  0  0  0  0  0  0  0  0  0  0
   37.9160   22.2080   33.9210 C   0  0  0  0  0  0  0  0  0  0  0  0
   37.3750   21.7700   32.7370 C   0  0  0  0  0  0  0  0  0  0  0  0
   36.2280   21.0340   32.8340 C   0  0  0  0  0  0  0  0  0  0  0  0
   35.5440   20.5130   31.7130 N   0  0  0  0  0  0  0  0  0  0  0  0
   35.6240   20.7280   33.9930 N   0  0  0  0  0  0  0  0  0  0  0  0
   36.1640   21.1640   35.1650 C   0  0  0  0  0  0  0  0  0  0  0  0
   35.6860   20.9380   36.3050 O   0  0  0  0  0  0  0  0  0  0  0  0
   37.9870   22.0660   31.4950 N   0  0  0  0  0  0  0  0  0  0  0  0
   38.3260   21.0810   30.4890 C   0  0  0  0  0  0  0  0  0  0  0  0
   39.6930   21.3820   29.9050 C   0  0  0  0  0  0  0  0  0  0  0  0
   39.6920   22.5960   29.2170 O   0  0  0  0  0  0  0  0  0  0  0  0
   38.5790   23.3500   29.5520 C   0  0  0  0  0  0  0  0  0  0  0  0
   38.3460   23.4010   31.0690 C   0  0  0  0  0  0  0  0  0  0  0  0
   40.9822   22.5471   37.5334 H   0  0  0  0  0  0  0  0  0  0  0  0
   39.7137   23.6495   39.3874 H   0  0  0  0  0  0  0  0  0  0  0  0
   37.2250   23.9092   39.1603 H   0  0  0  0  0  0  0  0  0  0  0  0
   38.8387   22.8068   33.9330 H   0  0  0  0  0  0  0  0  0  0  0  0
   34.6824   19.9642   31.8447 H   0  0  0  0  0  0  0  0  0  0  0  0
   35.9069   20.6819   30.7640 H   0  0  0  0  0  0  0  0  0  0  0  0
   38.3385   20.0815   30.9481 H   0  0  0  0  0  0  0  0  0  0  0  0
   37.5757   21.1142   29.6852 H   0  0  0  0  0  0  0  0  0  0  0  0
   40.4286   21.4329   30.7213 H   0  0  0  0  0  0  0  0  0  0  0  0
   39.9534   20.5810   29.1974 H   0  0  0  0  0  0  0  0  0  0  0  0
   38.7217   24.3757   29.1811 H   0  0  0  0  0  0  0  0  0  0  0  0
   37.6997   22.8757   29.0918 H   0  0  0  0  0  0  0  0  0  0  0  0
   39.2647   23.7248   31.5801 H   0  0  0  0  0  0  0  0  0  0  0  0
   37.5476   24.1162   31.3162 H   0  0  0  0  0  0  0  0  0  0  0  0
  1  2  2  0
  3  2  1  0
  4  3  2  0
  5  6  2  0
  5  4  1  0
  6  1  1  0
  7 13  1  0
  7  5  1  0
  8  7  1  0
  9 10  1  0
  9  8  2  0
 10 12  2  0
 11 10  1  0
 12 13  1  0
 13 14  2  0
 15  9  1  0
 16 15  1  0
 17 16  1  0
 18 19  1  0
 18 17  1  0
 19 20  1  0
 20 15  1  0
  1 21  1  0
  2 22  1  0
  3 23  1  0
  8 24  1  0
 11 25  1  0
 11 26  1  0
 16 27  1  0
 16 28  1  0
 17 29  1  0
 17 30  1  0
 19 31  1  0
 19 32  1  0
 20 33  1  0
 20 34  1  0
M  ISO  8  21  14  22  14  23  14  24  14  27  13  28  13  29  13  30  13
M  ISO  4  31  13  32  13  33  13  34  13
M  END
>  <minimizedAffinity>  (1) 
-4.86471653

>  <minimizedRMSD>  (1) 
0.883473635

$$$$
