
     RDKit          3D

 35 38  0  0  1  0  0  0  0  0999 V2000
   39.7960   22.5190   35.8040 C   0  0  0  0  0  0  0  0  0  0  0  0
   39.5990   22.2810   37.1700 C   0  0  0  0  0  0  0  0  0  0  0  0
   38.9640   23.2710   37.9140 C   0  0  0  0  0  0  0  0  0  0  0  0
   38.5600   24.4230   37.2920 N   0  0  0  0  0  0  0  0  0  0  0  0
   38.7720   24.6090   35.9620 C   0  0  0  0  0  0  0  0  0  0  0  0
   39.3870   23.6510   35.2450 N   0  0  0  0  0  0  0  0  0  0  0  0
   38.3230   25.8300   35.3940 N   0  0  0  0  0  0  0  0  0  0  0  0
   38.8110   27.1180   35.7950 C   0  0  0  0  0  0  0  0  0  0  0  0
   37.7050   28.0620   35.3850 C   0  0  0  0  0  0  0  0  0  0  0  0
   36.6710   27.2720   34.6730 C   0  0  0  0  0  0  0  0  0  0  0  0
   37.3360   25.9680   34.3540 C   0  0  1  0  0  0  0  0  0  0  0  0
   37.8430   25.8840   33.0220 N   0  0  0  0  0  0  0  0  0  0  0  0
   38.3870   26.8930   32.3280 C   0  0  0  0  0  0  0  0  0  0  0  0
   38.7670   26.4770   31.0940 N   0  0  0  0  0  0  0  0  0  0  0  0
   38.4730   25.1720   30.9620 C   0  0  0  0  0  0  0  0  0  0  0  0
   38.6240   24.2410   29.9590 C   0  0  0  0  0  0  0  0  0  0  0  0
   38.2050   22.9850   30.1730 N   0  0  0  0  0  0  0  0  0  0  0  0
   37.6420   22.6260   31.3490 C   0  0  0  0  0  0  0  0  0  0  0  0
   37.5010   23.5530   32.3210 N   0  0  0  0  0  0  0  0  0  0  0  0
   37.8960   24.8320   32.1840 C   0  0  0  0  0  0  0  0  0  0  0  0
   39.2180   24.6250   28.7230 N   0  0  0  0  0  0  0  0  0  0  0  0
   40.2960   21.7581   35.1867 H   0  0  0  0  0  0  0  0  0  0  0  0
   39.9345   21.3441   37.6386 H   0  0  0  0  0  0  0  0  0  0  0  0
   38.7882   23.1300   38.9907 H   0  0  0  0  0  0  0  0  0  0  0  0
   38.9753   27.1545   36.8821 H   0  0  0  0  0  0  0  0  0  0  0  0
   39.7787   27.3695   35.3365 H   0  0  0  0  0  0  0  0  0  0  0  0
   37.2666   28.5336   36.2768 H   0  0  0  0  0  0  0  0  0  0  0  0
   38.0999   28.8534   34.7310 H   0  0  0  0  0  0  0  0  0  0  0  0
   35.7940   27.1120   35.3174 H   0  0  0  0  0  0  0  0  0  0  0  0
   36.3071   27.7837   33.7699 H   0  0  0  0  0  0  0  0  0  0  0  0
   36.6318   25.1229   34.3517 H   0  0  0  0  0  0  0  0  0  0  0  0
   38.5088   27.9184   32.7071 H   0  0  0  0  0  0  0  0  0  0  0  0
   37.3032   21.5922   31.5118 H   0  0  0  0  0  0  0  0  0  0  0  0
   39.5321   25.5958   28.5822 H   0  0  0  0  0  0  0  0  0  0  0  0
   39.3336   23.9320   27.9699 H   0  0  0  0  0  0  0  0  0  0  0  0
  1  2  2  0
  2  3  1  0
  4  3  2  0
  5  4  1  0
  6  1  1  0
  6  5  2  0
  7  8  1  0
  7  5  1  0
  9  8  1  0
 10  9  1  0
 11 10  1  0
 11  7  1  0
 12 11  1  0
 13 12  1  0
 14 13  2  0
 15 14  1  0
 15 20  2  0
 16 17  2  0
 16 15  1  0
 17 18  1  0
 18 19  2  0
 20 19  1  0
 20 12  1  0
 21 16  1  0
  1 22  1  0
  2 23  1  0
  3 24  1  0
  8 25  1  0
  8 26  1  0
  9 27  1  0
  9 28  1  0
 10 29  1  0
 10 30  1  0
 11 31  1  1
 13 32  1  0
 18 33  1  0
 21 34  1  0
 21 35  1  0
M  ISO  8  22  14  23  14  24  14  25  13  26  13  27  13  28  13  29  13
M  ISO  4  30  13  31  13  32  14  33  14
M  END
>  <minimizedAffinity>  (1) 
-4.99769831

>  <minimizedRMSD>  (1) 
2.46701479

$$$$
