
     RDKit          3D

 32 34  0  0  1  0  0  0  0  0999 V2000
   39.9100   22.0600   33.7100 C   0  0  0  0  0  0  0  0  0  0  0  0
   39.6690   22.2240   35.0780 C   0  0  0  0  0  0  0  0  0  0  0  0
   38.5860   23.0070   35.4320 C   0  0  0  0  0  0  0  0  0  0  0  0
   37.7940   23.5900   34.4760 N   0  0  0  0  0  0  0  0  0  0  0  0
   38.0810   23.3920   33.1600 C   0  0  0  0  0  0  0  0  0  0  0  0
   39.1330   22.6320   32.7990 N   0  0  0  0  0  0  0  0  0  0  0  0
   37.2280   24.0150   32.2040 N   0  0  0  0  0  0  0  0  0  0  0  0
   37.0250   25.4240   32.1320 C   0  0  0  0  0  0  0  0  0  0  0  0
   35.6980   25.5630   31.4140 C   0  0  0  0  0  0  0  0  0  0  0  0
   35.2010   24.1750   31.0950 C   0  0  0  0  0  0  0  0  0  0  0  0
   36.4490   23.3630   31.1820 C   0  0  2  0  0  0  0  0  0  0  0  0
   36.0980   21.9680   31.4470 C   0  0  0  0  0  0  0  0  0  0  0  0
   35.1580   21.5720   32.3770 C   0  0  0  0  0  0  0  0  0  0  0  0
   34.8640   20.2370   32.5860 C   0  0  0  0  0  0  0  0  0  0  0  0
   35.5030   19.2370   31.8650 C   0  0  0  0  0  0  0  0  0  0  0  0
   36.4530   19.5780   30.9200 C   0  0  0  0  0  0  0  0  0  0  0  0
   36.7120   20.9230   30.7470 C   0  0  0  0  0  0  0  0  0  0  0  0
   40.7608   21.4444   33.3827 H   0  0  0  0  0  0  0  0  0  0  0  0
   40.3110   21.7522   35.8365 H   0  0  0  0  0  0  0  0  0  0  0  0
   38.3561   23.1647   36.4961 H   0  0  0  0  0  0  0  0  0  0  0  0
   36.9736   25.8642   33.1387 H   0  0  0  0  0  0  0  0  0  0  0  0
   37.8443   25.9455   31.6154 H   0  0  0  0  0  0  0  0  0  0  0  0
   34.9744   26.0804   32.0611 H   0  0  0  0  0  0  0  0  0  0  0  0
   35.8189   26.1501   30.4917 H   0  0  0  0  0  0  0  0  0  0  0  0
   34.7658   24.1298   30.0857 H   0  0  0  0  0  0  0  0  0  0  0  0
   34.4019   23.8280   31.7666 H   0  0  0  0  0  0  0  0  0  0  0  0
   37.0442   23.3151   30.2582 H   0  0  0  0  0  0  0  0  0  0  0  0
   34.6302   22.3366   32.9659 H   0  0  0  0  0  0  0  0  0  0  0  0
   34.1095   19.9620   33.3378 H   0  0  0  0  0  0  0  0  0  0  0  0
   35.2550   18.1804   32.0445 H   0  0  0  0  0  0  0  0  0  0  0  0
   36.9792   18.8115   30.3320 H   0  0  0  0  0  0  0  0  0  0  0  0
   37.4658   21.1970   29.9942 H   0  0  0  0  0  0  0  0  0  0  0  0
  1  2  2  0
  2  3  1  0
  4  3  2  0
  5  4  1  0
  6  5  2  0
  6  1  1  0
  7  5  1  0
  8  7  1  0
  9  8  1  0
 10 11  1  0
 10  9  1  0
 11 12  1  0
 11  7  1  0
 12 13  2  0
 13 14  1  0
 15 14  2  0
 16 15  1  0
 17 16  2  0
 17 12  1  0
  1 18  1  0
  2 19  1  0
  3 20  1  0
  8 21  1  0
  8 22  1  0
  9 23  1  0
  9 24  1  0
 10 25  1  0
 10 26  1  0
 11 27  1  6
 13 28  1  0
 14 29  1  0
 15 30  1  0
 16 31  1  0
 17 32  1  0
M  ISO  8  18  14  19  14  20  14  21  13  22  13  23  13  24  13  25  13
M  ISO  7  26  13  27  13  28  14  29  14  30  14  31  14  32  14
M  END
>  <minimizedAffinity>  (1) 
-4.62072277

>  <minimizedRMSD>  (1) 
3.36509562

$$$$
