
     RDKit          3D

 22 23  0  0  0  0  0  0  0  0999 V2000
   39.8810   22.6370   37.2130 C   0  0  0  0  0  0  0  0  0  0  0  0
   39.2310   23.3360   38.2520 C   0  0  0  0  0  0  0  0  0  0  0  0
   37.8550   23.4850   38.2050 C   0  0  0  0  0  0  0  0  0  0  0  0
   37.2010   22.9370   37.1390 N   0  0  0  0  0  0  0  0  0  0  0  0
   37.8390   22.2760   36.1620 C   0  0  0  0  0  0  0  0  0  0  0  0
   39.1810   22.1260   36.2000 N   0  0  0  0  0  0  0  0  0  0  0  0
   37.1330   21.7110   35.0570 N   0  0  0  0  0  0  0  0  0  0  0  0
   37.6800   21.9470   33.8630 C   0  0  0  0  0  0  0  0  0  0  0  0
   37.0490   21.4300   32.7440 C   0  0  0  0  0  0  0  0  0  0  0  0
   35.9030   20.7140   32.9780 C   0  0  0  0  0  0  0  0  0  0  0  0
   35.1520   20.1250   31.9250 N   0  0  0  0  0  0  0  0  0  0  0  0
   35.3780   20.4930   34.1880 N   0  0  0  0  0  0  0  0  0  0  0  0
   36.0030   21.0050   35.2810 C   0  0  0  0  0  0  0  0  0  0  0  0
   35.6090   20.8650   36.4650 O   0  0  0  0  0  0  0  0  0  0  0  0
   37.5250   21.6120   31.4590 O   0  0  0  0  0  0  0  0  0  0  0  0
   40.9736   22.5127   37.2390 H   0  0  0  0  0  0  0  0  0  0  0  0
   39.8092   23.7568   39.0878 H   0  0  0  0  0  0  0  0  0  0  0  0
   37.3107   24.0233   38.9949 H   0  0  0  0  0  0  0  0  0  0  0  0
   38.6050   22.5350   33.7703 H   0  0  0  0  0  0  0  0  0  0  0  0
   34.2956   19.5937   32.1379 H   0  0  0  0  0  0  0  0  0  0  0  0
   35.4641   20.2294   30.9490 H   0  0  0  0  0  0  0  0  0  0  0  0
   38.3539   22.1316   31.3071 H   0  0  0  0  0  0  0  0  0  0  0  0
  1  2  2  0
  3  2  1  0
  4  3  2  0
  5  6  2  0
  5  4  1  0
  6  1  1  0
  7 13  1  0
  7  5  1  0
  8  7  1  0
  9 10  1  0
  9  8  2  0
 10 12  2  0
 11 10  1  0
 12 13  1  0
 13 14  2  0
 15  9  1  0
  1 16  1  0
  2 17  1  0
  3 18  1  0
  8 19  1  0
 11 20  1  0
 11 21  1  0
 15 22  1  0
M  ISO  5  16  14  17  14  18  14  19  14  22   3
M  END
>  <minimizedAffinity>  (1) 
-4.8300128

>  <minimizedRMSD>  (1) 
0.0134324254

$$$$
