
     RDKit          3D

 34 35  0  0  1  0  0  0  0  0999 V2000
   40.6150   23.1630   36.2440 C   0  0  0  0  0  0  0  0  0  0  0  0
   39.8710   22.5900   37.2810 C   0  0  0  0  0  0  0  0  0  0  0  0
   38.6460   23.1820   37.6090 C   0  0  0  0  0  0  0  0  0  0  0  0
   38.2390   24.2900   36.8980 N   0  0  0  0  0  0  0  0  0  0  0  0
   39.0100   24.8010   35.8980 C   0  0  0  0  0  0  0  0  0  0  0  0
   40.1790   24.2290   35.5900 N   0  0  0  0  0  0  0  0  0  0  0  0
   38.4820   25.9470   35.2260 N   0  0  0  0  0  0  0  0  0  0  0  0
   38.2370   27.1880   35.8870 C   0  0  0  0  0  0  0  0  0  0  0  0
   37.2320   27.8670   35.0050 C   0  0  0  0  0  0  0  0  0  0  0  0
   37.0280   27.0060   33.7860 C   0  0  0  0  0  0  0  0  0  0  0  0
   38.1320   26.0030   33.8430 C   0  0  1  0  0  0  0  0  0  0  0  0
   39.1520   26.3560   32.8510 C   0  0  0  0  0  0  0  0  0  0  0  0
   39.6980   25.2150   32.0170 C   0  0  0  0  0  0  0  0  0  0  0  0
   40.3080   27.1440   33.3790 C   0  0  0  0  0  0  0  0  0  0  0  0
   38.4510   27.2440   31.8100 C   0  0  0  0  0  0  0  0  0  0  0  0
   41.5822   22.7189   35.9660 H   0  0  0  0  0  0  0  0  0  0  0  0
   40.2366   21.7038   37.8205 H   0  0  0  0  0  0  0  0  0  0  0  0
   38.0218   22.7719   38.4166 H   0  0  0  0  0  0  0  0  0  0  0  0
   37.8267   27.0220   36.8940 H   0  0  0  0  0  0  0  0  0  0  0  0
   39.1510   27.7833   36.0294 H   0  0  0  0  0  0  0  0  0  0  0  0
   36.2801   27.9832   35.5439 H   0  0  0  0  0  0  0  0  0  0  0  0
   37.5911   28.8649   34.7131 H   0  0  0  0  0  0  0  0  0  0  0  0
   37.0984   27.6090   32.8687 H   0  0  0  0  0  0  0  0  0  0  0  0
   36.0352   26.5325   33.7717 H   0  0  0  0  0  0  0  0  0  0  0  0
   37.8943   24.9716   33.5433 H   0  0  0  0  0  0  0  0  0  0  0  0
   40.0766   24.4239   32.6810 H   0  0  0  0  0  0  0  0  0  0  0  0
   38.8968   24.8087   31.3822 H   0  0  0  0  0  0  0  0  0  0  0  0
   40.5171   25.5840   31.3822 H   0  0  0  0  0  0  0  0  0  0  0  0
   40.2889   27.1310   34.4788 H   0  0  0  0  0  0  0  0  0  0  0  0
   41.2486   26.6982   33.0233 H   0  0  0  0  0  0  0  0  0  0  0  0
   40.2369   28.1825   33.0233 H   0  0  0  0  0  0  0  0  0  0  0  0
   37.8487   28.0070   32.3249 H   0  0  0  0  0  0  0  0  0  0  0  0
   39.2063   27.7367   31.1801 H   0  0  0  0  0  0  0  0  0  0  0  0
   37.7964   26.6237   31.1801 H   0  0  0  0  0  0  0  0  0  0  0  0
  1  2  2  0
  2  3  1  0
  4  3  2  0
  5  4  1  0
  6  5  2  0
  6  1  1  0
  7  8  1  0
  7  5  1  0
  9  8  1  0
 10 11  1  0
 10  9  1  0
 11  7  1  0
 12 14  1  0
 12 11  1  0
 13 12  1  0
 15 12  1  0
  1 16  1  0
  2 17  1  0
  3 18  1  0
  8 19  1  0
  8 20  1  0
  9 21  1  0
  9 22  1  0
 10 23  1  0
 10 24  1  0
 11 25  1  6
 13 26  1  0
 13 27  1  0
 13 28  1  0
 14 29  1  0
 14 30  1  0
 14 31  1  0
 15 32  1  0
 15 33  1  0
 15 34  1  0
M  ISO  8  16  14  17  14  18  14  19  13  20  13  21  13  22  13  23  13
M  ISO  8  24  13  25  13  26   8  27   8  28   8  29   8  30   8  31   8
M  ISO  3  32   8  33   8  34   8
M  END
>  <minimizedAffinity>  (1) 
-4.21182728

>  <minimizedRMSD>  (1) 
1.60118687

$$$$
