
     RDKit          3D

 32 34  0  0  1  0  0  0  0  0999 V2000
   38.3160   22.3580   35.8300 C   0  0  0  0  0  0  0  0  0  0  0  0
   37.5490   22.9220   36.8830 C   0  0  0  0  0  0  0  0  0  0  0  0
   37.5350   24.3160   37.0290 C   0  0  0  0  0  0  0  0  0  0  0  0
   38.2650   25.0520   36.1430 N   0  0  0  0  0  0  0  0  0  0  0  0
   38.9810   24.4770   35.1550 C   0  0  0  0  0  0  0  0  0  0  0  0
   39.0000   23.1430   35.0090 N   0  0  0  0  0  0  0  0  0  0  0  0
   39.7140   25.3400   34.2750 N   0  0  0  0  0  0  0  0  0  0  0  0
   40.7300   26.2450   34.7090 C   0  0  0  0  0  0  0  0  0  0  0  0
   40.8000   27.2610   33.5940 C   0  0  0  0  0  0  0  0  0  0  0  0
   39.7670   26.8940   32.5640 C   0  0  0  0  0  0  0  0  0  0  0  0
   39.5540   25.4370   32.8380 C   0  0  2  0  0  0  0  0  0  0  0  0
   38.3350   24.8550   32.2990 C   0  0  0  0  0  0  0  0  0  0  0  0
   38.3890   23.6200   31.6430 C   0  0  0  0  0  0  0  0  0  0  0  0
   37.3240   22.9560   31.0870 C   0  0  0  0  0  0  0  0  0  0  0  0
   36.1020   23.5790   31.1980 C   0  0  0  0  0  0  0  0  0  0  0  0
   36.0010   24.8090   31.8420 C   0  0  0  0  0  0  0  0  0  0  0  0
   37.1050   25.4510   32.3920 C   0  0  0  0  0  0  0  0  0  0  0  0
   38.3430   21.2667   35.6948 H   0  0  0  0  0  0  0  0  0  0  0  0
   36.9782   22.2792   37.5693 H   0  0  0  0  0  0  0  0  0  0  0  0
   36.9558   24.7991   37.8297 H   0  0  0  0  0  0  0  0  0  0  0  0
   40.4502   26.7233   35.6592 H   0  0  0  0  0  0  0  0  0  0  0  0
   41.6935   25.7483   34.8960 H   0  0  0  0  0  0  0  0  0  0  0  0
   40.5909   28.2654   33.9908 H   0  0  0  0  0  0  0  0  0  0  0  0
   41.8036   27.2650   33.1436 H   0  0  0  0  0  0  0  0  0  0  0  0
   40.1448   27.0573   31.5439 H   0  0  0  0  0  0  0  0  0  0  0  0
   38.8477   27.4948   32.6258 H   0  0  0  0  0  0  0  0  0  0  0  0
   40.2784   24.8114   32.2960 H   0  0  0  0  0  0  0  0  0  0  0  0
   39.3745   23.1375   31.5659 H   0  0  0  0  0  0  0  0  0  0  0  0
   37.4403   21.9850   30.5834 H   0  0  0  0  0  0  0  0  0  0  0  0
   35.2034   23.1042   30.7771 H   0  0  0  0  0  0  0  0  0  0  0  0
   35.0144   25.2894   31.9184 H   0  0  0  0  0  0  0  0  0  0  0  0
   36.9924   26.4231   32.8944 H   0  0  0  0  0  0  0  0  0  0  0  0
  1  2  2  0
  2  3  1  0
  4  3  2  0
  5  4  1  0
  6  5  2  0
  6  1  1  0
  7  8  1  0
  7  5  1  0
  9  8  1  0
 10 11  1  0
 10  9  1  0
 11  7  1  0
 12 17  1  0
 12 11  1  0
 13 12  2  0
 14 15  2  0
 14 13  1  0
 15 16  1  0
 16 17  2  0
  1 18  1  0
  2 19  1  0
  3 20  1  0
  8 21  1  0
  8 22  1  0
  9 23  1  0
  9 24  1  0
 10 25  1  0
 10 26  1  0
 11 27  1  6
 13 28  1  0
 14 29  1  0
 15 30  1  0
 16 31  1  0
 17 32  1  0
M  ISO  8  18  14  19  14  20  14  21  13  22  13  23  13  24  13  25  13
M  ISO  7  26  13  27  13  28  14  29  14  30  14  31  14  32  14
M  END
>  <minimizedAffinity>  (1) 
-4.33422899

>  <minimizedRMSD>  (1) 
2.41428733

$$$$
