
     RDKit          3D

 30 32  0  0  1  0  0  0  0  0999 V2000
   39.8270   22.8640   37.4820 C   0  0  0  0  0  0  0  0  0  0  0  0
   38.6420   23.1400   38.2150 C   0  0  0  0  0  0  0  0  0  0  0  0
   37.7910   24.1240   37.7440 C   0  0  0  0  0  0  0  0  0  0  0  0
   38.1230   24.7870   36.6000 N   0  0  0  0  0  0  0  0  0  0  0  0
   39.2510   24.5030   35.9300 C   0  0  0  0  0  0  0  0  0  0  0  0
   40.1140   23.5380   36.3640 N   0  0  0  0  0  0  0  0  0  0  0  0
   39.5360   25.2450   34.7380 N   0  0  0  0  0  0  0  0  0  0  0  0
   39.7020   26.6820   34.7560 C   0  0  0  0  0  0  0  0  0  0  0  0
   39.4800   27.0790   33.3310 C   0  0  0  0  0  0  0  0  0  0  0  0
   39.1380   25.8450   32.5520 C   0  0  0  0  0  0  0  0  0  0  0  0
   39.6970   24.7390   33.3990 C   0  0  2  0  0  0  0  0  0  0  0  0
   38.8660   23.5270   33.1550 C   0  0  0  0  0  0  0  0  0  0  0  0
   39.4620   22.2680   33.0930 C   0  0  0  0  0  0  0  0  0  0  0  0
   38.7230   21.1230   32.8700 C   0  0  0  0  0  0  0  0  0  0  0  0
   37.4070   21.1830   32.7050 N   0  0  0  0  0  0  0  0  0  0  0  0
   36.8330   22.4110   32.7660 C   0  0  0  0  0  0  0  0  0  0  0  0
   37.5160   23.5520   32.9820 N   0  0  0  0  0  0  0  0  0  0  0  0
   40.5173   22.0856   37.8390 H   0  0  0  0  0  0  0  0  0  0  0  0
   38.4066   22.5848   39.1350 H   0  0  0  0  0  0  0  0  0  0  0  0
   36.8633   24.3670   38.2829 H   0  0  0  0  0  0  0  0  0  0  0  0
   38.9597   27.1550   35.4158 H   0  0  0  0  0  0  0  0  0  0  0  0
   40.6849   26.9942   35.1388 H   0  0  0  0  0  0  0  0  0  0  0  0
   38.6518   27.8003   33.2695 H   0  0  0  0  0  0  0  0  0  0  0  0
   40.3856   27.5499   32.9210 H   0  0  0  0  0  0  0  0  0  0  0  0
   38.0491   25.7410   32.4358 H   0  0  0  0  0  0  0  0  0  0  0  0
   39.5447   25.8534   31.5300 H   0  0  0  0  0  0  0  0  0  0  0  0
   40.7426   24.4636   33.1968 H   0  0  0  0  0  0  0  0  0  0  0  0
   40.5508   22.1846   33.2254 H   0  0  0  0  0  0  0  0  0  0  0  0
   39.2313   20.1484   32.8285 H   0  0  0  0  0  0  0  0  0  0  0  0
   35.7435   22.4790   32.6308 H   0  0  0  0  0  0  0  0  0  0  0  0
  1  2  2  0
  3  2  1  0
  4  3  2  0
  5  6  2  0
  5  4  1  0
  6  1  1  0
  7  8  1  0
  7  5  1  0
  9  8  1  0
 10  9  1  0
 10 11  1  0
 11  7  1  0
 12 11  1  0
 13 12  2  0
 14 13  1  0
 15 16  1  0
 15 14  2  0
 16 17  2  0
 17 12  1  0
  1 18  1  0
  2 19  1  0
  3 20  1  0
  8 21  1  0
  8 22  1  0
  9 23  1  0
  9 24  1  0
 10 25  1  0
 10 26  1  0
 11 27  1  6
 13 28  1  0
 14 29  1  0
 16 30  1  0
M  ISO  8  18  14  19  14  20  14  21  13  22  13  23  13  24  13  25  13
M  ISO  5  26  13  27  13  28  14  29  14  30  14
M  END
>  <minimizedAffinity>  (1) 
-4.10531425

>  <minimizedRMSD>  (1) 
1.70030558

$$$$
