
     RDKit          3D

 29 31  0  0  1  0  0  0  0  0999 V2000
   39.8020   22.8540   37.4750 C   0  0  0  0  0  0  0  0  0  0  0  0
   38.7070   23.1770   38.2800 C   0  0  0  0  0  0  0  0  0  0  0  0
   37.8970   24.2420   37.8770 C   0  0  0  0  0  0  0  0  0  0  0  0
   38.2080   24.9160   36.7230 N   0  0  0  0  0  0  0  0  0  0  0  0
   39.2760   24.5650   35.9810 C   0  0  0  0  0  0  0  0  0  0  0  0
   40.0600   23.5370   36.3680 N   0  0  0  0  0  0  0  0  0  0  0  0
   39.5410   25.3100   34.7910 N   0  0  0  0  0  0  0  0  0  0  0  0
   39.7810   26.7150   34.7710 C   0  0  0  0  0  0  0  0  0  0  0  0
   39.4630   27.1080   33.3550 C   0  0  0  0  0  0  0  0  0  0  0  0
   38.9960   25.8700   32.6250 C   0  0  0  0  0  0  0  0  0  0  0  0
   39.6040   24.7630   33.4410 C   0  0  2  0  0  0  0  0  0  0  0  0
   38.9250   23.4700   33.3240 C   0  0  0  0  0  0  0  0  0  0  0  0
   37.5460   23.3140   33.1920 C   0  0  0  0  0  0  0  0  0  0  0  0
   37.3250   21.9370   33.1140 C   0  0  0  0  0  0  0  0  0  0  0  0
   38.5320   21.3280   33.1980 N   0  0  0  0  0  0  0  0  0  0  0  0
   39.4820   22.2670   33.3230 N   0  0  0  0  0  0  0  0  0  0  0  0
   40.4598   22.0209   37.7636 H   0  0  0  0  0  0  0  0  0  0  0  0
   38.4900   22.6127   39.1990 H   0  0  0  0  0  0  0  0  0  0  0  0
   37.0226   24.5358   38.4763 H   0  0  0  0  0  0  0  0  0  0  0  0
   39.1217   27.2362   35.4807 H   0  0  0  0  0  0  0  0  0  0  0  0
   40.8073   26.9775   35.0671 H   0  0  0  0  0  0  0  0  0  0  0  0
   38.6685   27.8688   33.3474 H   0  0  0  0  0  0  0  0  0  0  0  0
   40.3526   27.5301   32.8647 H   0  0  0  0  0  0  0  0  0  0  0  0
   37.8981   25.8025   32.6187 H   0  0  0  0  0  0  0  0  0  0  0  0
   39.2917   25.8475   31.5657 H   0  0  0  0  0  0  0  0  0  0  0  0
   40.6192   24.5080   33.1029 H   0  0  0  0  0  0  0  0  0  0  0  0
   36.7884   24.1107   33.1566 H   0  0  0  0  0  0  0  0  0  0  0  0
   36.3504   21.4389   33.0045 H   0  0  0  0  0  0  0  0  0  0  0  0
   38.6938   20.3112   33.1704 H   0  0  0  0  0  0  0  0  0  0  0  0
  1  2  2  0
  3  2  1  0
  4  3  2  0
  5  6  2  0
  5  4  1  0
  6  1  1  0
  7  5  1  0
  8  7  1  0
  9  8  1  0
 10  9  1  0
 10 11  1  0
 11  7  1  0
 12 11  1  0
 13 12  1  0
 14 13  2  0
 14 15  1  0
 15 16  1  0
 16 12  2  0
  1 17  1  0
  2 18  1  0
  3 19  1  0
  8 20  1  0
  8 21  1  0
  9 22  1  0
  9 23  1  0
 10 24  1  0
 10 25  1  0
 11 26  1  6
 13 27  1  0
 14 28  1  0
 15 29  1  0
M  ISO  8  17  14  18  14  19  14  20  13  21  13  22  13  23  13  24  13
M  ISO  5  25  13  26  13  27  14  28  14  29   9
M  END
>  <minimizedAffinity>  (1) 
-3.97956944

>  <minimizedRMSD>  (1) 
1.40688014

$$$$
