
     RDKit          3D

 23 24  0  0  1  0  0  0  0  0999 V2000
   39.6770   22.9170   37.2410 C   0  0  0  0  0  0  0  0  0  0  0  0
   38.9500   23.1560   38.4130 C   0  0  0  0  0  0  0  0  0  0  0  0
   38.0150   24.1870   38.3960 C   0  0  0  0  0  0  0  0  0  0  0  0
   37.8500   24.9140   37.2490 N   0  0  0  0  0  0  0  0  0  0  0  0
   38.5820   24.6420   36.1390 C   0  0  0  0  0  0  0  0  0  0  0  0
   39.4930   23.6490   36.1310 N   0  0  0  0  0  0  0  0  0  0  0  0
   38.3460   25.4490   34.9890 N   0  0  0  0  0  0  0  0  0  0  0  0
   38.5510   26.8760   34.9660 C   0  0  0  0  0  0  0  0  0  0  0  0
   37.6960   27.3310   33.8240 C   0  0  0  0  0  0  0  0  0  0  0  0
   37.0680   26.1380   33.1920 C   0  0  0  0  0  0  0  0  0  0  0  0
   37.8730   24.9740   33.6940 C   0  0  1  0  0  0  0  0  0  0  0  0
   39.1810   24.4410   32.5970 S   0  0  0  0  0  0  0  0  0  0  0  0
   40.4203   22.1062   37.2293 H   0  0  0  0  0  0  0  0  0  0  0  0
   39.1120   22.5498   39.3165 H   0  0  0  0  0  0  0  0  0  0  0  0
   37.4177   24.4138   39.2915 H   0  0  0  0  0  0  0  0  0  0  0  0
   38.2240   27.3359   35.9102 H   0  0  0  0  0  0  0  0  0  0  0  0
   39.6083   27.1562   34.8492 H   0  0  0  0  0  0  0  0  0  0  0  0
   36.9129   28.0085   34.1951 H   0  0  0  0  0  0  0  0  0  0  0  0
   38.3112   27.8658   33.0854 H   0  0  0  0  0  0  0  0  0  0  0  0
   37.1244   26.2048   32.0955 H   0  0  0  0  0  0  0  0  0  0  0  0
   36.0011   26.0462   33.4437 H   0  0  0  0  0  0  0  0  0  0  0  0
   37.2764   24.0524   33.7624 H   0  0  0  0  0  0  0  0  0  0  0  0
   40.2487   24.0059   33.3370 H   0  0  0  0  0  0  0  0  0  0  0  0
  1  2  2  0
  3  2  1  0
  4  3  2  0
  5  4  1  0
  6  5  2  0
  6  1  1  0
  7  5  1  0
  8  7  1  0
  9  8  1  0
 10 11  1  0
 10  9  1  0
 11  7  1  0
 12 11  1  0
  1 13  1  0
  2 14  1  0
  3 15  1  0
  8 16  1  0
  8 17  1  0
  9 18  1  0
  9 19  1  0
 10 20  1  0
 10 21  1  0
 11 22  1  1
 12 23  1  0
M  ISO  8  13  14  14  14  15  14  16  13  17  13  18  13  19  13  20  13
M  ISO  3  21  13  22  13  23  11
M  END
>  <minimizedAffinity>  (1) 
-3.73396564

>  <minimizedRMSD>  (1) 
0.0704626888

$$$$
