
     RDKit          3D

 24 25  0  0  1  0  0  0  0  0999 V2000
   39.6910   22.9240   37.3030 C   0  0  0  0  0  0  0  0  0  0  0  0
   38.9440   23.1650   38.4610 C   0  0  0  0  0  0  0  0  0  0  0  0
   37.9990   24.1950   38.4260 C   0  0  0  0  0  0  0  0  0  0  0  0
   37.8650   24.8970   37.2740 N   0  0  0  0  0  0  0  0  0  0  0  0
   38.5990   24.6450   36.1710 C   0  0  0  0  0  0  0  0  0  0  0  0
   39.5120   23.6540   36.1950 N   0  0  0  0  0  0  0  0  0  0  0  0
   38.3830   25.4370   35.0150 N   0  0  0  0  0  0  0  0  0  0  0  0
   38.5940   26.8530   34.9770 C   0  0  0  0  0  0  0  0  0  0  0  0
   37.7030   27.3170   33.8610 C   0  0  0  0  0  0  0  0  0  0  0  0
   37.1200   26.1100   33.1990 C   0  0  0  0  0  0  0  0  0  0  0  0
   37.9250   24.9560   33.7140 C   0  0  1  0  0  0  0  0  0  0  0  0
   39.0290   24.6000   32.8470 N   0  0  0  0  0  0  0  0  0  0  0  0
   40.4403   22.1187   37.3028 H   0  0  0  0  0  0  0  0  0  0  0  0
   39.0952   22.5637   39.3696 H   0  0  0  0  0  0  0  0  0  0  0  0
   37.3828   24.4287   39.3067 H   0  0  0  0  0  0  0  0  0  0  0  0
   38.3031   27.3185   35.9303 H   0  0  0  0  0  0  0  0  0  0  0  0
   39.6489   27.1223   34.8197 H   0  0  0  0  0  0  0  0  0  0  0  0
   36.8966   27.9466   34.2651 H   0  0  0  0  0  0  0  0  0  0  0  0
   38.2792   27.9088   33.1346 H   0  0  0  0  0  0  0  0  0  0  0  0
   37.2113   26.1872   32.1055 H   0  0  0  0  0  0  0  0  0  0  0  0
   36.0483   25.9961   33.4192 H   0  0  0  0  0  0  0  0  0  0  0  0
   37.3388   24.0269   33.7703 H   0  0  0  0  0  0  0  0  0  0  0  0
   39.8441   24.3372   33.4193 H   0  0  0  0  0  0  0  0  0  0  0  0
   38.7560   23.8044   32.2525 H   0  0  0  0  0  0  0  0  0  0  0  0
  1  2  2  0
  3  2  1  0
  4  3  2  0
  5  6  2  0
  5  4  1  0
  6  1  1  0
  7  5  1  0
  8  7  1  0
  9  8  1  0
 10 11  1  0
 10  9  1  0
 11  7  1  0
 12 11  1  0
  1 13  1  0
  2 14  1  0
  3 15  1  0
  8 16  1  0
  8 17  1  0
  9 18  1  0
  9 19  1  0
 10 20  1  0
 10 21  1  0
 11 22  1  1
 12 23  1  0
 12 24  1  0
M  ISO  8  13  14  14  14  15  14  16  13  17  13  18  13  19  13  20  13
M  ISO  4  21  13  22  13  23   5  24   5
M  END
>  <minimizedAffinity>  (1) 
-3.76542735

>  <minimizedRMSD>  (1) 
0.0261511523

$$$$
