
     RDKit          3D

 25 26  0  0  1  0  0  0  0  0999 V2000
   39.6660   22.9150   37.3260 C   0  0  0  0  0  0  0  0  0  0  0  0
   38.9250   23.1710   38.4860 C   0  0  0  0  0  0  0  0  0  0  0  0
   38.0090   24.2060   38.4350 C   0  0  0  0  0  0  0  0  0  0  0  0
   37.8740   24.9170   37.2740 N   0  0  0  0  0  0  0  0  0  0  0  0
   38.6090   24.6340   36.1820 C   0  0  0  0  0  0  0  0  0  0  0  0
   39.5180   23.6250   36.1920 N   0  0  0  0  0  0  0  0  0  0  0  0
   38.4080   25.4230   35.0080 N   0  0  0  0  0  0  0  0  0  0  0  0
   38.6330   26.8370   34.9640 C   0  0  0  0  0  0  0  0  0  0  0  0
   37.7720   27.2920   33.8140 C   0  0  0  0  0  0  0  0  0  0  0  0
   37.1480   26.0890   33.1930 C   0  0  0  0  0  0  0  0  0  0  0  0
   37.9580   24.9330   33.7110 C   0  0  1  0  0  0  0  0  0  0  0  0
   39.1080   24.6140   32.7860 C   0  0  0  0  0  0  0  0  0  0  0  0
   40.4017   22.0974   37.3420 H   0  0  0  0  0  0  0  0  0  0  0  0
   39.0654   22.5742   39.3993 H   0  0  0  0  0  0  0  0  0  0  0  0
   37.3978   24.4539   39.3153 H   0  0  0  0  0  0  0  0  0  0  0  0
   38.3193   27.3149   35.9038 H   0  0  0  0  0  0  0  0  0  0  0  0
   39.6936   27.0993   34.8364 H   0  0  0  0  0  0  0  0  0  0  0  0
   36.9878   27.9700   34.1818 H   0  0  0  0  0  0  0  0  0  0  0  0
   38.3821   27.8285   33.0724 H   0  0  0  0  0  0  0  0  0  0  0  0
   37.2063   26.1436   32.0959 H   0  0  0  0  0  0  0  0  0  0  0  0
   36.0807   25.9962   33.4426 H   0  0  0  0  0  0  0  0  0  0  0  0
   37.3968   23.9896   33.7821 H   0  0  0  0  0  0  0  0  0  0  0  0
   39.9995   24.3667   33.3811 H   0  0  0  0  0  0  0  0  0  0  0  0
   38.8411   23.7560   32.1515 H   0  0  0  0  0  0  0  0  0  0  0  0
   39.3212   25.4869   32.1515 H   0  0  0  0  0  0  0  0  0  0  0  0
  1  2  2  0
  3  2  1  0
  4  3  2  0
  5  6  2  0
  5  4  1  0
  6  1  1  0
  7  5  1  0
  8  7  1  0
  9  8  1  0
 10 11  1  0
 10  9  1  0
 11  7  1  0
 12 11  1  0
  1 13  1  0
  2 14  1  0
  3 15  1  0
  8 16  1  0
  8 17  1  0
  9 18  1  0
  9 19  1  0
 10 20  1  0
 10 21  1  0
 11 22  1  1
 12 23  1  0
 12 24  1  0
 12 25  1  0
M  ISO  8  13  14  14  14  15  14  16  13  17  13  18  13  19  13  20  13
M  ISO  5  21  13  22  13  23   8  24   8  25   8
M  END
>  <minimizedAffinity>  (1) 
-3.74912

>  <minimizedRMSD>  (1) 
0.0146773234

$$$$
