
     RDKit          3D

 23 24  0  0  0  0  0  0  0  0999 V2000
   39.8730   22.6550   37.1790 C   0  0  0  0  0  0  0  0  0  0  0  0
   39.2480   23.3350   38.2320 C   0  0  0  0  0  0  0  0  0  0  0  0
   37.8660   23.4680   38.2070 C   0  0  0  0  0  0  0  0  0  0  0  0
   37.1980   22.9250   37.1530 N   0  0  0  0  0  0  0  0  0  0  0  0
   37.8120   22.2790   36.1550 C   0  0  0  0  0  0  0  0  0  0  0  0
   39.1630   22.1390   36.1630 N   0  0  0  0  0  0  0  0  0  0  0  0
   37.1000   21.7140   35.0550 N   0  0  0  0  0  0  0  0  0  0  0  0
   37.6380   21.9710   33.8530 C   0  0  0  0  0  0  0  0  0  0  0  0
   37.0110   21.4610   32.7410 C   0  0  0  0  0  0  0  0  0  0  0  0
   35.8800   20.7280   32.9690 C   0  0  0  0  0  0  0  0  0  0  0  0
   35.1260   20.1390   31.9200 N   0  0  0  0  0  0  0  0  0  0  0  0
   35.3660   20.4900   34.1940 N   0  0  0  0  0  0  0  0  0  0  0  0
   35.9940   20.9980   35.2870 C   0  0  0  0  0  0  0  0  0  0  0  0
   35.6090   20.8410   36.4630 O   0  0  0  0  0  0  0  0  0  0  0  0
   37.5020   21.6740   31.3960 C   0  0  0  0  0  0  0  0  0  0  0  0
   37.3110   22.7930   30.8570 O   0  0  0  0  0  0  0  0  0  0  0  0
   40.9671   22.5415   37.1845 H   0  0  0  0  0  0  0  0  0  0  0  0
   39.8385   23.7542   39.0600 H   0  0  0  0  0  0  0  0  0  0  0  0
   37.3300   23.9938   39.0109 H   0  0  0  0  0  0  0  0  0  0  0  0
   38.5543   22.5724   33.7601 H   0  0  0  0  0  0  0  0  0  0  0  0
   34.2794   19.5942   32.1374 H   0  0  0  0  0  0  0  0  0  0  0  0
   35.4257   20.2565   30.9416 H   0  0  0  0  0  0  0  0  0  0  0  0
   38.0308   20.8738   30.8575 H   0  0  0  0  0  0  0  0  0  0  0  0
  1  2  2  0
  3  2  1  0
  4  3  2  0
  5  6  2  0
  5  4  1  0
  6  1  1  0
  7 13  1  0
  7  5  1  0
  8  7  1  0
  9 10  1  0
  9  8  2  0
 10 12  2  0
 11 10  1  0
 12 13  1  0
 13 14  2  0
 15  9  1  0
 16 15  2  0
  1 17  1  0
  2 18  1  0
  3 19  1  0
  8 20  1  0
 11 21  1  0
 11 22  1  0
 15 23  1  0
M  ISO  5  17  14  18  14  19  14  20  14  23   6
M  END
>  <minimizedAffinity>  (1) 
-4.77267742

>  <minimizedRMSD>  (1) 
0.0540784486

$$$$
