
     RDKit          3D

 40 42  0  0  1  0  0  0  0  0999 V2000
   36.2570   29.6260   32.3240 C   0  0  0  0  0  0  0  0  0  0  0  0
   37.0030   28.6180   31.7650 C   0  0  0  0  0  0  0  0  0  0  0  0
   37.2820   27.5020   32.5480 C   0  0  0  0  0  0  0  0  0  0  0  0
   36.8200   27.4170   33.8480 C   0  0  0  0  0  0  0  0  0  0  0  0
   36.0790   28.4200   34.4020 C   0  0  0  0  0  0  0  0  0  0  0  0
   35.7910   29.5320   33.6440 C   0  0  0  0  0  0  0  0  0  0  0  0
   37.2300   26.1520   34.4980 C   0  0  0  0  0  0  0  0  0  0  0  0
   38.6430   26.1430   34.9580 C   0  0  2  0  0  0  0  0  0  0  0  0
   40.5200   23.2030   36.0820 C   0  0  0  0  0  0  0  0  0  0  0  0
   39.7080   22.6680   37.1220 C   0  0  0  0  0  0  0  0  0  0  0  0
   38.5060   23.3330   37.4290 C   0  0  0  0  0  0  0  0  0  0  0  0
   38.2130   24.4530   36.6950 N   0  0  0  0  0  0  0  0  0  0  0  0
   39.0090   24.9300   35.7150 C   0  0  0  0  0  0  0  0  0  0  0  0
   40.1600   24.3150   35.4030 N   0  0  0  0  0  0  0  0  0  0  0  0
   38.8560   27.3530   35.8850 C   0  0  0  0  0  0  0  0  0  0  0  0
   35.8880   31.0420   31.3670 S   0  0  0  0  0  0  0  0  0  0  0  0
   36.4360   30.7830   29.9640 O   0  0  0  0  0  0  0  0  0  0  0  0
   36.5370   32.2570   31.9120 O   0  0  0  0  0  0  0  0  0  0  0  0
   34.1520   31.2840   31.2730 C   0  0  0  0  0  0  0  0  0  0  0  0
   33.0860   30.6430   31.7750 N   0  0  0  0  0  0  0  0  0  0  0  0
   31.9930   31.2400   31.4020 O   0  0  0  0  0  0  0  0  0  0  0  0
   32.2990   32.2820   30.6500 C   0  0  0  0  0  0  0  0  0  0  0  0
   33.6160   32.3020   30.5760 N   0  0  0  0  0  0  0  0  0  0  0  0
   31.4270   33.2370   30.0120 C   0  0  0  0  0  0  0  0  0  0  0  0
   30.5100   33.8450   30.6260 O   0  0  0  0  0  0  0  0  0  0  0  0
   31.4680   33.6080   28.6880 O   0  0  0  0  0  0  0  0  0  0  0  0
   37.3688   28.6904   30.7301 H   0  0  0  0  0  0  0  0  0  0  0  0
   37.8771   26.6779   32.1276 H   0  0  0  0  0  0  0  0  0  0  0  0
   35.7176   28.3410   35.4379 H   0  0  0  0  0  0  0  0  0  0  0  0
   35.1938   30.3494   34.0743 H   0  0  0  0  0  0  0  0  0  0  0  0
   36.5806   25.9840   35.3699 H   0  0  0  0  0  0  0  0  0  0  0  0
   37.1348   25.3586   33.7421 H   0  0  0  0  0  0  0  0  0  0  0  0
   39.2739   26.1761   34.0575 H   0  0  0  0  0  0  0  0  0  0  0  0
   41.4634   22.6991   35.8248 H   0  0  0  0  0  0  0  0  0  0  0  0
   40.0107   21.7628   37.6688 H   0  0  0  0  0  0  0  0  0  0  0  0
   37.8335   22.9710   38.2206 H   0  0  0  0  0  0  0  0  0  0  0  0
   38.7985   27.0261   36.9337 H   0  0  0  0  0  0  0  0  0  0  0  0
   39.8454   27.7932   35.6919 H   0  0  0  0  0  0  0  0  0  0  0  0
   38.0763   28.1046   35.6919 H   0  0  0  0  0  0  0  0  0  0  0  0
   32.1419   33.2086   28.0826 H   0  0  0  0  0  0  0  0  0  0  0  0
  1  6  1  0
  2  1  2  0
  2  3  1  0
  3  4  2  0
  4  5  1  0
  4  7  1  0
  6  5  2  0
  7  8  1  0
  8 13  1  0
  8 15  1  0
  9 10  2  0
 10 11  1  0
 12 11  2  0
 13 12  1  0
 14 13  2  0
 14  9  1  0
 16 18  2  0
 16  1  1  0
 17 16  2  0
 19 16  1  0
 19 20  2  0
 21 20  1  0
 22 21  1  0
 23 22  2  0
 23 19  1  0
 24 25  2  0
 24 22  1  0
 26 24  1  0
  2 27  1  0
  3 28  1  0
  5 29  1  0
  6 30  1  0
  7 31  1  0
  7 32  1  0
  8 33  1  6
  9 34  1  0
 10 35  1  0
 11 36  1  0
 15 37  1  0
 15 38  1  0
 15 39  1  0
 26 40  1  0
M  ISO  8  27  14  28  14  29  14  30  14  31   8  32   8  33   8  34  14
M  ISO  6  35  14  36  14  37   8  38   8  39   8  40   3
M  END
>  <minimizedAffinity>  (1) 
-4.91503811

>  <minimizedRMSD>  (1) 
0.159567967

$$$$
