
     RDKit          3D

 43 46  0  0  1  0  0  0  0  0999 V2000
   40.1360   23.1560   36.5930 C   0  0  0  0  0  0  0  0  0  0  0  0
   39.4180   22.8380   37.7760 C   0  0  0  0  0  0  0  0  0  0  0  0
   38.3070   23.6240   38.0870 C   0  0  0  0  0  0  0  0  0  0  0  0
   37.9690   24.6340   37.2660 N   0  0  0  0  0  0  0  0  0  0  0  0
   38.6510   24.9240   36.1600 C   0  0  0  0  0  0  0  0  0  0  0  0
   39.7220   24.1700   35.8540 N   0  0  0  0  0  0  0  0  0  0  0  0
   38.2810   26.0220   35.3500 N   0  0  0  0  0  0  0  0  0  0  0  0
   38.0970   27.3350   35.8320 C   0  0  0  0  0  0  0  0  0  0  0  0
   37.0790   27.9580   34.9200 C   0  0  0  0  0  0  0  0  0  0  0  0
   36.9730   27.0250   33.8340 C   0  0  0  0  0  0  0  0  0  0  0  0
   38.0900   26.0330   33.9020 C   0  0  1  0  0  0  0  0  0  0  0  0
   39.4620   26.4140   33.5710 C   0  0  0  0  0  0  0  0  0  0  0  0
   40.3250   26.3620   34.7340 C   0  0  0  0  0  0  0  0  0  0  0  0
   41.5340   26.8970   34.5050 N   0  0  0  0  0  0  0  0  0  0  0  0
   41.6010   27.3340   33.2410 C   0  0  0  0  0  0  0  0  0  0  0  0
   42.4950   27.9190   32.3780 C   0  0  0  0  0  0  0  0  0  0  0  0
   42.1890   28.1900   31.0620 C   0  0  0  0  0  0  0  0  0  0  0  0
   40.9340   27.8690   30.5630 C   0  0  0  0  0  0  0  0  0  0  0  0
   40.0590   27.2880   31.4400 C   0  0  0  0  0  0  0  0  0  0  0  0
   40.3710   27.0220   32.7580 C   0  0  0  0  0  0  0  0  0  0  0  0
   37.6960   24.7480   33.4040 N   0  0  0  0  0  0  0  0  0  0  0  0
   37.3130   24.4240   32.1000 C   0  0  0  0  0  0  0  0  0  0  0  0
   37.1080   25.3510   31.2860 N   0  0  0  0  0  0  0  0  0  0  0  0
   37.1410   23.1170   31.5690 N   0  0  0  0  0  0  0  0  0  0  0  0
   37.0770   26.3750   31.4640 H   0  0  0  0  0  0  0  0  0  0  0  0
   41.0189   22.5701   36.2978 H   0  0  0  0  0  0  0  0  0  0  0  0
   39.7257   22.0035   38.4232 H   0  0  0  0  0  0  0  0  0  0  0  0
   37.7158   23.4198   38.9918 H   0  0  0  0  0  0  0  0  0  0  0  0
   37.7253   27.3160   36.8671 H   0  0  0  0  0  0  0  0  0  0  0  0
   39.0392   27.9026   35.8403 H   0  0  0  0  0  0  0  0  0  0  0  0
   36.1127   28.0735   35.4327 H   0  0  0  0  0  0  0  0  0  0  0  0
   37.3674   28.9660   34.5872 H   0  0  0  0  0  0  0  0  0  0  0  0
   37.0265   27.5692   32.8795 H   0  0  0  0  0  0  0  0  0  0  0  0
   36.0127   26.4935   33.9067 H   0  0  0  0  0  0  0  0  0  0  0  0
   40.0219   25.9308   35.6995 H   0  0  0  0  0  0  0  0  0  0  0  0
   42.2948   26.9617   35.1963 H   0  0  0  0  0  0  0  0  0  0  0  0
   43.4954   28.1818   32.7523 H   0  0  0  0  0  0  0  0  0  0  0  0
   42.9381   28.6600   30.4079 H   0  0  0  0  0  0  0  0  0  0  0  0
   40.6575   28.0711   29.5177 H   0  0  0  0  0  0  0  0  0  0  0  0
   39.0562   27.0193   31.0763 H   0  0  0  0  0  0  0  0  0  0  0  0
   37.6951   23.9754   34.0851 H   0  0  0  0  0  0  0  0  0  0  0  0
   36.8543   22.9935   30.5874 H   0  0  0  0  0  0  0  0  0  0  0  0
   37.3030   22.2932   32.1657 H   0  0  0  0  0  0  0  0  0  0  0  0
  1  2  2  0
  2  3  1  0
  4  3  2  0
  5  4  1  0
  6  5  2  0
  6  1  1  0
  7  8  1  0
  7  5  1  0
  9  8  1  0
 10 11  1  0
 10  9  1  0
 11 21  1  6
 11  7  1  0
 12 11  1  0
 12 13  2  0
 14 13  1  0
 15 14  1  0
 16 15  2  0
 17 16  1  0
 18 17  2  0
 18 19  1  0
 19 20  2  0
 20 15  1  0
 20 12  1  0
 22 21  1  0
 23 25  1  0
 23 22  2  0
 24 22  1  0
  1 26  1  0
  2 27  1  0
  3 28  1  0
  8 29  1  0
  8 30  1  0
  9 31  1  0
  9 32  1  0
 10 33  1  0
 10 34  1  0
 13 35  1  0
 14 36  1  0
 16 37  1  0
 17 38  1  0
 18 39  1  0
 19 40  1  0
 21 41  1  0
 24 42  1  0
 24 43  1  0
M  ISO  8  26  14  27  14  28  14  29  13  30  13  31  13  32  13  33  13
M  ISO  7  34  13  35  14  36   9  37  14  38  14  39  14  40  14
M  END
>  <minimizedAffinity>  (1) 
-6.10375404

>  <minimizedRMSD>  (1) 
0.551773369

$$$$
