
     RDKit          3D

 40 43  0  0  1  0  0  0  0  0999 V2000
   40.1280   23.1670   36.4660 C   0  0  0  0  0  0  0  0  0  0  0  0
   39.4690   22.8570   37.6580 C   0  0  0  0  0  0  0  0  0  0  0  0
   38.4040   23.6490   38.0130 C   0  0  0  0  0  0  0  0  0  0  0  0
   38.0250   24.6820   37.2240 N   0  0  0  0  0  0  0  0  0  0  0  0
   38.6650   24.9630   36.0920 C   0  0  0  0  0  0  0  0  0  0  0  0
   39.7030   24.1940   35.7420 N   0  0  0  0  0  0  0  0  0  0  0  0
   38.2720   26.0560   35.3040 N   0  0  0  0  0  0  0  0  0  0  0  0
   38.1650   27.3990   35.7760 C   0  0  0  0  0  0  0  0  0  0  0  0
   37.0500   28.0010   34.9460 C   0  0  0  0  0  0  0  0  0  0  0  0
   36.8900   27.1170   33.8010 C   0  0  0  0  0  0  0  0  0  0  0  0
   37.9510   26.0870   33.8770 C   0  0  1  0  0  0  0  0  0  0  0  0
   39.2830   26.5790   33.4480 N   0  0  0  0  0  0  0  0  0  0  0  0
   40.3310   26.8850   34.2340 C   0  0  0  0  0  0  0  0  0  0  0  0
   41.3900   27.3120   33.5270 N   0  0  0  0  0  0  0  0  0  0  0  0
   41.0430   27.2920   32.2300 C   0  0  0  0  0  0  0  0  0  0  0  0
   41.7760   27.6280   31.1120 C   0  0  0  0  0  0  0  0  0  0  0  0
   41.1780   27.5040   29.8920 N   0  0  0  0  0  0  0  0  0  0  0  0
   39.9030   27.0560   29.8920 C   0  0  0  0  0  0  0  0  0  0  0  0
   39.2020   26.7330   30.9850 N   0  0  0  0  0  0  0  0  0  0  0  0
   39.7440   26.8380   32.2070 C   0  0  0  0  0  0  0  0  0  0  0  0
   37.5990   24.8060   33.3680 N   0  0  0  0  0  0  0  0  0  0  0  0
   36.9130   24.4850   32.1980 C   0  0  0  0  0  0  0  0  0  0  0  0
   36.4200   25.4140   31.5160 N   0  0  0  0  0  0  0  0  0  0  0  0
   36.7380   23.1550   31.6770 N   0  0  0  0  0  0  0  0  0  0  0  0
   36.3020   26.3970   31.7800 H   0  0  0  0  0  0  0  0  0  0  0  0
   40.9878   22.5675   36.1322 H   0  0  0  0  0  0  0  0  0  0  0  0
   39.7896   22.0133   38.2867 H   0  0  0  0  0  0  0  0  0  0  0  0
   37.8558   23.4426   38.9441 H   0  0  0  0  0  0  0  0  0  0  0  0
   37.9076   27.4167   36.8453 H   0  0  0  0  0  0  0  0  0  0  0  0
   39.1090   27.9551   35.6774 H   0  0  0  0  0  0  0  0  0  0  0  0
   36.1185   28.0453   35.5295 H   0  0  0  0  0  0  0  0  0  0  0  0
   37.2853   29.0296   34.6350 H   0  0  0  0  0  0  0  0  0  0  0  0
   36.9905   27.6905   32.8677 H   0  0  0  0  0  0  0  0  0  0  0  0
   35.8953   26.6476   33.8122 H   0  0  0  0  0  0  0  0  0  0  0  0
   40.3216   26.7957   35.3303 H   0  0  0  0  0  0  0  0  0  0  0  0
   42.8125   27.9855   31.2008 H   0  0  0  0  0  0  0  0  0  0  0  0
   39.4028   26.9486   28.9182 H   0  0  0  0  0  0  0  0  0  0  0  0
   37.8919   24.0042   33.9444 H   0  0  0  0  0  0  0  0  0  0  0  0
   36.2146   23.0094   30.8020 H   0  0  0  0  0  0  0  0  0  0  0  0
   37.1362   22.3487   32.1792 H   0  0  0  0  0  0  0  0  0  0  0  0
  1  2  2  0
  2  3  1  0
  4  3  2  0
  5  4  1  0
  6  5  2  0
  6  1  1  0
  7  8  1  0
  7  5  1  0
  9  8  1  0
 10 11  1  0
 10  9  1  0
 11 21  1  6
 11  7  1  0
 12 11  1  0
 12 13  1  0
 14 13  2  0
 15 14  1  0
 16 15  2  0
 17 16  1  0
 18 17  2  0
 18 19  1  0
 19 20  2  0
 20 15  1  0
 20 12  1  0
 22 21  1  0
 23 25  1  0
 23 22  2  0
 24 22  1  0
  1 26  1  0
  2 27  1  0
  3 28  1  0
  8 29  1  0
  8 30  1  0
  9 31  1  0
  9 32  1  0
 10 33  1  0
 10 34  1  0
 13 35  1  0
 16 36  1  0
 18 37  1  0
 21 38  1  0
 24 39  1  0
 24 40  1  0
M  ISO  8  26  14  27  14  28  14  29  13  30  13  31  13  32  13  33  13
M  ISO  4  34  13  35  14  36  14  37  14
M  END
>  <minimizedAffinity>  (1) 
-5.49939013

>  <minimizedRMSD>  (1) 
0.723751307

$$$$
