
     RDKit          3D

 36 38  0  0  1  0  0  0  0  0999 V2000
   40.2410   23.0660   36.6890 C   0  0  0  0  0  0  0  0  0  0  0  0
   39.5340   22.7450   37.8720 C   0  0  0  0  0  0  0  0  0  0  0  0
   38.4220   23.5200   38.1840 C   0  0  0  0  0  0  0  0  0  0  0  0
   38.0500   24.5390   37.3720 N   0  0  0  0  0  0  0  0  0  0  0  0
   38.7380   24.8160   36.2640 C   0  0  0  0  0  0  0  0  0  0  0  0
   39.8210   24.0770   35.9390 N   0  0  0  0  0  0  0  0  0  0  0  0
   38.3510   25.8920   35.4550 N   0  0  0  0  0  0  0  0  0  0  0  0
   38.2360   27.2350   35.9130 C   0  0  0  0  0  0  0  0  0  0  0  0
   37.2870   27.9100   34.9840 C   0  0  0  0  0  0  0  0  0  0  0  0
   36.9850   26.9210   33.9210 C   0  0  0  0  0  0  0  0  0  0  0  0
   38.0560   25.9030   34.0200 C   0  0  2  0  0  0  0  0  0  0  0  0
   37.7750   24.6200   33.4970 N   0  0  0  0  0  0  0  0  0  0  0  0
   37.0680   24.2520   32.3540 C   0  0  0  0  0  0  0  0  0  0  0  0
   36.4900   25.1510   31.6990 N   0  0  0  0  0  0  0  0  0  0  0  0
   36.9640   22.9240   31.8330 N   0  0  0  0  0  0  0  0  0  0  0  0
   36.3090   26.1300   31.9700 H   0  0  0  0  0  0  0  0  0  0  0  0
   39.4390   26.4640   33.6550 C   0  0  0  0  0  0  0  0  0  0  0  0
   40.6080   26.6950   34.2380 C   0  0  0  0  0  0  0  0  0  0  0  0
   41.5950   27.2370   33.5090 C   0  0  0  0  0  0  0  0  0  0  0  0
   41.4000   27.5340   32.2280 C   0  0  0  0  0  0  0  0  0  0  0  0
   39.6810   27.0270   31.9580 S   0  0  0  0  0  0  0  0  0  0  0  0
   41.1274   22.4849   36.3948 H   0  0  0  0  0  0  0  0  0  0  0  0
   39.8516   21.9146   38.5198 H   0  0  0  0  0  0  0  0  0  0  0  0
   37.8422   23.3048   39.0937 H   0  0  0  0  0  0  0  0  0  0  0  0
   37.8436   27.2554   36.9404 H   0  0  0  0  0  0  0  0  0  0  0  0
   39.2132   27.7399   35.9251 H   0  0  0  0  0  0  0  0  0  0  0  0
   36.3667   28.1926   35.5161 H   0  0  0  0  0  0  0  0  0  0  0  0
   37.7178   28.8321   34.5667 H   0  0  0  0  0  0  0  0  0  0  0  0
   37.0003   27.4017   32.9317 H   0  0  0  0  0  0  0  0  0  0  0  0
   35.9855   26.4785   34.0440 H   0  0  0  0  0  0  0  0  0  0  0  0
   38.1517   23.8346   34.0467 H   0  0  0  0  0  0  0  0  0  0  0  0
   36.4168   22.7474   30.9784 H   0  0  0  0  0  0  0  0  0  0  0  0
   37.4363   22.1442   32.3124 H   0  0  0  0  0  0  0  0  0  0  0  0
   40.7648   26.4470   35.2981 H   0  0  0  0  0  0  0  0  0  0  0  0
   42.5716   27.4369   33.9740 H   0  0  0  0  0  0  0  0  0  0  0  0
   42.1062   27.9772   31.5104 H   0  0  0  0  0  0  0  0  0  0  0  0
  1  2  2  0
  2  3  1  0
  4  3  2  0
  5  4  1  0
  6  5  2  0
  6  1  1  0
  7  8  1  0
  7  5  1  0
  9  8  1  0
 10 11  1  0
 10  9  1  0
 11 12  1  6
 11  7  1  0
 13 12  1  0
 14 16  1  0
 14 13  2  0
 15 13  1  0
 17 11  1  0
 17 18  2  0
 19 18  1  0
 20 19  2  0
 21 20  1  0
 21 17  1  0
  1 22  1  0
  2 23  1  0
  3 24  1  0
  8 25  1  0
  8 26  1  0
  9 27  1  0
  9 28  1  0
 10 29  1  0
 10 30  1  0
 12 31  1  0
 15 32  1  0
 15 33  1  0
 18 34  1  0
 19 35  1  0
 20 36  1  0
M  ISO  8  22  14  23  14  24  14  25  13  26  13  27  13  28  13  29  13
M  ISO  4  30  13  34  14  35  14  36  14
M  END
>  <minimizedAffinity>  (1) 
-5.20296192

>  <minimizedRMSD>  (1) 
0.679560304

$$$$
