
     RDKit          3D

 43 45  0  0  1  0  0  0  0  0999 V2000
   40.1410   23.0500   36.7290 C   0  0  0  0  0  0  0  0  0  0  0  0
   39.4340   22.8460   37.9380 C   0  0  0  0  0  0  0  0  0  0  0  0
   38.3740   23.6820   38.2150 C   0  0  0  0  0  0  0  0  0  0  0  0
   38.0460   24.6600   37.3340 N   0  0  0  0  0  0  0  0  0  0  0  0
   38.7310   24.8330   36.2000 C   0  0  0  0  0  0  0  0  0  0  0  0
   39.7710   24.0280   35.9040 N   0  0  0  0  0  0  0  0  0  0  0  0
   38.3470   25.8790   35.3410 N   0  0  0  0  0  0  0  0  0  0  0  0
   38.1820   27.2500   35.7420 C   0  0  0  0  0  0  0  0  0  0  0  0
   37.1500   27.8100   34.8190 C   0  0  0  0  0  0  0  0  0  0  0  0
   36.8790   26.7720   33.8210 C   0  0  0  0  0  0  0  0  0  0  0  0
   38.0580   25.8530   33.8920 C   0  0  2  0  0  0  0  0  0  0  0  0
   37.7400   24.5460   33.4800 N   0  0  0  0  0  0  0  0  0  0  0  0
   37.5110   23.9920   32.2250 C   0  0  0  0  0  0  0  0  0  0  0  0
   37.5470   24.7830   31.2540 N   0  0  0  0  0  0  0  0  0  0  0  0
   37.2660   22.6260   31.9220 N   0  0  0  0  0  0  0  0  0  0  0  0
   37.5410   25.8080   31.2620 H   0  0  0  0  0  0  0  0  0  0  0  0
   39.2240   26.5120   33.4330 N   0  0  0  0  0  0  0  0  0  0  0  0
   39.2380   27.3320   32.2840 C   0  0  0  0  0  0  0  0  0  0  0  0
   40.4710   27.1960   31.4050 C   0  0  0  0  0  0  0  0  0  0  0  0
   41.6320   26.7210   32.1230 N   0  0  0  0  0  0  0  0  0  0  0  0
   41.5360   27.2280   33.4440 C   0  0  0  0  0  0  0  0  0  0  0  0
   40.3490   26.6520   34.2370 C   0  0  0  0  0  0  0  0  0  0  0  0
   40.9928   22.4033   36.4717 H   0  0  0  0  0  0  0  0  0  0  0  0
   39.7217   22.0450   38.6349 H   0  0  0  0  0  0  0  0  0  0  0  0
   37.7980   23.5571   39.1438 H   0  0  0  0  0  0  0  0  0  0  0  0
   37.8376   27.3074   36.7851 H   0  0  0  0  0  0  0  0  0  0  0  0
   39.1275   27.8095   35.6874 H   0  0  0  0  0  0  0  0  0  0  0  0
   36.2324   28.0509   35.3758 H   0  0  0  0  0  0  0  0  0  0  0  0
   37.5020   28.7374   34.3436 H   0  0  0  0  0  0  0  0  0  0  0  0
   36.7922   27.2134   32.8172 H   0  0  0  0  0  0  0  0  0  0  0  0
   35.9322   26.2470   34.0159 H   0  0  0  0  0  0  0  0  0  0  0  0
   37.6620   23.8715   34.2545 H   0  0  0  0  0  0  0  0  0  0  0  0
   37.1095   22.3349   30.9465 H   0  0  0  0  0  0  0  0  0  0  0  0
   37.2449   21.9266   32.6778 H   0  0  0  0  0  0  0  0  0  0  0  0
   38.3571   27.0797   31.6755 H   0  0  0  0  0  0  0  0  0  0  0  0
   39.2377   28.3693   32.6500 H   0  0  0  0  0  0  0  0  0  0  0  0
   40.7045   28.1813   30.9753 H   0  0  0  0  0  0  0  0  0  0  0  0
   40.2391   26.4516   30.6291 H   0  0  0  0  0  0  0  0  0  0  0  0
   41.6417   25.6912   32.1388 H   0  0  0  0  0  0  0  0  0  0  0  0
   42.4648   26.9824   33.9797 H   0  0  0  0  0  0  0  0  0  0  0  0
   41.3758   28.3133   33.3636 H   0  0  0  0  0  0  0  0  0  0  0  0
   40.1118   27.3302   35.0699 H   0  0  0  0  0  0  0  0  0  0  0  0
   40.6327   25.6579   34.6128 H   0  0  0  0  0  0  0  0  0  0  0  0
  1  2  2  0
  2  3  1  0
  4  3  2  0
  5  4  1  0
  6  5  2  0
  6  1  1  0
  7  8  1  0
  7  5  1  0
  9  8  1  0
 10 11  1  0
 10  9  1  0
 11 12  1  6
 11  7  1  0
 13 12  1  0
 14 16  1  0
 14 13  2  0
 15 13  1  0
 17 11  1  0
 17 22  1  0
 18 17  1  0
 19 20  1  0
 19 18  1  0
 20 21  1  0
 21 22  1  0
  1 23  1  0
  2 24  1  0
  3 25  1  0
  8 26  1  0
  8 27  1  0
  9 28  1  0
  9 29  1  0
 10 30  1  0
 10 31  1  0
 12 32  1  0
 15 33  1  0
 15 34  1  0
 18 35  1  0
 18 36  1  0
 19 37  1  0
 19 38  1  0
 20 39  1  0
 21 40  1  0
 21 41  1  0
 22 42  1  0
 22 43  1  0
M  ISO  8  23  14  24  14  25  14  26  13  27  13  28  13  29  13  30  13
M  ISO  8  31  13  35  13  36  13  37  13  38  13  39   5  40  13  41  13
M  ISO  2  42  13  43  13
M  END
>  <minimizedAffinity>  (1) 
-4.96651268

>  <minimizedRMSD>  (1) 
0.851811528

$$$$
