
     RDKit          3D

 44 46  0  0  1  0  0  0  0  0999 V2000
   40.1000   23.0120   36.8190 C   0  0  0  0  0  0  0  0  0  0  0  0
   39.3680   22.8070   38.0130 C   0  0  0  0  0  0  0  0  0  0  0  0
   38.3030   23.6560   38.2730 C   0  0  0  0  0  0  0  0  0  0  0  0
   38.0040   24.6380   37.3870 N   0  0  0  0  0  0  0  0  0  0  0  0
   38.7150   24.8070   36.2670 C   0  0  0  0  0  0  0  0  0  0  0  0
   39.7540   23.9950   35.9930 N   0  0  0  0  0  0  0  0  0  0  0  0
   38.3610   25.8590   35.4030 N   0  0  0  0  0  0  0  0  0  0  0  0
   38.1940   27.2310   35.8020 C   0  0  0  0  0  0  0  0  0  0  0  0
   37.1920   27.8050   34.8630 C   0  0  0  0  0  0  0  0  0  0  0  0
   36.9400   26.7730   33.8430 C   0  0  0  0  0  0  0  0  0  0  0  0
   38.1080   25.8500   33.9550 C   0  0  2  0  0  0  0  0  0  0  0  0
   37.7740   24.5370   33.5330 N   0  0  0  0  0  0  0  0  0  0  0  0
   37.5330   23.9970   32.2810 C   0  0  0  0  0  0  0  0  0  0  0  0
   37.5460   24.7890   31.3060 N   0  0  0  0  0  0  0  0  0  0  0  0
   37.2880   22.6310   31.9560 N   0  0  0  0  0  0  0  0  0  0  0  0
   37.5760   25.8220   31.3280 H   0  0  0  0  0  0  0  0  0  0  0  0
   39.3060   26.4640   33.5120 N   0  0  0  0  0  0  0  0  0  0  0  0
   40.4660   26.4260   34.2780 C   0  0  0  0  0  0  0  0  0  0  0  0
   41.7660   26.5500   33.5210 C   0  0  0  0  0  0  0  0  0  0  0  0
   41.7180   27.6170   32.4550 C   0  0  0  0  0  0  0  0  0  0  0  0
   40.6280   27.1400   31.5370 C   0  0  0  0  0  0  0  0  0  0  0  0
   39.3240   27.2630   32.3580 C   0  0  0  0  0  0  0  0  0  0  0  0
   40.9521   22.3605   36.5752 H   0  0  0  0  0  0  0  0  0  0  0  0
   39.6353   22.0006   38.7118 H   0  0  0  0  0  0  0  0  0  0  0  0
   37.7065   23.5341   39.1891 H   0  0  0  0  0  0  0  0  0  0  0  0
   37.8258   27.2872   36.8370 H   0  0  0  0  0  0  0  0  0  0  0  0
   39.1452   27.7824   35.7672 H   0  0  0  0  0  0  0  0  0  0  0  0
   36.2620   28.0453   35.3991 H   0  0  0  0  0  0  0  0  0  0  0  0
   37.5601   28.7357   34.4066 H   0  0  0  0  0  0  0  0  0  0  0  0
   36.8921   27.2207   32.8394 H   0  0  0  0  0  0  0  0  0  0  0  0
   35.9806   26.2569   33.9956 H   0  0  0  0  0  0  0  0  0  0  0  0
   37.6962   23.8576   34.3032 H   0  0  0  0  0  0  0  0  0  0  0  0
   37.1216   22.3563   30.9774 H   0  0  0  0  0  0  0  0  0  0  0  0
   37.2774   21.9186   32.6998 H   0  0  0  0  0  0  0  0  0  0  0  0
   40.4182   27.2532   35.0015 H   0  0  0  0  0  0  0  0  0  0  0  0
   40.4850   25.4261   34.7360 H   0  0  0  0  0  0  0  0  0  0  0  0
   42.5660   26.7997   34.2335 H   0  0  0  0  0  0  0  0  0  0  0  0
   41.9532   25.5882   33.0211 H   0  0  0  0  0  0  0  0  0  0  0  0
   41.4674   28.5963   32.8887 H   0  0  0  0  0  0  0  0  0  0  0  0
   42.6813   27.7573   31.9428 H   0  0  0  0  0  0  0  0  0  0  0  0
   40.8015   26.0943   31.2429 H   0  0  0  0  0  0  0  0  0  0  0  0
   40.5861   27.7279   30.6082 H   0  0  0  0  0  0  0  0  0  0  0  0
   39.2022   28.3134   32.6610 H   0  0  0  0  0  0  0  0  0  0  0  0
   38.5040   26.9144   31.7129 H   0  0  0  0  0  0  0  0  0  0  0  0
  1  2  2  0
  2  3  1  0
  4  3  2  0
  5  4  1  0
  6  5  2  0
  6  1  1  0
  7  8  1  0
  7  5  1  0
  9  8  1  0
 10 11  1  0
 10  9  1  0
 11 12  1  6
 11  7  1  0
 13 12  1  0
 14 16  1  0
 14 13  2  0
 15 13  1  0
 17 11  1  0
 17 18  1  0
 19 18  1  0
 20 19  1  0
 21 22  1  0
 21 20  1  0
 22 17  1  0
  1 23  1  0
  2 24  1  0
  3 25  1  0
  8 26  1  0
  8 27  1  0
  9 28  1  0
  9 29  1  0
 10 30  1  0
 10 31  1  0
 12 32  1  0
 15 33  1  0
 15 34  1  0
 18 35  1  0
 18 36  1  0
 19 37  1  0
 19 38  1  0
 20 39  1  0
 20 40  1  0
 21 41  1  0
 21 42  1  0
 22 43  1  0
 22 44  1  0
M  ISO  8  23  14  24  14  25  14  26  13  27  13  28  13  29  13  30  13
M  ISO  8  31  13  35  13  36  13  37  13  38  13  39  13  40  13  41  13
M  ISO  3  42  13  43  13  44  13
M  END
>  <minimizedAffinity>  (1) 
-5.07772255

>  <minimizedRMSD>  (1) 
0.653529167

$$$$
