
     RDKit          3D

 36 38  0  0  1  0  0  0  0  0999 V2000
   40.1930   23.0810   36.6700 C   0  0  0  0  0  0  0  0  0  0  0  0
   39.4750   22.7690   37.8500 C   0  0  0  0  0  0  0  0  0  0  0  0
   38.3560   23.5430   38.1620 C   0  0  0  0  0  0  0  0  0  0  0  0
   37.9970   24.5540   37.3370 N   0  0  0  0  0  0  0  0  0  0  0  0
   38.6910   24.8280   36.2310 C   0  0  0  0  0  0  0  0  0  0  0  0
   39.7740   24.0890   35.9140 N   0  0  0  0  0  0  0  0  0  0  0  0
   38.3030   25.9060   35.4230 N   0  0  0  0  0  0  0  0  0  0  0  0
   38.1750   27.2500   35.8850 C   0  0  0  0  0  0  0  0  0  0  0  0
   37.2570   27.9280   34.9380 C   0  0  0  0  0  0  0  0  0  0  0  0
   36.9430   26.9300   33.8810 C   0  0  0  0  0  0  0  0  0  0  0  0
   38.0130   25.9130   33.9830 C   0  0  2  0  0  0  0  0  0  0  0  0
   37.7370   24.6350   33.4590 N   0  0  0  0  0  0  0  0  0  0  0  0
   37.4300   24.2560   32.1560 C   0  0  0  0  0  0  0  0  0  0  0  0
   37.2400   25.1500   31.2990 N   0  0  0  0  0  0  0  0  0  0  0  0
   37.3280   22.9020   31.6850 N   0  0  0  0  0  0  0  0  0  0  0  0
   37.1880   26.1710   31.4210 H   0  0  0  0  0  0  0  0  0  0  0  0
   39.3520   26.4650   33.6340 N   0  0  0  0  0  0  0  0  0  0  0  0
   40.3550   26.2610   34.4990 N   0  0  0  0  0  0  0  0  0  0  0  0
   41.4830   26.7790   34.0720 C   0  0  0  0  0  0  0  0  0  0  0  0
   41.2610   27.3720   32.8530 C   0  0  0  0  0  0  0  0  0  0  0  0
   39.9210   27.1490   32.6280 C   0  0  0  0  0  0  0  0  0  0  0  0
   41.0817   22.4989   36.3848 H   0  0  0  0  0  0  0  0  0  0  0  0
   39.7899   21.9408   38.5018 H   0  0  0  0  0  0  0  0  0  0  0  0
   37.7715   23.3332   39.0699 H   0  0  0  0  0  0  0  0  0  0  0  0
   37.7540   27.2654   36.9011 H   0  0  0  0  0  0  0  0  0  0  0  0
   39.1518   27.7541   35.9264 H   0  0  0  0  0  0  0  0  0  0  0  0
   36.3370   28.2389   35.4547 H   0  0  0  0  0  0  0  0  0  0  0  0
   37.7155   28.8329   34.5125 H   0  0  0  0  0  0  0  0  0  0  0  0
   36.9527   27.4029   32.8879 H   0  0  0  0  0  0  0  0  0  0  0  0
   35.9428   26.4913   34.0116 H   0  0  0  0  0  0  0  0  0  0  0  0
   37.7669   23.8656   34.1431 H   0  0  0  0  0  0  0  0  0  0  0  0
   37.0950   22.7159   30.6991 H   0  0  0  0  0  0  0  0  0  0  0  0
   37.4879   22.1178   32.3333 H   0  0  0  0  0  0  0  0  0  0  0  0
   42.4461   26.7440   34.6023 H   0  0  0  0  0  0  0  0  0  0  0  0
   41.9815   27.8990   32.2102 H   0  0  0  0  0  0  0  0  0  0  0  0
   39.3815   27.4900   31.7321 H   0  0  0  0  0  0  0  0  0  0  0  0
  1  2  2  0
  2  3  1  0
  4  3  2  0
  5  4  1  0
  6  5  2  0
  6  1  1  0
  7  8  1  0
  7  5  1  0
  9  8  1  0
 10 11  1  0
 10  9  1  0
 11 12  1  6
 11  7  1  0
 13 12  1  0
 14 16  1  0
 14 13  2  0
 15 13  1  0
 17 11  1  0
 17 18  1  0
 19 18  2  0
 20 19  1  0
 21 20  2  0
 21 17  1  0
  1 22  1  0
  2 23  1  0
  3 24  1  0
  8 25  1  0
  8 26  1  0
  9 27  1  0
  9 28  1  0
 10 29  1  0
 10 30  1  0
 12 31  1  0
 15 32  1  0
 15 33  1  0
 19 34  1  0
 20 35  1  0
 21 36  1  0
M  ISO  8  22  14  23  14  24  14  25  13  26  13  27  13  28  13  29  13
M  ISO  4  30  13  34  14  35  14  36  14
M  END
>  <minimizedAffinity>  (1) 
-4.97048759

>  <minimizedRMSD>  (1) 
0.524015188

$$$$
