
     RDKit          3D

 32 33  0  0  1  0  0  0  0  0999 V2000
   40.5090   22.8290   35.9950 C   0  0  0  0  0  0  0  0  0  0  0  0
   40.0190   22.4030   37.2590 C   0  0  0  0  0  0  0  0  0  0  0  0
   39.0030   23.1560   37.8560 C   0  0  0  0  0  0  0  0  0  0  0  0
   38.5280   24.2480   37.2190 N   0  0  0  0  0  0  0  0  0  0  0  0
   39.0070   24.6190   36.0400 C   0  0  0  0  0  0  0  0  0  0  0  0
   39.9850   23.9120   35.4450 N   0  0  0  0  0  0  0  0  0  0  0  0
   38.4860   25.7640   35.4400 N   0  0  0  0  0  0  0  0  0  0  0  0
   38.3050   26.9990   36.1520 C   0  0  0  0  0  0  0  0  0  0  0  0
   37.6040   27.9310   35.2860 C   0  0  0  0  0  0  0  0  0  0  0  0
   37.0480   27.0430   34.2280 C   0  0  0  0  0  0  0  0  0  0  0  0
   38.0890   25.9980   34.0540 C   0  0  2  0  0  0  0  0  0  0  0  0
   37.5870   24.7780   33.5080 N   0  0  0  0  0  0  0  0  0  0  0  0
   37.0940   24.4710   32.2450 C   0  0  0  0  0  0  0  0  0  0  0  0
   36.9550   25.4390   31.4490 N   0  0  0  0  0  0  0  0  0  0  0  0
   36.7460   23.1900   31.7350 N   0  0  0  0  0  0  0  0  0  0  0  0
   36.8560   26.4100   31.7310 H   0  0  0  0  0  0  0  0  0  0  0  0
   39.4430   26.5060   33.5950 C   0  0  0  0  0  0  0  0  0  0  0  0
   40.1040   27.3290   34.4250 F   0  0  0  0  0  0  0  0  0  0  0  0
   39.2010   27.5610   32.5970 F   0  0  0  0  0  0  0  0  0  0  0  0
   40.1340   25.7280   32.7060 F   0  0  0  0  0  0  0  0  0  0  0  0
   41.3072   22.2700   35.4847 H   0  0  0  0  0  0  0  0  0  0  0  0
   40.4264   21.5084   37.7527 H   0  0  0  0  0  0  0  0  0  0  0  0
   38.5950   22.8619   38.8343 H   0  0  0  0  0  0  0  0  0  0  0  0
   37.7125   26.8198   37.0613 H   0  0  0  0  0  0  0  0  0  0  0  0
   39.2817   27.4144   36.4411 H   0  0  0  0  0  0  0  0  0  0  0  0
   36.8011   28.4502   35.8299 H   0  0  0  0  0  0  0  0  0  0  0  0
   38.2502   28.7284   34.8903 H   0  0  0  0  0  0  0  0  0  0  0  0
   36.0962   26.5969   34.5521 H   0  0  0  0  0  0  0  0  0  0  0  0
   36.8283   27.5820   33.2946 H   0  0  0  0  0  0  0  0  0  0  0  0
   37.5908   23.9856   34.1660 H   0  0  0  0  0  0  0  0  0  0  0  0
   36.3889   23.0982   30.7733 H   0  0  0  0  0  0  0  0  0  0  0  0
   36.8511   22.3539   32.3273 H   0  0  0  0  0  0  0  0  0  0  0  0
  1  2  2  0
  2  3  1  0
  4  3  2  0
  5  4  1  0
  6  1  1  0
  6  5  2  0
  7  5  1  0
  7  8  1  0
  9  8  1  0
 10  9  1  0
 11 12  1  6
 11 10  1  0
 11  7  1  0
 13 12  1  0
 14 16  1  0
 14 13  2  0
 15 13  1  0
 17 11  1  0
 17 18  1  0
 19 17  1  0
 20 17  1  0
  1 21  1  0
  2 22  1  0
  3 23  1  0
  8 24  1  0
  8 25  1  0
  9 26  1  0
  9 27  1  0
 10 28  1  0
 10 29  1  0
 12 30  1  0
 15 31  1  0
 15 32  1  0
M  ISO  8  21  14  22  14  23  14  24  13  25  13  26  13  27  13  28  13
M  ISO  1  29  13
M  END
>  <minimizedAffinity>  (1) 
-4.77619362

>  <minimizedRMSD>  (1) 
0.733566046

$$$$
