
     RDKit          3D

 35 37  0  0  1  0  0  0  0  0999 V2000
   40.2060   23.0690   36.6780 C   0  0  0  0  0  0  0  0  0  0  0  0
   39.4930   22.7620   37.8610 C   0  0  0  0  0  0  0  0  0  0  0  0
   38.3770   23.5410   38.1700 C   0  0  0  0  0  0  0  0  0  0  0  0
   38.0150   24.5530   37.3430 N   0  0  0  0  0  0  0  0  0  0  0  0
   38.7090   24.8190   36.2350 C   0  0  0  0  0  0  0  0  0  0  0  0
   39.7900   24.0750   35.9210 N   0  0  0  0  0  0  0  0  0  0  0  0
   38.3190   25.8900   35.4200 N   0  0  0  0  0  0  0  0  0  0  0  0
   38.2000   27.2390   35.8700 C   0  0  0  0  0  0  0  0  0  0  0  0
   37.2700   27.9100   34.9250 C   0  0  0  0  0  0  0  0  0  0  0  0
   36.9300   26.8930   33.8830 C   0  0  0  0  0  0  0  0  0  0  0  0
   38.0140   25.8890   33.9820 C   0  0  2  0  0  0  0  0  0  0  0  0
   37.7590   24.6080   33.4630 N   0  0  0  0  0  0  0  0  0  0  0  0
   37.4350   24.2040   32.1700 C   0  0  0  0  0  0  0  0  0  0  0  0
   37.2340   25.0880   31.3060 N   0  0  0  0  0  0  0  0  0  0  0  0
   37.3350   22.8510   31.7210 N   0  0  0  0  0  0  0  0  0  0  0  0
   37.1610   26.1110   31.4210 H   0  0  0  0  0  0  0  0  0  0  0  0
   39.3380   26.4790   33.6180 N   0  0  0  0  0  0  0  0  0  0  0  0
   39.8460   27.1880   32.5910 C   0  0  0  0  0  0  0  0  0  0  0  0
   41.1490   27.4100   32.8430 N   0  0  0  0  0  0  0  0  0  0  0  0
   41.4650   26.8580   34.0030 C   0  0  0  0  0  0  0  0  0  0  0  0
   40.3690   26.3000   34.4620 N   0  0  0  0  0  0  0  0  0  0  0  0
   41.0912   22.4825   36.3909 H   0  0  0  0  0  0  0  0  0  0  0  0
   39.8081   21.9362   38.5158 H   0  0  0  0  0  0  0  0  0  0  0  0
   37.7940   23.3352   39.0798 H   0  0  0  0  0  0  0  0  0  0  0  0
   37.7915   27.2659   36.8910 H   0  0  0  0  0  0  0  0  0  0  0  0
   39.1783   27.7414   35.8948 H   0  0  0  0  0  0  0  0  0  0  0  0
   36.3606   28.2357   35.4513 H   0  0  0  0  0  0  0  0  0  0  0  0
   37.7284   28.8045   34.4781 H   0  0  0  0  0  0  0  0  0  0  0  0
   36.9133   27.3507   32.8829 H   0  0  0  0  0  0  0  0  0  0  0  0
   35.9341   26.4518   34.0364 H   0  0  0  0  0  0  0  0  0  0  0  0
   37.8220   23.8437   34.1506 H   0  0  0  0  0  0  0  0  0  0  0  0
   37.0884   22.6504   30.7413 H   0  0  0  0  0  0  0  0  0  0  0  0
   37.5095   22.0764   32.3771 H   0  0  0  0  0  0  0  0  0  0  0  0
   39.2926   27.5260   31.7025 H   0  0  0  0  0  0  0  0  0  0  0  0
   42.4524   26.8652   34.4878 H   0  0  0  0  0  0  0  0  0  0  0  0
  1  2  2  0
  2  3  1  0
  4  3  2  0
  5  4  1  0
  6  5  2  0
  6  1  1  0
  7  8  1  0
  7  5  1  0
  9  8  1  0
 10 11  1  0
 10  9  1  0
 11 12  1  6
 11  7  1  0
 13 12  1  0
 14 16  1  0
 14 13  2  0
 15 13  1  0
 17 11  1  0
 17 21  1  0
 18 19  2  0
 18 17  1  0
 19 20  1  0
 20 21  2  0
  1 22  1  0
  2 23  1  0
  3 24  1  0
  8 25  1  0
  8 26  1  0
  9 27  1  0
  9 28  1  0
 10 29  1  0
 10 30  1  0
 12 31  1  0
 15 32  1  0
 15 33  1  0
 18 34  1  0
 20 35  1  0
M  ISO  8  22  14  23  14  24  14  25  13  26  13  27  13  28  13  29  13
M  ISO  3  30  13  34  14  35  14
M  END
>  <minimizedAffinity>  (1) 
-4.88606167

>  <minimizedRMSD>  (1) 
0.469076127

$$$$
