
     RDKit          3D

 42 44  0  0  1  0  0  0  0  0999 V2000
   40.1490   23.0600   36.7230 C   0  0  0  0  0  0  0  0  0  0  0  0
   39.4400   22.8380   37.9280 C   0  0  0  0  0  0  0  0  0  0  0  0
   38.3580   23.6720   38.2100 C   0  0  0  0  0  0  0  0  0  0  0  0
   38.0300   24.6500   37.3330 N   0  0  0  0  0  0  0  0  0  0  0  0
   38.7200   24.8350   36.2020 C   0  0  0  0  0  0  0  0  0  0  0  0
   39.7660   24.0370   35.9180 N   0  0  0  0  0  0  0  0  0  0  0  0
   38.3320   25.8760   35.3480 N   0  0  0  0  0  0  0  0  0  0  0  0
   38.1460   27.2440   35.7550 C   0  0  0  0  0  0  0  0  0  0  0  0
   37.1400   27.8130   34.8210 C   0  0  0  0  0  0  0  0  0  0  0  0
   36.8860   26.7770   33.8040 C   0  0  0  0  0  0  0  0  0  0  0  0
   38.0590   25.8610   33.9030 C   0  0  2  0  0  0  0  0  0  0  0  0
   37.7400   24.5440   33.4830 N   0  0  0  0  0  0  0  0  0  0  0  0
   37.5230   24.0040   32.2210 C   0  0  0  0  0  0  0  0  0  0  0  0
   37.5500   24.7960   31.2490 N   0  0  0  0  0  0  0  0  0  0  0  0
   37.2970   22.6370   31.8980 N   0  0  0  0  0  0  0  0  0  0  0  0
   37.5740   25.8280   31.2650 H   0  0  0  0  0  0  0  0  0  0  0  0
   39.2570   26.4790   33.4590 N   0  0  0  0  0  0  0  0  0  0  0  0
   40.4360   26.4110   34.2010 C   0  0  0  0  0  0  0  0  0  0  0  0
   41.6890   26.5170   33.3110 C   0  0  0  0  0  0  0  0  0  0  0  0
   41.5780   27.5830   32.4300 O   0  0  0  0  0  0  0  0  0  0  0  0
   40.5890   27.1980   31.5340 C   0  0  0  0  0  0  0  0  0  0  0  0
   39.2790   27.3070   32.3060 C   0  0  0  0  0  0  0  0  0  0  0  0
   41.0090   22.4269   36.4591 H   0  0  0  0  0  0  0  0  0  0  0  0
   39.7328   22.0341   38.6194 H   0  0  0  0  0  0  0  0  0  0  0  0
   37.7777   23.5366   39.1346 H   0  0  0  0  0  0  0  0  0  0  0  0
   37.7757   27.2884   36.7898 H   0  0  0  0  0  0  0  0  0  0  0  0
   39.0905   27.8069   35.7235 H   0  0  0  0  0  0  0  0  0  0  0  0
   36.2119   28.0523   35.3607 H   0  0  0  0  0  0  0  0  0  0  0  0
   37.5035   28.7437   34.3610 H   0  0  0  0  0  0  0  0  0  0  0  0
   36.8251   27.2237   32.8006 H   0  0  0  0  0  0  0  0  0  0  0  0
   35.9321   26.2544   33.9684 H   0  0  0  0  0  0  0  0  0  0  0  0
   37.6536   23.8651   34.2528 H   0  0  0  0  0  0  0  0  0  0  0  0
   37.1479   22.3572   30.9180 H   0  0  0  0  0  0  0  0  0  0  0  0
   37.2825   21.9271   32.6441 H   0  0  0  0  0  0  0  0  0  0  0  0
   40.4460   27.2372   34.9271 H   0  0  0  0  0  0  0  0  0  0  0  0
   40.4617   25.4344   34.7065 H   0  0  0  0  0  0  0  0  0  0  0  0
   42.5728   26.6665   33.9486 H   0  0  0  0  0  0  0  0  0  0  0  0
   41.7889   25.5882   32.7302 H   0  0  0  0  0  0  0  0  0  0  0  0
   40.7540   26.1630   31.2000 H   0  0  0  0  0  0  0  0  0  0  0  0
   40.5861   27.8279   30.6322 H   0  0  0  0  0  0  0  0  0  0  0  0
   39.1402   28.3522   32.6196 H   0  0  0  0  0  0  0  0  0  0  0  0
   38.4696   26.9738   31.6397 H   0  0  0  0  0  0  0  0  0  0  0  0
  1  2  2  0
  2  3  1  0
  4  3  2  0
  5  4  1  0
  6  5  2  0
  6  1  1  0
  7  8  1  0
  7  5  1  0
  9  8  1  0
 10 11  1  0
 10  9  1  0
 11 12  1  6
 11  7  1  0
 13 12  1  0
 14 16  1  0
 14 13  2  0
 15 13  1  0
 17 11  1  0
 17 18  1  0
 19 18  1  0
 20 19  1  0
 21 22  1  0
 21 20  1  0
 22 17  1  0
  1 23  1  0
  2 24  1  0
  3 25  1  0
  8 26  1  0
  8 27  1  0
  9 28  1  0
  9 29  1  0
 10 30  1  0
 10 31  1  0
 12 32  1  0
 15 33  1  0
 15 34  1  0
 18 35  1  0
 18 36  1  0
 19 37  1  0
 19 38  1  0
 21 39  1  0
 21 40  1  0
 22 41  1  0
 22 42  1  0
M  ISO  8  23  14  24  14  25  14  26  13  27  13  28  13  29  13  30  13
M  ISO  8  31  13  35  13  36  13  37  13  38  13  39  13  40  13  41  13
M  ISO  1  42  13
M  END
>  <minimizedAffinity>  (1) 
-4.83674383

>  <minimizedRMSD>  (1) 
0.665373623

$$$$
