
     RDKit          3D

 49 52  0  0  1  0  0  0  0  0999 V2000
   40.1360   23.0520   36.6720 C   0  0  0  0  0  0  0  0  0  0  0  0
   39.4680   22.8410   37.8950 C   0  0  0  0  0  0  0  0  0  0  0  0
   38.4030   23.6740   38.1850 C   0  0  0  0  0  0  0  0  0  0  0  0
   38.0450   24.6360   37.3140 N   0  0  0  0  0  0  0  0  0  0  0  0
   38.6850   24.8170   36.1730 C   0  0  0  0  0  0  0  0  0  0  0  0
   39.7200   24.0230   35.8690 N   0  0  0  0  0  0  0  0  0  0  0  0
   38.2920   25.8310   35.3090 N   0  0  0  0  0  0  0  0  0  0  0  0
   38.1120   27.1790   35.7310 C   0  0  0  0  0  0  0  0  0  0  0  0
   37.3310   27.8670   34.7410 C   0  0  0  0  0  0  0  0  0  0  0  0
   36.9240   26.8210   33.7420 C   0  0  0  0  0  0  0  0  0  0  0  0
   37.9890   25.8580   33.8730 C   0  0  2  0  0  0  0  0  0  0  0  0
   37.7070   24.5130   33.4700 N   0  0  0  0  0  0  0  0  0  0  0  0
   37.0160   23.9670   32.3850 C   0  0  0  0  0  0  0  0  0  0  0  0
   36.5520   24.7930   31.5450 N   0  0  0  0  0  0  0  0  0  0  0  0
   36.7800   22.5970   32.1130 N   0  0  0  0  0  0  0  0  0  0  0  0
   36.4760   25.7700   31.6350 H   0  0  0  0  0  0  0  0  0  0  0  0
   39.2470   26.4970   33.3990 C   0  0  0  0  0  0  0  0  0  0  0  0
   39.7230   26.3650   32.0480 C   0  0  0  0  0  0  0  0  0  0  0  0
   40.2500   27.3830   31.1980 C   0  0  0  0  0  0  0  0  0  0  0  0
   41.5450   27.7040   31.0840 N   0  0  0  0  0  0  0  0  0  0  0  0
   41.9610   28.6190   30.2310 C   0  0  0  0  0  0  0  0  0  0  0  0
   41.1510   29.3130   29.4040 N   0  0  0  0  0  0  0  0  0  0  0  0
   39.8210   29.0380   29.4670 C   0  0  0  0  0  0  0  0  0  0  0  0
   39.0640   29.7600   28.5930 C   0  0  0  0  0  0  0  0  0  0  0  0
   37.6960   29.5220   28.5790 C   0  0  0  0  0  0  0  0  0  0  0  0
   37.2100   28.5760   29.4490 C   0  0  0  0  0  0  0  0  0  0  0  0
   38.0390   27.8870   30.3050 C   0  0  0  0  0  0  0  0  0  0  0  0
   39.4110   28.0880   30.3570 C   0  0  0  0  0  0  0  0  0  0  0  0
   40.9904   22.4205   36.3871 H   0  0  0  0  0  0  0  0  0  0  0  0
   39.7806   22.0473   38.5894 H   0  0  0  0  0  0  0  0  0  0  0  0
   37.8486   23.5506   39.1270 H   0  0  0  0  0  0  0  0  0  0  0  0
   37.5864   27.1982   36.6971 H   0  0  0  0  0  0  0  0  0  0  0  0
   39.0891   27.6705   35.8481 H   0  0  0  0  0  0  0  0  0  0  0  0
   36.4424   28.3224   35.2025 H   0  0  0  0  0  0  0  0  0  0  0  0
   37.9019   28.6792   34.2673 H   0  0  0  0  0  0  0  0  0  0  0  0
   36.8812   27.2348   32.7237 H   0  0  0  0  0  0  0  0  0  0  0  0
   35.9216   26.4034   33.9176 H   0  0  0  0  0  0  0  0  0  0  0  0
   38.0918   23.8038   34.1102 H   0  0  0  0  0  0  0  0  0  0  0  0
   36.2521   22.3224   31.2723 H   0  0  0  0  0  0  0  0  0  0  0  0
   37.1363   21.8755   32.7559 H   0  0  0  0  0  0  0  0  0  0  0  0
   39.1261   27.5760   33.5755 H   0  0  0  0  0  0  0  0  0  0  0  0
   40.0085   25.9360   33.9606 H   0  0  0  0  0  0  0  0  0  0  0  0
   40.5215   25.6107   32.1068 H   0  0  0  0  0  0  0  0  0  0  0  0
   38.7561   26.2140   31.5457 H   0  0  0  0  0  0  0  0  0  0  0  0
   43.0396   28.8309   30.1906 H   0  0  0  0  0  0  0  0  0  0  0  0
   39.5201   30.5039   27.9233 H   0  0  0  0  0  0  0  0  0  0  0  0
   37.0276   30.0694   27.8981 H   0  0  0  0  0  0  0  0  0  0  0  0
   36.1307   28.3638   29.4617 H   0  0  0  0  0  0  0  0  0  0  0  0
   37.5927   27.1417   30.9798 H   0  0  0  0  0  0  0  0  0  0  0  0
  1  2  2  0
  2  3  1  0
  4  3  2  0
  5  4  1  0
  6  5  2  0
  6  1  1  0
  7  8  1  0
  7  5  1  0
  9  8  1  0
 10 11  1  0
 10  9  1  0
 11 17  1  0
 11  7  1  0
 11 12  1  6
 13 12  1  0
 14 16  1  0
 14 13  2  0
 15 13  1  0
 18 17  1  0
 19 18  1  0
 20 19  2  0
 21 20  1  0
 22 23  1  0
 22 21  2  0
 23 28  2  0
 24 23  1  0
 25 24  2  0
 25 26  1  0
 26 27  2  0
 27 28  1  0
 28 19  1  0
  1 29  1  0
  2 30  1  0
  3 31  1  0
  8 32  1  0
  8 33  1  0
  9 34  1  0
  9 35  1  0
 10 36  1  0
 10 37  1  0
 12 38  1  0
 15 39  1  0
 15 40  1  0
 17 41  1  0
 17 42  1  0
 18 43  1  0
 18 44  1  0
 21 45  1  0
 24 46  1  0
 25 47  1  0
 26 48  1  0
 27 49  1  0
M  ISO  8  29  14  30  14  31  14  32  13  33  13  34  13  35  13  36  13
M  ISO  8  37  13  41   8  42   8  43   8  44   8  45  14  46  14  47  14
M  ISO  2  48  14  49  14
M  END
>  <minimizedAffinity>  (1) 
-5.56361866

>  <minimizedRMSD>  (1) 
1.75711763

$$$$
