
     RDKit          3D

 35 36  0  0  1  0  0  0  0  0999 V2000
   40.3450   22.9820   36.4710 C   0  0  0  0  0  0  0  0  0  0  0  0
   39.7100   22.6490   37.6930 C   0  0  0  0  0  0  0  0  0  0  0  0
   38.6350   23.4380   38.1070 C   0  0  0  0  0  0  0  0  0  0  0  0
   38.2420   24.4800   37.3410 N   0  0  0  0  0  0  0  0  0  0  0  0
   38.8590   24.7700   36.1970 C   0  0  0  0  0  0  0  0  0  0  0  0
   39.8960   24.0190   35.7820 N   0  0  0  0  0  0  0  0  0  0  0  0
   38.4160   25.8650   35.4570 N   0  0  0  0  0  0  0  0  0  0  0  0
   38.2200   27.1700   36.0200 C   0  0  0  0  0  0  0  0  0  0  0  0
   37.4240   27.9560   35.0730 C   0  0  0  0  0  0  0  0  0  0  0  0
   36.9700   26.9700   34.0490 C   0  0  0  0  0  0  0  0  0  0  0  0
   38.0950   25.9970   34.0370 C   0  0  2  0  0  0  0  0  0  0  0  0
   37.7740   24.7320   33.5050 N   0  0  0  0  0  0  0  0  0  0  0  0
   37.0720   24.2950   32.3980 C   0  0  0  0  0  0  0  0  0  0  0  0
   36.5670   25.2020   31.6710 N   0  0  0  0  0  0  0  0  0  0  0  0
   36.8720   22.9510   31.9700 N   0  0  0  0  0  0  0  0  0  0  0  0
   36.4740   26.1910   31.8840 H   0  0  0  0  0  0  0  0  0  0  0  0
   39.3130   26.7610   33.6200 C   0  0  0  0  0  0  0  0  0  0  0  0
   39.5520   27.0650   32.2060 C   0  0  0  0  0  0  0  0  0  0  0  0
   41.1953   22.3898   36.1018 H   0  0  0  0  0  0  0  0  0  0  0  0
   40.0531   21.7958   38.2966 H   0  0  0  0  0  0  0  0  0  0  0  0
   38.1124   23.2135   39.0485 H   0  0  0  0  0  0  0  0  0  0  0  0
   37.6859   27.0870   36.9781 H   0  0  0  0  0  0  0  0  0  0  0  0
   39.1891   27.6575   36.2021 H   0  0  0  0  0  0  0  0  0  0  0  0
   36.5616   28.4149   35.5786 H   0  0  0  0  0  0  0  0  0  0  0  0
   38.0007   28.7809   34.6292 H   0  0  0  0  0  0  0  0  0  0  0  0
   36.0277   26.4879   34.3484 H   0  0  0  0  0  0  0  0  0  0  0  0
   36.7591   27.4165   33.0661 H   0  0  0  0  0  0  0  0  0  0  0  0
   38.1480   23.9564   34.0703 H   0  0  0  0  0  0  0  0  0  0  0  0
   36.3241   22.7575   31.1196 H   0  0  0  0  0  0  0  0  0  0  0  0
   37.2753   22.1728   32.5110 H   0  0  0  0  0  0  0  0  0  0  0  0
   39.2764   27.7253   34.1480 H   0  0  0  0  0  0  0  0  0  0  0  0
   40.1341   26.0722   33.8674 H   0  0  0  0  0  0  0  0  0  0  0  0
   40.2301   27.9275   32.1259 H   0  0  0  0  0  0  0  0  0  0  0  0
   40.0087   26.1927   31.7155 H   0  0  0  0  0  0  0  0  0  0  0  0
   38.5966   27.3029   31.7155 H   0  0  0  0  0  0  0  0  0  0  0  0
  1  2  2  0
  2  3  1  0
  4  3  2  0
  5  4  1  0
  6  5  2  0
  6  1  1  0
  7  8  1  0
  7  5  1  0
  9  8  1  0
 10  9  1  0
 11 17  1  0
 11 10  1  0
 11  7  1  0
 11 12  1  6
 13 12  1  0
 14 16  1  0
 14 13  2  0
 15 13  1  0
 18 17  1  0
  1 19  1  0
  2 20  1  0
  3 21  1  0
  8 22  1  0
  8 23  1  0
  9 24  1  0
  9 25  1  0
 10 26  1  0
 10 27  1  0
 12 28  1  0
 15 29  1  0
 15 30  1  0
 17 31  1  0
 17 32  1  0
 18 33  1  0
 18 34  1  0
 18 35  1  0
M  ISO  8  19  14  20  14  21  14  22  13  23  13  24  13  25  13  26  13
M  ISO  6  27  13  31   8  32   8  33   8  34   8  35   8
M  END
>  <minimizedAffinity>  (1) 
-4.49606276

>  <minimizedRMSD>  (1) 
0.850175917

$$$$
