
     RDKit          3D

 45 47  0  0  1  0  0  0  0  0999 V2000
   40.2970   22.9420   36.5900 C   0  0  0  0  0  0  0  0  0  0  0  0
   39.6840   22.6920   37.8460 C   0  0  0  0  0  0  0  0  0  0  0  0
   38.6130   23.4980   38.2230 C   0  0  0  0  0  0  0  0  0  0  0  0
   38.1950   24.4800   37.3950 N   0  0  0  0  0  0  0  0  0  0  0  0
   38.7850   24.6950   36.2250 C   0  0  0  0  0  0  0  0  0  0  0  0
   39.8300   23.9240   35.8330 N   0  0  0  0  0  0  0  0  0  0  0  0
   38.3310   25.7270   35.4090 N   0  0  0  0  0  0  0  0  0  0  0  0
   38.1550   27.0510   35.8800 C   0  0  0  0  0  0  0  0  0  0  0  0
   37.3280   27.7620   34.9460 C   0  0  0  0  0  0  0  0  0  0  0  0
   36.8930   26.7620   33.9200 C   0  0  0  0  0  0  0  0  0  0  0  0
   37.9510   25.7770   33.9930 C   0  0  2  0  0  0  0  0  0  0  0  0
   37.6740   24.4410   33.5680 N   0  0  0  0  0  0  0  0  0  0  0  0
   36.9880   23.9210   32.4700 C   0  0  0  0  0  0  0  0  0  0  0  0
   36.5180   24.7490   31.6600 N   0  0  0  0  0  0  0  0  0  0  0  0
   36.7710   22.5490   32.1620 N   0  0  0  0  0  0  0  0  0  0  0  0
   36.4430   25.7280   31.7610 H   0  0  0  0  0  0  0  0  0  0  0  0
   39.1770   26.4420   33.4680 C   0  0  0  0  0  0  0  0  0  0  0  0
   39.8100   26.0520   32.2300 C   0  0  0  0  0  0  0  0  0  0  0  0
   39.5270   26.5340   30.9530 N   0  0  0  0  0  0  0  0  0  0  0  0
   38.9530   27.7780   31.2280 C   0  0  0  0  0  0  0  0  0  0  0  0
   38.3970   28.6900   30.3090 C   0  0  0  0  0  0  0  0  0  0  0  0
   38.4110   28.3330   28.9630 C   0  0  0  0  0  0  0  0  0  0  0  0
   37.9860   28.9580   27.9670 O   0  0  0  0  0  0  0  0  0  0  0  0
   38.9600   27.1450   28.6740 N   0  0  0  0  0  0  0  0  0  0  0  0
   39.4540   26.3700   29.6330 C   0  0  0  0  0  0  0  0  0  0  0  0
   39.9810   25.2680   29.3620 O   0  0  0  0  0  0  0  0  0  0  0  0
   41.1460   22.3303   36.2508 H   0  0  0  0  0  0  0  0  0  0  0  0
   40.0444   21.8857   38.5017 H   0  0  0  0  0  0  0  0  0  0  0  0
   38.1109   23.3362   39.1882 H   0  0  0  0  0  0  0  0  0  0  0  0
   37.6685   27.0321   36.8664 H   0  0  0  0  0  0  0  0  0  0  0  0
   39.1309   27.5498   35.9742 H   0  0  0  0  0  0  0  0  0  0  0  0
   36.4523   28.1860   35.4592 H   0  0  0  0  0  0  0  0  0  0  0  0
   37.8757   28.5960   34.4829 H   0  0  0  0  0  0  0  0  0  0  0  0
   36.8368   27.2148   32.9191 H   0  0  0  0  0  0  0  0  0  0  0  0
   35.8894   26.3493   34.1002 H   0  0  0  0  0  0  0  0  0  0  0  0
   38.0562   23.7197   34.1962 H   0  0  0  0  0  0  0  0  0  0  0  0
   36.2451   22.2881   31.3157 H   0  0  0  0  0  0  0  0  0  0  0  0
   37.1398   21.8167   32.7853 H   0  0  0  0  0  0  0  0  0  0  0  0
   38.9215   27.5061   33.3566 H   0  0  0  0  0  0  0  0  0  0  0  0
   39.9303   26.1353   34.2086 H   0  0  0  0  0  0  0  0  0  0  0  0
   40.8794   26.2611   32.3808 H   0  0  0  0  0  0  0  0  0  0  0  0
   39.3940   25.0385   32.1315 H   0  0  0  0  0  0  0  0  0  0  0  0
   38.9328   28.0806   32.2854 H   0  0  0  0  0  0  0  0  0  0  0  0
   37.9685   29.6469   30.6419 H   0  0  0  0  0  0  0  0  0  0  0  0
   38.9994   26.8286   27.6946 H   0  0  0  0  0  0  0  0  0  0  0  0
  1  2  2  0
  2  3  1  0
  4  3  2  0
  5  4  1  0
  6  5  2  0
  6  1  1  0
  7  8  1  0
  7  5  1  0
  9  8  1  0
 10 11  1  0
 10  9  1  0
 11 17  1  0
 11  7  1  0
 11 12  1  6
 13 12  1  0
 14 16  1  0
 14 13  2  0
 15 13  1  0
 18 17  1  0
 19 20  1  0
 19 18  1  0
 21 20  2  0
 22 21  1  0
 23 22  2  0
 24 22  1  0
 24 25  1  0
 25 19  1  0
 26 25  2  0
  1 27  1  0
  2 28  1  0
  3 29  1  0
  8 30  1  0
  8 31  1  0
  9 32  1  0
  9 33  1  0
 10 34  1  0
 10 35  1  0
 12 36  1  0
 15 37  1  0
 15 38  1  0
 17 39  1  0
 17 40  1  0
 18 41  1  0
 18 42  1  0
 20 43  1  0
 21 44  1  0
 24 45  1  0
M  ISO  8  27  14  28  14  29  14  30  13  31  13  32  13  33  13  34  13
M  ISO  8  35  13  39   8  40   8  41   8  42   8  43  14  44  14  45   9
M  END
>  <minimizedAffinity>  (1) 
-5.22719669

>  <minimizedRMSD>  (1) 
1.57264221

$$$$
