
     RDKit          3D

 43 45  0  0  1  0  0  0  0  0999 V2000
   40.5260   22.8940   35.8290 C   0  0  0  0  0  0  0  0  0  0  0  0
   40.0210   22.4180   37.0530 C   0  0  0  0  0  0  0  0  0  0  0  0
   39.0070   23.1460   37.6550 C   0  0  0  0  0  0  0  0  0  0  0  0
   38.5510   24.2610   37.0540 N   0  0  0  0  0  0  0  0  0  0  0  0
   39.0400   24.6920   35.8990 C   0  0  0  0  0  0  0  0  0  0  0  0
   40.0180   24.0020   35.3080 N   0  0  0  0  0  0  0  0  0  0  0  0
   38.5310   25.8610   35.3310 N   0  0  0  0  0  0  0  0  0  0  0  0
   38.4070   27.0670   36.0550 C   0  0  0  0  0  0  0  0  0  0  0  0
   37.4960   27.9230   35.3430 C   0  0  0  0  0  0  0  0  0  0  0  0
   36.9780   27.1150   34.1910 C   0  0  0  0  0  0  0  0  0  0  0  0
   38.0400   26.1560   33.9770 C   0  0  2  0  0  0  0  0  0  0  0  0
   37.7000   24.9230   33.3540 N   0  0  0  0  0  0  0  0  0  0  0  0
   36.8180   24.5890   32.3240 C   0  0  0  0  0  0  0  0  0  0  0  0
   36.1660   25.5450   31.8050 N   0  0  0  0  0  0  0  0  0  0  0  0
   36.5660   23.2990   31.7860 N   0  0  0  0  0  0  0  0  0  0  0  0
   36.0950   26.4740   32.1260 H   0  0  0  0  0  0  0  0  0  0  0  0
   39.1950   26.9500   33.5020 C   0  0  0  0  0  0  0  0  0  0  0  0
   39.5230   27.0730   32.0940 C   0  0  0  0  0  0  0  0  0  0  0  0
   38.6800   27.6870   31.0980 C   0  0  0  0  0  0  0  0  0  0  0  0
   39.3980   27.7010   29.8690 C   0  0  0  0  0  0  0  0  0  0  0  0
   39.0080   28.1890   28.6370 C   0  0  0  0  0  0  0  0  0  0  0  0
   37.7850   28.7230   28.5920 N   0  0  0  0  0  0  0  0  0  0  0  0
   37.0350   28.7570   29.6870 C   0  0  0  0  0  0  0  0  0  0  0  0
   37.5380   28.2600   30.7660 N   0  0  0  0  0  0  0  0  0  0  0  0
   41.3320   22.3536   35.3111 H   0  0  0  0  0  0  0  0  0  0  0  0
   40.4166   21.5015   37.5152 H   0  0  0  0  0  0  0  0  0  0  0  0
   38.5794   22.8164   38.6134 H   0  0  0  0  0  0  0  0  0  0  0  0
   38.0144   26.8593   37.0613 H   0  0  0  0  0  0  0  0  0  0  0  0
   39.3882   27.5540   36.1559 H   0  0  0  0  0  0  0  0  0  0  0  0
   36.6670   28.2274   35.9988 H   0  0  0  0  0  0  0  0  0  0  0  0
   37.9947   28.8406   34.9974 H   0  0  0  0  0  0  0  0  0  0  0  0
   36.0348   26.6120   34.4507 H   0  0  0  0  0  0  0  0  0  0  0  0
   36.7473   27.7189   33.3010 H   0  0  0  0  0  0  0  0  0  0  0  0
   38.2064   24.1136   33.7405 H   0  0  0  0  0  0  0  0  0  0  0  0
   35.8860   23.1839   31.0210 H   0  0  0  0  0  0  0  0  0  0  0  0
   37.0632   22.4785   32.1609 H   0  0  0  0  0  0  0  0  0  0  0  0
   39.0355   27.9741   33.8704 H   0  0  0  0  0  0  0  0  0  0  0  0
   40.0457   26.3670   33.8846 H   0  0  0  0  0  0  0  0  0  0  0  0
   40.4699   27.6319   32.0614 H   0  0  0  0  0  0  0  0  0  0  0  0
   39.4608   26.0195   31.7836 H   0  0  0  0  0  0  0  0  0  0  0  0
   40.4056   27.2612   29.9055 H   0  0  0  0  0  0  0  0  0  0  0  0
   39.6607   28.1410   27.7529 H   0  0  0  0  0  0  0  0  0  0  0  0
   36.0246   29.1918   29.6747 H   0  0  0  0  0  0  0  0  0  0  0  0
  1  2  2  0
  2  3  1  0
  4  3  2  0
  5  4  1  0
  6  1  1  0
  6  5  2  0
  7  5  1  0
  7  8  1  0
  9  8  1  0
 10  9  1  0
 11 12  1  6
 11 10  1  0
 11  7  1  0
 13 12  1  0
 14 16  1  0
 14 13  2  0
 15 13  1  0
 17 11  1  0
 18 17  1  0
 19 18  1  0
 20 19  2  0
 21 20  1  0
 22 21  2  0
 22 23  1  0
 23 24  2  0
 24 19  1  0
  1 25  1  0
  2 26  1  0
  3 27  1  0
  8 28  1  0
  8 29  1  0
  9 30  1  0
  9 31  1  0
 10 32  1  0
 10 33  1  0
 12 34  1  0
 15 35  1  0
 15 36  1  0
 17 37  1  0
 17 38  1  0
 18 39  1  0
 18 40  1  0
 20 41  1  0
 21 42  1  0
 23 43  1  0
M  ISO  8  25  14  26  14  27  14  28  13  29  13  30  13  31  13  32  13
M  ISO  8  33  13  37   8  38   8  39   8  40   8  41  14  42  14  43  14
M  END
>  <minimizedAffinity>  (1) 
-5.2334671

>  <minimizedRMSD>  (1) 
1.07662117

$$$$
