
     RDKit          3D

 46 48  0  0  1  0  0  0  0  0999 V2000
   40.2490   22.9650   36.5850 C   0  0  0  0  0  0  0  0  0  0  0  0
   39.5820   22.6480   37.7870 C   0  0  0  0  0  0  0  0  0  0  0  0
   38.5150   23.4550   38.1750 C   0  0  0  0  0  0  0  0  0  0  0  0
   38.1610   24.5020   37.3950 N   0  0  0  0  0  0  0  0  0  0  0  0
   38.8110   24.7790   36.2650 C   0  0  0  0  0  0  0  0  0  0  0  0
   39.8420   24.0070   35.8790 N   0  0  0  0  0  0  0  0  0  0  0  0
   38.4160   25.8800   35.5080 N   0  0  0  0  0  0  0  0  0  0  0  0
   38.2520   27.1730   36.0630 C   0  0  0  0  0  0  0  0  0  0  0  0
   37.4390   27.9450   35.1560 C   0  0  0  0  0  0  0  0  0  0  0  0
   37.0570   27.0450   34.0360 C   0  0  0  0  0  0  0  0  0  0  0  0
   38.1070   25.9960   34.0750 C   0  0  2  0  0  0  0  0  0  0  0  0
   37.7900   24.7310   33.5650 N   0  0  0  0  0  0  0  0  0  0  0  0
   37.0620   24.3130   32.4510 C   0  0  0  0  0  0  0  0  0  0  0  0
   36.5340   25.2120   31.7520 N   0  0  0  0  0  0  0  0  0  0  0  0
   36.8600   22.9680   32.0240 N   0  0  0  0  0  0  0  0  0  0  0  0
   36.4840   26.1760   31.9150 H   0  0  0  0  0  0  0  0  0  0  0  0
   39.3320   26.7340   33.6700 C   0  0  0  0  0  0  0  0  0  0  0  0
   39.5510   27.1970   32.3260 C   0  0  0  0  0  0  0  0  0  0  0  0
   39.7400   26.4730   31.1680 N   0  0  0  0  0  0  0  0  0  0  0  0
   40.1080   25.2930   30.6560 C   0  0  0  0  0  0  0  0  0  0  0  0
   40.1280   24.9020   29.3460 C   0  0  0  0  0  0  0  0  0  0  0  0
   39.7350   25.7700   28.3540 C   0  0  0  0  0  0  0  0  0  0  0  0
   39.8030   25.2440   27.0500 N   0  0  0  0  0  0  0  0  0  0  0  0
   39.3390   27.0000   28.7680 N   0  0  0  0  0  0  0  0  0  0  0  0
   39.3590   27.2860   30.1080 C   0  0  0  0  0  0  0  0  0  0  0  0
   38.9350   28.4990   30.1490 O   0  0  0  0  0  0  0  0  0  0  0  0
   41.0960   22.3540   36.2396 H   0  0  0  0  0  0  0  0  0  0  0  0
   39.8951   21.7895   38.3993 H   0  0  0  0  0  0  0  0  0  0  0  0
   37.9667   23.2434   39.1048 H   0  0  0  0  0  0  0  0  0  0  0  0
   37.7539   27.0995   37.0410 H   0  0  0  0  0  0  0  0  0  0  0  0
   39.2302   27.6554   36.2059 H   0  0  0  0  0  0  0  0  0  0  0  0
   36.5381   28.3076   35.6725 H   0  0  0  0  0  0  0  0  0  0  0  0
   37.9917   28.8201   34.7835 H   0  0  0  0  0  0  0  0  0  0  0  0
   37.0702   27.5817   33.0759 H   0  0  0  0  0  0  0  0  0  0  0  0
   36.0383   26.6415   34.1333 H   0  0  0  0  0  0  0  0  0  0  0  0
   38.1703   23.9540   34.1241 H   0  0  0  0  0  0  0  0  0  0  0  0
   36.3011   22.7738   31.1809 H   0  0  0  0  0  0  0  0  0  0  0  0
   37.2729   22.1904   32.5586 H   0  0  0  0  0  0  0  0  0  0  0  0
   39.3754   27.6271   34.3107 H   0  0  0  0  0  0  0  0  0  0  0  0
   40.1038   25.9563   33.7670 H   0  0  0  0  0  0  0  0  0  0  0  0
   38.6759   27.8278   32.1110 H   0  0  0  0  0  0  0  0  0  0  0  0
   40.5861   27.5463   32.4548 H   0  0  0  0  0  0  0  0  0  0  0  0
   40.4379   24.5381   31.3849 H   0  0  0  0  0  0  0  0  0  0  0  0
   40.4605   23.8868   29.0837 H   0  0  0  0  0  0  0  0  0  0  0  0
   40.1296   24.2787   26.9005 H   0  0  0  0  0  0  0  0  0  0  0  0
   39.5262   25.8245   26.2454 H   0  0  0  0  0  0  0  0  0  0  0  0
  1  2  2  0
  2  3  1  0
  4  3  2  0
  5  4  1  0
  6  5  2  0
  6  1  1  0
  7  8  1  0
  7  5  1  0
  9  8  1  0
 10 11  1  0
 10  9  1  0
 11 12  1  6
 11  7  1  0
 13 12  1  0
 14 16  1  0
 14 13  2  0
 15 13  1  0
 17 11  1  0
 18 17  1  0
 19 18  1  0
 20 19  1  0
 21 20  2  0
 22 24  2  0
 22 21  1  0
 23 22  1  0
 24 25  1  0
 25 26  2  0
 25 19  1  0
  1 27  1  0
  2 28  1  0
  3 29  1  0
  8 30  1  0
  8 31  1  0
  9 32  1  0
  9 33  1  0
 10 34  1  0
 10 35  1  0
 12 36  1  0
 15 37  1  0
 15 38  1  0
 17 39  1  0
 17 40  1  0
 18 41  1  0
 18 42  1  0
 20 43  1  0
 21 44  1  0
 23 45  1  0
 23 46  1  0
M  ISO  8  27  14  28  14  29  14  30  13  31  13  32  13  33  13  34  13
M  ISO  7  35  13  39   8  40   8  41   8  42   8  43  14  44  14
M  END
>  <minimizedAffinity>  (1) 
-5.0241375

>  <minimizedRMSD>  (1) 
0.694475889

$$$$
