
     RDKit          3D

 45 47  0  0  1  0  0  0  0  0999 V2000
   40.5180   22.9690   35.8090 C   0  0  0  0  0  0  0  0  0  0  0  0
   40.0070   22.4980   37.0590 C   0  0  0  0  0  0  0  0  0  0  0  0
   38.9570   23.2230   37.6510 C   0  0  0  0  0  0  0  0  0  0  0  0
   38.4940   24.3190   37.0080 N   0  0  0  0  0  0  0  0  0  0  0  0
   38.9820   24.7350   35.8550 C   0  0  0  0  0  0  0  0  0  0  0  0
   39.9810   24.0530   35.2830 N   0  0  0  0  0  0  0  0  0  0  0  0
   38.4560   25.8780   35.2650 N   0  0  0  0  0  0  0  0  0  0  0  0
   38.2970   27.1030   35.9620 C   0  0  0  0  0  0  0  0  0  0  0  0
   37.3900   27.9340   35.2270 C   0  0  0  0  0  0  0  0  0  0  0  0
   36.8960   27.1080   34.0840 C   0  0  0  0  0  0  0  0  0  0  0  0
   37.9690   26.1540   33.9090 C   0  0  2  0  0  0  0  0  0  0  0  0
   37.6770   24.9040   33.2840 N   0  0  0  0  0  0  0  0  0  0  0  0
   36.7990   24.5340   32.2670 C   0  0  0  0  0  0  0  0  0  0  0  0
   36.1150   25.4560   31.7530 N   0  0  0  0  0  0  0  0  0  0  0  0
   36.5990   23.2320   31.7310 N   0  0  0  0  0  0  0  0  0  0  0  0
   36.0100   26.3800   32.0700 H   0  0  0  0  0  0  0  0  0  0  0  0
   39.1420   26.9320   33.4180 C   0  0  0  0  0  0  0  0  0  0  0  0
   39.4830   27.0170   32.0140 C   0  0  0  0  0  0  0  0  0  0  0  0
   38.7300   27.7480   31.0260 C   0  0  0  0  0  0  0  0  0  0  0  0
   37.6610   28.5980   30.8590 C   0  0  0  0  0  0  0  0  0  0  0  0
   37.2080   29.1920   29.7120 C   0  0  0  0  0  0  0  0  0  0  0  0
   37.8720   28.9420   28.5340 C   0  0  0  0  0  0  0  0  0  0  0  0
   38.9650   28.1020   28.5660 C   0  0  0  0  0  0  0  0  0  0  0  0
   39.3730   27.5280   29.7790 C   0  0  0  0  0  0  0  0  0  0  0  0
   41.3375   22.4410   35.2995 H   0  0  0  0  0  0  0  0  0  0  0  0
   40.4208   21.5999   37.5408 H   0  0  0  0  0  0  0  0  0  0  0  0
   38.5239   22.9069   38.6115 H   0  0  0  0  0  0  0  0  0  0  0  0
   37.8905   26.9082   36.9654 H   0  0  0  0  0  0  0  0  0  0  0  0
   39.2698   27.6066   36.0627 H   0  0  0  0  0  0  0  0  0  0  0  0
   36.5494   28.2395   35.8673 H   0  0  0  0  0  0  0  0  0  0  0  0
   37.8850   28.8504   34.8732 H   0  0  0  0  0  0  0  0  0  0  0  0
   35.9513   26.6037   34.3355 H   0  0  0  0  0  0  0  0  0  0  0  0
   36.6746   27.6938   33.1796 H   0  0  0  0  0  0  0  0  0  0  0  0
   38.2255   24.1176   33.6604 H   0  0  0  0  0  0  0  0  0  0  0  0
   35.9153   23.0859   30.9746 H   0  0  0  0  0  0  0  0  0  0  0  0
   37.1378   22.4351   32.0992 H   0  0  0  0  0  0  0  0  0  0  0  0
   38.9874   27.9665   33.7586 H   0  0  0  0  0  0  0  0  0  0  0  0
   39.9844   26.3508   33.8212 H   0  0  0  0  0  0  0  0  0  0  0  0
   40.4976   27.4408   31.9831 H   0  0  0  0  0  0  0  0  0  0  0  0
   39.2794   25.9838   31.6961 H   0  0  0  0  0  0  0  0  0  0  0  0
   37.0931   28.8321   31.7715 H   0  0  0  0  0  0  0  0  0  0  0  0
   36.3310   29.8556   29.7321 H   0  0  0  0  0  0  0  0  0  0  0  0
   37.5398   29.4002   27.5908 H   0  0  0  0  0  0  0  0  0  0  0  0
   39.5169   27.8821   27.6403 H   0  0  0  0  0  0  0  0  0  0  0  0
   40.2493   26.8632   29.7634 H   0  0  0  0  0  0  0  0  0  0  0  0
  1  2  2  0
  2  3  1  0
  4  3  2  0
  5  4  1  0
  6  1  1  0
  6  5  2  0
  7  5  1  0
  7  8  1  0
  9  8  1  0
 10  9  1  0
 11 12  1  6
 11 10  1  0
 11  7  1  0
 13 12  1  0
 14 16  1  0
 14 13  2  0
 15 13  1  0
 17 11  1  0
 18 17  1  0
 19 18  1  0
 20 19  2  0
 21 20  1  0
 22 23  1  0
 22 21  2  0
 23 24  2  0
 24 19  1  0
  1 25  1  0
  2 26  1  0
  3 27  1  0
  8 28  1  0
  8 29  1  0
  9 30  1  0
  9 31  1  0
 10 32  1  0
 10 33  1  0
 12 34  1  0
 15 35  1  0
 15 36  1  0
 17 37  1  0
 17 38  1  0
 18 39  1  0
 18 40  1  0
 20 41  1  0
 21 42  1  0
 22 43  1  0
 23 44  1  0
 24 45  1  0
M  ISO  8  25  14  26  14  27  14  28  13  29  13  30  13  31  13  32  13
M  ISO  8  33  13  37   8  38   8  39   8  40   8  41  14  42  14  43  14
M  ISO  2  44  14  45  14
M  END
>  <minimizedAffinity>  (1) 
-5.34460974

>  <minimizedRMSD>  (1) 
0.645064056

$$$$
