
     RDKit          3D

 42 44  0  0  1  0  0  0  0  0999 V2000
   40.4950   22.8730   35.4450 C   0  0  0  0  0  0  0  0  0  0  0  0
   40.0610   22.3660   36.6840 C   0  0  0  0  0  0  0  0  0  0  0  0
   39.0900   23.0890   37.3780 C   0  0  0  0  0  0  0  0  0  0  0  0
   38.6140   24.2310   36.8360 N   0  0  0  0  0  0  0  0  0  0  0  0
   39.0390   24.6860   35.6710 C   0  0  0  0  0  0  0  0  0  0  0  0
   39.9740   24.0030   34.9880 N   0  0  0  0  0  0  0  0  0  0  0  0
   38.5170   25.8790   35.1720 N   0  0  0  0  0  0  0  0  0  0  0  0
   38.4590   27.0660   35.9420 C   0  0  0  0  0  0  0  0  0  0  0  0
   37.5300   27.9670   35.3130 C   0  0  0  0  0  0  0  0  0  0  0  0
   36.9340   27.2300   34.1590 C   0  0  0  0  0  0  0  0  0  0  0  0
   37.9500   26.2370   33.8680 C   0  0  2  0  0  0  0  0  0  0  0  0
   37.5560   25.0300   33.2170 N   0  0  0  0  0  0  0  0  0  0  0  0
   36.6360   24.7570   32.2040 C   0  0  0  0  0  0  0  0  0  0  0  0
   36.0120   25.7470   31.7210 N   0  0  0  0  0  0  0  0  0  0  0  0
   36.3300   23.4850   31.6440 N   0  0  0  0  0  0  0  0  0  0  0  0
   35.9660   26.6560   32.0890 H   0  0  0  0  0  0  0  0  0  0  0  0
   39.1090   27.0060   33.3370 C   0  0  0  0  0  0  0  0  0  0  0  0
   39.4040   27.0820   31.9230 C   0  0  0  0  0  0  0  0  0  0  0  0
   38.5810   27.7440   30.9750 N   0  0  0  0  0  0  0  0  0  0  0  0
   37.4330   28.3730   30.8010 N   0  0  0  0  0  0  0  0  0  0  0  0
   37.2720   28.8000   29.5540 C   0  0  0  0  0  0  0  0  0  0  0  0
   38.3620   28.4630   28.7830 C   0  0  0  0  0  0  0  0  0  0  0  0
   39.1390   27.8110   29.7170 C   0  0  0  0  0  0  0  0  0  0  0  0
   41.2585   22.3372   34.8619 H   0  0  0  0  0  0  0  0  0  0  0  0
   40.4733   21.4312   37.0917 H   0  0  0  0  0  0  0  0  0  0  0  0
   38.7182   22.7347   38.3507 H   0  0  0  0  0  0  0  0  0  0  0  0
   38.1181   26.8320   36.9613 H   0  0  0  0  0  0  0  0  0  0  0  0
   39.4552   27.5288   36.0011 H   0  0  0  0  0  0  0  0  0  0  0  0
   36.7431   28.2581   36.0244 H   0  0  0  0  0  0  0  0  0  0  0  0
   38.0338   28.8859   34.9787 H   0  0  0  0  0  0  0  0  0  0  0  0
   35.9818   26.7555   34.4384 H   0  0  0  0  0  0  0  0  0  0  0  0
   36.6913   27.8757   33.3022 H   0  0  0  0  0  0  0  0  0  0  0  0
   38.0484   24.1944   33.5636 H   0  0  0  0  0  0  0  0  0  0  0  0
   35.6272   23.4076   30.8950 H   0  0  0  0  0  0  0  0  0  0  0  0
   36.8113   22.6417   31.9877 H   0  0  0  0  0  0  0  0  0  0  0  0
   38.9705   28.0428   33.6772 H   0  0  0  0  0  0  0  0  0  0  0  0
   39.9615   26.4235   33.7163 H   0  0  0  0  0  0  0  0  0  0  0  0
   40.3902   27.5638   31.8496 H   0  0  0  0  0  0  0  0  0  0  0  0
   39.2652   26.0326   31.6237 H   0  0  0  0  0  0  0  0  0  0  0  0
   36.3906   29.3468   29.1879 H   0  0  0  0  0  0  0  0  0  0  0  0
   38.5582   28.6593   27.7186 H   0  0  0  0  0  0  0  0  0  0  0  0
   40.1224   27.3802   29.4777 H   0  0  0  0  0  0  0  0  0  0  0  0
  1  2  2  0
  2  3  1  0
  4  3  2  0
  5  4  1  0
  6  1  1  0
  6  5  2  0
  7  5  1  0
  7  8  1  0
  9  8  1  0
 10  9  1  0
 11 12  1  6
 11 10  1  0
 11  7  1  0
 13 12  1  0
 14 16  1  0
 14 13  2  0
 15 13  1  0
 17 11  1  0
 18 17  1  0
 19 18  1  0
 20 19  1  0
 21 20  2  0
 22 21  1  0
 22 23  2  0
 23 19  1  0
  1 24  1  0
  2 25  1  0
  3 26  1  0
  8 27  1  0
  8 28  1  0
  9 29  1  0
  9 30  1  0
 10 31  1  0
 10 32  1  0
 12 33  1  0
 15 34  1  0
 15 35  1  0
 17 36  1  0
 17 37  1  0
 18 38  1  0
 18 39  1  0
 21 40  1  0
 22 41  1  0
 23 42  1  0
M  ISO  8  24  14  25  14  26  14  27  13  28  13  29  13  30  13  31  13
M  ISO  8  32  13  36   8  37   8  38   8  39   8  40  14  41  14  42  14
M  END
>  <minimizedAffinity>  (1) 
-4.86520529

>  <minimizedRMSD>  (1) 
0.686433315

$$$$
