
     RDKit          3D

 48 50  0  0  1  0  0  0  0  0999 V2000
   40.3190   23.0170   36.4810 C   0  0  0  0  0  0  0  0  0  0  0  0
   39.6800   22.7020   37.7100 C   0  0  0  0  0  0  0  0  0  0  0  0
   38.5910   23.4890   38.1020 C   0  0  0  0  0  0  0  0  0  0  0  0
   38.2020   24.4980   37.3010 N   0  0  0  0  0  0  0  0  0  0  0  0
   38.8100   24.7760   36.1610 C   0  0  0  0  0  0  0  0  0  0  0  0
   39.8600   24.0310   35.7650 N   0  0  0  0  0  0  0  0  0  0  0  0
   38.3640   25.8420   35.3900 N   0  0  0  0  0  0  0  0  0  0  0  0
   38.1580   27.1350   35.9240 C   0  0  0  0  0  0  0  0  0  0  0  0
   37.3430   27.8850   35.0040 C   0  0  0  0  0  0  0  0  0  0  0  0
   36.9510   26.9270   33.9260 C   0  0  0  0  0  0  0  0  0  0  0  0
   38.0230   25.9590   33.9650 C   0  0  2  0  0  0  0  0  0  0  0  0
   37.7580   24.6460   33.4740 N   0  0  0  0  0  0  0  0  0  0  0  0
   37.0650   24.1640   32.3640 C   0  0  0  0  0  0  0  0  0  0  0  0
   36.5680   25.0380   31.5870 N   0  0  0  0  0  0  0  0  0  0  0  0
   36.8490   22.8140   31.9930 N   0  0  0  0  0  0  0  0  0  0  0  0
   36.4780   26.0060   31.7470 H   0  0  0  0  0  0  0  0  0  0  0  0
   39.2490   26.6670   33.5120 C   0  0  0  0  0  0  0  0  0  0  0  0
   39.9380   26.2730   32.2990 C   0  0  0  0  0  0  0  0  0  0  0  0
   39.3220   26.5160   31.0290 N   0  0  0  0  0  0  0  0  0  0  0  0
   38.8730   27.8490   30.8560 C   0  0  0  0  0  0  0  0  0  0  0  0
   39.1530   28.4410   29.4890 C   0  0  0  0  0  0  0  0  0  0  0  0
   39.1330   27.4700   28.4970 O   0  0  0  0  0  0  0  0  0  0  0  0
   40.2670   26.6830   28.7400 C   0  0  0  0  0  0  0  0  0  0  0  0
   40.1070   25.9300   30.0110 C   0  0  0  0  0  0  0  0  0  0  0  0
   41.1799   22.4287   36.1307 H   0  0  0  0  0  0  0  0  0  0  0  0
   40.0299   21.8662   38.3337 H   0  0  0  0  0  0  0  0  0  0  0  0
   38.0636   23.2868   39.0459 H   0  0  0  0  0  0  0  0  0  0  0  0
   37.6468   27.0583   36.8950 H   0  0  0  0  0  0  0  0  0  0  0  0
   39.1239   27.6406   36.0701 H   0  0  0  0  0  0  0  0  0  0  0  0
   36.4490   28.2731   35.5141 H   0  0  0  0  0  0  0  0  0  0  0  0
   37.8870   28.7498   34.5964 H   0  0  0  0  0  0  0  0  0  0  0  0
   36.9022   27.4274   32.9476 H   0  0  0  0  0  0  0  0  0  0  0  0
   35.9545   26.4848   34.0725 H   0  0  0  0  0  0  0  0  0  0  0  0
   38.1614   23.9010   34.0597 H   0  0  0  0  0  0  0  0  0  0  0  0
   36.3148   22.5934   31.1405 H   0  0  0  0  0  0  0  0  0  0  0  0
   37.2262   22.0531   32.5758 H   0  0  0  0  0  0  0  0  0  0  0  0
   38.9696   27.7231   33.3830 H   0  0  0  0  0  0  0  0  0  0  0  0
   39.9773   26.4111   34.2956 H   0  0  0  0  0  0  0  0  0  0  0  0
   40.9031   26.8008   32.2930 H   0  0  0  0  0  0  0  0  0  0  0  0
   39.9714   25.1755   32.3649 H   0  0  0  0  0  0  0  0  0  0  0  0
   37.7856   27.8681   31.0211 H   0  0  0  0  0  0  0  0  0  0  0  0
   39.4323   28.4608   31.5792 H   0  0  0  0  0  0  0  0  0  0  0  0
   38.3865   29.1971   29.2638 H   0  0  0  0  0  0  0  0  0  0  0  0
   40.1562   28.8918   29.5086 H   0  0  0  0  0  0  0  0  0  0  0  0
   40.4004   25.9723   27.9111 H   0  0  0  0  0  0  0  0  0  0  0  0
   41.1475   27.3375   28.8193 H   0  0  0  0  0  0  0  0  0  0  0  0
   39.6515   24.9600   29.7627 H   0  0  0  0  0  0  0  0  0  0  0  0
   41.1209   25.8833   30.4350 H   0  0  0  0  0  0  0  0  0  0  0  0
  1  2  2  0
  2  3  1  0
  4  3  2  0
  5  4  1  0
  6  5  2  0
  6  1  1  0
  7  8  1  0
  7  5  1  0
  9  8  1  0
 10 11  1  0
 10  9  1  0
 11 12  1  6
 11  7  1  0
 13 12  1  0
 14 16  1  0
 14 13  2  0
 15 13  1  0
 17 11  1  0
 18 17  1  0
 19 18  1  0
 20 19  1  0
 21 20  1  0
 22 23  1  0
 22 21  1  0
 23 24  1  0
 24 19  1  0
  1 25  1  0
  2 26  1  0
  3 27  1  0
  8 28  1  0
  8 29  1  0
  9 30  1  0
  9 31  1  0
 10 32  1  0
 10 33  1  0
 12 34  1  0
 15 35  1  0
 15 36  1  0
 17 37  1  0
 17 38  1  0
 18 39  1  0
 18 40  1  0
 20 41  1  0
 20 42  1  0
 21 43  1  0
 21 44  1  0
 23 45  1  0
 23 46  1  0
 24 47  1  0
 24 48  1  0
M  ISO  8  25  14  26  14  27  14  28  13  29  13  30  13  31  13  32  13
M  ISO  8  33  13  37   8  38   8  39   8  40   8  41  13  42  13  43  13
M  ISO  5  44  13  45  13  46  13  47  13  48  13
M  END
>  <minimizedAffinity>  (1) 
-4.73197699

>  <minimizedRMSD>  (1) 
1.20285177

$$$$
