
     RDKit          3D

 50 52  0  0  1  0  0  0  0  0999 V2000
   39.6420   23.2280   35.3270 C   0  0  0  0  0  0  0  0  0  0  0  0
   39.0990   22.8210   36.5640 C   0  0  0  0  0  0  0  0  0  0  0  0
   38.0830   23.6010   37.1200 C   0  0  0  0  0  0  0  0  0  0  0  0
   37.6690   24.7000   36.4540 N   0  0  0  0  0  0  0  0  0  0  0  0
   38.1930   25.0620   35.2940 C   0  0  0  0  0  0  0  0  0  0  0  0
   39.1740   24.3230   34.7430 N   0  0  0  0  0  0  0  0  0  0  0  0
   37.7340   26.2120   34.6630 N   0  0  0  0  0  0  0  0  0  0  0  0
   37.6360   27.4670   35.3240 C   0  0  0  0  0  0  0  0  0  0  0  0
   36.7700   28.3160   34.5510 C   0  0  0  0  0  0  0  0  0  0  0  0
   36.2350   27.4640   33.4440 C   0  0  0  0  0  0  0  0  0  0  0  0
   37.2790   26.4750   33.2920 C   0  0  2  0  0  0  0  0  0  0  0  0
   36.9220   25.2230   32.7090 N   0  0  0  0  0  0  0  0  0  0  0  0
   36.2780   24.8760   31.5170 C   0  0  0  0  0  0  0  0  0  0  0  0
   35.9290   25.8320   30.7630 N   0  0  0  0  0  0  0  0  0  0  0  0
   35.9800   23.5690   31.0480 N   0  0  0  0  0  0  0  0  0  0  0  0
   35.9160   26.7910   30.9780 H   0  0  0  0  0  0  0  0  0  0  0  0
   38.5000   27.1760   32.7980 C   0  0  0  0  0  0  0  0  0  0  0  0
   39.1980   26.7140   31.6160 C   0  0  0  0  0  0  0  0  0  0  0  0
   38.9340   27.4250   30.4060 N   0  0  0  0  0  0  0  0  0  0  0  0
   38.1590   28.6260   30.6300 C   0  0  0  0  0  0  0  0  0  0  0  0
   37.4390   29.0000   29.3720 C   0  0  0  0  0  0  0  0  0  0  0  0
   38.2970   28.6620   28.1850 C   0  0  0  0  0  0  0  0  0  0  0  0
   39.7660   28.6390   28.5250 C   0  0  0  0  0  0  0  0  0  0  0  0
   40.0890   27.6170   29.5840 C   0  0  0  0  0  0  0  0  0  0  0  0
   40.4442   22.6439   34.8524 H   0  0  0  0  0  0  0  0  0  0  0  0
   39.4645   21.9177   37.0743 H   0  0  0  0  0  0  0  0  0  0  0  0
   37.6283   23.3251   38.0829 H   0  0  0  0  0  0  0  0  0  0  0  0
   37.2167   27.3256   36.3311 H   0  0  0  0  0  0  0  0  0  0  0  0
   38.6315   27.9252   35.4186 H   0  0  0  0  0  0  0  0  0  0  0  0
   35.9464   28.6917   35.1759 H   0  0  0  0  0  0  0  0  0  0  0  0
   37.3094   29.1913   34.1600 H   0  0  0  0  0  0  0  0  0  0  0  0
   35.2800   26.9965   33.7257 H   0  0  0  0  0  0  0  0  0  0  0  0
   36.0162   28.0222   32.5218 H   0  0  0  0  0  0  0  0  0  0  0  0
   37.1932   24.4107   33.2813 H   0  0  0  0  0  0  0  0  0  0  0  0
   35.4981   23.4428   30.1465 H   0  0  0  0  0  0  0  0  0  0  0  0
   36.2458   22.7473   31.6094 H   0  0  0  0  0  0  0  0  0  0  0  0
   38.2046   28.2169   32.6000 H   0  0  0  0  0  0  0  0  0  0  0  0
   39.2291   26.9862   33.5995 H   0  0  0  0  0  0  0  0  0  0  0  0
   40.2775   26.7826   31.8162 H   0  0  0  0  0  0  0  0  0  0  0  0
   38.8322   25.6915   31.4407 H   0  0  0  0  0  0  0  0  0  0  0  0
   37.4271   28.4455   31.4310 H   0  0  0  0  0  0  0  0  0  0  0  0
   38.8313   29.4455   30.9239 H   0  0  0  0  0  0  0  0  0  0  0  0
   36.4928   28.4423   29.3113 H   0  0  0  0  0  0  0  0  0  0  0  0
   37.2283   30.0796   29.3769 H   0  0  0  0  0  0  0  0  0  0  0  0
   38.1277   29.4148   27.4010 H   0  0  0  0  0  0  0  0  0  0  0  0
   38.0160   27.6546   27.8442 H   0  0  0  0  0  0  0  0  0  0  0  0
   40.3364   28.3992   27.6155 H   0  0  0  0  0  0  0  0  0  0  0  0
   40.0373   29.6299   28.9180 H   0  0  0  0  0  0  0  0  0  0  0  0
   40.3659   26.6652   29.1072 H   0  0  0  0  0  0  0  0  0  0  0  0
   40.9311   27.9683   30.1984 H   0  0  0  0  0  0  0  0  0  0  0  0
  1  2  2  0
  2  3  1  0
  4  3  2  0
  5  4  1  0
  6  5  2  0
  6  1  1  0
  7  5  1  0
  7  8  1  0
  9  8  1  0
 10  9  1  0
 11 12  1  6
 11 10  1  0
 11  7  1  0
 13 12  1  0
 14 16  1  0
 14 13  2  0
 15 13  1  0
 17 11  1  0
 18 17  1  0
 19 20  1  0
 19 18  1  0
 21 20  1  0
 22 23  1  0
 22 21  1  0
 23 24  1  0
 24 19  1  0
  1 25  1  0
  2 26  1  0
  3 27  1  0
  8 28  1  0
  8 29  1  0
  9 30  1  0
  9 31  1  0
 10 32  1  0
 10 33  1  0
 12 34  1  0
 15 35  1  0
 15 36  1  0
 17 37  1  0
 17 38  1  0
 18 39  1  0
 18 40  1  0
 20 41  1  0
 20 42  1  0
 21 43  1  0
 21 44  1  0
 22 45  1  0
 22 46  1  0
 23 47  1  0
 23 48  1  0
 24 49  1  0
 24 50  1  0
M  ISO  8  25  14  26  14  27  14  28  13  29  13  30  13  31  13  32  13
M  ISO  8  33  13  37   8  38   8  39   8  40   8  41  13  42  13  43  13
M  ISO  7  44  13  45  13  46  13  47  13  48  13  49  13  50  13
M  END
>  <minimizedAffinity>  (1) 
-4.84665346

>  <minimizedRMSD>  (1) 
1.58102775

$$$$
