
     RDKit          3D

 40 42  0  0  1  0  0  0  0  0999 V2000
   40.5560   22.7420   35.3860 C   0  0  0  0  0  0  0  0  0  0  0  0
   40.1700   22.2190   36.6330 C   0  0  0  0  0  0  0  0  0  0  0  0
   39.2450   22.9390   37.3730 C   0  0  0  0  0  0  0  0  0  0  0  0
   38.7590   24.0920   36.8730 N   0  0  0  0  0  0  0  0  0  0  0  0
   39.1340   24.5670   35.6970 C   0  0  0  0  0  0  0  0  0  0  0  0
   40.0250   23.8840   34.9730 N   0  0  0  0  0  0  0  0  0  0  0  0
   38.6020   25.7730   35.2420 N   0  0  0  0  0  0  0  0  0  0  0  0
   38.5840   26.9450   36.0320 C   0  0  0  0  0  0  0  0  0  0  0  0
   37.6430   27.8650   35.4540 C   0  0  0  0  0  0  0  0  0  0  0  0
   36.9840   27.1280   34.3280 C   0  0  0  0  0  0  0  0  0  0  0  0
   37.9870   26.1520   33.9620 C   0  0  2  0  0  0  0  0  0  0  0  0
   37.5460   24.9590   33.3180 N   0  0  0  0  0  0  0  0  0  0  0  0
   36.6520   24.7210   32.2720 C   0  0  0  0  0  0  0  0  0  0  0  0
   36.1130   25.7400   31.7440 N   0  0  0  0  0  0  0  0  0  0  0  0
   36.2780   23.4630   31.7270 N   0  0  0  0  0  0  0  0  0  0  0  0
   36.1330   26.6690   32.0640 H   0  0  0  0  0  0  0  0  0  0  0  0
   39.1120   26.9380   33.4070 C   0  0  0  0  0  0  0  0  0  0  0  0
   39.1820   27.3040   32.0040 C   0  0  0  0  0  0  0  0  0  0  0  0
   38.1770   28.0470   31.2540 C   0  0  0  0  0  0  0  0  0  0  0  0
   37.1950   28.9500   31.3190 N   0  0  0  0  0  0  0  0  0  0  0  0
   36.6930   29.1610   30.1780 O   0  0  0  0  0  0  0  0  0  0  0  0
   37.2870   28.4350   29.2940 C   0  0  0  0  0  0  0  0  0  0  0  0
   38.2150   27.7280   29.9180 N   0  0  0  0  0  0  0  0  0  0  0  0
   41.2890   22.2103   34.7615 H   0  0  0  0  0  0  0  0  0  0  0  0
   40.5871   21.2726   37.0077 H   0  0  0  0  0  0  0  0  0  0  0  0
   38.9120   22.5738   38.3557 H   0  0  0  0  0  0  0  0  0  0  0  0
   38.2782   26.6965   37.0590 H   0  0  0  0  0  0  0  0  0  0  0  0
   39.5863   27.3971   36.0618 H   0  0  0  0  0  0  0  0  0  0  0  0
   36.8955   28.1677   36.2021 H   0  0  0  0  0  0  0  0  0  0  0  0
   38.1396   28.7806   35.1005 H   0  0  0  0  0  0  0  0  0  0  0  0
   36.0569   26.6390   34.6618 H   0  0  0  0  0  0  0  0  0  0  0  0
   36.6823   27.7798   33.4949 H   0  0  0  0  0  0  0  0  0  0  0  0
   37.9714   24.1023   33.7002 H   0  0  0  0  0  0  0  0  0  0  0  0
   35.6033   23.4184   30.9501 H   0  0  0  0  0  0  0  0  0  0  0  0
   36.6817   22.5958   32.1089 H   0  0  0  0  0  0  0  0  0  0  0  0
   39.1353   27.8816   33.9719 H   0  0  0  0  0  0  0  0  0  0  0  0
   39.9518   26.2339   33.5019 H   0  0  0  0  0  0  0  0  0  0  0  0
   40.1057   27.8934   31.9073 H   0  0  0  0  0  0  0  0  0  0  0  0
   39.0543   26.3109   31.5484 H   0  0  0  0  0  0  0  0  0  0  0  0
   37.0632   28.4081   28.2173 H   0  0  0  0  0  0  0  0  0  0  0  0
  1  2  2  0
  2  3  1  0
  4  3  2  0
  5  4  1  0
  6  1  1  0
  6  5  2  0
  7  5  1  0
  7  8  1  0
  9  8  1  0
 10  9  1  0
 11 12  1  6
 11 10  1  0
 11  7  1  0
 13 12  1  0
 14 16  1  0
 14 13  2  0
 15 13  1  0
 17 11  1  0
 18 17  1  0
 19 20  2  0
 19 18  1  0
 21 20  1  0
 22 23  2  0
 22 21  1  0
 23 19  1  0
  1 24  1  0
  2 25  1  0
  3 26  1  0
  8 27  1  0
  8 28  1  0
  9 29  1  0
  9 30  1  0
 10 31  1  0
 10 32  1  0
 12 33  1  0
 15 34  1  0
 15 35  1  0
 17 36  1  0
 17 37  1  0
 18 38  1  0
 18 39  1  0
 22 40  1  0
M  ISO  8  24  14  25  14  26  14  27  13  28  13  29  13  30  13  31  13
M  ISO  6  32  13  36   8  37   8  38   8  39   8  40  14
M  END
>  <minimizedAffinity>  (1) 
-4.94031096

>  <minimizedRMSD>  (1) 
0.711844623

$$$$
