
     RDKit          3D

 42 44  0  0  1  0  0  0  0  0999 V2000
   40.4370   22.9890   35.7390 C   0  0  0  0  0  0  0  0  0  0  0  0
   39.9360   22.5260   36.9760 C   0  0  0  0  0  0  0  0  0  0  0  0
   38.9120   23.2550   37.5770 C   0  0  0  0  0  0  0  0  0  0  0  0
   38.4470   24.3610   36.9570 N   0  0  0  0  0  0  0  0  0  0  0  0
   38.9310   24.7760   35.8010 C   0  0  0  0  0  0  0  0  0  0  0  0
   39.9190   24.0860   35.2050 N   0  0  0  0  0  0  0  0  0  0  0  0
   38.4150   25.9330   35.2190 N   0  0  0  0  0  0  0  0  0  0  0  0
   38.2870   27.1520   35.9270 C   0  0  0  0  0  0  0  0  0  0  0  0
   37.3800   28.0010   35.2070 C   0  0  0  0  0  0  0  0  0  0  0  0
   36.8680   27.1980   34.0570 C   0  0  0  0  0  0  0  0  0  0  0  0
   37.9200   26.2180   33.8680 C   0  0  2  0  0  0  0  0  0  0  0  0
   37.5920   24.9770   33.2490 N   0  0  0  0  0  0  0  0  0  0  0  0
   36.7170   24.6340   32.2150 C   0  0  0  0  0  0  0  0  0  0  0  0
   36.0800   25.5820   31.6730 N   0  0  0  0  0  0  0  0  0  0  0  0
   36.4730   23.3330   31.6950 N   0  0  0  0  0  0  0  0  0  0  0  0
   36.0000   26.5060   31.9960 H   0  0  0  0  0  0  0  0  0  0  0  0
   39.0890   26.9890   33.3710 C   0  0  0  0  0  0  0  0  0  0  0  0
   39.3760   27.1490   31.9610 C   0  0  0  0  0  0  0  0  0  0  0  0
   38.5720   27.8640   31.0580 N   0  0  0  0  0  0  0  0  0  0  0  0
   37.5860   28.7390   30.7310 C   0  0  0  0  0  0  0  0  0  0  0  0
   37.3960   29.0330   29.4080 C   0  0  0  0  0  0  0  0  0  0  0  0
   38.3430   28.2820   28.7840 N   0  0  0  0  0  0  0  0  0  0  0  0
   39.0170   27.6070   29.7670 C   0  0  0  0  0  0  0  0  0  0  0  0
   41.2453   22.4470   35.2263 H   0  0  0  0  0  0  0  0  0  0  0  0
   40.3411   21.6195   37.4493 H   0  0  0  0  0  0  0  0  0  0  0  0
   38.4892   22.9349   38.5407 H   0  0  0  0  0  0  0  0  0  0  0  0
   37.8921   26.9566   36.9349 H   0  0  0  0  0  0  0  0  0  0  0  0
   39.2684   27.6400   36.0200 H   0  0  0  0  0  0  0  0  0  0  0  0
   36.5473   28.3058   35.8580 H   0  0  0  0  0  0  0  0  0  0  0  0
   37.8828   28.9158   34.8601 H   0  0  0  0  0  0  0  0  0  0  0  0
   35.9122   26.7130   34.3046 H   0  0  0  0  0  0  0  0  0  0  0  0
   36.6609   27.7989   33.1592 H   0  0  0  0  0  0  0  0  0  0  0  0
   38.1014   24.1727   33.6421 H   0  0  0  0  0  0  0  0  0  0  0  0
   35.8003   23.2036   30.9258 H   0  0  0  0  0  0  0  0  0  0  0  0
   36.9690   22.5201   32.0875 H   0  0  0  0  0  0  0  0  0  0  0  0
   38.9788   28.0054   33.7770 H   0  0  0  0  0  0  0  0  0  0  0  0
   39.9290   26.3600   33.7008 H   0  0  0  0  0  0  0  0  0  0  0  0
   40.3669   27.6244   31.9139 H   0  0  0  0  0  0  0  0  0  0  0  0
   39.2149   26.1210   31.6043 H   0  0  0  0  0  0  0  0  0  0  0  0
   36.9576   29.1986   31.5081 H   0  0  0  0  0  0  0  0  0  0  0  0
   36.6567   29.7120   28.9582 H   0  0  0  0  0  0  0  0  0  0  0  0
   39.8452   26.9160   29.5514 H   0  0  0  0  0  0  0  0  0  0  0  0
  1  2  2  0
  2  3  1  0
  4  3  2  0
  5  4  1  0
  6  1  1  0
  6  5  2  0
  7  5  1  0
  7  8  1  0
  9  8  1  0
 10  9  1  0
 11 12  1  6
 11 10  1  0
 11  7  1  0
 13 12  1  0
 14 16  1  0
 14 13  2  0
 15 13  1  0
 17 11  1  0
 18 17  1  0
 19 18  1  0
 20 19  1  0
 21 20  2  0
 22 21  1  0
 22 23  2  0
 23 19  1  0
  1 24  1  0
  2 25  1  0
  3 26  1  0
  8 27  1  0
  8 28  1  0
  9 29  1  0
  9 30  1  0
 10 31  1  0
 10 32  1  0
 12 33  1  0
 15 34  1  0
 15 35  1  0
 17 36  1  0
 17 37  1  0
 18 38  1  0
 18 39  1  0
 20 40  1  0
 21 41  1  0
 23 42  1  0
M  ISO  8  24  14  25  14  26  14  27  13  28  13  29  13  30  13  31  13
M  ISO  8  32  13  36   8  37   8  38   8  39   8  40  14  41  14  42  14
M  END
>  <minimizedAffinity>  (1) 
-4.85840511

>  <minimizedRMSD>  (1) 
0.610540688

$$$$
