
     RDKit          3D

 36 37  0  0  1  0  0  0  0  0999 V2000
   40.3060   23.0170   36.4920 C   0  0  0  0  0  0  0  0  0  0  0  0
   39.6720   22.7120   37.7150 C   0  0  0  0  0  0  0  0  0  0  0  0
   38.5870   23.5030   38.1040 C   0  0  0  0  0  0  0  0  0  0  0  0
   38.2050   24.5090   37.2990 N   0  0  0  0  0  0  0  0  0  0  0  0
   38.8120   24.7790   36.1580 C   0  0  0  0  0  0  0  0  0  0  0  0
   39.8540   24.0300   35.7690 N   0  0  0  0  0  0  0  0  0  0  0  0
   38.3640   25.8430   35.3810 N   0  0  0  0  0  0  0  0  0  0  0  0
   38.1520   27.1400   35.9080 C   0  0  0  0  0  0  0  0  0  0  0  0
   37.3540   27.8900   34.9810 C   0  0  0  0  0  0  0  0  0  0  0  0
   36.9590   26.9310   33.9070 C   0  0  0  0  0  0  0  0  0  0  0  0
   38.0250   25.9440   33.9490 C   0  0  2  0  0  0  0  0  0  0  0  0
   37.7590   24.6310   33.4680 N   0  0  0  0  0  0  0  0  0  0  0  0
   37.0430   24.1560   32.3700 C   0  0  0  0  0  0  0  0  0  0  0  0
   36.5170   25.0160   31.6110 N   0  0  0  0  0  0  0  0  0  0  0  0
   36.8380   22.7930   32.0020 N   0  0  0  0  0  0  0  0  0  0  0  0
   36.4460   25.9860   31.7600 H   0  0  0  0  0  0  0  0  0  0  0  0
   39.2370   26.6680   33.4990 C   0  0  0  0  0  0  0  0  0  0  0  0
   39.9670   26.2530   32.3100 C   0  0  0  0  0  0  0  0  0  0  0  0
   39.2400   26.4030   31.1450 O   0  0  0  0  0  0  0  0  0  0  0  0
   41.1633   22.4219   36.1442 H   0  0  0  0  0  0  0  0  0  0  0  0
   40.0204   21.8783   38.3424 H   0  0  0  0  0  0  0  0  0  0  0  0
   38.0577   23.3063   39.0480 H   0  0  0  0  0  0  0  0  0  0  0  0
   37.6277   27.0663   36.8722 H   0  0  0  0  0  0  0  0  0  0  0  0
   39.1177   27.6433   36.0630 H   0  0  0  0  0  0  0  0  0  0  0  0
   36.4609   28.2908   35.4827 H   0  0  0  0  0  0  0  0  0  0  0  0
   37.9103   28.7461   34.5716 H   0  0  0  0  0  0  0  0  0  0  0  0
   36.9181   27.4286   32.9268 H   0  0  0  0  0  0  0  0  0  0  0  0
   35.9587   26.4983   34.0557 H   0  0  0  0  0  0  0  0  0  0  0  0
   38.1772   23.8862   34.0436 H   0  0  0  0  0  0  0  0  0  0  0  0
   36.2868   22.5635   31.1627 H   0  0  0  0  0  0  0  0  0  0  0  0
   37.2412   22.0385   32.5756 H   0  0  0  0  0  0  0  0  0  0  0  0
   38.9316   27.7109   33.3288 H   0  0  0  0  0  0  0  0  0  0  0  0
   39.9546   26.4573   34.3057 H   0  0  0  0  0  0  0  0  0  0  0  0
   40.8815   26.8593   32.2319 H   0  0  0  0  0  0  0  0  0  0  0  0
   40.1897   25.1815   32.4206 H   0  0  0  0  0  0  0  0  0  0  0  0
   38.2954   26.5979   31.3683 H   0  0  0  0  0  0  0  0  0  0  0  0
  1  2  2  0
  2  3  1  0
  4  3  2  0
  5  4  1  0
  6  5  2  0
  6  1  1  0
  7  8  1  0
  7  5  1  0
  9  8  1  0
 10 11  1  0
 10  9  1  0
 11 12  1  6
 11  7  1  0
 13 12  1  0
 14 16  1  0
 14 13  2  0
 15 13  1  0
 17 11  1  0
 18 17  1  0
 19 18  1  0
  1 20  1  0
  2 21  1  0
  3 22  1  0
  8 23  1  0
  8 24  1  0
  9 25  1  0
  9 26  1  0
 10 27  1  0
 10 28  1  0
 12 29  1  0
 15 30  1  0
 15 31  1  0
 17 32  1  0
 17 33  1  0
 18 34  1  0
 18 35  1  0
 19 36  1  0
M  ISO  8  20  14  21  14  22  14  23  13  24  13  25  13  26  13  27  13
M  ISO  6  28  13  32   8  33   8  34   8  35   8  36   3
M  END
>  <minimizedAffinity>  (1) 
-4.29922771

>  <minimizedRMSD>  (1) 
0.471665412

$$$$
