
     RDKit          3D

 42 44  0  0  1  0  0  0  0  0999 V2000
   40.4380   23.0830   36.3310 C   0  0  0  0  0  0  0  0  0  0  0  0
   39.7980   22.6920   37.5250 C   0  0  0  0  0  0  0  0  0  0  0  0
   38.6820   23.4130   37.9230 C   0  0  0  0  0  0  0  0  0  0  0  0
   38.2620   24.4430   37.1630 N   0  0  0  0  0  0  0  0  0  0  0  0
   38.8770   24.7940   36.0470 C   0  0  0  0  0  0  0  0  0  0  0  0
   39.9530   24.1100   35.6490 N   0  0  0  0  0  0  0  0  0  0  0  0
   38.3960   25.8780   35.3150 N   0  0  0  0  0  0  0  0  0  0  0  0
   38.1150   27.1340   35.9050 C   0  0  0  0  0  0  0  0  0  0  0  0
   37.2990   27.8880   34.9990 C   0  0  0  0  0  0  0  0  0  0  0  0
   36.9660   26.9570   33.8700 C   0  0  0  0  0  0  0  0  0  0  0  0
   38.0830   26.0390   33.8860 C   0  0  2  0  0  0  0  0  0  0  0  0
   37.8870   24.7400   33.3350 N   0  0  0  0  0  0  0  0  0  0  0  0
   37.0150   24.2390   32.3690 C   0  0  0  0  0  0  0  0  0  0  0  0
   36.2220   25.0730   31.8350 N   0  0  0  0  0  0  0  0  0  0  0  0
   36.9160   22.9010   31.9060 N   0  0  0  0  0  0  0  0  0  0  0  0
   36.0460   25.9970   32.1170 H   0  0  0  0  0  0  0  0  0  0  0  0
   39.2640   26.8390   33.4950 C   0  0  0  0  0  0  0  0  0  0  0  0
   39.8040   26.8120   32.1530 C   0  0  0  0  0  0  0  0  0  0  0  0
   39.0740   26.9700   30.8800 C   0  0  0  0  0  0  0  0  0  0  0  0
   39.5800   28.1030   29.9680 C   0  0  0  0  0  0  0  0  0  0  0  0
   38.2770   28.2960   30.6540 C   0  0  0  0  0  0  0  0  0  0  0  0
   41.3265   22.5435   35.9712 H   0  0  0  0  0  0  0  0  0  0  0  0
   40.1706   21.8451   38.1198 H   0  0  0  0  0  0  0  0  0  0  0  0
   38.1471   23.1474   38.8467 H   0  0  0  0  0  0  0  0  0  0  0  0
   37.5781   26.9868   36.8537 H   0  0  0  0  0  0  0  0  0  0  0  0
   39.0517   27.6738   36.1081 H   0  0  0  0  0  0  0  0  0  0  0  0
   36.3798   28.2237   35.5014 H   0  0  0  0  0  0  0  0  0  0  0  0
   37.8209   28.7870   34.6394 H   0  0  0  0  0  0  0  0  0  0  0  0
   36.9077   27.4965   32.9131 H   0  0  0  0  0  0  0  0  0  0  0  0
   35.9893   26.4633   33.9805 H   0  0  0  0  0  0  0  0  0  0  0  0
   38.5165   24.0268   33.7299 H   0  0  0  0  0  0  0  0  0  0  0  0
   36.2250   22.6562   31.1825 H   0  0  0  0  0  0  0  0  0  0  0  0
   37.5352   22.1748   32.2935 H   0  0  0  0  0  0  0  0  0  0  0  0
   39.0057   27.8882   33.7007 H   0  0  0  0  0  0  0  0  0  0  0  0
   40.0669   26.3594   34.0741 H   0  0  0  0  0  0  0  0  0  0  0  0
   40.5620   27.6090   32.1410 H   0  0  0  0  0  0  0  0  0  0  0  0
   40.0298   25.7376   32.0846 H   0  0  0  0  0  0  0  0  0  0  0  0
   38.8464   25.8977   30.7887 H   0  0  0  0  0  0  0  0  0  0  0  0
   39.6041   27.9542   28.8784 H   0  0  0  0  0  0  0  0  0  0  0  0
   40.5115   28.6860   29.9180 H   0  0  0  0  0  0  0  0  0  0  0  0
   38.1900   29.0292   31.4694 H   0  0  0  0  0  0  0  0  0  0  0  0
   37.2565   28.5391   30.3232 H   0  0  0  0  0  0  0  0  0  0  0  0
  1  2  2  0
  2  3  1  0
  4  3  2  0
  5  4  1  0
  6  5  2  0
  6  1  1  0
  7  8  1  0
  7  5  1  0
  9  8  1  0
 10 11  1  0
 10  9  1  0
 11 12  1  6
 11  7  1  0
 13 12  1  0
 14 16  1  0
 14 13  2  0
 15 13  1  0
 17 11  1  0
 18 17  1  0
 19 18  1  0
 20 21  1  0
 20 19  1  0
 21 19  1  0
  1 22  1  0
  2 23  1  0
  3 24  1  0
  8 25  1  0
  8 26  1  0
  9 27  1  0
  9 28  1  0
 10 29  1  0
 10 30  1  0
 12 31  1  0
 15 32  1  0
 15 33  1  0
 17 34  1  0
 17 35  1  0
 18 36  1  0
 18 37  1  0
 19 38  1  0
 20 39  1  0
 20 40  1  0
 21 41  1  0
 21 42  1  0
M  ISO  8  22  14  23  14  24  14  25  13  26  13  27  13  28  13  29  13
M  ISO  8  30  13  34   8  35   8  36   8  37   8  38  13  39  13  40  13
M  ISO  2  41  13  42  13
M  END
>  <minimizedAffinity>  (1) 
-4.63019133

>  <minimizedRMSD>  (1) 
0.54949075

$$$$
