
     RDKit          3D

 48 51  0  0  1  0  0  0  0  0999 V2000
   40.7410   22.5780   35.2780 C   0  0  0  0  0  0  0  0  0  0  0  0
   40.4250   22.0380   36.5260 C   0  0  0  0  0  0  0  0  0  0  0  0
   39.5110   22.7430   37.3080 C   0  0  0  0  0  0  0  0  0  0  0  0
   38.9900   23.8870   36.8290 N   0  0  0  0  0  0  0  0  0  0  0  0
   39.2960   24.3840   35.6520 C   0  0  0  0  0  0  0  0  0  0  0  0
   40.1760   23.7120   34.8910 N   0  0  0  0  0  0  0  0  0  0  0  0
   38.7420   25.5710   35.2060 N   0  0  0  0  0  0  0  0  0  0  0  0
   38.7770   26.7430   35.9780 C   0  0  0  0  0  0  0  0  0  0  0  0
   37.8010   27.6430   35.4780 C   0  0  0  0  0  0  0  0  0  0  0  0
   37.0730   26.9150   34.3770 C   0  0  0  0  0  0  0  0  0  0  0  0
   38.0640   25.9790   33.9660 C   0  0  2  0  0  0  0  0  0  0  0  0
   37.6640   24.7520   33.3230 N   0  0  0  0  0  0  0  0  0  0  0  0
   36.6890   24.4840   32.3470 C   0  0  0  0  0  0  0  0  0  0  0  0
   36.0860   25.4910   31.8530 N   0  0  0  0  0  0  0  0  0  0  0  0
   36.2910   23.2260   31.8290 N   0  0  0  0  0  0  0  0  0  0  0  0
   36.1010   26.3930   32.1700 H   0  0  0  0  0  0  0  0  0  0  0  0
   39.1850   26.7490   33.3480 C   0  0  0  0  0  0  0  0  0  0  0  0
   39.1290   27.1620   31.9430 C   0  0  0  0  0  0  0  0  0  0  0  0
   38.2050   28.0780   31.3560 C   0  0  0  0  0  0  0  0  0  0  0  0
   38.6850   28.4550   30.0340 C   0  0  0  0  0  0  0  0  0  0  0  0
   37.3650   29.5920   29.4500 S   0  0  0  0  0  0  0  0  0  0  0  0
   36.3640   29.4270   31.0010 C   0  0  0  0  0  0  0  0  0  0  0  0
   37.0970   28.6160   31.6760 N   0  0  0  0  0  0  0  0  0  0  0  0
   35.1000   29.9460   31.5450 N   0  0  0  0  0  0  0  0  0  0  0  0
   34.4640   29.3580   32.5480 C   0  0  0  0  0  0  0  0  0  0  0  0
   33.3570   30.1590   32.7270 C   0  0  0  0  0  0  0  0  0  0  0  0
   33.4330   31.1480   31.8180 N   0  0  0  0  0  0  0  0  0  0  0  0
   34.5350   31.0330   31.0550 C   0  0  0  0  0  0  0  0  0  0  0  0
   41.4561   22.0641   34.6188 H   0  0  0  0  0  0  0  0  0  0  0  0
   40.8769   21.0984   36.8767 H   0  0  0  0  0  0  0  0  0  0  0  0
   39.2205   22.3696   38.3011 H   0  0  0  0  0  0  0  0  0  0  0  0
   38.5555   26.5019   37.0281 H   0  0  0  0  0  0  0  0  0  0  0  0
   39.7754   27.2012   35.9209 H   0  0  0  0  0  0  0  0  0  0  0  0
   37.0989   27.9245   36.2766 H   0  0  0  0  0  0  0  0  0  0  0  0
   38.2659   28.5673   35.1045 H   0  0  0  0  0  0  0  0  0  0  0  0
   36.1720   26.4093   34.7545 H   0  0  0  0  0  0  0  0  0  0  0  0
   36.7034   27.5661   33.5711 H   0  0  0  0  0  0  0  0  0  0  0  0
   38.1875   23.9218   33.6355 H   0  0  0  0  0  0  0  0  0  0  0  0
   35.5562   23.1746   31.1091 H   0  0  0  0  0  0  0  0  0  0  0  0
   36.7366   22.3633   32.1725 H   0  0  0  0  0  0  0  0  0  0  0  0
   39.2975   27.6688   33.9407 H   0  0  0  0  0  0  0  0  0  0  0  0
   40.0117   26.0233   33.3554 H   0  0  0  0  0  0  0  0  0  0  0  0
   40.1220   27.5855   31.7316 H   0  0  0  0  0  0  0  0  0  0  0  0
   38.7604   26.2266   31.4968 H   0  0  0  0  0  0  0  0  0  0  0  0
   39.6033   28.1397   29.5170 H   0  0  0  0  0  0  0  0  0  0  0  0
   34.7499   28.4519   33.1023 H   0  0  0  0  0  0  0  0  0  0  0  0
   32.5610   30.0166   33.4727 H   0  0  0  0  0  0  0  0  0  0  0  0
   34.8772   31.6794   30.2334 H   0  0  0  0  0  0  0  0  0  0  0  0
  1  2  2  0
  2  3  1  0
  4  3  2  0
  5  4  1  0
  6  1  1  0
  6  5  2  0
  7  5  1  0
  7  8  1  0
  9  8  1  0
 10  9  1  0
 11 12  1  6
 11 10  1  0
 11  7  1  0
 13 12  1  0
 14 16  1  0
 14 13  2  0
 15 13  1  0
 17 11  1  0
 18 17  1  0
 19 23  1  0
 19 18  1  0
 20 19  2  0
 21 20  1  0
 21 22  1  0
 22 24  1  0
 22 23  2  0
 24 25  1  0
 25 26  2  0
 27 26  1  0
 28 24  1  0
 28 27  2  0
  1 29  1  0
  2 30  1  0
  3 31  1  0
  8 32  1  0
  8 33  1  0
  9 34  1  0
  9 35  1  0
 10 36  1  0
 10 37  1  0
 12 38  1  0
 15 39  1  0
 15 40  1  0
 17 41  1  0
 17 42  1  0
 18 43  1  0
 18 44  1  0
 20 45  1  0
 25 46  1  0
 26 47  1  0
 28 48  1  0
M  ISO  8  29  14  30  14  31  14  32  13  33  13  34  13  35  13  36  13
M  ISO  8  37  13  41   8  42   8  43   8  44   8  45  14  46  14  47  14
M  ISO  1  48  14
M  END
>  <minimizedAffinity>  (1) 
-5.68438721

>  <minimizedRMSD>  (1) 
1.07913077

$$$$
