
     RDKit          3D

 46 49  0  0  1  0  0  0  0  0999 V2000
   40.5270   22.7070   35.4220 C   0  0  0  0  0  0  0  0  0  0  0  0
   40.1410   22.1880   36.6600 C   0  0  0  0  0  0  0  0  0  0  0  0
   39.2150   22.9270   37.3910 C   0  0  0  0  0  0  0  0  0  0  0  0
   38.7440   24.0830   36.8840 N   0  0  0  0  0  0  0  0  0  0  0  0
   39.1210   24.5560   35.7140 C   0  0  0  0  0  0  0  0  0  0  0  0
   40.0140   23.8530   34.9990 N   0  0  0  0  0  0  0  0  0  0  0  0
   38.6180   25.7540   35.2330 N   0  0  0  0  0  0  0  0  0  0  0  0
   38.6370   26.9340   35.9960 C   0  0  0  0  0  0  0  0  0  0  0  0
   37.7190   27.8510   35.4380 C   0  0  0  0  0  0  0  0  0  0  0  0
   37.0180   27.1300   34.3140 C   0  0  0  0  0  0  0  0  0  0  0  0
   38.0100   26.1660   33.9540 C   0  0  2  0  0  0  0  0  0  0  0  0
   37.5950   24.9390   33.3160 N   0  0  0  0  0  0  0  0  0  0  0  0
   36.6550   24.6860   32.2990 C   0  0  0  0  0  0  0  0  0  0  0  0
   36.0990   25.7040   31.7700 N   0  0  0  0  0  0  0  0  0  0  0  0
   36.2510   23.4340   31.7750 N   0  0  0  0  0  0  0  0  0  0  0  0
   36.1270   26.6090   32.0750 H   0  0  0  0  0  0  0  0  0  0  0  0
   39.1690   26.9040   33.3870 C   0  0  0  0  0  0  0  0  0  0  0  0
   39.2930   27.0630   31.9340 C   0  0  0  0  0  0  0  0  0  0  0  0
   38.5230   27.9280   31.1050 C   0  0  0  0  0  0  0  0  0  0  0  0
   38.8940   27.7250   29.7170 C   0  0  0  0  0  0  0  0  0  0  0  0
   37.7790   28.8650   28.8230 S   0  0  0  0  0  0  0  0  0  0  0  0
   36.9660   29.4640   30.3760 C   0  0  0  0  0  0  0  0  0  0  0  0
   37.5980   28.7800   31.2600 N   0  0  0  0  0  0  0  0  0  0  0  0
   35.8920   30.4430   30.6470 C   0  0  0  0  0  0  0  0  0  0  0  0
   35.8150   31.7280   30.2480 N   0  0  0  0  0  0  0  0  0  0  0  0
   34.7390   32.2750   30.6690 O   0  0  0  0  0  0  0  0  0  0  0  0
   34.0720   31.3530   31.3630 C   0  0  0  0  0  0  0  0  0  0  0  0
   34.7690   30.1850   31.3710 N   0  0  0  0  0  0  0  0  0  0  0  0
   41.2550   22.1657   34.7999 H   0  0  0  0  0  0  0  0  0  0  0  0
   40.5495   21.2398   37.0395 H   0  0  0  0  0  0  0  0  0  0  0  0
   38.8711   22.5705   38.3732 H   0  0  0  0  0  0  0  0  0  0  0  0
   38.3497   26.7082   37.0335 H   0  0  0  0  0  0  0  0  0  0  0  0
   39.6483   27.3668   35.9903 H   0  0  0  0  0  0  0  0  0  0  0  0
   36.9900   28.1683   36.1982 H   0  0  0  0  0  0  0  0  0  0  0  0
   38.2321   28.7524   35.0717 H   0  0  0  0  0  0  0  0  0  0  0  0
   36.0911   26.6479   34.6582 H   0  0  0  0  0  0  0  0  0  0  0  0
   36.6940   27.7802   33.4880 H   0  0  0  0  0  0  0  0  0  0  0  0
   38.0727   24.0973   33.6684 H   0  0  0  0  0  0  0  0  0  0  0  0
   35.5468   23.3929   31.0244 H   0  0  0  0  0  0  0  0  0  0  0  0
   36.6613   22.5645   32.1444 H   0  0  0  0  0  0  0  0  0  0  0  0
   39.1431   27.9162   33.8169 H   0  0  0  0  0  0  0  0  0  0  0  0
   40.0279   26.2682   33.6478 H   0  0  0  0  0  0  0  0  0  0  0  0
   40.3378   27.3646   31.7682 H   0  0  0  0  0  0  0  0  0  0  0  0
   38.8860   26.0935   31.6108 H   0  0  0  0  0  0  0  0  0  0  0  0
   39.6586   27.0506   29.3040 H   0  0  0  0  0  0  0  0  0  0  0  0
   33.1018   31.5129   31.8561 H   0  0  0  0  0  0  0  0  0  0  0  0
  1  2  2  0
  2  3  1  0
  4  3  2  0
  5  4  1  0
  6  1  1  0
  6  5  2  0
  7  5  1  0
  7  8  1  0
  9  8  1  0
 10  9  1  0
 11 12  1  6
 11 10  1  0
 11  7  1  0
 13 12  1  0
 14 16  1  0
 14 13  2  0
 15 13  1  0
 17 11  1  0
 18 17  1  0
 19 23  1  0
 19 18  1  0
 20 19  2  0
 21 20  1  0
 21 22  1  0
 22 24  1  0
 22 23  2  0
 24 28  1  0
 25 24  2  0
 25 26  1  0
 26 27  1  0
 27 28  2  0
  1 29  1  0
  2 30  1  0
  3 31  1  0
  8 32  1  0
  8 33  1  0
  9 34  1  0
  9 35  1  0
 10 36  1  0
 10 37  1  0
 12 38  1  0
 15 39  1  0
 15 40  1  0
 17 41  1  0
 17 42  1  0
 18 43  1  0
 18 44  1  0
 20 45  1  0
 27 46  1  0
M  ISO  8  29  14  30  14  31  14  32  13  33  13  34  13  35  13  36  13
M  ISO  7  37  13  41   8  42   8  43   8  44   8  45  14  46  14
M  END
>  <minimizedAffinity>  (1) 
-5.40462828

>  <minimizedRMSD>  (1) 
0.844067156

$$$$
