
     RDKit          3D

 42 44  0  0  1  0  0  0  0  0999 V2000
   40.5560   22.7900   35.4490 C   0  0  0  0  0  0  0  0  0  0  0  0
   40.1560   22.2600   36.6780 C   0  0  0  0  0  0  0  0  0  0  0  0
   39.1980   22.9740   37.3940 C   0  0  0  0  0  0  0  0  0  0  0  0
   38.7080   24.1270   36.8790 N   0  0  0  0  0  0  0  0  0  0  0  0
   39.1010   24.6070   35.7180 C   0  0  0  0  0  0  0  0  0  0  0  0
   40.0250   23.9250   35.0180 N   0  0  0  0  0  0  0  0  0  0  0  0
   38.5840   25.7940   35.2310 N   0  0  0  0  0  0  0  0  0  0  0  0
   38.5670   26.9720   35.9970 C   0  0  0  0  0  0  0  0  0  0  0  0
   37.6480   27.8770   35.4220 C   0  0  0  0  0  0  0  0  0  0  0  0
   36.9820   27.1450   34.2820 C   0  0  0  0  0  0  0  0  0  0  0  0
   37.9940   26.2010   33.9430 C   0  0  2  0  0  0  0  0  0  0  0  0
   37.6150   24.9680   33.2910 N   0  0  0  0  0  0  0  0  0  0  0  0
   36.6650   24.6920   32.2890 C   0  0  0  0  0  0  0  0  0  0  0  0
   36.0530   25.6980   31.7940 N   0  0  0  0  0  0  0  0  0  0  0  0
   36.3060   23.4370   31.7480 N   0  0  0  0  0  0  0  0  0  0  0  0
   36.0510   26.6000   32.1110 H   0  0  0  0  0  0  0  0  0  0  0  0
   39.1520   26.9590   33.3980 C   0  0  0  0  0  0  0  0  0  0  0  0
   39.3120   27.0890   31.9450 C   0  0  0  0  0  0  0  0  0  0  0  0
   38.5200   27.8870   31.0690 C   0  0  0  0  0  0  0  0  0  0  0  0
   39.0730   27.8390   29.7310 C   0  0  0  0  0  0  0  0  0  0  0  0
   37.9040   28.8480   28.7580 S   0  0  0  0  0  0  0  0  0  0  0  0
   36.8370   29.2080   30.2230 C   0  0  0  0  0  0  0  0  0  0  0  0
   37.4610   28.5720   31.1470 N   0  0  0  0  0  0  0  0  0  0  0  0
   35.6780   29.9750   30.2310 O   0  0  0  0  0  0  0  0  0  0  0  0
   41.3091   22.2671   34.8412 H   0  0  0  0  0  0  0  0  0  0  0  0
   40.5788   21.3204   37.0633 H   0  0  0  0  0  0  0  0  0  0  0  0
   38.8430   22.6053   38.3677 H   0  0  0  0  0  0  0  0  0  0  0  0
   38.2601   26.7384   37.0272 H   0  0  0  0  0  0  0  0  0  0  0  0
   39.5713   27.4205   36.0142 H   0  0  0  0  0  0  0  0  0  0  0  0
   36.8985   28.1823   36.1670 H   0  0  0  0  0  0  0  0  0  0  0  0
   38.1543   28.7873   35.0685 H   0  0  0  0  0  0  0  0  0  0  0  0
   36.0564   26.6471   34.6065 H   0  0  0  0  0  0  0  0  0  0  0  0
   36.6645   27.7907   33.4500 H   0  0  0  0  0  0  0  0  0  0  0  0
   38.1341   24.1410   33.6189 H   0  0  0  0  0  0  0  0  0  0  0  0
   35.5878   23.3799   31.0119 H   0  0  0  0  0  0  0  0  0  0  0  0
   36.7625   22.5793   32.0898 H   0  0  0  0  0  0  0  0  0  0  0  0
   39.0869   27.9788   33.8051 H   0  0  0  0  0  0  0  0  0  0  0  0
   40.0207   26.3557   33.7003 H   0  0  0  0  0  0  0  0  0  0  0  0
   40.3424   27.4467   31.8027 H   0  0  0  0  0  0  0  0  0  0  0  0
   38.9707   26.0899   31.6363 H   0  0  0  0  0  0  0  0  0  0  0  0
   39.9789   27.3198   29.3849 H   0  0  0  0  0  0  0  0  0  0  0  0
   35.1774   30.1067   31.0749 H   0  0  0  0  0  0  0  0  0  0  0  0
  1  2  2  0
  2  3  1  0
  4  3  2  0
  5  4  1  0
  6  1  1  0
  6  5  2  0
  7  5  1  0
  7  8  1  0
  9  8  1  0
 10  9  1  0
 11 12  1  6
 11 10  1  0
 11  7  1  0
 13 12  1  0
 14 16  1  0
 14 13  2  0
 15 13  1  0
 17 11  1  0
 18 17  1  0
 19 23  1  0
 19 18  1  0
 20 19  2  0
 21 20  1  0
 21 22  1  0
 22 24  1  0
 22 23  2  0
  1 25  1  0
  2 26  1  0
  3 27  1  0
  8 28  1  0
  8 29  1  0
  9 30  1  0
  9 31  1  0
 10 32  1  0
 10 33  1  0
 12 34  1  0
 15 35  1  0
 15 36  1  0
 17 37  1  0
 17 38  1  0
 18 39  1  0
 18 40  1  0
 20 41  1  0
 24 42  1  0
M  ISO  8  25  14  26  14  27  14  28  13  29  13  30  13  31  13  32  13
M  ISO  7  33  13  37   8  38   8  39   8  40   8  41  14  42   3
M  END
>  <minimizedAffinity>  (1) 
-5.3859067

>  <minimizedRMSD>  (1) 
0.273096234

$$$$
