
     RDKit          3D

 44 46  0  0  1  0  0  0  0  0999 V2000
   40.6640   22.7240   35.5360 C   0  0  0  0  0  0  0  0  0  0  0  0
   40.2820   22.2260   36.7830 C   0  0  0  0  0  0  0  0  0  0  0  0
   39.3190   22.9430   37.4860 C   0  0  0  0  0  0  0  0  0  0  0  0
   38.8030   24.0720   36.9410 N   0  0  0  0  0  0  0  0  0  0  0  0
   39.1790   24.5230   35.7620 C   0  0  0  0  0  0  0  0  0  0  0  0
   40.1090   23.8380   35.0760 N   0  0  0  0  0  0  0  0  0  0  0  0
   38.6380   25.6860   35.2450 N   0  0  0  0  0  0  0  0  0  0  0  0
   38.6030   26.8820   35.9750 C   0  0  0  0  0  0  0  0  0  0  0  0
   37.6610   27.7540   35.3810 C   0  0  0  0  0  0  0  0  0  0  0  0
   37.0000   26.9760   34.2680 C   0  0  0  0  0  0  0  0  0  0  0  0
   38.0290   26.0410   33.9480 C   0  0  2  0  0  0  0  0  0  0  0  0
   37.6660   24.7830   33.3390 N   0  0  0  0  0  0  0  0  0  0  0  0
   36.7180   24.4620   32.3500 C   0  0  0  0  0  0  0  0  0  0  0  0
   36.0920   25.4400   31.8220 N   0  0  0  0  0  0  0  0  0  0  0  0
   36.3730   23.1810   31.8540 N   0  0  0  0  0  0  0  0  0  0  0  0
   36.0780   26.3500   32.1100 H   0  0  0  0  0  0  0  0  0  0  0  0
   39.1650   26.8070   33.3740 C   0  0  0  0  0  0  0  0  0  0  0  0
   39.2550   26.9760   31.9170 C   0  0  0  0  0  0  0  0  0  0  0  0
   38.4980   27.8990   31.1250 C   0  0  0  0  0  0  0  0  0  0  0  0
   38.8170   27.7060   29.7250 C   0  0  0  0  0  0  0  0  0  0  0  0
   37.7310   28.9050   28.8830 S   0  0  0  0  0  0  0  0  0  0  0  0
   37.0010   29.5010   30.4680 C   0  0  0  0  0  0  0  0  0  0  0  0
   37.6190   28.7830   31.3250 N   0  0  0  0  0  0  0  0  0  0  0  0
   35.9460   30.5820   30.4770 C   0  0  0  0  0  0  0  0  0  0  0  0
   41.4211   22.1957   34.9379 H   0  0  0  0  0  0  0  0  0  0  0  0
   40.7237   21.3056   37.1925 H   0  0  0  0  0  0  0  0  0  0  0  0
   38.9798   22.5974   38.4737 H   0  0  0  0  0  0  0  0  0  0  0  0
   38.3081   26.6721   37.0137 H   0  0  0  0  0  0  0  0  0  0  0  0
   39.5984   27.3502   35.9712 H   0  0  0  0  0  0  0  0  0  0  0  0
   36.9118   28.0668   36.1232 H   0  0  0  0  0  0  0  0  0  0  0  0
   38.1469   28.6632   34.9972 H   0  0  0  0  0  0  0  0  0  0  0  0
   36.0868   26.4701   34.6146 H   0  0  0  0  0  0  0  0  0  0  0  0
   36.6633   27.5907   33.4202 H   0  0  0  0  0  0  0  0  0  0  0  0
   38.1971   23.9744   33.6925 H   0  0  0  0  0  0  0  0  0  0  0  0
   35.6544   23.0886   31.1219 H   0  0  0  0  0  0  0  0  0  0  0  0
   36.8407   22.3418   32.2254 H   0  0  0  0  0  0  0  0  0  0  0  0
   39.1263   27.8152   33.8123 H   0  0  0  0  0  0  0  0  0  0  0  0
   40.0440   26.1931   33.6199 H   0  0  0  0  0  0  0  0  0  0  0  0
   40.3083   27.2252   31.7209 H   0  0  0  0  0  0  0  0  0  0  0  0
   38.7952   26.0312   31.5916 H   0  0  0  0  0  0  0  0  0  0  0  0
   39.5388   27.0063   29.2784 H   0  0  0  0  0  0  0  0  0  0  0  0
   35.6942   30.8400   31.5163 H   0  0  0  0  0  0  0  0  0  0  0  0
   36.3305   31.4739   29.9606 H   0  0  0  0  0  0  0  0  0  0  0  0
   35.0450   30.2193   29.9606 H   0  0  0  0  0  0  0  0  0  0  0  0
  1  2  2  0
  2  3  1  0
  4  3  2  0
  5  4  1  0
  6  1  1  0
  6  5  2  0
  7  5  1  0
  7  8  1  0
  9  8  1  0
 10  9  1  0
 11 12  1  6
 11 10  1  0
 11  7  1  0
 13 12  1  0
 14 16  1  0
 14 13  2  0
 15 13  1  0
 17 11  1  0
 18 17  1  0
 19 23  1  0
 19 18  1  0
 20 19  2  0
 21 20  1  0
 21 22  1  0
 22 24  1  0
 22 23  2  0
  1 25  1  0
  2 26  1  0
  3 27  1  0
  8 28  1  0
  8 29  1  0
  9 30  1  0
  9 31  1  0
 10 32  1  0
 10 33  1  0
 12 34  1  0
 15 35  1  0
 15 36  1  0
 17 37  1  0
 17 38  1  0
 18 39  1  0
 18 40  1  0
 20 41  1  0
 24 42  1  0
 24 43  1  0
 24 44  1  0
M  ISO  8  25  14  26  14  27  14  28  13  29  13  30  13  31  13  32  13
M  ISO  8  33  13  37   8  38   8  39   8  40   8  41  14  42   8  43   8
M  ISO  1  44   8
M  END
>  <minimizedAffinity>  (1) 
-5.06825352

>  <minimizedRMSD>  (1) 
0.473940194

$$$$
