
     RDKit          3D

 48 51  0  0  1  0  0  0  0  0999 V2000
   40.5410   22.6700   35.4250 C   0  0  0  0  0  0  0  0  0  0  0  0
   40.1690   22.1610   36.6760 C   0  0  0  0  0  0  0  0  0  0  0  0
   39.2510   22.9100   37.4150 C   0  0  0  0  0  0  0  0  0  0  0  0
   38.7770   24.0630   36.8990 N   0  0  0  0  0  0  0  0  0  0  0  0
   39.1410   24.5240   35.7220 C   0  0  0  0  0  0  0  0  0  0  0  0
   40.0230   23.8120   35.0010 N   0  0  0  0  0  0  0  0  0  0  0  0
   38.6370   25.7200   35.2380 N   0  0  0  0  0  0  0  0  0  0  0  0
   38.6670   26.9010   35.9910 C   0  0  0  0  0  0  0  0  0  0  0  0
   37.7520   27.8220   35.4370 C   0  0  0  0  0  0  0  0  0  0  0  0
   37.0300   27.0930   34.3280 C   0  0  0  0  0  0  0  0  0  0  0  0
   38.0150   26.1240   33.9640 C   0  0  2  0  0  0  0  0  0  0  0  0
   37.5930   24.8960   33.3350 N   0  0  0  0  0  0  0  0  0  0  0  0
   36.6540   24.6400   32.3190 C   0  0  0  0  0  0  0  0  0  0  0  0
   36.1110   25.6580   31.7760 N   0  0  0  0  0  0  0  0  0  0  0  0
   36.2400   23.3840   31.8110 N   0  0  0  0  0  0  0  0  0  0  0  0
   36.1450   26.5650   32.0730 H   0  0  0  0  0  0  0  0  0  0  0  0
   39.1760   26.8500   33.3750 C   0  0  0  0  0  0  0  0  0  0  0  0
   39.2500   27.0660   31.9260 C   0  0  0  0  0  0  0  0  0  0  0  0
   38.4410   27.9640   31.1560 C   0  0  0  0  0  0  0  0  0  0  0  0
   38.7760   27.8110   29.7490 C   0  0  0  0  0  0  0  0  0  0  0  0
   37.6350   29.0130   28.9470 S   0  0  0  0  0  0  0  0  0  0  0  0
   36.8880   29.5390   30.5470 C   0  0  0  0  0  0  0  0  0  0  0  0
   37.5260   28.8180   31.3980 N   0  0  0  0  0  0  0  0  0  0  0  0
   35.8420   30.5320   30.6830 C   0  0  0  0  0  0  0  0  0  0  0  0
   34.6500   30.5370   31.2950 C   0  0  0  0  0  0  0  0  0  0  0  0
   33.9220   31.6920   31.2010 C   0  0  0  0  0  0  0  0  0  0  0  0
   34.3540   32.7830   30.5360 C   0  0  0  0  0  0  0  0  0  0  0  0
   36.0250   32.1520   29.9310 S   0  0  0  0  0  0  0  0  0  0  0  0
   41.2604   22.1231   34.7978 H   0  0  0  0  0  0  0  0  0  0  0  0
   40.5809   21.2154   37.0583 H   0  0  0  0  0  0  0  0  0  0  0  0
   38.9186   22.5645   38.4050 H   0  0  0  0  0  0  0  0  0  0  0  0
   38.3857   26.6822   37.0317 H   0  0  0  0  0  0  0  0  0  0  0  0
   39.6807   27.3276   35.9734 H   0  0  0  0  0  0  0  0  0  0  0  0
   37.0358   28.1540   36.2030 H   0  0  0  0  0  0  0  0  0  0  0  0
   38.2678   28.7159   35.0563 H   0  0  0  0  0  0  0  0  0  0  0  0
   36.1069   26.6166   34.6898 H   0  0  0  0  0  0  0  0  0  0  0  0
   36.6944   27.7362   33.5012 H   0  0  0  0  0  0  0  0  0  0  0  0
   38.0647   24.0541   33.6950 H   0  0  0  0  0  0  0  0  0  0  0  0
   35.5378   23.3388   31.0589 H   0  0  0  0  0  0  0  0  0  0  0  0
   36.6412   22.5160   32.1938 H   0  0  0  0  0  0  0  0  0  0  0  0
   39.2002   27.8440   33.8454 H   0  0  0  0  0  0  0  0  0  0  0  0
   40.0217   26.1749   33.5725 H   0  0  0  0  0  0  0  0  0  0  0  0
   40.2867   27.3811   31.7364 H   0  0  0  0  0  0  0  0  0  0  0  0
   38.8397   26.1067   31.5775 H   0  0  0  0  0  0  0  0  0  0  0  0
   39.5199   27.1476   29.2836 H   0  0  0  0  0  0  0  0  0  0  0  0
   34.2766   29.6597   31.8436 H   0  0  0  0  0  0  0  0  0  0  0  0
   32.9380   31.7325   31.6910 H   0  0  0  0  0  0  0  0  0  0  0  0
   33.8706   33.7601   30.3888 H   0  0  0  0  0  0  0  0  0  0  0  0
  1  2  2  0
  2  3  1  0
  4  3  2  0
  5  4  1  0
  6  1  1  0
  6  5  2  0
  7  5  1  0
  7  8  1  0
  9  8  1  0
 10  9  1  0
 11 12  1  6
 11 10  1  0
 11  7  1  0
 13 12  1  0
 14 16  1  0
 14 13  2  0
 15 13  1  0
 17 11  1  0
 18 17  1  0
 19 23  1  0
 19 18  1  0
 20 19  2  0
 21 20  1  0
 21 22  1  0
 22 24  1  0
 22 23  2  0
 24 25  2  0
 26 25  1  0
 27 26  2  0
 28 27  1  0
 28 24  1  0
  1 29  1  0
  2 30  1  0
  3 31  1  0
  8 32  1  0
  8 33  1  0
  9 34  1  0
  9 35  1  0
 10 36  1  0
 10 37  1  0
 12 38  1  0
 15 39  1  0
 15 40  1  0
 17 41  1  0
 17 42  1  0
 18 43  1  0
 18 44  1  0
 20 45  1  0
 25 46  1  0
 26 47  1  0
 27 48  1  0
M  ISO  8  29  14  30  14  31  14  32  13  33  13  34  13  35  13  36  13
M  ISO  8  37  13  41   8  42   8  43   8  44   8  45  14  46  14  47  14
M  ISO  1  48  14
M  END
>  <minimizedAffinity>  (1) 
-5.33976841

>  <minimizedRMSD>  (1) 
0.932484269

$$$$
