
     RDKit          3D

 29 31  0  0  0  0  0  0  0  0999 V2000
   40.4070   22.5760   34.9990 C   0  0  0  0  0  0  0  0  0  0  0  0
   39.6080   22.2550   36.0960 C   0  0  0  0  0  0  0  0  0  0  0  0
   38.2260   22.5010   36.0270 C   0  0  0  0  0  0  0  0  0  0  0  0
   37.7410   23.0440   34.8790 N   0  0  0  0  0  0  0  0  0  0  0  0
   38.5440   23.3460   33.8270 C   0  0  0  0  0  0  0  0  0  0  0  0
   39.8610   23.1140   33.8870 N   0  0  0  0  0  0  0  0  0  0  0  0
   37.2810   22.2390   37.0370 N   0  0  0  0  0  0  0  0  0  0  0  0
   37.8970   23.9170   32.6730 N   0  0  0  0  0  0  0  0  0  0  0  0
   38.0380   25.1770   32.2410 N   0  0  0  0  0  0  0  0  0  0  0  0
   37.2670   25.3330   31.1260 C   0  0  0  0  0  0  0  0  0  0  0  0
   36.6430   24.1120   30.8880 C   0  0  0  0  0  0  0  0  0  0  0  0
   37.0610   23.2360   31.8820 C   0  0  0  0  0  0  0  0  0  0  0  0
   36.6230   21.8480   31.9770 C   0  0  0  0  0  0  0  0  0  0  0  0
   35.2570   21.6970   32.2230 C   0  0  0  0  0  0  0  0  0  0  0  0
   34.7310   20.4150   32.3310 C   0  0  0  0  0  0  0  0  0  0  0  0
   35.5530   19.3120   32.1990 C   0  0  0  0  0  0  0  0  0  0  0  0
   36.9000   19.4780   31.9580 C   0  0  0  0  0  0  0  0  0  0  0  0
   37.4360   20.7320   31.8460 C   0  0  0  0  0  0  0  0  0  0  0  0
   41.4903   22.3896   35.0397 H   0  0  0  0  0  0  0  0  0  0  0  0
   40.0526   21.8160   37.0013 H   0  0  0  0  0  0  0  0  0  0  0  0
   36.2868   22.4590   36.8817 H   0  0  0  0  0  0  0  0  0  0  0  0
   37.5838   21.8273   37.9313 H   0  0  0  0  0  0  0  0  0  0  0  0
   37.1591   26.2502   30.5284 H   0  0  0  0  0  0  0  0  0  0  0  0
   35.9485   23.8832   30.0662 H   0  0  0  0  0  0  0  0  0  0  0  0
   34.6075   22.5784   32.3296 H   0  0  0  0  0  0  0  0  0  0  0  0
   33.6565   20.2779   32.5222 H   0  0  0  0  0  0  0  0  0  0  0  0
   35.1316   18.2997   32.2864 H   0  0  0  0  0  0  0  0  0  0  0  0
   37.5489   18.5958   31.8549 H   0  0  0  0  0  0  0  0  0  0  0  0
   38.5118   20.8550   31.6521 H   0  0  0  0  0  0  0  0  0  0  0  0
  1  2  2  0
  3  2  1  0
  3  7  1  0
  4  3  2  0
  5  6  2  0
  5  4  1  0
  6  1  1  0
  8  5  1  0
  9  8  1  0
 10  9  2  0
 11 10  1  0
 11 12  2  0
 12 13  1  0
 12  8  1  0
 13 14  2  0
 14 15  1  0
 16 15  2  0
 17 16  1  0
 18 17  2  0
 18 13  1  0
  1 19  1  0
  2 20  1  0
  7 21  1  0
  7 22  1  0
 10 23  1  0
 11 24  1  0
 14 25  1  0
 15 26  1  0
 16 27  1  0
 17 28  1  0
 18 29  1  0
M  ISO  8  19  14  20  14  23  14  24  14  25  14  26  14  27  14  28  14
M  ISO  1  29  14
M  END
>  <minimizedAffinity>  (1) 
-4.84041166

>  <minimizedRMSD>  (1) 
4.16759205

$$$$
