
     RDKit          3D

 30 33  0  0  0  0  0  0  0  0999 V2000
   38.1860   26.7340   31.1230 C   0  0  0  0  0  0  0  0  0  0  0  0
   38.1500   27.4820   32.3090 C   0  0  0  0  0  0  0  0  0  0  0  0
   37.6180   26.8970   33.4620 C   0  0  0  0  0  0  0  0  0  0  0  0
   37.1510   25.6100   33.3920 N   0  0  0  0  0  0  0  0  0  0  0  0
   37.2050   24.9180   32.2190 C   0  0  0  0  0  0  0  0  0  0  0  0
   37.7150   25.4790   31.1170 N   0  0  0  0  0  0  0  0  0  0  0  0
   37.5060   27.5040   34.7300 N   0  0  0  0  0  0  0  0  0  0  0  0
   36.6880   23.5690   32.2490 N   0  0  0  0  0  0  0  0  0  0  0  0
   35.6060   23.1300   31.6360 N   0  0  0  0  0  0  0  0  0  0  0  0
   35.4440   21.8080   31.8990 C   0  0  0  0  0  0  0  0  0  0  0  0
   36.5070   21.4430   32.7260 C   0  0  0  0  0  0  0  0  0  0  0  0
   37.2940   22.5710   32.9430 C   0  0  0  0  0  0  0  0  0  0  0  0
   38.4830   22.7080   33.7140 N   0  0  0  0  0  0  0  0  0  0  0  0
   39.7250   22.7140   33.1920 C   0  0  0  0  0  0  0  0  0  0  0  0
   40.5450   22.8610   34.2310 N   0  0  0  0  0  0  0  0  0  0  0  0
   39.8350   22.9460   35.3750 C   0  0  0  0  0  0  0  0  0  0  0  0
   40.2140   23.1000   36.6910 C   0  0  0  0  0  0  0  0  0  0  0  0
   39.2040   23.1450   37.5920 N   0  0  0  0  0  0  0  0  0  0  0  0
   37.9080   23.0480   37.2550 C   0  0  0  0  0  0  0  0  0  0  0  0
   37.5270   22.8980   35.9740 N   0  0  0  0  0  0  0  0  0  0  0  0
   38.4890   22.8480   35.0520 C   0  0  0  0  0  0  0  0  0  0  0  0
   38.5983   27.1746   30.2033 H   0  0  0  0  0  0  0  0  0  0  0  0
   38.5342   28.5125   32.3316 H   0  0  0  0  0  0  0  0  0  0  0  0
   37.0961   26.9810   35.5170 H   0  0  0  0  0  0  0  0  0  0  0  0
   37.8341   28.4704   34.8692 H   0  0  0  0  0  0  0  0  0  0  0  0
   34.6371   21.1558   31.5337 H   0  0  0  0  0  0  0  0  0  0  0  0
   36.6912   20.4388   33.1353 H   0  0  0  0  0  0  0  0  0  0  0  0
   40.0029   22.6178   32.1320 H   0  0  0  0  0  0  0  0  0  0  0  0
   41.2694   23.1812   36.9904 H   0  0  0  0  0  0  0  0  0  0  0  0
   37.1419   23.0921   38.0431 H   0  0  0  0  0  0  0  0  0  0  0  0
  1  2  2  0
  2  3  1  0
  3  7  1  0
  4  3  2  0
  5  8  1  0
  5  4  1  0
  6  1  1  0
  6  5  2  0
  8 12  1  0
  9 10  2  0
  9  8  1  0
 10 11  1  0
 11 12  2  0
 12 13  1  0
 13 21  1  0
 14 13  1  0
 14 15  2  0
 15 16  1  0
 16 17  2  0
 17 18  1  0
 19 18  2  0
 20 19  1  0
 21 16  1  0
 21 20  2  0
  1 22  1  0
  2 23  1  0
  7 24  1  0
  7 25  1  0
 10 26  1  0
 11 27  1  0
 14 28  1  0
 17 29  1  0
 19 30  1  0
M  ISO  7  22  14  23  14  26  14  27  14  28  14  29  14  30  14
M  END
>  <minimizedAffinity>  (1) 
-4.83603477

>  <minimizedRMSD>  (1) 
5.01111937

$$$$
