
     RDKit          3D

 34 36  0  0  0  0  0  0  0  0999 V2000
   41.4770   22.8380   36.4460 C   0  0  0  0  0  0  0  0  0  0  0  0
   40.7630   22.5860   37.6370 C   0  0  0  0  0  0  0  0  0  0  0  0
   39.4030   22.8600   37.6670 C   0  0  0  0  0  0  0  0  0  0  0  0
   38.8140   23.3610   36.5440 N   0  0  0  0  0  0  0  0  0  0  0  0
   39.5100   23.5960   35.4120 C   0  0  0  0  0  0  0  0  0  0  0  0
   40.8360   23.3310   35.3760 N   0  0  0  0  0  0  0  0  0  0  0  0
   38.5560   22.6760   38.7760 N   0  0  0  0  0  0  0  0  0  0  0  0
   38.7970   24.1240   34.2990 N   0  0  0  0  0  0  0  0  0  0  0  0
   38.9130   25.3550   33.7840 N   0  0  0  0  0  0  0  0  0  0  0  0
   38.0580   25.4700   32.7350 C   0  0  0  0  0  0  0  0  0  0  0  0
   37.3990   24.2460   32.6150 C   0  0  0  0  0  0  0  0  0  0  0  0
   37.8890   23.4240   33.6150 C   0  0  0  0  0  0  0  0  0  0  0  0
   37.3460   22.1190   33.6900 N   0  0  0  0  0  0  0  0  0  0  0  0
   36.5030   21.5230   34.7160 C   0  0  0  0  0  0  0  0  0  0  0  0
   35.6490   20.4010   34.2400 C   0  0  0  0  0  0  0  0  0  0  0  0
   35.2770   20.3980   32.7990 C   0  0  0  0  0  0  0  0  0  0  0  0
   36.2920   21.0300   31.8730 C   0  0  0  0  0  0  0  0  0  0  0  0
   37.6080   21.1440   32.6290 C   0  0  0  0  0  0  0  0  0  0  0  0
   42.5561   22.6307   36.3954 H   0  0  0  0  0  0  0  0  0  0  0  0
   41.2739   22.1809   38.5229 H   0  0  0  0  0  0  0  0  0  0  0  0
   37.5551   22.9083   38.7038 H   0  0  0  0  0  0  0  0  0  0  0  0
   38.9370   22.3090   39.6598 H   0  0  0  0  0  0  0  0  0  0  0  0
   37.9129   26.3576   32.1017 H   0  0  0  0  0  0  0  0  0  0  0  0
   36.6353   23.9841   31.8678 H   0  0  0  0  0  0  0  0  0  0  0  0
   37.1540   21.1430   35.5171 H   0  0  0  0  0  0  0  0  0  0  0  0
   35.8184   22.3140   35.0559 H   0  0  0  0  0  0  0  0  0  0  0  0
   36.1875   19.4641   34.4454 H   0  0  0  0  0  0  0  0  0  0  0  0
   34.6977   20.5177   34.7799 H   0  0  0  0  0  0  0  0  0  0  0  0
   35.1344   19.3531   32.4861 H   0  0  0  0  0  0  0  0  0  0  0  0
   34.3655   21.0083   32.7167 H   0  0  0  0  0  0  0  0  0  0  0  0
   35.9484   22.0295   31.5681 H   0  0  0  0  0  0  0  0  0  0  0  0
   36.4211   20.4158   30.9696 H   0  0  0  0  0  0  0  0  0  0  0  0
   37.8942   20.1722   33.0576 H   0  0  0  0  0  0  0  0  0  0  0  0
   38.4370   21.4537   31.9756 H   0  0  0  0  0  0  0  0  0  0  0  0
  1  2  2  0
  2  3  1  0
  3  7  1  0
  4  3  2  0
  5  4  1  0
  6  5  2  0
  6  1  1  0
  8  5  1  0
  9  8  1  0
 10  9  2  0
 11 10  1  0
 11 12  2  0
 12 13  1  0
 12  8  1  0
 13 14  1  0
 15 14  1  0
 16 15  1  0
 17 18  1  0
 17 16  1  0
 18 13  1  0
  1 19  1  0
  2 20  1  0
  7 21  1  0
  7 22  1  0
 10 23  1  0
 11 24  1  0
 14 25  1  0
 14 26  1  0
 15 27  1  0
 15 28  1  0
 16 29  1  0
 16 30  1  0
 17 31  1  0
 17 32  1  0
 18 33  1  0
 18 34  1  0
M  ISO  8  19  14  20  14  23  14  24  14  25  13  26  13  27  13  28  13
M  ISO  6  29  13  30  13  31  13  32  13  33  13  34  13
M  END
>  <minimizedAffinity>  (1) 
-5.11879349

>  <minimizedRMSD>  (1) 
3.50105095

$$$$
