
     RDKit          3D

 24 26  0  0  0  0  0  0  0  0999 V2000
   41.6190   22.8180   36.6560 C   0  0  0  0  0  0  0  0  0  0  0  0
   40.7220   22.4420   37.6780 C   0  0  0  0  0  0  0  0  0  0  0  0
   39.4380   22.9670   37.6540 C   0  0  0  0  0  0  0  0  0  0  0  0
   39.0800   23.8230   36.6530 N   0  0  0  0  0  0  0  0  0  0  0  0
   39.9700   24.1670   35.6770 C   0  0  0  0  0  0  0  0  0  0  0  0
   41.2080   23.6650   35.6950 N   0  0  0  0  0  0  0  0  0  0  0  0
   38.4200   22.6910   38.6040 N   0  0  0  0  0  0  0  0  0  0  0  0
   39.4990   25.0710   34.6720 N   0  0  0  0  0  0  0  0  0  0  0  0
   39.8940   26.3200   34.4770 N   0  0  0  0  0  0  0  0  0  0  0  0
   39.2240   26.8630   33.4340 C   0  0  0  0  0  0  0  0  0  0  0  0
   38.3700   25.8690   32.9740 C   0  0  0  0  0  0  0  0  0  0  0  0
   38.5520   24.7270   33.7730 C   0  0  0  0  0  0  0  0  0  0  0  0
   37.8090   23.4900   33.5660 C   0  0  0  0  0  0  0  0  0  0  0  0
   37.0110   23.3190   32.4960 N   0  0  0  0  0  0  0  0  0  0  0  0
   36.4690   22.1310   32.5550 O   0  0  0  0  0  0  0  0  0  0  0  0
   36.8610   21.4950   33.6100 C   0  0  0  0  0  0  0  0  0  0  0  0
   37.7130   22.3350   34.2690 N   0  0  0  0  0  0  0  0  0  0  0  0
   42.6452   22.4221   36.6450 H   0  0  0  0  0  0  0  0  0  0  0  0
   41.0330   21.7497   38.4742 H   0  0  0  0  0  0  0  0  0  0  0  0
   37.4923   23.1277   38.5063 H   0  0  0  0  0  0  0  0  0  0  0  0
   38.6090   22.0540   39.3910 H   0  0  0  0  0  0  0  0  0  0  0  0
   39.3333   27.8816   33.0332 H   0  0  0  0  0  0  0  0  0  0  0  0
   37.6712   25.9599   32.1294 H   0  0  0  0  0  0  0  0  0  0  0  0
   36.5671   20.4801   33.9159 H   0  0  0  0  0  0  0  0  0  0  0  0
  1  2  2  0
  3  2  1  0
  3  7  1  0
  4  3  2  0
  5  6  2  0
  5  4  1  0
  6  1  1  0
  8  5  1  0
  9  8  1  0
 10  9  2  0
 11 10  1  0
 11 12  2  0
 12  8  1  0
 13 12  1  0
 13 17  1  0
 14 15  1  0
 14 13  2  0
 15 16  1  0
 16 17  2  0
  1 18  1  0
  2 19  1  0
  7 20  1  0
  7 21  1  0
 10 22  1  0
 11 23  1  0
 16 24  1  0
M  ISO  5  18  14  19  14  22  14  23  14  24  14
M  END
>  <minimizedAffinity>  (1) 
-4.61114883

>  <minimizedRMSD>  (1) 
4.27528286

$$$$
