
     RDKit          3D

 25 27  0  0  0  0  0  0  0  0999 V2000
   40.5380   26.3960   33.0730 C   0  0  0  0  0  0  0  0  0  0  0  0
   40.2190   27.2630   34.1190 C   0  0  0  0  0  0  0  0  0  0  0  0
   39.1860   26.9040   34.9890 C   0  0  0  0  0  0  0  0  0  0  0  0
   38.5530   25.7230   34.7590 N   0  0  0  0  0  0  0  0  0  0  0  0
   38.8740   24.8990   33.7450 C   0  0  0  0  0  0  0  0  0  0  0  0
   39.8620   25.2410   32.9110 N   0  0  0  0  0  0  0  0  0  0  0  0
   38.7370   27.6580   36.0920 N   0  0  0  0  0  0  0  0  0  0  0  0
   38.1120   23.6770   33.6240 N   0  0  0  0  0  0  0  0  0  0  0  0
   37.2740   23.3750   32.6530 N   0  0  0  0  0  0  0  0  0  0  0  0
   36.7350   22.1600   32.8510 C   0  0  0  0  0  0  0  0  0  0  0  0
   37.3050   21.7120   34.0350 C   0  0  0  0  0  0  0  0  0  0  0  0
   38.1920   22.6840   34.5380 C   0  0  0  0  0  0  0  0  0  0  0  0
   38.9910   22.5900   35.7720 C   0  0  0  0  0  0  0  0  0  0  0  0
   40.2620   22.0400   35.7860 C   0  0  0  0  0  0  0  0  0  0  0  0
   40.7410   22.1900   37.5410 S   0  0  0  0  0  0  0  0  0  0  0  0
   39.0790   23.0000   37.9700 C   0  0  0  0  0  0  0  0  0  0  0  0
   38.5370   23.0230   36.9300 N   0  0  0  0  0  0  0  0  0  0  0  0
   41.3473   26.6571   32.3753 H   0  0  0  0  0  0  0  0  0  0  0  0
   40.7677   28.2066   34.2554 H   0  0  0  0  0  0  0  0  0  0  0  0
   37.9649   27.3065   36.6761 H   0  0  0  0  0  0  0  0  0  0  0  0
   39.1810   28.5605   36.3139 H   0  0  0  0  0  0  0  0  0  0  0  0
   36.0047   21.6368   32.2162 H   0  0  0  0  0  0  0  0  0  0  0  0
   37.0952   20.7422   34.5098 H   0  0  0  0  0  0  0  0  0  0  0  0
   40.8384   21.6184   34.9493 H   0  0  0  0  0  0  0  0  0  0  0  0
   38.7165   23.3569   38.9453 H   0  0  0  0  0  0  0  0  0  0  0  0
  1  2  2  0
  2  3  1  0
  3  7  1  0
  4  3  2  0
  5  4  1  0
  6  1  1  0
  6  5  2  0
  8  5  1  0
  8 12  1  0
  9 10  2  0
  9  8  1  0
 10 11  1  0
 11 12  2  0
 12 13  1  0
 13 14  2  0
 13 17  1  0
 14 15  1  0
 15 16  1  0
 17 16  2  0
  1 18  1  0
  2 19  1  0
  7 20  1  0
  7 21  1  0
 10 22  1  0
 11 23  1  0
 14 24  1  0
 16 25  1  0
M  ISO  6  18  14  19  14  22  14  23  14  24  14  25  14
M  END
>  <minimizedAffinity>  (1) 
-4.61420965

>  <minimizedRMSD>  (1) 
4.22024155

$$$$
