
     RDKit          3D

 49 53  0  0  1  0  0  0  0  0999 V2000
   37.9030   22.7940   31.3320 N   0  0  0  0  0  0  0  0  0  0  0  0
   37.4700   23.9170   30.5270 C   0  0  0  0  0  0  0  0  0  0  0  0
   38.7360   24.6630   30.1240 C   0  0  0  0  0  0  0  0  0  0  0  0
   39.4350   23.7830   29.1130 C   0  0  0  0  0  0  0  0  0  0  0  0
   39.0520   22.3330   29.2940 C   0  0  0  0  0  0  0  0  0  0  0  0
   39.0270   22.0590   30.7960 C   0  0  2  0  0  0  0  0  0  0  0  0
   39.9870   22.6960   37.3000 C   0  0  0  0  0  0  0  0  0  0  0  0
   39.2790   23.1270   38.4320 C   0  0  0  0  0  0  0  0  0  0  0  0
   37.8960   23.2130   38.3530 C   0  0  0  0  0  0  0  0  0  0  0  0
   37.3130   22.8710   37.1780 N   0  0  0  0  0  0  0  0  0  0  0  0
   38.0130   22.4590   36.1020 C   0  0  0  0  0  0  0  0  0  0  0  0
   39.3410   22.3760   36.1780 N   0  0  0  0  0  0  0  0  0  0  0  0
   37.3650   22.1090   34.8870 N   0  0  0  0  0  0  0  0  0  0  0  0
   37.9500   22.6190   33.7920 C   0  0  0  0  0  0  0  0  0  0  0  0
   37.3880   22.3320   32.5520 C   0  0  0  0  0  0  0  0  0  0  0  0
   36.2690   21.5400   32.5730 C   0  0  0  0  0  0  0  0  0  0  0  0
   35.5860   21.1750   31.3960 N   0  0  0  0  0  0  0  0  0  0  0  0
   35.7160   21.0500   33.6880 N   0  0  0  0  0  0  0  0  0  0  0  0
   36.2790   21.3400   34.8940 C   0  0  0  0  0  0  0  0  0  0  0  0
   35.8500   20.9390   35.9880 O   0  0  0  0  0  0  0  0  0  0  0  0
   39.0830   20.6730   31.0890 N   0  0  0  0  0  0  0  0  0  0  0  0
   39.9860   20.1720   31.9880 C   0  0  0  0  0  0  0  0  0  0  0  0
   39.8520   18.8200   32.1160 N   0  0  0  0  0  0  0  0  0  0  0  0
   38.8570   18.4200   31.3050 C   0  0  0  0  0  0  0  0  0  0  0  0
   38.2360   17.2320   30.9740 C   0  0  0  0  0  0  0  0  0  0  0  0
   37.2110   17.1850   30.0730 N   0  0  0  0  0  0  0  0  0  0  0  0
   36.8060   18.3370   29.5000 C   0  0  0  0  0  0  0  0  0  0  0  0
   37.4140   19.4910   29.8250 N   0  0  0  0  0  0  0  0  0  0  0  0
   38.4180   19.5730   30.7010 C   0  0  0  0  0  0  0  0  0  0  0  0
   38.6890   16.0380   31.5990 N   0  0  0  0  0  0  0  0  0  0  0  0
   36.9354   23.5623   29.6335 H   0  0  0  0  0  0  0  0  0  0  0  0
   36.7808   24.5683   31.0845 H   0  0  0  0  0  0  0  0  0  0  0  0
   38.4806   25.6336   29.6739 H   0  0  0  0  0  0  0  0  0  0  0  0
   39.3782   24.8654   30.9938 H   0  0  0  0  0  0  0  0  0  0  0  0
   40.5229   23.8853   29.2395 H   0  0  0  0  0  0  0  0  0  0  0  0
   39.1304   24.1006   28.1049 H   0  0  0  0  0  0  0  0  0  0  0  0
   38.0581   22.1483   28.8602 H   0  0  0  0  0  0  0  0  0  0  0  0
   39.7709   21.6722   28.7875 H   0  0  0  0  0  0  0  0  0  0  0  0
   39.9316   22.4225   31.3054 H   0  0  0  0  0  0  0  0  0  0  0  0
   41.0838   22.6214   37.3382 H   0  0  0  0  0  0  0  0  0  0  0  0
   39.8074   23.3905   39.3601 H   0  0  0  0  0  0  0  0  0  0  0  0
   37.2953   23.5463   39.2121 H   0  0  0  0  0  0  0  0  0  0  0  0
   38.8495   23.2470   33.8727 H   0  0  0  0  0  0  0  0  0  0  0  0
   34.7483   20.5782   31.4507 H   0  0  0  0  0  0  0  0  0  0  0  0
   35.9244   21.5050   30.4808 H   0  0  0  0  0  0  0  0  0  0  0  0
   40.7223   20.7792   32.5349 H   0  0  0  0  0  0  0  0  0  0  0  0
   35.9826   18.3322   28.7707 H   0  0  0  0  0  0  0  0  0  0  0  0
   38.2446   15.1371   31.3716 H   0  0  0  0  0  0  0  0  0  0  0  0
   39.4616   16.0739   32.2792 H   0  0  0  0  0  0  0  0  0  0  0  0
  1 15  1  0
  2  1  1  0
  3  2  1  0
  4  5  1  0
  4  3  1  0
  5  6  1  0
  6 21  1  0
  6  1  1  0
  7  8  2  0
  9  8  1  0
 10  9  2  0
 11 12  2  0
 11 10  1  0
 12  7  1  0
 13 19  1  0
 13 11  1  0
 14 13  1  0
 15 16  1  0
 15 14  2  0
 16 18  2  0
 17 16  1  0
 18 19  1  0
 19 20  2  0
 21 22  1  0
 22 23  2  0
 24 23  1  0
 25 24  2  0
 25 30  1  0
 26 25  1  0
 27 28  1  0
 27 26  2  0
 28 29  2  0
 29 21  1  0
 29 24  1  0
  2 31  1  0
  2 32  1  0
  3 33  1  0
  3 34  1  0
  4 35  1  0
  4 36  1  0
  5 37  1  0
  5 38  1  0
  6 39  1  1
  7 40  1  0
  8 41  1  0
  9 42  1  0
 14 43  1  0
 17 44  1  0
 17 45  1  0
 22 46  1  0
 27 47  1  0
 30 48  1  0
 30 49  1  0
M  ISO  8  31  13  32  13  33  13  34  13  35  13  36  13  37  13  38  13
M  ISO  7  39  13  40  14  41  14  42  14  43  14  46  14  47  14
M  END
>  <minimizedAffinity>  (1) 
-5.69929075

>  <minimizedRMSD>  (1) 
1.33692765

$$$$
