
     RDKit          3D

 32 34  0  0  0  0  0  0  0  0999 V2000
   41.2080   22.8210   36.7020 C   0  0  0  0  0  0  0  0  0  0  0  0
   40.1270   22.5230   37.5590 C   0  0  0  0  0  0  0  0  0  0  0  0
   38.9120   23.1530   37.3560 C   0  0  0  0  0  0  0  0  0  0  0  0
   38.8210   24.0370   36.3290 N   0  0  0  0  0  0  0  0  0  0  0  0
   39.8470   24.3270   35.5080 C   0  0  0  0  0  0  0  0  0  0  0  0
   41.0420   23.7110   35.7030 N   0  0  0  0  0  0  0  0  0  0  0  0
   37.7380   22.9620   38.1220 N   0  0  0  0  0  0  0  0  0  0  0  0
   39.6230   25.2740   34.4670 N   0  0  0  0  0  0  0  0  0  0  0  0
   40.1570   26.4780   34.3520 N   0  0  0  0  0  0  0  0  0  0  0  0
   39.7220   27.1010   33.2410 C   0  0  0  0  0  0  0  0  0  0  0  0
   38.8550   26.1920   32.6430 C   0  0  0  0  0  0  0  0  0  0  0  0
   38.8090   25.0490   33.4330 C   0  0  0  0  0  0  0  0  0  0  0  0
   37.9920   23.9540   33.0390 N   0  0  0  0  0  0  0  0  0  0  0  0
   38.1350   22.5010   33.1810 C   0  0  0  0  0  0  0  0  0  0  0  0
   38.0710   21.9570   31.7470 C   0  0  0  0  0  0  0  0  0  0  0  0
   36.6850   21.9620   31.4640 O   0  0  0  0  0  0  0  0  0  0  0  0
   36.3520   23.2790   31.2990 C   0  0  0  0  0  0  0  0  0  0  0  0
   36.7650   24.2240   32.3670 C   0  0  0  0  0  0  0  0  0  0  0  0
   42.1812   22.3296   36.8484 H   0  0  0  0  0  0  0  0  0  0  0  0
   40.2489   21.7989   38.3781 H   0  0  0  0  0  0  0  0  0  0  0  0
   36.8802   23.4820   37.8882 H   0  0  0  0  0  0  0  0  0  0  0  0
   37.7411   22.3029   38.9135 H   0  0  0  0  0  0  0  0  0  0  0  0
   39.9921   28.1061   32.8848 H   0  0  0  0  0  0  0  0  0  0  0  0
   38.3010   26.3505   31.7060 H   0  0  0  0  0  0  0  0  0  0  0  0
   39.0992   22.2506   33.6475 H   0  0  0  0  0  0  0  0  0  0  0  0
   37.3541   22.0684   33.8237 H   0  0  0  0  0  0  0  0  0  0  0  0
   38.6184   22.6105   31.0519 H   0  0  0  0  0  0  0  0  0  0  0  0
   38.5307   20.9634   31.6404 H   0  0  0  0  0  0  0  0  0  0  0  0
   36.8109   23.6208   30.3596 H   0  0  0  0  0  0  0  0  0  0  0  0
   35.2523   23.2968   31.3155 H   0  0  0  0  0  0  0  0  0  0  0  0
   36.8504   25.2214   31.9110 H   0  0  0  0  0  0  0  0  0  0  0  0
   35.9910   24.1295   33.1429 H   0  0  0  0  0  0  0  0  0  0  0  0
  1  2  2  0
  3  2  1  0
  3  7  1  0
  4  3  2  0
  5  6  2  0
  5  4  1  0
  6  1  1  0
  8  5  1  0
  9  8  1  0
 10  9  2  0
 11 10  1  0
 11 12  2  0
 12  8  1  0
 13 14  1  0
 13 12  1  0
 15 14  1  0
 16 15  1  0
 17 16  1  0
 17 18  1  0
 18 13  1  0
  1 19  1  0
  2 20  1  0
  7 21  1  0
  7 22  1  0
 10 23  1  0
 11 24  1  0
 14 25  1  0
 14 26  1  0
 15 27  1  0
 15 28  1  0
 17 29  1  0
 17 30  1  0
 18 31  1  0
 18 32  1  0
M  ISO  8  19  14  20  14  23  14  24  14  25  13  26  13  27  13  28  13
M  ISO  4  29  13  30  13  31  13  32  13
M  END
>  <minimizedAffinity>  (1) 
-4.4648118

>  <minimizedRMSD>  (1) 
5.05923033

$$$$
