
     RDKit          3D

 26 28  0  0  0  0  0  0  0  0999 V2000
   41.6260   22.8120   36.6590 C   0  0  0  0  0  0  0  0  0  0  0  0
   40.7510   22.4410   37.6710 C   0  0  0  0  0  0  0  0  0  0  0  0
   39.4670   22.9610   37.6580 C   0  0  0  0  0  0  0  0  0  0  0  0
   39.0860   23.8230   36.6590 N   0  0  0  0  0  0  0  0  0  0  0  0
   39.9780   24.1610   35.6810 C   0  0  0  0  0  0  0  0  0  0  0  0
   41.2380   23.6590   35.6830 N   0  0  0  0  0  0  0  0  0  0  0  0
   38.4240   22.6900   38.5940 N   0  0  0  0  0  0  0  0  0  0  0  0
   39.5050   25.0630   34.6660 N   0  0  0  0  0  0  0  0  0  0  0  0
   39.9090   26.3250   34.4910 N   0  0  0  0  0  0  0  0  0  0  0  0
   39.2580   26.8880   33.4530 C   0  0  0  0  0  0  0  0  0  0  0  0
   38.4130   25.8830   32.9870 C   0  0  0  0  0  0  0  0  0  0  0  0
   38.5800   24.7200   33.7720 C   0  0  0  0  0  0  0  0  0  0  0  0
   37.8120   23.5270   33.4820 C   0  0  0  0  0  0  0  0  0  0  0  0
   37.0320   23.1910   32.4040 C   0  0  0  0  0  0  0  0  0  0  0  0
   36.4940   21.9530   32.6030 N   0  0  0  0  0  0  0  0  0  0  0  0
   36.9320   21.5080   33.8030 C   0  0  0  0  0  0  0  0  0  0  0  0
   37.7160   22.4760   34.2950 N   0  0  0  0  0  0  0  0  0  0  0  0
   42.6498   22.4098   36.6528 H   0  0  0  0  0  0  0  0  0  0  0  0
   41.0700   21.7499   38.4651 H   0  0  0  0  0  0  0  0  0  0  0  0
   37.5031   23.1376   38.4827 H   0  0  0  0  0  0  0  0  0  0  0  0
   38.5923   22.0468   39.3807 H   0  0  0  0  0  0  0  0  0  0  0  0
   39.3690   27.9102   33.0622 H   0  0  0  0  0  0  0  0  0  0  0  0
   37.7212   25.9801   32.1373 H   0  0  0  0  0  0  0  0  0  0  0  0
   36.8664   23.8213   31.5179 H   0  0  0  0  0  0  0  0  0  0  0  0
   36.6926   20.5455   34.2787 H   0  0  0  0  0  0  0  0  0  0  0  0
   38.1940   22.4144   35.2053 H   0  0  0  0  0  0  0  0  0  0  0  0
  1  2  2  0
  3  2  1  0
  3  7  1  0
  4  3  2  0
  5  6  2  0
  5  4  1  0
  6  1  1  0
  8  5  1  0
  9  8  1  0
 10  9  2  0
 11 10  1  0
 11 12  2  0
 12  8  1  0
 13 12  1  0
 13 17  1  0
 14 15  1  0
 14 13  2  0
 15 16  2  0
 16 17  1  0
  1 18  1  0
  2 19  1  0
  7 20  1  0
  7 21  1  0
 10 22  1  0
 11 23  1  0
 14 24  1  0
 16 25  1  0
 17 26  1  0
M  ISO  7  18  14  19  14  22  14  23  14  24  14  25  14  26   9
M  END
>  <minimizedAffinity>  (1) 
-4.60531235

>  <minimizedRMSD>  (1) 
4.26384544

$$$$
