
     RDKit          3D

 20 21  0  0  0  0  0  0  0  0999 V2000
   40.2560   22.2200   37.0170 C   0  0  0  0  0  0  0  0  0  0  0  0
   39.7830   23.1480   37.9590 C   0  0  0  0  0  0  0  0  0  0  0  0
   38.4560   23.5910   37.8620 C   0  0  0  0  0  0  0  0  0  0  0  0
   37.6820   23.0980   36.8550 N   0  0  0  0  0  0  0  0  0  0  0  0
   38.1580   22.2080   35.9640 C   0  0  0  0  0  0  0  0  0  0  0  0
   39.4320   21.7790   36.0500 N   0  0  0  0  0  0  0  0  0  0  0  0
   37.8360   24.5160   38.7240 N   0  0  0  0  0  0  0  0  0  0  0  0
   37.2550   21.7570   34.9430 N   0  0  0  0  0  0  0  0  0  0  0  0
   37.3300   22.0170   33.6340 N   0  0  0  0  0  0  0  0  0  0  0  0
   36.3080   21.4240   32.9840 C   0  0  0  0  0  0  0  0  0  0  0  0
   35.5650   20.7610   33.9810 C   0  0  0  0  0  0  0  0  0  0  0  0
   36.1910   20.9900   35.2160 C   0  0  0  0  0  0  0  0  0  0  0  0
   35.7250   20.4830   36.4140 O   0  0  0  0  0  0  0  0  0  0  0  0
   41.2929   21.8565   37.0697 H   0  0  0  0  0  0  0  0  0  0  0  0
   40.4411   23.5204   38.7579 H   0  0  0  0  0  0  0  0  0  0  0  0
   36.8524   24.7816   38.5728 H   0  0  0  0  0  0  0  0  0  0  0  0
   38.3661   24.9269   39.5057 H   0  0  0  0  0  0  0  0  0  0  0  0
   36.0988   21.4519   31.9044 H   0  0  0  0  0  0  0  0  0  0  0  0
   34.6531   20.1673   33.8194 H   0  0  0  0  0  0  0  0  0  0  0  0
   34.9078   19.9245   36.4307 H   0  0  0  0  0  0  0  0  0  0  0  0
  1  2  2  0
  3  2  1  0
  3  7  1  0
  4  3  2  0
  5  6  2  0
  5  4  1  0
  6  1  1  0
  8 12  1  0
  8  5  1  0
  9  8  1  0
 10  9  2  0
 10 11  1  0
 11 12  2  0
 12 13  1  0
  1 14  1  0
  2 15  1  0
  7 16  1  0
  7 17  1  0
 10 18  1  0
 11 19  1  0
 13 20  1  0
M  ISO  5  14  14  15  14  18  14  19  14  20   3
M  END
>  <minimizedAffinity>  (1) 
-4.60305834

>  <minimizedRMSD>  (1) 
0.0779516548

$$$$
