
     RDKit          3D

 20 21  0  0  0  0  0  0  0  0999 V2000
   40.3310   22.1480   37.2540 C   0  0  0  0  0  0  0  0  0  0  0  0
   39.7570   23.0620   38.1640 C   0  0  0  0  0  0  0  0  0  0  0  0
   38.5400   23.6400   37.8210 C   0  0  0  0  0  0  0  0  0  0  0  0
   37.9420   23.3160   36.6360 N   0  0  0  0  0  0  0  0  0  0  0  0
   38.5310   22.4320   35.7900 C   0  0  0  0  0  0  0  0  0  0  0  0
   39.7100   21.8600   36.1030 N   0  0  0  0  0  0  0  0  0  0  0  0
   37.8240   24.5760   38.6160 N   0  0  0  0  0  0  0  0  0  0  0  0
   37.8310   22.1490   34.5650 N   0  0  0  0  0  0  0  0  0  0  0  0
   38.2050   22.4710   33.3400 N   0  0  0  0  0  0  0  0  0  0  0  0
   37.2830   22.0330   32.4500 C   0  0  0  0  0  0  0  0  0  0  0  0
   36.2890   21.4050   33.2020 C   0  0  0  0  0  0  0  0  0  0  0  0
   36.6550   21.4900   34.5390 C   0  0  0  0  0  0  0  0  0  0  0  0
   35.7360   20.8460   35.9370 S   0  0  0  0  0  0  0  0  0  0  0  0
   41.2929   21.6701   37.4915 H   0  0  0  0  0  0  0  0  0  0  0  0
   40.2560   23.3086   39.1128 H   0  0  0  0  0  0  0  0  0  0  0  0
   36.9260   24.9544   38.2825 H   0  0  0  0  0  0  0  0  0  0  0  0
   38.2032   24.8757   39.5255 H   0  0  0  0  0  0  0  0  0  0  0  0
   37.3117   22.1487   31.3565 H   0  0  0  0  0  0  0  0  0  0  0  0
   35.3796   20.9286   32.8069 H   0  0  0  0  0  0  0  0  0  0  0  0
   36.3268   21.2600   37.1017 H   0  0  0  0  0  0  0  0  0  0  0  0
  1  2  2  0
  3  2  1  0
  3  7  1  0
  4  3  2  0
  5  6  2  0
  5  4  1  0
  6  1  1  0
  8  5  1  0
  9  8  1  0
 10 11  1  0
 10  9  2  0
 11 12  2  0
 12  8  1  0
 12 13  1  0
  1 14  1  0
  2 15  1  0
  7 16  1  0
  7 17  1  0
 10 18  1  0
 11 19  1  0
 13 20  1  0
M  ISO  5  14  14  15  14  18  14  19  14  20  11
M  END
>  <minimizedAffinity>  (1) 
-3.78789592

>  <minimizedRMSD>  (1) 
0.766939998

$$$$
