
     RDKit          3D

 22 23  0  0  0  0  0  0  0  0999 V2000
   40.2570   22.1800   37.1820 C   0  0  0  0  0  0  0  0  0  0  0  0
   39.7360   23.1170   38.0990 C   0  0  0  0  0  0  0  0  0  0  0  0
   38.4830   23.6530   37.8550 C   0  0  0  0  0  0  0  0  0  0  0  0
   37.8170   23.2470   36.7400 N   0  0  0  0  0  0  0  0  0  0  0  0
   38.3230   22.3530   35.8730 C   0  0  0  0  0  0  0  0  0  0  0  0
   39.5510   21.8180   36.0980 N   0  0  0  0  0  0  0  0  0  0  0  0
   37.8180   24.5930   38.6620 N   0  0  0  0  0  0  0  0  0  0  0  0
   37.5300   21.9990   34.7390 N   0  0  0  0  0  0  0  0  0  0  0  0
   37.7650   22.2710   33.4740 N   0  0  0  0  0  0  0  0  0  0  0  0
   36.7960   21.7690   32.6850 C   0  0  0  0  0  0  0  0  0  0  0  0
   35.9050   21.1410   33.5520 C   0  0  0  0  0  0  0  0  0  0  0  0
   36.3790   21.2900   34.8690 C   0  0  0  0  0  0  0  0  0  0  0  0
   35.6970   20.7560   36.0640 C   0  0  0  0  0  0  0  0  0  0  0  0
   41.2507   21.7417   37.3563 H   0  0  0  0  0  0  0  0  0  0  0  0
   40.3121   23.4149   38.9875 H   0  0  0  0  0  0  0  0  0  0  0  0
   36.8833   24.9324   38.3937 H   0  0  0  0  0  0  0  0  0  0  0  0
   38.2656   24.9421   39.5215 H   0  0  0  0  0  0  0  0  0  0  0  0
   36.7236   21.8398   31.5897 H   0  0  0  0  0  0  0  0  0  0  0  0
   34.9845   20.6161   33.2568 H   0  0  0  0  0  0  0  0  0  0  0  0
   36.1887   21.1410   36.9695 H   0  0  0  0  0  0  0  0  0  0  0  0
   34.6433   21.0717   36.0566 H   0  0  0  0  0  0  0  0  0  0  0  0
   35.7507   19.6573   36.0566 H   0  0  0  0  0  0  0  0  0  0  0  0
  1  2  2  0
  3  2  1  0
  3  7  1  0
  4  3  2  0
  5  6  2  0
  5  4  1  0
  6  1  1  0
  8 12  1  0
  8  5  1  0
  9  8  1  0
 10  9  2  0
 10 11  1  0
 11 12  2  0
 12 13  1  0
  1 14  1  0
  2 15  1  0
  7 16  1  0
  7 17  1  0
 10 18  1  0
 11 19  1  0
 13 20  1  0
 13 21  1  0
 13 22  1  0
M  ISO  7  14  14  15  14  18  14  19  14  20   8  21   8  22   8
M  END
>  <minimizedAffinity>  (1) 
-4.16729021

>  <minimizedRMSD>  (1) 
0.42292437

$$$$
