
     RDKit          3D

 47 51  0  0  1  0  0  0  0  0999 V2000
   37.9190   22.7910   31.3090 N   0  0  0  0  0  0  0  0  0  0  0  0
   37.4690   23.8880   30.4860 C   0  0  0  0  0  0  0  0  0  0  0  0
   38.7210   24.6710   30.1040 C   0  0  0  0  0  0  0  0  0  0  0  0
   39.4630   23.7880   29.1000 C   0  0  0  0  0  0  0  0  0  0  0  0
   39.1100   22.3340   29.2870 C   0  0  0  0  0  0  0  0  0  0  0  0
   39.0680   22.0760   30.7820 C   0  0  2  0  0  0  0  0  0  0  0  0
   39.9910   22.6950   37.2880 C   0  0  0  0  0  0  0  0  0  0  0  0
   39.2940   23.1160   38.4120 C   0  0  0  0  0  0  0  0  0  0  0  0
   37.9170   23.1950   38.3280 C   0  0  0  0  0  0  0  0  0  0  0  0
   37.3070   22.8580   37.1540 N   0  0  0  0  0  0  0  0  0  0  0  0
   38.0170   22.4550   36.0850 C   0  0  0  0  0  0  0  0  0  0  0  0
   39.3550   22.3750   36.1580 N   0  0  0  0  0  0  0  0  0  0  0  0
   37.3920   22.1060   34.8660 N   0  0  0  0  0  0  0  0  0  0  0  0
   37.9650   22.6150   33.7740 C   0  0  0  0  0  0  0  0  0  0  0  0
   37.4120   22.3210   32.5330 C   0  0  0  0  0  0  0  0  0  0  0  0
   36.3020   21.5130   32.5490 C   0  0  0  0  0  0  0  0  0  0  0  0
   35.6350   21.1310   31.3660 N   0  0  0  0  0  0  0  0  0  0  0  0
   35.7490   21.0170   33.6590 N   0  0  0  0  0  0  0  0  0  0  0  0
   36.3030   21.3150   34.8680 C   0  0  0  0  0  0  0  0  0  0  0  0
   35.8730   20.9080   35.9650 O   0  0  0  0  0  0  0  0  0  0  0  0
   39.1140   20.6920   31.1120 N   0  0  0  0  0  0  0  0  0  0  0  0
   39.8990   20.1220   32.0440 C   0  0  0  0  0  0  0  0  0  0  0  0
   39.7020   18.8000   32.1080 N   0  0  0  0  0  0  0  0  0  0  0  0
   38.7680   18.4980   31.1980 C   0  0  0  0  0  0  0  0  0  0  0  0
   38.1800   17.3040   30.8280 C   0  0  0  0  0  0  0  0  0  0  0  0
   37.2450   17.3030   29.8560 N   0  0  0  0  0  0  0  0  0  0  0  0
   36.8700   18.4580   29.2320 C   0  0  0  0  0  0  0  0  0  0  0  0
   37.4510   19.6380   29.5960 N   0  0  0  0  0  0  0  0  0  0  0  0
   38.3930   19.6670   30.5700 C   0  0  0  0  0  0  0  0  0  0  0  0
   36.9665   23.5078   29.5844 H   0  0  0  0  0  0  0  0  0  0  0  0
   36.7461   24.5216   31.0208 H   0  0  0  0  0  0  0  0  0  0  0  0
   38.4481   25.6318   29.6432 H   0  0  0  0  0  0  0  0  0  0  0  0
   39.3421   24.9023   30.9820 H   0  0  0  0  0  0  0  0  0  0  0  0
   40.5463   23.9153   29.2422 H   0  0  0  0  0  0  0  0  0  0  0  0
   39.1668   24.0905   28.0847 H   0  0  0  0  0  0  0  0  0  0  0  0
   38.1274   22.1233   28.8396 H   0  0  0  0  0  0  0  0  0  0  0  0
   39.8503   21.6843   28.7973 H   0  0  0  0  0  0  0  0  0  0  0  0
   39.9769   22.4612   31.2673 H   0  0  0  0  0  0  0  0  0  0  0  0
   41.0879   22.6235   37.3286 H   0  0  0  0  0  0  0  0  0  0  0  0
   39.8214   23.3786   39.3409 H   0  0  0  0  0  0  0  0  0  0  0  0
   37.3221   23.5240   39.1928 H   0  0  0  0  0  0  0  0  0  0  0  0
   38.8567   23.2542   33.8540 H   0  0  0  0  0  0  0  0  0  0  0  0
   34.8048   20.5234   31.4161 H   0  0  0  0  0  0  0  0  0  0  0  0
   35.9782   21.4597   30.4522 H   0  0  0  0  0  0  0  0  0  0  0  0
   40.6127   20.6731   32.6740 H   0  0  0  0  0  0  0  0  0  0  0  0
   38.4711   16.3645   31.3206 H   0  0  0  0  0  0  0  0  0  0  0  0
   36.1052   18.4376   28.4417 H   0  0  0  0  0  0  0  0  0  0  0  0
  1 15  1  0
  2  1  1  0
  3  2  1  0
  4  5  1  0
  4  3  1  0
  5  6  1  0
  6 21  1  0
  6  1  1  0
  7  8  2  0
  9  8  1  0
 10  9  2  0
 11 12  2  0
 11 10  1  0
 12  7  1  0
 13 19  1  0
 13 11  1  0
 14 13  1  0
 15 16  1  0
 15 14  2  0
 16 18  2  0
 17 16  1  0
 18 19  1  0
 19 20  2  0
 21 22  1  0
 22 23  2  0
 24 23  1  0
 25 24  2  0
 26 25  1  0
 27 28  1  0
 27 26  2  0
 28 29  2  0
 29 21  1  0
 29 24  1  0
  2 30  1  0
  2 31  1  0
  3 32  1  0
  3 33  1  0
  4 34  1  0
  4 35  1  0
  5 36  1  0
  5 37  1  0
  6 38  1  1
  7 39  1  0
  8 40  1  0
  9 41  1  0
 14 42  1  0
 17 43  1  0
 17 44  1  0
 22 45  1  0
 25 46  1  0
 27 47  1  0
M  ISO  8  30  13  31  13  32  13  33  13  34  13  35  13  36  13  37  13
M  ISO  8  38  13  39  14  40  14  41  14  42  14  45  14  46  14  47  14
M  END
>  <minimizedAffinity>  (1) 
-5.65209341

>  <minimizedRMSD>  (1) 
1.54848051

$$$$
