
     RDKit          3D

 25 26  0  0  0  0  0  0  0  0999 V2000
   41.4940   22.7840   36.5190 C   0  0  0  0  0  0  0  0  0  0  0  0
   40.7730   22.5580   37.6910 C   0  0  0  0  0  0  0  0  0  0  0  0
   39.4210   22.8620   37.7050 C   0  0  0  0  0  0  0  0  0  0  0  0
   38.8410   23.3740   36.5750 N   0  0  0  0  0  0  0  0  0  0  0  0
   39.5580   23.5840   35.4560 C   0  0  0  0  0  0  0  0  0  0  0  0
   40.8790   23.2900   35.4330 N   0  0  0  0  0  0  0  0  0  0  0  0
   38.5420   22.6940   38.8070 N   0  0  0  0  0  0  0  0  0  0  0  0
   38.8680   24.1230   34.3180 N   0  0  0  0  0  0  0  0  0  0  0  0
   39.0360   25.3170   33.7780 N   0  0  0  0  0  0  0  0  0  0  0  0
   38.2180   25.4790   32.7220 C   0  0  0  0  0  0  0  0  0  0  0  0
   37.5030   24.2740   32.6260 C   0  0  0  0  0  0  0  0  0  0  0  0
   37.9240   23.4100   33.6530 C   0  0  0  0  0  0  0  0  0  0  0  0
   37.4700   22.0400   33.9640 C   0  0  0  0  0  0  0  0  0  0  0  0
   36.4930   21.6100   32.9130 C   0  0  0  0  0  0  0  0  0  0  0  0
   42.5678   22.5484   36.4814 H   0  0  0  0  0  0  0  0  0  0  0  0
   41.2664   22.1476   38.5844 H   0  0  0  0  0  0  0  0  0  0  0  0
   37.5486   22.9509   38.7172 H   0  0  0  0  0  0  0  0  0  0  0  0
   38.8976   22.3153   39.6964 H   0  0  0  0  0  0  0  0  0  0  0  0
   38.1286   26.3636   32.0743 H   0  0  0  0  0  0  0  0  0  0  0  0
   36.7378   24.0433   31.8702 H   0  0  0  0  0  0  0  0  0  0  0  0
   38.3319   21.3565   33.9706 H   0  0  0  0  0  0  0  0  0  0  0  0
   36.9907   22.0186   34.9538 H   0  0  0  0  0  0  0  0  0  0  0  0
   35.5879   21.2116   33.3948 H   0  0  0  0  0  0  0  0  0  0  0  0
   36.2250   22.4734   32.2862 H   0  0  0  0  0  0  0  0  0  0  0  0
   36.9486   20.8293   32.2862 H   0  0  0  0  0  0  0  0  0  0  0  0
  1  2  2  0
  2  3  1  0
  3  7  1  0
  4  3  2  0
  5  4  1  0
  6  5  2  0
  6  1  1  0
  8  5  1  0
  9  8  1  0
 10  9  2  0
 11 10  1  0
 11 12  2  0
 12 13  1  0
 12  8  1  0
 14 13  1  0
  1 15  1  0
  2 16  1  0
  7 17  1  0
  7 18  1  0
 10 19  1  0
 11 20  1  0
 13 21  1  0
 13 22  1  0
 14 23  1  0
 14 24  1  0
 14 25  1  0
M  ISO  8  15  14  16  14  19  14  20  14  21   8  22   8  23   8  24   8
M  ISO  1  25   8
M  END
>  <minimizedAffinity>  (1) 
-4.01218081

>  <minimizedRMSD>  (1) 
2.96827221

$$$$
