
     RDKit          3D

 50 54  0  0  1  0  0  0  0  0999 V2000
   37.8960   22.8150   31.3220 N   0  0  0  0  0  0  0  0  0  0  0  0
   37.4560   23.9430   30.5280 C   0  0  0  0  0  0  0  0  0  0  0  0
   38.7140   24.6960   30.1200 C   0  0  0  0  0  0  0  0  0  0  0  0
   39.4080   23.8270   29.0930 C   0  0  0  0  0  0  0  0  0  0  0  0
   39.0710   22.3500   29.2950 C   0  0  0  0  0  0  0  0  0  0  0  0
   39.0300   22.1160   30.7720 C   0  0  2  0  0  0  0  0  0  0  0  0
   39.9600   22.7610   37.3050 C   0  0  0  0  0  0  0  0  0  0  0  0
   39.2290   23.1730   38.4290 C   0  0  0  0  0  0  0  0  0  0  0  0
   37.8530   23.2150   38.3350 C   0  0  0  0  0  0  0  0  0  0  0  0
   37.2820   22.8550   37.1600 N   0  0  0  0  0  0  0  0  0  0  0  0
   38.0120   22.4620   36.0910 C   0  0  0  0  0  0  0  0  0  0  0  0
   39.3430   22.4170   36.1690 N   0  0  0  0  0  0  0  0  0  0  0  0
   37.3700   22.0940   34.8680 N   0  0  0  0  0  0  0  0  0  0  0  0
   37.9480   22.6250   33.7800 C   0  0  0  0  0  0  0  0  0  0  0  0
   37.3930   22.3290   32.5390 C   0  0  0  0  0  0  0  0  0  0  0  0
   36.2960   21.5140   32.5470 C   0  0  0  0  0  0  0  0  0  0  0  0
   35.6280   21.1410   31.3640 N   0  0  0  0  0  0  0  0  0  0  0  0
   35.7530   21.0060   33.6630 N   0  0  0  0  0  0  0  0  0  0  0  0
   36.3000   21.2990   34.8710 C   0  0  0  0  0  0  0  0  0  0  0  0
   35.8760   20.8810   35.9610 O   0  0  0  0  0  0  0  0  0  0  0  0
   39.4010   20.8300   31.2610 C   0  0  0  0  0  0  0  0  0  0  0  0
   40.4180   20.5050   32.1820 C   0  0  0  0  0  0  0  0  0  0  0  0
   40.4970   19.2120   32.4530 N   0  0  0  0  0  0  0  0  0  0  0  0
   39.5510   18.5760   31.7420 C   0  0  0  0  0  0  0  0  0  0  0  0
   39.1990   17.2460   31.6340 C   0  0  0  0  0  0  0  0  0  0  0  0
   38.1760   16.8380   30.8040 C   0  0  0  0  0  0  0  0  0  0  0  0
   37.4910   17.7840   30.0680 C   0  0  0  0  0  0  0  0  0  0  0  0
   37.8830   19.0970   30.2140 C   0  0  0  0  0  0  0  0  0  0  0  0
   38.8890   19.5490   31.0230 C   0  0  0  0  0  0  0  0  0  0  0  0
   36.9156   23.5931   29.6361 H   0  0  0  0  0  0  0  0  0  0  0  0
   36.7707   24.5887   31.0967 H   0  0  0  0  0  0  0  0  0  0  0  0
   38.4508   25.6697   29.6811 H   0  0  0  0  0  0  0  0  0  0  0  0
   39.3637   24.8924   30.9856 H   0  0  0  0  0  0  0  0  0  0  0  0
   40.4957   23.9621   29.1858 H   0  0  0  0  0  0  0  0  0  0  0  0
   39.0618   24.1281   28.0932 H   0  0  0  0  0  0  0  0  0  0  0  0
   38.0929   22.1198   28.8475 H   0  0  0  0  0  0  0  0  0  0  0  0
   39.8196   21.7041   28.8129 H   0  0  0  0  0  0  0  0  0  0  0  0
   39.9135   22.5781   31.2367 H   0  0  0  0  0  0  0  0  0  0  0  0
   41.0579   22.7201   37.3585 H   0  0  0  0  0  0  0  0  0  0  0  0
   39.7396   23.4554   39.3615 H   0  0  0  0  0  0  0  0  0  0  0  0
   37.2371   23.5317   39.1896 H   0  0  0  0  0  0  0  0  0  0  0  0
   38.8323   23.2735   33.8663 H   0  0  0  0  0  0  0  0  0  0  0  0
   34.8040   20.5247   31.4103 H   0  0  0  0  0  0  0  0  0  0  0  0
   35.9636   21.4846   30.4528 H   0  0  0  0  0  0  0  0  0  0  0  0
   41.0834   21.2558   32.6330 H   0  0  0  0  0  0  0  0  0  0  0  0
   41.1678   18.7698   33.0975 H   0  0  0  0  0  0  0  0  0  0  0  0
   39.7463   16.4950   32.2227 H   0  0  0  0  0  0  0  0  0  0  0  0
   37.9095   15.7734   30.7294 H   0  0  0  0  0  0  0  0  0  0  0  0
   36.6683   17.5020   29.3945 H   0  0  0  0  0  0  0  0  0  0  0  0
   37.3373   19.8500   29.6265 H   0  0  0  0  0  0  0  0  0  0  0  0
  1 15  1  0
  2  1  1  0
  3  2  1  0
  4  5  1  0
  4  3  1  0
  5  6  1  0
  6 21  1  0
  6  1  1  0
  7  8  2  0
  9  8  1  0
 10  9  2  0
 11 12  2  0
 11 10  1  0
 12  7  1  0
 13 19  1  0
 13 11  1  0
 14 13  1  0
 15 16  1  0
 15 14  2  0
 16 18  2  0
 17 16  1  0
 18 19  1  0
 19 20  2  0
 21 22  2  0
 22 23  1  0
 24 23  1  0
 25 24  2  0
 26 25  1  0
 27 28  1  0
 27 26  2  0
 28 29  2  0
 29 21  1  0
 29 24  1  0
  2 30  1  0
  2 31  1  0
  3 32  1  0
  3 33  1  0
  4 34  1  0
  4 35  1  0
  5 36  1  0
  5 37  1  0
  6 38  1  1
  7 39  1  0
  8 40  1  0
  9 41  1  0
 14 42  1  0
 17 43  1  0
 17 44  1  0
 22 45  1  0
 23 46  1  0
 25 47  1  0
 26 48  1  0
 27 49  1  0
 28 50  1  0
M  ISO  8  30  13  31  13  32  13  33  13  34  13  35  13  36  13  37  13
M  ISO  8  38  13  39  14  40  14  41  14  42  14  45  14  46   9  47  14
M  ISO  3  48  14  49  14  50  14
M  END
>  <minimizedAffinity>  (1) 
-5.46669245

>  <minimizedRMSD>  (1) 
1.53658891

$$$$
