
     RDKit          3D

 41 44  0  0  1  0  0  0  0  0999 V2000
   36.7090   20.9020   32.8720 C   0  0  1  0  0  0  0  0  0  0  0  0
   40.5550   23.3880   34.5560 C   0  0  0  0  0  0  0  0  0  0  0  0
   40.1580   23.0750   35.8800 C   0  0  0  0  0  0  0  0  0  0  0  0
   38.8120   22.8780   36.1460 C   0  0  0  0  0  0  0  0  0  0  0  0
   37.9330   22.9970   35.1120 N   0  0  0  0  0  0  0  0  0  0  0  0
   38.3290   23.2970   33.8530 C   0  0  0  0  0  0  0  0  0  0  0  0
   39.6290   23.4900   33.5790 N   0  0  0  0  0  0  0  0  0  0  0  0
   38.2860   22.5640   37.4040 N   0  0  0  0  0  0  0  0  0  0  0  0
   37.2960   23.3910   32.8690 N   0  0  0  0  0  0  0  0  0  0  0  0
   36.8810   24.4820   32.2390 N   0  0  0  0  0  0  0  0  0  0  0  0
   35.8800   24.1910   31.3770 C   0  0  0  0  0  0  0  0  0  0  0  0
   35.6750   22.8170   31.4960 C   0  0  0  0  0  0  0  0  0  0  0  0
   36.5820   22.3270   32.4480 C   0  0  0  0  0  0  0  0  0  0  0  0
   35.5790   20.5940   33.8630 C   0  0  0  0  0  0  0  0  0  0  0  0
   36.5770   20.0310   31.6470 C   0  0  0  0  0  0  0  0  0  0  0  0
   37.2400   18.7640   31.7700 N   0  0  0  0  0  0  0  0  0  0  0  0
   38.5700   18.6150   31.5970 C   0  0  0  0  0  0  0  0  0  0  0  0
   38.9260   17.3230   31.7710 N   0  0  0  0  0  0  0  0  0  0  0  0
   37.8260   16.6230   32.0600 C   0  0  0  0  0  0  0  0  0  0  0  0
   37.5210   15.3040   32.3380 C   0  0  0  0  0  0  0  0  0  0  0  0
   36.2420   14.9340   32.5950 N   0  0  0  0  0  0  0  0  0  0  0  0
   35.2340   15.8440   32.5850 C   0  0  0  0  0  0  0  0  0  0  0  0
   35.4900   17.1550   32.3170 N   0  0  0  0  0  0  0  0  0  0  0  0
   36.7680   17.5380   32.0580 C   0  0  0  0  0  0  0  0  0  0  0  0
   38.5990   14.3720   32.3400 N   0  0  0  0  0  0  0  0  0  0  0  0
   37.6801   20.7129   33.3528 H   0  0  0  0  0  0  0  0  0  0  0  0
   41.6184   23.5479   34.3243 H   0  0  0  0  0  0  0  0  0  0  0  0
   40.9052   22.9899   36.6828 H   0  0  0  0  0  0  0  0  0  0  0  0
   37.2709   22.4329   37.5197 H   0  0  0  0  0  0  0  0  0  0  0  0
   38.9139   22.4640   38.2144 H   0  0  0  0  0  0  0  0  0  0  0  0
   35.3415   24.8906   30.7208 H   0  0  0  0  0  0  0  0  0  0  0  0
   34.9337   22.2225   30.9419 H   0  0  0  0  0  0  0  0  0  0  0  0
   35.9553   20.6966   34.8916 H   0  0  0  0  0  0  0  0  0  0  0  0
   34.7496   21.2988   33.7040 H   0  0  0  0  0  0  0  0  0  0  0  0
   35.2220   19.5658   33.7040 H   0  0  0  0  0  0  0  0  0  0  0  0
   37.0092   20.5682   30.7899 H   0  0  0  0  0  0  0  0  0  0  0  0
   35.5053   19.8231   31.5124 H   0  0  0  0  0  0  0  0  0  0  0  0
   39.2660   19.4300   31.3493 H   0  0  0  0  0  0  0  0  0  0  0  0
   34.2038   15.5204   32.7947 H   0  0  0  0  0  0  0  0  0  0  0  0
   38.4200   13.3780   32.5419 H   0  0  0  0  0  0  0  0  0  0  0  0
   39.5572   14.6924   32.1396 H   0  0  0  0  0  0  0  0  0  0  0  0
  1 14  1  0
  2  3  2  0
  3  4  1  0
  4  8  1  0
  5  4  2  0
  6  5  1  0
  7  6  2  0
  7  2  1  0
  9  6  1  0
 10  9  1  0
 11 12  1  0
 11 10  2  0
 12 13  2  0
 13  9  1  0
 13  1  1  0
 15 16  1  0
 15  1  1  0
 16 24  1  0
 17 16  1  0
 17 18  2  0
 18 19  1  0
 19 20  2  0
 20 25  1  0
 20 21  1  0
 22 21  2  0
 23 22  1  0
 24 19  1  0
 24 23  2  0
  1 26  1  1
  2 27  1  0
  3 28  1  0
  8 29  1  0
  8 30  1  0
 11 31  1  0
 12 32  1  0
 14 33  1  0
 14 34  1  0
 14 35  1  0
 15 36  1  0
 15 37  1  0
 17 38  1  0
 22 39  1  0
 25 40  1  0
 25 41  1  0
M  ISO  8  26   8  27  14  28  14  31  14  32  14  33   8  34   8  35   8
M  ISO  4  36   8  37   8  38  14  39  14
M  END
>  <minimizedAffinity>  (1) 
-5.2188859

>  <minimizedRMSD>  (1) 
1.03209889

$$$$
