
     RDKit          3D

 42 45  0  0  1  0  0  0  0  0999 V2000
   36.3760   21.5970   32.0900 C   0  0  1  0  0  0  0  0  0  0  0  0
   40.4930   23.3910   33.9710 C   0  0  0  0  0  0  0  0  0  0  0  0
   40.1350   22.8580   35.2280 C   0  0  0  0  0  0  0  0  0  0  0  0
   38.7910   22.7150   35.5470 C   0  0  0  0  0  0  0  0  0  0  0  0
   37.8670   23.1030   34.6120 N   0  0  0  0  0  0  0  0  0  0  0  0
   38.2350   23.6130   33.4130 C   0  0  0  0  0  0  0  0  0  0  0  0
   39.5310   23.7540   33.0960 N   0  0  0  0  0  0  0  0  0  0  0  0
   38.2770   22.2010   36.7510 N   0  0  0  0  0  0  0  0  0  0  0  0
   37.1670   23.9800   32.5240 N   0  0  0  0  0  0  0  0  0  0  0  0
   36.8340   25.2080   32.1510 N   0  0  0  0  0  0  0  0  0  0  0  0
   35.7670   25.1670   31.3060 C   0  0  0  0  0  0  0  0  0  0  0  0
   35.4550   23.8190   31.1760 C   0  0  0  0  0  0  0  0  0  0  0  0
   36.3480   23.0760   31.9520 C   0  0  0  0  0  0  0  0  0  0  0  0
   34.9330   21.0780   32.0580 C   0  0  0  0  0  0  0  0  0  0  0  0
   37.1200   21.0360   30.9030 C   0  0  0  0  0  0  0  0  0  0  0  0
   37.1700   19.5730   30.9470 N   0  0  0  0  0  0  0  0  0  0  0  0
   37.4780   18.7580   31.9720 C   0  0  0  0  0  0  0  0  0  0  0  0
   37.3880   17.5040   31.5330 N   0  0  0  0  0  0  0  0  0  0  0  0
   37.0300   17.5170   30.2580 C   0  0  0  0  0  0  0  0  0  0  0  0
   36.7880   16.5280   29.3030 C   0  0  0  0  0  0  0  0  0  0  0  0
   36.9060   15.3320   29.6160 O   0  0  0  0  0  0  0  0  0  0  0  0
   36.4320   16.9210   28.0670 N   0  0  0  0  0  0  0  0  0  0  0  0
   36.2880   18.1980   27.6690 C   0  0  0  0  0  0  0  0  0  0  0  0
   35.9050   18.4630   26.3240 N   0  0  0  0  0  0  0  0  0  0  0  0
   36.5210   19.1550   28.5870 N   0  0  0  0  0  0  0  0  0  0  0  0
   36.8830   18.8390   29.8560 C   0  0  0  0  0  0  0  0  0  0  0  0
   36.8632   21.2990   33.0301 H   0  0  0  0  0  0  0  0  0  0  0  0
   41.5536   23.5104   33.7048 H   0  0  0  0  0  0  0  0  0  0  0  0
   40.9120   22.5592   35.9470 H   0  0  0  0  0  0  0  0  0  0  0  0
   37.2585   22.1362   36.8901 H   0  0  0  0  0  0  0  0  0  0  0  0
   38.9191   21.8894   37.4936 H   0  0  0  0  0  0  0  0  0  0  0  0
   35.2604   26.0186   30.8285 H   0  0  0  0  0  0  0  0  0  0  0  0
   34.6401   23.4056   30.5636 H   0  0  0  0  0  0  0  0  0  0  0  0
   34.5677   20.9466   33.0872 H   0  0  0  0  0  0  0  0  0  0  0  0
   34.2943   21.8027   31.5319 H   0  0  0  0  0  0  0  0  0  0  0  0
   34.9022   20.1124   31.5319 H   0  0  0  0  0  0  0  0  0  0  0  0
   38.1472   21.4295   30.9057 H   0  0  0  0  0  0  0  0  0  0  0  0
   36.5893   21.3371   29.9877 H   0  0  0  0  0  0  0  0  0  0  0  0
   37.7544   19.0711   32.9896 H   0  0  0  0  0  0  0  0  0  0  0  0
   36.2553   16.1848   27.3687 H   0  0  0  0  0  0  0  0  0  0  0  0
   35.7904   19.4350   26.0031 H   0  0  0  0  0  0  0  0  0  0  0  0
   35.7425   17.6827   25.6716 H   0  0  0  0  0  0  0  0  0  0  0  0
  2  3  2  0
  3  4  1  0
  4  8  1  0
  5  4  2  0
  6  5  1  0
  7  6  2  0
  7  2  1  0
  9  6  1  0
 10  9  1  0
 11 10  2  0
 12 11  1  0
 12 13  2  0
 13  1  1  0
 13  9  1  0
 14  1  1  0
 15 16  1  0
 15  1  1  0
 16 17  1  0
 18 17  2  0
 19 18  1  0
 20 21  2  0
 20 19  1  0
 22 20  1  0
 23 22  1  0
 23 25  2  0
 24 23  1  0
 25 26  1  0
 26 19  2  0
 26 16  1  0
  1 27  1  1
  2 28  1  0
  3 29  1  0
  8 30  1  0
  8 31  1  0
 11 32  1  0
 12 33  1  0
 14 34  1  0
 14 35  1  0
 14 36  1  0
 15 37  1  0
 15 38  1  0
 17 39  1  0
 22 40  1  0
 24 41  1  0
 24 42  1  0
M  ISO  8  27   8  28  14  29  14  32  14  33  14  34   8  35   8  36   8
M  ISO  4  37   8  38   8  39  14  40   9
M  END
>  <minimizedAffinity>  (1) 
-5.26824522

>  <minimizedRMSD>  (1) 
1.64713299

$$$$
