
     RDKit          3D

 43 46  0  0  1  0  0  0  0  0999 V2000
   37.7160   21.3710   31.6670 N   0  0  0  0  0  0  0  0  0  0  0  0
   37.6600   22.4720   30.7220 C   0  0  0  0  0  0  0  0  0  0  0  0
   39.0740   22.5960   30.1580 C   0  0  0  0  0  0  0  0  0  0  0  0
   39.2700   21.3920   29.2640 C   0  0  0  0  0  0  0  0  0  0  0  0
   38.3710   20.2540   29.6760 C   0  0  0  0  0  0  0  0  0  0  0  0
   38.3800   20.1820   31.1910 C   0  0  1  0  0  0  0  0  0  0  0  0
   39.8900   22.6830   37.4550 C   0  0  0  0  0  0  0  0  0  0  0  0
   39.2560   23.4630   38.4110 C   0  0  0  0  0  0  0  0  0  0  0  0
   37.8780   23.6750   38.3090 C   0  0  0  0  0  0  0  0  0  0  0  0
   37.2190   23.0980   37.2630 N   0  0  0  0  0  0  0  0  0  0  0  0
   37.8630   22.3450   36.3490 C   0  0  0  0  0  0  0  0  0  0  0  0
   39.1990   22.1430   36.4520 N   0  0  0  0  0  0  0  0  0  0  0  0
   37.1810   21.7430   35.2660 N   0  0  0  0  0  0  0  0  0  0  0  0
   37.7640   21.8760   34.0780 C   0  0  0  0  0  0  0  0  0  0  0  0
   37.1990   21.3190   32.9660 C   0  0  0  0  0  0  0  0  0  0  0  0
   36.0080   20.6320   33.1990 C   0  0  0  0  0  0  0  0  0  0  0  0
   35.2800   19.9900   32.1570 N   0  0  0  0  0  0  0  0  0  0  0  0
   35.4360   20.5100   34.4070 N   0  0  0  0  0  0  0  0  0  0  0  0
   36.0300   21.0760   35.4780 C   0  0  0  0  0  0  0  0  0  0  0  0
   35.5830   21.0210   36.6390 O   0  0  0  0  0  0  0  0  0  0  0  0
   39.6890   19.8720   31.7400 C   0  0  0  0  0  0  0  0  0  0  0  0
   40.5640   18.8170   31.7960 C   0  0  0  0  0  0  0  0  0  0  0  0
   41.7170   19.1090   32.4930 C   0  0  0  0  0  0  0  0  0  0  0  0
   41.4850   20.4170   32.8580 C   0  0  0  0  0  0  0  0  0  0  0  0
   40.3420   20.7950   32.4150 O   0  0  0  0  0  0  0  0  0  0  0  0
   36.9428   22.2523   29.9174 H   0  0  0  0  0  0  0  0  0  0  0  0
   37.3277   23.4050   31.2007 H   0  0  0  0  0  0  0  0  0  0  0  0
   39.1742   23.5246   29.5769 H   0  0  0  0  0  0  0  0  0  0  0  0
   39.8270   22.6314   30.9591 H   0  0  0  0  0  0  0  0  0  0  0  0
   40.3177   21.0633   29.3296 H   0  0  0  0  0  0  0  0  0  0  0  0
   39.0172   21.6794   28.2328 H   0  0  0  0  0  0  0  0  0  0  0  0
   37.3477   20.4362   29.3160 H   0  0  0  0  0  0  0  0  0  0  0  0
   38.7269   19.3071   29.2439 H   0  0  0  0  0  0  0  0  0  0  0  0
   37.8113   19.3208   31.5717 H   0  0  0  0  0  0  0  0  0  0  0  0
   40.9738   22.5086   37.5257 H   0  0  0  0  0  0  0  0  0  0  0  0
   39.8293   23.9083   39.2375 H   0  0  0  0  0  0  0  0  0  0  0  0
   37.3419   24.2877   39.0488 H   0  0  0  0  0  0  0  0  0  0  0  0
   38.7059   22.4374   33.9905 H   0  0  0  0  0  0  0  0  0  0  0  0
   34.4039   19.4927   32.3716 H   0  0  0  0  0  0  0  0  0  0  0  0
   35.6296   20.0229   31.1887 H   0  0  0  0  0  0  0  0  0  0  0  0
   40.3661   17.8392   31.3327 H   0  0  0  0  0  0  0  0  0  0  0  0
   42.5876   18.4698   32.7015 H   0  0  0  0  0  0  0  0  0  0  0  0
   42.1760   21.0431   33.4416 H   0  0  0  0  0  0  0  0  0  0  0  0
  1 15  1  0
  2  1  1  0
  3  2  1  0
  4  5  1  0
  4  3  1  0
  5  6  1  0
  6  1  1  0
  6 21  1  0
  7  8  2  0
  9  8  1  0
 10  9  2  0
 11 12  2  0
 11 10  1  0
 12  7  1  0
 13 19  1  0
 13 11  1  0
 14 13  1  0
 15 16  1  0
 15 14  2  0
 16 18  2  0
 17 16  1  0
 18 19  1  0
 19 20  2  0
 21 22  2  0
 21 25  1  0
 22 23  1  0
 23 24  2  0
 25 24  1  0
  2 26  1  0
  2 27  1  0
  3 28  1  0
  3 29  1  0
  4 30  1  0
  4 31  1  0
  5 32  1  0
  5 33  1  0
  6 34  1  6
  7 35  1  0
  8 36  1  0
  9 37  1  0
 14 38  1  0
 17 39  1  0
 17 40  1  0
 22 41  1  0
 23 42  1  0
 24 43  1  0
M  ISO  8  26  13  27  13  28  13  29  13  30  13  31  13  32  13  33  13
M  ISO  8  34  13  35  14  36  14  37  14  38  14  41  14  42  14  43  14
M  END
>  <minimizedAffinity>  (1) 
-5.32200909

>  <minimizedRMSD>  (1) 
0.435341626

$$$$
