
     RDKit          3D

 37 39  0  0  1  0  0  0  0  0999 V2000
   40.5420   23.2170   34.3910 C   0  0  0  0  0  0  0  0  0  0  0  0
   40.1700   22.9170   35.7180 C   0  0  0  0  0  0  0  0  0  0  0  0
   38.8320   22.7850   36.0220 C   0  0  0  0  0  0  0  0  0  0  0  0
   37.9180   22.9510   35.0160 N   0  0  0  0  0  0  0  0  0  0  0  0
   38.3010   23.2390   33.7470 C   0  0  0  0  0  0  0  0  0  0  0  0
   39.6010   23.3720   33.4320 N   0  0  0  0  0  0  0  0  0  0  0  0
   38.2870   22.4870   37.2910 N   0  0  0  0  0  0  0  0  0  0  0  0
   37.2500   23.3920   32.7860 N   0  0  0  0  0  0  0  0  0  0  0  0
   36.8740   24.5060   32.1690 N   0  0  0  0  0  0  0  0  0  0  0  0
   35.8420   24.2690   31.3310 C   0  0  0  0  0  0  0  0  0  0  0  0
   35.5690   22.9080   31.4470 C   0  0  0  0  0  0  0  0  0  0  0  0
   36.4730   22.3690   32.3740 C   0  0  0  0  0  0  0  0  0  0  0  0
   36.5460   20.9410   32.7960 C   0  0  1  0  0  0  0  0  0  0  0  0
   35.6050   20.7370   33.9890 C   0  0  0  0  0  0  0  0  0  0  0  0
   36.0680   20.0820   31.6490 C   0  0  0  0  0  0  0  0  0  0  0  0
   36.8350   18.7930   31.7880 C   0  0  0  0  0  0  0  0  0  0  0  0
   36.0320   17.7110   32.0690 C   0  0  0  0  0  0  0  0  0  0  0  0
   36.6450   16.4650   32.2180 C   0  0  0  0  0  0  0  0  0  0  0  0
   38.0080   16.4090   32.0730 C   0  0  0  0  0  0  0  0  0  0  0  0
   38.7970   17.5110   31.7910 C   0  0  0  0  0  0  0  0  0  0  0  0
   38.1690   18.7150   31.6510 N   0  0  0  0  0  0  0  0  0  0  0  0
   41.6060   23.3258   34.1340 H   0  0  0  0  0  0  0  0  0  0  0  0
   40.9354   22.7904   36.4979 H   0  0  0  0  0  0  0  0  0  0  0  0
   37.2665   22.4108   37.4082 H   0  0  0  0  0  0  0  0  0  0  0  0
   38.9102   22.3460   38.0989 H   0  0  0  0  0  0  0  0  0  0  0  0
   35.3248   24.9985   30.6904 H   0  0  0  0  0  0  0  0  0  0  0  0
   34.7852   22.3553   30.9083 H   0  0  0  0  0  0  0  0  0  0  0  0
   37.5757   20.6716   33.0738 H   0  0  0  0  0  0  0  0  0  0  0  0
   36.1687   20.8592   34.9257 H   0  0  0  0  0  0  0  0  0  0  0  0
   34.7953   21.4805   33.9487 H   0  0  0  0  0  0  0  0  0  0  0  0
   35.1759   19.7250   33.9487 H   0  0  0  0  0  0  0  0  0  0  0  0
   36.2906   20.5634   30.6853 H   0  0  0  0  0  0  0  0  0  0  0  0
   34.9799   19.9226   31.6749 H   0  0  0  0  0  0  0  0  0  0  0  0
   34.9428   17.8240   32.1728 H   0  0  0  0  0  0  0  0  0  0  0  0
   36.0573   15.5628   32.4431 H   0  0  0  0  0  0  0  0  0  0  0  0
   38.5021   15.4329   32.1873 H   0  0  0  0  0  0  0  0  0  0  0  0
   39.8880   17.4200   31.6839 H   0  0  0  0  0  0  0  0  0  0  0  0
  1  2  2  0
  2  3  1  0
  3  7  1  0
  4  3  2  0
  5  4  1  0
  6  5  2  0
  6  1  1  0
  8  5  1  0
  9  8  1  0
 10 11  1  0
 10  9  2  0
 11 12  2  0
 12  8  1  0
 12 13  1  0
 13 14  1  0
 15 16  1  0
 15 13  1  0
 16 17  2  0
 17 18  1  0
 19 18  2  0
 20 19  1  0
 21 16  1  0
 21 20  2  0
  1 22  1  0
  2 23  1  0
  7 24  1  0
  7 25  1  0
 10 26  1  0
 11 27  1  0
 13 28  1  1
 14 29  1  0
 14 30  1  0
 14 31  1  0
 15 32  1  0
 15 33  1  0
 17 34  1  0
 18 35  1  0
 19 36  1  0
 20 37  1  0
M  ISO  8  22  14  23  14  26  14  27  14  28   8  29   8  30   8  31   8
M  ISO  6  32   8  33   8  34  14  35  14  36  14  37  14
M  END
>  <minimizedAffinity>  (1) 
-4.93487453

>  <minimizedRMSD>  (1) 
0.865392566

$$$$
