
     RDKit          3D

 36 38  0  0  1  0  0  0  0  0999 V2000
   40.5540   23.3640   34.5390 C   0  0  0  0  0  0  0  0  0  0  0  0
   40.1610   23.0610   35.8680 C   0  0  0  0  0  0  0  0  0  0  0  0
   38.8130   22.8820   36.1410 C   0  0  0  0  0  0  0  0  0  0  0  0
   37.9240   23.0060   35.1110 N   0  0  0  0  0  0  0  0  0  0  0  0
   38.3280   23.2970   33.8500 C   0  0  0  0  0  0  0  0  0  0  0  0
   39.6280   23.4750   33.5610 N   0  0  0  0  0  0  0  0  0  0  0  0
   38.2830   22.5790   37.4030 N   0  0  0  0  0  0  0  0  0  0  0  0
   37.2890   23.4010   32.8620 N   0  0  0  0  0  0  0  0  0  0  0  0
   36.8920   24.4950   32.2260 N   0  0  0  0  0  0  0  0  0  0  0  0
   35.8820   24.2130   31.3690 C   0  0  0  0  0  0  0  0  0  0  0  0
   35.6610   22.8420   31.5060 C   0  0  0  0  0  0  0  0  0  0  0  0
   36.5600   22.3430   32.4560 C   0  0  0  0  0  0  0  0  0  0  0  0
   36.6650   20.9370   32.8820 C   0  0  1  0  0  0  0  0  0  0  0  0
   35.5780   20.6480   33.9260 C   0  0  0  0  0  0  0  0  0  0  0  0
   36.4370   20.0430   31.6920 C   0  0  0  0  0  0  0  0  0  0  0  0
   37.1130   18.7510   31.7970 C   0  0  0  0  0  0  0  0  0  0  0  0
   36.3590   17.6320   32.0310 C   0  0  0  0  0  0  0  0  0  0  0  0
   36.9350   16.3830   32.1420 C   0  0  0  0  0  0  0  0  0  0  0  0
   38.2870   16.2880   32.0110 N   0  0  0  0  0  0  0  0  0  0  0  0
   39.0100   17.4170   31.7780 C   0  0  0  0  0  0  0  0  0  0  0  0
   38.4610   18.6520   31.6680 N   0  0  0  0  0  0  0  0  0  0  0  0
   41.6185   23.5094   34.3032 H   0  0  0  0  0  0  0  0  0  0  0  0
   40.9114   22.9697   36.6671 H   0  0  0  0  0  0  0  0  0  0  0  0
   37.2664   22.4619   37.5200 H   0  0  0  0  0  0  0  0  0  0  0  0
   38.9102   22.4735   38.2132 H   0  0  0  0  0  0  0  0  0  0  0  0
   35.3507   24.9133   30.7078 H   0  0  0  0  0  0  0  0  0  0  0  0
   34.9086   22.2536   30.9604 H   0  0  0  0  0  0  0  0  0  0  0  0
   37.6616   20.7523   33.3094 H   0  0  0  0  0  0  0  0  0  0  0  0
   36.0001   20.7602   34.9356 H   0  0  0  0  0  0  0  0  0  0  0  0
   34.7466   21.3563   33.7954 H   0  0  0  0  0  0  0  0  0  0  0  0
   35.2081   19.6203   33.7954 H   0  0  0  0  0  0  0  0  0  0  0  0
   36.8073   20.5580   30.7933 H   0  0  0  0  0  0  0  0  0  0  0  0
   35.3570   19.8406   31.6408 H   0  0  0  0  0  0  0  0  0  0  0  0
   35.2682   17.7312   32.1329 H   0  0  0  0  0  0  0  0  0  0  0  0
   36.3202   15.4906   32.3307 H   0  0  0  0  0  0  0  0  0  0  0  0
   40.1009   17.3225   31.6730 H   0  0  0  0  0  0  0  0  0  0  0  0
  1  2  2  0
  2  3  1  0
  3  7  1  0
  4  3  2  0
  5  4  1  0
  6  5  2  0
  6  1  1  0
  8  5  1  0
  9  8  1  0
 10 11  1  0
 10  9  2  0
 11 12  2  0
 12  8  1  0
 12 13  1  0
 13 14  1  0
 15 16  1  0
 15 13  1  0
 16 17  2  0
 17 18  1  0
 19 18  2  0
 20 19  1  0
 21 20  2  0
 21 16  1  0
  1 22  1  0
  2 23  1  0
  7 24  1  0
  7 25  1  0
 10 26  1  0
 11 27  1  0
 13 28  1  1
 14 29  1  0
 14 30  1  0
 14 31  1  0
 15 32  1  0
 15 33  1  0
 17 34  1  0
 18 35  1  0
 20 36  1  0
M  ISO  8  22  14  23  14  26  14  27  14  28   8  29   8  30   8  31   8
M  ISO  5  32   8  33   8  34  14  35  14  36  14
M  END
>  <minimizedAffinity>  (1) 
-4.78361654

>  <minimizedRMSD>  (1) 
2.2138195

$$$$
