
     RDKit          3D

 51 54  0  0  1  0  0  0  0  0999 V2000
   37.8100   22.1270   31.5050 N   0  0  0  0  0  0  0  0  0  0  0  0
   37.4020   23.1830   30.5880 C   0  0  0  0  0  0  0  0  0  0  0  0
   38.7060   23.8080   30.0900 C   0  0  0  0  0  0  0  0  0  0  0  0
   39.3340   22.7770   29.1780 C   0  0  0  0  0  0  0  0  0  0  0  0
   38.8620   21.3870   29.5200 C   0  0  0  0  0  0  0  0  0  0  0  0
   38.9000   21.2770   31.0560 C   0  0  2  0  0  0  0  0  0  0  0  0
   39.8830   22.7460   37.4480 C   0  0  0  0  0  0  0  0  0  0  0  0
   39.1840   23.3250   38.5090 C   0  0  0  0  0  0  0  0  0  0  0  0
   37.7930   23.4270   38.4210 C   0  0  0  0  0  0  0  0  0  0  0  0
   37.1790   22.9530   37.2930 N   0  0  0  0  0  0  0  0  0  0  0  0
   37.8900   22.3980   36.2850 C   0  0  0  0  0  0  0  0  0  0  0  0
   39.2390   22.2980   36.3680 N   0  0  0  0  0  0  0  0  0  0  0  0
   37.2450   21.9080   35.1190 N   0  0  0  0  0  0  0  0  0  0  0  0
   37.8350   22.2700   33.9750 C   0  0  0  0  0  0  0  0  0  0  0  0
   37.2770   21.8360   32.7780 C   0  0  0  0  0  0  0  0  0  0  0  0
   36.1510   21.0620   32.8880 C   0  0  0  0  0  0  0  0  0  0  0  0
   35.4720   20.5450   31.7670 N   0  0  0  0  0  0  0  0  0  0  0  0
   35.6000   20.7290   34.0640 N   0  0  0  0  0  0  0  0  0  0  0  0
   36.1510   21.1550   35.2170 C   0  0  0  0  0  0  0  0  0  0  0  0
   35.7110   20.8950   36.3520 O   0  0  0  0  0  0  0  0  0  0  0  0
   38.9170   19.9430   31.4930 N   0  0  0  0  0  0  0  0  0  0  0  0
   39.9970   19.4560   32.2510 C   0  0  0  0  0  0  0  0  0  0  0  0
   40.6180   18.1870   31.6870 C   0  0  0  0  0  0  0  0  0  0  0  0
   39.5870   17.1280   31.4090 C   0  0  0  0  0  0  0  0  0  0  0  0
   38.1790   17.6760   31.4370 C   0  0  0  0  0  0  0  0  0  0  0  0
   38.2230   19.0030   30.6680 C   0  0  0  0  0  0  0  0  0  0  0  0
   36.8295   22.7639   29.7474 H   0  0  0  0  0  0  0  0  0  0  0  0
   36.7518   23.9234   31.0769 H   0  0  0  0  0  0  0  0  0  0  0  0
   38.4993   24.7351   29.5353 H   0  0  0  0  0  0  0  0  0  0  0  0
   39.3733   24.0718   30.9237 H   0  0  0  0  0  0  0  0  0  0  0  0
   40.4278   22.8212   29.2860 H   0  0  0  0  0  0  0  0  0  0  0  0
   39.0371   23.0008   28.1427 H   0  0  0  0  0  0  0  0  0  0  0  0
   37.8364   21.2331   29.1534 H   0  0  0  0  0  0  0  0  0  0  0  0
   39.5003   20.6238   29.0509 H   0  0  0  0  0  0  0  0  0  0  0  0
   39.8320   21.6363   31.5167 H   0  0  0  0  0  0  0  0  0  0  0  0
   40.9781   22.6579   37.5028 H   0  0  0  0  0  0  0  0  0  0  0  0
   39.7180   23.6938   39.3972 H   0  0  0  0  0  0  0  0  0  0  0  0
   37.2071   23.8762   39.2364 H   0  0  0  0  0  0  0  0  0  0  0  0
   38.7396   22.8958   33.9809 H   0  0  0  0  0  0  0  0  0  0  0  0
   34.6290   19.9675   31.8967 H   0  0  0  0  0  0  0  0  0  0  0  0
   35.8186   20.7445   30.8178 H   0  0  0  0  0  0  0  0  0  0  0  0
   40.7730   20.2347   32.2897 H   0  0  0  0  0  0  0  0  0  0  0  0
   39.6031   19.2055   33.2471 H   0  0  0  0  0  0  0  0  0  0  0  0
   41.1363   18.4326   30.7483 H   0  0  0  0  0  0  0  0  0  0  0  0
   41.3178   17.7899   32.4371 H   0  0  0  0  0  0  0  0  0  0  0  0
   39.6750   16.3400   32.1715 H   0  0  0  0  0  0  0  0  0  0  0  0
   39.7742   16.7334   30.3994 H   0  0  0  0  0  0  0  0  0  0  0  0
   37.4866   16.9746   30.9485 H   0  0  0  0  0  0  0  0  0  0  0  0
   37.8248   17.8209   32.4683 H   0  0  0  0  0  0  0  0  0  0  0  0
   38.7572   18.8699   29.7157 H   0  0  0  0  0  0  0  0  0  0  0  0
   37.2071   19.3574   30.4392 H   0  0  0  0  0  0  0  0  0  0  0  0
  1 15  1  0
  2  1  1  0
  3  2  1  0
  4  5  1  0
  4  3  1  0
  5  6  1  0
  6 21  1  0
  6  1  1  0
  7  8  2  0
  9  8  1  0
 10  9  2  0
 11 12  2  0
 11 10  1  0
 12  7  1  0
 13 19  1  0
 13 11  1  0
 14 13  1  0
 15 16  1  0
 15 14  2  0
 16 18  2  0
 17 16  1  0
 18 19  1  0
 19 20  2  0
 21 22  1  0
 23 22  1  0
 24 25  1  0
 24 23  1  0
 26 25  1  0
 26 21  1  0
  2 27  1  0
  2 28  1  0
  3 29  1  0
  3 30  1  0
  4 31  1  0
  4 32  1  0
  5 33  1  0
  5 34  1  0
  6 35  1  1
  7 36  1  0
  8 37  1  0
  9 38  1  0
 14 39  1  0
 17 40  1  0
 17 41  1  0
 22 42  1  0
 22 43  1  0
 23 44  1  0
 23 45  1  0
 24 46  1  0
 24 47  1  0
 25 48  1  0
 25 49  1  0
 26 50  1  0
 26 51  1  0
M  ISO  8  27  13  28  13  29  13  30  13  31  13  32  13  33  13  34  13
M  ISO  8  35  13  36  14  37  14  38  14  39  14  42  13  43  13  44  13
M  ISO  7  45  13  46  13  47  13  48  13  49  13  50  13  51  13
M  END
>  <minimizedAffinity>  (1) 
-5.31561232

>  <minimizedRMSD>  (1) 
0.892913342

$$$$
