
     RDKit          3D

 35 37  0  0  1  0  0  0  0  0999 V2000
   40.4430   23.7320   34.2120 C   0  0  0  0  0  0  0  0  0  0  0  0
   40.0510   23.2380   35.4800 C   0  0  0  0  0  0  0  0  0  0  0  0
   38.7060   23.0510   35.7460 C   0  0  0  0  0  0  0  0  0  0  0  0
   37.8100   23.3580   34.7560 N   0  0  0  0  0  0  0  0  0  0  0  0
   38.2120   23.8280   33.5520 C   0  0  0  0  0  0  0  0  0  0  0  0
   39.5140   24.0160   33.2750 N   0  0  0  0  0  0  0  0  0  0  0  0
   38.1630   22.5710   36.9470 N   0  0  0  0  0  0  0  0  0  0  0  0
   37.1710   24.1120   32.6020 N   0  0  0  0  0  0  0  0  0  0  0  0
   36.7900   25.2970   32.1520 N   0  0  0  0  0  0  0  0  0  0  0  0
   35.7710   25.1780   31.2670 C   0  0  0  0  0  0  0  0  0  0  0  0
   35.5210   23.8090   31.1790 C   0  0  0  0  0  0  0  0  0  0  0  0
   36.4190   23.1500   32.0320 C   0  0  0  0  0  0  0  0  0  0  0  0
   36.5060   21.6760   32.2390 C   0  0  1  0  0  0  0  0  0  0  0  0
   35.0840   21.1300   32.4270 C   0  0  0  0  0  0  0  0  0  0  0  0
   37.0790   21.0600   30.9940 C   0  0  0  0  0  0  0  0  0  0  0  0
   36.3540   19.8620   30.5160 C   0  0  0  0  0  0  0  0  0  0  0  0
   37.2370   18.5840   30.5190 C   0  0  0  0  0  0  0  0  0  0  0  0
   36.6640   19.1550   29.2640 C   0  0  0  0  0  0  0  0  0  0  0  0
   41.5094   23.8849   33.9897 H   0  0  0  0  0  0  0  0  0  0  0  0
   40.8069   23.0056   36.2446 H   0  0  0  0  0  0  0  0  0  0  0  0
   37.1430   22.4672   37.0459 H   0  0  0  0  0  0  0  0  0  0  0  0
   38.7843   22.3223   37.7300 H   0  0  0  0  0  0  0  0  0  0  0  0
   35.2523   25.9875   30.7326 H   0  0  0  0  0  0  0  0  0  0  0  0
   34.7549   23.3302   30.5515 H   0  0  0  0  0  0  0  0  0  0  0  0
   37.1311   21.4451   33.1142 H   0  0  0  0  0  0  0  0  0  0  0  0
   34.8629   21.0451   33.5012 H   0  0  0  0  0  0  0  0  0  0  0  0
   34.3630   21.8153   31.9573 H   0  0  0  0  0  0  0  0  0  0  0  0
   35.0069   20.1383   31.9573 H   0  0  0  0  0  0  0  0  0  0  0  0
   37.0587   21.8160   30.1952 H   0  0  0  0  0  0  0  0  0  0  0  0
   38.0977   20.7307   31.2466 H   0  0  0  0  0  0  0  0  0  0  0  0
   35.3977   20.2340   30.9125 H   0  0  0  0  0  0  0  0  0  0  0  0
   38.3162   18.6540   30.7199 H   0  0  0  0  0  0  0  0  0  0  0  0
   37.2148   17.6083   31.0264 H   0  0  0  0  0  0  0  0  0  0  0  0
   35.8655   18.6115   28.7378 H   0  0  0  0  0  0  0  0  0  0  0  0
   37.1013   19.4681   28.3044 H   0  0  0  0  0  0  0  0  0  0  0  0
  1  2  2  0
  2  3  1  0
  3  7  1  0
  4  3  2  0
  5  4  1  0
  6  5  2  0
  6  1  1  0
  8  5  1  0
  9  8  1  0
 10  9  2  0
 11 10  1  0
 11 12  2  0
 12 13  1  0
 12  8  1  0
 13 14  1  0
 15 13  1  0
 16 17  1  0
 16 15  1  0
 18 16  1  0
 18 17  1  0
  1 19  1  0
  2 20  1  0
  7 21  1  0
  7 22  1  0
 10 23  1  0
 11 24  1  0
 13 25  1  1
 14 26  1  0
 14 27  1  0
 14 28  1  0
 15 29  1  0
 15 30  1  0
 16 31  1  0
 17 32  1  0
 17 33  1  0
 18 34  1  0
 18 35  1  0
M  ISO  8  19  14  20  14  23  14  24  14  25   8  26   8  27   8  28   8
M  ISO  7  29   8  30   8  31  13  32  13  33  13  34  13  35  13
M  END
>  <minimizedAffinity>  (1) 
-4.45876598

>  <minimizedRMSD>  (1) 
1.38949132

$$$$
