
     RDKit          3D

 43 45  0  0  1  0  0  0  0  0999 V2000
   37.6740   21.3400   31.6060 N   0  0  0  0  0  0  0  0  0  0  0  0
   37.7130   22.4440   30.6920 C   0  0  0  0  0  0  0  0  0  0  0  0
   39.1390   22.4580   30.1180 C   0  0  0  0  0  0  0  0  0  0  0  0
   39.2360   21.2510   29.2100 C   0  0  0  0  0  0  0  0  0  0  0  0
   38.2570   20.1720   29.6130 C   0  0  0  0  0  0  0  0  0  0  0  0
   38.2400   20.0850   31.1180 C   0  0  1  0  0  0  0  0  0  0  0  0
   39.8990   22.6530   37.3980 C   0  0  0  0  0  0  0  0  0  0  0  0
   39.2810   23.4430   38.3540 C   0  0  0  0  0  0  0  0  0  0  0  0
   37.9070   23.6510   38.2470 C   0  0  0  0  0  0  0  0  0  0  0  0
   37.2300   23.0730   37.2110 N   0  0  0  0  0  0  0  0  0  0  0  0
   37.8690   22.3110   36.3020 C   0  0  0  0  0  0  0  0  0  0  0  0
   39.2030   22.1050   36.4010 N   0  0  0  0  0  0  0  0  0  0  0  0
   37.1770   21.7050   35.2240 N   0  0  0  0  0  0  0  0  0  0  0  0
   37.7700   21.8380   34.0280 C   0  0  0  0  0  0  0  0  0  0  0  0
   37.1650   21.2800   32.9280 C   0  0  0  0  0  0  0  0  0  0  0  0
   35.9730   20.6170   33.1590 C   0  0  0  0  0  0  0  0  0  0  0  0
   35.2360   19.9890   32.1120 N   0  0  0  0  0  0  0  0  0  0  0  0
   35.4050   20.5010   34.3720 N   0  0  0  0  0  0  0  0  0  0  0  0
   36.0180   21.0570   35.4350 C   0  0  0  0  0  0  0  0  0  0  0  0
   35.5850   21.0130   36.6040 O   0  0  0  0  0  0  0  0  0  0  0  0
   39.5240   19.8150   31.7000 N   0  0  0  0  0  0  0  0  0  0  0  0
   39.9050   18.4590   31.8380 C   0  0  0  0  0  0  0  0  0  0  0  0
   39.0690   17.4790   31.9150 N   0  0  0  0  0  0  0  0  0  0  0  0
   41.2940   18.0930   31.9020 N   0  0  0  0  0  0  0  0  0  0  0  0
   38.0450   17.6010   31.8830 H   0  0  0  0  0  0  0  0  0  0  0  0
   36.9769   22.3018   29.8871 H   0  0  0  0  0  0  0  0  0  0  0  0
   37.4665   23.3930   31.1906 H   0  0  0  0  0  0  0  0  0  0  0  0
   39.3114   23.3815   29.5457 H   0  0  0  0  0  0  0  0  0  0  0  0
   39.8947   22.4228   30.9165 H   0  0  0  0  0  0  0  0  0  0  0  0
   40.2569   20.8450   29.2636 H   0  0  0  0  0  0  0  0  0  0  0  0
   38.9938   21.5704   28.1856 H   0  0  0  0  0  0  0  0  0  0  0  0
   37.2522   20.4250   29.2439 H   0  0  0  0  0  0  0  0  0  0  0  0
   38.5590   19.2064   29.1813 H   0  0  0  0  0  0  0  0  0  0  0  0
   37.6276   19.2239   31.4237 H   0  0  0  0  0  0  0  0  0  0  0  0
   40.9825   22.4747   37.4625 H   0  0  0  0  0  0  0  0  0  0  0  0
   39.8587   23.8935   39.1746 H   0  0  0  0  0  0  0  0  0  0  0  0
   37.3764   24.2706   38.9849 H   0  0  0  0  0  0  0  0  0  0  0  0
   38.7208   22.3825   33.9301 H   0  0  0  0  0  0  0  0  0  0  0  0
   34.3519   19.5046   32.3234 H   0  0  0  0  0  0  0  0  0  0  0  0
   35.5878   20.0198   31.1444 H   0  0  0  0  0  0  0  0  0  0  0  0
   40.1441   20.5786   32.0054 H   0  0  0  0  0  0  0  0  0  0  0  0
   41.5617   17.1035   32.0025 H   0  0  0  0  0  0  0  0  0  0  0  0
   42.0213   18.8203   31.8474 H   0  0  0  0  0  0  0  0  0  0  0  0
  1 15  1  0
  2  1  1  0
  3  2  1  0
  4  5  1  0
  4  3  1  0
  5  6  1  0
  6  1  1  0
  6 21  1  0
  7  8  2  0
  9  8  1  0
 10  9  2  0
 11 12  2  0
 11 10  1  0
 12  7  1  0
 13 19  1  0
 13 11  1  0
 14 13  1  0
 15 16  1  0
 15 14  2  0
 16 18  2  0
 17 16  1  0
 18 19  1  0
 19 20  2  0
 21 22  1  0
 22 24  1  0
 22 23  2  0
 25 23  1  0
  2 26  1  0
  2 27  1  0
  3 28  1  0
  3 29  1  0
  4 30  1  0
  4 31  1  0
  5 32  1  0
  5 33  1  0
  6 34  1  6
  7 35  1  0
  8 36  1  0
  9 37  1  0
 14 38  1  0
 17 39  1  0
 17 40  1  0
 21 41  1  0
 24 42  1  0
 24 43  1  0
M  ISO  8  26  13  27  13  28  13  29  13  30  13  31  13  32  13  33  13
M  ISO  5  34  13  35  14  36  14  37  14  38  14
M  END
>  <minimizedAffinity>  (1) 
-5.30889559

>  <minimizedRMSD>  (1) 
0.661229134

$$$$
