
     RDKit          3D

 35 37  0  0  1  0  0  0  0  0999 V2000
   40.7310   22.9370   33.7780 C   0  0  0  0  0  0  0  0  0  0  0  0
   40.5270   22.5880   35.1390 C   0  0  0  0  0  0  0  0  0  0  0  0
   39.2170   22.5190   35.6180 C   0  0  0  0  0  0  0  0  0  0  0  0
   38.2040   22.7930   34.7480 N   0  0  0  0  0  0  0  0  0  0  0  0
   38.4310   23.1220   33.4570 C   0  0  0  0  0  0  0  0  0  0  0  0
   39.6890   23.1970   32.9640 N   0  0  0  0  0  0  0  0  0  0  0  0
   38.8710   22.1930   36.9300 N   0  0  0  0  0  0  0  0  0  0  0  0
   37.2720   23.3850   32.6460 N   0  0  0  0  0  0  0  0  0  0  0  0
   36.8850   24.5250   32.1350 N   0  0  0  0  0  0  0  0  0  0  0  0
   35.7420   24.3860   31.4310 C   0  0  0  0  0  0  0  0  0  0  0  0
   35.4150   23.0340   31.5300 C   0  0  0  0  0  0  0  0  0  0  0  0
   36.3950   22.4140   32.3030 C   0  0  0  0  0  0  0  0  0  0  0  0
   36.4340   20.9640   32.6480 C   0  0  1  0  0  0  0  0  0  0  0  0
   35.6020   20.7310   33.9130 C   0  0  0  0  0  0  0  0  0  0  0  0
   35.8260   20.1780   31.5120 C   0  0  0  0  0  0  0  0  0  0  0  0
   35.8860   18.7040   31.8200 C   0  0  0  0  0  0  0  0  0  0  0  0
   37.0610   17.9460   31.8590 C   0  0  0  0  0  0  0  0  0  0  0  0
   36.7320   16.6870   32.1620 N   0  0  0  0  0  0  0  0  0  0  0  0
   35.3910   16.6150   32.3160 C   0  0  0  0  0  0  0  0  0  0  0  0
   34.8760   17.8410   32.1090 N   0  0  0  0  0  0  0  0  0  0  0  0
   41.7555   22.9961   33.3818 H   0  0  0  0  0  0  0  0  0  0  0  0
   41.3803   22.3770   35.8003 H   0  0  0  0  0  0  0  0  0  0  0  0
   37.8799   22.1625   37.2088 H   0  0  0  0  0  0  0  0  0  0  0  0
   39.6067   21.9829   37.6196 H   0  0  0  0  0  0  0  0  0  0  0  0
   35.1877   25.1703   30.8946 H   0  0  0  0  0  0  0  0  0  0  0  0
   34.5396   22.5442   31.0785 H   0  0  0  0  0  0  0  0  0  0  0  0
   37.4727   20.6438   32.8171 H   0  0  0  0  0  0  0  0  0  0  0  0
   36.2275   20.9062   34.8007 H   0  0  0  0  0  0  0  0  0  0  0  0
   34.7483   21.4246   33.9233 H   0  0  0  0  0  0  0  0  0  0  0  0
   35.2327   19.6949   33.9233 H   0  0  0  0  0  0  0  0  0  0  0  0
   36.3860   20.3807   30.5872 H   0  0  0  0  0  0  0  0  0  0  0  0
   34.7759   20.4793   31.3837 H   0  0  0  0  0  0  0  0  0  0  0  0
   38.0782   18.3210   31.6727 H   0  0  0  0  0  0  0  0  0  0  0  0
   34.8189   15.7097   32.5674 H   0  0  0  0  0  0  0  0  0  0  0  0
   33.8770   18.0862   32.1612 H   0  0  0  0  0  0  0  0  0  0  0  0
  1  2  2  0
  2  3  1  0
  3  7  1  0
  4  3  2  0
  5  4  1  0
  6  5  2  0
  6  1  1  0
  8  5  1  0
  9  8  1  0
 10 11  1  0
 10  9  2  0
 11 12  2  0
 12  8  1  0
 12 13  1  0
 13 14  1  0
 15 16  1  0
 15 13  1  0
 16 17  2  0
 16 20  1  0
 17 18  1  0
 18 19  2  0
 20 19  1  0
  1 21  1  0
  2 22  1  0
  7 23  1  0
  7 24  1  0
 10 25  1  0
 11 26  1  0
 13 27  1  1
 14 28  1  0
 14 29  1  0
 14 30  1  0
 15 31  1  0
 15 32  1  0
 17 33  1  0
 19 34  1  0
 20 35  1  0
M  ISO  8  21  14  22  14  25  14  26  14  27   8  28   8  29   8  30   8
M  ISO  5  31   8  32   8  33  14  34  14  35   9
M  END
>  <minimizedAffinity>  (1) 
-5.03759718

>  <minimizedRMSD>  (1) 
0.966305912

$$$$
