
     RDKit          3D

 50 53  0  0  1  0  0  0  0  0999 V2000
   37.9190   22.7420   31.3260 N   0  0  0  0  0  0  0  0  0  0  0  0
   37.4960   23.8670   30.5190 C   0  0  0  0  0  0  0  0  0  0  0  0
   38.7760   24.6150   30.1410 C   0  0  0  0  0  0  0  0  0  0  0  0
   39.4590   23.7370   29.1120 C   0  0  0  0  0  0  0  0  0  0  0  0
   39.1020   22.2700   29.3040 C   0  0  0  0  0  0  0  0  0  0  0  0
   39.0560   22.0180   30.7990 C   0  0  2  0  0  0  0  0  0  0  0  0
   39.8740   22.8070   37.3410 C   0  0  0  0  0  0  0  0  0  0  0  0
   39.1270   23.2120   38.4480 C   0  0  0  0  0  0  0  0  0  0  0  0
   37.7530   23.2260   38.3360 C   0  0  0  0  0  0  0  0  0  0  0  0
   37.1910   22.8450   37.1530 N   0  0  0  0  0  0  0  0  0  0  0  0
   37.9490   22.4590   36.1020 C   0  0  0  0  0  0  0  0  0  0  0  0
   39.2790   22.4420   36.2030 N   0  0  0  0  0  0  0  0  0  0  0  0
   37.3370   22.0650   34.8740 N   0  0  0  0  0  0  0  0  0  0  0  0
   37.9240   22.5890   33.7890 C   0  0  0  0  0  0  0  0  0  0  0  0
   37.3990   22.2690   32.5410 C   0  0  0  0  0  0  0  0  0  0  0  0
   36.3130   21.4340   32.5420 C   0  0  0  0  0  0  0  0  0  0  0  0
   35.6750   21.0340   31.3510 N   0  0  0  0  0  0  0  0  0  0  0  0
   35.7600   20.9350   33.6550 N   0  0  0  0  0  0  0  0  0  0  0  0
   36.2780   21.2520   34.8630 C   0  0  0  0  0  0  0  0  0  0  0  0
   35.8410   20.8420   35.9530 O   0  0  0  0  0  0  0  0  0  0  0  0
   39.3690   20.7660   31.2390 N   0  0  0  0  0  0  0  0  0  0  0  0
   40.0780   20.4290   32.3870 C   0  0  0  0  0  0  0  0  0  0  0  0
   40.9330   19.2010   32.0290 C   0  0  0  0  0  0  0  0  0  0  0  0
   40.0380   18.0690   31.9800 N   0  0  0  0  0  0  0  0  0  0  0  0
   38.6970   18.4710   31.6310 C   0  0  0  0  0  0  0  0  0  0  0  0
   38.7160   19.6410   30.6440 C   0  0  0  0  0  0  0  0  0  0  0  0
   36.9766   23.5160   29.6151 H   0  0  0  0  0  0  0  0  0  0  0  0
   36.7949   24.5154   31.0649 H   0  0  0  0  0  0  0  0  0  0  0  0
   38.5355   25.5983   29.7106 H   0  0  0  0  0  0  0  0  0  0  0  0
   39.4178   24.8001   31.0150 H   0  0  0  0  0  0  0  0  0  0  0  0
   40.5484   23.8551   29.2082 H   0  0  0  0  0  0  0  0  0  0  0  0
   39.1177   24.0470   28.1133 H   0  0  0  0  0  0  0  0  0  0  0  0
   38.1207   22.0579   28.8546 H   0  0  0  0  0  0  0  0  0  0  0  0
   39.8431   21.6183   28.8182 H   0  0  0  0  0  0  0  0  0  0  0  0
   39.9388   22.4409   31.3008 H   0  0  0  0  0  0  0  0  0  0  0  0
   40.9718   22.7882   37.4072 H   0  0  0  0  0  0  0  0  0  0  0  0
   39.6209   23.5118   39.3841 H   0  0  0  0  0  0  0  0  0  0  0  0
   37.1235   23.5377   39.1825 H   0  0  0  0  0  0  0  0  0  0  0  0
   38.7959   23.2531   33.8826 H   0  0  0  0  0  0  0  0  0  0  0  0
   34.8604   20.4048   31.3894 H   0  0  0  0  0  0  0  0  0  0  0  0
   36.0232   21.3708   30.4420 H   0  0  0  0  0  0  0  0  0  0  0  0
   40.7237   21.2650   32.6938 H   0  0  0  0  0  0  0  0  0  0  0  0
   39.3984   20.2097   33.2237 H   0  0  0  0  0  0  0  0  0  0  0  0
   41.4134   19.3465   31.0502 H   0  0  0  0  0  0  0  0  0  0  0  0
   41.7281   19.0434   32.7727 H   0  0  0  0  0  0  0  0  0  0  0  0
   40.3814   17.4009   31.2753 H   0  0  0  0  0  0  0  0  0  0  0  0
   38.1744   17.6198   31.1702 H   0  0  0  0  0  0  0  0  0  0  0  0
   38.1773   18.7918   32.5459 H   0  0  0  0  0  0  0  0  0  0  0  0
   37.6833   19.9146   30.3820 H   0  0  0  0  0  0  0  0  0  0  0  0
   39.2616   19.3422   29.7368 H   0  0  0  0  0  0  0  0  0  0  0  0
  1 15  1  0
  2  1  1  0
  3  2  1  0
  4  5  1  0
  4  3  1  0
  5  6  1  0
  6 21  1  0
  6  1  1  0
  7  8  2  0
  9  8  1  0
 10  9  2  0
 11 12  2  0
 11 10  1  0
 12  7  1  0
 13 11  1  0
 14 13  1  0
 15 16  1  0
 15 14  2  0
 16 18  2  0
 17 16  1  0
 18 19  1  0
 19 13  1  0
 19 20  2  0
 21 22  1  0
 23 22  1  0
 24 23  1  0
 25 24  1  0
 26 21  1  0
 26 25  1  0
  2 27  1  0
  2 28  1  0
  3 29  1  0
  3 30  1  0
  4 31  1  0
  4 32  1  0
  5 33  1  0
  5 34  1  0
  6 35  1  1
  7 36  1  0
  8 37  1  0
  9 38  1  0
 14 39  1  0
 17 40  1  0
 17 41  1  0
 22 42  1  0
 22 43  1  0
 23 44  1  0
 23 45  1  0
 24 46  1  0
 25 47  1  0
 25 48  1  0
 26 49  1  0
 26 50  1  0
M  ISO  8  27  13  28  13  29  13  30  13  31  13  32  13  33  13  34  13
M  ISO  8  35  13  36  14  37  14  38  14  39  14  42  13  43  13  44  13
M  ISO  6  45  13  46   5  47  13  48  13  49  13  50  13
M  END
>  <minimizedAffinity>  (1) 
-5.3053422

>  <minimizedRMSD>  (1) 
1.24573839

$$$$
