
     RDKit          3D

 54 57  0  0  1  0  0  0  0  0999 V2000
   38.6700   21.9240   34.3010 C   0  0  0  0  0  0  0  0  0  0  0  0
   38.6330   22.4500   35.7200 C   0  0  0  0  0  0  0  0  0  0  0  0
   37.5030   22.8960   36.3830 C   0  0  0  0  0  0  0  0  0  0  0  0
   37.8520   23.2790   37.6040 N   0  0  0  0  0  0  0  0  0  0  0  0
   39.1870   23.0890   37.7470 C   0  0  0  0  0  0  0  0  0  0  0  0
   39.6440   22.5870   36.5970 N   0  0  0  0  0  0  0  0  0  0  0  0
   40.9980   22.2590   36.3620 C   0  0  2  0  0  0  0  0  0  0  0  0
   41.4960   21.5110   37.5940 C   0  0  0  0  0  0  0  0  0  0  0  0
   41.7990   23.5210   36.1500 C   0  0  0  0  0  0  0  0  0  0  0  0
   43.2670   23.2530   36.0870 C   0  0  0  0  0  0  0  0  0  0  0  0
   44.0570   24.1910   36.7660 C   0  0  0  0  0  0  0  0  0  0  0  0
   45.4480   24.0810   36.8020 C   0  0  0  0  0  0  0  0  0  0  0  0
   46.0250   23.0220   36.1520 C   0  0  0  0  0  0  0  0  0  0  0  0
   45.2710   22.1000   35.4870 C   0  0  0  0  0  0  0  0  0  0  0  0
   43.8960   22.2100   35.4520 C   0  0  0  0  0  0  0  0  0  0  0  0
   37.6870   22.6950   33.4480 C   0  0  1  0  0  0  0  0  0  0  0  0
   40.1850   26.6220   34.9210 C   0  0  0  0  0  0  0  0  0  0  0  0
   38.9670   27.2390   35.3060 C   0  0  0  0  0  0  0  0  0  0  0  0
   37.8070   26.9020   34.6250 C   0  0  0  0  0  0  0  0  0  0  0  0
   37.9110   25.9950   33.6260 N   0  0  0  0  0  0  0  0  0  0  0  0
   39.0810   25.4190   33.2760 C   0  0  0  0  0  0  0  0  0  0  0  0
   40.2090   25.7280   33.9170 N   0  0  0  0  0  0  0  0  0  0  0  0
   36.5480   27.4340   34.9030 N   0  0  0  0  0  0  0  0  0  0  0  0
   39.0280   24.4730   32.1930 N   0  0  0  0  0  0  0  0  0  0  0  0
   39.5340   24.5950   30.9930 N   0  0  0  0  0  0  0  0  0  0  0  0
   39.3020   23.5130   30.2310 C   0  0  0  0  0  0  0  0  0  0  0  0
   38.5800   22.6430   31.0500 C   0  0  0  0  0  0  0  0  0  0  0  0
   38.4260   23.2870   32.2870 C   0  0  0  0  0  0  0  0  0  0  0  0
   36.6090   21.7500   32.9330 C   0  0  0  0  0  0  0  0  0  0  0  0
   39.6838   22.0457   33.8918 H   0  0  0  0  0  0  0  0  0  0  0  0
   38.3976   20.8583   34.2993 H   0  0  0  0  0  0  0  0  0  0  0  0
   36.4853   22.9276   35.9668 H   0  0  0  0  0  0  0  0  0  0  0  0
   39.7836   23.3080   38.6448 H   0  0  0  0  0  0  0  0  0  0  0  0
   41.1072   21.6357   35.4622 H   0  0  0  0  0  0  0  0  0  0  0  0
   41.1514   22.0286   38.5014 H   0  0  0  0  0  0  0  0  0  0  0  0
   41.1003   20.4847   37.5847 H   0  0  0  0  0  0  0  0  0  0  0  0
   42.5955   21.4802   37.5847 H   0  0  0  0  0  0  0  0  0  0  0  0
   41.4829   23.9867   35.2049 H   0  0  0  0  0  0  0  0  0  0  0  0
   41.6135   24.1868   37.0058 H   0  0  0  0  0  0  0  0  0  0  0  0
   43.5702   25.0319   37.2816 H   0  0  0  0  0  0  0  0  0  0  0  0
   46.0618   24.8216   37.3357 H   0  0  0  0  0  0  0  0  0  0  0  0
   47.1195   22.9129   36.1667 H   0  0  0  0  0  0  0  0  0  0  0  0
   45.7637   21.2610   34.9739 H   0  0  0  0  0  0  0  0  0  0  0  0
   43.3005   21.4586   34.9128 H   0  0  0  0  0  0  0  0  0  0  0  0
   37.2154   23.4911   34.0429 H   0  0  0  0  0  0  0  0  0  0  0  0
   41.1165   26.8768   35.4476 H   0  0  0  0  0  0  0  0  0  0  0  0
   38.9432   27.9697   36.1279 H   0  0  0  0  0  0  0  0  0  0  0  0
   35.7298   27.1351   34.3533 H   0  0  0  0  0  0  0  0  0  0  0  0
   36.4365   28.1257   35.6579 H   0  0  0  0  0  0  0  0  0  0  0  0
   39.6132   23.3485   29.1888 H   0  0  0  0  0  0  0  0  0  0  0  0
   38.2045   21.6455   30.7781 H   0  0  0  0  0  0  0  0  0  0  0  0
   36.0859   21.2914   33.7851 H   0  0  0  0  0  0  0  0  0  0  0  0
   35.8893   22.3135   32.3210 H   0  0  0  0  0  0  0  0  0  0  0  0
   37.0734   20.9627   32.3210 H   0  0  0  0  0  0  0  0  0  0  0  0
  1  2  1  0
  2  3  2  0
  2  6  1  0
  3  4  1  0
  4  5  2  0
  6  5  1  0
  7  6  1  0
  7  8  1  0
  9  7  1  0
 10  9  1  0
 10 11  2  0
 11 12  1  0
 13 12  2  0
 14 13  1  0
 15 14  2  0
 15 10  1  0
 16  1  1  0
 17 18  2  0
 19 23  1  0
 19 18  1  0
 20 19  2  0
 21 20  1  0
 21 22  2  0
 22 17  1  0
 24 28  1  0
 24 21  1  0
 25 24  1  0
 26 25  2  0
 26 27  1  0
 27 28  2  0
 28 16  1  0
 29 16  1  0
  1 30  1  0
  1 31  1  0
  3 32  1  0
  5 33  1  0
  7 34  1  6
  8 35  1  0
  8 36  1  0
  8 37  1  0
  9 38  1  0
  9 39  1  0
 11 40  1  0
 12 41  1  0
 13 42  1  0
 14 43  1  0
 15 44  1  0
 16 45  1  1
 17 46  1  0
 18 47  1  0
 23 48  1  0
 23 49  1  0
 26 50  1  0
 27 51  1  0
 29 52  1  0
 29 53  1  0
 29 54  1  0
M  ISO  8  30   8  31   8  32  14  33  14  34   8  35   8  36   8  37   8
M  ISO  8  38   8  39   8  40  14  41  14  42  14  43  14  44  14  45   8
M  ISO  7  46  14  47  14  50  14  51  14  52   8  53   8  54   8
M  END
>  <minimizedAffinity>  (1) 
-5.57419443

>  <minimizedRMSD>  (1) 
0.746885002

$$$$
