
     RDKit          3D

 52 55  0  0  1  0  0  0  0  0999 V2000
   38.7080   21.9060   34.2600 C   0  0  0  0  0  0  0  0  0  0  0  0
   38.6740   22.4390   35.6750 C   0  0  0  0  0  0  0  0  0  0  0  0
   37.5330   22.8980   36.3370 C   0  0  0  0  0  0  0  0  0  0  0  0
   37.8790   23.2860   37.5520 N   0  0  0  0  0  0  0  0  0  0  0  0
   39.2150   23.0930   37.7030 C   0  0  0  0  0  0  0  0  0  0  0  0
   39.6710   22.5820   36.5560 N   0  0  0  0  0  0  0  0  0  0  0  0
   41.0240   22.2460   36.3320 C   0  0  2  0  0  0  0  0  0  0  0  0
   41.5250   21.5020   37.5600 C   0  0  0  0  0  0  0  0  0  0  0  0
   41.8370   23.5200   36.1270 C   0  0  0  0  0  0  0  0  0  0  0  0
   43.2900   23.1840   35.9940 C   0  0  0  0  0  0  0  0  0  0  0  0
   44.1060   24.0720   36.6920 C   0  0  0  0  0  0  0  0  0  0  0  0
   45.4860   23.8800   36.6570 C   0  0  0  0  0  0  0  0  0  0  0  0
   45.9900   22.8440   35.9510 N   0  0  0  0  0  0  0  0  0  0  0  0
   45.1720   22.0170   35.2960 C   0  0  0  0  0  0  0  0  0  0  0  0
   43.8210   22.1620   35.3000 N   0  0  0  0  0  0  0  0  0  0  0  0
   37.5980   22.5410   33.4530 C   0  0  1  0  0  0  0  0  0  0  0  0
   40.3340   26.4380   34.5300 C   0  0  0  0  0  0  0  0  0  0  0  0
   39.1860   27.0830   35.0560 C   0  0  0  0  0  0  0  0  0  0  0  0
   37.9460   26.7580   34.5340 C   0  0  0  0  0  0  0  0  0  0  0  0
   37.9080   25.8350   33.5450 N   0  0  0  0  0  0  0  0  0  0  0  0
   39.0120   25.2320   33.0570 C   0  0  0  0  0  0  0  0  0  0  0  0
   40.2170   25.5290   33.5430 N   0  0  0  0  0  0  0  0  0  0  0  0
   36.7480   27.3220   34.9660 N   0  0  0  0  0  0  0  0  0  0  0  0
   38.8030   24.2750   32.0050 N   0  0  0  0  0  0  0  0  0  0  0  0
   39.1560   24.3700   30.7470 N   0  0  0  0  0  0  0  0  0  0  0  0
   38.8070   23.2870   30.0390 C   0  0  0  0  0  0  0  0  0  0  0  0
   38.1780   22.4420   30.9560 C   0  0  0  0  0  0  0  0  0  0  0  0
   38.1950   23.1030   32.1950 C   0  0  0  0  0  0  0  0  0  0  0  0
   36.5610   21.4860   33.0870 C   0  0  0  0  0  0  0  0  0  0  0  0
   39.6783   22.1468   33.8011 H   0  0  0  0  0  0  0  0  0  0  0  0
   38.5698   20.8148   34.2768 H   0  0  0  0  0  0  0  0  0  0  0  0
   36.5167   22.9310   35.9174 H   0  0  0  0  0  0  0  0  0  0  0  0
   39.8098   23.3157   38.6011 H   0  0  0  0  0  0  0  0  0  0  0  0
   41.1271   21.6167   35.4357 H   0  0  0  0  0  0  0  0  0  0  0  0
   41.1780   22.0173   38.4678 H   0  0  0  0  0  0  0  0  0  0  0  0
   41.1347   20.4736   37.5502 H   0  0  0  0  0  0  0  0  0  0  0  0
   42.6247   21.4769   37.5502 H   0  0  0  0  0  0  0  0  0  0  0  0
   41.4952   24.0272   35.2127 H   0  0  0  0  0  0  0  0  0  0  0  0
   41.6971   24.1813   36.9948 H   0  0  0  0  0  0  0  0  0  0  0  0
   43.6699   24.9076   37.2591 H   0  0  0  0  0  0  0  0  0  0  0  0
   46.1569   24.5638   37.1977 H   0  0  0  0  0  0  0  0  0  0  0  0
   45.6104   21.1826   34.7289 H   0  0  0  0  0  0  0  0  0  0  0  0
   37.1124   23.3353   34.0388 H   0  0  0  0  0  0  0  0  0  0  0  0
   41.3286   26.6821   34.9314 H   0  0  0  0  0  0  0  0  0  0  0  0
   39.2789   27.8259   35.8619 H   0  0  0  0  0  0  0  0  0  0  0  0
   35.8582   27.0348   34.5339 H   0  0  0  0  0  0  0  0  0  0  0  0
   36.7518   28.0263   35.7176 H   0  0  0  0  0  0  0  0  0  0  0  0
   38.9787   23.1034   28.9681 H   0  0  0  0  0  0  0  0  0  0  0  0
   37.7514   21.4497   30.7478 H   0  0  0  0  0  0  0  0  0  0  0  0
   36.1369   21.0545   34.0057 H   0  0  0  0  0  0  0  0  0  0  0  0
   35.7583   21.9506   32.4956 H   0  0  0  0  0  0  0  0  0  0  0  0
   37.0393   20.6914   32.4956 H   0  0  0  0  0  0  0  0  0  0  0  0
  1  2  1  0
  2  3  2  0
  2  6  1  0
  3  4  1  0
  4  5  2  0
  6  5  1  0
  7  6  1  0
  7  8  1  0
  9  7  1  0
 10  9  1  0
 10 11  2  0
 12 11  1  0
 13 12  2  0
 14 15  2  0
 14 13  1  0
 15 10  1  0
 16  1  1  0
 17 18  2  0
 19 23  1  0
 19 18  1  0
 20 19  2  0
 21 22  2  0
 21 20  1  0
 22 17  1  0
 24 28  1  0
 24 21  1  0
 25 24  1  0
 26 25  2  0
 26 27  1  0
 27 28  2  0
 28 16  1  0
 29 16  1  0
  1 30  1  0
  1 31  1  0
  3 32  1  0
  5 33  1  0
  7 34  1  6
  8 35  1  0
  8 36  1  0
  8 37  1  0
  9 38  1  0
  9 39  1  0
 11 40  1  0
 12 41  1  0
 14 42  1  0
 16 43  1  1
 17 44  1  0
 18 45  1  0
 23 46  1  0
 23 47  1  0
 26 48  1  0
 27 49  1  0
 29 50  1  0
 29 51  1  0
 29 52  1  0
M  ISO  8  30   8  31   8  32  14  33  14  34   8  35   8  36   8  37   8
M  ISO  8  38   8  39   8  40  14  41  14  42  14  43   8  44  14  45  14
M  ISO  5  48  14  49  14  50   8  51   8  52   8
M  END
>  <minimizedAffinity>  (1) 
-5.24062109

>  <minimizedRMSD>  (1) 
0.352882683

$$$$
