
     RDKit          3D

 20 21  0  0  0  0  0  0  0  0999 V2000
   40.7910   21.9750   36.5950 C   0  0  0  0  0  0  0  0  0  0  0  0
   40.0630   22.6300   35.6090 C   0  0  0  0  0  0  0  0  0  0  0  0
   39.0960   23.3370   36.2730 N   0  0  0  0  0  0  0  0  0  0  0  0
   39.2650   23.0950   37.5920 C   0  0  0  0  0  0  0  0  0  0  0  0
   40.2840   22.2740   37.8030 N   0  0  0  0  0  0  0  0  0  0  0  0
   43.6190   19.5930   37.0980 C   0  0  0  0  0  0  0  0  0  0  0  0
   42.5310   20.4290   37.3630 C   0  0  0  0  0  0  0  0  0  0  0  0
   41.9260   21.1010   36.3150 C   0  0  0  0  0  0  0  0  0  0  0  0
   42.4330   20.9080   35.0620 N   0  0  0  0  0  0  0  0  0  0  0  0
   43.4750   20.1020   34.8360 C   0  0  0  0  0  0  0  0  0  0  0  0
   44.0580   19.4550   35.8410 N   0  0  0  0  0  0  0  0  0  0  0  0
   38.4510   23.6470   38.7060 C   0  0  0  0  0  0  0  0  0  0  0  0
   39.2140   23.9280   39.7970 F   0  0  0  0  0  0  0  0  0  0  0  0
   37.9110   24.8480   38.2690 F   0  0  0  0  0  0  0  0  0  0  0  0
   37.4260   22.7750   38.9650 F   0  0  0  0  0  0  0  0  0  0  0  0
   40.2288   22.5892   34.5223 H   0  0  0  0  0  0  0  0  0  0  0  0
   40.6211   21.9322   38.7143 H   0  0  0  0  0  0  0  0  0  0  0  0
   44.1122   19.0510   37.9183 H   0  0  0  0  0  0  0  0  0  0  0  0
   42.1601   20.5515   38.3913 H   0  0  0  0  0  0  0  0  0  0  0  0
   43.8531   19.9729   33.8111 H   0  0  0  0  0  0  0  0  0  0  0  0
  1  5  1  0
  2  3  1  0
  2  1  2  0
  3  4  2  0
  4  5  1  0
  4 12  1  0
  6  7  2  0
  8  1  1  0
  8  7  1  0
  9  8  2  0
 10  9  1  0
 10 11  2  0
 11  6  1  0
 12 15  1  0
 12 13  1  0
 14 12  1  0
  2 16  1  0
  5 17  1  0
  6 18  1  0
  7 19  1  0
 10 20  1  0
M  ISO  5  16  14  17   9  18  14  19  14  20  14
M  END
>  <minimizedAffinity>  (1) 
-4.49330807

>  <minimizedRMSD>  (1) 
1.78596151

$$$$
