
     RDKit          3D

 24 26  0  0  0  0  0  0  0  0999 V2000
   37.8280   25.1240   33.9950 C   0  0  0  0  0  0  0  0  0  0  0  0
   37.8720   25.9500   35.1300 C   0  0  0  0  0  0  0  0  0  0  0  0
   38.7780   25.3720   35.9670 N   0  0  0  0  0  0  0  0  0  0  0  0
   39.2420   24.2590   35.3490 C   0  0  0  0  0  0  0  0  0  0  0  0
   38.6790   24.1000   34.1670 N   0  0  0  0  0  0  0  0  0  0  0  0
   40.2100   23.4780   36.0380 N   0  0  0  0  0  0  0  0  0  0  0  0
   41.5110   23.4070   35.9450 N   0  0  0  0  0  0  0  0  0  0  0  0
   41.9970   22.4930   36.8350 C   0  0  0  0  0  0  0  0  0  0  0  0
   40.8920   21.9750   37.5150 C   0  0  0  0  0  0  0  0  0  0  0  0
   39.7640   22.6170   36.9910 C   0  0  0  0  0  0  0  0  0  0  0  0
   35.6780   24.5660   30.9970 C   0  0  0  0  0  0  0  0  0  0  0  0
   36.5040   24.3140   32.1050 C   0  0  0  0  0  0  0  0  0  0  0  0
   36.9740   25.3930   32.8530 C   0  0  0  0  0  0  0  0  0  0  0  0
   36.6010   26.6480   32.4600 N   0  0  0  0  0  0  0  0  0  0  0  0
   35.8050   26.8550   31.3900 C   0  0  0  0  0  0  0  0  0  0  0  0
   35.3450   25.8360   30.6610 N   0  0  0  0  0  0  0  0  0  0  0  0
   37.2959   26.8704   35.3061 H   0  0  0  0  0  0  0  0  0  0  0  0
   38.8584   23.3346   33.5014 H   0  0  0  0  0  0  0  0  0  0  0  0
   43.0513   22.2184   36.9868 H   0  0  0  0  0  0  0  0  0  0  0  0
   40.9057   21.2119   38.3072 H   0  0  0  0  0  0  0  0  0  0  0  0
   38.7184   22.4560   37.2922 H   0  0  0  0  0  0  0  0  0  0  0  0
   35.2984   23.7257   30.3972 H   0  0  0  0  0  0  0  0  0  0  0  0
   36.7753   23.2835   32.3778 H   0  0  0  0  0  0  0  0  0  0  0  0
   35.5300   27.8835   31.1133 H   0  0  0  0  0  0  0  0  0  0  0  0
  1  5  1  0
  1  2  2  0
  2  3  1  0
  4  3  2  0
  4  6  1  0
  5  4  1  0
  6 10  1  0
  7  6  1  0
  7  8  2  0
  8  9  1  0
 10  9  2  0
 11 12  2  0
 12 13  1  0
 13  1  1  0
 14 13  2  0
 15 14  1  0
 16 11  1  0
 16 15  2  0
  2 17  1  0
  5 18  1  0
  8 19  1  0
  9 20  1  0
 10 21  1  0
 11 22  1  0
 12 23  1  0
 15 24  1  0
M  ISO  8  17  14  18   9  19  14  20  14  21  14  22  14  23  14  24  14
M  END
>  <minimizedAffinity>  (1) 
-4.32191467

>  <minimizedRMSD>  (1) 
6.57515764

$$$$
