
     RDKit          3D

 37 39  0  0  1  0  0  0  0  0999 V2000
   39.8930   22.7320   37.5190 C   0  0  0  0  0  0  0  0  0  0  0  0
   39.2500   23.4870   38.4990 C   0  0  0  0  0  0  0  0  0  0  0  0
   37.8670   23.6600   38.4000 C   0  0  0  0  0  0  0  0  0  0  0  0
   37.2290   23.0800   37.3510 N   0  0  0  0  0  0  0  0  0  0  0  0
   37.8810   22.3560   36.4200 C   0  0  0  0  0  0  0  0  0  0  0  0
   39.2010   22.1920   36.5160 N   0  0  0  0  0  0  0  0  0  0  0  0
   37.1830   21.7600   35.3320 N   0  0  0  0  0  0  0  0  0  0  0  0
   37.7900   21.9420   34.1410 C   0  0  0  0  0  0  0  0  0  0  0  0
   37.1930   21.4030   33.0260 C   0  0  0  0  0  0  0  0  0  0  0  0
   36.0050   20.7140   33.2360 C   0  0  0  0  0  0  0  0  0  0  0  0
   35.2740   20.1060   32.1840 N   0  0  0  0  0  0  0  0  0  0  0  0
   35.4460   20.5660   34.4480 N   0  0  0  0  0  0  0  0  0  0  0  0
   36.0440   21.0990   35.5270 C   0  0  0  0  0  0  0  0  0  0  0  0
   35.6060   21.0180   36.7010 O   0  0  0  0  0  0  0  0  0  0  0  0
   37.6970   21.5010   31.7040 N   0  0  0  0  0  0  0  0  0  0  0  0
   37.3900   22.4320   30.6690 C   0  0  0  0  0  0  0  0  0  0  0  0
   38.7510   22.8850   30.1140 C   0  0  0  0  0  0  0  0  0  0  0  0
   39.3030   21.6870   29.3390 C   0  0  0  0  0  0  0  0  0  0  0  0
   38.7060   20.3960   29.8510 C   0  0  0  0  0  0  0  0  0  0  0  0
   38.6850   20.4800   31.3640 C   0  0  2  0  0  0  0  0  0  0  0  0
   38.2610   19.2590   31.8530 O   0  0  0  0  0  0  0  0  0  0  0  0
   40.9811   22.5806   37.5741 H   0  0  0  0  0  0  0  0  0  0  0  0
   39.8167   23.9349   39.3286 H   0  0  0  0  0  0  0  0  0  0  0  0
   37.3131   24.2469   39.1475 H   0  0  0  0  0  0  0  0  0  0  0  0
   38.7326   22.5038   34.0644 H   0  0  0  0  0  0  0  0  0  0  0  0
   34.3974   19.6053   32.3883 H   0  0  0  0  0  0  0  0  0  0  0  0
   35.6196   20.1651   31.2155 H   0  0  0  0  0  0  0  0  0  0  0  0
   36.7938   21.9491   29.8807 H   0  0  0  0  0  0  0  0  0  0  0  0
   36.7967   23.2796   31.0425 H   0  0  0  0  0  0  0  0  0  0  0  0
   38.6238   23.7488   29.4449 H   0  0  0  0  0  0  0  0  0  0  0  0
   39.4334   23.1969   30.9184 H   0  0  0  0  0  0  0  0  0  0  0  0
   40.3958   21.6519   29.4595 H   0  0  0  0  0  0  0  0  0  0  0  0
   39.0387   21.8014   28.2774 H   0  0  0  0  0  0  0  0  0  0  0  0
   37.6826   20.2755   29.4661 H   0  0  0  0  0  0  0  0  0  0  0  0
   39.2992   19.5322   29.5164 H   0  0  0  0  0  0  0  0  0  0  0  0
   39.6721   20.7245   31.7834 H   0  0  0  0  0  0  0  0  0  0  0  0
   38.2681   19.2794   32.8428 H   0  0  0  0  0  0  0  0  0  0  0  0
  1  2  2  0
  3  2  1  0
  4  3  2  0
  5  6  2  0
  5  4  1  0
  6  1  1  0
  7 13  1  0
  7  5  1  0
  8  7  1  0
  9 10  1  0
  9  8  2  0
 10 12  2  0
 11 10  1  0
 12 13  1  0
 13 14  2  0
 15  9  1  0
 16 15  1  0
 17 16  1  0
 18 19  1  0
 18 17  1  0
 19 20  1  0
 20 15  1  0
 20 21  1  0
  1 22  1  0
  2 23  1  0
  3 24  1  0
  8 25  1  0
 11 26  1  0
 11 27  1  0
 16 28  1  0
 16 29  1  0
 17 30  1  0
 17 31  1  0
 18 32  1  0
 18 33  1  0
 19 34  1  0
 19 35  1  0
 20 36  1  1
 21 37  1  0
M  ISO  8  22  14  23  14  24  14  25  14  28  13  29  13  30  13  31  13
M  ISO  6  32  13  33  13  34  13  35  13  36  13  37   3
M  END
>  <minimizedAffinity>  (1) 
-5.25037527

>  <minimizedRMSD>  (1) 
0.2111305

$$$$
