
     RDKit          3D

 29 30  0  0  0  0  0  0  0  0999 V2000
   37.8060   23.2410   33.7820 C   0  0  0  0  0  0  0  0  0  0  0  0
   38.2470   22.9160   35.0660 C   0  0  0  0  0  0  0  0  0  0  0  0
   38.7120   24.0820   35.5940 N   0  0  0  0  0  0  0  0  0  0  0  0
   38.5480   25.0510   34.6530 C   0  0  0  0  0  0  0  0  0  0  0  0
   38.0010   24.5630   33.5500 N   0  0  0  0  0  0  0  0  0  0  0  0
   37.2590   20.1070   31.8270 C   0  0  0  0  0  0  0  0  0  0  0  0
   37.8270   21.0200   32.7190 C   0  0  0  0  0  0  0  0  0  0  0  0
   37.2250   22.2750   32.8560 C   0  0  0  0  0  0  0  0  0  0  0  0
   36.0980   22.5410   32.0990 N   0  0  0  0  0  0  0  0  0  0  0  0
   35.5920   21.6240   31.2550 C   0  0  0  0  0  0  0  0  0  0  0  0
   36.1540   20.4290   31.1150 N   0  0  0  0  0  0  0  0  0  0  0  0
   38.9360   26.4890   34.8400 C   0  0  0  0  0  0  0  0  0  0  0  0
   40.4190   26.6690   34.7600 C   0  0  0  0  0  0  0  0  0  0  0  0
   38.3800   27.0470   36.1120 C   0  0  0  0  0  0  0  0  0  0  0  0
   38.3070   27.2370   33.6600 C   0  0  0  0  0  0  0  0  0  0  0  0
   38.2238   21.9279   35.5488 H   0  0  0  0  0  0  0  0  0  0  0  0
   37.7705   25.0819   32.6907 H   0  0  0  0  0  0  0  0  0  0  0  0
   37.7156   19.1141   31.7018 H   0  0  0  0  0  0  0  0  0  0  0  0
   38.7246   20.7586   33.2987 H   0  0  0  0  0  0  0  0  0  0  0  0
   34.6941   21.8690   30.6686 H   0  0  0  0  0  0  0  0  0  0  0  0
   40.8375   26.7198   35.7760 H   0  0  0  0  0  0  0  0  0  0  0  0
   40.8632   25.8182   34.2226 H   0  0  0  0  0  0  0  0  0  0  0  0
   40.6467   27.6014   34.2226 H   0  0  0  0  0  0  0  0  0  0  0  0
   38.8661   26.5592   36.9698 H   0  0  0  0  0  0  0  0  0  0  0  0
   38.5688   28.1300   36.1507 H   0  0  0  0  0  0  0  0  0  0  0  0
   37.2963   26.8621   36.1507 H   0  0  0  0  0  0  0  0  0  0  0  0
   37.6424   28.0273   34.0391 H   0  0  0  0  0  0  0  0  0  0  0  0
   39.1009   27.6884   33.0468 H   0  0  0  0  0  0  0  0  0  0  0  0
   37.7261   26.5323   33.0468 H   0  0  0  0  0  0  0  0  0  0  0  0
  1  2  2  0
  2  3  1  0
  4 12  1  0
  4  3  2  0
  5  1  1  0
  5  4  1  0
  6  7  2  0
  7  8  1  0
  8  1  1  0
  9  8  2  0
 10  9  1  0
 11 10  2  0
 11  6  1  0
 12 14  1  0
 13 12  1  0
 15 12  1  0
  2 16  1  0
  5 17  1  0
  6 18  1  0
  7 19  1  0
 10 20  1  0
 13 21  1  0
 13 22  1  0
 13 23  1  0
 14 24  1  0
 14 25  1  0
 14 26  1  0
 15 27  1  0
 15 28  1  0
 15 29  1  0
M  ISO  8  16  14  17   9  18  14  19  14  20  14  21   8  22   8  23   8
M  ISO  6  24   8  25   8  26   8  27   8  28   8  29   8
M  END
>  <minimizedAffinity>  (1) 
-3.89223266

>  <minimizedRMSD>  (1) 
5.90562725

$$$$
