
     RDKit          3D

 26 27  0  0  0  0  0  0  0  0999 V2000
   38.0410   24.5030   34.3680 C   0  0  0  0  0  0  0  0  0  0  0  0
   38.0050   25.7530   34.9890 C   0  0  0  0  0  0  0  0  0  0  0  0
   38.0920   25.4920   36.3160 N   0  0  0  0  0  0  0  0  0  0  0  0
   38.1760   24.1470   36.4660 C   0  0  0  0  0  0  0  0  0  0  0  0
   38.1450   23.5370   35.2950 N   0  0  0  0  0  0  0  0  0  0  0  0
   37.3270   22.9710   31.0390 C   0  0  0  0  0  0  0  0  0  0  0  0
   37.3800   23.1370   32.4250 C   0  0  0  0  0  0  0  0  0  0  0  0
   37.9720   24.3050   32.9230 C   0  0  0  0  0  0  0  0  0  0  0  0
   38.4720   25.2250   32.0250 N   0  0  0  0  0  0  0  0  0  0  0  0
   38.3980   25.0190   30.7090 C   0  0  0  0  0  0  0  0  0  0  0  0
   37.8280   23.8980   30.2160 N   0  0  0  0  0  0  0  0  0  0  0  0
   38.2850   23.4690   37.7870 C   0  0  0  0  0  0  0  0  0  0  0  0
   39.7070   22.8990   37.8440 C   0  0  0  0  0  0  0  0  0  0  0  0
   38.0590   24.3900   38.9390 C   0  0  0  0  0  0  0  0  0  0  0  0
   37.9236   26.7376   34.5053 H   0  0  0  0  0  0  0  0  0  0  0  0
   38.1914   22.5220   35.1263 H   0  0  0  0  0  0  0  0  0  0  0  0
   36.8665   22.0647   30.6187 H   0  0  0  0  0  0  0  0  0  0  0  0
   36.9699   22.3748   33.1039 H   0  0  0  0  0  0  0  0  0  0  0  0
   38.8059   25.7708   30.0173 H   0  0  0  0  0  0  0  0  0  0  0  0
   37.5084   22.6947   37.8732 H   0  0  0  0  0  0  0  0  0  0  0  0
   40.0113   22.7770   38.8940 H   0  0  0  0  0  0  0  0  0  0  0  0
   39.7308   21.9218   37.3394 H   0  0  0  0  0  0  0  0  0  0  0  0
   40.3992   23.5892   37.3394 H   0  0  0  0  0  0  0  0  0  0  0  0
   38.1943   23.8387   39.8812 H   0  0  0  0  0  0  0  0  0  0  0  0
   38.7803   25.2192   38.8925 H   0  0  0  0  0  0  0  0  0  0  0  0
   37.0358   24.7911   38.8925 H   0  0  0  0  0  0  0  0  0  0  0  0
  1  2  2  0
  1  5  1  0
  2  3  1  0
  3  4  2  0
  4 12  1  0
  5  4  1  0
  6  7  2  0
  7  8  1  0
  8  1  1  0
  9  8  2  0
 10  9  1  0
 11 10  2  0
 11  6  1  0
 12 13  1  0
 12 14  1  0
  2 15  1  0
  5 16  1  0
  6 17  1  0
  7 18  1  0
 10 19  1  0
 12 20  1  0
 13 21  1  0
 13 22  1  0
 13 23  1  0
 14 24  1  0
 14 25  1  0
 14 26  1  0
M  ISO  8  15  14  16   9  17  14  18  14  19  14  20   8  21   8  22   8
M  ISO  4  23   8  24   8  25   8  26   8
M  END
>  <minimizedAffinity>  (1) 
-3.75706625

>  <minimizedRMSD>  (1) 
4.97077322

$$$$
