
     RDKit          3D

 24 26  0  0  0  0  0  0  0  0999 V2000
   38.3830   22.8210   34.3810 C   0  0  0  0  0  0  0  0  0  0  0  0
   37.8800   21.7710   33.5920 C   0  0  0  0  0  0  0  0  0  0  0  0
   37.1420   22.3770   32.6260 N   0  0  0  0  0  0  0  0  0  0  0  0
   37.2180   23.7100   32.8480 C   0  0  0  0  0  0  0  0  0  0  0  0
   37.9600   24.0190   33.9010 N   0  0  0  0  0  0  0  0  0  0  0  0
   39.6470   22.8670   37.8930 C   0  0  0  0  0  0  0  0  0  0  0  0
   38.8070   23.0740   36.7860 C   0  0  0  0  0  0  0  0  0  0  0  0
   39.2440   22.6160   35.5530 C   0  0  0  0  0  0  0  0  0  0  0  0
   40.4590   21.9910   35.4780 N   0  0  0  0  0  0  0  0  0  0  0  0
   41.2270   21.8140   36.5550 C   0  0  0  0  0  0  0  0  0  0  0  0
   40.8250   22.2490   37.7520 N   0  0  0  0  0  0  0  0  0  0  0  0
   36.5410   24.6860   31.9990 C   0  0  0  0  0  0  0  0  0  0  0  0
   36.6430   26.0710   32.0110 C   0  0  0  0  0  0  0  0  0  0  0  0
   35.8520   26.6430   31.0620 C   0  0  0  0  0  0  0  0  0  0  0  0
   35.2520   25.6030   30.4560 N   0  0  0  0  0  0  0  0  0  0  0  0
   35.6590   24.4690   31.0060 N   0  0  0  0  0  0  0  0  0  0  0  0
   38.0479   20.6924   33.7278 H   0  0  0  0  0  0  0  0  0  0  0  0
   38.1691   24.9568   34.2722 H   0  0  0  0  0  0  0  0  0  0  0  0
   39.3324   23.2172   38.8872 H   0  0  0  0  0  0  0  0  0  0  0  0
   37.8371   23.5815   36.8940 H   0  0  0  0  0  0  0  0  0  0  0  0
   42.1978   21.3063   36.4561 H   0  0  0  0  0  0  0  0  0  0  0  0
   37.2845   26.6367   32.7027 H   0  0  0  0  0  0  0  0  0  0  0  0
   35.7310   27.7137   30.8409 H   0  0  0  0  0  0  0  0  0  0  0  0
   34.5776   25.6772   29.6810 H   0  0  0  0  0  0  0  0  0  0  0  0
  1  8  1  0
  2  1  2  0
  3  4  2  0
  3  2  1  0
  4  5  1  0
  5  1  1  0
  7  6  2  0
  8  7  1  0
  9  8  2  0
  9 10  1  0
 10 11  2  0
 11  6  1  0
 12 13  1  0
 12  4  1  0
 14 13  2  0
 15 16  1  0
 15 14  1  0
 16 12  2  0
  2 17  1  0
  5 18  1  0
  6 19  1  0
  7 20  1  0
 10 21  1  0
 13 22  1  0
 14 23  1  0
 15 24  1  0
M  ISO  8  17  14  18   9  19  14  20  14  21  14  22  14  23  14  24   9
M  END
>  <minimizedAffinity>  (1) 
-4.20226479

>  <minimizedRMSD>  (1) 
6.15776873

$$$$
