
     RDKit          3D

 19 20  0  0  0  0  0  0  0  0999 V2000
   40.2440   22.5480   36.7850 C   0  0  0  0  0  0  0  0  0  0  0  0
   39.7070   23.4820   35.9030 C   0  0  0  0  0  0  0  0  0  0  0  0
   38.7070   24.0940   36.5890 N   0  0  0  0  0  0  0  0  0  0  0  0
   38.6710   23.5360   37.8140 C   0  0  0  0  0  0  0  0  0  0  0  0
   39.5900   22.5880   37.9780 N   0  0  0  0  0  0  0  0  0  0  0  0
   37.7780   23.8580   38.8900 N   0  0  0  0  0  0  0  0  0  0  0  0
   43.0320   20.1000   37.1610 C   0  0  0  0  0  0  0  0  0  0  0  0
   41.9770   20.9440   37.5200 C   0  0  0  0  0  0  0  0  0  0  0  0
   41.3610   21.6440   36.4720 C   0  0  0  0  0  0  0  0  0  0  0  0
   41.8030   21.4800   35.1700 N   0  0  0  0  0  0  0  0  0  0  0  0
   42.8320   20.6420   34.9180 C   0  0  0  0  0  0  0  0  0  0  0  0
   43.4400   19.9600   35.8940 N   0  0  0  0  0  0  0  0  0  0  0  0
   40.0253   23.6820   34.8692 H   0  0  0  0  0  0  0  0  0  0  0  0
   39.7662   22.0155   38.8159 H   0  0  0  0  0  0  0  0  0  0  0  0
   37.8502   23.3565   39.7868 H   0  0  0  0  0  0  0  0  0  0  0  0
   37.0647   24.5906   38.7656 H   0  0  0  0  0  0  0  0  0  0  0  0
   43.5458   19.5298   37.9490 H   0  0  0  0  0  0  0  0  0  0  0  0
   41.6488   21.0529   38.5642 H   0  0  0  0  0  0  0  0  0  0  0  0
   43.1791   20.5173   33.8817 H   0  0  0  0  0  0  0  0  0  0  0  0
  1  5  1  0
  2  3  1  0
  2  1  2  0
  3  4  2  0
  4  5  1  0
  4  6  1  0
  7  8  2  0
  9  1  1  0
  9  8  1  0
 10  9  2  0
 11 10  1  0
 11 12  2  0
 12  7  1  0
  2 13  1  0
  5 14  1  0
  6 15  1  0
  6 16  1  0
  7 17  1  0
  8 18  1  0
 11 19  1  0
M  ISO  5  13  14  14   9  17  14  18  14  19  14
M  END
>  <minimizedAffinity>  (1) 
-3.4414947

>  <minimizedRMSD>  (1) 
1.04770637

$$$$
