
     RDKit          3D

 27 29  0  0  0  0  0  0  0  0999 V2000
   38.0930   25.0250   35.1550 C   0  0  0  0  0  0  0  0  0  0  0  0
   37.9740   24.5280   33.8420 C   0  0  0  0  0  0  0  0  0  0  0  0
   37.4170   25.5390   33.1180 N   0  0  0  0  0  0  0  0  0  0  0  0
   37.2260   26.5600   33.9670 C   0  0  0  0  0  0  0  0  0  0  0  0
   37.6200   26.2900   35.2060 N   0  0  0  0  0  0  0  0  0  0  0  0
   38.5350   23.5680   38.5640 C   0  0  0  0  0  0  0  0  0  0  0  0
   38.0010   24.3100   37.5010 C   0  0  0  0  0  0  0  0  0  0  0  0
   38.6510   24.2480   36.2680 C   0  0  0  0  0  0  0  0  0  0  0  0
   39.7650   23.4760   36.1490 N   0  0  0  0  0  0  0  0  0  0  0  0
   40.2450   22.7810   37.1860 C   0  0  0  0  0  0  0  0  0  0  0  0
   39.6300   22.8310   38.3830 N   0  0  0  0  0  0  0  0  0  0  0  0
   36.6400   27.8380   33.5640 C   0  0  0  0  0  0  0  0  0  0  0  0
   35.9570   28.7810   34.3380 C   0  0  0  0  0  0  0  0  0  0  0  0
   35.5680   29.8330   33.5880 C   0  0  0  0  0  0  0  0  0  0  0  0
   35.9990   29.5570   32.3550 N   0  0  0  0  0  0  0  0  0  0  0  0
   36.6310   28.3880   32.3250 N   0  0  0  0  0  0  0  0  0  0  0  0
   35.8080   30.4180   31.1850 C   0  0  0  0  0  0  0  0  0  0  0  0
   36.4820   31.6020   31.2860 F   0  0  0  0  0  0  0  0  0  0  0  0
   34.4440   30.6640   30.9910 F   0  0  0  0  0  0  0  0  0  0  0  0
   36.1990   29.7150   30.0360 F   0  0  0  0  0  0  0  0  0  0  0  0
   38.2688   23.5328   33.4779 H   0  0  0  0  0  0  0  0  0  0  0  0
   37.5749   26.9099   36.0274 H   0  0  0  0  0  0  0  0  0  0  0  0
   38.0485   23.5944   39.5502 H   0  0  0  0  0  0  0  0  0  0  0  0
   37.0971   24.9224   37.6350 H   0  0  0  0  0  0  0  0  0  0  0  0
   41.1475   22.1649   37.0604 H   0  0  0  0  0  0  0  0  0  0  0  0
   35.7625   28.6788   35.4158 H   0  0  0  0  0  0  0  0  0  0  0  0
   35.0157   30.7244   33.9203 H   0  0  0  0  0  0  0  0  0  0  0  0
  1  5  1  0
  1  8  1  0
  2  1  2  0
  3  2  1  0
  3  4  2  0
  4  5  1  0
  7  6  2  0
  8  7  1  0
  9  8  2  0
  9 10  1  0
 10 11  2  0
 11  6  1  0
 12  4  1  0
 12 13  1  0
 14 13  2  0
 15 14  1  0
 16 15  1  0
 16 12  2  0
 17 18  1  0
 17 15  1  0
 19 17  1  0
 20 17  1  0
  2 21  1  0
  5 22  1  0
  6 23  1  0
  7 24  1  0
 10 25  1  0
 13 26  1  0
 14 27  1  0
M  ISO  7  21  14  22   9  23  14  24  14  25  14  26  14  27  14
M  END
>  <minimizedAffinity>  (1) 
-4.94141102

>  <minimizedRMSD>  (1) 
3.59802222

$$$$
