
     RDKit          3D

 30 32  0  0  0  0  0  0  0  0999 V2000
   38.0720   24.8230   34.7770 C   0  0  0  0  0  0  0  0  0  0  0  0
   38.0240   24.0860   33.5690 C   0  0  0  0  0  0  0  0  0  0  0  0
   37.6170   24.9860   32.6330 N   0  0  0  0  0  0  0  0  0  0  0  0
   37.4430   26.1650   33.2630 C   0  0  0  0  0  0  0  0  0  0  0  0
   37.7080   26.1030   34.5580 N   0  0  0  0  0  0  0  0  0  0  0  0
   38.1240   24.0070   38.4200 C   0  0  0  0  0  0  0  0  0  0  0  0
   37.7650   24.5630   37.1910 C   0  0  0  0  0  0  0  0  0  0  0  0
   38.4690   24.2270   36.0530 C   0  0  0  0  0  0  0  0  0  0  0  0
   39.4990   23.3510   36.1870 N   0  0  0  0  0  0  0  0  0  0  0  0
   39.8360   22.8230   37.3700 C   0  0  0  0  0  0  0  0  0  0  0  0
   39.1530   23.1490   38.4770 N   0  0  0  0  0  0  0  0  0  0  0  0
   37.0030   27.3830   32.5730 C   0  0  0  0  0  0  0  0  0  0  0  0
   37.6360   28.0840   31.5530 C   0  0  0  0  0  0  0  0  0  0  0  0
   36.8850   29.1670   31.1920 C   0  0  0  0  0  0  0  0  0  0  0  0
   35.7980   29.1290   31.9870 N   0  0  0  0  0  0  0  0  0  0  0  0
   35.8650   28.0820   32.7990 N   0  0  0  0  0  0  0  0  0  0  0  0
   34.7620   30.1480   31.8800 C   0  0  0  0  0  0  0  0  0  0  0  0
   33.5380   29.7560   32.7030 C   0  0  0  0  0  0  0  0  0  0  0  0
   38.2626   23.0225   33.4202 H   0  0  0  0  0  0  0  0  0  0  0  0
   37.6491   26.8656   35.2479 H   0  0  0  0  0  0  0  0  0  0  0  0
   37.5686   24.2699   39.3323 H   0  0  0  0  0  0  0  0  0  0  0  0
   36.9225   25.2676   37.1299 H   0  0  0  0  0  0  0  0  0  0  0  0
   40.6778   22.1178   37.4344 H   0  0  0  0  0  0  0  0  0  0  0  0
   38.6005   27.8073   31.1023 H   0  0  0  0  0  0  0  0  0  0  0  0
   37.1184   29.9117   30.4168 H   0  0  0  0  0  0  0  0  0  0  0  0
   35.1564   31.1053   32.2516 H   0  0  0  0  0  0  0  0  0  0  0  0
   34.4651   30.2434   30.8251 H   0  0  0  0  0  0  0  0  0  0  0  0
   33.7765   29.8324   33.7741 H   0  0  0  0  0  0  0  0  0  0  0  0
   32.7037   30.4319   32.4640 H   0  0  0  0  0  0  0  0  0  0  0  0
   33.2516   28.7212   32.4640 H   0  0  0  0  0  0  0  0  0  0  0  0
  1  8  1  0
  2  1  2  0
  3  4  2  0
  3  2  1  0
  4  5  1  0
  5  1  1  0
  6 11  2  0
  7  6  1  0
  8  9  1  0
  8  7  2  0
  9 10  2  0
 10 11  1  0
 12 16  2  0
 12  4  1  0
 13 12  1  0
 14 13  2  0
 14 15  1  0
 15 16  1  0
 17 15  1  0
 17 18  1  0
  2 19  1  0
  5 20  1  0
  6 21  1  0
  7 22  1  0
 10 23  1  0
 13 24  1  0
 14 25  1  0
 17 26  1  0
 17 27  1  0
 18 28  1  0
 18 29  1  0
 18 30  1  0
M  ISO  8  19  14  20   9  21  14  22  14  23  14  24  14  25  14  26   8
M  ISO  4  27   8  28   8  29   8  30   8
M  END
>  <minimizedAffinity>  (1) 
-4.41932535

>  <minimizedRMSD>  (1) 
3.04579067

$$$$
