
     RDKit          3D

 42 44  0  0  1  0  0  0  0  0999 V2000
   39.8960   22.6610   37.4020 C   0  0  0  0  0  0  0  0  0  0  0  0
   39.2770   23.4600   38.3640 C   0  0  0  0  0  0  0  0  0  0  0  0
   37.9080   23.6730   38.2680 C   0  0  0  0  0  0  0  0  0  0  0  0
   37.2400   23.0860   37.2330 N   0  0  0  0  0  0  0  0  0  0  0  0
   37.8620   22.3210   36.3200 C   0  0  0  0  0  0  0  0  0  0  0  0
   39.1960   22.1100   36.4090 N   0  0  0  0  0  0  0  0  0  0  0  0
   37.1670   21.7130   35.2460 N   0  0  0  0  0  0  0  0  0  0  0  0
   37.7560   21.8440   34.0540 C   0  0  0  0  0  0  0  0  0  0  0  0
   37.1500   21.2820   32.9530 C   0  0  0  0  0  0  0  0  0  0  0  0
   35.9520   20.6170   33.2000 C   0  0  0  0  0  0  0  0  0  0  0  0
   35.2140   19.9840   32.1520 N   0  0  0  0  0  0  0  0  0  0  0  0
   35.3950   20.5080   34.4160 N   0  0  0  0  0  0  0  0  0  0  0  0
   36.0110   21.0700   35.4770 C   0  0  0  0  0  0  0  0  0  0  0  0
   35.5760   21.0250   36.6410 O   0  0  0  0  0  0  0  0  0  0  0  0
   37.6430   21.3320   31.6290 N   0  0  0  0  0  0  0  0  0  0  0  0
   37.7050   22.4350   30.7230 C   0  0  0  0  0  0  0  0  0  0  0  0
   39.1070   22.4340   30.1300 C   0  0  0  0  0  0  0  0  0  0  0  0
   39.2030   21.2190   29.2320 C   0  0  0  0  0  0  0  0  0  0  0  0
   38.2180   20.1620   29.6410 C   0  0  0  0  0  0  0  0  0  0  0  0
   38.1550   20.0720   31.1280 C   0  0  1  0  0  0  0  0  0  0  0  0
   39.3900   19.5790   31.7800 C   0  0  0  0  0  0  0  0  0  0  0  0
   39.3910   18.0430   31.7740 C   0  0  0  0  0  0  0  0  0  0  0  0
   40.9797   22.4824   37.4635 H   0  0  0  0  0  0  0  0  0  0  0  0
   39.8603   23.9111   39.1802 H   0  0  0  0  0  0  0  0  0  0  0  0
   37.3783   24.2959   39.0038 H   0  0  0  0  0  0  0  0  0  0  0  0
   38.7058   22.3898   33.9543 H   0  0  0  0  0  0  0  0  0  0  0  0
   34.3304   19.4992   32.3645 H   0  0  0  0  0  0  0  0  0  0  0  0
   35.5658   20.0127   31.1844 H   0  0  0  0  0  0  0  0  0  0  0  0
   36.9561   22.3141   29.9264 H   0  0  0  0  0  0  0  0  0  0  0  0
   37.4935   23.3835   31.2384 H   0  0  0  0  0  0  0  0  0  0  0  0
   39.2710   23.3509   29.5449 H   0  0  0  0  0  0  0  0  0  0  0  0
   39.8697   22.3999   30.9219 H   0  0  0  0  0  0  0  0  0  0  0  0
   40.2203   20.8053   29.2957 H   0  0  0  0  0  0  0  0  0  0  0  0
   38.9738   21.5286   28.2016 H   0  0  0  0  0  0  0  0  0  0  0  0
   37.2231   20.4200   29.2491 H   0  0  0  0  0  0  0  0  0  0  0  0
   38.5392   19.1920   29.2337 H   0  0  0  0  0  0  0  0  0  0  0  0
   37.4545   19.2725   31.4112 H   0  0  0  0  0  0  0  0  0  0  0  0
   40.2681   19.9488   31.2303 H   0  0  0  0  0  0  0  0  0  0  0  0
   39.4284   19.9427   32.8174 H   0  0  0  0  0  0  0  0  0  0  0  0
   39.3912   17.6723   32.8097 H   0  0  0  0  0  0  0  0  0  0  0  0
   38.4931   17.6778   31.2540 H   0  0  0  0  0  0  0  0  0  0  0  0
   40.2894   17.6789   31.2540 H   0  0  0  0  0  0  0  0  0  0  0  0
  1  2  2  0
  3  2  1  0
  4  3  2  0
  5  6  2  0
  5  4  1  0
  6  1  1  0
  7 13  1  0
  7  5  1  0
  8  7  1  0
  9 10  1  0
  9  8  2  0
 10 12  2  0
 11 10  1  0
 12 13  1  0
 13 14  2  0
 15  9  1  0
 16 15  1  0
 17 16  1  0
 18 19  1  0
 18 17  1  0
 19 20  1  0
 20 15  1  0
 20 21  1  0
 22 21  1  0
  1 23  1  0
  2 24  1  0
  3 25  1  0
  8 26  1  0
 11 27  1  0
 11 28  1  0
 16 29  1  0
 16 30  1  0
 17 31  1  0
 17 32  1  0
 18 33  1  0
 18 34  1  0
 19 35  1  0
 19 36  1  0
 20 37  1  6
 21 38  1  0
 21 39  1  0
 22 40  1  0
 22 41  1  0
 22 42  1  0
M  ISO  8  23  14  24  14  25  14  26  14  29  13  30  13  31  13  32  13
M  ISO  8  33  13  34  13  35  13  36  13  37  13  38   8  39   8  40   8
M  ISO  2  41   8  42   8
M  END
>  <minimizedAffinity>  (1) 
-5.24393129

>  <minimizedRMSD>  (1) 
0.863337576

$$$$
