
     RDKit          3D

 40 43  0  0  1  0  0  0  0  0999 V2000
   37.6790   25.9380   34.6970 C   0  0  0  0  0  0  0  0  0  0  0  0
   37.1000   27.1510   35.0690 C   0  0  0  0  0  0  0  0  0  0  0  0
   36.6170   27.8320   34.0040 C   0  0  0  0  0  0  0  0  0  0  0  0
   36.8910   27.0510   32.9680 N   0  0  0  0  0  0  0  0  0  0  0  0
   37.5090   25.9480   33.3630 N   0  0  0  0  0  0  0  0  0  0  0  0
   39.6230   23.3880   36.2090 C   0  0  0  0  0  0  0  0  0  0  0  0
   38.6730   23.6090   37.2330 C   0  0  0  0  0  0  0  0  0  0  0  0
   37.8590   24.5840   36.7580 N   0  0  0  0  0  0  0  0  0  0  0  0
   38.3090   24.9130   35.5300 C   0  0  0  0  0  0  0  0  0  0  0  0
   39.3620   24.2120   35.1790 N   0  0  0  0  0  0  0  0  0  0  0  0
   42.0740   20.9420   37.5910 C   0  0  0  0  0  0  0  0  0  0  0  0
   41.0230   21.8850   37.5550 C   0  0  0  0  0  0  0  0  0  0  0  0
   40.7070   22.4030   36.3000 C   0  0  0  0  0  0  0  0  0  0  0  0
   41.4050   21.9880   35.1910 N   0  0  0  0  0  0  0  0  0  0  0  0
   42.3860   21.0880   35.3170 C   0  0  0  0  0  0  0  0  0  0  0  0
   42.7180   20.5740   36.4820 N   0  0  0  0  0  0  0  0  0  0  0  0
   36.6350   27.1970   31.5510 C   0  0  1  0  0  0  0  0  0  0  0  0
   37.9690   27.2180   30.8000 C   0  0  0  0  0  0  0  0  0  0  0  0
   35.7490   26.1430   31.0330 C   0  0  0  0  0  0  0  0  0  0  0  0
   36.2040   24.7700   31.0380 C   0  0  0  0  0  0  0  0  0  0  0  0
   35.3750   23.8140   31.5120 C   0  0  0  0  0  0  0  0  0  0  0  0
   35.6840   22.4890   31.5690 C   0  0  0  0  0  0  0  0  0  0  0  0
   36.9930   22.2170   31.0660 C   0  0  0  0  0  0  0  0  0  0  0  0
   37.6600   23.8690   30.5620 S   0  0  0  0  0  0  0  0  0  0  0  0
   37.0427   27.5119   36.1065 H   0  0  0  0  0  0  0  0  0  0  0  0
   36.1126   28.8095   33.9989 H   0  0  0  0  0  0  0  0  0  0  0  0
   38.6083   23.0995   38.2057 H   0  0  0  0  0  0  0  0  0  0  0  0
   39.8832   24.2796   34.2932 H   0  0  0  0  0  0  0  0  0  0  0  0
   42.3681   20.5012   38.5549 H   0  0  0  0  0  0  0  0  0  0  0  0
   40.4854   22.1926   38.4640 H   0  0  0  0  0  0  0  0  0  0  0  0
   42.9329   20.7671   34.4181 H   0  0  0  0  0  0  0  0  0  0  0  0
   36.1070   28.1484   31.3895 H   0  0  0  0  0  0  0  0  0  0  0  0
   38.7971   27.2310   31.5239 H   0  0  0  0  0  0  0  0  0  0  0  0
   38.0483   26.3210   30.1683 H   0  0  0  0  0  0  0  0  0  0  0  0
   38.0200   28.1171   30.1683 H   0  0  0  0  0  0  0  0  0  0  0  0
   35.5196   26.4012   29.9886 H   0  0  0  0  0  0  0  0  0  0  0  0
   34.9061   26.1407   31.7397 H   0  0  0  0  0  0  0  0  0  0  0  0
   34.3851   24.1267   31.8759 H   0  0  0  0  0  0  0  0  0  0  0  0
   35.0038   21.7169   31.9577 H   0  0  0  0  0  0  0  0  0  0  0  0
   37.4945   21.2406   30.9939 H   0  0  0  0  0  0  0  0  0  0  0  0
  1  2  1  0
  1  9  1  0
  3  2  2  0
  4  5  1  0
  4  3  1  0
  5  1  2  0
  6 13  1  0
  6  7  2  0
  8  7  1  0
  9  8  2  0
 10  9  1  0
 10  6  1  0
 12 11  2  0
 13 12  1  0
 14 15  1  0
 14 13  2  0
 15 16  2  0
 16 11  1  0
 17  4  1  0
 18 17  1  0
 19 20  1  0
 19 17  1  0
 20 21  2  0
 21 22  1  0
 23 22  2  0
 24 20  1  0
 24 23  1  0
  2 25  1  0
  3 26  1  0
  7 27  1  0
 10 28  1  0
 11 29  1  0
 12 30  1  0
 15 31  1  0
 17 32  1  1
 18 33  1  0
 18 34  1  0
 18 35  1  0
 19 36  1  0
 19 37  1  0
 21 38  1  0
 22 39  1  0
 23 40  1  0
M  ISO  8  25  14  26  14  27  14  28   9  29  14  30  14  31  14  32   8
M  ISO  8  33   8  34   8  35   8  36   8  37   8  38  14  39  14  40  14
M  END
>  <minimizedAffinity>  (1) 
-5.43512106

>  <minimizedRMSD>  (1) 
0.653432548

$$$$
