
     RDKit          3D

 49 53  0  0  1  0  0  0  0  0999 V2000
   36.0170   23.9790   31.4250 C   0  0  0  0  0  0  0  0  0  0  0  0
   34.9480   24.8330   31.1530 C   0  0  0  0  0  0  0  0  0  0  0  0
   35.3420   26.1110   30.9440 C   0  0  0  0  0  0  0  0  0  0  0  0
   36.6730   26.0490   31.0880 N   0  0  0  0  0  0  0  0  0  0  0  0
   37.0940   24.8030   31.3720 N   0  0  0  0  0  0  0  0  0  0  0  0
   36.6100   20.5080   31.8790 C   0  0  0  0  0  0  0  0  0  0  0  0
   35.2890   20.5880   32.3150 C   0  0  0  0  0  0  0  0  0  0  0  0
   34.9420   21.8940   32.1870 N   0  0  0  0  0  0  0  0  0  0  0  0
   36.0000   22.5420   31.7030 C   0  0  0  0  0  0  0  0  0  0  0  0
   37.0230   21.7380   31.5050 N   0  0  0  0  0  0  0  0  0  0  0  0
   37.5030   16.8950   31.8520 C   0  0  0  0  0  0  0  0  0  0  0  0
   36.7310   18.0610   31.8920 C   0  0  0  0  0  0  0  0  0  0  0  0
   37.4140   19.2730   31.8380 C   0  0  0  0  0  0  0  0  0  0  0  0
   38.7800   19.2780   31.7490 N   0  0  0  0  0  0  0  0  0  0  0  0
   39.4610   18.1300   31.7160 C   0  0  0  0  0  0  0  0  0  0  0  0
   38.8310   16.9560   31.7670 N   0  0  0  0  0  0  0  0  0  0  0  0
   37.6830   27.0890   30.9880 C   0  0  1  0  0  0  0  0  0  0  0  0
   37.3840   27.9780   29.7960 C   0  0  0  0  0  0  0  0  0  0  0  0
   37.6960   27.9170   32.2360 C   0  0  0  0  0  0  0  0  0  0  0  0
   38.0160   27.1780   33.4570 C   0  0  0  0  0  0  0  0  0  0  0  0
   37.1760   26.6810   34.4260 C   0  0  0  0  0  0  0  0  0  0  0  0
   37.6340   25.9990   35.5270 C   0  0  0  0  0  0  0  0  0  0  0  0
   38.9930   25.7830   35.7040 C   0  0  0  0  0  0  0  0  0  0  0  0
   39.8510   26.2750   34.7410 C   0  0  0  0  0  0  0  0  0  0  0  0
   41.1880   26.0270   34.9770 C   0  0  0  0  0  0  0  0  0  0  0  0
   42.1200   26.4800   34.0700 C   0  0  0  0  0  0  0  0  0  0  0  0
   41.6930   27.1670   32.9570 C   0  0  0  0  0  0  0  0  0  0  0  0
   40.3540   27.4090   32.7320 C   0  0  0  0  0  0  0  0  0  0  0  0
   39.3910   26.9690   33.6180 C   0  0  0  0  0  0  0  0  0  0  0  0
   33.8992   24.5037   31.1128 H   0  0  0  0  0  0  0  0  0  0  0  0
   34.7202   26.9882   30.7121 H   0  0  0  0  0  0  0  0  0  0  0  0
   34.6595   19.7654   32.6852 H   0  0  0  0  0  0  0  0  0  0  0  0
   37.9508   21.9950   31.1389 H   0  0  0  0  0  0  0  0  0  0  0  0
   37.0065   15.9142   31.8913 H   0  0  0  0  0  0  0  0  0  0  0  0
   35.6340   18.0220   31.9629 H   0  0  0  0  0  0  0  0  0  0  0  0
   40.5585   18.1531   31.6457 H   0  0  0  0  0  0  0  0  0  0  0  0
   38.6681   26.6170   30.8585 H   0  0  0  0  0  0  0  0  0  0  0  0
   37.0519   28.9654   30.1492 H   0  0  0  0  0  0  0  0  0  0  0  0
   38.2929   28.0930   29.1872 H   0  0  0  0  0  0  0  0  0  0  0  0
   36.5903   27.5203   29.1872 H   0  0  0  0  0  0  0  0  0  0  0  0
   38.4449   28.7130   32.1112 H   0  0  0  0  0  0  0  0  0  0  0  0
   36.6732   28.3009   32.3645 H   0  0  0  0  0  0  0  0  0  0  0  0
   36.0927   26.8360   34.3148 H   0  0  0  0  0  0  0  0  0  0  0  0
   36.9189   25.6218   36.2729 H   0  0  0  0  0  0  0  0  0  0  0  0
   39.3735   25.2388   36.5810 H   0  0  0  0  0  0  0  0  0  0  0  0
   41.5041   25.4763   35.8752 H   0  0  0  0  0  0  0  0  0  0  0  0
   43.1920   26.2950   34.2332 H   0  0  0  0  0  0  0  0  0  0  0  0
   42.4353   27.5309   32.2313 H   0  0  0  0  0  0  0  0  0  0  0  0
   40.0482   27.9619   31.8315 H   0  0  0  0  0  0  0  0  0  0  0  0
  1  9  1  0
  2  1  1  0
  3  4  1  0
  3  2  2  0
  4  5  1  0
  5  1  2  0
  6  7  2  0
  8  7  1  0
  9  8  2  0
 10  9  1  0
 10  6  1  0
 11 12  2  0
 13  6  1  0
 13 12  1  0
 14 13  2  0
 15 14  1  0
 15 16  2  0
 16 11  1  0
 17  4  1  0
 17 19  1  0
 18 17  1  0
 19 20  1  0
 20 29  1  0
 20 21  2  0
 21 22  1  0
 22 23  2  0
 24 25  2  0
 24 23  1  0
 26 25  1  0
 27 26  2  0
 28 27  1  0
 28 29  2  0
 29 24  1  0
  2 30  1  0
  3 31  1  0
  7 32  1  0
 10 33  1  0
 11 34  1  0
 12 35  1  0
 15 36  1  0
 17 37  1  6
 18 38  1  0
 18 39  1  0
 18 40  1  0
 19 41  1  0
 19 42  1  0
 21 43  1  0
 22 44  1  0
 23 45  1  0
 25 46  1  0
 26 47  1  0
 27 48  1  0
 28 49  1  0
M  ISO  8  30  14  31  14  32  14  33   9  34  14  35  14  36  14  37   8
M  ISO  8  38   8  39   8  40   8  41   8  42   8  43  14  44  14  45  14
M  ISO  4  46  14  47  14  48  14  49  14
M  END
>  <minimizedAffinity>  (1) 
-5.83535719

>  <minimizedRMSD>  (1) 
5.62376451

$$$$
