
     RDKit          3D

 40 43  0  0  1  0  0  0  0  0999 V2000
   37.5870   26.0630   34.5960 C   0  0  0  0  0  0  0  0  0  0  0  0
   37.0320   27.2820   34.9310 C   0  0  0  0  0  0  0  0  0  0  0  0
   36.4930   27.9130   33.8580 C   0  0  0  0  0  0  0  0  0  0  0  0
   36.7230   27.0670   32.8490 N   0  0  0  0  0  0  0  0  0  0  0  0
   37.3600   25.9880   33.2720 N   0  0  0  0  0  0  0  0  0  0  0  0
   39.6770   23.6710   36.1860 C   0  0  0  0  0  0  0  0  0  0  0  0
   38.6250   23.7390   37.1140 C   0  0  0  0  0  0  0  0  0  0  0  0
   37.7480   24.6340   36.6120 N   0  0  0  0  0  0  0  0  0  0  0  0
   38.2620   25.0730   35.4420 C   0  0  0  0  0  0  0  0  0  0  0  0
   39.4200   24.5090   35.1620 N   0  0  0  0  0  0  0  0  0  0  0  0
   42.0260   21.1060   37.5250 C   0  0  0  0  0  0  0  0  0  0  0  0
   40.8640   21.9090   37.4240 C   0  0  0  0  0  0  0  0  0  0  0  0
   40.8470   22.8050   36.3560 C   0  0  0  0  0  0  0  0  0  0  0  0
   41.9160   22.8730   35.4740 N   0  0  0  0  0  0  0  0  0  0  0  0
   42.9700   22.0690   35.6560 C   0  0  0  0  0  0  0  0  0  0  0  0
   43.0310   21.2050   36.6530 N   0  0  0  0  0  0  0  0  0  0  0  0
   36.4010   27.1410   31.4510 C   0  0  1  0  0  0  0  0  0  0  0  0
   37.6900   27.2320   30.6250 C   0  0  0  0  0  0  0  0  0  0  0  0
   35.5770   26.0120   30.9890 C   0  0  0  0  0  0  0  0  0  0  0  0
   36.0800   24.6700   31.0070 C   0  0  0  0  0  0  0  0  0  0  0  0
   35.3700   23.6020   31.5710 C   0  0  0  0  0  0  0  0  0  0  0  0
   36.0660   22.4170   31.4620 C   0  0  0  0  0  0  0  0  0  0  0  0
   37.1990   22.7740   30.8290 N   0  0  0  0  0  0  0  0  0  0  0  0
   37.1970   24.0550   30.5760 N   0  0  0  0  0  0  0  0  0  0  0  0
   37.0274   27.6942   35.9509 H   0  0  0  0  0  0  0  0  0  0  0  0
   35.9868   28.8891   33.8259 H   0  0  0  0  0  0  0  0  0  0  0  0
   38.5344   23.1783   38.0560 H   0  0  0  0  0  0  0  0  0  0  0  0
   40.0072   24.6745   34.3321 H   0  0  0  0  0  0  0  0  0  0  0  0
   42.1024   20.3789   38.3469 H   0  0  0  0  0  0  0  0  0  0  0  0
   40.0318   21.8312   38.1392 H   0  0  0  0  0  0  0  0  0  0  0  0
   43.8132   22.1297   34.9522 H   0  0  0  0  0  0  0  0  0  0  0  0
   35.7971   28.0490   31.3065 H   0  0  0  0  0  0  0  0  0  0  0  0
   38.5553   27.2931   31.3013 H   0  0  0  0  0  0  0  0  0  0  0  0
   37.7828   26.3382   29.9906 H   0  0  0  0  0  0  0  0  0  0  0  0
   37.6563   28.1300   29.9906 H   0  0  0  0  0  0  0  0  0  0  0  0
   35.3067   26.2298   29.9452 H   0  0  0  0  0  0  0  0  0  0  0  0
   34.7744   25.9775   31.7404 H   0  0  0  0  0  0  0  0  0  0  0  0
   34.3805   23.6971   32.0421 H   0  0  0  0  0  0  0  0  0  0  0  0
   35.7666   21.4173   31.8097 H   0  0  0  0  0  0  0  0  0  0  0  0
   37.9608   22.1273   30.5792 H   0  0  0  0  0  0  0  0  0  0  0  0
  1  2  1  0
  1  9  1  0
  3  2  2  0
  4  5  1  0
  4  3  1  0
  5  1  2  0
  6 13  1  0
  6  7  2  0
  8  7  1  0
  9  8  2  0
 10  9  1  0
 10  6  1  0
 12 11  2  0
 13 12  1  0
 14 15  1  0
 14 13  2  0
 15 16  2  0
 16 11  1  0
 17  4  1  0
 18 17  1  0
 19 20  1  0
 19 17  1  0
 20 21  1  0
 22 21  2  0
 23 22  1  0
 24 23  1  0
 24 20  2  0
  2 25  1  0
  3 26  1  0
  7 27  1  0
 10 28  1  0
 11 29  1  0
 12 30  1  0
 15 31  1  0
 17 32  1  1
 18 33  1  0
 18 34  1  0
 18 35  1  0
 19 36  1  0
 19 37  1  0
 21 38  1  0
 22 39  1  0
 23 40  1  0
M  ISO  8  25  14  26  14  27  14  28   9  29  14  30  14  31  14  32   8
M  ISO  8  33   8  34   8  35   8  36   8  37   8  38  14  39  14  40   9
M  END
>  <minimizedAffinity>  (1) 
-5.33171844

>  <minimizedRMSD>  (1) 
0.738617837

$$$$
