
     RDKit          3D

 39 42  0  0  1  0  0  0  0  0999 V2000
   37.6530   25.9150   34.6390 C   0  0  0  0  0  0  0  0  0  0  0  0
   37.0250   27.0970   34.9790 C   0  0  0  0  0  0  0  0  0  0  0  0
   36.5620   27.7730   33.8990 C   0  0  0  0  0  0  0  0  0  0  0  0
   36.9130   26.9850   32.8630 N   0  0  0  0  0  0  0  0  0  0  0  0
   37.5430   25.9140   33.3000 N   0  0  0  0  0  0  0  0  0  0  0  0
   39.6350   23.4010   36.1710 C   0  0  0  0  0  0  0  0  0  0  0  0
   38.7110   23.6600   37.2010 C   0  0  0  0  0  0  0  0  0  0  0  0
   37.8780   24.6260   36.7230 N   0  0  0  0  0  0  0  0  0  0  0  0
   38.2900   24.9140   35.4910 C   0  0  0  0  0  0  0  0  0  0  0  0
   39.3460   24.1930   35.1310 N   0  0  0  0  0  0  0  0  0  0  0  0
   42.0510   20.9490   37.5930 C   0  0  0  0  0  0  0  0  0  0  0  0
   41.0150   21.8940   37.5440 C   0  0  0  0  0  0  0  0  0  0  0  0
   40.7080   22.4140   36.2930 C   0  0  0  0  0  0  0  0  0  0  0  0
   41.4150   21.9920   35.1760 N   0  0  0  0  0  0  0  0  0  0  0  0
   42.3890   21.0850   35.3160 C   0  0  0  0  0  0  0  0  0  0  0  0
   42.7100   20.5690   36.4840 N   0  0  0  0  0  0  0  0  0  0  0  0
   36.7010   27.1280   31.4420 C   0  0  1  0  0  0  0  0  0  0  0  0
   38.0660   27.1550   30.7340 C   0  0  0  0  0  0  0  0  0  0  0  0
   35.8580   26.0700   30.9020 C   0  0  0  0  0  0  0  0  0  0  0  0
   36.2590   24.6770   31.0430 C   0  0  0  0  0  0  0  0  0  0  0  0
   37.4320   24.0760   30.5650 C   0  0  0  0  0  0  0  0  0  0  0  0
   37.2480   22.3270   31.0190 S   0  0  0  0  0  0  0  0  0  0  0  0
   35.5570   22.6910   31.8090 C   0  0  0  0  0  0  0  0  0  0  0  0
   35.4420   23.8290   31.6340 N   0  0  0  0  0  0  0  0  0  0  0  0
   36.9126   27.4516   36.0142 H   0  0  0  0  0  0  0  0  0  0  0  0
   36.0278   28.7343   33.8740 H   0  0  0  0  0  0  0  0  0  0  0  0
   38.6700   23.1802   38.1900 H   0  0  0  0  0  0  0  0  0  0  0  0
   39.8438   24.2350   34.2303 H   0  0  0  0  0  0  0  0  0  0  0  0
   42.3308   20.5086   38.5614 H   0  0  0  0  0  0  0  0  0  0  0  0
   40.4740   22.2068   38.4492 H   0  0  0  0  0  0  0  0  0  0  0  0
   42.9416   20.7587   34.4226 H   0  0  0  0  0  0  0  0  0  0  0  0
   36.1678   28.0733   31.2628 H   0  0  0  0  0  0  0  0  0  0  0  0
   38.8688   27.1709   31.4859 H   0  0  0  0  0  0  0  0  0  0  0  0
   38.1705   26.2587   30.1049 H   0  0  0  0  0  0  0  0  0  0  0  0
   38.1350   28.0547   30.1049 H   0  0  0  0  0  0  0  0  0  0  0  0
   35.7564   26.2638   29.8240 H   0  0  0  0  0  0  0  0  0  0  0  0
   34.9469   26.1345   31.5150 H   0  0  0  0  0  0  0  0  0  0  0  0
   38.2704   24.5536   30.0368 H   0  0  0  0  0  0  0  0  0  0  0  0
   34.8641   21.9962   32.3061 H   0  0  0  0  0  0  0  0  0  0  0  0
  1  2  1  0
  1  9  1  0
  3  2  2  0
  4  5  1  0
  4  3  1  0
  5  1  2  0
  6 13  1  0
  6  7  2  0
  8  7  1  0
  9  8  2  0
 10  9  1  0
 10  6  1  0
 12 11  2  0
 13 12  1  0
 14 15  1  0
 14 13  2  0
 15 16  2  0
 16 11  1  0
 17  4  1  0
 18 17  1  0
 19 20  1  0
 19 17  1  0
 20 24  1  0
 21 22  1  0
 21 20  2  0
 22 23  1  0
 24 23  2  0
  2 25  1  0
  3 26  1  0
  7 27  1  0
 10 28  1  0
 11 29  1  0
 12 30  1  0
 15 31  1  0
 17 32  1  1
 18 33  1  0
 18 34  1  0
 18 35  1  0
 19 36  1  0
 19 37  1  0
 21 38  1  0
 23 39  1  0
M  ISO  8  25  14  26  14  27  14  28   9  29  14  30  14  31  14  32   8
M  ISO  7  33   8  34   8  35   8  36   8  37   8  38  14  39  14
M  END
>  <minimizedAffinity>  (1) 
-5.17037487

>  <minimizedRMSD>  (1) 
0.72539556

$$$$
