
     RDKit          3D

 40 43  0  0  1  0  0  0  0  0999 V2000
   37.7230   25.9660   34.7030 C   0  0  0  0  0  0  0  0  0  0  0  0
   37.0850   27.1230   35.0910 C   0  0  0  0  0  0  0  0  0  0  0  0
   36.6270   27.8320   34.0260 C   0  0  0  0  0  0  0  0  0  0  0  0
   36.9870   27.1040   32.9750 N   0  0  0  0  0  0  0  0  0  0  0  0
   37.6270   26.0150   33.3620 N   0  0  0  0  0  0  0  0  0  0  0  0
   39.6480   23.3750   36.2010 C   0  0  0  0  0  0  0  0  0  0  0  0
   38.6930   23.5780   37.1950 C   0  0  0  0  0  0  0  0  0  0  0  0
   37.8840   24.5600   36.7400 N   0  0  0  0  0  0  0  0  0  0  0  0
   38.3510   24.9170   35.5210 C   0  0  0  0  0  0  0  0  0  0  0  0
   39.4080   24.2230   35.1750 N   0  0  0  0  0  0  0  0  0  0  0  0
   42.0840   20.9260   37.5860 C   0  0  0  0  0  0  0  0  0  0  0  0
   41.0430   21.8720   37.5490 C   0  0  0  0  0  0  0  0  0  0  0  0
   40.7280   22.3870   36.2890 C   0  0  0  0  0  0  0  0  0  0  0  0
   41.4200   21.9670   35.1720 N   0  0  0  0  0  0  0  0  0  0  0  0
   42.3980   21.0640   35.2890 C   0  0  0  0  0  0  0  0  0  0  0  0
   42.7290   20.5500   36.4630 N   0  0  0  0  0  0  0  0  0  0  0  0
   36.7970   27.2880   31.5560 C   0  0  1  0  0  0  0  0  0  0  0  0
   38.1590   27.2520   30.8510 C   0  0  0  0  0  0  0  0  0  0  0  0
   35.8780   26.2990   30.9710 C   0  0  0  0  0  0  0  0  0  0  0  0
   36.1830   24.9210   31.0070 N   0  0  0  0  0  0  0  0  0  0  0  0
   35.2810   24.1160   31.5730 N   0  0  0  0  0  0  0  0  0  0  0  0
   35.6740   22.8420   31.5860 C   0  0  0  0  0  0  0  0  0  0  0  0
   36.9040   22.7660   31.0030 C   0  0  0  0  0  0  0  0  0  0  0  0
   37.1700   24.0740   30.6660 C   0  0  0  0  0  0  0  0  0  0  0  0
   36.9609   27.4360   36.1382 H   0  0  0  0  0  0  0  0  0  0  0  0
   36.0835   28.7883   34.0328 H   0  0  0  0  0  0  0  0  0  0  0  0
   38.6137   23.0468   38.1550 H   0  0  0  0  0  0  0  0  0  0  0  0
   39.9458   24.3065   34.3005 H   0  0  0  0  0  0  0  0  0  0  0  0
   42.3774   20.4845   38.5498 H   0  0  0  0  0  0  0  0  0  0  0  0
   40.5092   22.1872   38.4577 H   0  0  0  0  0  0  0  0  0  0  0  0
   42.9407   20.7402   34.3886 H   0  0  0  0  0  0  0  0  0  0  0  0
   36.3257   28.2705   31.4057 H   0  0  0  0  0  0  0  0  0  0  0  0
   38.9610   27.2308   31.6036 H   0  0  0  0  0  0  0  0  0  0  0  0
   38.2226   26.3519   30.2219 H   0  0  0  0  0  0  0  0  0  0  0  0
   38.2701   28.1475   30.2219 H   0  0  0  0  0  0  0  0  0  0  0  0
   35.7615   26.5673   29.9106 H   0  0  0  0  0  0  0  0  0  0  0  0
   34.9941   26.3712   31.6217 H   0  0  0  0  0  0  0  0  0  0  0  0
   35.1031   21.9964   31.9971 H   0  0  0  0  0  0  0  0  0  0  0  0
   37.5309   21.8767   30.8413 H   0  0  0  0  0  0  0  0  0  0  0  0
   38.0970   24.3941   30.1678 H   0  0  0  0  0  0  0  0  0  0  0  0
  1  2  1  0
  1  9  1  0
  3  2  2  0
  4  5  1  0
  4  3  1  0
  5  1  2  0
  6 13  1  0
  6  7  2  0
  8  7  1  0
  9  8  2  0
 10  9  1  0
 10  6  1  0
 12 11  2  0
 13 12  1  0
 14 15  1  0
 14 13  2  0
 15 16  2  0
 16 11  1  0
 17  4  1  0
 18 17  1  0
 19 20  1  0
 19 17  1  0
 20 21  1  0
 21 22  2  0
 23 22  1  0
 24 23  2  0
 24 20  1  0
  2 25  1  0
  3 26  1  0
  7 27  1  0
 10 28  1  0
 11 29  1  0
 12 30  1  0
 15 31  1  0
 17 32  1  1
 18 33  1  0
 18 34  1  0
 18 35  1  0
 19 36  1  0
 19 37  1  0
 22 38  1  0
 23 39  1  0
 24 40  1  0
M  ISO  8  25  14  26  14  27  14  28   9  29  14  30  14  31  14  32   8
M  ISO  8  33   8  34   8  35   8  36   8  37   8  38  14  39  14  40  14
M  END
>  <minimizedAffinity>  (1) 
-5.22422552

>  <minimizedRMSD>  (1) 
0.666668892

$$$$
