
     RDKit          3D

 39 42  0  0  1  0  0  0  0  0999 V2000
   37.7120   25.9790   34.6130 C   0  0  0  0  0  0  0  0  0  0  0  0
   37.0260   27.1280   34.9610 C   0  0  0  0  0  0  0  0  0  0  0  0
   36.5470   27.7890   33.8820 C   0  0  0  0  0  0  0  0  0  0  0  0
   36.9410   27.0430   32.8490 N   0  0  0  0  0  0  0  0  0  0  0  0
   37.6200   25.9860   33.2680 N   0  0  0  0  0  0  0  0  0  0  0  0
   39.7820   23.5720   36.2130 C   0  0  0  0  0  0  0  0  0  0  0  0
   38.7300   23.6540   37.1460 C   0  0  0  0  0  0  0  0  0  0  0  0
   37.8610   24.5590   36.6370 N   0  0  0  0  0  0  0  0  0  0  0  0
   38.3790   24.9840   35.4640 C   0  0  0  0  0  0  0  0  0  0  0  0
   39.5260   24.4100   35.1880 N   0  0  0  0  0  0  0  0  0  0  0  0
   42.1040   20.9950   37.5450 C   0  0  0  0  0  0  0  0  0  0  0  0
   40.9510   21.8050   37.4510 C   0  0  0  0  0  0  0  0  0  0  0  0
   40.9450   22.7000   36.3770 C   0  0  0  0  0  0  0  0  0  0  0  0
   42.0160   22.7500   35.4930 N   0  0  0  0  0  0  0  0  0  0  0  0
   43.0640   21.9340   35.6730 C   0  0  0  0  0  0  0  0  0  0  0  0
   43.1130   21.0770   36.6720 N   0  0  0  0  0  0  0  0  0  0  0  0
   36.7480   27.1890   31.4260 C   0  0  1  0  0  0  0  0  0  0  0  0
   38.1090   27.0990   30.7210 C   0  0  0  0  0  0  0  0  0  0  0  0
   35.8180   26.1840   30.8810 C   0  0  0  0  0  0  0  0  0  0  0  0
   36.2080   24.8120   30.9330 N   0  0  0  0  0  0  0  0  0  0  0  0
   35.3160   23.9500   31.5190 C   0  0  0  0  0  0  0  0  0  0  0  0
   35.8370   22.7040   31.5020 N   0  0  0  0  0  0  0  0  0  0  0  0
   37.0460   22.8020   30.9060 C   0  0  0  0  0  0  0  0  0  0  0  0
   37.2510   24.0810   30.5710 N   0  0  0  0  0  0  0  0  0  0  0  0
   36.8855   27.4665   35.9982 H   0  0  0  0  0  0  0  0  0  0  0  0
   35.9676   28.7238   33.8615 H   0  0  0  0  0  0  0  0  0  0  0  0
   38.6344   23.0988   38.0908 H   0  0  0  0  0  0  0  0  0  0  0  0
   40.1126   24.5676   34.3562 H   0  0  0  0  0  0  0  0  0  0  0  0
   42.1745   20.2688   38.3682 H   0  0  0  0  0  0  0  0  0  0  0  0
   40.1202   21.7369   38.1687 H   0  0  0  0  0  0  0  0  0  0  0  0
   43.9063   21.9813   34.9670 H   0  0  0  0  0  0  0  0  0  0  0  0
   36.2929   28.1735   31.2425 H   0  0  0  0  0  0  0  0  0  0  0  0
   38.9092   27.0461   31.4739 H   0  0  0  0  0  0  0  0  0  0  0  0
   38.1372   26.1970   30.0920 H   0  0  0  0  0  0  0  0  0  0  0  0
   38.2557   27.9894   30.0920 H   0  0  0  0  0  0  0  0  0  0  0  0
   35.6473   26.4356   29.8239 H   0  0  0  0  0  0  0  0  0  0  0  0
   34.9353   26.2436   31.5347 H   0  0  0  0  0  0  0  0  0  0  0  0
   34.3364   24.2282   31.9348 H   0  0  0  0  0  0  0  0  0  0  0  0
   37.7436   21.9707   30.7266 H   0  0  0  0  0  0  0  0  0  0  0  0
  1  2  1  0
  1  9  1  0
  3  2  2  0
  4  5  1  0
  4  3  1  0
  5  1  2  0
  6 13  1  0
  6  7  2  0
  8  7  1  0
  9  8  2  0
 10  9  1  0
 10  6  1  0
 12 11  2  0
 13 12  1  0
 14 15  1  0
 14 13  2  0
 15 16  2  0
 16 11  1  0
 17  4  1  0
 18 17  1  0
 19 20  1  0
 19 17  1  0
 20 21  1  0
 22 21  2  0
 23 22  1  0
 24 23  2  0
 24 20  1  0
  2 25  1  0
  3 26  1  0
  7 27  1  0
 10 28  1  0
 11 29  1  0
 12 30  1  0
 15 31  1  0
 17 32  1  1
 18 33  1  0
 18 34  1  0
 18 35  1  0
 19 36  1  0
 19 37  1  0
 21 38  1  0
 23 39  1  0
M  ISO  8  25  14  26  14  27  14  28   9  29  14  30  14  31  14  32   8
M  ISO  7  33   8  34   8  35   8  36   8  37   8  38  14  39  14
M  END
>  <minimizedAffinity>  (1) 
-5.06792879

>  <minimizedRMSD>  (1) 
0.865656555

$$$$
