
     RDKit          3D

 34 36  0  0  1  0  0  0  0  0999 V2000
   37.7040   25.8380   34.8020 C   0  0  0  0  0  0  0  0  0  0  0  0
   37.3460   27.1350   35.1270 C   0  0  0  0  0  0  0  0  0  0  0  0
   36.7480   27.7780   34.0980 C   0  0  0  0  0  0  0  0  0  0  0  0
   36.7350   26.8710   33.1200 N   0  0  0  0  0  0  0  0  0  0  0  0
   37.2950   25.7140   33.5120 N   0  0  0  0  0  0  0  0  0  0  0  0
   39.7020   23.2970   36.2680 C   0  0  0  0  0  0  0  0  0  0  0  0
   38.7880   23.5340   37.3160 C   0  0  0  0  0  0  0  0  0  0  0  0
   37.9600   24.5050   36.8600 N   0  0  0  0  0  0  0  0  0  0  0  0
   38.3620   24.8200   35.6190 C   0  0  0  0  0  0  0  0  0  0  0  0
   39.4070   24.1160   35.2270 N   0  0  0  0  0  0  0  0  0  0  0  0
   42.1540   20.8390   37.5980 C   0  0  0  0  0  0  0  0  0  0  0  0
   41.1150   21.7790   37.5790 C   0  0  0  0  0  0  0  0  0  0  0  0
   40.7790   22.3110   36.3450 C   0  0  0  0  0  0  0  0  0  0  0  0
   41.4620   21.9040   35.2160 N   0  0  0  0  0  0  0  0  0  0  0  0
   42.4430   21.0030   35.3110 C   0  0  0  0  0  0  0  0  0  0  0  0
   42.7940   20.4720   36.4680 N   0  0  0  0  0  0  0  0  0  0  0  0
   36.2240   26.9630   31.7690 C   0  0  1  0  0  0  0  0  0  0  0  0
   37.3680   27.3450   30.8160 C   0  0  0  0  0  0  0  0  0  0  0  0
   35.6500   25.6520   31.3470 C   0  0  0  0  0  0  0  0  0  0  0  0
   37.0270   24.6180   30.7230 S   0  0  0  0  0  0  0  0  0  0  0  0
   37.5274   27.5915   36.1112 H   0  0  0  0  0  0  0  0  0  0  0  0
   36.3626   28.8080   34.0735 H   0  0  0  0  0  0  0  0  0  0  0  0
   38.7545   23.0359   38.2962 H   0  0  0  0  0  0  0  0  0  0  0  0
   39.8955   24.1755   34.3222 H   0  0  0  0  0  0  0  0  0  0  0  0
   42.4549   20.3899   38.5560 H   0  0  0  0  0  0  0  0  0  0  0  0
   40.5919   22.0796   38.4988 H   0  0  0  0  0  0  0  0  0  0  0  0
   42.9743   20.6941   34.3987 H   0  0  0  0  0  0  0  0  0  0  0  0
   35.4362   27.7299   31.7351 H   0  0  0  0  0  0  0  0  0  0  0  0
   38.2507   27.6398   31.4024 H   0  0  0  0  0  0  0  0  0  0  0  0
   37.6204   26.4824   30.1818 H   0  0  0  0  0  0  0  0  0  0  0  0
   37.0515   28.1862   30.1818 H   0  0  0  0  0  0  0  0  0  0  0  0
   35.1702   25.1591   32.2054 H   0  0  0  0  0  0  0  0  0  0  0  0
   34.8911   25.7972   30.5641 H   0  0  0  0  0  0  0  0  0  0  0  0
   37.7222   24.0960   31.7818 H   0  0  0  0  0  0  0  0  0  0  0  0
  1  2  1  0
  1  9  1  0
  3  2  2  0
  4  5  1  0
  4  3  1  0
  5  1  2  0
  6 13  1  0
  6  7  2  0
  8  7  1  0
  9  8  2  0
 10  9  1  0
 10  6  1  0
 12 11  2  0
 13 12  1  0
 14 15  1  0
 14 13  2  0
 15 16  2  0
 16 11  1  0
 17  4  1  0
 18 17  1  0
 19 17  1  0
 20 19  1  0
  2 21  1  0
  3 22  1  0
  7 23  1  0
 10 24  1  0
 11 25  1  0
 12 26  1  0
 15 27  1  0
 17 28  1  1
 18 29  1  0
 18 30  1  0
 18 31  1  0
 19 32  1  0
 19 33  1  0
 20 34  1  0
M  ISO  8  21  14  22  14  23  14  24   9  25  14  26  14  27  14  28   8
M  ISO  6  29   8  30   8  31   8  32   8  33   8  34  11
M  END
>  <minimizedAffinity>  (1) 
-4.46999025

>  <minimizedRMSD>  (1) 
0.347192824

$$$$
