
     RDKit          3D

 45 48  0  0  1  0  0  0  0  0999 V2000
   38.1900   25.8500   35.5150 C   0  0  0  0  0  0  0  0  0  0  0  0
   38.1860   27.1550   35.9830 C   0  0  0  0  0  0  0  0  0  0  0  0
   37.5060   27.9820   35.1420 C   0  0  0  0  0  0  0  0  0  0  0  0
   37.0990   27.1780   34.1640 N   0  0  0  0  0  0  0  0  0  0  0  0
   37.4890   25.9290   34.3620 N   0  0  0  0  0  0  0  0  0  0  0  0
   40.0960   23.0050   36.4340 C   0  0  0  0  0  0  0  0  0  0  0  0
   39.1670   23.0300   37.5010 C   0  0  0  0  0  0  0  0  0  0  0  0
   38.3650   24.1020   37.2530 N   0  0  0  0  0  0  0  0  0  0  0  0
   38.8010   24.6650   36.1090 C   0  0  0  0  0  0  0  0  0  0  0  0
   39.8370   24.0220   35.6050 N   0  0  0  0  0  0  0  0  0  0  0  0
   42.6250   20.4040   37.3020 C   0  0  0  0  0  0  0  0  0  0  0  0
   41.6160   21.3620   37.4680 C   0  0  0  0  0  0  0  0  0  0  0  0
   41.1570   21.9930   36.3200 C   0  0  0  0  0  0  0  0  0  0  0  0
   41.6970   21.6590   35.0990 N   0  0  0  0  0  0  0  0  0  0  0  0
   42.6620   20.7320   35.0060 C   0  0  0  0  0  0  0  0  0  0  0  0
   43.1210   20.1130   36.0800 N   0  0  0  0  0  0  0  0  0  0  0  0
   36.3180   27.4790   32.9690 C   0  0  1  0  0  0  0  0  0  0  0  0
   36.0170   28.9840   32.9370 C   0  0  0  0  0  0  0  0  0  0  0  0
   37.0850   27.1050   31.7510 C   0  0  0  0  0  0  0  0  0  0  0  0
   38.1650   27.9580   31.4330 N   0  0  0  0  0  0  0  0  0  0  0  0
   39.4280   27.3220   31.6270 C   0  0  0  0  0  0  0  0  0  0  0  0
   40.1260   27.2210   30.2910 C   0  0  0  0  0  0  0  0  0  0  0  0
   39.0530   27.6340   29.3110 C   0  0  0  0  0  0  0  0  0  0  0  0
   38.1920   28.5320   30.1450 C   0  0  0  0  0  0  0  0  0  0  0  0
   38.6706   27.4808   36.9152 H   0  0  0  0  0  0  0  0  0  0  0  0
   37.3334   29.0633   35.2470 H   0  0  0  0  0  0  0  0  0  0  0  0
   39.1058   22.3325   38.3494 H   0  0  0  0  0  0  0  0  0  0  0  0
   40.3468   24.2574   34.7415 H   0  0  0  0  0  0  0  0  0  0  0  0
   43.0207   19.8789   38.1839 H   0  0  0  0  0  0  0  0  0  0  0  0
   41.2072   21.6025   38.4605 H   0  0  0  0  0  0  0  0  0  0  0  0
   43.0786   20.4826   34.0190 H   0  0  0  0  0  0  0  0  0  0  0  0
   35.3796   26.9055   32.9918 H   0  0  0  0  0  0  0  0  0  0  0  0
   35.9409   29.3647   33.9662 H   0  0  0  0  0  0  0  0  0  0  0  0
   36.8279   29.5090   32.4109 H   0  0  0  0  0  0  0  0  0  0  0  0
   35.0665   29.1567   32.4109 H   0  0  0  0  0  0  0  0  0  0  0  0
   37.4848   26.0910   31.8990 H   0  0  0  0  0  0  0  0  0  0  0  0
   36.3789   27.1816   30.9110 H   0  0  0  0  0  0  0  0  0  0  0  0
   40.0400   27.9169   32.3210 H   0  0  0  0  0  0  0  0  0  0  0  0
   39.2822   26.3180   32.0521 H   0  0  0  0  0  0  0  0  0  0  0  0
   40.9878   27.9029   30.2433 H   0  0  0  0  0  0  0  0  0  0  0  0
   40.5319   26.2186   30.0902 H   0  0  0  0  0  0  0  0  0  0  0  0
   38.4873   26.7631   28.9484 H   0  0  0  0  0  0  0  0  0  0  0  0
   39.4455   28.1163   28.4036 H   0  0  0  0  0  0  0  0  0  0  0  0
   38.6221   29.5436   30.1863 H   0  0  0  0  0  0  0  0  0  0  0  0
   37.1800   28.6249   29.7239 H   0  0  0  0  0  0  0  0  0  0  0  0
  1  2  1  0
  1  9  1  0
  3  2  2  0
  4  5  1  0
  4  3  1  0
  5  1  2  0
  6  7  2  0
  8  7  1  0
  9  8  2  0
 10  9  1  0
 10  6  1  0
 11 12  2  0
 13  6  1  0
 13 12  1  0
 14 13  2  0
 15 14  1  0
 15 16  2  0
 16 11  1  0
 17  4  1  0
 18 17  1  0
 19 17  1  0
 20 21  1  0
 20 19  1  0
 22 21  1  0
 23 24  1  0
 23 22  1  0
 24 20  1  0
  2 25  1  0
  3 26  1  0
  7 27  1  0
 10 28  1  0
 11 29  1  0
 12 30  1  0
 15 31  1  0
 17 32  1  1
 18 33  1  0
 18 34  1  0
 18 35  1  0
 19 36  1  0
 19 37  1  0
 21 38  1  0
 21 39  1  0
 22 40  1  0
 22 41  1  0
 23 42  1  0
 23 43  1  0
 24 44  1  0
 24 45  1  0
M  ISO  8  25  14  26  14  27  14  28   9  29  14  30  14  31  14  32   8
M  ISO  8  33   8  34   8  35   8  36   8  37   8  38  13  39  13  40  13
M  ISO  5  41  13  42  13  43  13  44  13  45  13
M  END
>  <minimizedAffinity>  (1) 
-4.79574871

>  <minimizedRMSD>  (1) 
3.12748551

$$$$
