
     RDKit          3D

 35 37  0  0  1  0  0  0  0  0999 V2000
   37.5070   26.0520   34.6140 C   0  0  0  0  0  0  0  0  0  0  0  0
   37.2590   27.3880   34.9000 C   0  0  0  0  0  0  0  0  0  0  0  0
   36.6570   28.0260   33.8670 C   0  0  0  0  0  0  0  0  0  0  0  0
   36.5300   27.0890   32.9360 N   0  0  0  0  0  0  0  0  0  0  0  0
   37.0250   25.9170   33.3590 N   0  0  0  0  0  0  0  0  0  0  0  0
   39.4600   23.5130   36.1290 C   0  0  0  0  0  0  0  0  0  0  0  0
   38.5090   23.7160   37.1260 C   0  0  0  0  0  0  0  0  0  0  0  0
   37.6880   24.6840   36.6610 N   0  0  0  0  0  0  0  0  0  0  0  0
   38.1320   25.0310   35.4500 C   0  0  0  0  0  0  0  0  0  0  0  0
   39.2040   24.3430   35.0960 N   0  0  0  0  0  0  0  0  0  0  0  0
   41.9300   21.0950   37.5140 C   0  0  0  0  0  0  0  0  0  0  0  0
   40.8790   22.0150   37.4620 C   0  0  0  0  0  0  0  0  0  0  0  0
   40.5690   22.5390   36.2070 C   0  0  0  0  0  0  0  0  0  0  0  0
   41.2820   22.1420   35.1070 N   0  0  0  0  0  0  0  0  0  0  0  0
   42.2750   21.2560   35.2400 C   0  0  0  0  0  0  0  0  0  0  0  0
   42.6050   20.7340   36.4030 N   0  0  0  0  0  0  0  0  0  0  0  0
   35.9630   27.1310   31.5940 C   0  0  1  0  0  0  0  0  0  0  0  0
   36.6230   28.2300   30.7840 C   0  0  0  0  0  0  0  0  0  0  0  0
   36.0920   25.7980   30.9400 C   0  0  0  0  0  0  0  0  0  0  0  0
   34.8000   25.1330   31.0460 N   0  0  0  0  0  0  0  0  0  0  0  0
   37.5204   27.8715   35.8528 H   0  0  0  0  0  0  0  0  0  0  0  0
   36.3450   29.0794   33.8127 H   0  0  0  0  0  0  0  0  0  0  0  0
   38.4401   23.1958   38.0928 H   0  0  0  0  0  0  0  0  0  0  0  0
   39.7331   24.4236   34.2160 H   0  0  0  0  0  0  0  0  0  0  0  0
   42.2130   20.6557   38.4819 H   0  0  0  0  0  0  0  0  0  0  0  0
   40.3246   22.3108   38.3648 H   0  0  0  0  0  0  0  0  0  0  0  0
   42.8369   20.9520   34.3446 H   0  0  0  0  0  0  0  0  0  0  0  0
   34.8899   27.3648   31.6555 H   0  0  0  0  0  0  0  0  0  0  0  0
   37.0678   28.9706   31.4649 H   0  0  0  0  0  0  0  0  0  0  0  0
   37.4100   27.7959   30.1498 H   0  0  0  0  0  0  0  0  0  0  0  0
   35.8700   28.7207   30.1498 H   0  0  0  0  0  0  0  0  0  0  0  0
   36.8641   25.2026   31.4493 H   0  0  0  0  0  0  0  0  0  0  0  0
   36.3856   25.9097   29.8858 H   0  0  0  0  0  0  0  0  0  0  0  0
   34.5584   25.0086   32.0395 H   0  0  0  0  0  0  0  0  0  0  0  0
   34.0793   25.7079   30.5867 H   0  0  0  0  0  0  0  0  0  0  0  0
  1  2  1  0
  1  9  1  0
  3  2  2  0
  4  5  1  0
  4  3  1  0
  5  1  2  0
  6 13  1  0
  6  7  2  0
  8  7  1  0
  9  8  2  0
 10  9  1  0
 10  6  1  0
 12 11  2  0
 13 12  1  0
 14 15  1  0
 14 13  2  0
 15 16  2  0
 16 11  1  0
 17  4  1  0
 18 17  1  0
 19 20  1  0
 19 17  1  0
  2 21  1  0
  3 22  1  0
  7 23  1  0
 10 24  1  0
 11 25  1  0
 12 26  1  0
 15 27  1  0
 17 28  1  1
 18 29  1  0
 18 30  1  0
 18 31  1  0
 19 32  1  0
 19 33  1  0
 20 34  1  0
 20 35  1  0
M  ISO  8  21  14  22  14  23  14  24   9  25  14  26  14  27  14  28   8
M  ISO  7  29   8  30   8  31   8  32   8  33   8  34   5  35   5
M  END
>  <minimizedAffinity>  (1) 
-4.71980143

>  <minimizedRMSD>  (1) 
0.313654363

$$$$
