
     RDKit          3D

 52 56  0  0  1  0  0  0  0  0999 V2000
   38.2010   25.7830   34.8420 C   0  0  0  0  0  0  0  0  0  0  0  0
   37.1660   26.6310   35.1610 C   0  0  0  0  0  0  0  0  0  0  0  0
   36.8960   27.5110   34.1620 C   0  0  0  0  0  0  0  0  0  0  0  0
   37.7760   27.1980   33.2230 N   0  0  0  0  0  0  0  0  0  0  0  0
   38.5420   26.1940   33.6040 N   0  0  0  0  0  0  0  0  0  0  0  0
   40.0470   23.0830   36.2600 C   0  0  0  0  0  0  0  0  0  0  0  0
   39.1100   23.2940   37.2620 C   0  0  0  0  0  0  0  0  0  0  0  0
   38.3300   24.3220   36.8380 N   0  0  0  0  0  0  0  0  0  0  0  0
   38.8070   24.6880   35.6260 C   0  0  0  0  0  0  0  0  0  0  0  0
   39.8330   23.9660   35.2550 N   0  0  0  0  0  0  0  0  0  0  0  0
   42.4240   20.5420   37.5610 C   0  0  0  0  0  0  0  0  0  0  0  0
   41.4130   21.5180   37.5590 C   0  0  0  0  0  0  0  0  0  0  0  0
   41.0920   22.0590   36.3060 C   0  0  0  0  0  0  0  0  0  0  0  0
   41.7540   21.6300   35.1720 N   0  0  0  0  0  0  0  0  0  0  0  0
   42.7010   20.6970   35.2710 C   0  0  0  0  0  0  0  0  0  0  0  0
   43.0370   20.1600   36.4250 N   0  0  0  0  0  0  0  0  0  0  0  0
   38.0120   27.7510   31.9210 C   0  0  1  0  0  0  0  0  0  0  0  0
   39.5040   27.5740   31.5790 C   0  0  0  0  0  0  0  0  0  0  0  0
   37.2580   27.1180   30.8330 C   0  0  0  0  0  0  0  0  0  0  0  0
   36.7160   25.8420   30.9270 N   0  0  0  0  0  0  0  0  0  0  0  0
   35.3730   25.6290   31.0770 C   0  0  0  0  0  0  0  0  0  0  0  0
   35.0680   24.2890   31.1290 C   0  0  0  0  0  0  0  0  0  0  0  0
   36.2640   23.6580   31.0060 N   0  0  0  0  0  0  0  0  0  0  0  0
   37.1750   24.6090   30.8920 C   0  0  0  0  0  0  0  0  0  0  0  0
   38.4740   24.0990   30.6710 N   0  0  0  0  0  0  0  0  0  0  0  0
   39.2320   24.7260   29.5720 C   0  0  0  0  0  0  0  0  0  0  0  0
   39.3070   23.5080   28.6320 C   0  0  0  0  0  0  0  0  0  0  0  0
   39.8220   22.4870   29.6550 C   0  0  0  0  0  0  0  0  0  0  0  0
   39.5230   23.1580   30.9980 C   0  0  0  0  0  0  0  0  0  0  0  0
   36.6198   26.6001   36.1153 H   0  0  0  0  0  0  0  0  0  0  0  0
   36.1277   28.2979   34.1385 H   0  0  0  0  0  0  0  0  0  0  0  0
   39.0177   22.7406   38.2082 H   0  0  0  0  0  0  0  0  0  0  0  0
   40.3680   24.0513   34.3790 H   0  0  0  0  0  0  0  0  0  0  0  0
   42.7216   20.0791   38.5135 H   0  0  0  0  0  0  0  0  0  0  0  0
   40.9059   21.8371   38.4815 H   0  0  0  0  0  0  0  0  0  0  0  0
   43.2185   20.3651   34.3588 H   0  0  0  0  0  0  0  0  0  0  0  0
   37.6858   28.7997   31.9835 H   0  0  0  0  0  0  0  0  0  0  0  0
   40.0876   27.5048   32.5088 H   0  0  0  0  0  0  0  0  0  0  0  0
   39.6389   26.6535   30.9920 H   0  0  0  0  0  0  0  0  0  0  0  0
   39.8506   28.4373   30.9920 H   0  0  0  0  0  0  0  0  0  0  0  0
   37.9370   27.0952   29.9679 H   0  0  0  0  0  0  0  0  0  0  0  0
   36.3508   27.7394   30.8053 H   0  0  0  0  0  0  0  0  0  0  0  0
   34.6262   26.4335   31.1476 H   0  0  0  0  0  0  0  0  0  0  0  0
   34.0750   23.8300   31.2446 H   0  0  0  0  0  0  0  0  0  0  0  0
   38.6876   25.5677   29.1190 H   0  0  0  0  0  0  0  0  0  0  0  0
   40.1955   25.1782   29.8499 H   0  0  0  0  0  0  0  0  0  0  0  0
   38.3224   23.2324   28.2264 H   0  0  0  0  0  0  0  0  0  0  0  0
   39.9150   23.6333   27.7239 H   0  0  0  0  0  0  0  0  0  0  0  0
   39.2853   21.5312   29.5632 H   0  0  0  0  0  0  0  0  0  0  0  0
   40.8860   22.2417   29.5222 H   0  0  0  0  0  0  0  0  0  0  0  0
   40.4117   23.6772   31.3861 H   0  0  0  0  0  0  0  0  0  0  0  0
   39.2324   22.4433   31.7821 H   0  0  0  0  0  0  0  0  0  0  0  0
  1  2  1  0
  1  9  1  0
  3  2  2  0
  4  5  1  0
  4  3  1  0
  5  1  2  0
  6 13  1  0
  6  7  2  0
  8  7  1  0
  9  8  2  0
 10  9  1  0
 10  6  1  0
 12 11  2  0
 13 12  1  0
 14 15  1  0
 14 13  2  0
 15 16  2  0
 16 11  1  0
 17  4  1  0
 18 17  1  0
 19 20  1  0
 19 17  1  0
 20 21  1  0
 21 22  2  0
 23 22  1  0
 24 20  1  0
 24 23  2  0
 25 24  1  0
 25 29  1  0
 26 25  1  0
 27 26  1  0
 27 28  1  0
 28 29  1  0
  2 30  1  0
  3 31  1  0
  7 32  1  0
 10 33  1  0
 11 34  1  0
 12 35  1  0
 15 36  1  0
 17 37  1  1
 18 38  1  0
 18 39  1  0
 18 40  1  0
 19 41  1  0
 19 42  1  0
 21 43  1  0
 22 44  1  0
 26 45  1  0
 26 46  1  0
 27 47  1  0
 27 48  1  0
 28 49  1  0
 28 50  1  0
 29 51  1  0
 29 52  1  0
M  ISO  8  30  14  31  14  32  14  33   9  34  14  35  14  36  14  37   8
M  ISO  8  38   8  39   8  40   8  41   8  42   8  43  14  44  14  45  13
M  ISO  7  46  13  47  13  48  13  49  13  50  13  51  13  52  13
M  END
>  <minimizedAffinity>  (1) 
-5.38991976

>  <minimizedRMSD>  (1) 
1.11676884

$$$$
