
     RDKit          3D

 54 58  0  0  1  0  0  0  0  0999 V2000
   38.2610   25.7090   34.7850 C   0  0  0  0  0  0  0  0  0  0  0  0
   37.2010   26.5340   35.0760 C   0  0  0  0  0  0  0  0  0  0  0  0
   36.9450   27.4220   34.0710 C   0  0  0  0  0  0  0  0  0  0  0  0
   37.8610   27.1310   33.1610 N   0  0  0  0  0  0  0  0  0  0  0  0
   38.6370   26.1310   33.5680 N   0  0  0  0  0  0  0  0  0  0  0  0
   40.0930   23.0260   36.2260 C   0  0  0  0  0  0  0  0  0  0  0  0
   39.1410   23.2330   37.2210 C   0  0  0  0  0  0  0  0  0  0  0  0
   38.3710   24.2520   36.7800 N   0  0  0  0  0  0  0  0  0  0  0  0
   38.8560   24.6220   35.5780 C   0  0  0  0  0  0  0  0  0  0  0  0
   39.8860   23.9050   35.2230 N   0  0  0  0  0  0  0  0  0  0  0  0
   42.4660   20.4860   37.5760 C   0  0  0  0  0  0  0  0  0  0  0  0
   41.4600   21.4690   37.5480 C   0  0  0  0  0  0  0  0  0  0  0  0
   41.1360   22.0000   36.3050 C   0  0  0  0  0  0  0  0  0  0  0  0
   41.8020   21.5540   35.1580 N   0  0  0  0  0  0  0  0  0  0  0  0
   42.7450   20.6160   35.2740 C   0  0  0  0  0  0  0  0  0  0  0  0
   43.0840   20.0850   36.4340 N   0  0  0  0  0  0  0  0  0  0  0  0
   38.1290   27.7030   31.8720 C   0  0  1  0  0  0  0  0  0  0  0  0
   39.6410   27.5830   31.5860 C   0  0  0  0  0  0  0  0  0  0  0  0
   37.4510   27.0470   30.7520 C   0  0  0  0  0  0  0  0  0  0  0  0
   36.7030   25.8820   30.8880 N   0  0  0  0  0  0  0  0  0  0  0  0
   35.3480   25.8870   31.0170 C   0  0  0  0  0  0  0  0  0  0  0  0
   34.8230   24.6230   31.1160 C   0  0  0  0  0  0  0  0  0  0  0  0
   35.9070   23.8040   31.0440 N   0  0  0  0  0  0  0  0  0  0  0  0
   36.9610   24.5930   30.9100 C   0  0  0  0  0  0  0  0  0  0  0  0
   38.1490   23.8470   30.7520 N   0  0  0  0  0  0  0  0  0  0  0  0
   38.7000   22.5720   31.1550 C   0  0  0  0  0  0  0  0  0  0  0  0
   39.0900   21.7300   29.9930 C   0  0  0  0  0  0  0  0  0  0  0  0
   39.9500   22.4560   29.1090 N   0  0  0  0  0  0  0  0  0  0  0  0
   39.2400   23.6460   28.6620 C   0  0  0  0  0  0  0  0  0  0  0  0
   39.1610   24.5250   29.9230 C   0  0  0  0  0  0  0  0  0  0  0  0
   36.6247   26.4845   36.0117 H   0  0  0  0  0  0  0  0  0  0  0  0
   36.1637   28.1951   34.0279 H   0  0  0  0  0  0  0  0  0  0  0  0
   39.0375   22.6823   38.1676 H   0  0  0  0  0  0  0  0  0  0  0  0
   40.4310   23.9920   34.3534 H   0  0  0  0  0  0  0  0  0  0  0  0
   42.7567   20.0353   38.5364 H   0  0  0  0  0  0  0  0  0  0  0  0
   40.9538   21.8016   38.4662 H   0  0  0  0  0  0  0  0  0  0  0  0
   43.2607   20.2715   34.3655 H   0  0  0  0  0  0  0  0  0  0  0  0
   37.7597   28.7375   31.9304 H   0  0  0  0  0  0  0  0  0  0  0  0
   40.1917   27.5393   32.5372 H   0  0  0  0  0  0  0  0  0  0  0  0
   39.8333   26.6668   31.0085 H   0  0  0  0  0  0  0  0  0  0  0  0
   39.9755   28.4574   31.0085 H   0  0  0  0  0  0  0  0  0  0  0  0
   38.2365   26.8169   30.0171 H   0  0  0  0  0  0  0  0  0  0  0  0
   36.6672   27.7810   30.5135 H   0  0  0  0  0  0  0  0  0  0  0  0
   34.7404   26.8037   31.0394 H   0  0  0  0  0  0  0  0  0  0  0  0
   33.7667   24.3372   31.2280 H   0  0  0  0  0  0  0  0  0  0  0  0
   39.5904   22.7522   31.7753 H   0  0  0  0  0  0  0  0  0  0  0  0
   37.9217   22.0320   31.7141 H   0  0  0  0  0  0  0  0  0  0  0  0
   39.6172   20.8354   30.3559 H   0  0  0  0  0  0  0  0  0  0  0  0
   38.1813   21.4409   29.4446 H   0  0  0  0  0  0  0  0  0  0  0  0
   40.8105   22.7287   29.6051 H   0  0  0  0  0  0  0  0  0  0  0  0
   39.7970   24.1571   27.8629 H   0  0  0  0  0  0  0  0  0  0  0  0
   38.2496   23.4165   28.2419 H   0  0  0  0  0  0  0  0  0  0  0  0
   40.1319   24.5609   30.4387 H   0  0  0  0  0  0  0  0  0  0  0  0
   38.9022   25.5708   29.7008 H   0  0  0  0  0  0  0  0  0  0  0  0
  1  2  1  0
  1  9  1  0
  3  2  2  0
  4  5  1  0
  4  3  1  0
  5  1  2  0
  6 13  1  0
  6  7  2  0
  8  7  1  0
  9  8  2  0
 10  9  1  0
 10  6  1  0
 12 11  2  0
 13 12  1  0
 14 15  1  0
 14 13  2  0
 15 16  2  0
 16 11  1  0
 17  4  1  0
 18 17  1  0
 19 20  1  0
 19 17  1  0
 20 24  1  0
 20 21  1  0
 21 22  2  0
 23 22  1  0
 24 23  2  0
 25 24  1  0
 25 26  1  0
 27 26  1  0
 28 27  1  0
 29 28  1  0
 29 30  1  0
 30 25  1  0
  2 31  1  0
  3 32  1  0
  7 33  1  0
 10 34  1  0
 11 35  1  0
 12 36  1  0
 15 37  1  0
 17 38  1  1
 18 39  1  0
 18 40  1  0
 18 41  1  0
 19 42  1  0
 19 43  1  0
 21 44  1  0
 22 45  1  0
 26 46  1  0
 26 47  1  0
 27 48  1  0
 27 49  1  0
 28 50  1  0
 29 51  1  0
 29 52  1  0
 30 53  1  0
 30 54  1  0
M  ISO  8  31  14  32  14  33  14  34   9  35  14  36  14  37  14  38   8
M  ISO  8  39   8  40   8  41   8  42   8  43   8  44  14  45  14  46  13
M  ISO  8  47  13  48  13  49  13  50   5  51  13  52  13  53  13  54  13
M  END
>  <minimizedAffinity>  (1) 
-5.39560986

>  <minimizedRMSD>  (1) 
1.36917555

$$$$
