
     RDKit          3D

 48 52  0  0  1  0  0  0  0  0999 V2000
   38.2030   25.8070   34.8220 C   0  0  0  0  0  0  0  0  0  0  0  0
   37.1790   26.6690   35.1460 C   0  0  0  0  0  0  0  0  0  0  0  0
   36.9090   27.5480   34.1380 C   0  0  0  0  0  0  0  0  0  0  0  0
   37.7780   27.2150   33.1960 N   0  0  0  0  0  0  0  0  0  0  0  0
   38.5380   26.2040   33.5790 N   0  0  0  0  0  0  0  0  0  0  0  0
   40.0390   23.1080   36.2470 C   0  0  0  0  0  0  0  0  0  0  0  0
   39.0910   23.3180   37.2420 C   0  0  0  0  0  0  0  0  0  0  0  0
   38.3120   24.3450   36.8150 N   0  0  0  0  0  0  0  0  0  0  0  0
   38.8050   24.7120   35.6050 C   0  0  0  0  0  0  0  0  0  0  0  0
   39.8320   23.9970   35.2380 N   0  0  0  0  0  0  0  0  0  0  0  0
   42.4000   20.5600   37.5710 C   0  0  0  0  0  0  0  0  0  0  0  0
   41.4010   21.5390   37.5460 C   0  0  0  0  0  0  0  0  0  0  0  0
   41.0820   22.0830   36.3010 C   0  0  0  0  0  0  0  0  0  0  0  0
   41.7430   21.6500   35.1700 N   0  0  0  0  0  0  0  0  0  0  0  0
   42.6840   20.7110   35.2820 C   0  0  0  0  0  0  0  0  0  0  0  0
   43.0160   20.1700   36.4360 N   0  0  0  0  0  0  0  0  0  0  0  0
   38.0100   27.7590   31.8900 C   0  0  1  0  0  0  0  0  0  0  0  0
   39.4630   27.4680   31.4830 C   0  0  0  0  0  0  0  0  0  0  0  0
   37.1610   27.2000   30.8300 C   0  0  0  0  0  0  0  0  0  0  0  0
   36.5570   25.9520   30.9200 N   0  0  0  0  0  0  0  0  0  0  0  0
   35.2110   25.8000   31.1090 C   0  0  0  0  0  0  0  0  0  0  0  0
   34.8380   24.4830   31.1430 C   0  0  0  0  0  0  0  0  0  0  0  0
   35.9980   23.7970   30.9700 N   0  0  0  0  0  0  0  0  0  0  0  0
   36.9580   24.7010   30.8450 C   0  0  0  0  0  0  0  0  0  0  0  0
   38.2370   24.0560   30.6130 C   0  0  0  0  0  0  0  0  0  0  0  0
   39.1010   24.0870   29.5090 C   0  0  0  0  0  0  0  0  0  0  0  0
   40.2830   23.3810   29.5700 C   0  0  0  0  0  0  0  0  0  0  0  0
   40.5770   22.6830   30.6800 N   0  0  0  0  0  0  0  0  0  0  0  0
   39.7660   22.6360   31.7510 C   0  0  0  0  0  0  0  0  0  0  0  0
   38.6190   23.3300   31.6750 N   0  0  0  0  0  0  0  0  0  0  0  0
   36.6415   26.6510   36.1055 H   0  0  0  0  0  0  0  0  0  0  0  0
   36.1501   28.3439   34.1137 H   0  0  0  0  0  0  0  0  0  0  0  0
   38.9918   22.7630   38.1865 H   0  0  0  0  0  0  0  0  0  0  0  0
   40.3734   24.0866   34.3663 H   0  0  0  0  0  0  0  0  0  0  0  0
   42.6871   20.1021   38.5291 H   0  0  0  0  0  0  0  0  0  0  0  0
   40.8909   21.8647   38.4645 H   0  0  0  0  0  0  0  0  0  0  0  0
   43.2041   20.3747   34.3729 H   0  0  0  0  0  0  0  0  0  0  0  0
   37.7779   28.8308   31.9754 H   0  0  0  0  0  0  0  0  0  0  0  0
   40.0790   27.3446   32.3859 H   0  0  0  0  0  0  0  0  0  0  0  0
   39.4987   26.5449   30.8859 H   0  0  0  0  0  0  0  0  0  0  0  0
   39.8514   28.3062   30.8859 H   0  0  0  0  0  0  0  0  0  0  0  0
   37.7871   27.1685   29.9261 H   0  0  0  0  0  0  0  0  0  0  0  0
   36.2887   27.8687   30.8731 H   0  0  0  0  0  0  0  0  0  0  0  0
   34.5088   26.6393   31.2208 H   0  0  0  0  0  0  0  0  0  0  0  0
   33.8266   24.0726   31.2796 H   0  0  0  0  0  0  0  0  0  0  0  0
   38.8399   24.6647   28.6100 H   0  0  0  0  0  0  0  0  0  0  0  0
   40.9791   23.3888   28.7183 H   0  0  0  0  0  0  0  0  0  0  0  0
   40.0297   22.0561   32.6478 H   0  0  0  0  0  0  0  0  0  0  0  0
  1  2  1  0
  1  9  1  0
  3  2  2  0
  4  5  1  0
  4  3  1  0
  5  1  2  0
  6 13  1  0
  6  7  2  0
  8  7  1  0
  9  8  2  0
 10  9  1  0
 10  6  1  0
 12 11  2  0
 13 12  1  0
 14 15  1  0
 14 13  2  0
 15 16  2  0
 16 11  1  0
 17  4  1  0
 18 17  1  0
 19 20  1  0
 19 17  1  0
 20 21  1  0
 21 22  2  0
 23 22  1  0
 24 20  1  0
 24 23  2  0
 25 24  1  0
 25 30  2  0
 26 27  2  0
 26 25  1  0
 27 28  1  0
 28 29  2  0
 30 29  1  0
  2 31  1  0
  3 32  1  0
  7 33  1  0
 10 34  1  0
 11 35  1  0
 12 36  1  0
 15 37  1  0
 17 38  1  1
 18 39  1  0
 18 40  1  0
 18 41  1  0
 19 42  1  0
 19 43  1  0
 21 44  1  0
 22 45  1  0
 26 46  1  0
 27 47  1  0
 29 48  1  0
M  ISO  8  31  14  32  14  33  14  34   9  35  14  36  14  37  14  38   8
M  ISO  8  39   8  40   8  41   8  42   8  43   8  44  14  45  14  46  14
M  ISO  2  47  14  48  14
M  END
>  <minimizedAffinity>  (1) 
-5.17139292

>  <minimizedRMSD>  (1) 
1.25572026

$$$$
