
     RDKit          3D

 50 54  0  0  1  0  0  0  0  0999 V2000
   38.0460   27.7260   31.8970 C   0  0  1  0  0  0  0  0  0  0  0  0
   38.2310   25.7730   34.8310 C   0  0  0  0  0  0  0  0  0  0  0  0
   37.2020   26.6310   35.1490 C   0  0  0  0  0  0  0  0  0  0  0  0
   36.9330   27.5080   34.1440 C   0  0  0  0  0  0  0  0  0  0  0  0
   37.8060   27.1860   33.2000 N   0  0  0  0  0  0  0  0  0  0  0  0
   38.5650   26.1780   33.5890 N   0  0  0  0  0  0  0  0  0  0  0  0
   40.0640   23.0840   36.2500 C   0  0  0  0  0  0  0  0  0  0  0  0
   39.1170   23.2900   37.2580 C   0  0  0  0  0  0  0  0  0  0  0  0
   38.3450   24.3170   36.8230 N   0  0  0  0  0  0  0  0  0  0  0  0
   38.8280   24.6830   35.6140 C   0  0  0  0  0  0  0  0  0  0  0  0
   39.8560   23.9630   35.2460 N   0  0  0  0  0  0  0  0  0  0  0  0
   42.4310   20.5330   37.5590 C   0  0  0  0  0  0  0  0  0  0  0  0
   41.4280   21.5090   37.5710 C   0  0  0  0  0  0  0  0  0  0  0  0
   41.1050   22.0530   36.3140 C   0  0  0  0  0  0  0  0  0  0  0  0
   41.7620   21.6240   35.1570 N   0  0  0  0  0  0  0  0  0  0  0  0
   42.7150   20.6750   35.2680 C   0  0  0  0  0  0  0  0  0  0  0  0
   43.0390   20.1460   36.4320 N   0  0  0  0  0  0  0  0  0  0  0  0
   39.4890   27.4050   31.4800 C   0  0  0  0  0  0  0  0  0  0  0  0
   37.1820   27.1930   30.8360 C   0  0  0  0  0  0  0  0  0  0  0  0
   36.5430   25.9620   30.9210 N   0  0  0  0  0  0  0  0  0  0  0  0
   35.1900   25.8510   31.0850 C   0  0  0  0  0  0  0  0  0  0  0  0
   34.7830   24.5430   31.1260 C   0  0  0  0  0  0  0  0  0  0  0  0
   35.9300   23.8190   30.9830 N   0  0  0  0  0  0  0  0  0  0  0  0
   36.9160   24.6990   30.8670 C   0  0  0  0  0  0  0  0  0  0  0  0
   38.1710   23.9980   30.6710 C   0  0  0  0  0  0  0  0  0  0  0  0
   38.9590   23.9830   29.5370 C   0  0  0  0  0  0  0  0  0  0  0  0
   40.1280   23.2590   29.4450 C   0  0  0  0  0  0  0  0  0  0  0  0
   40.5720   22.5040   30.5090 C   0  0  0  0  0  0  0  0  0  0  0  0
   39.8560   22.4540   31.6880 C   0  0  0  0  0  0  0  0  0  0  0  0
   38.6990   23.2030   31.6990 C   0  0  0  0  0  0  0  0  0  0  0  0
   37.8382   28.8021   31.9914 H   0  0  0  0  0  0  0  0  0  0  0  0
   36.6596   26.6099   36.1058 H   0  0  0  0  0  0  0  0  0  0  0  0
   36.1694   28.2994   34.1205 H   0  0  0  0  0  0  0  0  0  0  0  0
   39.0189   22.7364   38.2035 H   0  0  0  0  0  0  0  0  0  0  0  0
   40.3948   24.0486   34.3723 H   0  0  0  0  0  0  0  0  0  0  0  0
   42.7299   20.0677   38.5099 H   0  0  0  0  0  0  0  0  0  0  0  0
   40.9277   21.8282   38.4972 H   0  0  0  0  0  0  0  0  0  0  0  0
   43.2365   20.3329   34.3619 H   0  0  0  0  0  0  0  0  0  0  0  0
   40.1083   27.2672   32.3786 H   0  0  0  0  0  0  0  0  0  0  0  0
   39.5010   26.4822   30.8814 H   0  0  0  0  0  0  0  0  0  0  0  0
   39.8911   28.2357   30.8814 H   0  0  0  0  0  0  0  0  0  0  0  0
   37.8072   27.1469   29.9321 H   0  0  0  0  0  0  0  0  0  0  0  0
   36.3282   27.8850   30.8825 H   0  0  0  0  0  0  0  0  0  0  0  0
   34.5087   26.7101   31.1736 H   0  0  0  0  0  0  0  0  0  0  0  0
   33.7584   24.1616   31.2473 H   0  0  0  0  0  0  0  0  0  0  0  0
   38.6390   24.5760   28.6675 H   0  0  0  0  0  0  0  0  0  0  0  0
   40.7123   23.2840   28.5134 H   0  0  0  0  0  0  0  0  0  0  0  0
   41.5085   21.9342   30.4176 H   0  0  0  0  0  0  0  0  0  0  0  0
   40.1843   21.8607   32.5542 H   0  0  0  0  0  0  0  0  0  0  0  0
   38.1162   23.1736   32.6315 H   0  0  0  0  0  0  0  0  0  0  0  0
  1  5  1  0
  2  3  1  0
  2 10  1  0
  4  3  2  0
  5  6  1  0
  5  4  1  0
  6  2  2  0
  7 14  1  0
  7  8  2  0
  9  8  1  0
 10  9  2  0
 11 10  1  0
 11  7  1  0
 12 13  2  0
 14 13  1  0
 15 16  1  0
 15 14  2  0
 16 17  2  0
 17 12  1  0
 18  1  1  0
 19 20  1  0
 19  1  1  0
 20 21  1  0
 21 22  2  0
 23 22  1  0
 24 20  1  0
 24 23  2  0
 25 24  1  0
 25 30  1  0
 26 25  2  0
 27 26  1  0
 27 28  2  0
 28 29  1  0
 29 30  2  0
  1 31  1  1
  3 32  1  0
  4 33  1  0
  8 34  1  0
 11 35  1  0
 12 36  1  0
 13 37  1  0
 16 38  1  0
 18 39  1  0
 18 40  1  0
 18 41  1  0
 19 42  1  0
 19 43  1  0
 21 44  1  0
 22 45  1  0
 26 46  1  0
 27 47  1  0
 28 48  1  0
 29 49  1  0
 30 50  1  0
M  ISO  8  31   8  32  14  33  14  34  14  35   9  36  14  37  14  38  14
M  ISO  8  39   8  40   8  41   8  42   8  43   8  44  14  45  14  46  14
M  ISO  4  47  14  48  14  49  14  50  14
M  END
>  <minimizedAffinity>  (1) 
-5.2208581

>  <minimizedRMSD>  (1) 
1.32733727

$$$$
