
     RDKit          3D

 49 53  0  0  1  0  0  0  0  0999 V2000
   38.2680   25.7370   34.7610 C   0  0  0  0  0  0  0  0  0  0  0  0
   37.2210   26.5830   35.0570 C   0  0  0  0  0  0  0  0  0  0  0  0
   36.9740   27.4670   34.0480 C   0  0  0  0  0  0  0  0  0  0  0  0
   37.8800   27.1550   33.1310 N   0  0  0  0  0  0  0  0  0  0  0  0
   38.6360   26.1540   33.5330 N   0  0  0  0  0  0  0  0  0  0  0  0
   40.0870   23.0430   36.2140 C   0  0  0  0  0  0  0  0  0  0  0  0
   39.1160   23.2480   37.1980 C   0  0  0  0  0  0  0  0  0  0  0  0
   38.3470   24.2720   36.7520 N   0  0  0  0  0  0  0  0  0  0  0  0
   38.8570   24.6430   35.5570 C   0  0  0  0  0  0  0  0  0  0  0  0
   39.8950   23.9300   35.2070 N   0  0  0  0  0  0  0  0  0  0  0  0
   42.4410   20.5100   37.5880 C   0  0  0  0  0  0  0  0  0  0  0  0
   41.4410   21.4880   37.5420 C   0  0  0  0  0  0  0  0  0  0  0  0
   41.1300   22.0200   36.2950 C   0  0  0  0  0  0  0  0  0  0  0  0
   41.7980   21.5750   35.1750 N   0  0  0  0  0  0  0  0  0  0  0  0
   42.7410   20.6380   35.3000 C   0  0  0  0  0  0  0  0  0  0  0  0
   43.0630   20.1110   36.4710 N   0  0  0  0  0  0  0  0  0  0  0  0
   38.1510   27.7110   31.8400 C   0  0  1  0  0  0  0  0  0  0  0  0
   39.6300   27.4600   31.4980 C   0  0  0  0  0  0  0  0  0  0  0  0
   37.3690   27.1310   30.7400 C   0  0  0  0  0  0  0  0  0  0  0  0
   36.5950   25.9850   30.8760 N   0  0  0  0  0  0  0  0  0  0  0  0
   35.2470   26.0320   31.0920 C   0  0  0  0  0  0  0  0  0  0  0  0
   34.6910   24.7840   31.1730 C   0  0  0  0  0  0  0  0  0  0  0  0
   35.7380   23.9370   31.0020 N   0  0  0  0  0  0  0  0  0  0  0  0
   36.8150   24.6880   30.8320 C   0  0  0  0  0  0  0  0  0  0  0  0
   37.9870   23.8620   30.6020 C   0  0  0  0  0  0  0  0  0  0  0  0
   37.9210   22.4810   30.8540 C   0  0  0  0  0  0  0  0  0  0  0  0
   38.9210   21.5450   30.6790 C   0  0  0  0  0  0  0  0  0  0  0  0
   40.1190   22.0330   30.2020 C   0  0  0  0  0  0  0  0  0  0  0  0
   40.2050   23.3700   29.9510 C   0  0  0  0  0  0  0  0  0  0  0  0
   39.2150   24.2190   30.1360 N   0  0  0  0  0  0  0  0  0  0  0  0
   36.6511   26.5493   35.9972 H   0  0  0  0  0  0  0  0  0  0  0  0
   36.2053   28.2527   34.0050 H   0  0  0  0  0  0  0  0  0  0  0  0
   38.9995   22.6929   38.1405 H   0  0  0  0  0  0  0  0  0  0  0  0
   40.4514   24.0228   34.3452 H   0  0  0  0  0  0  0  0  0  0  0  0
   42.7197   20.0633   38.5538 H   0  0  0  0  0  0  0  0  0  0  0  0
   40.9230   21.8218   38.4532 H   0  0  0  0  0  0  0  0  0  0  0  0
   43.2685   20.2920   34.3989 H   0  0  0  0  0  0  0  0  0  0  0  0
   37.8817   28.7747   31.9178 H   0  0  0  0  0  0  0  0  0  0  0  0
   40.2097   27.3616   32.4276 H   0  0  0  0  0  0  0  0  0  0  0  0
   39.7185   26.5340   30.9109 H   0  0  0  0  0  0  0  0  0  0  0  0
   40.0191   28.3050   30.9109 H   0  0  0  0  0  0  0  0  0  0  0  0
   38.0905   26.9143   29.9385 H   0  0  0  0  0  0  0  0  0  0  0  0
   36.5953   27.8994   30.5953 H   0  0  0  0  0  0  0  0  0  0  0  0
   34.6740   26.9659   31.1896 H   0  0  0  0  0  0  0  0  0  0  0  0
   33.6347   24.5257   31.3391 H   0  0  0  0  0  0  0  0  0  0  0  0
   36.9613   22.1017   31.2349 H   0  0  0  0  0  0  0  0  0  0  0  0
   38.7715   20.4790   30.9055 H   0  0  0  0  0  0  0  0  0  0  0  0
   40.9765   21.3659   30.0298 H   0  0  0  0  0  0  0  0  0  0  0  0
   41.1591   23.7639   29.5709 H   0  0  0  0  0  0  0  0  0  0  0  0
  1  2  1  0
  1  9  1  0
  3  2  2  0
  4  5  1  0
  4  3  1  0
  5  1  2  0
  6 13  1  0
  6  7  2  0
  8  7  1  0
  9  8  2  0
 10  9  1  0
 10  6  1  0
 12 11  2  0
 13 12  1  0
 14 15  1  0
 14 13  2  0
 15 16  2  0
 16 11  1  0
 17  4  1  0
 18 17  1  0
 19 20  1  0
 19 17  1  0
 20 21  1  0
 21 22  2  0
 23 22  1  0
 24 20  1  0
 24 23  2  0
 25 24  1  0
 25 26  2  0
 27 26  1  0
 28 27  2  0
 29 30  2  0
 29 28  1  0
 30 25  1  0
  2 31  1  0
  3 32  1  0
  7 33  1  0
 10 34  1  0
 11 35  1  0
 12 36  1  0
 15 37  1  0
 17 38  1  1
 18 39  1  0
 18 40  1  0
 18 41  1  0
 19 42  1  0
 19 43  1  0
 21 44  1  0
 22 45  1  0
 26 46  1  0
 27 47  1  0
 28 48  1  0
 29 49  1  0
M  ISO  8  31  14  32  14  33  14  34   9  35  14  36  14  37  14  38   8
M  ISO  8  39   8  40   8  41   8  42   8  43   8  44  14  45  14  46  14
M  ISO  3  47  14  48  14  49  14
M  END
>  <minimizedAffinity>  (1) 
-5.18328428

>  <minimizedRMSD>  (1) 
1.47978616

$$$$
