
     RDKit          3D

 41 44  0  0  1  0  0  0  0  0999 V2000
   37.9800   26.0280   34.7590 C   0  0  0  0  0  0  0  0  0  0  0  0
   37.0710   26.9880   35.1410 C   0  0  0  0  0  0  0  0  0  0  0  0
   36.7260   27.8070   34.1070 C   0  0  0  0  0  0  0  0  0  0  0  0
   37.4350   27.3370   33.0870 N   0  0  0  0  0  0  0  0  0  0  0  0
   38.1670   26.3050   33.4520 N   0  0  0  0  0  0  0  0  0  0  0  0
   39.9320   23.4510   36.2380 C   0  0  0  0  0  0  0  0  0  0  0  0
   38.8730   23.5030   37.1410 C   0  0  0  0  0  0  0  0  0  0  0  0
   38.0430   24.4670   36.6810 N   0  0  0  0  0  0  0  0  0  0  0  0
   38.6090   24.9550   35.5500 C   0  0  0  0  0  0  0  0  0  0  0  0
   39.7380   24.3680   35.2590 N   0  0  0  0  0  0  0  0  0  0  0  0
   42.2290   20.8220   37.5400 C   0  0  0  0  0  0  0  0  0  0  0  0
   41.1110   21.6950   37.4700 C   0  0  0  0  0  0  0  0  0  0  0  0
   41.0700   22.5340   36.3560 C   0  0  0  0  0  0  0  0  0  0  0  0
   42.0750   22.4780   35.4140 N   0  0  0  0  0  0  0  0  0  0  0  0
   43.0900   21.6390   35.5420 C   0  0  0  0  0  0  0  0  0  0  0  0
   43.1810   20.8120   36.5890 N   0  0  0  0  0  0  0  0  0  0  0  0
   37.5220   27.7600   31.7230 C   0  0  1  0  0  0  0  0  0  0  0  0
   38.9690   27.5990   31.2340 C   0  0  0  0  0  0  0  0  0  0  0  0
   36.6680   26.9960   30.7940 C   0  0  0  0  0  0  0  0  0  0  0  0
   36.5040   25.6150   30.8980 N   0  0  0  0  0  0  0  0  0  0  0  0
   35.4000   25.0640   31.4840 C   0  0  0  0  0  0  0  0  0  0  0  0
   35.4370   23.6920   31.4670 C   0  0  0  0  0  0  0  0  0  0  0  0
   36.6060   23.3810   30.8480 N   0  0  0  0  0  0  0  0  0  0  0  0
   37.1790   24.5330   30.5430 C   0  0  0  0  0  0  0  0  0  0  0  0
   38.3980   24.4500   29.8950 O   0  0  0  0  0  0  0  0  0  0  0  0
   36.6699   27.0834   36.1608 H   0  0  0  0  0  0  0  0  0  0  0  0
   36.0263   28.6558   34.1155 H   0  0  0  0  0  0  0  0  0  0  0  0
   38.7391   22.8871   38.0425 H   0  0  0  0  0  0  0  0  0  0  0  0
   40.3520   24.5610   34.4549 H   0  0  0  0  0  0  0  0  0  0  0  0
   42.3192   20.1354   38.3947 H   0  0  0  0  0  0  0  0  0  0  0  0
   40.3288   21.7088   38.2433 H   0  0  0  0  0  0  0  0  0  0  0  0
   43.8749   21.6213   34.7716 H   0  0  0  0  0  0  0  0  0  0  0  0
   37.1780   28.8048   31.7171 H   0  0  0  0  0  0  0  0  0  0  0  0
   39.6426   27.5240   32.1004 H   0  0  0  0  0  0  0  0  0  0  0  0
   39.0510   26.6862   30.6257 H   0  0  0  0  0  0  0  0  0  0  0  0
   39.2497   28.4715   30.6257 H   0  0  0  0  0  0  0  0  0  0  0  0
   37.0680   27.1822   29.7864 H   0  0  0  0  0  0  0  0  0  0  0  0
   35.6642   27.3648   31.0516 H   0  0  0  0  0  0  0  0  0  0  0  0
   34.5776   25.6511   31.9187 H   0  0  0  0  0  0  0  0  0  0  0  0
   34.6847   22.9963   31.8670 H   0  0  0  0  0  0  0  0  0  0  0  0
   38.8796   25.2761   29.6387 H   0  0  0  0  0  0  0  0  0  0  0  0
  1  2  1  0
  1  9  1  0
  3  2  2  0
  4  5  1  0
  4  3  1  0
  5  1  2  0
  6 13  1  0
  6  7  2  0
  8  7  1  0
  9  8  2  0
 10  9  1  0
 10  6  1  0
 12 11  2  0
 13 12  1  0
 14 15  1  0
 14 13  2  0
 15 16  2  0
 16 11  1  0
 17  4  1  0
 18 17  1  0
 19 20  1  0
 19 17  1  0
 20 21  1  0
 22 21  2  0
 23 22  1  0
 24 23  2  0
 24 20  1  0
 25 24  1  0
  2 26  1  0
  3 27  1  0
  7 28  1  0
 10 29  1  0
 11 30  1  0
 12 31  1  0
 15 32  1  0
 17 33  1  1
 18 34  1  0
 18 35  1  0
 18 36  1  0
 19 37  1  0
 19 38  1  0
 21 39  1  0
 22 40  1  0
 25 41  1  0
M  ISO  8  26  14  27  14  28  14  29   9  30  14  31  14  32  14  33   8
M  ISO  8  34   8  35   8  36   8  37   8  38   8  39  14  40  14  41   3
M  END
>  <minimizedAffinity>  (1) 
-5.07175398

>  <minimizedRMSD>  (1) 
0.576622486

$$$$
