
     RDKit          3D

 49 52  0  0  1  0  0  0  0  0999 V2000
   37.9150   26.0010   34.7700 C   0  0  0  0  0  0  0  0  0  0  0  0
   37.0300   26.9820   35.1590 C   0  0  0  0  0  0  0  0  0  0  0  0
   36.6870   27.8000   34.1240 C   0  0  0  0  0  0  0  0  0  0  0  0
   37.3700   27.3130   33.0970 N   0  0  0  0  0  0  0  0  0  0  0  0
   38.0890   26.2640   33.4610 N   0  0  0  0  0  0  0  0  0  0  0  0
   39.7950   23.3380   36.2070 C   0  0  0  0  0  0  0  0  0  0  0  0
   38.8200   23.5160   37.1910 C   0  0  0  0  0  0  0  0  0  0  0  0
   38.0270   24.5270   36.7520 N   0  0  0  0  0  0  0  0  0  0  0  0
   38.5330   24.9120   35.5560 C   0  0  0  0  0  0  0  0  0  0  0  0
   39.5840   24.2270   35.2000 N   0  0  0  0  0  0  0  0  0  0  0  0
   42.1810   20.8230   37.5550 C   0  0  0  0  0  0  0  0  0  0  0  0
   41.1560   21.7750   37.5150 C   0  0  0  0  0  0  0  0  0  0  0  0
   40.8590   22.3380   36.2760 C   0  0  0  0  0  0  0  0  0  0  0  0
   41.5670   21.9480   35.1590 N   0  0  0  0  0  0  0  0  0  0  0  0
   42.5300   21.0320   35.2820 C   0  0  0  0  0  0  0  0  0  0  0  0
   42.8390   20.4760   36.4450 N   0  0  0  0  0  0  0  0  0  0  0  0
   37.4590   27.7270   31.7270 C   0  0  1  0  0  0  0  0  0  0  0  0
   38.9250   27.6830   31.3110 C   0  0  0  0  0  0  0  0  0  0  0  0
   36.7330   26.8850   30.7750 C   0  0  0  0  0  0  0  0  0  0  0  0
   36.6150   25.5110   30.8940 N   0  0  0  0  0  0  0  0  0  0  0  0
   35.4410   24.9230   31.3220 C   0  0  0  0  0  0  0  0  0  0  0  0
   35.5330   23.5630   31.3690 C   0  0  0  0  0  0  0  0  0  0  0  0
   36.7940   23.3110   30.9620 N   0  0  0  0  0  0  0  0  0  0  0  0
   37.4010   24.4720   30.6870 C   0  0  0  0  0  0  0  0  0  0  0  0
   38.7640   24.3370   30.1420 C   0  0  0  0  0  0  0  0  0  0  0  0
   39.8060   24.0500   31.2840 C   0  0  0  0  0  0  0  0  0  0  0  0
   38.9680   23.0630   29.3310 C   0  0  0  0  0  0  0  0  0  0  0  0
   36.6455   27.0923   36.1837 H   0  0  0  0  0  0  0  0  0  0  0  0
   36.0038   28.6620   34.1375 H   0  0  0  0  0  0  0  0  0  0  0  0
   38.7158   22.9523   38.1298 H   0  0  0  0  0  0  0  0  0  0  0  0
   40.1373   24.3363   34.3382 H   0  0  0  0  0  0  0  0  0  0  0  0
   42.4486   20.3540   38.5133 H   0  0  0  0  0  0  0  0  0  0  0  0
   40.6082   22.0663   38.4233 H   0  0  0  0  0  0  0  0  0  0  0  0
   43.0882   20.7270   34.3846 H   0  0  0  0  0  0  0  0  0  0  0  0
   37.0062   28.7288   31.6910 H   0  0  0  0  0  0  0  0  0  0  0  0
   39.5605   27.6639   32.2087 H   0  0  0  0  0  0  0  0  0  0  0  0
   39.1092   26.7789   30.7121 H   0  0  0  0  0  0  0  0  0  0  0  0
   39.1631   28.5744   30.7121 H   0  0  0  0  0  0  0  0  0  0  0  0
   37.2077   27.0606   29.7983 H   0  0  0  0  0  0  0  0  0  0  0  0
   35.6964   27.2022   30.9614 H   0  0  0  0  0  0  0  0  0  0  0  0
   34.5362   25.4864   31.5936 H   0  0  0  0  0  0  0  0  0  0  0  0
   34.7596   22.8405   31.6688 H   0  0  0  0  0  0  0  0  0  0  0  0
   38.8929   25.2703   29.5743 H   0  0  0  0  0  0  0  0  0  0  0  0
   39.3228   24.1831   32.2632 H   0  0  0  0  0  0  0  0  0  0  0  0
   40.1736   23.0172   31.1939 H   0  0  0  0  0  0  0  0  0  0  0  0
   40.6506   24.7490   31.1939 H   0  0  0  0  0  0  0  0  0  0  0  0
   39.1043   22.2115   30.0139 H   0  0  0  0  0  0  0  0  0  0  0  0
   38.0866   22.8869   28.6968 H   0  0  0  0  0  0  0  0  0  0  0  0
   39.8603   23.1710   28.6968 H   0  0  0  0  0  0  0  0  0  0  0  0
  1  2  1  0
  1  9  1  0
  3  2  2  0
  4  5  1  0
  4  3  1  0
  5  1  2  0
  6 13  1  0
  6  7  2  0
  8  7  1  0
  9  8  2  0
 10  9  1  0
 10  6  1  0
 12 11  2  0
 13 12  1  0
 14 15  1  0
 14 13  2  0
 15 16  2  0
 16 11  1  0
 17  4  1  0
 18 17  1  0
 19 20  1  0
 19 17  1  0
 20 21  1  0
 21 22  2  0
 23 22  1  0
 24 20  1  0
 24 23  2  0
 25 24  1  0
 25 26  1  0
 27 25  1  0
  2 28  1  0
  3 29  1  0
  7 30  1  0
 10 31  1  0
 11 32  1  0
 12 33  1  0
 15 34  1  0
 17 35  1  1
 18 36  1  0
 18 37  1  0
 18 38  1  0
 19 39  1  0
 19 40  1  0
 21 41  1  0
 22 42  1  0
 25 43  1  0
 26 44  1  0
 26 45  1  0
 26 46  1  0
 27 47  1  0
 27 48  1  0
 27 49  1  0
M  ISO  8  28  14  29  14  30  14  31   9  32  14  33  14  34  14  35   8
M  ISO  8  36   8  37   8  38   8  39   8  40   8  41  14  42  14  43   8
M  ISO  6  44   8  45   8  46   8  47   8  48   8  49   8
M  END
>  <minimizedAffinity>  (1) 
-5.07986212

>  <minimizedRMSD>  (1) 
0.625253558

$$$$
