
     RDKit          3D

 36 38  0  0  1  0  0  0  0  0999 V2000
   39.8450   23.6410   35.8860 C   0  0  1  0  0  0  0  0  0  0  0  0
   41.3280   23.7030   36.0420 C   0  0  0  0  0  0  0  0  0  0  0  0
   41.6620   22.7290   37.1680 C   0  0  1  0  0  0  0  0  0  0  0  0
   40.3710   22.0260   37.4880 C   0  0  0  0  0  0  0  0  0  0  0  0
   39.4080   23.1960   37.2850 C   0  0  0  0  0  0  0  0  0  0  0  0
   37.8460   25.1390   35.5760 C   0  0  0  0  0  0  0  0  0  0  0  0
   39.2190   24.9060   35.4650 C   0  0  0  0  0  0  0  0  0  0  0  0
   40.0470   25.9230   34.9170 C   0  0  0  0  0  0  0  0  0  0  0  0
   39.4640   27.0800   34.5240 N   0  0  0  0  0  0  0  0  0  0  0  0
   38.1220   27.2660   34.6500 C   0  0  0  0  0  0  0  0  0  0  0  0
   37.3360   26.3090   35.1670 N   0  0  0  0  0  0  0  0  0  0  0  0
   44.7170   20.0170   36.0070 C   0  0  0  0  0  0  0  0  0  0  0  0
   44.8000   21.3390   35.6170 C   0  0  0  0  0  0  0  0  0  0  0  0
   43.7860   22.2200   36.0080 C   0  0  0  0  0  0  0  0  0  0  0  0
   42.7270   21.7770   36.7650 C   0  0  0  0  0  0  0  0  0  0  0  0
   42.6710   20.4330   37.1440 C   0  0  0  0  0  0  0  0  0  0  0  0
   43.6660   19.5440   36.7680 C   0  0  0  0  0  0  0  0  0  0  0  0
   46.0040   18.9220   35.5060 S   0  0  0  0  0  0  0  0  0  0  0  0
   45.4700   17.6470   34.9430 O   0  0  0  0  0  0  0  0  0  0  0  0
   46.9340   18.6290   36.6570 O   0  0  0  0  0  0  0  0  0  0  0  0
   39.5315   22.9661   35.0759 H   0  0  0  0  0  0  0  0  0  0  0  0
   41.8255   23.3976   35.1097 H   0  0  0  0  0  0  0  0  0  0  0  0
   41.6715   24.7228   36.2701 H   0  0  0  0  0  0  0  0  0  0  0  0
   42.0604   23.2502   38.0510 H   0  0  0  0  0  0  0  0  0  0  0  0
   40.1679   21.1986   36.7922 H   0  0  0  0  0  0  0  0  0  0  0  0
   40.3270   21.5415   38.4745 H   0  0  0  0  0  0  0  0  0  0  0  0
   39.5598   23.9874   38.0337 H   0  0  0  0  0  0  0  0  0  0  0  0
   38.3411   22.9481   37.3862 H   0  0  0  0  0  0  0  0  0  0  0  0
   37.1866   24.3658   35.9971 H   0  0  0  0  0  0  0  0  0  0  0  0
   41.1321   25.7741   34.8150 H   0  0  0  0  0  0  0  0  0  0  0  0
   37.6742   28.2160   34.3229 H   0  0  0  0  0  0  0  0  0  0  0  0
   45.6470   21.6926   35.0107 H   0  0  0  0  0  0  0  0  0  0  0  0
   43.8364   23.2768   35.7071 H   0  0  0  0  0  0  0  0  0  0  0  0
   41.8251   20.0754   37.7495 H   0  0  0  0  0  0  0  0  0  0  0  0
   43.6196   18.4869   37.0686 H   0  0  0  0  0  0  0  0  0  0  0  0
   46.7031   19.5554   34.5125 H   0  0  0  0  0  0  0  0  0  0  0  0
  1  2  1  0
  1  5  1  0
  2  3  1  0
  3  4  1  0
  5  4  1  0
  7  6  2  0
  7  1  1  0
  8  7  1  0
  9 10  1  0
  9  8  2  0
 10 11  2  0
 11  6  1  0
 12 17  2  0
 13 12  1  0
 13 14  2  0
 14 15  1  0
 15 16  2  0
 15  3  1  0
 17 16  1  0
 18 12  1  0
 18 20  2  0
 19 18  2  0
  1 21  1  6
  2 22  1  0
  2 23  1  0
  3 24  1  1
  4 25  1  0
  4 26  1  0
  5 27  1  0
  5 28  1  0
  6 29  1  0
  8 30  1  0
 10 31  1  0
 13 32  1  0
 14 33  1  0
 16 34  1  0
 17 35  1  0
 18 36  1  0
M  ISO  8  21  13  22  13  23  13  24  13  25  13  26  13  27  13  28  13
M  ISO  8  29  14  30  14  31  14  32  14  33  14  34  14  35  14  36  11
M  END
>  <minimizedAffinity>  (1) 
-4.24556208

>  <minimizedRMSD>  (1) 
1.25058639

$$$$
