
     RDKit          3D

 37 40  0  0  1  0  0  0  0  0999 V2000
   39.1180   24.1190   35.4790 C   0  0  1  0  0  0  0  0  0  0  0  0
   40.6130   24.2070   35.4050 C   0  0  0  0  0  0  0  0  0  0  0  0
   41.1060   23.1640   36.3740 C   0  0  1  0  0  0  0  0  0  0  0  0
   39.9340   22.5330   37.0210 C   0  0  0  0  0  0  0  0  0  0  0  0
   38.9150   23.6660   36.9170 C   0  0  0  0  0  0  0  0  0  0  0  0
   42.2770   22.4160   36.0350 C   0  0  0  0  0  0  0  0  0  0  0  0
   42.2860   21.1690   35.4670 N   0  0  0  0  0  0  0  0  0  0  0  0
   43.3590   20.4860   35.1270 C   0  0  0  0  0  0  0  0  0  0  0  0
   44.6110   20.9240   35.2930 N   0  0  0  0  0  0  0  0  0  0  0  0
   44.7360   22.1500   35.8480 C   0  0  0  0  0  0  0  0  0  0  0  0
   45.9970   22.6610   36.0590 C   0  0  0  0  0  0  0  0  0  0  0  0
   46.1730   23.9020   36.6310 C   0  0  0  0  0  0  0  0  0  0  0  0
   45.0510   24.6500   37.0040 C   0  0  0  0  0  0  0  0  0  0  0  0
   43.8210   24.0920   36.7710 C   0  0  0  0  0  0  0  0  0  0  0  0
   43.5830   22.8590   36.2020 C   0  0  0  0  0  0  0  0  0  0  0  0
   38.4710   26.4910   35.9680 C   0  0  0  0  0  0  0  0  0  0  0  0
   38.4250   25.3610   35.1490 C   0  0  0  0  0  0  0  0  0  0  0  0
   37.6620   25.4140   33.9550 C   0  0  0  0  0  0  0  0  0  0  0  0
   37.0080   26.5580   33.6570 N   0  0  0  0  0  0  0  0  0  0  0  0
   37.0730   27.6430   34.4770 C   0  0  0  0  0  0  0  0  0  0  0  0
   37.8040   27.6070   35.6260 N   0  0  0  0  0  0  0  0  0  0  0  0
   38.6845   23.4374   34.7324 H   0  0  0  0  0  0  0  0  0  0  0  0
   40.9646   23.9870   34.3862 H   0  0  0  0  0  0  0  0  0  0  0  0
   40.9834   25.2128   35.6521 H   0  0  0  0  0  0  0  0  0  0  0  0
   41.6625   23.6402   37.1947 H   0  0  0  0  0  0  0  0  0  0  0  0
   39.6023   21.6372   36.4755 H   0  0  0  0  0  0  0  0  0  0  0  0
   40.1146   22.1715   38.0441 H   0  0  0  0  0  0  0  0  0  0  0  0
   39.1377   24.4744   37.6290 H   0  0  0  0  0  0  0  0  0  0  0  0
   37.8832   23.3668   37.1535 H   0  0  0  0  0  0  0  0  0  0  0  0
   43.2162   19.4921   34.6779 H   0  0  0  0  0  0  0  0  0  0  0  0
   46.8771   22.0696   35.7665 H   0  0  0  0  0  0  0  0  0  0  0  0
   47.1854   24.3007   36.7928 H   0  0  0  0  0  0  0  0  0  0  0  0
   45.1518   25.6438   37.4647 H   0  0  0  0  0  0  0  0  0  0  0  0
   42.9414   24.6833   37.0656 H   0  0  0  0  0  0  0  0  0  0  0  0
   39.0567   26.4679   36.8988 H   0  0  0  0  0  0  0  0  0  0  0  0
   37.6039   24.5427   33.2860 H   0  0  0  0  0  0  0  0  0  0  0  0
   36.5284   28.5602   34.2083 H   0  0  0  0  0  0  0  0  0  0  0  0
  1  5  1  0
  2  1  1  0
  2  3  1  0
  3  4  1  0
  5  4  1  0
  6 15  1  0
  6  3  1  0
  7  6  2  0
  8  9  2  0
  8  7  1  0
  9 10  1  0
 10 11  1  0
 10 15  2  0
 11 12  2  0
 12 13  1  0
 14 13  2  0
 15 14  1  0
 17  1  1  0
 17 16  2  0
 18 17  1  0
 19 18  2  0
 19 20  1  0
 20 21  2  0
 21 16  1  0
  1 22  1  6
  2 23  1  0
  2 24  1  0
  3 25  1  1
  4 26  1  0
  4 27  1  0
  5 28  1  0
  5 29  1  0
  8 30  1  0
 11 31  1  0
 12 32  1  0
 13 33  1  0
 14 34  1  0
 16 35  1  0
 18 36  1  0
 20 37  1  0
M  ISO  8  22  13  23  13  24  13  25  13  26  13  27  13  28  13  29  13
M  ISO  8  30  14  31  14  32  14  33  14  34  14  35  14  36  14  37  14
M  END
>  <minimizedAffinity>  (1) 
-5.13735819

>  <minimizedRMSD>  (1) 
2.31975031

$$$$
