
     RDKit          3D

 26 27  0  0  1  0  0  0  0  0999 V2000
   38.6520   24.8130   35.0860 C   0  0  1  0  0  0  0  0  0  0  0  0
   39.1560   23.4350   35.3440 C   0  0  0  0  0  0  0  0  0  0  0  0
   38.4420   22.9640   36.6080 C   0  0  2  0  0  0  0  0  0  0  0  0
   37.4410   24.0430   36.9350 C   0  0  0  0  0  0  0  0  0  0  0  0
   38.2210   25.2680   36.4750 C   0  0  0  0  0  0  0  0  0  0  0  0
   39.2830   26.5510   33.3990 C   0  0  0  0  0  0  0  0  0  0  0  0
   39.6210   25.7030   34.4560 C   0  0  0  0  0  0  0  0  0  0  0  0
   40.9510   25.7060   34.9140 C   0  0  0  0  0  0  0  0  0  0  0  0
   41.8540   26.5250   34.3170 N   0  0  0  0  0  0  0  0  0  0  0  0
   41.4960   27.3410   33.2900 C   0  0  0  0  0  0  0  0  0  0  0  0
   40.2120   27.3480   32.8370 N   0  0  0  0  0  0  0  0  0  0  0  0
   39.4530   22.8820   37.6860 C   0  0  0  0  0  0  0  0  0  0  0  0
   40.6690   22.8080   37.4130 O   0  0  0  0  0  0  0  0  0  0  0  0
   39.0660   22.8850   39.0220 O   0  0  0  0  0  0  0  0  0  0  0  0
   37.8373   24.8314   34.3471 H   0  0  0  0  0  0  0  0  0  0  0  0
   38.9151   22.7739   34.4985 H   0  0  0  0  0  0  0  0  0  0  0  0
   40.2492   23.4186   35.4652 H   0  0  0  0  0  0  0  0  0  0  0  0
   37.9509   21.9868   36.4900 H   0  0  0  0  0  0  0  0  0  0  0  0
   36.5054   23.9179   36.3702 H   0  0  0  0  0  0  0  0  0  0  0  0
   37.1104   24.0687   37.9838 H   0  0  0  0  0  0  0  0  0  0  0  0
   39.0862   25.4667   37.1245 H   0  0  0  0  0  0  0  0  0  0  0  0
   37.6520   26.2092   36.4945 H   0  0  0  0  0  0  0  0  0  0  0  0
   38.2496   26.5681   33.0224 H   0  0  0  0  0  0  0  0  0  0  0  0
   41.2554   25.0530   35.7453 H   0  0  0  0  0  0  0  0  0  0  0  0
   42.2457   27.9973   32.8239 H   0  0  0  0  0  0  0  0  0  0  0  0
   39.7500   22.8298   39.7356 H   0  0  0  0  0  0  0  0  0  0  0  0
  1  2  1  0
  1  5  1  0
  2  3  1  0
  3  4  1  0
  3 12  1  0
  5  4  1  0
  6  7  2  0
  7  8  1  0
  7  1  1  0
  9  8  2  0
 10  9  1  0
 11 10  2  0
 11  6  1  0
 12 14  1  0
 13 12  2  0
  1 15  1  6
  2 16  1  0
  2 17  1  0
  3 18  1  6
  4 19  1  0
  4 20  1  0
  5 21  1  0
  5 22  1  0
  6 23  1  0
  8 24  1  0
 10 25  1  0
 14 26  1  0
M  ISO  8  15  13  16  13  17  13  18  13  19  13  20  13  21  13  22  13
M  ISO  4  23  14  24  14  25  14  26   3
M  END
>  <minimizedAffinity>  (1) 
-4.03343821

>  <minimizedRMSD>  (1) 
3.21146369

$$$$
