
     RDKit          3D

 33 35  0  0  1  0  0  0  0  0999 V2000
   39.5170   23.4220   35.7970 C   0  0  1  0  0  0  0  0  0  0  0  0
   40.9860   23.6320   35.5910 C   0  0  0  0  0  0  0  0  0  0  0  0
   41.6720   22.9320   36.7450 C   0  0  1  0  0  0  0  0  0  0  0  0
   40.5600   22.2000   37.4840 C   0  0  0  0  0  0  0  0  0  0  0  0
   39.4690   23.2570   37.3140 C   0  0  0  0  0  0  0  0  0  0  0  0
   38.3590   25.6480   36.0910 C   0  0  0  0  0  0  0  0  0  0  0  0
   38.6870   24.5410   35.3060 C   0  0  0  0  0  0  0  0  0  0  0  0
   38.2000   24.4720   33.9730 C   0  0  0  0  0  0  0  0  0  0  0  0
   37.4430   25.5040   33.5580 N   0  0  0  0  0  0  0  0  0  0  0  0
   37.1400   26.5590   34.3260 C   0  0  0  0  0  0  0  0  0  0  0  0
   37.6010   26.6210   35.5840 N   0  0  0  0  0  0  0  0  0  0  0  0
   42.7640   22.0850   36.3600 N   0  0  0  0  0  0  0  0  0  0  0  0
   42.5730   20.8070   36.0570 C   0  0  0  0  0  0  0  0  0  0  0  0
   43.6790   20.0380   35.6890 C   0  0  0  0  0  0  0  0  0  0  0  0
   44.9290   20.6060   35.6470 C   0  0  0  0  0  0  0  0  0  0  0  0
   45.9670   19.9600   35.3220 O   0  0  0  0  0  0  0  0  0  0  0  0
   45.1430   21.9030   35.9510 N   0  0  0  0  0  0  0  0  0  0  0  0
   44.0290   22.5980   36.3010 C   0  0  0  0  0  0  0  0  0  0  0  0
   44.1790   23.8300   36.5990 O   0  0  0  0  0  0  0  0  0  0  0  0
   39.1009   22.5735   35.2341 H   0  0  0  0  0  0  0  0  0  0  0  0
   41.3045   23.1934   34.6338 H   0  0  0  0  0  0  0  0  0  0  0  0
   41.2402   24.7018   35.5594 H   0  0  0  0  0  0  0  0  0  0  0  0
   42.1769   23.6600   37.3970 H   0  0  0  0  0  0  0  0  0  0  0  0
   40.2963   21.2464   37.0032 H   0  0  0  0  0  0  0  0  0  0  0  0
   40.7831   21.8948   38.5170 H   0  0  0  0  0  0  0  0  0  0  0  0
   39.7178   24.1921   37.8371 H   0  0  0  0  0  0  0  0  0  0  0  0
   38.4855   22.9870   37.7260 H   0  0  0  0  0  0  0  0  0  0  0  0
   38.7252   25.7175   37.1259 H   0  0  0  0  0  0  0  0  0  0  0  0
   38.4296   23.6205   33.3155 H   0  0  0  0  0  0  0  0  0  0  0  0
   36.5154   27.3715   33.9263 H   0  0  0  0  0  0  0  0  0  0  0  0
   41.5669   20.3639   36.0949 H   0  0  0  0  0  0  0  0  0  0  0  0
   43.5491   18.9762   35.4325 H   0  0  0  0  0  0  0  0  0  0  0  0
   46.0784   22.3331   35.9202 H   0  0  0  0  0  0  0  0  0  0  0  0
  1  5  1  0
  2  1  1  0
  2  3  1  0
  3  4  1  0
  5  4  1  0
  7  1  1  0
  7  6  2  0
  8  7  1  0
  9  8  2  0
  9 10  1  0
 10 11  2  0
 11  6  1  0
 12  3  1  0
 13 12  1  0
 14 13  2  0
 15 14  1  0
 15 17  1  0
 16 15  2  0
 17 18  1  0
 18 12  1  0
 18 19  2  0
  1 20  1  6
  2 21  1  0
  2 22  1  0
  3 23  1  1
  4 24  1  0
  4 25  1  0
  5 26  1  0
  5 27  1  0
  6 28  1  0
  8 29  1  0
 10 30  1  0
 13 31  1  0
 14 32  1  0
 17 33  1  0
M  ISO  8  20  13  21  13  22  13  23  13  24  13  25  13  26  13  27  13
M  ISO  6  28  14  29  14  30  14  31  14  32  14  33   9
M  END
>  <minimizedAffinity>  (1) 
-4.05297518

>  <minimizedRMSD>  (1) 
1.35121477

$$$$
