
     RDKit          3D

 31 33  0  0  1  0  0  0  0  0999 V2000
   39.7730   23.6330   35.9130 C   0  0  1  0  0  0  0  0  0  0  0  0
   41.2630   23.6340   35.9290 C   0  0  0  0  0  0  0  0  0  0  0  0
   41.6740   22.7070   37.0630 C   0  0  1  0  0  0  0  0  0  0  0  0
   40.3970   22.0660   37.5380 C   0  0  0  0  0  0  0  0  0  0  0  0
   39.4620   23.2630   37.3600 C   0  0  0  0  0  0  0  0  0  0  0  0
   37.8230   25.2370   35.6980 C   0  0  0  0  0  0  0  0  0  0  0  0
   39.1740   24.9270   35.5230 C   0  0  0  0  0  0  0  0  0  0  0  0
   40.0340   25.8970   34.9350 C   0  0  0  0  0  0  0  0  0  0  0  0
   39.4860   27.0840   34.5740 N   0  0  0  0  0  0  0  0  0  0  0  0
   38.1710   27.3410   34.7640 C   0  0  0  0  0  0  0  0  0  0  0  0
   37.3490   26.4340   35.3170 N   0  0  0  0  0  0  0  0  0  0  0  0
   42.7080   21.7450   36.6640 C   0  0  0  0  0  0  0  0  0  0  0  0
   43.7640   21.9810   35.8310 C   0  0  0  0  0  0  0  0  0  0  0  0
   44.6990   21.0070   35.5090 C   0  0  0  0  0  0  0  0  0  0  0  0
   44.5500   19.7770   36.0440 N   0  0  0  0  0  0  0  0  0  0  0  0
   43.5210   19.5170   36.8650 C   0  0  0  0  0  0  0  0  0  0  0  0
   42.6470   20.4740   37.1510 N   0  0  0  0  0  0  0  0  0  0  0  0
   39.3509   22.9489   35.1621 H   0  0  0  0  0  0  0  0  0  0  0  0
   41.6552   23.2622   34.9709 H   0  0  0  0  0  0  0  0  0  0  0  0
   41.6624   24.6485   36.0748 H   0  0  0  0  0  0  0  0  0  0  0  0
   42.1574   23.2583   37.8830 H   0  0  0  0  0  0  0  0  0  0  0  0
   40.1025   21.2131   36.9089 H   0  0  0  0  0  0  0  0  0  0  0  0
   40.4282   21.6305   38.5476 H   0  0  0  0  0  0  0  0  0  0  0  0
   39.7103   24.0809   38.0524 H   0  0  0  0  0  0  0  0  0  0  0  0
   38.4016   23.0559   37.5664 H   0  0  0  0  0  0  0  0  0  0  0  0
   37.1452   24.4977   36.1496 H   0  0  0  0  0  0  0  0  0  0  0  0
   41.1033   25.6915   34.7792 H   0  0  0  0  0  0  0  0  0  0  0  0
   37.7653   28.3166   34.4581 H   0  0  0  0  0  0  0  0  0  0  0  0
   43.8785   22.9852   35.3969 H   0  0  0  0  0  0  0  0  0  0  0  0
   45.5392   21.2317   34.8356 H   0  0  0  0  0  0  0  0  0  0  0  0
   43.4022   18.5136   37.2998 H   0  0  0  0  0  0  0  0  0  0  0  0
  1  2  1  0
  1  5  1  0
  2  3  1  0
  3  4  1  0
  5  4  1  0
  7  6  2  0
  7  1  1  0
  8  7  1  0
  9 10  1  0
  9  8  2  0
 10 11  2  0
 11  6  1  0
 12  3  1  0
 12 17  1  0
 13 12  2  0
 14 13  1  0
 14 15  2  0
 15 16  1  0
 16 17  2  0
  1 18  1  6
  2 19  1  0
  2 20  1  0
  3 21  1  1
  4 22  1  0
  4 23  1  0
  5 24  1  0
  5 25  1  0
  6 26  1  0
  8 27  1  0
 10 28  1  0
 13 29  1  0
 14 30  1  0
 16 31  1  0
M  ISO  8  18  13  19  13  20  13  21  13  22  13  23  13  24  13  25  13
M  ISO  6  26  14  27  14  28  14  29  14  30  14  31  14
M  END
>  <minimizedAffinity>  (1) 
-4.08439541

>  <minimizedRMSD>  (1) 
0.782588065

$$$$
