
     RDKit          3D

 30 32  0  0  1  0  0  0  0  0999 V2000
   39.8680   23.5670   35.9490 C   0  0  1  0  0  0  0  0  0  0  0  0
   41.3640   23.5960   35.8780 C   0  0  0  0  0  0  0  0  0  0  0  0
   41.8240   22.5490   36.8900 C   0  0  1  0  0  0  0  0  0  0  0  0
   40.5720   21.9670   37.4880 C   0  0  0  0  0  0  0  0  0  0  0  0
   39.6440   23.1790   37.4070 C   0  0  0  0  0  0  0  0  0  0  0  0
   37.8860   25.1040   35.7780 C   0  0  0  0  0  0  0  0  0  0  0  0
   39.2480   24.8570   35.5830 C   0  0  0  0  0  0  0  0  0  0  0  0
   40.0580   25.8730   35.0070 C   0  0  0  0  0  0  0  0  0  0  0  0
   39.4550   27.0330   34.6790 N   0  0  0  0  0  0  0  0  0  0  0  0
   38.1280   27.2560   34.8740 C   0  0  0  0  0  0  0  0  0  0  0  0
   37.3600   26.2740   35.4280 N   0  0  0  0  0  0  0  0  0  0  0  0
   42.7040   21.5370   36.2590 C   0  0  0  0  0  0  0  0  0  0  0  0
   42.8980   20.2840   36.8480 C   0  0  0  0  0  0  0  0  0  0  0  0
   43.7710   19.5750   36.0150 C   0  0  0  0  0  0  0  0  0  0  0  0
   44.0680   20.3960   34.9820 N   0  0  0  0  0  0  0  0  0  0  0  0
   43.4280   21.5570   35.1410 N   0  0  0  0  0  0  0  0  0  0  0  0
   39.3997   22.8755   35.2331 H   0  0  0  0  0  0  0  0  0  0  0  0
   41.7089   23.3349   34.8666 H   0  0  0  0  0  0  0  0  0  0  0  0
   41.7705   24.5938   36.0996 H   0  0  0  0  0  0  0  0  0  0  0  0
   42.4441   22.9903   37.6841 H   0  0  0  0  0  0  0  0  0  0  0  0
   40.1917   21.1225   36.8946 H   0  0  0  0  0  0  0  0  0  0  0  0
   40.6951   21.5470   38.4972 H   0  0  0  0  0  0  0  0  0  0  0  0
   39.9516   23.9787   38.0968 H   0  0  0  0  0  0  0  0  0  0  0  0
   38.5973   22.9881   37.6863 H   0  0  0  0  0  0  0  0  0  0  0  0
   37.2467   24.3272   36.2229 H   0  0  0  0  0  0  0  0  0  0  0  0
   41.1336   25.7189   34.8358 H   0  0  0  0  0  0  0  0  0  0  0  0
   37.6783   28.2183   34.5880 H   0  0  0  0  0  0  0  0  0  0  0  0
   42.4503   19.9244   37.7862 H   0  0  0  0  0  0  0  0  0  0  0  0
   44.1426   18.5513   36.1699 H   0  0  0  0  0  0  0  0  0  0  0  0
   44.6906   20.1621   34.1955 H   0  0  0  0  0  0  0  0  0  0  0  0
  1  5  1  0
  2  1  1  0
  2  3  1  0
  3  4  1  0
  5  4  1  0
  7  6  2  0
  7  1  1  0
  8  7  1  0
  9 10  1  0
  9  8  2  0
 10 11  2  0
 11  6  1  0
 12 13  1  0
 12  3  1  0
 14 13  2  0
 15 16  1  0
 15 14  1  0
 16 12  2  0
  1 17  1  6
  2 18  1  0
  2 19  1  0
  3 20  1  1
  4 21  1  0
  4 22  1  0
  5 23  1  0
  5 24  1  0
  6 25  1  0
  8 26  1  0
 10 27  1  0
 13 28  1  0
 14 29  1  0
 15 30  1  0
M  ISO  8  17  13  18  13  19  13  20  13  21  13  22  13  23  13  24  13
M  ISO  6  25  14  26  14  27  14  28  14  29  14  30   9
M  END
>  <minimizedAffinity>  (1) 
-3.86587405

>  <minimizedRMSD>  (1) 
0.572206795

$$$$
