
     RDKit          3D

 32 33  0  0  1  0  0  0  0  0999 V2000
   39.9210   23.5190   35.9510 C   0  0  1  0  0  0  0  0  0  0  0  0
   41.4030   23.4910   35.7480 C   0  0  0  0  0  0  0  0  0  0  0  0
   41.9310   22.5140   36.7980 C   0  0  1  0  0  0  0  0  0  0  0  0
   40.7110   21.9110   37.4430 C   0  0  0  0  0  0  0  0  0  0  0  0
   39.8050   23.1420   37.4280 C   0  0  0  0  0  0  0  0  0  0  0  0
   37.9260   25.0320   35.8130 C   0  0  0  0  0  0  0  0  0  0  0  0
   39.2900   24.7950   35.6280 C   0  0  0  0  0  0  0  0  0  0  0  0
   40.0850   25.8410   35.0880 C   0  0  0  0  0  0  0  0  0  0  0  0
   39.4890   27.0160   34.7790 N   0  0  0  0  0  0  0  0  0  0  0  0
   38.1590   27.2140   34.9720 C   0  0  0  0  0  0  0  0  0  0  0  0
   37.4020   26.2240   35.4830 N   0  0  0  0  0  0  0  0  0  0  0  0
   42.8830   21.5220   36.2160 C   0  0  0  0  0  0  0  0  0  0  0  0
   44.2620   22.0410   35.9740 C   0  0  0  0  0  0  0  0  0  0  0  0
   42.8450   20.2940   37.1060 C   0  0  0  0  0  0  0  0  0  0  0  0
   39.3835   22.8406   35.2722 H   0  0  0  0  0  0  0  0  0  0  0  0
   41.6473   23.1384   34.7351 H   0  0  0  0  0  0  0  0  0  0  0  0
   41.8519   24.4898   35.8521 H   0  0  0  0  0  0  0  0  0  0  0  0
   42.5418   23.0159   37.5629 H   0  0  0  0  0  0  0  0  0  0  0  0
   40.2950   21.0845   36.8481 H   0  0  0  0  0  0  0  0  0  0  0  0
   40.8731   21.4529   38.4298 H   0  0  0  0  0  0  0  0  0  0  0  0
   40.1829   23.9383   38.0861 H   0  0  0  0  0  0  0  0  0  0  0  0
   38.7800   22.9748   37.7906 H   0  0  0  0  0  0  0  0  0  0  0  0
   37.2815   24.2433   36.2285 H   0  0  0  0  0  0  0  0  0  0  0  0
   41.1634   25.6988   34.9243 H   0  0  0  0  0  0  0  0  0  0  0  0
   37.7016   28.1799   34.7117 H   0  0  0  0  0  0  0  0  0  0  0  0
   42.5565   21.2685   35.1966 H   0  0  0  0  0  0  0  0  0  0  0  0
   44.7579   22.2277   36.9380 H   0  0  0  0  0  0  0  0  0  0  0  0
   44.8383   21.2983   35.4029 H   0  0  0  0  0  0  0  0  0  0  0  0
   44.2056   22.9794   35.4029 H   0  0  0  0  0  0  0  0  0  0  0  0
   42.8546   20.6053   38.1610 H   0  0  0  0  0  0  0  0  0  0  0  0
   41.9287   19.7209   36.9012 H   0  0  0  0  0  0  0  0  0  0  0  0
   43.7241   19.6654   36.9012 H   0  0  0  0  0  0  0  0  0  0  0  0
  1  5  1  0
  2  1  1  0
  2  3  1  0
  3  4  1  0
  5  4  1  0
  7  6  2  0
  7  1  1  0
  8  7  1  0
  9 10  1  0
  9  8  2  0
 10 11  2  0
 11  6  1  0
 12  3  1  0
 12 14  1  0
 13 12  1  0
  1 15  1  6
  2 16  1  0
  2 17  1  0
  3 18  1  1
  4 19  1  0
  4 20  1  0
  5 21  1  0
  5 22  1  0
  6 23  1  0
  8 24  1  0
 10 25  1  0
 12 26  1  0
 13 27  1  0
 13 28  1  0
 13 29  1  0
 14 30  1  0
 14 31  1  0
 14 32  1  0
M  ISO  8  15  13  16  13  17  13  18  13  19  13  20  13  21  13  22  13
M  ISO  8  23  14  24  14  25  14  26   8  27   8  28   8  29   8  30   8
M  ISO  2  31   8  32   8
M  END
>  <minimizedAffinity>  (1) 
-3.92272377

>  <minimizedRMSD>  (1) 
0.52948302

$$$$
