
     RDKit          3D

 30 32  0  0  1  0  0  0  0  0999 V2000
   39.9070   23.5900   35.9010 C   0  0  1  0  0  0  0  0  0  0  0  0
   41.4050   23.6170   35.8940 C   0  0  0  0  0  0  0  0  0  0  0  0
   41.8350   22.6670   37.0090 C   0  0  1  0  0  0  0  0  0  0  0  0
   40.5740   21.9790   37.4510 C   0  0  0  0  0  0  0  0  0  0  0  0
   39.6190   23.1690   37.3390 C   0  0  0  0  0  0  0  0  0  0  0  0
   37.9070   25.0790   35.6670 C   0  0  0  0  0  0  0  0  0  0  0  0
   39.2750   24.8460   35.5180 C   0  0  0  0  0  0  0  0  0  0  0  0
   40.0770   25.8700   34.9580 C   0  0  0  0  0  0  0  0  0  0  0  0
   39.4870   27.0320   34.5900 N   0  0  0  0  0  0  0  0  0  0  0  0
   38.1510   27.2280   34.7490 C   0  0  0  0  0  0  0  0  0  0  0  0
   37.3660   26.2520   35.2860 N   0  0  0  0  0  0  0  0  0  0  0  0
   42.8920   21.7400   36.5620 C   0  0  0  0  0  0  0  0  0  0  0  0
   42.9470   20.3860   36.8150 C   0  0  0  0  0  0  0  0  0  0  0  0
   44.0940   19.8970   36.2200 C   0  0  0  0  0  0  0  0  0  0  0  0
   44.6670   21.0200   35.6340 C   0  0  0  0  0  0  0  0  0  0  0  0
   43.9590   22.0820   35.8410 O   0  0  0  0  0  0  0  0  0  0  0  0
   39.4839   22.9129   35.1443 H   0  0  0  0  0  0  0  0  0  0  0  0
   41.7912   23.2711   34.9239 H   0  0  0  0  0  0  0  0  0  0  0  0
   41.7957   24.6333   36.0504 H   0  0  0  0  0  0  0  0  0  0  0  0
   42.2973   23.1975   37.8545 H   0  0  0  0  0  0  0  0  0  0  0  0
   40.2924   21.1561   36.7776 H   0  0  0  0  0  0  0  0  0  0  0  0
   40.6154   21.4892   38.4351 H   0  0  0  0  0  0  0  0  0  0  0  0
   39.8685   23.9641   38.0570 H   0  0  0  0  0  0  0  0  0  0  0  0
   38.5647   22.9449   37.5586 H   0  0  0  0  0  0  0  0  0  0  0  0
   37.2649   24.2975   36.0995 H   0  0  0  0  0  0  0  0  0  0  0  0
   41.1591   25.7242   34.8244 H   0  0  0  0  0  0  0  0  0  0  0  0
   37.6997   28.1829   34.4415 H   0  0  0  0  0  0  0  0  0  0  0  0
   42.2114   19.8012   37.3867 H   0  0  0  0  0  0  0  0  0  0  0  0
   44.4665   18.8620   36.2118 H   0  0  0  0  0  0  0  0  0  0  0  0
   45.6077   21.0067   35.0639 H   0  0  0  0  0  0  0  0  0  0  0  0
  1  5  1  0
  2  1  1  0
  2  3  1  0
  3  4  1  0
  5  4  1  0
  7  6  2  0
  7  1  1  0
  8  7  1  0
  9 10  1  0
  9  8  2  0
 10 11  2  0
 11  6  1  0
 12 13  2  0
 12  3  1  0
 14 13  1  0
 15 16  1  0
 15 14  2  0
 16 12  1  0
  1 17  1  6
  2 18  1  0
  2 19  1  0
  3 20  1  1
  4 21  1  0
  4 22  1  0
  5 23  1  0
  5 24  1  0
  6 25  1  0
  8 26  1  0
 10 27  1  0
 13 28  1  0
 14 29  1  0
 15 30  1  0
M  ISO  8  17  13  18  13  19  13  20  13  21  13  22  13  23  13  24  13
M  ISO  6  25  14  26  14  27  14  28  14  29  14  30  14
M  END
>  <minimizedAffinity>  (1) 
-3.96579123

>  <minimizedRMSD>  (1) 
0.779120386

$$$$
