
     RDKit          3D

 24 25  0  0  1  0  0  0  0  0999 V2000
   38.9460   24.6870   35.8480 C   0  0  1  0  0  0  0  0  0  0  0  0
   38.3130   23.3770   35.5550 C   0  0  0  0  0  0  0  0  0  0  0  0
   39.4350   22.3650   35.4940 C   0  0  2  0  0  0  0  0  0  0  0  0
   40.7030   23.1390   35.8110 C   0  0  0  0  0  0  0  0  0  0  0  0
   40.3300   24.5000   35.2440 C   0  0  0  0  0  0  0  0  0  0  0  0
   38.1870   27.0920   35.9500 C   0  0  0  0  0  0  0  0  0  0  0  0
   38.2290   25.8580   35.2990 C   0  0  0  0  0  0  0  0  0  0  0  0
   37.5500   25.7030   34.0580 C   0  0  0  0  0  0  0  0  0  0  0  0
   36.8930   26.7740   33.5660 N   0  0  0  0  0  0  0  0  0  0  0  0
   36.8760   27.9620   34.2300 C   0  0  0  0  0  0  0  0  0  0  0  0
   37.5180   28.1000   35.4020 N   0  0  0  0  0  0  0  0  0  0  0  0
   39.5780   21.8350   33.7640 S   0  0  0  0  0  0  0  0  0  0  0  0
   38.9480   24.9247   36.9220 H   0  0  0  0  0  0  0  0  0  0  0  0
   37.6033   23.1106   36.3521 H   0  0  0  0  0  0  0  0  0  0  0  0
   37.7518   23.4078   34.6094 H   0  0  0  0  0  0  0  0  0  0  0  0
   39.2702   21.5133   36.1703 H   0  0  0  0  0  0  0  0  0  0  0  0
   40.8929   23.1858   36.8935 H   0  0  0  0  0  0  0  0  0  0  0  0
   41.6264   22.7036   35.4014 H   0  0  0  0  0  0  0  0  0  0  0  0
   41.0270   25.2829   35.5774 H   0  0  0  0  0  0  0  0  0  0  0  0
   40.3614   24.5616   34.1462 H   0  0  0  0  0  0  0  0  0  0  0  0
   38.7047   27.2288   36.9109 H   0  0  0  0  0  0  0  0  0  0  0  0
   37.5604   24.7442   33.5190 H   0  0  0  0  0  0  0  0  0  0  0  0
   36.3315   28.8171   33.8030 H   0  0  0  0  0  0  0  0  0  0  0  0
   39.9347   20.5130   33.7194 H   0  0  0  0  0  0  0  0  0  0  0  0
  2  1  1  0
  3  2  1  0
  3  4  1  0
  5  4  1  0
  5  1  1  0
  7  1  1  0
  7  6  2  0
  8  7  1  0
  9  8  2  0
  9 10  1  0
 10 11  2  0
 11  6  1  0
 12  3  1  0
  1 13  1  1
  2 14  1  0
  2 15  1  0
  3 16  1  1
  4 17  1  0
  4 18  1  0
  5 19  1  0
  5 20  1  0
  6 21  1  0
  8 22  1  0
 10 23  1  0
 12 24  1  0
M  ISO  8  13  13  14  13  15  13  16  13  17  13  18  13  19  13  20  13
M  ISO  4  21  14  22  14  23  14  24  11
M  END
>  <minimizedAffinity>  (1) 
-3.11812401

>  <minimizedRMSD>  (1) 
2.93756485

$$$$
