
     RDKit          3D

 29 30  0  0  1  0  0  0  0  0999 V2000
   39.9210   23.5880   35.9010 C   0  0  1  0  0  0  0  0  0  0  0  0
   41.4140   23.6350   35.8440 C   0  0  0  0  0  0  0  0  0  0  0  0
   41.9000   22.6580   36.9110 C   0  0  1  0  0  0  0  0  0  0  0  0
   40.6620   21.9810   37.4380 C   0  0  0  0  0  0  0  0  0  0  0  0
   39.6670   23.1190   37.3200 C   0  0  0  0  0  0  0  0  0  0  0  0
   37.9120   25.0720   35.7660 C   0  0  0  0  0  0  0  0  0  0  0  0
   39.2760   24.8630   35.5620 C   0  0  0  0  0  0  0  0  0  0  0  0
   40.0480   25.8880   35.0060 C   0  0  0  0  0  0  0  0  0  0  0  0
   39.4370   27.0580   34.6820 N   0  0  0  0  0  0  0  0  0  0  0  0
   38.1060   27.2420   34.8880 C   0  0  0  0  0  0  0  0  0  0  0  0
   37.3550   26.2510   35.4270 N   0  0  0  0  0  0  0  0  0  0  0  0
   42.8220   21.6190   36.3120 C   0  0  0  0  0  0  0  0  0  0  0  0
   42.7700   20.3220   37.0550 C   0  0  0  0  0  0  0  0  0  0  0  0
   39.4779   22.9208   35.1470 H   0  0  0  0  0  0  0  0  0  0  0  0
   41.7696   23.3254   34.8502 H   0  0  0  0  0  0  0  0  0  0  0  0
   41.7948   24.6516   36.0213 H   0  0  0  0  0  0  0  0  0  0  0  0
   42.4611   23.1823   37.6986 H   0  0  0  0  0  0  0  0  0  0  0  0
   40.3725   21.1200   36.8177 H   0  0  0  0  0  0  0  0  0  0  0  0
   40.7613   21.5561   38.4478 H   0  0  0  0  0  0  0  0  0  0  0  0
   39.8760   23.9143   38.0507 H   0  0  0  0  0  0  0  0  0  0  0  0
   38.6248   22.8293   37.5194 H   0  0  0  0  0  0  0  0  0  0  0  0
   37.2920   24.2754   36.2030 H   0  0  0  0  0  0  0  0  0  0  0  0
   41.1258   25.7503   34.8347 H   0  0  0  0  0  0  0  0  0  0  0  0
   37.6367   28.1990   34.6161 H   0  0  0  0  0  0  0  0  0  0  0  0
   42.5247   21.4413   35.2679 H   0  0  0  0  0  0  0  0  0  0  0  0
   43.8506   22.0035   36.3754 H   0  0  0  0  0  0  0  0  0  0  0  0
   42.7779   20.5188   38.1372 H   0  0  0  0  0  0  0  0  0  0  0  0
   41.8495   19.7826   36.7871 H   0  0  0  0  0  0  0  0  0  0  0  0
   43.6444   19.7107   36.7871 H   0  0  0  0  0  0  0  0  0  0  0  0
  1  5  1  0
  2  1  1  0
  2  3  1  0
  3  4  1  0
  5  4  1  0
  7  6  2  0
  7  1  1  0
  8  7  1  0
  9 10  1  0
  9  8  2  0
 10 11  2  0
 11  6  1  0
 12  3  1  0
 12 13  1  0
  1 14  1  6
  2 15  1  0
  2 16  1  0
  3 17  1  1
  4 18  1  0
  4 19  1  0
  5 20  1  0
  5 21  1  0
  6 22  1  0
  8 23  1  0
 10 24  1  0
 12 25  1  0
 12 26  1  0
 13 27  1  0
 13 28  1  0
 13 29  1  0
M  ISO  8  14  13  15  13  16  13  17  13  18  13  19  13  20  13  21  13
M  ISO  8  22  14  23  14  24  14  25   8  26   8  27   8  28   8  29   8
M  END
>  <minimizedAffinity>  (1) 
-3.76006579

>  <minimizedRMSD>  (1) 
0.496160507

$$$$
