
     RDKit          3D

 48 51  0  0  1  0  0  0  0  0999 V2000
   37.8260   21.7210   31.5360 N   0  0  0  0  0  0  0  0  0  0  0  0
   37.5920   22.8140   30.6240 C   0  0  0  0  0  0  0  0  0  0  0  0
   38.9720   23.2080   30.0900 C   0  0  0  0  0  0  0  0  0  0  0  0
   39.4020   22.0840   29.1780 C   0  0  0  0  0  0  0  0  0  0  0  0
   38.6760   20.7960   29.5350 C   0  0  0  0  0  0  0  0  0  0  0  0
   38.6920   20.6830   31.0630 C   0  0  1  0  0  0  0  0  0  0  0  0
   39.8660   22.7260   37.4290 C   0  0  0  0  0  0  0  0  0  0  0  0
   39.1810   23.3960   38.4460 C   0  0  0  0  0  0  0  0  0  0  0  0
   37.8040   23.5250   38.3360 C   0  0  0  0  0  0  0  0  0  0  0  0
   37.1860   22.9920   37.2450 N   0  0  0  0  0  0  0  0  0  0  0  0
   37.8700   22.3530   36.2850 C   0  0  0  0  0  0  0  0  0  0  0  0
   39.2140   22.2220   36.3810 N   0  0  0  0  0  0  0  0  0  0  0  0
   37.2320   21.7990   35.1540 N   0  0  0  0  0  0  0  0  0  0  0  0
   37.8270   22.0450   33.9880 C   0  0  0  0  0  0  0  0  0  0  0  0
   37.2990   21.5520   32.8280 C   0  0  0  0  0  0  0  0  0  0  0  0
   36.1360   20.8060   32.9810 C   0  0  0  0  0  0  0  0  0  0  0  0
   35.4440   20.2220   31.8860 N   0  0  0  0  0  0  0  0  0  0  0  0
   35.5460   20.5680   34.1720 N   0  0  0  0  0  0  0  0  0  0  0  0
   36.1080   21.0780   35.3010 C   0  0  0  0  0  0  0  0  0  0  0  0
   35.6460   20.9170   36.4430 O   0  0  0  0  0  0  0  0  0  0  0  0
   40.0580   20.6950   31.3930 N   0  0  0  0  0  0  0  0  0  0  0  0
   40.4690   21.0280   32.7020 C   0  0  0  0  0  0  0  0  0  0  0  0
   41.7440   20.2210   33.0040 C   0  0  0  0  0  0  0  0  0  0  0  0
   41.4610   18.9580   32.2700 C   0  0  0  0  0  0  0  0  0  0  0  0
   40.5140   19.3130   31.1680 C   0  0  0  0  0  0  0  0  0  0  0  0
   36.9387   22.4928   29.7994 H   0  0  0  0  0  0  0  0  0  0  0  0
   37.0917   23.6584   31.1208 H   0  0  0  0  0  0  0  0  0  0  0  0
   38.9095   24.1524   29.5294 H   0  0  0  0  0  0  0  0  0  0  0  0
   39.6917   23.3611   30.9077 H   0  0  0  0  0  0  0  0  0  0  0  0
   40.4860   21.9286   29.2824 H   0  0  0  0  0  0  0  0  0  0  0  0
   39.1539   22.3547   28.1411 H   0  0  0  0  0  0  0  0  0  0  0  0
   37.6391   20.8328   29.1695 H   0  0  0  0  0  0  0  0  0  0  0  0
   39.1660   19.9271   29.0714 H   0  0  0  0  0  0  0  0  0  0  0  0
   38.2925   19.7795   31.5468 H   0  0  0  0  0  0  0  0  0  0  0  0
   40.9582   22.6128   37.4940 H   0  0  0  0  0  0  0  0  0  0  0  0
   39.7194   23.8103   39.3112 H   0  0  0  0  0  0  0  0  0  0  0  0
   37.2242   24.0459   39.1122 H   0  0  0  0  0  0  0  0  0  0  0  0
   38.7470   22.6473   33.9587 H   0  0  0  0  0  0  0  0  0  0  0  0
   34.5854   19.6774   32.0508 H   0  0  0  0  0  0  0  0  0  0  0  0
   35.8009   20.3433   30.9275 H   0  0  0  0  0  0  0  0  0  0  0  0
   40.6819   22.1053   32.7665 H   0  0  0  0  0  0  0  0  0  0  0  0
   39.6784   20.7911   33.4291 H   0  0  0  0  0  0  0  0  0  0  0  0
   42.6416   20.7227   32.6135 H   0  0  0  0  0  0  0  0  0  0  0  0
   41.9520   20.0859   34.0757 H   0  0  0  0  0  0  0  0  0  0  0  0
   42.3909   18.5434   31.8536 H   0  0  0  0  0  0  0  0  0  0  0  0
   41.0294   18.1973   32.9371 H   0  0  0  0  0  0  0  0  0  0  0  0
   39.6530   18.6285   31.1797 H   0  0  0  0  0  0  0  0  0  0  0  0
   41.0124   19.2274   30.1911 H   0  0  0  0  0  0  0  0  0  0  0  0
  1 15  1  0
  2  1  1  0
  3  2  1  0
  4  5  1  0
  4  3  1  0
  5  6  1  0
  6 21  1  0
  6  1  1  0
  7  8  2  0
  9  8  1  0
 10  9  2  0
 11 12  2  0
 11 10  1  0
 12  7  1  0
 13 19  1  0
 13 11  1  0
 14 13  1  0
 15 16  1  0
 15 14  2  0
 16 18  2  0
 17 16  1  0
 18 19  1  0
 19 20  2  0
 21 22  1  0
 22 23  1  0
 24 23  1  0
 25 21  1  0
 25 24  1  0
  2 26  1  0
  2 27  1  0
  3 28  1  0
  3 29  1  0
  4 30  1  0
  4 31  1  0
  5 32  1  0
  5 33  1  0
  6 34  1  6
  7 35  1  0
  8 36  1  0
  9 37  1  0
 14 38  1  0
 17 39  1  0
 17 40  1  0
 22 41  1  0
 22 42  1  0
 23 43  1  0
 23 44  1  0
 24 45  1  0
 24 46  1  0
 25 47  1  0
 25 48  1  0
M  ISO  8  26  13  27  13  28  13  29  13  30  13  31  13  32  13  33  13
M  ISO  8  34  13  35  14  36  14  37  14  38  14  41  13  42  13  43  13
M  ISO  5  44  13  45  13  46  13  47  13  48  13
M  END
>  <minimizedAffinity>  (1) 
-5.18790293

>  <minimizedRMSD>  (1) 
0.610984385

$$$$
