
     RDKit          3D

 28 30  0  0  1  0  0  0  0  0999 V2000
   39.7500   23.5620   35.9960 C   0  0  1  0  0  0  0  0  0  0  0  0
   41.2320   23.4830   35.8360 C   0  0  0  0  0  0  0  0  0  0  0  0
   41.7060   22.4930   36.8880 C   0  0  1  0  0  0  0  0  0  0  0  0
   40.4670   22.0190   37.5990 C   0  0  0  0  0  0  0  0  0  0  0  0
   39.6190   23.2850   37.5010 C   0  0  0  0  0  0  0  0  0  0  0  0
   37.8260   25.1700   35.7780 C   0  0  0  0  0  0  0  0  0  0  0  0
   39.1790   24.8590   35.6180 C   0  0  0  0  0  0  0  0  0  0  0  0
   40.0400   25.8380   35.0530 C   0  0  0  0  0  0  0  0  0  0  0  0
   39.5160   27.0410   34.6900 N   0  0  0  0  0  0  0  0  0  0  0  0
   38.1920   27.3000   34.8670 C   0  0  0  0  0  0  0  0  0  0  0  0
   37.3670   26.3740   35.4020 N   0  0  0  0  0  0  0  0  0  0  0  0
   42.4080   21.3320   36.2920 C   0  0  0  0  0  0  0  0  0  0  0  0
   42.7420   21.0240   35.0260 N   0  0  0  0  0  0  0  0  0  0  0  0
   43.3520   19.8930   34.9880 O   0  0  0  0  0  0  0  0  0  0  0  0
   43.4490   19.4100   36.1960 C   0  0  0  0  0  0  0  0  0  0  0  0
   42.8630   20.2930   37.0380 N   0  0  0  0  0  0  0  0  0  0  0  0
   39.1991   22.8699   35.3422 H   0  0  0  0  0  0  0  0  0  0  0  0
   41.4907   23.1255   34.8284 H   0  0  0  0  0  0  0  0  0  0  0  0
   41.7073   24.4672   35.9606 H   0  0  0  0  0  0  0  0  0  0  0  0
   42.4249   22.9792   37.5639 H   0  0  0  0  0  0  0  0  0  0  0  0
   39.9970   21.1695   37.0819 H   0  0  0  0  0  0  0  0  0  0  0  0
   40.6287   21.6421   38.6197 H   0  0  0  0  0  0  0  0  0  0  0  0
   40.0334   24.1044   38.1066 H   0  0  0  0  0  0  0  0  0  0  0  0
   38.5877   23.1876   37.8711 H   0  0  0  0  0  0  0  0  0  0  0  0
   37.1381   24.4291   36.2115 H   0  0  0  0  0  0  0  0  0  0  0  0
   41.1104   25.6278   34.9115 H   0  0  0  0  0  0  0  0  0  0  0  0
   37.7872   28.2787   34.5698 H   0  0  0  0  0  0  0  0  0  0  0  0
   43.9214   18.4578   36.4790 H   0  0  0  0  0  0  0  0  0  0  0  0
  1  5  1  0
  2  1  1  0
  2  3  1  0
  3  4  1  0
  5  4  1  0
  7  6  2  0
  7  1  1  0
  8  7  1  0
  9 10  1  0
  9  8  2  0
 10 11  2  0
 11  6  1  0
 12  3  1  0
 12 16  1  0
 13 12  2  0
 14 13  1  0
 14 15  1  0
 15 16  2  0
  1 17  1  6
  2 18  1  0
  2 19  1  0
  3 20  1  1
  4 21  1  0
  4 22  1  0
  5 23  1  0
  5 24  1  0
  6 25  1  0
  8 26  1  0
 10 27  1  0
 15 28  1  0
M  ISO  8  17  13  18  13  19  13  20  13  21  13  22  13  23  13  24  13
M  ISO  4  25  14  26  14  27  14  28  14
M  END
>  <minimizedAffinity>  (1) 
-3.80784225

>  <minimizedRMSD>  (1) 
0.612521589

$$$$
