
     RDKit          3D

 46 49  0  0  1  0  0  0  0  0999 V2000
   37.9700   22.8380   31.2890 N   0  0  0  0  0  0  0  0  0  0  0  0
   37.4920   23.9310   30.4700 C   0  0  0  0  0  0  0  0  0  0  0  0
   38.7190   24.7470   30.0890 C   0  0  0  0  0  0  0  0  0  0  0  0
   39.4980   23.9110   29.1080 C   0  0  0  0  0  0  0  0  0  0  0  0
   39.1970   22.4270   29.2810 C   0  0  0  0  0  0  0  0  0  0  0  0
   39.1290   22.1370   30.7580 C   0  0  2  0  0  0  0  0  0  0  0  0
   39.9810   22.7020   37.2800 C   0  0  0  0  0  0  0  0  0  0  0  0
   39.2560   23.1100   38.4020 C   0  0  0  0  0  0  0  0  0  0  0  0
   37.8650   23.1840   38.3080 C   0  0  0  0  0  0  0  0  0  0  0  0
   37.2820   22.8520   37.1170 N   0  0  0  0  0  0  0  0  0  0  0  0
   38.0110   22.4620   36.0540 C   0  0  0  0  0  0  0  0  0  0  0  0
   39.3610   22.3900   36.1430 N   0  0  0  0  0  0  0  0  0  0  0  0
   37.4010   22.1200   34.8250 N   0  0  0  0  0  0  0  0  0  0  0  0
   37.9960   22.6610   33.7460 C   0  0  0  0  0  0  0  0  0  0  0  0
   37.4640   22.3720   32.5090 C   0  0  0  0  0  0  0  0  0  0  0  0
   36.3460   21.5390   32.4880 C   0  0  0  0  0  0  0  0  0  0  0  0
   35.6860   21.1650   31.3010 N   0  0  0  0  0  0  0  0  0  0  0  0
   35.7890   21.0230   33.5950 N   0  0  0  0  0  0  0  0  0  0  0  0
   36.3280   21.3180   34.8130 C   0  0  0  0  0  0  0  0  0  0  0  0
   35.8860   20.8910   35.8930 O   0  0  0  0  0  0  0  0  0  0  0  0
   39.0980   20.6770   30.9380 C   0  0  0  0  0  0  0  0  0  0  0  0
   38.4150   19.8490   30.0340 C   0  0  0  0  0  0  0  0  0  0  0  0
   38.3580   18.4820   30.1130 C   0  0  0  0  0  0  0  0  0  0  0  0
   39.0030   17.8290   31.1370 C   0  0  0  0  0  0  0  0  0  0  0  0
   39.6880   18.5710   32.0530 C   0  0  0  0  0  0  0  0  0  0  0  0
   39.7080   19.9310   31.9200 C   0  0  0  0  0  0  0  0  0  0  0  0
   36.9974   23.5427   29.5674 H   0  0  0  0  0  0  0  0  0  0  0  0
   36.7561   24.5440   31.0109 H   0  0  0  0  0  0  0  0  0  0  0  0
   38.4151   25.6959   29.6230 H   0  0  0  0  0  0  0  0  0  0  0  0
   39.3252   24.9922   30.9735 H   0  0  0  0  0  0  0  0  0  0  0  0
   40.5731   24.0793   29.2686 H   0  0  0  0  0  0  0  0  0  0  0  0
   39.2046   24.2077   28.0902 H   0  0  0  0  0  0  0  0  0  0  0  0
   38.2344   22.1833   28.8076 H   0  0  0  0  0  0  0  0  0  0  0  0
   39.9818   21.8192   28.8071 H   0  0  0  0  0  0  0  0  0  0  0  0
   40.0051   22.4976   31.3170 H   0  0  0  0  0  0  0  0  0  0  0  0
   41.0777   22.6375   37.3360 H   0  0  0  0  0  0  0  0  0  0  0  0
   39.7701   23.3675   39.3398 H   0  0  0  0  0  0  0  0  0  0  0  0
   37.2558   23.5003   39.1675 H   0  0  0  0  0  0  0  0  0  0  0  0
   38.8770   23.3117   33.8485 H   0  0  0  0  0  0  0  0  0  0  0  0
   34.8634   20.5465   31.3421 H   0  0  0  0  0  0  0  0  0  0  0  0
   36.0260   21.5101   30.3920 H   0  0  0  0  0  0  0  0  0  0  0  0
   37.8860   20.3332   29.1999 H   0  0  0  0  0  0  0  0  0  0  0  0
   37.7979   17.9088   29.3595 H   0  0  0  0  0  0  0  0  0  0  0  0
   38.9671   16.7324   31.2153 H   0  0  0  0  0  0  0  0  0  0  0  0
   40.2160   18.0830   32.8855 H   0  0  0  0  0  0  0  0  0  0  0  0
   40.2731   20.4898   32.6805 H   0  0  0  0  0  0  0  0  0  0  0  0
  1 15  1  0
  2  1  1  0
  3  2  1  0
  4  5  1  0
  4  3  1  0
  5  6  1  0
  6 21  1  0
  6  1  1  0
  7  8  2  0
  9  8  1  0
 10  9  2  0
 11 12  2  0
 11 10  1  0
 12  7  1  0
 13 11  1  0
 14 13  1  0
 15 14  2  0
 16 15  1  0
 16 18  2  0
 17 16  1  0
 18 19  1  0
 19 13  1  0
 19 20  2  0
 21 26  2  0
 22 23  2  0
 22 21  1  0
 23 24  1  0
 24 25  2  0
 26 25  1  0
  2 27  1  0
  2 28  1  0
  3 29  1  0
  3 30  1  0
  4 31  1  0
  4 32  1  0
  5 33  1  0
  5 34  1  0
  6 35  1  1
  7 36  1  0
  8 37  1  0
  9 38  1  0
 14 39  1  0
 17 40  1  0
 17 41  1  0
 22 42  1  0
 23 43  1  0
 24 44  1  0
 25 45  1  0
 26 46  1  0
M  ISO  8  27  13  28  13  29  13  30  13  31  13  32  13  33  13  34  13
M  ISO  8  35  13  36  14  37  14  38  14  39  14  42  14  43  14  44  14
M  ISO  2  45  14  46  14
M  END
>  <minimizedAffinity>  (1) 
-5.18571424

>  <minimizedRMSD>  (1) 
1.5837394

$$$$
