
     RDKit          3D

 30 32  0  0  1  0  0  0  0  0999 V2000
   39.9730   23.5740   35.8800 C   0  0  1  0  0  0  0  0  0  0  0  0
   41.4670   23.6410   35.8940 C   0  0  0  0  0  0  0  0  0  0  0  0
   41.9070   22.6380   36.9590 C   0  0  1  0  0  0  0  0  0  0  0  0
   40.6430   21.9550   37.4250 C   0  0  0  0  0  0  0  0  0  0  0  0
   39.6670   23.1230   37.3080 C   0  0  0  0  0  0  0  0  0  0  0  0
   37.9560   25.0530   35.6920 C   0  0  0  0  0  0  0  0  0  0  0  0
   39.3230   24.8310   35.5260 C   0  0  0  0  0  0  0  0  0  0  0  0
   40.0880   25.8680   34.9760 C   0  0  0  0  0  0  0  0  0  0  0  0
   39.4760   27.0380   34.6280 N   0  0  0  0  0  0  0  0  0  0  0  0
   38.1390   27.2150   34.8070 C   0  0  0  0  0  0  0  0  0  0  0  0
   37.3940   26.2100   35.3410 N   0  0  0  0  0  0  0  0  0  0  0  0
   42.9390   21.7230   36.4580 C   0  0  0  0  0  0  0  0  0  0  0  0
   42.9010   20.3710   36.6300 C   0  0  0  0  0  0  0  0  0  0  0  0
   44.0270   19.8990   36.0250 N   0  0  0  0  0  0  0  0  0  0  0  0
   44.7030   20.9670   35.5110 C   0  0  0  0  0  0  0  0  0  0  0  0
   44.0280   22.1200   35.7770 N   0  0  0  0  0  0  0  0  0  0  0  0
   39.5826   22.8980   35.1050 H   0  0  0  0  0  0  0  0  0  0  0  0
   41.8742   23.3622   34.9109 H   0  0  0  0  0  0  0  0  0  0  0  0
   41.8294   24.6562   36.1130 H   0  0  0  0  0  0  0  0  0  0  0  0
   42.3996   23.1278   37.8119 H   0  0  0  0  0  0  0  0  0  0  0  0
   40.3625   21.1186   36.7680 H   0  0  0  0  0  0  0  0  0  0  0  0
   40.7013   21.4918   38.4210 H   0  0  0  0  0  0  0  0  0  0  0  0
   39.8841   23.9129   38.0421 H   0  0  0  0  0  0  0  0  0  0  0  0
   38.6138   22.8710   37.5013 H   0  0  0  0  0  0  0  0  0  0  0  0
   37.3290   24.2575   36.1211 H   0  0  0  0  0  0  0  0  0  0  0  0
   41.1703   25.7409   34.8261 H   0  0  0  0  0  0  0  0  0  0  0  0
   37.6634   28.1649   34.5217 H   0  0  0  0  0  0  0  0  0  0  0  0
   42.1263   19.7858   37.1471 H   0  0  0  0  0  0  0  0  0  0  0  0
   45.6542   20.9059   34.9620 H   0  0  0  0  0  0  0  0  0  0  0  0
   44.2926   23.0804   35.5151 H   0  0  0  0  0  0  0  0  0  0  0  0
  1  2  1  0
  1  5  1  0
  2  3  1  0
  3  4  1  0
  5  4  1  0
  7  6  2  0
  7  1  1  0
  8  7  1  0
  9 10  1  0
  9  8  2  0
 10 11  2  0
 11  6  1  0
 12 13  2  0
 12  3  1  0
 14 13  1  0
 15 16  1  0
 15 14  2  0
 16 12  1  0
  1 17  1  6
  2 18  1  0
  2 19  1  0
  3 20  1  1
  4 21  1  0
  4 22  1  0
  5 23  1  0
  5 24  1  0
  6 25  1  0
  8 26  1  0
 10 27  1  0
 13 28  1  0
 15 29  1  0
 16 30  1  0
M  ISO  8  17  13  18  13  19  13  20  13  21  13  22  13  23  13  24  13
M  ISO  6  25  14  26  14  27  14  28  14  29  14  30   9
M  END
>  <minimizedAffinity>  (1) 
-3.83001661

>  <minimizedRMSD>  (1) 
0.542292893

$$$$
