
     RDKit          3D

 46 50  0  0  1  0  0  0  0  0999 V2000
   40.4100   24.7790   34.6150 C   0  0  1  0  0  0  0  0  0  0  0  0
   41.7270   25.4270   34.7100 C   0  0  0  0  0  0  0  0  0  0  0  0
   42.6440   24.3890   35.3850 C   0  0  1  0  0  0  0  0  0  0  0  0
   41.8360   23.1340   35.4760 C   0  0  0  0  0  0  0  0  0  0  0  0
   40.4610   23.7500   35.7650 C   0  0  0  0  0  0  0  0  0  0  0  0
   38.0920   25.4680   33.9910 C   0  0  0  0  0  0  0  0  0  0  0  0
   39.2660   25.6550   34.7070 C   0  0  0  0  0  0  0  0  0  0  0  0
   39.3380   26.7830   35.5530 C   0  0  0  0  0  0  0  0  0  0  0  0
   38.2780   27.6300   35.6360 N   0  0  0  0  0  0  0  0  0  0  0  0
   37.1490   27.4140   34.9220 C   0  0  0  0  0  0  0  0  0  0  0  0
   37.0700   26.3310   34.1050 N   0  0  0  0  0  0  0  0  0  0  0  0
   43.9210   24.2570   34.6770 C   0  0  0  0  0  0  0  0  0  0  0  0
   44.0250   23.9180   33.3460 C   0  0  0  0  0  0  0  0  0  0  0  0
   45.3630   23.9140   33.0880 N   0  0  0  0  0  0  0  0  0  0  0  0
   46.0060   24.2450   34.2600 C   0  0  0  0  0  0  0  0  0  0  0  0
   45.1030   24.4660   35.2740 N   0  0  0  0  0  0  0  0  0  0  0  0
   45.4270   24.8210   36.5900 C   0  0  0  0  0  0  0  0  0  0  0  0
   44.5950   25.6530   37.3480 C   0  0  0  0  0  0  0  0  0  0  0  0
   44.8950   26.0220   38.6610 C   0  0  0  0  0  0  0  0  0  0  0  0
   46.0500   25.5560   39.2460 C   0  0  0  0  0  0  0  0  0  0  0  0
   46.8860   24.7450   38.5420 C   0  0  0  0  0  0  0  0  0  0  0  0
   48.0490   24.2720   39.1230 C   0  0  0  0  0  0  0  0  0  0  0  0
   48.9090   23.4380   38.4000 C   0  0  0  0  0  0  0  0  0  0  0  0
   48.5960   23.0790   37.0910 C   0  0  0  0  0  0  0  0  0  0  0  0
   47.4210   23.5590   36.5110 C   0  0  0  0  0  0  0  0  0  0  0  0
   46.5860   24.3820   37.2430 C   0  0  0  0  0  0  0  0  0  0  0  0
   40.2544   24.3436   33.6169 H   0  0  0  0  0  0  0  0  0  0  0  0
   42.1045   25.6809   33.7085 H   0  0  0  0  0  0  0  0  0  0  0  0
   41.6814   26.3662   35.2809 H   0  0  0  0  0  0  0  0  0  0  0  0
   42.9550   24.6895   36.3964 H   0  0  0  0  0  0  0  0  0  0  0  0
   41.8442   22.5695   34.5319 H   0  0  0  0  0  0  0  0  0  0  0  0
   42.1882   22.3987   36.2145 H   0  0  0  0  0  0  0  0  0  0  0  0
   40.4250   24.2332   36.7525 H   0  0  0  0  0  0  0  0  0  0  0  0
   39.6224   23.0390   35.8008 H   0  0  0  0  0  0  0  0  0  0  0  0
   37.9976   24.6008   33.3209 H   0  0  0  0  0  0  0  0  0  0  0  0
   40.2470   26.9754   36.1418 H   0  0  0  0  0  0  0  0  0  0  0  0
   36.3011   28.1102   35.0024 H   0  0  0  0  0  0  0  0  0  0  0  0
   43.2066   23.6984   32.6445 H   0  0  0  0  0  0  0  0  0  0  0  0
   47.0977   24.3225   34.3707 H   0  0  0  0  0  0  0  0  0  0  0  0
   43.6684   26.0311   36.8915 H   0  0  0  0  0  0  0  0  0  0  0  0
   44.2144   26.6790   39.2223 H   0  0  0  0  0  0  0  0  0  0  0  0
   46.2970   25.8383   40.2801 H   0  0  0  0  0  0  0  0  0  0  0  0
   48.2985   24.5525   40.1569 H   0  0  0  0  0  0  0  0  0  0  0  0
   49.8332   23.0655   38.8658 H   0  0  0  0  0  0  0  0  0  0  0  0
   49.2691   22.4229   36.5195 H   0  0  0  0  0  0  0  0  0  0  0  0
   47.1611   23.2842   35.4781 H   0  0  0  0  0  0  0  0  0  0  0  0
  1  7  1  0
  1  2  1  0
  1  5  1  0
  2  3  1  0
  3  4  1  0
  4  5  1  0
  6 11  2  0
  6  7  1  0
  7  8  2  0
  8  9  1  0
 10  9  2  0
 11 10  1  0
 12 16  1  0
 12  3  1  0
 13 12  2  0
 14 13  1  0
 14 15  2  0
 15 16  1  0
 16 17  1  0
 17 26  1  0
 17 18  2  0
 18 19  1  0
 19 20  2  0
 21 22  2  0
 21 20  1  0
 23 22  1  0
 24 23  2  0
 25 24  1  0
 25 26  2  0
 26 21  1  0
  1 27  1  6
  2 28  1  0
  2 29  1  0
  3 30  1  1
  4 31  1  0
  4 32  1  0
  5 33  1  0
  5 34  1  0
  6 35  1  0
  8 36  1  0
 10 37  1  0
 13 38  1  0
 15 39  1  0
 18 40  1  0
 19 41  1  0
 20 42  1  0
 22 43  1  0
 23 44  1  0
 24 45  1  0
 25 46  1  0
M  ISO  8  27  13  28  13  29  13  30  13  31  13  32  13  33  13  34  13
M  ISO  8  35  14  36  14  37  14  38  14  39  14  40  14  41  14  42  14
M  ISO  4  43  14  44  14  45  14  46  14
M  END
>  <minimizedAffinity>  (1) 
-6.0605979

>  <minimizedRMSD>  (1) 
2.89493608

$$$$
