
     RDKit          3D

 44 48  0  0  1  0  0  0  0  0999 V2000
   40.2030   23.6930   35.6800 C   0  0  1  0  0  0  0  0  0  0  0  0
   41.6510   23.9250   35.5900 C   0  0  0  0  0  0  0  0  0  0  0  0
   42.2820   22.8860   36.5480 C   0  0  1  0  0  0  0  0  0  0  0  0
   41.1680   22.0150   37.0160 C   0  0  0  0  0  0  0  0  0  0  0  0
   40.0430   23.0510   37.0780 C   0  0  0  0  0  0  0  0  0  0  0  0
   43.4160   22.2030   35.9230 C   0  0  0  0  0  0  0  0  0  0  0  0
   43.2790   21.0750   35.1450 C   0  0  0  0  0  0  0  0  0  0  0  0
   44.5430   20.7730   34.7580 N   0  0  0  0  0  0  0  0  0  0  0  0
   45.3900   21.7120   35.3040 C   0  0  0  0  0  0  0  0  0  0  0  0
   44.6750   22.6260   36.0470 N   0  0  0  0  0  0  0  0  0  0  0  0
   45.2150   23.7210   36.7470 C   0  0  0  0  0  0  0  0  0  0  0  0
   44.4350   24.7350   37.2220 N   0  0  0  0  0  0  0  0  0  0  0  0
   45.0130   25.7730   37.8950 C   0  0  0  0  0  0  0  0  0  0  0  0
   46.3450   25.8770   38.1320 N   0  0  0  0  0  0  0  0  0  0  0  0
   47.1430   24.8770   37.6650 C   0  0  0  0  0  0  0  0  0  0  0  0
   48.4960   24.9950   37.9150 C   0  0  0  0  0  0  0  0  0  0  0  0
   49.3300   24.0040   37.4590 C   0  0  0  0  0  0  0  0  0  0  0  0
   48.8300   22.9190   36.7720 C   0  0  0  0  0  0  0  0  0  0  0  0
   47.4610   22.8310   36.5370 C   0  0  0  0  0  0  0  0  0  0  0  0
   46.5820   23.8050   36.9770 C   0  0  0  0  0  0  0  0  0  0  0  0
   37.9820   24.8510   35.7220 C   0  0  0  0  0  0  0  0  0  0  0  0
   39.3570   24.8540   35.5040 C   0  0  0  0  0  0  0  0  0  0  0  0
   39.9450   26.0570   35.0720 C   0  0  0  0  0  0  0  0  0  0  0  0
   39.1720   27.1630   34.8830 N   0  0  0  0  0  0  0  0  0  0  0  0
   37.8270   27.1170   35.1060 C   0  0  0  0  0  0  0  0  0  0  0  0
   37.2560   25.9630   35.5220 N   0  0  0  0  0  0  0  0  0  0  0  0
   39.8590   23.0630   34.8465 H   0  0  0  0  0  0  0  0  0  0  0  0
   42.0049   23.7670   34.5605 H   0  0  0  0  0  0  0  0  0  0  0  0
   41.9225   24.9560   35.8609 H   0  0  0  0  0  0  0  0  0  0  0  0
   42.7434   23.3462   37.4342 H   0  0  0  0  0  0  0  0  0  0  0  0
   40.9464   21.2116   36.2980 H   0  0  0  0  0  0  0  0  0  0  0  0
   41.3593   21.4761   37.9557 H   0  0  0  0  0  0  0  0  0  0  0  0
   40.2029   23.7814   37.8848 H   0  0  0  0  0  0  0  0  0  0  0  0
   39.0443   22.6427   37.2921 H   0  0  0  0  0  0  0  0  0  0  0  0
   42.3518   20.5390   34.8938 H   0  0  0  0  0  0  0  0  0  0  0  0
   46.4812   21.7297   35.1665 H   0  0  0  0  0  0  0  0  0  0  0  0
   44.3584   26.5744   38.2681 H   0  0  0  0  0  0  0  0  0  0  0  0
   48.8951   25.8600   38.4649 H   0  0  0  0  0  0  0  0  0  0  0  0
   50.4118   24.0772   37.6446 H   0  0  0  0  0  0  0  0  0  0  0  0
   49.5067   22.1297   36.4127 H   0  0  0  0  0  0  0  0  0  0  0  0
   47.0671   21.9638   35.9867 H   0  0  0  0  0  0  0  0  0  0  0  0
   37.4858   23.9297   36.0611 H   0  0  0  0  0  0  0  0  0  0  0  0
   41.0283   26.1046   34.8869 H   0  0  0  0  0  0  0  0  0  0  0  0
   37.2097   28.0137   34.9484 H   0  0  0  0  0  0  0  0  0  0  0  0
  1  5  1  0
  2  1  1  0
  2  3  1  0
  3  4  1  0
  4  5  1  0
  6 10  1  0
  6  3  1  0
  7  6  2  0
  8  7  1  0
  8  9  2  0
  9 10  1  0
 10 11  1  0
 11 20  1  0
 11 12  2  0
 12 13  1  0
 13 14  2  0
 15 16  2  0
 15 14  1  0
 17 16  1  0
 18 17  2  0
 19 18  1  0
 19 20  2  0
 20 15  1  0
 22  1  1  0
 22 21  2  0
 23 22  1  0
 24 23  2  0
 24 25  1  0
 25 26  2  0
 26 21  1  0
  1 27  1  6
  2 28  1  0
  2 29  1  0
  3 30  1  1
  4 31  1  0
  4 32  1  0
  5 33  1  0
  5 34  1  0
  7 35  1  0
  9 36  1  0
 13 37  1  0
 16 38  1  0
 17 39  1  0
 18 40  1  0
 19 41  1  0
 21 42  1  0
 23 43  1  0
 25 44  1  0
M  ISO  8  27  13  28  13  29  13  30  13  31  13  32  13  33  13  34  13
M  ISO  8  35  14  36  14  37  14  38  14  39  14  40  14  41  14  42  14
M  ISO  2  43  14  44  14
M  END
>  <minimizedAffinity>  (1) 
-5.63444042

>  <minimizedRMSD>  (1) 
1.75683737

$$$$
