
     RDKit          3D

 42 45  0  0  1  0  0  0  0  0999 V2000
   40.5800   25.0960   34.5090 C   0  0  1  0  0  0  0  0  0  0  0  0
   41.8030   25.8550   34.8270 C   0  0  0  0  0  0  0  0  0  0  0  0
   42.7630   24.8450   35.4720 C   0  0  1  0  0  0  0  0  0  0  0  0
   42.0930   23.5140   35.3600 C   0  0  0  0  0  0  0  0  0  0  0  0
   40.6370   23.9510   35.5520 C   0  0  0  0  0  0  0  0  0  0  0  0
   38.2280   25.5760   33.7930 C   0  0  0  0  0  0  0  0  0  0  0  0
   39.3400   25.8390   34.5900 C   0  0  0  0  0  0  0  0  0  0  0  0
   39.2490   26.9060   35.5100 C   0  0  0  0  0  0  0  0  0  0  0  0
   38.1000   27.6360   35.5980 N   0  0  0  0  0  0  0  0  0  0  0  0
   37.0310   27.3390   34.7930 C   0  0  0  0  0  0  0  0  0  0  0  0
   37.1140   26.3180   33.9080 N   0  0  0  0  0  0  0  0  0  0  0  0
   44.1060   24.9020   34.8650 C   0  0  0  0  0  0  0  0  0  0  0  0
   44.3380   25.0520   33.5160 C   0  0  0  0  0  0  0  0  0  0  0  0
   45.6890   25.0670   33.3940 N   0  0  0  0  0  0  0  0  0  0  0  0
   46.2160   24.9290   34.6570 C   0  0  0  0  0  0  0  0  0  0  0  0
   45.2240   24.8220   35.6060 N   0  0  0  0  0  0  0  0  0  0  0  0
   46.8700   24.6510   37.3500 N   0  0  0  0  0  0  0  0  0  0  0  0
   46.7920   24.7310   38.8010 C   0  0  0  0  0  0  0  0  0  0  0  0
   45.6510   25.6670   39.1090 C   0  0  0  0  0  0  0  0  0  0  0  0
   45.0460   25.9400   37.7470 C   0  0  0  0  0  0  0  0  0  0  0  0
   45.4700   24.6680   36.9930 C   0  0  1  0  0  0  0  0  0  0  0  0
   40.5689   24.7739   33.4573 H   0  0  0  0  0  0  0  0  0  0  0  0
   42.2447   26.2723   33.9101 H   0  0  0  0  0  0  0  0  0  0  0  0
   41.5928   26.7009   35.4980 H   0  0  0  0  0  0  0  0  0  0  0  0
   42.9535   25.0720   36.5313 H   0  0  0  0  0  0  0  0  0  0  0  0
   42.2572   23.0529   34.3749 H   0  0  0  0  0  0  0  0  0  0  0  0
   42.4500   22.7479   36.0640 H   0  0  0  0  0  0  0  0  0  0  0  0
   40.4480   24.3147   36.5728 H   0  0  0  0  0  0  0  0  0  0  0  0
   39.8866   23.1575   35.4208 H   0  0  0  0  0  0  0  0  0  0  0  0
   38.2624   24.7537   33.0632 H   0  0  0  0  0  0  0  0  0  0  0  0
   40.1053   27.1489   36.1564 H   0  0  0  0  0  0  0  0  0  0  0  0
   36.1062   27.9300   34.8661 H   0  0  0  0  0  0  0  0  0  0  0  0
   43.5913   25.1403   32.7131 H   0  0  0  0  0  0  0  0  0  0  0  0
   47.2928   24.9069   34.8805 H   0  0  0  0  0  0  0  0  0  0  0  0
   47.3706   25.4592   36.9537 H   0  0  0  0  0  0  0  0  0  0  0  0
   46.5954   23.7364   39.2279 H   0  0  0  0  0  0  0  0  0  0  0  0
   47.7361   25.0931   39.2342 H   0  0  0  0  0  0  0  0  0  0  0  0
   44.9189   25.1893   39.7767 H   0  0  0  0  0  0  0  0  0  0  0  0
   45.9731   26.5819   39.6279 H   0  0  0  0  0  0  0  0  0  0  0  0
   43.9514   26.0348   37.8003 H   0  0  0  0  0  0  0  0  0  0  0  0
   45.3730   26.8807   37.2799 H   0  0  0  0  0  0  0  0  0  0  0  0
   44.9442   23.7333   37.2374 H   0  0  0  0  0  0  0  0  0  0  0  0
  1  7  1  0
  1  2  1  0
  1  5  1  0
  2  3  1  0
  4  3  1  0
  4  5  1  0
  6 11  2  0
  6  7  1  0
  7  8  2  0
  8  9  1  0
 10  9  2  0
 11 10  1  0
 12  3  1  0
 12 16  1  0
 13 12  2  0
 14 13  1  0
 14 15  2  0
 15 16  1  0
 17 18  1  0
 18 19  1  0
 20 19  1  0
 21 16  1  0
 21 17  1  0
 21 20  1  0
  1 22  1  6
  2 23  1  0
  2 24  1  0
  3 25  1  1
  4 26  1  0
  4 27  1  0
  5 28  1  0
  5 29  1  0
  6 30  1  0
  8 31  1  0
 10 32  1  0
 13 33  1  0
 15 34  1  0
 17 35  1  0
 18 36  1  0
 18 37  1  0
 19 38  1  0
 19 39  1  0
 20 40  1  0
 20 41  1  0
 21 42  1  1
M  ISO  8  22  13  23  13  24  13  25  13  26  13  27  13  28  13  29  13
M  ISO  8  30  14  31  14  32  14  33  14  34  14  35   5  36  13  37  13
M  ISO  5  38  13  39  13  40  13  41  13  42  13
M  END
>  <minimizedAffinity>  (1) 
-4.7869978

>  <minimizedRMSD>  (1) 
3.34356856

$$$$
