
     RDKit          3D

 35 38  0  0  1  0  0  0  0  0999 V2000
   40.0040   23.7130   35.7800 C   0  0  1  0  0  0  0  0  0  0  0  0
   41.4620   23.8860   35.8720 C   0  0  0  0  0  0  0  0  0  0  0  0
   41.9300   22.8290   36.9000 C   0  0  1  0  0  0  0  0  0  0  0  0
   40.7330   21.9940   37.2050 C   0  0  0  0  0  0  0  0  0  0  0  0
   39.6520   23.0790   37.1490 C   0  0  0  0  0  0  0  0  0  0  0  0
   43.0980   22.0850   36.3960 C   0  0  0  0  0  0  0  0  0  0  0  0
   43.0640   20.7550   36.0450 C   0  0  0  0  0  0  0  0  0  0  0  0
   44.3240   20.4720   35.6250 N   0  0  0  0  0  0  0  0  0  0  0  0
   45.0620   21.6280   35.7370 C   0  0  0  0  0  0  0  0  0  0  0  0
   44.2960   22.6540   36.2230 N   0  0  0  0  0  0  0  0  0  0  0  0
   44.7550   23.9790   36.4570 C   0  0  0  0  0  0  0  0  0  0  0  0
   44.7720   24.7730   37.5440 N   0  0  0  0  0  0  0  0  0  0  0  0
   45.3020   25.9240   37.2620 O   0  0  0  0  0  0  0  0  0  0  0  0
   45.6540   25.9410   35.9980 C   0  0  0  0  0  0  0  0  0  0  0  0
   45.3200   24.7380   35.4870 N   0  0  0  0  0  0  0  0  0  0  0  0
   37.8490   24.9900   35.6670 C   0  0  0  0  0  0  0  0  0  0  0  0
   39.2330   24.9110   35.5200 C   0  0  0  0  0  0  0  0  0  0  0  0
   39.9130   26.0660   35.0760 C   0  0  0  0  0  0  0  0  0  0  0  0
   39.2090   27.2020   34.8120 N   0  0  0  0  0  0  0  0  0  0  0  0
   37.8510   27.2320   34.9710 C   0  0  0  0  0  0  0  0  0  0  0  0
   37.1950   26.1300   35.3940 N   0  0  0  0  0  0  0  0  0  0  0  0
   39.7397   23.1015   34.9047 H   0  0  0  0  0  0  0  0  0  0  0  0
   41.9342   23.7092   34.8944 H   0  0  0  0  0  0  0  0  0  0  0  0
   41.7372   24.9066   36.1764 H   0  0  0  0  0  0  0  0  0  0  0  0
   42.2954   23.2748   37.8369 H   0  0  0  0  0  0  0  0  0  0  0  0
   40.5720   21.2138   36.4464 H   0  0  0  0  0  0  0  0  0  0  0  0
   40.7825   21.4284   38.1471 H   0  0  0  0  0  0  0  0  0  0  0  0
   39.7504   23.8003   37.9736 H   0  0  0  0  0  0  0  0  0  0  0  0
   38.6177   22.7176   37.2477 H   0  0  0  0  0  0  0  0  0  0  0  0
   42.2042   20.0706   36.0939 H   0  0  0  0  0  0  0  0  0  0  0  0
   46.1258   21.7163   35.4715 H   0  0  0  0  0  0  0  0  0  0  0  0
   46.1291   26.7743   35.4596 H   0  0  0  0  0  0  0  0  0  0  0  0
   37.2870   24.1089   36.0103 H   0  0  0  0  0  0  0  0  0  0  0  0
   41.0049   26.0486   34.9440 H   0  0  0  0  0  0  0  0  0  0  0  0
   37.2926   28.1546   34.7541 H   0  0  0  0  0  0  0  0  0  0  0  0
  1  2  1  0
  1  5  1  0
  2  3  1  0
  3  4  1  0
  5  4  1  0
  6  3  1  0
  7  6  2  0
  8  9  2  0
  8  7  1  0
  9 10  1  0
 10  6  1  0
 10 11  1  0
 11 12  2  0
 13 12  1  0
 14 13  1  0
 15 14  2  0
 15 11  1  0
 17 16  2  0
 17  1  1  0
 18 17  1  0
 19 20  1  0
 19 18  2  0
 20 21  2  0
 21 16  1  0
  1 22  1  6
  2 23  1  0
  2 24  1  0
  3 25  1  1
  4 26  1  0
  4 27  1  0
  5 28  1  0
  5 29  1  0
  7 30  1  0
  9 31  1  0
 14 32  1  0
 16 33  1  0
 18 34  1  0
 20 35  1  0
M  ISO  8  22  13  23  13  24  13  25  13  26  13  27  13  28  13  29  13
M  ISO  6  30  14  31  14  32  14  33  14  34  14  35  14
M  END
>  <minimizedAffinity>  (1) 
-4.82735872

>  <minimizedRMSD>  (1) 
0.876365662

$$$$
