
     RDKit          3D

 37 40  0  0  1  0  0  0  0  0999 V2000
   39.9250   23.7170   35.7600 C   0  0  1  0  0  0  0  0  0  0  0  0
   41.3850   23.9390   35.8640 C   0  0  0  0  0  0  0  0  0  0  0  0
   41.9010   22.9080   36.8750 C   0  0  1  0  0  0  0  0  0  0  0  0
   40.7200   22.0700   37.2390 C   0  0  0  0  0  0  0  0  0  0  0  0
   39.6180   23.1280   37.1560 C   0  0  0  0  0  0  0  0  0  0  0  0
   43.0560   22.1540   36.3440 C   0  0  0  0  0  0  0  0  0  0  0  0
   42.9770   20.8510   35.9110 C   0  0  0  0  0  0  0  0  0  0  0  0
   44.2370   20.5420   35.4950 N   0  0  0  0  0  0  0  0  0  0  0  0
   45.0030   21.6650   35.6980 C   0  0  0  0  0  0  0  0  0  0  0  0
   44.2770   22.6790   36.2270 N   0  0  0  0  0  0  0  0  0  0  0  0
   45.1580   26.0840   36.9750 N   0  0  0  0  0  0  0  0  0  0  0  0
   44.2400   25.2140   36.6170 N   0  0  0  0  0  0  0  0  0  0  0  0
   44.7850   23.9680   36.5530 C   0  0  0  0  0  0  0  0  0  0  0  0
   46.1280   24.1000   36.8960 C   0  0  0  0  0  0  0  0  0  0  0  0
   46.3510   25.4520   37.1610 C   0  0  0  0  0  0  0  0  0  0  0  0
   37.7670   24.9950   35.6550 C   0  0  0  0  0  0  0  0  0  0  0  0
   39.1410   24.9120   35.5030 C   0  0  0  0  0  0  0  0  0  0  0  0
   39.8080   26.0720   35.0500 C   0  0  0  0  0  0  0  0  0  0  0  0
   39.1120   27.2170   34.7790 N   0  0  0  0  0  0  0  0  0  0  0  0
   37.7520   27.2410   34.9480 C   0  0  0  0  0  0  0  0  0  0  0  0
   37.1110   26.1340   35.3820 N   0  0  0  0  0  0  0  0  0  0  0  0
   39.6585   23.0803   34.9035 H   0  0  0  0  0  0  0  0  0  0  0  0
   41.8648   23.7877   34.8858 H   0  0  0  0  0  0  0  0  0  0  0  0
   41.6134   24.9660   36.1852 H   0  0  0  0  0  0  0  0  0  0  0  0
   42.3069   23.3761   37.7839 H   0  0  0  0  0  0  0  0  0  0  0  0
   40.5593   21.2540   36.5191 H   0  0  0  0  0  0  0  0  0  0  0  0
   40.7965   21.5513   38.2060 H   0  0  0  0  0  0  0  0  0  0  0  0
   39.7155   23.8836   37.9495 H   0  0  0  0  0  0  0  0  0  0  0  0
   38.5947   22.7457   37.2854 H   0  0  0  0  0  0  0  0  0  0  0  0
   42.0901   20.2004   35.9024 H   0  0  0  0  0  0  0  0  0  0  0  0
   46.0748   21.7322   35.4599 H   0  0  0  0  0  0  0  0  0  0  0  0
   44.9991   27.0943   37.0970 H   0  0  0  0  0  0  0  0  0  0  0  0
   46.8723   23.2917   36.9482 H   0  0  0  0  0  0  0  0  0  0  0  0
   47.3022   25.9160   37.4609 H   0  0  0  0  0  0  0  0  0  0  0  0
   37.2056   24.1158   36.0041 H   0  0  0  0  0  0  0  0  0  0  0  0
   40.8994   26.0537   34.9138 H   0  0  0  0  0  0  0  0  0  0  0  0
   37.1848   28.1582   34.7311 H   0  0  0  0  0  0  0  0  0  0  0  0
  1  2  1  0
  1  5  1  0
  2  3  1  0
  3  4  1  0
  5  4  1  0
  6  3  1  0
  7  6  2  0
  8  9  2  0
  8  7  1  0
  9 10  1  0
 10  6  1  0
 10 13  1  0
 11 15  1  0
 12 11  1  0
 13 12  2  0
 13 14  1  0
 14 15  2  0
 17 16  2  0
 17  1  1  0
 18 17  1  0
 19 20  1  0
 19 18  2  0
 20 21  2  0
 21 16  1  0
  1 22  1  6
  2 23  1  0
  2 24  1  0
  3 25  1  1
  4 26  1  0
  4 27  1  0
  5 28  1  0
  5 29  1  0
  7 30  1  0
  9 31  1  0
 11 32  1  0
 14 33  1  0
 15 34  1  0
 16 35  1  0
 18 36  1  0
 20 37  1  0
M  ISO  8  22  13  23  13  24  13  25  13  26  13  27  13  28  13  29  13
M  ISO  8  30  14  31  14  32   9  33  14  34  14  35  14  36  14  37  14
M  END
>  <minimizedAffinity>  (1) 
-4.89000702

>  <minimizedRMSD>  (1) 
0.957438588

$$$$
