
     RDKit          3D

 36 38  0  0  1  0  0  0  0  0999 V2000
   39.9410   23.6200   35.8450 C   0  0  1  0  0  0  0  0  0  0  0  0
   41.4110   23.7100   35.8560 C   0  0  0  0  0  0  0  0  0  0  0  0
   41.8930   22.7510   36.9650 C   0  0  1  0  0  0  0  0  0  0  0  0
   40.6660   22.0250   37.4080 C   0  0  0  0  0  0  0  0  0  0  0  0
   39.6530   23.1700   37.3010 C   0  0  0  0  0  0  0  0  0  0  0  0
   37.8840   25.0440   35.6750 C   0  0  0  0  0  0  0  0  0  0  0  0
   39.2460   24.8520   35.5150 C   0  0  0  0  0  0  0  0  0  0  0  0
   39.9830   25.9320   34.9830 C   0  0  0  0  0  0  0  0  0  0  0  0
   39.3420   27.0900   34.6600 N   0  0  0  0  0  0  0  0  0  0  0  0
   38.0010   27.2200   34.8410 C   0  0  0  0  0  0  0  0  0  0  0  0
   37.2910   26.1900   35.3490 N   0  0  0  0  0  0  0  0  0  0  0  0
   42.9910   21.8930   36.4770 C   0  0  0  0  0  0  0  0  0  0  0  0
   42.9170   20.5150   36.4650 C   0  0  0  0  0  0  0  0  0  0  0  0
   44.1050   20.1070   35.9430 N   0  0  0  0  0  0  0  0  0  0  0  0
   44.8250   21.2400   35.6690 C   0  0  0  0  0  0  0  0  0  0  0  0
   44.1340   22.3810   36.0010 N   0  0  0  0  0  0  0  0  0  0  0  0
   44.7250   23.6590   35.7860 C   0  0  0  0  0  0  0  0  0  0  0  0
   45.0440   24.3880   37.0790 C   0  0  0  0  0  0  0  0  0  0  0  0
   39.5759   22.9430   35.0587 H   0  0  0  0  0  0  0  0  0  0  0  0
   41.8191   23.4023   34.8820 H   0  0  0  0  0  0  0  0  0  0  0  0
   41.7480   24.7403   36.0427 H   0  0  0  0  0  0  0  0  0  0  0  0
   42.3415   23.2632   37.8290 H   0  0  0  0  0  0  0  0  0  0  0  0
   40.4164   21.1903   36.7365 H   0  0  0  0  0  0  0  0  0  0  0  0
   40.7327   21.5453   38.3956 H   0  0  0  0  0  0  0  0  0  0  0  0
   39.8579   23.9702   38.0274 H   0  0  0  0  0  0  0  0  0  0  0  0
   38.6086   22.8965   37.5119 H   0  0  0  0  0  0  0  0  0  0  0  0
   37.2740   24.2249   36.0837 H   0  0  0  0  0  0  0  0  0  0  0  0
   41.0684   25.8392   34.8301 H   0  0  0  0  0  0  0  0  0  0  0  0
   37.4964   28.1605   34.5747 H   0  0  0  0  0  0  0  0  0  0  0  0
   42.0811   19.8850   36.8032 H   0  0  0  0  0  0  0  0  0  0  0  0
   45.8358   21.2370   35.2350 H   0  0  0  0  0  0  0  0  0  0  0  0
   45.6585   23.5232   35.2202 H   0  0  0  0  0  0  0  0  0  0  0  0
   43.9965   24.2706   35.2335 H   0  0  0  0  0  0  0  0  0  0  0  0
   44.7670   23.7549   37.9348 H   0  0  0  0  0  0  0  0  0  0  0  0
   46.1209   24.6086   37.1195 H   0  0  0  0  0  0  0  0  0  0  0  0
   44.4753   25.3287   37.1195 H   0  0  0  0  0  0  0  0  0  0  0  0
  1  2  1  0
  1  5  1  0
  2  3  1  0
  3  4  1  0
  5  4  1  0
  7  6  2  0
  7  1  1  0
  8  7  1  0
  9 10  1  0
  9  8  2  0
 10 11  2  0
 11  6  1  0
 12  3  1  0
 13 12  2  0
 14 13  1  0
 15 14  2  0
 15 16  1  0
 16 12  1  0
 17 16  1  0
 17 18  1  0
  1 19  1  6
  2 20  1  0
  2 21  1  0
  3 22  1  1
  4 23  1  0
  4 24  1  0
  5 25  1  0
  5 26  1  0
  6 27  1  0
  8 28  1  0
 10 29  1  0
 13 30  1  0
 15 31  1  0
 17 32  1  0
 17 33  1  0
 18 34  1  0
 18 35  1  0
 18 36  1  0
M  ISO  8  19  13  20  13  21  13  22  13  23  13  24  13  25  13  26  13
M  ISO  8  27  14  28  14  29  14  30  14  31  14  32   8  33   8  34   8
M  ISO  2  35   8  36   8
M  END
>  <minimizedAffinity>  (1) 
-4.09788132

>  <minimizedRMSD>  (1) 
0.223632008

$$$$
