
     RDKit          3D

 38 41  0  0  1  0  0  0  0  0999 V2000
   39.9730   23.5840   35.8910 C   0  0  1  0  0  0  0  0  0  0  0  0
   41.4440   23.6250   35.8800 C   0  0  0  0  0  0  0  0  0  0  0  0
   41.8770   22.6420   36.9860 C   0  0  1  0  0  0  0  0  0  0  0  0
   40.6300   21.9720   37.4610 C   0  0  0  0  0  0  0  0  0  0  0  0
   39.6620   23.1570   37.3450 C   0  0  0  0  0  0  0  0  0  0  0  0
   37.9370   25.0270   35.6650 C   0  0  0  0  0  0  0  0  0  0  0  0
   39.3060   24.8180   35.5280 C   0  0  0  0  0  0  0  0  0  0  0  0
   40.0790   25.8670   34.9890 C   0  0  0  0  0  0  0  0  0  0  0  0
   39.4810   27.0420   34.6190 N   0  0  0  0  0  0  0  0  0  0  0  0
   38.1280   27.1950   34.7760 C   0  0  0  0  0  0  0  0  0  0  0  0
   37.3800   26.1900   35.2930 N   0  0  0  0  0  0  0  0  0  0  0  0
   42.9360   21.7420   36.5290 C   0  0  0  0  0  0  0  0  0  0  0  0
   42.8610   20.3680   36.5990 C   0  0  0  0  0  0  0  0  0  0  0  0
   44.0330   19.9310   36.0660 N   0  0  0  0  0  0  0  0  0  0  0  0
   44.7680   21.0370   35.6970 C   0  0  0  0  0  0  0  0  0  0  0  0
   44.0760   22.1920   35.9880 N   0  0  0  0  0  0  0  0  0  0  0  0
   44.5570   23.4840   35.7330 C   0  0  0  0  0  0  0  0  0  0  0  0
   44.6060   24.3040   36.8660 C   0  0  0  0  0  0  0  0  0  0  0  0
   45.0760   25.6100   36.6900 C   0  0  0  0  0  0  0  0  0  0  0  0
   45.4570   26.0350   35.4790 N   0  0  0  0  0  0  0  0  0  0  0  0
   45.4070   25.2500   34.4040 C   0  0  0  0  0  0  0  0  0  0  0  0
   44.9610   23.9970   34.5530 N   0  0  0  0  0  0  0  0  0  0  0  0
   39.5900   22.9006   35.1188 H   0  0  0  0  0  0  0  0  0  0  0  0
   41.8327   23.3034   34.9025 H   0  0  0  0  0  0  0  0  0  0  0  0
   41.8311   24.6399   36.0535 H   0  0  0  0  0  0  0  0  0  0  0  0
   42.3471   23.1531   37.8391 H   0  0  0  0  0  0  0  0  0  0  0  0
   40.3376   21.1352   36.8097 H   0  0  0  0  0  0  0  0  0  0  0  0
   40.6921   21.5074   38.4561 H   0  0  0  0  0  0  0  0  0  0  0  0
   39.8962   23.9528   38.0674 H   0  0  0  0  0  0  0  0  0  0  0  0
   38.6068   22.9275   37.5547 H   0  0  0  0  0  0  0  0  0  0  0  0
   37.3043   24.2301   36.0829 H   0  0  0  0  0  0  0  0  0  0  0  0
   41.1648   25.7411   34.8655 H   0  0  0  0  0  0  0  0  0  0  0  0
   37.6465   28.1389   34.4807 H   0  0  0  0  0  0  0  0  0  0  0  0
   42.0359   19.7595   36.9977 H   0  0  0  0  0  0  0  0  0  0  0  0
   45.7659   21.0023   35.2355 H   0  0  0  0  0  0  0  0  0  0  0  0
   44.2884   23.9372   37.8532 H   0  0  0  0  0  0  0  0  0  0  0  0
   45.1328   26.2915   37.5516 H   0  0  0  0  0  0  0  0  0  0  0  0
   45.7243   25.6222   33.4187 H   0  0  0  0  0  0  0  0  0  0  0  0
  1  5  1  0
  2  1  1  0
  2  3  1  0
  3  4  1  0
  5  4  1  0
  7  6  2  0
  7  1  1  0
  8  7  1  0
  9 10  1  0
  9  8  2  0
 10 11  2  0
 11  6  1  0
 12 13  2  0
 12  3  1  0
 14 13  1  0
 15 16  1  0
 15 14  2  0
 16 12  1  0
 17 16  1  0
 17 18  2  0
 19 18  1  0
 20 19  2  0
 21 22  2  0
 21 20  1  0
 22 17  1  0
  1 23  1  6
  2 24  1  0
  2 25  1  0
  3 26  1  1
  4 27  1  0
  4 28  1  0
  5 29  1  0
  5 30  1  0
  6 31  1  0
  8 32  1  0
 10 33  1  0
 13 34  1  0
 15 35  1  0
 18 36  1  0
 19 37  1  0
 21 38  1  0
M  ISO  8  23  13  24  13  25  13  26  13  27  13  28  13  29  13  30  13
M  ISO  8  31  14  32  14  33  14  34  14  35  14  36  14  37  14  38  14
M  END
>  <minimizedAffinity>  (1) 
-4.75599003

>  <minimizedRMSD>  (1) 
0.147557631

$$$$
