
     RDKit          3D

 33 35  0  0  1  0  0  0  0  0999 V2000
   39.9460   23.6320   35.8110 C   0  0  1  0  0  0  0  0  0  0  0  0
   41.4190   23.7490   35.8450 C   0  0  0  0  0  0  0  0  0  0  0  0
   41.9000   22.7510   36.9140 C   0  0  1  0  0  0  0  0  0  0  0  0
   40.6790   22.0150   37.3570 C   0  0  0  0  0  0  0  0  0  0  0  0
   39.6400   23.1240   37.2400 C   0  0  0  0  0  0  0  0  0  0  0  0
   37.8840   25.0590   35.7070 C   0  0  0  0  0  0  0  0  0  0  0  0
   39.2450   24.8740   35.5210 C   0  0  0  0  0  0  0  0  0  0  0  0
   39.9700   25.9690   35.0060 C   0  0  0  0  0  0  0  0  0  0  0  0
   39.3320   27.1400   34.7140 N   0  0  0  0  0  0  0  0  0  0  0  0
   37.9830   27.2590   34.9200 C   0  0  0  0  0  0  0  0  0  0  0  0
   37.2740   26.1980   35.4210 N   0  0  0  0  0  0  0  0  0  0  0  0
   42.9780   21.8830   36.4070 C   0  0  0  0  0  0  0  0  0  0  0  0
   42.8450   20.5450   36.1000 C   0  0  0  0  0  0  0  0  0  0  0  0
   44.0670   20.1650   35.6640 N   0  0  0  0  0  0  0  0  0  0  0  0
   44.8890   21.2610   35.7180 C   0  0  0  0  0  0  0  0  0  0  0  0
   44.2130   22.3620   36.1890 N   0  0  0  0  0  0  0  0  0  0  0  0
   44.9370   23.5910   36.3220 C   0  0  0  0  0  0  0  0  0  0  0  0
   44.7210   24.4600   35.2840 F   0  0  0  0  0  0  0  0  0  0  0  0
   44.5170   24.3020   37.4660 F   0  0  0  0  0  0  0  0  0  0  0  0
   46.2590   23.3070   36.5640 F   0  0  0  0  0  0  0  0  0  0  0  0
   39.6013   22.9753   34.9987 H   0  0  0  0  0  0  0  0  0  0  0  0
   41.8454   23.4930   34.8639 H   0  0  0  0  0  0  0  0  0  0  0  0
   41.7361   24.7756   36.0808 H   0  0  0  0  0  0  0  0  0  0  0  0
   42.3633   23.2546   37.7753 H   0  0  0  0  0  0  0  0  0  0  0  0
   40.4492   21.1693   36.6922 H   0  0  0  0  0  0  0  0  0  0  0  0
   40.7531   21.5547   38.3533 H   0  0  0  0  0  0  0  0  0  0  0  0
   39.7952   23.9096   37.9941 H   0  0  0  0  0  0  0  0  0  0  0  0
   38.6007   22.8033   37.4042 H   0  0  0  0  0  0  0  0  0  0  0  0
   37.2875   24.2263   36.1081 H   0  0  0  0  0  0  0  0  0  0  0  0
   41.0535   25.8790   34.8391 H   0  0  0  0  0  0  0  0  0  0  0  0
   37.4701   28.2031   34.6841 H   0  0  0  0  0  0  0  0  0  0  0  0
   41.9422   19.9231   36.1902 H   0  0  0  0  0  0  0  0  0  0  0  0
   45.9489   21.2598   35.4236 H   0  0  0  0  0  0  0  0  0  0  0  0
  1  2  1  0
  1  5  1  0
  2  3  1  0
  3  4  1  0
  5  4  1  0
  7  6  2  0
  7  1  1  0
  8  7  1  0
  9 10  1  0
  9  8  2  0
 10 11  2  0
 11  6  1  0
 12  3  1  0
 13 12  2  0
 14 15  2  0
 14 13  1  0
 15 16  1  0
 16 17  1  0
 16 12  1  0
 17 20  1  0
 17 19  1  0
 18 17  1  0
  1 21  1  6
  2 22  1  0
  2 23  1  0
  3 24  1  1
  4 25  1  0
  4 26  1  0
  5 27  1  0
  5 28  1  0
  6 29  1  0
  8 30  1  0
 10 31  1  0
 13 32  1  0
 15 33  1  0
M  ISO  8  21  13  22  13  23  13  24  13  25  13  26  13  27  13  28  13
M  ISO  5  29  14  30  14  31  14  32  14  33  14
M  END
>  <minimizedAffinity>  (1) 
-4.47061777

>  <minimizedRMSD>  (1) 
0.619122505

$$$$
