
     RDKit          3D

 53 57  0  0  1  0  0  0  0  0999 V2000
   42.4370   21.8280   36.6960 C   0  0  0  0  0  0  0  0  0  0  0  0
   42.2770   20.4860   37.0040 C   0  0  0  0  0  0  0  0  0  0  0  0
   43.4380   19.8860   36.5960 N   0  0  0  0  0  0  0  0  0  0  0  0
   44.2410   20.8800   36.0650 C   0  0  0  0  0  0  0  0  0  0  0  0
   43.6000   22.1030   36.1330 N   0  0  0  0  0  0  0  0  0  0  0  0
   39.3510   23.3300   35.8330 C   0  0  1  0  0  0  0  0  0  0  0  0
   40.7980   23.3380   35.6240 C   0  0  0  0  0  0  0  0  0  0  0  0
   41.4070   22.8180   36.9590 C   0  0  1  0  0  0  0  0  0  0  0  0
   40.2350   22.3580   37.7510 C   0  0  0  0  0  0  0  0  0  0  0  0
   39.2800   23.5250   37.3940 C   0  0  0  0  0  0  0  0  0  0  0  0
   37.9920   25.4330   35.7740 C   0  0  0  0  0  0  0  0  0  0  0  0
   38.5920   24.3580   35.1560 C   0  0  0  0  0  0  0  0  0  0  0  0
   38.4330   24.2540   33.7500 C   0  0  0  0  0  0  0  0  0  0  0  0
   37.7190   25.1820   33.0660 N   0  0  0  0  0  0  0  0  0  0  0  0
   37.1410   26.2360   33.7310 C   0  0  0  0  0  0  0  0  0  0  0  0
   37.2960   26.3330   35.0850 N   0  0  0  0  0  0  0  0  0  0  0  0
   44.2420   23.2610   35.6400 C   0  0  2  0  0  0  0  0  0  0  0  0
   45.5780   22.8970   34.9870 C   0  0  0  0  0  0  0  0  0  0  0  0
   44.5920   24.1740   36.7870 C   0  0  0  0  0  0  0  0  0  0  0  0
   45.5570   25.2420   36.3480 C   0  0  0  0  0  0  0  0  0  0  0  0
   45.1680   26.2160   35.4160 C   0  0  0  0  0  0  0  0  0  0  0  0
   46.1450   27.0900   35.1470 N   0  0  0  0  0  0  0  0  0  0  0  0
   47.2010   26.7160   35.8920 C   0  0  0  0  0  0  0  0  0  0  0  0
   48.4940   27.1730   36.0830 C   0  0  0  0  0  0  0  0  0  0  0  0
   49.3790   26.5460   36.9520 C   0  0  0  0  0  0  0  0  0  0  0  0
   48.9780   25.4410   37.6490 C   0  0  0  0  0  0  0  0  0  0  0  0
   47.6990   24.9610   37.4810 C   0  0  0  0  0  0  0  0  0  0  0  0
   46.8510   25.6000   36.6200 C   0  0  0  0  0  0  0  0  0  0  0  0
   41.4058   20.0068   37.4744 H   0  0  0  0  0  0  0  0  0  0  0  0
   45.2463   20.7198   35.6481 H   0  0  0  0  0  0  0  0  0  0  0  0
   38.8953   22.4179   35.4203 H   0  0  0  0  0  0  0  0  0  0  0  0
   41.0710   22.6735   34.7910 H   0  0  0  0  0  0  0  0  0  0  0  0
   41.1702   24.3404   35.3656 H   0  0  0  0  0  0  0  0  0  0  0  0
   41.9495   23.5759   37.5431 H   0  0  0  0  0  0  0  0  0  0  0  0
   39.8537   21.3848   37.4081 H   0  0  0  0  0  0  0  0  0  0  0  0
   40.4095   22.1808   38.8225 H   0  0  0  0  0  0  0  0  0  0  0  0
   39.6658   24.5030   37.7174 H   0  0  0  0  0  0  0  0  0  0  0  0
   38.2812   23.5129   37.8548 H   0  0  0  0  0  0  0  0  0  0  0  0
   38.0908   25.5499   36.8633 H   0  0  0  0  0  0  0  0  0  0  0  0
   38.8929   23.4132   33.2100 H   0  0  0  0  0  0  0  0  0  0  0  0
   36.5612   26.9917   33.1808 H   0  0  0  0  0  0  0  0  0  0  0  0
   43.5579   23.7359   34.9213 H   0  0  0  0  0  0  0  0  0  0  0  0
   46.3248   22.6935   35.7686 H   0  0  0  0  0  0  0  0  0  0  0  0
   45.4485   22.0014   34.3616 H   0  0  0  0  0  0  0  0  0  0  0  0
   45.9207   23.7345   34.3616 H   0  0  0  0  0  0  0  0  0  0  0  0
   43.6738   24.6501   37.1615 H   0  0  0  0  0  0  0  0  0  0  0  0
   45.0658   23.5766   37.5798 H   0  0  0  0  0  0  0  0  0  0  0  0
   44.1693   26.2567   34.9567 H   0  0  0  0  0  0  0  0  0  0  0  0
   46.0979   27.8893   34.4991 H   0  0  0  0  0  0  0  0  0  0  0  0
   48.8317   28.0612   35.5289 H   0  0  0  0  0  0  0  0  0  0  0  0
   50.3990   26.9379   37.0784 H   0  0  0  0  0  0  0  0  0  0  0  0
   49.6721   24.9390   38.3391 H   0  0  0  0  0  0  0  0  0  0  0  0
   47.3624   24.0718   38.0342 H   0  0  0  0  0  0  0  0  0  0  0  0
  1  8  1  0
  1  2  2  0
  3  2  1  0
  4  5  1  0
  4  3  2  0
  5  1  1  0
  6 10  1  0
  7  6  1  0
  7  8  1  0
  8  9  1  0
 10  9  1  0
 12 11  2  0
 12  6  1  0
 13 12  1  0
 14 15  1  0
 14 13  2  0
 15 16  2  0
 16 11  1  0
 17  5  1  0
 17 19  1  0
 18 17  1  0
 20 28  1  0
 20 19  1  0
 21 20  2  0
 22 21  1  0
 22 23  1  0
 23 24  2  0
 23 28  1  0
 24 25  1  0
 25 26  2  0
 27 26  1  0
 28 27  2  0
  2 29  1  0
  4 30  1  0
  6 31  1  1
  7 32  1  0
  7 33  1  0
  8 34  1  1
  9 35  1  0
  9 36  1  0
 10 37  1  0
 10 38  1  0
 11 39  1  0
 13 40  1  0
 15 41  1  0
 17 42  1  6
 18 43  1  0
 18 44  1  0
 18 45  1  0
 19 46  1  0
 19 47  1  0
 21 48  1  0
 22 49  1  0
 24 50  1  0
 25 51  1  0
 26 52  1  0
 27 53  1  0
M  ISO  8  29  14  30  14  31  13  32  13  33  13  34  13  35  13  36  13
M  ISO  8  37  13  38  13  39  14  40  14  41  14  42   8  43   8  44   8
M  ISO  8  45   8  46   8  47   8  48  14  49   9  50  14  51  14  52  14
M  ISO  1  53  14
M  END
>  <minimizedAffinity>  (1) 
-5.29578829

>  <minimizedRMSD>  (1) 
1.28904378

$$$$
