
     RDKit          3D

 38 40  0  0  1  0  0  0  0  0999 V2000
   39.8800   22.7190   37.4730 C   0  0  0  0  0  0  0  0  0  0  0  0
   39.2450   23.4890   38.4340 C   0  0  0  0  0  0  0  0  0  0  0  0
   37.8650   23.6730   38.3330 C   0  0  0  0  0  0  0  0  0  0  0  0
   37.2170   23.0800   37.2850 N   0  0  0  0  0  0  0  0  0  0  0  0
   37.8780   22.3360   36.3690 C   0  0  0  0  0  0  0  0  0  0  0  0
   39.1960   22.1620   36.4690 N   0  0  0  0  0  0  0  0  0  0  0  0
   37.1750   21.7310   35.2910 N   0  0  0  0  0  0  0  0  0  0  0  0
   37.7770   21.8790   34.1050 C   0  0  0  0  0  0  0  0  0  0  0  0
   37.1870   21.3340   32.9930 C   0  0  0  0  0  0  0  0  0  0  0  0
   35.9910   20.6660   33.2090 C   0  0  0  0  0  0  0  0  0  0  0  0
   35.2570   20.0500   32.1690 N   0  0  0  0  0  0  0  0  0  0  0  0
   35.4200   20.5410   34.4150 N   0  0  0  0  0  0  0  0  0  0  0  0
   36.0250   21.0890   35.4970 C   0  0  0  0  0  0  0  0  0  0  0  0
   35.5780   21.0310   36.6660 O   0  0  0  0  0  0  0  0  0  0  0  0
   37.6960   21.4050   31.6830 N   0  0  0  0  0  0  0  0  0  0  0  0
   37.6630   22.4850   30.7380 C   0  0  0  0  0  0  0  0  0  0  0  0
   39.0780   22.6030   30.1760 C   0  0  0  0  0  0  0  0  0  0  0  0
   39.2620   21.3850   29.2820 C   0  0  0  0  0  0  0  0  0  0  0  0
   38.3810   20.2360   29.7080 C   0  0  0  0  0  0  0  0  0  0  0  0
   38.3570   20.2020   31.2060 C   0  0  1  0  0  0  0  0  0  0  0  0
   39.7090   20.0100   31.7890 C   0  0  0  0  0  0  0  0  0  0  0  0
   40.8160   19.7750   32.2420 O   0  0  0  0  0  0  0  0  0  0  0  0
   40.9670   22.5633   37.5376 H   0  0  0  0  0  0  0  0  0  0  0  0
   39.8149   23.9446   39.2572 H   0  0  0  0  0  0  0  0  0  0  0  0
   37.3167   24.2753   39.0723 H   0  0  0  0  0  0  0  0  0  0  0  0
   38.7271   22.4274   34.0234 H   0  0  0  0  0  0  0  0  0  0  0  0
   34.3730   19.5652   32.3798 H   0  0  0  0  0  0  0  0  0  0  0  0
   35.6064   20.0861   31.2007 H   0  0  0  0  0  0  0  0  0  0  0  0
   36.9493   22.2636   29.9307 H   0  0  0  0  0  0  0  0  0  0  0  0
   37.3409   23.4234   31.2130 H   0  0  0  0  0  0  0  0  0  0  0  0
   39.1837   23.5288   29.5914 H   0  0  0  0  0  0  0  0  0  0  0  0
   39.8331   22.6412   30.9750 H   0  0  0  0  0  0  0  0  0  0  0  0
   40.3130   21.0641   29.3301 H   0  0  0  0  0  0  0  0  0  0  0  0
   38.9805   21.6687   28.2572 H   0  0  0  0  0  0  0  0  0  0  0  0
   37.3618   20.3838   29.3215 H   0  0  0  0  0  0  0  0  0  0  0  0
   38.7709   19.2874   29.3103 H   0  0  0  0  0  0  0  0  0  0  0  0
   37.7841   19.3261   31.5445 H   0  0  0  0  0  0  0  0  0  0  0  0
   39.7486   21.0536   32.1345 H   0  0  0  0  0  0  0  0  0  0  0  0
  1  2  2  0
  3  2  1  0
  4  3  2  0
  5  6  2  0
  5  4  1  0
  6  1  1  0
  7 13  1  0
  7  5  1  0
  8  7  1  0
  9 10  1  0
  9  8  2  0
 10 12  2  0
 11 10  1  0
 12 13  1  0
 13 14  2  0
 15  9  1  0
 16 15  1  0
 17 16  1  0
 18 19  1  0
 18 17  1  0
 19 20  1  0
 20 15  1  0
 20 21  1  0
 21 22  2  0
  1 23  1  0
  2 24  1  0
  3 25  1  0
  8 26  1  0
 11 27  1  0
 11 28  1  0
 16 29  1  0
 16 30  1  0
 17 31  1  0
 17 32  1  0
 18 33  1  0
 18 34  1  0
 19 35  1  0
 19 36  1  0
 20 37  1  6
 21 38  1  0
M  ISO  8  23  14  24  14  25  14  26  14  29  13  30  13  31  13  32  13
M  ISO  6  33  13  34  13  35  13  36  13  37  13  38   6
M  END
>  <minimizedAffinity>  (1) 
-5.09576178

>  <minimizedRMSD>  (1) 
0.337350667

$$$$
