
     RDKit          3D

 49 52  0  0  1  0  0  0  0  0999 V2000
   43.9110   21.2530   35.6820 C   0  0  0  0  0  0  0  0  0  0  0  0
   43.9150   19.8790   35.4940 C   0  0  0  0  0  0  0  0  0  0  0  0
   44.9650   19.6410   34.6520 N   0  0  0  0  0  0  0  0  0  0  0  0
   45.5490   20.8610   34.3650 C   0  0  0  0  0  0  0  0  0  0  0  0
   44.8730   21.8750   35.0220 N   0  0  0  0  0  0  0  0  0  0  0  0
   40.6200   22.4740   36.1410 C   0  0  1  0  0  0  0  0  0  0  0  0
   41.9560   22.7710   35.6360 C   0  0  0  0  0  0  0  0  0  0  0  0
   42.9220   21.9280   36.5150 C   0  0  1  0  0  0  0  0  0  0  0  0
   42.0330   21.0450   37.3180 C   0  0  0  0  0  0  0  0  0  0  0  0
   40.9360   22.0910   37.6330 C   0  0  0  0  0  0  0  0  0  0  0  0
   38.4480   23.5580   36.7750 C   0  0  0  0  0  0  0  0  0  0  0  0
   39.6420   23.5350   36.0870 C   0  0  0  0  0  0  0  0  0  0  0  0
   39.9180   24.6460   35.2460 C   0  0  0  0  0  0  0  0  0  0  0  0
   39.0250   25.6760   35.1400 N   0  0  0  0  0  0  0  0  0  0  0  0
   37.8580   25.6370   35.8500 C   0  0  0  0  0  0  0  0  0  0  0  0
   37.5980   24.5660   36.6580 N   0  0  0  0  0  0  0  0  0  0  0  0
   45.2850   23.2190   34.8720 C   0  0  2  0  0  0  0  0  0  0  0  0
   45.6460   23.4980   33.4040 C   0  0  0  0  0  0  0  0  0  0  0  0
   46.5540   23.4560   35.6480 C   0  0  0  0  0  0  0  0  0  0  0  0
   46.2790   24.2390   36.8990 C   0  0  0  0  0  0  0  0  0  0  0  0
   45.0700   24.9090   36.9850 C   0  0  0  0  0  0  0  0  0  0  0  0
   44.6700   25.6690   38.0630 C   0  0  0  0  0  0  0  0  0  0  0  0
   45.5580   25.7600   39.1390 C   0  0  0  0  0  0  0  0  0  0  0  0
   46.7680   25.0900   39.0540 C   0  0  0  0  0  0  0  0  0  0  0  0
   47.1420   24.3350   37.9610 C   0  0  0  0  0  0  0  0  0  0  0  0
   43.2238   19.1415   35.9279 H   0  0  0  0  0  0  0  0  0  0  0  0
   46.4219   21.0047   33.7112 H   0  0  0  0  0  0  0  0  0  0  0  0
   40.1355   21.7080   35.5178 H   0  0  0  0  0  0  0  0  0  0  0  0
   42.0424   22.4788   34.5790 H   0  0  0  0  0  0  0  0  0  0  0  0
   42.1853   23.8456   35.6883 H   0  0  0  0  0  0  0  0  0  0  0  0
   43.5446   22.5196   37.2023 H   0  0  0  0  0  0  0  0  0  0  0  0
   41.6469   20.1970   36.7334 H   0  0  0  0  0  0  0  0  0  0  0  0
   42.4944   20.5479   38.1840 H   0  0  0  0  0  0  0  0  0  0  0  0
   41.3182   22.9419   38.2160 H   0  0  0  0  0  0  0  0  0  0  0  0
   40.0896   21.7530   38.2490 H   0  0  0  0  0  0  0  0  0  0  0  0
   38.1950   22.7175   37.4380 H   0  0  0  0  0  0  0  0  0  0  0  0
   40.8579   24.6780   34.6753 H   0  0  0  0  0  0  0  0  0  0  0  0
   37.1337   26.4612   35.7717 H   0  0  0  0  0  0  0  0  0  0  0  0
   44.4620   23.8597   35.2214 H   0  0  0  0  0  0  0  0  0  0  0  0
   46.5157   24.1702   33.3617 H   0  0  0  0  0  0  0  0  0  0  0  0
   45.8895   22.5511   32.9000 H   0  0  0  0  0  0  0  0  0  0  0  0
   44.7911   23.9724   32.9000 H   0  0  0  0  0  0  0  0  0  0  0  0
   46.9961   22.4862   35.9201 H   0  0  0  0  0  0  0  0  0  0  0  0
   47.2483   24.0320   35.0186 H   0  0  0  0  0  0  0  0  0  0  0  0
   44.3798   24.8289   36.1322 H   0  0  0  0  0  0  0  0  0  0  0  0
   43.6963   26.1807   38.0761 H   0  0  0  0  0  0  0  0  0  0  0  0
   45.3022   26.3494   40.0318 H   0  0  0  0  0  0  0  0  0  0  0  0
   47.4660   25.1637   39.9009 H   0  0  0  0  0  0  0  0  0  0  0  0
   48.1138   23.8199   37.9417 H   0  0  0  0  0  0  0  0  0  0  0  0
  1  8  1  0
  2  1  2  0
  3  2  1  0
  4  3  2  0
  4  5  1  0
  5  1  1  0
  6 10  1  0
  7  6  1  0
  7  8  1  0
  8  9  1  0
  9 10  1  0
 12  6  1  0
 12 11  2  0
 13 12  1  0
 14 13  2  0
 14 15  1  0
 15 16  2  0
 16 11  1  0
 17  5  1  0
 17 19  1  0
 18 17  1  0
 19 20  1  0
 20 21  2  0
 20 25  1  0
 21 22  1  0
 22 23  2  0
 24 23  1  0
 25 24  2  0
  2 26  1  0
  4 27  1  0
  6 28  1  6
  7 29  1  0
  7 30  1  0
  8 31  1  1
  9 32  1  0
  9 33  1  0
 10 34  1  0
 10 35  1  0
 11 36  1  0
 13 37  1  0
 15 38  1  0
 17 39  1  1
 18 40  1  0
 18 41  1  0
 18 42  1  0
 19 43  1  0
 19 44  1  0
 21 45  1  0
 22 46  1  0
 23 47  1  0
 24 48  1  0
 25 49  1  0
M  ISO  8  26  14  27  14  28  13  29  13  30  13  31  13  32  13  33  13
M  ISO  8  34  13  35  13  36  14  37  14  38  14  39   8  40   8  41   8
M  ISO  8  42   8  43   8  44   8  45  14  46  14  47  14  48  14  49  14
M  END
>  <minimizedAffinity>  (1) 
-5.38944864

>  <minimizedRMSD>  (1) 
1.95589924

$$$$
