
     RDKit          3D

 53 57  0  0  1  0  0  0  0  0999 V2000
   41.5810   22.4360   36.8890 C   0  0  0  0  0  0  0  0  0  0  0  0
   41.3520   21.1390   37.3220 C   0  0  0  0  0  0  0  0  0  0  0  0
   42.5250   20.4770   37.0760 N   0  0  0  0  0  0  0  0  0  0  0  0
   43.4030   21.3920   36.5110 C   0  0  0  0  0  0  0  0  0  0  0  0
   42.7910   22.6320   36.3980 N   0  0  0  0  0  0  0  0  0  0  0  0
   38.6650   23.9710   35.5880 C   0  0  1  0  0  0  0  0  0  0  0  0
   40.1260   23.9120   35.5370 C   0  0  0  0  0  0  0  0  0  0  0  0
   40.5650   23.4790   36.9580 C   0  0  1  0  0  0  0  0  0  0  0  0
   39.2950   23.1120   37.6520 C   0  0  0  0  0  0  0  0  0  0  0  0
   38.4280   24.2740   37.1090 C   0  0  0  0  0  0  0  0  0  0  0  0
   37.5520   26.1780   35.2190 C   0  0  0  0  0  0  0  0  0  0  0  0
   38.0350   24.9730   34.7570 C   0  0  0  0  0  0  0  0  0  0  0  0
   37.8780   24.7030   33.3730 C   0  0  0  0  0  0  0  0  0  0  0  0
   37.2740   25.6090   32.5500 N   0  0  0  0  0  0  0  0  0  0  0  0
   36.8140   26.7920   33.0690 C   0  0  0  0  0  0  0  0  0  0  0  0
   36.9630   27.0530   34.4010 N   0  0  0  0  0  0  0  0  0  0  0  0
   43.5050   23.7180   35.8390 C   0  0  2  0  0  0  0  0  0  0  0  0
   44.6790   23.2050   34.9900 C   0  0  0  0  0  0  0  0  0  0  0  0
   44.1450   24.5210   36.9470 C   0  0  0  0  0  0  0  0  0  0  0  0
   45.2890   25.3610   36.4280 C   0  0  0  0  0  0  0  0  0  0  0  0
   44.9390   26.2600   35.4610 N   0  0  0  0  0  0  0  0  0  0  0  0
   45.8090   27.1310   34.9310 C   0  0  0  0  0  0  0  0  0  0  0  0
   47.0970   27.1880   35.3120 N   0  0  0  0  0  0  0  0  0  0  0  0
   47.5010   26.3290   36.2580 C   0  0  0  0  0  0  0  0  0  0  0  0
   48.7940   26.2620   36.7310 C   0  0  0  0  0  0  0  0  0  0  0  0
   49.1990   25.3570   37.6950 C   0  0  0  0  0  0  0  0  0  0  0  0
   48.2640   24.4600   38.2230 C   0  0  0  0  0  0  0  0  0  0  0  0
   46.9860   24.5460   37.7370 C   0  0  0  0  0  0  0  0  0  0  0  0
   46.6050   25.4450   36.7900 C   0  0  0  0  0  0  0  0  0  0  0  0
   40.4313   20.7318   37.7653 H   0  0  0  0  0  0  0  0  0  0  0  0
   44.4334   21.1668   36.1986 H   0  0  0  0  0  0  0  0  0  0  0  0
   38.2151   23.0474   35.1948 H   0  0  0  0  0  0  0  0  0  0  0  0
   40.4564   23.1753   34.7900 H   0  0  0  0  0  0  0  0  0  0  0  0
   40.5665   24.8773   35.2470 H   0  0  0  0  0  0  0  0  0  0  0  0
   41.0701   24.2670   37.5358 H   0  0  0  0  0  0  0  0  0  0  0  0
   38.9173   22.1266   37.3415 H   0  0  0  0  0  0  0  0  0  0  0  0
   39.3476   23.0117   38.7462 H   0  0  0  0  0  0  0  0  0  0  0  0
   38.8082   25.2618   37.4083 H   0  0  0  0  0  0  0  0  0  0  0  0
   37.3837   24.3191   37.4516 H   0  0  0  0  0  0  0  0  0  0  0  0
   37.6541   26.4244   36.2862 H   0  0  0  0  0  0  0  0  0  0  0  0
   38.2471   23.7532   32.9587 H   0  0  0  0  0  0  0  0  0  0  0  0
   36.3262   27.5289   32.4139 H   0  0  0  0  0  0  0  0  0  0  0  0
   42.7962   24.3095   35.2409 H   0  0  0  0  0  0  0  0  0  0  0  0
   45.4840   22.8532   35.6520 H   0  0  0  0  0  0  0  0  0  0  0  0
   44.3370   22.3743   34.3552 H   0  0  0  0  0  0  0  0  0  0  0  0
   45.0562   24.0203   34.3552 H   0  0  0  0  0  0  0  0  0  0  0  0
   43.3880   25.1831   37.3926 H   0  0  0  0  0  0  0  0  0  0  0  0
   44.5414   23.8214   37.6976 H   0  0  0  0  0  0  0  0  0  0  0  0
   45.4557   27.8257   34.1547 H   0  0  0  0  0  0  0  0  0  0  0  0
   49.5385   26.9611   36.3225 H   0  0  0  0  0  0  0  0  0  0  0  0
   50.2427   25.3425   38.0422 H   0  0  0  0  0  0  0  0  0  0  0  0
   48.5413   23.7223   38.9903 H   0  0  0  0  0  0  0  0  0  0  0  0
   46.2293   23.8526   38.1328 H   0  0  0  0  0  0  0  0  0  0  0  0
  1  8  1  0
  1  2  2  0
  3  2  1  0
  4  3  2  0
  5  4  1  0
  5  1  1  0
  6 10  1  0
  7  6  1  0
  7  8  1  0
  8  9  1  0
 10  9  1  0
 12 11  2  0
 12  6  1  0
 13 12  1  0
 14 15  1  0
 14 13  2  0
 15 16  2  0
 16 11  1  0
 17  5  1  0
 17 19  1  0
 18 17  1  0
 20 29  1  0
 20 19  1  0
 21 20  2  0
 22 23  2  0
 22 21  1  0
 23 24  1  0
 24 25  1  0
 24 29  2  0
 25 26  2  0
 26 27  1  0
 28 27  2  0
 29 28  1  0
  2 30  1  0
  4 31  1  0
  6 32  1  6
  7 33  1  0
  7 34  1  0
  8 35  1  1
  9 36  1  0
  9 37  1  0
 10 38  1  0
 10 39  1  0
 11 40  1  0
 13 41  1  0
 15 42  1  0
 17 43  1  6
 18 44  1  0
 18 45  1  0
 18 46  1  0
 19 47  1  0
 19 48  1  0
 22 49  1  0
 25 50  1  0
 26 51  1  0
 27 52  1  0
 28 53  1  0
M  ISO  8  30  14  31  14  32  13  33  13  34  13  35  13  36  13  37  13
M  ISO  8  38  13  39  13  40  14  41  14  42  14  43   8  44   8  45   8
M  ISO  8  46   8  47   8  48   8  49  14  50  14  51  14  52  14  53  14
M  END
>  <minimizedAffinity>  (1) 
-5.68934298

>  <minimizedRMSD>  (1) 
1.87064743

$$$$
