
     RDKit          3D

 52 55  0  0  1  0  0  0  0  0999 V2000
   40.0660   23.4960   35.9630 C   0  0  1  0  0  0  0  0  0  0  0  0
   41.5200   23.4930   35.8240 C   0  0  0  0  0  0  0  0  0  0  0  0
   42.0320   22.5360   36.9380 C   0  0  1  0  0  0  0  0  0  0  0  0
   40.8020   21.8970   37.4810 C   0  0  0  0  0  0  0  0  0  0  0  0
   39.9070   23.1610   37.4920 C   0  0  0  0  0  0  0  0  0  0  0  0
   38.0230   24.9230   35.7950 C   0  0  0  0  0  0  0  0  0  0  0  0
   39.3730   24.7160   35.6310 C   0  0  0  0  0  0  0  0  0  0  0  0
   40.1310   25.7720   35.0720 C   0  0  0  0  0  0  0  0  0  0  0  0
   39.5250   26.9450   34.7150 N   0  0  0  0  0  0  0  0  0  0  0  0
   38.1750   27.0980   34.9020 C   0  0  0  0  0  0  0  0  0  0  0  0
   37.4370   26.0710   35.4450 N   0  0  0  0  0  0  0  0  0  0  0  0
   43.0490   21.6370   36.4090 C   0  0  0  0  0  0  0  0  0  0  0  0
   42.9240   20.2580   36.4670 C   0  0  0  0  0  0  0  0  0  0  0  0
   44.0500   19.7780   35.8640 N   0  0  0  0  0  0  0  0  0  0  0  0
   44.8010   20.8710   35.4710 C   0  0  0  0  0  0  0  0  0  0  0  0
   44.1580   22.0450   35.8200 N   0  0  0  0  0  0  0  0  0  0  0  0
   44.7410   23.2930   35.5100 C   0  0  2  0  0  0  0  0  0  0  0  0
   45.2710   23.2880   34.0700 C   0  0  0  0  0  0  0  0  0  0  0  0
   45.9290   23.5360   36.3900 C   0  0  0  0  0  0  0  0  0  0  0  0
   45.9630   24.9170   36.9930 C   0  0  0  0  0  0  0  0  0  0  0  0
   46.6230   24.7630   38.3750 C   0  0  0  0  0  0  0  0  0  0  0  0
   46.0940   25.9970   39.0850 C   0  0  0  0  0  0  0  0  0  0  0  0
   44.6290   25.9600   38.7200 C   0  0  0  0  0  0  0  0  0  0  0  0
   44.5810   25.3440   37.3350 C   0  0  0  0  0  0  0  0  0  0  0  0
   39.6080   22.7973   35.2474 H   0  0  0  0  0  0  0  0  0  0  0  0
   41.8122   23.1208   34.8310 H   0  0  0  0  0  0  0  0  0  0  0  0
   41.9452   24.5029   35.9209 H   0  0  0  0  0  0  0  0  0  0  0  0
   42.5606   23.0342   37.7640 H   0  0  0  0  0  0  0  0  0  0  0  0
   40.4100   21.1119   36.8177 H   0  0  0  0  0  0  0  0  0  0  0  0
   40.9096   21.3669   38.4388 H   0  0  0  0  0  0  0  0  0  0  0  0
   40.3020   23.9546   38.1433 H   0  0  0  0  0  0  0  0  0  0  0  0
   38.8821   23.0442   37.8740 H   0  0  0  0  0  0  0  0  0  0  0  0
   37.4082   24.1196   36.2270 H   0  0  0  0  0  0  0  0  0  0  0  0
   41.2140   25.6488   34.9237 H   0  0  0  0  0  0  0  0  0  0  0  0
   37.6828   28.0400   34.6185 H   0  0  0  0  0  0  0  0  0  0  0  0
   42.0979   19.6775   36.9036 H   0  0  0  0  0  0  0  0  0  0  0  0
   45.7707   20.8147   34.9548 H   0  0  0  0  0  0  0  0  0  0  0  0
   43.9693   24.0643   35.6499 H   0  0  0  0  0  0  0  0  0  0  0  0
   46.3709   23.2776   34.0841 H   0  0  0  0  0  0  0  0  0  0  0  0
   44.9026   22.3933   33.5468 H   0  0  0  0  0  0  0  0  0  0  0  0
   44.9195   24.1895   33.5468 H   0  0  0  0  0  0  0  0  0  0  0  0
   45.9121   22.8002   37.2075 H   0  0  0  0  0  0  0  0  0  0  0  0
   46.8235   23.4391   35.7571 H   0  0  0  0  0  0  0  0  0  0  0  0
   46.4614   25.6109   36.3001 H   0  0  0  0  0  0  0  0  0  0  0  0
   46.3005   23.8386   38.8764 H   0  0  0  0  0  0  0  0  0  0  0  0
   47.7202   24.6890   38.3489 H   0  0  0  0  0  0  0  0  0  0  0  0
   46.2375   25.9252   40.1732 H   0  0  0  0  0  0  0  0  0  0  0  0
   46.6015   26.9290   38.7956 H   0  0  0  0  0  0  0  0  0  0  0  0
   44.0681   25.3422   39.4368 H   0  0  0  0  0  0  0  0  0  0  0  0
   44.1741   26.9613   38.7411 H   0  0  0  0  0  0  0  0  0  0  0  0
   44.2248   26.0859   36.6052 H   0  0  0  0  0  0  0  0  0  0  0  0
   43.8920   24.4867   37.3137 H   0  0  0  0  0  0  0  0  0  0  0  0
  1  5  1  0
  2  1  1  0
  2  3  1  0
  3  4  1  0
  4  5  1  0
  7  6  2  0
  7  1  1  0
  8  7  1  0
  9 10  1  0
  9  8  2  0
 10 11  2  0
 11  6  1  0
 12 13  2  0
 12  3  1  0
 14 13  1  0
 15 16  1  0
 15 14  2  0
 16 12  1  0
 17 16  1  0
 17 19  1  0
 18 17  1  0
 19 20  1  0
 20 24  1  0
 20 21  1  0
 21 22  1  0
 23 22  1  0
 24 23  1  0
  1 25  1  6
  2 26  1  0
  2 27  1  0
  3 28  1  1
  4 29  1  0
  4 30  1  0
  5 31  1  0
  5 32  1  0
  6 33  1  0
  8 34  1  0
 10 35  1  0
 13 36  1  0
 15 37  1  0
 17 38  1  6
 18 39  1  0
 18 40  1  0
 18 41  1  0
 19 42  1  0
 19 43  1  0
 20 44  1  0
 21 45  1  0
 21 46  1  0
 22 47  1  0
 22 48  1  0
 23 49  1  0
 23 50  1  0
 24 51  1  0
 24 52  1  0
M  ISO  8  25  13  26  13  27  13  28  13  29  13  30  13  31  13  32  13
M  ISO  8  33  14  34  14  35  14  36  14  37  14  38   8  39   8  40   8
M  ISO  8  41   8  42   8  43   8  44  13  45  13  46  13  47  13  48  13
M  ISO  4  49  13  50  13  51  13  52  13
M  END
>  <minimizedAffinity>  (1) 
-5.43607664

>  <minimizedRMSD>  (1) 
1.20862877

$$$$
