
     RDKit          3D

 49 52  0  0  1  0  0  0  0  0999 V2000
   42.8500   21.9770   36.5090 C   0  0  0  0  0  0  0  0  0  0  0  0
   42.9410   20.6500   36.8950 C   0  0  0  0  0  0  0  0  0  0  0  0
   44.0590   20.1780   36.2560 N   0  0  0  0  0  0  0  0  0  0  0  0
   44.5720   21.2270   35.5340 C   0  0  0  0  0  0  0  0  0  0  0  0
   43.8120   22.3610   35.6920 N   0  0  0  0  0  0  0  0  0  0  0  0
   39.8260   23.6960   35.8610 C   0  0  1  0  0  0  0  0  0  0  0  0
   41.2830   23.7660   35.8100 C   0  0  0  0  0  0  0  0  0  0  0  0
   41.7680   22.8550   36.9710 C   0  0  1  0  0  0  0  0  0  0  0  0
   40.5490   22.1830   37.4930 C   0  0  0  0  0  0  0  0  0  0  0  0
   39.5860   23.3830   37.3810 C   0  0  0  0  0  0  0  0  0  0  0  0
   37.7480   25.0850   35.6220 C   0  0  0  0  0  0  0  0  0  0  0  0
   39.1030   24.8850   35.4650 C   0  0  0  0  0  0  0  0  0  0  0  0
   39.8360   25.9350   34.8500 C   0  0  0  0  0  0  0  0  0  0  0  0
   39.2050   27.0810   34.4430 N   0  0  0  0  0  0  0  0  0  0  0  0
   37.8660   27.2070   34.6320 C   0  0  0  0  0  0  0  0  0  0  0  0
   37.1490   26.2010   35.2230 N   0  0  0  0  0  0  0  0  0  0  0  0
   44.1560   23.5560   35.0300 C   0  0  2  0  0  0  0  0  0  0  0  0
   45.6300   23.5080   34.5920 C   0  0  0  0  0  0  0  0  0  0  0  0
   44.0630   24.7220   35.9850 C   0  0  0  0  0  0  0  0  0  0  0  0
   45.1870   24.7060   36.9880 C   0  0  0  0  0  0  0  0  0  0  0  0
   44.9980   25.3120   38.2130 C   0  0  0  0  0  0  0  0  0  0  0  0
   45.9860   25.3460   39.2030 C   0  0  0  0  0  0  0  0  0  0  0  0
   47.1890   24.7270   38.8830 C   0  0  0  0  0  0  0  0  0  0  0  0
   47.4230   24.1090   37.6740 C   0  0  0  0  0  0  0  0  0  0  0  0
   46.4030   24.1080   36.7300 C   0  0  0  0  0  0  0  0  0  0  0  0
   42.2663   20.0973   37.5653 H   0  0  0  0  0  0  0  0  0  0  0  0
   45.4754   21.1674   34.9092 H   0  0  0  0  0  0  0  0  0  0  0  0
   39.4464   22.9599   35.1371 H   0  0  0  0  0  0  0  0  0  0  0  0
   41.6548   23.3930   34.8443 H   0  0  0  0  0  0  0  0  0  0  0  0
   41.6517   24.7974   35.9113 H   0  0  0  0  0  0  0  0  0  0  0  0
   42.2322   23.3998   37.8063 H   0  0  0  0  0  0  0  0  0  0  0  0
   40.2367   21.3366   36.8637 H   0  0  0  0  0  0  0  0  0  0  0  0
   40.6371   21.7228   38.4882 H   0  0  0  0  0  0  0  0  0  0  0  0
   39.8808   24.2189   38.0324 H   0  0  0  0  0  0  0  0  0  0  0  0
   38.5439   23.2022   37.6833 H   0  0  0  0  0  0  0  0  0  0  0  0
   37.1440   24.2952   36.0926 H   0  0  0  0  0  0  0  0  0  0  0  0
   40.9202   25.8270   34.6992 H   0  0  0  0  0  0  0  0  0  0  0  0
   37.3532   28.1246   34.3077 H   0  0  0  0  0  0  0  0  0  0  0  0
   43.4736   23.6683   34.1746 H   0  0  0  0  0  0  0  0  0  0  0  0
   46.2764   23.4870   35.4818 H   0  0  0  0  0  0  0  0  0  0  0  0
   45.8045   22.6037   33.9905 H   0  0  0  0  0  0  0  0  0  0  0  0
   45.8630   24.3990   33.9905 H   0  0  0  0  0  0  0  0  0  0  0  0
   44.1100   25.6589   35.4106 H   0  0  0  0  0  0  0  0  0  0  0  0
   43.1117   24.6448   36.5319 H   0  0  0  0  0  0  0  0  0  0  0  0
   44.0287   25.7890   38.4202 H   0  0  0  0  0  0  0  0  0  0  0  0
   45.8210   25.8329   40.1755 H   0  0  0  0  0  0  0  0  0  0  0  0
   47.9942   24.7308   39.6324 H   0  0  0  0  0  0  0  0  0  0  0  0
   48.3901   23.6298   37.4619 H   0  0  0  0  0  0  0  0  0  0  0  0
   46.5686   23.6207   35.7578 H   0  0  0  0  0  0  0  0  0  0  0  0
  1  2  2  0
  1  8  1  0
  3  2  1  0
  4  5  1  0
  4  3  2  0
  5  1  1  0
  6 10  1  0
  7  6  1  0
  7  8  1  0
  8  9  1  0
 10  9  1  0
 12 11  2  0
 12  6  1  0
 13 12  1  0
 14 15  1  0
 14 13  2  0
 15 16  2  0
 16 11  1  0
 17  5  1  0
 17 19  1  0
 18 17  1  0
 19 20  1  0
 20 21  2  0
 21 22  1  0
 23 22  2  0
 24 23  1  0
 25 20  1  0
 25 24  2  0
  2 26  1  0
  4 27  1  0
  6 28  1  6
  7 29  1  0
  7 30  1  0
  8 31  1  1
  9 32  1  0
  9 33  1  0
 10 34  1  0
 10 35  1  0
 11 36  1  0
 13 37  1  0
 15 38  1  0
 17 39  1  6
 18 40  1  0
 18 41  1  0
 18 42  1  0
 19 43  1  0
 19 44  1  0
 21 45  1  0
 22 46  1  0
 23 47  1  0
 24 48  1  0
 25 49  1  0
M  ISO  8  26  14  27  14  28  13  29  13  30  13  31  13  32  13  33  13
M  ISO  8  34  13  35  13  36  14  37  14  38  14  39   8  40   8  41   8
M  ISO  8  42   8  43   8  44   8  45  14  46  14  47  14  48  14  49  14
M  END
>  <minimizedAffinity>  (1) 
-5.58048868

>  <minimizedRMSD>  (1) 
1.16665256

$$$$
