
     RDKit          3D

 46 49  0  0  1  0  0  0  0  0999 V2000
   40.0530   23.5150   35.9360 C   0  0  1  0  0  0  0  0  0  0  0  0
   41.5100   23.5480   35.8320 C   0  0  0  0  0  0  0  0  0  0  0  0
   42.0180   22.5690   36.9300 C   0  0  1  0  0  0  0  0  0  0  0  0
   40.7930   21.9000   37.4450 C   0  0  0  0  0  0  0  0  0  0  0  0
   39.8610   23.1270   37.4440 C   0  0  0  0  0  0  0  0  0  0  0  0
   37.9920   24.9250   35.8000 C   0  0  0  0  0  0  0  0  0  0  0  0
   39.3420   24.7280   35.6270 C   0  0  0  0  0  0  0  0  0  0  0  0
   40.0880   25.8060   35.0780 C   0  0  0  0  0  0  0  0  0  0  0  0
   39.4700   26.9780   34.7440 N   0  0  0  0  0  0  0  0  0  0  0  0
   38.1190   27.1160   34.9400 C   0  0  0  0  0  0  0  0  0  0  0  0
   37.3970   26.0720   35.4720 N   0  0  0  0  0  0  0  0  0  0  0  0
   43.0670   21.7040   36.4000 C   0  0  0  0  0  0  0  0  0  0  0  0
   42.9660   20.3230   36.4470 C   0  0  0  0  0  0  0  0  0  0  0  0
   44.1130   19.8730   35.8550 N   0  0  0  0  0  0  0  0  0  0  0  0
   44.8430   20.9930   35.4820 C   0  0  0  0  0  0  0  0  0  0  0  0
   44.1730   22.1440   35.8300 N   0  0  0  0  0  0  0  0  0  0  0  0
   44.7190   23.4130   35.5450 C   0  0  2  0  0  0  0  0  0  0  0  0
   45.1500   23.4780   34.0680 C   0  0  0  0  0  0  0  0  0  0  0  0
   45.9760   23.6290   36.3270 C   0  0  0  0  0  0  0  0  0  0  0  0
   45.7540   24.6070   37.4520 C   0  0  0  0  0  0  0  0  0  0  0  0
   46.6150   24.9920   38.4590 C   0  0  0  0  0  0  0  0  0  0  0  0
   45.9700   25.8890   39.2300 N   0  0  0  0  0  0  0  0  0  0  0  0
   44.7360   26.0620   38.7160 C   0  0  0  0  0  0  0  0  0  0  0  0
   44.5960   25.2760   37.6210 N   0  0  0  0  0  0  0  0  0  0  0  0
   39.6304   22.8295   35.1867 H   0  0  0  0  0  0  0  0  0  0  0  0
   41.8336   23.2122   34.8357 H   0  0  0  0  0  0  0  0  0  0  0  0
   41.9097   24.5636   35.9689 H   0  0  0  0  0  0  0  0  0  0  0  0
   42.5237   23.0541   37.7779 H   0  0  0  0  0  0  0  0  0  0  0  0
   40.4374   21.1063   36.7715 H   0  0  0  0  0  0  0  0  0  0  0  0
   40.8979   21.3746   38.4057 H   0  0  0  0  0  0  0  0  0  0  0  0
   40.2048   23.9166   38.1283 H   0  0  0  0  0  0  0  0  0  0  0  0
   38.8273   22.9592   37.7804 H   0  0  0  0  0  0  0  0  0  0  0  0
   37.3843   24.1110   36.2221 H   0  0  0  0  0  0  0  0  0  0  0  0
   41.1711   25.6960   34.9208 H   0  0  0  0  0  0  0  0  0  0  0  0
   37.6153   28.0568   34.6732 H   0  0  0  0  0  0  0  0  0  0  0  0
   42.1457   19.7225   36.8671 H   0  0  0  0  0  0  0  0  0  0  0  0
   45.8206   20.9648   34.9785 H   0  0  0  0  0  0  0  0  0  0  0  0
   43.9505   24.1606   35.7907 H   0  0  0  0  0  0  0  0  0  0  0  0
   46.2362   23.6418   34.0099 H   0  0  0  0  0  0  0  0  0  0  0  0
   44.8948   22.5312   33.5696 H   0  0  0  0  0  0  0  0  0  0  0  0
   44.6269   24.3074   33.5696 H   0  0  0  0  0  0  0  0  0  0  0  0
   46.3076   22.6678   36.7468 H   0  0  0  0  0  0  0  0  0  0  0  0
   46.7409   24.0407   35.6521 H   0  0  0  0  0  0  0  0  0  0  0  0
   47.6437   24.6312   38.6060 H   0  0  0  0  0  0  0  0  0  0  0  0
   43.9652   26.7342   39.1210 H   0  0  0  0  0  0  0  0  0  0  0  0
   43.7580   25.2031   37.0266 H   0  0  0  0  0  0  0  0  0  0  0  0
  1  5  1  0
  2  1  1  0
  2  3  1  0
  3  4  1  0
  5  4  1  0
  7  6  2  0
  7  1  1  0
  8  7  1  0
  9 10  1  0
  9  8  2  0
 10 11  2  0
 11  6  1  0
 12 13  2  0
 12  3  1  0
 14 13  1  0
 15 16  1  0
 15 14  2  0
 16 12  1  0
 17 16  1  0
 17 19  1  0
 18 17  1  0
 19 20  1  0
 20 24  1  0
 20 21  2  0
 21 22  1  0
 23 22  2  0
 24 23  1  0
  1 25  1  6
  2 26  1  0
  2 27  1  0
  3 28  1  1
  4 29  1  0
  4 30  1  0
  5 31  1  0
  5 32  1  0
  6 33  1  0
  8 34  1  0
 10 35  1  0
 13 36  1  0
 15 37  1  0
 17 38  1  6
 18 39  1  0
 18 40  1  0
 18 41  1  0
 19 42  1  0
 19 43  1  0
 21 44  1  0
 23 45  1  0
 24 46  1  0
M  ISO  8  25  13  26  13  27  13  28  13  29  13  30  13  31  13  32  13
M  ISO  8  33  14  34  14  35  14  36  14  37  14  38   8  39   8  40   8
M  ISO  6  41   8  42   8  43   8  44  14  45  14  46   9
M  END
>  <minimizedAffinity>  (1) 
-5.05604219

>  <minimizedRMSD>  (1) 
1.28838313

$$$$
