
     RDKit          3D

 47 50  0  0  1  0  0  0  0  0999 V2000
   42.9760   21.9740   36.4090 C   0  0  0  0  0  0  0  0  0  0  0  0
   43.1360   20.6400   36.7480 C   0  0  0  0  0  0  0  0  0  0  0  0
   44.2560   20.2430   36.0700 N   0  0  0  0  0  0  0  0  0  0  0  0
   44.7090   21.3410   35.3650 C   0  0  0  0  0  0  0  0  0  0  0  0
   43.8970   22.4320   35.5820 N   0  0  0  0  0  0  0  0  0  0  0  0
   39.9040   23.6430   35.8480 C   0  0  1  0  0  0  0  0  0  0  0  0
   41.3600   23.7610   35.8250 C   0  0  0  0  0  0  0  0  0  0  0  0
   41.8680   22.7850   36.9190 C   0  0  1  0  0  0  0  0  0  0  0  0
   40.6640   22.0480   37.3870 C   0  0  0  0  0  0  0  0  0  0  0  0
   39.6620   23.2180   37.3430 C   0  0  0  0  0  0  0  0  0  0  0  0
   37.7940   24.9870   35.6990 C   0  0  0  0  0  0  0  0  0  0  0  0
   39.1540   24.8310   35.5300 C   0  0  0  0  0  0  0  0  0  0  0  0
   39.8560   25.9400   34.9830 C   0  0  0  0  0  0  0  0  0  0  0  0
   39.1920   27.0940   34.6490 N   0  0  0  0  0  0  0  0  0  0  0  0
   37.8490   27.1700   34.8440 C   0  0  0  0  0  0  0  0  0  0  0  0
   37.1620   26.1070   35.3710 N   0  0  0  0  0  0  0  0  0  0  0  0
   44.1770   23.6610   34.9520 C   0  0  2  0  0  0  0  0  0  0  0  0
   45.5310   23.6070   34.2270 C   0  0  0  0  0  0  0  0  0  0  0  0
   44.2900   24.7570   35.9800 C   0  0  0  0  0  0  0  0  0  0  0  0
   45.4340   24.6250   36.8970 C   0  0  0  0  0  0  0  0  0  0  0  0
   45.1360   25.2740   38.1010 C   0  0  0  0  0  0  0  0  0  0  0  0
   46.0480   25.3050   39.1530 C   0  0  0  0  0  0  0  0  0  0  0  0
   47.2550   24.6890   39.0020 N   0  0  0  0  0  0  0  0  0  0  0  0
   47.5250   24.0640   37.8260 C   0  0  0  0  0  0  0  0  0  0  0  0
   46.6390   24.0470   36.8360 N   0  0  0  0  0  0  0  0  0  0  0  0
   42.5033   20.0349   37.4140 H   0  0  0  0  0  0  0  0  0  0  0  0
   45.5983   21.3437   34.7176 H   0  0  0  0  0  0  0  0  0  0  0  0
   39.5527   22.9500   35.0693 H   0  0  0  0  0  0  0  0  0  0  0  0
   41.7542   23.4734   34.8391 H   0  0  0  0  0  0  0  0  0  0  0  0
   41.6905   24.7935   36.0115 H   0  0  0  0  0  0  0  0  0  0  0  0
   42.3176   23.2815   37.7916 H   0  0  0  0  0  0  0  0  0  0  0  0
   40.3829   21.2334   36.7034 H   0  0  0  0  0  0  0  0  0  0  0  0
   40.7604   21.5326   38.3540 H   0  0  0  0  0  0  0  0  0  0  0  0
   39.9212   24.0177   38.0524 H   0  0  0  0  0  0  0  0  0  0  0  0
   38.6241   22.9805   37.6194 H   0  0  0  0  0  0  0  0  0  0  0  0
   37.2127   24.1537   36.1205 H   0  0  0  0  0  0  0  0  0  0  0  0
   40.9426   25.8724   34.8258 H   0  0  0  0  0  0  0  0  0  0  0  0
   37.3096   28.0908   34.5771 H   0  0  0  0  0  0  0  0  0  0  0  0
   43.3594   23.8553   34.2422 H   0  0  0  0  0  0  0  0  0  0  0  0
   46.3429   23.5746   34.9685 H   0  0  0  0  0  0  0  0  0  0  0  0
   45.5738   22.7064   33.5968 H   0  0  0  0  0  0  0  0  0  0  0  0
   45.6454   24.5013   33.5968 H   0  0  0  0  0  0  0  0  0  0  0  0
   44.3851   25.7159   35.4494 H   0  0  0  0  0  0  0  0  0  0  0  0
   43.3847   24.6942   36.6017 H   0  0  0  0  0  0  0  0  0  0  0  0
   44.1612   25.7698   38.2186 H   0  0  0  0  0  0  0  0  0  0  0  0
   45.7981   25.8193   40.0927 H   0  0  0  0  0  0  0  0  0  0  0  0
   48.4949   23.5629   37.6912 H   0  0  0  0  0  0  0  0  0  0  0  0
  1  2  2  0
  1  8  1  0
  3  2  1  0
  4  5  1  0
  4  3  2  0
  5  1  1  0
  6 10  1  0
  7  6  1  0
  7  8  1  0
  8  9  1  0
 10  9  1  0
 12 11  2  0
 12  6  1  0
 13 12  1  0
 14 15  1  0
 14 13  2  0
 15 16  2  0
 16 11  1  0
 17  5  1  0
 17 19  1  0
 18 17  1  0
 19 20  1  0
 20 21  2  0
 21 22  1  0
 23 22  2  0
 24 23  1  0
 25 20  1  0
 25 24  2  0
  2 26  1  0
  4 27  1  0
  6 28  1  6
  7 29  1  0
  7 30  1  0
  8 31  1  1
  9 32  1  0
  9 33  1  0
 10 34  1  0
 10 35  1  0
 11 36  1  0
 13 37  1  0
 15 38  1  0
 17 39  1  6
 18 40  1  0
 18 41  1  0
 18 42  1  0
 19 43  1  0
 19 44  1  0
 21 45  1  0
 22 46  1  0
 24 47  1  0
M  ISO  8  26  14  27  14  28  13  29  13  30  13  31  13  32  13  33  13
M  ISO  8  34  13  35  13  36  14  37  14  38  14  39   8  40   8  41   8
M  ISO  6  42   8  43   8  44   8  45  14  46  14  47  14
M  END
>  <minimizedAffinity>  (1) 
-5.05663109

>  <minimizedRMSD>  (1) 
1.06236374

$$$$
