
     RDKit          3D

 46 48  0  0  1  0  0  0  0  0999 V2000
   43.1600   21.8410   36.3640 C   0  0  0  0  0  0  0  0  0  0  0  0
   43.1170   20.4570   36.3390 C   0  0  0  0  0  0  0  0  0  0  0  0
   44.2960   20.0830   35.7540 N   0  0  0  0  0  0  0  0  0  0  0  0
   44.9870   21.2420   35.4550 C   0  0  0  0  0  0  0  0  0  0  0  0
   44.2620   22.3510   35.8450 N   0  0  0  0  0  0  0  0  0  0  0  0
   40.0790   23.5290   35.9150 C   0  0  1  0  0  0  0  0  0  0  0  0
   41.5320   23.6290   35.8240 C   0  0  0  0  0  0  0  0  0  0  0  0
   42.0700   22.6460   36.9000 C   0  0  1  0  0  0  0  0  0  0  0  0
   40.8770   21.9120   37.3950 C   0  0  0  0  0  0  0  0  0  0  0  0
   39.8870   23.0990   37.4120 C   0  0  0  0  0  0  0  0  0  0  0  0
   37.9610   24.8550   35.8320 C   0  0  0  0  0  0  0  0  0  0  0  0
   39.3130   24.7120   35.6170 C   0  0  0  0  0  0  0  0  0  0  0  0
   40.0000   25.8090   35.0390 C   0  0  0  0  0  0  0  0  0  0  0  0
   39.3310   26.9530   34.7180 N   0  0  0  0  0  0  0  0  0  0  0  0
   37.9870   27.0430   34.9540 C   0  0  0  0  0  0  0  0  0  0  0  0
   37.3180   25.9820   35.5120 N   0  0  0  0  0  0  0  0  0  0  0  0
   44.7690   23.6530   35.6300 C   0  0  2  0  0  0  0  0  0  0  0  0
   45.5550   23.6970   34.3080 C   0  0  0  0  0  0  0  0  0  0  0  0
   45.7910   23.9870   36.6910 C   0  0  0  0  0  0  0  0  0  0  0  0
   45.5090   25.3510   37.1760 N   0  0  0  0  0  0  0  0  0  0  0  0
   45.4600   25.6570   38.5580 C   0  0  0  0  0  0  0  0  0  0  0  0
   46.3060   25.0910   39.3430 N   0  0  0  0  0  0  0  0  0  0  0  0
   44.5100   26.5570   39.0660 N   0  0  0  0  0  0  0  0  0  0  0  0
   47.0320   24.4180   39.0380 H   0  0  0  0  0  0  0  0  0  0  0  0
   42.3130   19.8031   36.7078 H   0  0  0  0  0  0  0  0  0  0  0  0
   45.9756   21.2764   34.9739 H   0  0  0  0  0  0  0  0  0  0  0  0
   39.6964   22.8394   35.1482 H   0  0  0  0  0  0  0  0  0  0  0  0
   41.8781   23.3334   34.8226 H   0  0  0  0  0  0  0  0  0  0  0  0
   41.8869   24.6571   35.9888 H   0  0  0  0  0  0  0  0  0  0  0  0
   42.5457   23.1365   37.7621 H   0  0  0  0  0  0  0  0  0  0  0  0
   40.5614   21.1159   36.7047 H   0  0  0  0  0  0  0  0  0  0  0  0
   41.0015   21.3732   38.3459 H   0  0  0  0  0  0  0  0  0  0  0  0
   40.1871   23.8873   38.1181 H   0  0  0  0  0  0  0  0  0  0  0  0
   38.8583   22.8778   37.7328 H   0  0  0  0  0  0  0  0  0  0  0  0
   37.3968   24.0224   36.2775 H   0  0  0  0  0  0  0  0  0  0  0  0
   41.0809   25.7368   34.8480 H   0  0  0  0  0  0  0  0  0  0  0  0
   37.4429   27.9639   34.6972 H   0  0  0  0  0  0  0  0  0  0  0  0
   43.9142   24.3453   35.6349 H   0  0  0  0  0  0  0  0  0  0  0  0
   46.6320   23.7573   34.5236 H   0  0  0  0  0  0  0  0  0  0  0  0
   45.3477   22.7858   33.7276 H   0  0  0  0  0  0  0  0  0  0  0  0
   45.2473   24.5793   33.7276 H   0  0  0  0  0  0  0  0  0  0  0  0
   45.7146   23.2710   37.5226 H   0  0  0  0  0  0  0  0  0  0  0  0
   46.8081   23.9297   36.2760 H   0  0  0  0  0  0  0  0  0  0  0  0
   45.3431   26.1018   36.4907 H   0  0  0  0  0  0  0  0  0  0  0  0
   44.4882   26.7684   40.0738 H   0  0  0  0  0  0  0  0  0  0  0  0
   43.8348   27.0060   38.4309 H   0  0  0  0  0  0  0  0  0  0  0  0
  1  8  1  0
  2  1  2  0
  3  2  1  0
  4  3  2  0
  4  5  1  0
  5  1  1  0
  6 10  1  0
  7  6  1  0
  7  8  1  0
  8  9  1  0
  9 10  1  0
 12 11  2  0
 12  6  1  0
 13 12  1  0
 14 15  1  0
 14 13  2  0
 15 16  2  0
 16 11  1  0
 17  5  1  0
 17 19  1  0
 18 17  1  0
 19 20  1  0
 20 21  1  0
 21 23  1  0
 21 22  2  0
 24 22  1  0
  2 25  1  0
  4 26  1  0
  6 27  1  6
  7 28  1  0
  7 29  1  0
  8 30  1  1
  9 31  1  0
  9 32  1  0
 10 33  1  0
 10 34  1  0
 11 35  1  0
 13 36  1  0
 15 37  1  0
 17 38  1  6
 18 39  1  0
 18 40  1  0
 18 41  1  0
 19 42  1  0
 19 43  1  0
 20 44  1  0
 23 45  1  0
 23 46  1  0
M  ISO  8  25  14  26  14  27  13  28  13  29  13  30  13  31  13  32  13
M  ISO  8  33  13  34  13  35  14  36  14  37  14  38   8  39   8  40   8
M  ISO  3  41   8  42   8  43   8
M  END
>  <minimizedAffinity>  (1) 
-4.98917294

>  <minimizedRMSD>  (1) 
0.672925353

$$$$
