
     RDKit          3D

 53 56  0  0  1  0  0  0  0  0999 V2000
   42.9340   21.7070   36.4020 C   0  0  0  0  0  0  0  0  0  0  0  0
   42.9370   20.3510   36.6780 C   0  0  0  0  0  0  0  0  0  0  0  0
   44.0230   19.8600   36.0030 N   0  0  0  0  0  0  0  0  0  0  0  0
   44.6150   20.9230   35.3630 C   0  0  0  0  0  0  0  0  0  0  0  0
   43.9220   22.0920   35.6180 N   0  0  0  0  0  0  0  0  0  0  0  0
   39.9490   23.5580   35.9410 C   0  0  1  0  0  0  0  0  0  0  0  0
   41.4070   23.5660   35.8140 C   0  0  0  0  0  0  0  0  0  0  0  0
   41.9100   22.6060   36.9290 C   0  0  1  0  0  0  0  0  0  0  0  0
   40.6770   21.9630   37.4800 C   0  0  0  0  0  0  0  0  0  0  0  0
   39.7800   23.2230   37.4650 C   0  0  0  0  0  0  0  0  0  0  0  0
   37.9290   25.0280   35.8030 C   0  0  0  0  0  0  0  0  0  0  0  0
   39.2720   24.7900   35.6190 C   0  0  0  0  0  0  0  0  0  0  0  0
   40.0290   25.8440   35.0430 C   0  0  0  0  0  0  0  0  0  0  0  0
   39.4370   27.0270   34.6930 N   0  0  0  0  0  0  0  0  0  0  0  0
   38.0930   27.2000   34.9030 C   0  0  0  0  0  0  0  0  0  0  0  0
   37.3450   26.1850   35.4630 N   0  0  0  0  0  0  0  0  0  0  0  0
   44.3490   23.3310   35.0480 C   0  0  2  0  0  0  0  0  0  0  0  0
   44.5210   23.1530   33.5300 C   0  0  0  0  0  0  0  0  0  0  0  0
   45.7170   23.6680   35.5810 C   0  0  0  0  0  0  0  0  0  0  0  0
   45.6830   24.0810   36.9940 N   0  0  0  0  0  0  0  0  0  0  0  0
   44.9010   25.3360   36.9600 C   0  0  0  0  0  0  0  0  0  0  0  0
   44.6380   25.7810   38.3820 C   0  0  0  0  0  0  0  0  0  0  0  0
   45.9320   26.0590   38.9830 N   0  0  0  0  0  0  0  0  0  0  0  0
   47.0330   25.8310   38.0650 C   0  0  0  0  0  0  0  0  0  0  0  0
   46.9730   24.4360   37.4780 C   0  0  0  0  0  0  0  0  0  0  0  0
   42.2246   19.7911   37.3017 H   0  0  0  0  0  0  0  0  0  0  0  0
   45.5154   20.8532   34.7350 H   0  0  0  0  0  0  0  0  0  0  0  0
   39.4948   22.8576   35.2247 H   0  0  0  0  0  0  0  0  0  0  0  0
   41.7113   23.2005   34.8221 H   0  0  0  0  0  0  0  0  0  0  0  0
   41.8265   24.5776   35.9177 H   0  0  0  0  0  0  0  0  0  0  0  0
   42.4323   23.1060   37.7580 H   0  0  0  0  0  0  0  0  0  0  0  0
   40.2919   21.1652   36.8280 H   0  0  0  0  0  0  0  0  0  0  0  0
   40.7821   21.4466   38.4456 H   0  0  0  0  0  0  0  0  0  0  0  0
   40.1645   24.0214   38.1168 H   0  0  0  0  0  0  0  0  0  0  0  0
   38.7502   23.0993   37.8312 H   0  0  0  0  0  0  0  0  0  0  0  0
   37.3093   24.2354   36.2477 H   0  0  0  0  0  0  0  0  0  0  0  0
   41.1076   25.7076   34.8756 H   0  0  0  0  0  0  0  0  0  0  0  0
   37.6109   28.1488   34.6247 H   0  0  0  0  0  0  0  0  0  0  0  0
   43.6096   24.1092   35.2882 H   0  0  0  0  0  0  0  0  0  0  0  0
   45.2733   22.3745   33.3350 H   0  0  0  0  0  0  0  0  0  0  0  0
   43.5605   22.8545   33.0847 H   0  0  0  0  0  0  0  0  0  0  0  0
   44.8522   24.1027   33.0847 H   0  0  0  0  0  0  0  0  0  0  0  0
   46.3608   22.7810   35.4876 H   0  0  0  0  0  0  0  0  0  0  0  0
   46.1068   24.5127   34.9940 H   0  0  0  0  0  0  0  0  0  0  0  0
   45.4701   26.1127   36.4281 H   0  0  0  0  0  0  0  0  0  0  0  0
   43.9480   25.1703   36.4363 H   0  0  0  0  0  0  0  0  0  0  0  0
   44.0163   26.6885   38.3856 H   0  0  0  0  0  0  0  0  0  0  0  0
   44.1009   25.0036   38.9451 H   0  0  0  0  0  0  0  0  0  0  0  0
   45.9515   27.0439   39.2838 H   0  0  0  0  0  0  0  0  0  0  0  0
   46.9788   26.5668   37.2491 H   0  0  0  0  0  0  0  0  0  0  0  0
   47.9775   25.9369   38.6188 H   0  0  0  0  0  0  0  0  0  0  0  0
   47.2626   23.7168   38.2583 H   0  0  0  0  0  0  0  0  0  0  0  0
   47.6589   24.4160   36.6183 H   0  0  0  0  0  0  0  0  0  0  0  0
  1  2  2  0
  1  8  1  0
  3  2  1  0
  4  5  1  0
  4  3  2  0
  5  1  1  0
  6 10  1  0
  7  6  1  0
  7  8  1  0
  8  9  1  0
 10  9  1  0
 12 11  2  0
 12  6  1  0
 13 12  1  0
 14 15  1  0
 14 13  2  0
 15 16  2  0
 16 11  1  0
 17 19  1  0
 17  5  1  0
 18 17  1  0
 19 20  1  0
 20 25  1  0
 21 20  1  0
 21 22  1  0
 22 23  1  0
 24 23  1  0
 25 24  1  0
  2 26  1  0
  4 27  1  0
  6 28  1  6
  7 29  1  0
  7 30  1  0
  8 31  1  1
  9 32  1  0
  9 33  1  0
 10 34  1  0
 10 35  1  0
 11 36  1  0
 13 37  1  0
 15 38  1  0
 17 39  1  6
 18 40  1  0
 18 41  1  0
 18 42  1  0
 19 43  1  0
 19 44  1  0
 21 45  1  0
 21 46  1  0
 22 47  1  0
 22 48  1  0
 23 49  1  0
 24 50  1  0
 24 51  1  0
 25 52  1  0
 25 53  1  0
M  ISO  8  26  14  27  14  28  13  29  13  30  13  31  13  32  13  33  13
M  ISO  8  34  13  35  13  36  14  37  14  38  14  39   8  40   8  41   8
M  ISO  8  42   8  43   8  44   8  45  13  46  13  47  13  48  13  49   5
M  ISO  4  50  13  51  13  52  13  53  13
M  END
>  <minimizedAffinity>  (1) 
-4.83256817

>  <minimizedRMSD>  (1) 
1.36680889

$$$$
