
     RDKit          3D

 46 49  0  0  1  0  0  0  0  0999 V2000
   40.2910   23.0730   36.0510 C   0  0  1  0  0  0  0  0  0  0  0  0
   41.7080   23.1390   35.7110 C   0  0  0  0  0  0  0  0  0  0  0  0
   42.4180   22.1920   36.7240 C   0  0  1  0  0  0  0  0  0  0  0  0
   41.3130   21.5010   37.4420 C   0  0  0  0  0  0  0  0  0  0  0  0
   40.3590   22.7090   37.5750 C   0  0  0  0  0  0  0  0  0  0  0  0
   38.2350   24.4770   36.3190 C   0  0  0  0  0  0  0  0  0  0  0  0
   39.5140   24.2670   35.8400 C   0  0  0  0  0  0  0  0  0  0  0  0
   40.0910   25.3070   35.0640 C   0  0  0  0  0  0  0  0  0  0  0  0
   39.3930   26.4540   34.8160 N   0  0  0  0  0  0  0  0  0  0  0  0
   38.1260   26.6040   35.3200 C   0  0  0  0  0  0  0  0  0  0  0  0
   37.5700   25.6100   36.0640 N   0  0  0  0  0  0  0  0  0  0  0  0
   43.3720   21.3280   36.0260 C   0  0  0  0  0  0  0  0  0  0  0  0
   43.2040   19.9550   35.9620 C   0  0  0  0  0  0  0  0  0  0  0  0
   44.2740   19.5110   35.2220 N   0  0  0  0  0  0  0  0  0  0  0  0
   45.0080   20.6150   34.8910 C   0  0  0  0  0  0  0  0  0  0  0  0
   44.4580   21.7610   35.3870 N   0  0  0  0  0  0  0  0  0  0  0  0
   45.0390   23.0480   35.1750 C   0  0  2  0  0  0  0  0  0  0  0  0
   45.5060   23.1160   33.7030 C   0  0  0  0  0  0  0  0  0  0  0  0
   46.2870   23.1750   35.9890 C   0  0  0  0  0  0  0  0  0  0  0  0
   46.0810   24.1780   37.0840 C   0  0  0  0  0  0  0  0  0  0  0  0
   44.8540   24.8380   37.1810 C   0  0  0  0  0  0  0  0  0  0  0  0
   44.7440   25.7320   38.2040 C   0  0  0  0  0  0  0  0  0  0  0  0
   45.7830   25.9580   39.0700 C   0  0  0  0  0  0  0  0  0  0  0  0
   47.1070   24.8740   38.5140 S   0  0  0  0  0  0  0  0  0  0  0  0
   39.7653   22.3626   35.3960 H   0  0  0  0  0  0  0  0  0  0  0  0
   41.8733   22.7938   34.6797 H   0  0  0  0  0  0  0  0  0  0  0  0
   42.0963   24.1666   35.7686 H   0  0  0  0  0  0  0  0  0  0  0  0
   43.0472   22.7060   37.4656 H   0  0  0  0  0  0  0  0  0  0  0  0
   40.8742   20.6864   36.8472 H   0  0  0  0  0  0  0  0  0  0  0  0
   41.5869   20.9951   38.3796 H   0  0  0  0  0  0  0  0  0  0  0  0
   40.7893   23.5194   38.1818 H   0  0  0  0  0  0  0  0  0  0  0  0
   39.3989   22.5231   38.0785 H   0  0  0  0  0  0  0  0  0  0  0  0
   37.7524   23.6950   36.9237 H   0  0  0  0  0  0  0  0  0  0  0  0
   41.1071   25.1877   34.6600 H   0  0  0  0  0  0  0  0  0  0  0  0
   37.5604   27.5266   35.1229 H   0  0  0  0  0  0  0  0  0  0  0  0
   42.3955   19.3543   36.4042 H   0  0  0  0  0  0  0  0  0  0  0  0
   45.9323   20.5836   34.2955 H   0  0  0  0  0  0  0  0  0  0  0  0
   44.3051   23.8248   35.4359 H   0  0  0  0  0  0  0  0  0  0  0  0
   46.5940   23.2744   33.6705 H   0  0  0  0  0  0  0  0  0  0  0  0
   45.2576   22.1722   33.1955 H   0  0  0  0  0  0  0  0  0  0  0  0
   44.9987   23.9498   33.1955 H   0  0  0  0  0  0  0  0  0  0  0  0
   46.5356   22.1987   36.4305 H   0  0  0  0  0  0  0  0  0  0  0  0
   47.1102   23.5099   35.3407 H   0  0  0  0  0  0  0  0  0  0  0  0
   44.0299   24.6486   36.4775 H   0  0  0  0  0  0  0  0  0  0  0  0
   43.8019   26.2839   38.3378 H   0  0  0  0  0  0  0  0  0  0  0  0
   45.8027   26.6532   39.9222 H   0  0  0  0  0  0  0  0  0  0  0  0
  1  5  1  0
  2  1  1  0
  2  3  1  0
  3  4  1  0
  4  5  1  0
  7  1  1  0
  7  6  2  0
  8  7  1  0
  9  8  2  0
  9 10  1  0
 10 11  2  0
 11  6  1  0
 12  3  1  0
 13 12  2  0
 14 13  1  0
 15 14  2  0
 15 16  1  0
 16 12  1  0
 17 16  1  0
 17 19  1  0
 18 17  1  0
 19 20  1  0
 20 21  2  0
 20 24  1  0
 21 22  1  0
 22 23  2  0
 24 23  1  0
  1 25  1  6
  2 26  1  0
  2 27  1  0
  3 28  1  1
  4 29  1  0
  4 30  1  0
  5 31  1  0
  5 32  1  0
  6 33  1  0
  8 34  1  0
 10 35  1  0
 13 36  1  0
 15 37  1  0
 17 38  1  1
 18 39  1  0
 18 40  1  0
 18 41  1  0
 19 42  1  0
 19 43  1  0
 21 44  1  0
 22 45  1  0
 23 46  1  0
M  ISO  8  25  13  26  13  27  13  28  13  29  13  30  13  31  13  32  13
M  ISO  8  33  14  34  14  35  14  36  14  37  14  38   8  39   8  40   8
M  ISO  6  41   8  42   8  43   8  44  14  45  14  46  14
M  END
>  <minimizedAffinity>  (1) 
-4.88266134

>  <minimizedRMSD>  (1) 
1.59557509

$$$$
