
     RDKit          3D

 50 54  0  0  1  0  0  0  0  0999 V2000
   42.9440   21.6430   36.4040 C   0  0  0  0  0  0  0  0  0  0  0  0
   42.7410   20.2730   36.3370 C   0  0  0  0  0  0  0  0  0  0  0  0
   43.8910   19.7760   35.7660 N   0  0  0  0  0  0  0  0  0  0  0  0
   44.7020   20.8500   35.5240 C   0  0  0  0  0  0  0  0  0  0  0  0
   44.1140   22.0250   35.9240 N   0  0  0  0  0  0  0  0  0  0  0  0
   39.9820   23.5270   35.9330 C   0  0  1  0  0  0  0  0  0  0  0  0
   41.4380   23.5200   35.8200 C   0  0  0  0  0  0  0  0  0  0  0  0
   41.9360   22.5590   36.9360 C   0  0  1  0  0  0  0  0  0  0  0  0
   40.7000   21.9250   37.4730 C   0  0  0  0  0  0  0  0  0  0  0  0
   39.8030   23.1840   37.4590 C   0  0  0  0  0  0  0  0  0  0  0  0
   37.9530   24.9970   35.7600 C   0  0  0  0  0  0  0  0  0  0  0  0
   39.3020   24.7580   35.6140 C   0  0  0  0  0  0  0  0  0  0  0  0
   40.0830   25.8190   35.0850 C   0  0  0  0  0  0  0  0  0  0  0  0
   39.5000   27.0060   34.7450 N   0  0  0  0  0  0  0  0  0  0  0  0
   38.1480   27.1770   34.9170 C   0  0  0  0  0  0  0  0  0  0  0  0
   37.4080   26.1520   35.4270 N   0  0  0  0  0  0  0  0  0  0  0  0
   44.7830   23.2600   35.7660 C   0  0  2  0  0  0  0  0  0  0  0  0
   44.8340   23.6420   34.2740 C   0  0  0  0  0  0  0  0  0  0  0  0
   46.2190   23.1190   36.1970 C   0  0  0  0  0  0  0  0  0  0  0  0
   46.7370   24.3550   36.7600 N   0  0  0  0  0  0  0  0  0  0  0  0
   46.1770   24.9350   37.8520 C   0  0  0  0  0  0  0  0  0  0  0  0
   46.8490   26.0690   38.1620 N   0  0  0  0  0  0  0  0  0  0  0  0
   47.8550   26.2320   37.2680 C   0  0  0  0  0  0  0  0  0  0  0  0
   48.8580   27.1800   37.0740 C   0  0  0  0  0  0  0  0  0  0  0  0
   49.7290   27.0360   36.0490 N   0  0  0  0  0  0  0  0  0  0  0  0
   49.5910   25.9520   35.2330 C   0  0  0  0  0  0  0  0  0  0  0  0
   48.6180   25.0310   35.4200 N   0  0  0  0  0  0  0  0  0  0  0  0
   47.7540   25.1530   36.4170 C   0  0  0  0  0  0  0  0  0  0  0  0
   41.8567   19.7081   36.6671 H   0  0  0  0  0  0  0  0  0  0  0  0
   45.7000   20.7815   35.0664 H   0  0  0  0  0  0  0  0  0  0  0  0
   39.5330   22.8389   35.2016 H   0  0  0  0  0  0  0  0  0  0  0  0
   41.7451   23.1516   34.8301 H   0  0  0  0  0  0  0  0  0  0  0  0
   41.8611   24.5293   35.9315 H   0  0  0  0  0  0  0  0  0  0  0  0
   42.4643   23.0565   37.7626 H   0  0  0  0  0  0  0  0  0  0  0  0
   40.3171   21.1310   36.8150 H   0  0  0  0  0  0  0  0  0  0  0  0
   40.7982   21.4078   38.4388 H   0  0  0  0  0  0  0  0  0  0  0  0
   40.1832   23.9794   38.1169 H   0  0  0  0  0  0  0  0  0  0  0  0
   38.7710   23.0584   37.8185 H   0  0  0  0  0  0  0  0  0  0  0  0
   37.3110   24.2015   36.1662 H   0  0  0  0  0  0  0  0  0  0  0  0
   41.1660   25.6838   34.9480 H   0  0  0  0  0  0  0  0  0  0  0  0
   37.6683   28.1293   34.6466 H   0  0  0  0  0  0  0  0  0  0  0  0
   44.2461   24.0124   36.3623 H   0  0  0  0  0  0  0  0  0  0  0  0
   44.9790   24.7282   34.1784 H   0  0  0  0  0  0  0  0  0  0  0  0
   45.6699   23.1164   33.7893 H   0  0  0  0  0  0  0  0  0  0  0  0
   43.8894   23.3541   33.7893 H   0  0  0  0  0  0  0  0  0  0  0  0
   46.2867   22.3259   36.9562 H   0  0  0  0  0  0  0  0  0  0  0  0
   46.8195   22.8691   35.3099 H   0  0  0  0  0  0  0  0  0  0  0  0
   45.3087   24.5431   38.4019 H   0  0  0  0  0  0  0  0  0  0  0  0
   48.9411   28.0423   37.7519 H   0  0  0  0  0  0  0  0  0  0  0  0
   50.2932   25.8225   34.3962 H   0  0  0  0  0  0  0  0  0  0  0  0
  1  8  1  0
  2  1  2  0
  3  2  1  0
  4  3  2  0
  4  5  1  0
  5  1  1  0
  6 10  1  0
  7  6  1  0
  7  8  1  0
  8  9  1  0
 10  9  1  0
 12 11  2  0
 12  6  1  0
 13 12  1  0
 14 15  1  0
 14 13  2  0
 15 16  2  0
 16 11  1  0
 17  5  1  0
 17 19  1  0
 18 17  1  0
 19 20  1  0
 20 21  1  0
 21 22  2  0
 23 22  1  0
 24 23  2  0
 25 24  1  0
 26 27  1  0
 26 25  2  0
 27 28  2  0
 28 20  1  0
 28 23  1  0
  2 29  1  0
  4 30  1  0
  6 31  1  6
  7 32  1  0
  7 33  1  0
  8 34  1  1
  9 35  1  0
  9 36  1  0
 10 37  1  0
 10 38  1  0
 11 39  1  0
 13 40  1  0
 15 41  1  0
 17 42  1  1
 18 43  1  0
 18 44  1  0
 18 45  1  0
 19 46  1  0
 19 47  1  0
 21 48  1  0
 24 49  1  0
 26 50  1  0
M  ISO  8  29  14  30  14  31  13  32  13  33  13  34  13  35  13  36  13
M  ISO  8  37  13  38  13  39  14  40  14  41  14  42   8  43   8  44   8
M  ISO  6  45   8  46   8  47   8  48  14  49  14  50  14
M  END
>  <minimizedAffinity>  (1) 
-4.85490465

>  <minimizedRMSD>  (1) 
1.58117723

$$$$
