
     RDKit          3D

 40 42  0  0  1  0  0  0  0  0999 V2000
   40.0400   23.6800   35.7890 C   0  0  1  0  0  0  0  0  0  0  0  0
   41.4870   23.8420   35.8750 C   0  0  0  0  0  0  0  0  0  0  0  0
   41.9540   22.8100   36.9380 C   0  0  1  0  0  0  0  0  0  0  0  0
   40.7500   21.9860   37.2220 C   0  0  0  0  0  0  0  0  0  0  0  0
   39.7010   23.1150   37.2120 C   0  0  0  0  0  0  0  0  0  0  0  0
   37.8940   24.9560   35.6660 C   0  0  0  0  0  0  0  0  0  0  0  0
   39.2580   24.8560   35.5010 C   0  0  0  0  0  0  0  0  0  0  0  0
   39.9350   25.9910   34.9900 C   0  0  0  0  0  0  0  0  0  0  0  0
   39.2470   27.1290   34.6810 N   0  0  0  0  0  0  0  0  0  0  0  0
   37.8950   27.1740   34.8640 C   0  0  0  0  0  0  0  0  0  0  0  0
   37.2310   26.0750   35.3600 N   0  0  0  0  0  0  0  0  0  0  0  0
   43.1310   22.0890   36.4670 C   0  0  0  0  0  0  0  0  0  0  0  0
   43.1670   20.7070   36.3720 C   0  0  0  0  0  0  0  0  0  0  0  0
   44.4150   20.4220   35.8840 N   0  0  0  0  0  0  0  0  0  0  0  0
   45.0730   21.6280   35.7070 C   0  0  0  0  0  0  0  0  0  0  0  0
   44.2500   22.6760   36.0790 N   0  0  0  0  0  0  0  0  0  0  0  0
   44.7090   24.0070   35.9740 C   0  0  2  0  0  0  0  0  0  0  0  0
   45.9940   24.0590   35.1340 C   0  0  0  0  0  0  0  0  0  0  0  0
   45.1120   24.5200   37.3390 C   0  0  0  0  0  0  0  0  0  0  0  0
   46.4890   24.4430   37.5310 O   0  0  0  0  0  0  0  0  0  0  0  0
   39.7785   23.0449   34.9298 H   0  0  0  0  0  0  0  0  0  0  0  0
   41.9564   23.6323   34.9025 H   0  0  0  0  0  0  0  0  0  0  0  0
   41.7685   24.8692   36.1501 H   0  0  0  0  0  0  0  0  0  0  0  0
   42.3049   23.2542   37.8812 H   0  0  0  0  0  0  0  0  0  0  0  0
   40.5634   21.2385   36.4368 H   0  0  0  0  0  0  0  0  0  0  0  0
   40.7904   21.3763   38.1367 H   0  0  0  0  0  0  0  0  0  0  0  0
   39.8705   23.8537   38.0092 H   0  0  0  0  0  0  0  0  0  0  0  0
   38.6566   22.8176   37.3871 H   0  0  0  0  0  0  0  0  0  0  0  0
   37.3367   24.0931   36.0595 H   0  0  0  0  0  0  0  0  0  0  0  0
   41.0243   25.9549   34.8410 H   0  0  0  0  0  0  0  0  0  0  0  0
   37.3363   28.0883   34.6152 H   0  0  0  0  0  0  0  0  0  0  0  0
   42.3692   19.9955   36.6313 H   0  0  0  0  0  0  0  0  0  0  0  0
   46.0994   21.7365   35.3265 H   0  0  0  0  0  0  0  0  0  0  0  0
   43.8985   24.6007   35.5262 H   0  0  0  0  0  0  0  0  0  0  0  0
   46.8674   24.0943   35.8018 H   0  0  0  0  0  0  0  0  0  0  0  0
   46.0537   23.1625   34.4993 H   0  0  0  0  0  0  0  0  0  0  0  0
   45.9811   24.9574   34.4993 H   0  0  0  0  0  0  0  0  0  0  0  0
   44.7969   25.5697   37.4329 H   0  0  0  0  0  0  0  0  0  0  0  0
   44.6236   23.8930   38.0995 H   0  0  0  0  0  0  0  0  0  0  0  0
   46.6868   24.4319   38.5010 H   0  0  0  0  0  0  0  0  0  0  0  0
  1  2  1  0
  1  5  1  0
  2  3  1  0
  3  4  1  0
  5  4  1  0
  7  6  2  0
  7  1  1  0
  8  7  1  0
  9 10  1  0
  9  8  2  0
 10 11  2  0
 11  6  1  0
 12  3  1  0
 13 12  2  0
 14 13  1  0
 15 14  2  0
 15 16  1  0
 16 12  1  0
 17 16  1  0
 17 19  1  0
 18 17  1  0
 19 20  1  0
  1 21  1  6
  2 22  1  0
  2 23  1  0
  3 24  1  1
  4 25  1  0
  4 26  1  0
  5 27  1  0
  5 28  1  0
  6 29  1  0
  8 30  1  0
 10 31  1  0
 13 32  1  0
 15 33  1  0
 17 34  1  6
 18 35  1  0
 18 36  1  0
 18 37  1  0
 19 38  1  0
 19 39  1  0
 20 40  1  0
M  ISO  8  21  13  22  13  23  13  24  13  25  13  26  13  27  13  28  13
M  ISO  8  29  14  30  14  31  14  32  14  33  14  34   8  35   8  36   8
M  ISO  4  37   8  38   8  39   8  40   3
M  END
>  <minimizedAffinity>  (1) 
-4.01513863

>  <minimizedRMSD>  (1) 
0.338420928

$$$$
