
     RDKit          3D

 45 48  0  0  1  0  0  0  0  0999 V2000
   39.8630   23.5790   35.9460 C   0  0  1  0  0  0  0  0  0  0  0  0
   41.3180   23.5590   35.8560 C   0  0  0  0  0  0  0  0  0  0  0  0
   41.7820   22.6620   37.0370 C   0  0  1  0  0  0  0  0  0  0  0  0
   40.5360   22.0900   37.6100 C   0  0  0  0  0  0  0  0  0  0  0  0
   39.6420   23.3370   37.4810 C   0  0  0  0  0  0  0  0  0  0  0  0
   37.8530   25.0560   35.6300 C   0  0  0  0  0  0  0  0  0  0  0  0
   39.2050   24.8060   35.5330 C   0  0  0  0  0  0  0  0  0  0  0  0
   40.0070   25.8360   34.9750 C   0  0  0  0  0  0  0  0  0  0  0  0
   39.4420   27.0090   34.5620 N   0  0  0  0  0  0  0  0  0  0  0  0
   38.0990   27.1850   34.6910 C   0  0  0  0  0  0  0  0  0  0  0  0
   37.3170   26.2010   35.2250 N   0  0  0  0  0  0  0  0  0  0  0  0
   42.7920   21.7000   36.5850 C   0  0  0  0  0  0  0  0  0  0  0  0
   42.7580   20.3710   36.9730 C   0  0  0  0  0  0  0  0  0  0  0  0
   43.8290   19.8010   36.3520 N   0  0  0  0  0  0  0  0  0  0  0  0
   44.4570   20.8020   35.6240 C   0  0  0  0  0  0  0  0  0  0  0  0
   43.7940   21.9940   35.7780 N   0  0  0  0  0  0  0  0  0  0  0  0
   44.2410   23.1600   35.1260 C   0  0  2  0  0  0  0  0  0  0  0  0
   45.3450   22.8010   34.1130 C   0  0  0  0  0  0  0  0  0  0  0  0
   44.8840   24.1020   36.0980 C   0  0  0  0  0  0  0  0  0  0  0  0
   44.9170   25.4360   35.3840 C   0  0  0  0  0  0  0  0  0  0  0  0
   46.0990   26.2560   35.4350 C   0  0  0  0  0  0  0  0  0  0  0  0
   45.6200   27.6990   34.4470 S   0  0  0  0  0  0  0  0  0  0  0  0
   43.8950   26.9720   34.1170 C   0  0  0  0  0  0  0  0  0  0  0  0
   43.8620   25.8480   34.7150 N   0  0  0  0  0  0  0  0  0  0  0  0
   39.4230   22.8420   35.2581 H   0  0  0  0  0  0  0  0  0  0  0  0
   41.6400   23.1305   34.8954 H   0  0  0  0  0  0  0  0  0  0  0  0
   41.7492   24.5695   35.9106 H   0  0  0  0  0  0  0  0  0  0  0  0
   42.3070   23.2052   37.8365 H   0  0  0  0  0  0  0  0  0  0  0  0
   40.1568   21.2436   37.0186 H   0  0  0  0  0  0  0  0  0  0  0  0
   40.6231   21.6634   38.6201 H   0  0  0  0  0  0  0  0  0  0  0  0
   40.0009   24.1765   38.0946 H   0  0  0  0  0  0  0  0  0  0  0  0
   38.5996   23.2301   37.8157 H   0  0  0  0  0  0  0  0  0  0  0  0
   37.1975   24.2824   36.0564 H   0  0  0  0  0  0  0  0  0  0  0  0
   41.0924   25.6882   34.8744 H   0  0  0  0  0  0  0  0  0  0  0  0
   37.6389   28.1285   34.3622 H   0  0  0  0  0  0  0  0  0  0  0  0
   42.0280   19.8833   37.6358 H   0  0  0  0  0  0  0  0  0  0  0  0
   45.3588   20.6601   35.0102 H   0  0  0  0  0  0  0  0  0  0  0  0
   43.3638   23.6176   34.6452 H   0  0  0  0  0  0  0  0  0  0  0  0
   46.2562   22.5047   34.6533 H   0  0  0  0  0  0  0  0  0  0  0  0
   45.0058   21.9669   33.4812 H   0  0  0  0  0  0  0  0  0  0  0  0
   45.5613   23.6751   33.4812 H   0  0  0  0  0  0  0  0  0  0  0  0
   44.2892   24.1715   37.0207 H   0  0  0  0  0  0  0  0  0  0  0  0
   45.8884   23.7671   36.3964 H   0  0  0  0  0  0  0  0  0  0  0  0
   47.0531   26.0572   35.9451 H   0  0  0  0  0  0  0  0  0  0  0  0
   43.0871   27.4302   33.5276 H   0  0  0  0  0  0  0  0  0  0  0  0
  1  5  1  0
  2  1  1  0
  2  3  1  0
  3  4  1  0
  5  4  1  0
  7  6  2  0
  7  1  1  0
  8  7  1  0
  9 10  1  0
  9  8  2  0
 10 11  2  0
 11  6  1  0
 12 13  2  0
 12  3  1  0
 14 13  1  0
 15 16  1  0
 15 14  2  0
 16 12  1  0
 17 16  1  0
 17 19  1  0
 18 17  1  0
 20 21  2  0
 20 19  1  0
 22 21  1  0
 23 22  1  0
 23 24  2  0
 24 20  1  0
  1 25  1  6
  2 26  1  0
  2 27  1  0
  3 28  1  1
  4 29  1  0
  4 30  1  0
  5 31  1  0
  5 32  1  0
  6 33  1  0
  8 34  1  0
 10 35  1  0
 13 36  1  0
 15 37  1  0
 17 38  1  6
 18 39  1  0
 18 40  1  0
 18 41  1  0
 19 42  1  0
 19 43  1  0
 21 44  1  0
 23 45  1  0
M  ISO  8  25  13  26  13  27  13  28  13  29  13  30  13  31  13  32  13
M  ISO  8  33  14  34  14  35  14  36  14  37  14  38   8  39   8  40   8
M  ISO  5  41   8  42   8  43   8  44  14  45  14
M  END
>  <minimizedAffinity>  (1) 
-4.39313936

>  <minimizedRMSD>  (1) 
1.04502261

$$$$
