
     RDKit          3D

 40 42  0  0  1  0  0  0  0  0999 V2000
   40.0450   23.6840   35.7830 C   0  0  1  0  0  0  0  0  0  0  0  0
   41.4910   23.8480   35.8790 C   0  0  0  0  0  0  0  0  0  0  0  0
   41.9480   22.8040   36.9370 C   0  0  1  0  0  0  0  0  0  0  0  0
   40.7440   21.9790   37.2180 C   0  0  0  0  0  0  0  0  0  0  0  0
   39.7000   23.1130   37.2000 C   0  0  0  0  0  0  0  0  0  0  0  0
   37.9020   24.9690   35.6570 C   0  0  0  0  0  0  0  0  0  0  0  0
   39.2630   24.8600   35.5020 C   0  0  0  0  0  0  0  0  0  0  0  0
   39.9430   26.0000   34.9970 C   0  0  0  0  0  0  0  0  0  0  0  0
   39.2680   27.1400   34.6840 N   0  0  0  0  0  0  0  0  0  0  0  0
   37.9010   27.1880   34.8610 C   0  0  0  0  0  0  0  0  0  0  0  0
   37.2350   26.0870   35.3520 N   0  0  0  0  0  0  0  0  0  0  0  0
   43.1320   22.0780   36.4490 C   0  0  0  0  0  0  0  0  0  0  0  0
   43.1530   20.6970   36.3410 C   0  0  0  0  0  0  0  0  0  0  0  0
   44.3920   20.4070   35.8470 N   0  0  0  0  0  0  0  0  0  0  0  0
   45.0520   21.6160   35.6840 C   0  0  0  0  0  0  0  0  0  0  0  0
   44.2510   22.6630   36.0640 N   0  0  0  0  0  0  0  0  0  0  0  0
   44.7120   23.9900   35.9770 C   0  0  2  0  0  0  0  0  0  0  0  0
   46.0010   24.0440   35.1410 C   0  0  0  0  0  0  0  0  0  0  0  0
   45.0870   24.5080   37.3310 C   0  0  0  0  0  0  0  0  0  0  0  0
   46.9220   24.5730   37.4190 S   0  0  0  0  0  0  0  0  0  0  0  0
   39.7905   23.0541   34.9179 H   0  0  0  0  0  0  0  0  0  0  0  0
   41.9676   23.6478   34.9080 H   0  0  0  0  0  0  0  0  0  0  0  0
   41.7715   24.8729   36.1635 H   0  0  0  0  0  0  0  0  0  0  0  0
   42.2937   23.2388   37.8864 H   0  0  0  0  0  0  0  0  0  0  0  0
   40.5595   21.2300   36.4338 H   0  0  0  0  0  0  0  0  0  0  0  0
   40.7790   21.3687   38.1325 H   0  0  0  0  0  0  0  0  0  0  0  0
   39.8670   23.8490   38.0003 H   0  0  0  0  0  0  0  0  0  0  0  0
   38.6538   22.8159   37.3650 H   0  0  0  0  0  0  0  0  0  0  0  0
   37.3415   24.1060   36.0457 H   0  0  0  0  0  0  0  0  0  0  0  0
   41.0333   25.9611   34.8564 H   0  0  0  0  0  0  0  0  0  0  0  0
   37.3442   28.1031   34.6107 H   0  0  0  0  0  0  0  0  0  0  0  0
   42.3494   19.9907   36.5967 H   0  0  0  0  0  0  0  0  0  0  0  0
   46.0782   21.7211   35.3020 H   0  0  0  0  0  0  0  0  0  0  0  0
   43.9037   24.5864   35.5287 H   0  0  0  0  0  0  0  0  0  0  0  0
   46.8719   24.0805   35.8119 H   0  0  0  0  0  0  0  0  0  0  0  0
   46.0643   23.1477   34.5064 H   0  0  0  0  0  0  0  0  0  0  0  0
   45.9891   24.9424   34.5064 H   0  0  0  0  0  0  0  0  0  0  0  0
   44.6695   25.5154   37.4751 H   0  0  0  0  0  0  0  0  0  0  0  0
   44.6875   23.8514   38.1179 H   0  0  0  0  0  0  0  0  0  0  0  0
   47.3161   24.5870   38.7310 H   0  0  0  0  0  0  0  0  0  0  0  0
  1  2  1  0
  1  5  1  0
  2  3  1  0
  3  4  1  0
  5  4  1  0
  7  6  2  0
  7  1  1  0
  8  7  1  0
  9 10  1  0
  9  8  2  0
 10 11  2  0
 11  6  1  0
 12  3  1  0
 13 12  2  0
 14 13  1  0
 15 14  2  0
 15 16  1  0
 16 12  1  0
 17 16  1  0
 17 19  1  0
 18 17  1  0
 19 20  1  0
  1 21  1  6
  2 22  1  0
  2 23  1  0
  3 24  1  1
  4 25  1  0
  4 26  1  0
  5 27  1  0
  5 28  1  0
  6 29  1  0
  8 30  1  0
 10 31  1  0
 13 32  1  0
 15 33  1  0
 17 34  1  6
 18 35  1  0
 18 36  1  0
 18 37  1  0
 19 38  1  0
 19 39  1  0
 20 40  1  0
M  ISO  8  21  13  22  13  23  13  24  13  25  13  26  13  27  13  28  13
M  ISO  8  29  14  30  14  31  14  32  14  33  14  34   8  35   8  36   8
M  ISO  4  37   8  38   8  39   8  40  11
M  END
>  <minimizedAffinity>  (1) 
-4.00937557

>  <minimizedRMSD>  (1) 
0.416008919

$$$$
