
     RDKit          3D

 29 32  0  0  0  0  0  0  0  0999 V2000
   37.9560   22.8680   34.7210 C   0  0  0  0  0  0  0  0  0  0  0  0
   37.2670   21.7380   34.3240 C   0  0  0  0  0  0  0  0  0  0  0  0
   36.8910   21.6750   33.0070 C   0  0  0  0  0  0  0  0  0  0  0  0
   37.1640   22.6480   32.1210 N   0  0  0  0  0  0  0  0  0  0  0  0
   37.8460   23.7520   32.5450 C   0  0  0  0  0  0  0  0  0  0  0  0
   38.2440   23.8610   33.8520 N   0  0  0  0  0  0  0  0  0  0  0  0
   38.2040   24.8610   31.7170 N   0  0  0  0  0  0  0  0  0  0  0  0
   39.3660   24.9900   31.0470 C   0  0  0  0  0  0  0  0  0  0  0  0
   39.4070   26.1540   30.3510 N   0  0  0  0  0  0  0  0  0  0  0  0
   38.2310   26.7910   30.5850 C   0  0  0  0  0  0  0  0  0  0  0  0
   37.6470   27.9930   30.1870 C   0  0  0  0  0  0  0  0  0  0  0  0
   36.4220   28.3230   30.6250 N   0  0  0  0  0  0  0  0  0  0  0  0
   35.7370   27.5090   31.4490 C   0  0  0  0  0  0  0  0  0  0  0  0
   36.2560   26.3220   31.8720 N   0  0  0  0  0  0  0  0  0  0  0  0
   37.4920   25.9800   31.4350 C   0  0  0  0  0  0  0  0  0  0  0  0
   39.9850   22.7140   37.7810 C   0  0  0  0  0  0  0  0  0  0  0  0
   39.1360   23.2840   38.7470 C   0  0  0  0  0  0  0  0  0  0  0  0
   37.8650   23.7150   38.3180 C   0  0  0  0  0  0  0  0  0  0  0  0
   37.5220   23.5600   36.9960 N   0  0  0  0  0  0  0  0  0  0  0  0
   38.3890   23.0030   36.1160 C   0  0  0  0  0  0  0  0  0  0  0  0
   39.5870   22.5950   36.5170 N   0  0  0  0  0  0  0  0  0  0  0  0
   37.0316   20.9282   35.0303 H   0  0  0  0  0  0  0  0  0  0  0  0
   36.3410   20.7879   32.6598 H   0  0  0  0  0  0  0  0  0  0  0  0
   40.1771   24.2471   31.0623 H   0  0  0  0  0  0  0  0  0  0  0  0
   38.1909   28.6715   29.5133 H   0  0  0  0  0  0  0  0  0  0  0  0
   34.7347   27.8087   31.7891 H   0  0  0  0  0  0  0  0  0  0  0  0
   40.9861   22.3638   38.0730 H   0  0  0  0  0  0  0  0  0  0  0  0
   39.4518   23.3890   39.7954 H   0  0  0  0  0  0  0  0  0  0  0  0
   37.1588   24.1681   39.0294 H   0  0  0  0  0  0  0  0  0  0  0  0
  1 20  1  0
  2  1  2  0
  3  2  1  0
  4  5  1  0
  4  3  2  0
  5  6  2  0
  6  1  1  0
  7  5  1  0
  8  7  1  0
  9 10  1  0
  9  8  2  0
 10 15  2  0
 11 10  1  0
 11 12  2  0
 12 13  1  0
 13 14  2  0
 15  7  1  0
 15 14  1  0
 16 17  2  0
 18 17  1  0
 19 18  2  0
 20 21  2  0
 20 19  1  0
 21 16  1  0
  2 22  1  0
  3 23  1  0
  8 24  1  0
 11 25  1  0
 13 26  1  0
 16 27  1  0
 17 28  1  0
 18 29  1  0
M  ISO  8  22  14  23  14  24  14  25  14  26  14  27  14  28  14  29  14
M  END
>  <minimizedAffinity>  (1) 
-5.23141718

>  <minimizedRMSD>  (1) 
2.28682184

$$$$
