
     RDKit          3D

 34 37  0  0  0  0  0  0  0  0999 V2000
   37.7860   22.6220   34.6070 C   0  0  0  0  0  0  0  0  0  0  0  0
   36.9700   21.5450   34.3420 C   0  0  0  0  0  0  0  0  0  0  0  0
   36.5350   21.4720   33.0340 C   0  0  0  0  0  0  0  0  0  0  0  0
   36.8550   22.3540   32.0750 N   0  0  0  0  0  0  0  0  0  0  0  0
   37.6580   23.4000   32.3610 C   0  0  0  0  0  0  0  0  0  0  0  0
   38.0810   23.4690   33.6360 N   0  0  0  0  0  0  0  0  0  0  0  0
   38.1670   24.4930   31.5330 C   0  0  0  0  0  0  0  0  0  0  0  0
   39.1020   24.2970   30.5090 C   0  0  0  0  0  0  0  0  0  0  0  0
   39.5830   25.3150   29.7310 C   0  0  0  0  0  0  0  0  0  0  0  0
   39.1620   26.6090   29.9170 C   0  0  0  0  0  0  0  0  0  0  0  0
   38.2450   26.8550   30.9100 C   0  0  0  0  0  0  0  0  0  0  0  0
   37.8470   28.1620   31.0660 C   0  0  0  0  0  0  0  0  0  0  0  0
   36.9300   28.4900   32.0370 C   0  0  0  0  0  0  0  0  0  0  0  0
   36.4420   27.4520   32.8290 C   0  0  0  0  0  0  0  0  0  0  0  0
   36.8850   26.1640   32.6170 C   0  0  0  0  0  0  0  0  0  0  0  0
   37.7900   25.8010   31.6670 C   0  0  0  0  0  0  0  0  0  0  0  0
   40.0510   22.6320   37.5060 C   0  0  0  0  0  0  0  0  0  0  0  0
   39.2660   23.2210   38.5110 C   0  0  0  0  0  0  0  0  0  0  0  0
   37.9640   23.6030   38.1600 C   0  0  0  0  0  0  0  0  0  0  0  0
   37.5190   23.3920   36.8810 N   0  0  0  0  0  0  0  0  0  0  0  0
   38.3200   22.8210   35.9610 C   0  0  0  0  0  0  0  0  0  0  0  0
   39.5560   22.4530   36.2750 N   0  0  0  0  0  0  0  0  0  0  0  0
   36.6889   20.8062   35.1070 H   0  0  0  0  0  0  0  0  0  0  0  0
   35.8803   20.6320   32.7587 H   0  0  0  0  0  0  0  0  0  0  0  0
   39.4671   23.2765   30.3211 H   0  0  0  0  0  0  0  0  0  0  0  0
   40.3187   25.0932   28.9439 H   0  0  0  0  0  0  0  0  0  0  0  0
   39.5481   27.4252   29.2887 H   0  0  0  0  0  0  0  0  0  0  0  0
   38.2620   28.9450   30.4143 H   0  0  0  0  0  0  0  0  0  0  0  0
   36.5957   29.5278   32.1825 H   0  0  0  0  0  0  0  0  0  0  0  0
   35.7064   27.6598   33.6200 H   0  0  0  0  0  0  0  0  0  0  0  0
   36.4776   25.3719   33.2624 H   0  0  0  0  0  0  0  0  0  0  0  0
   41.0799   22.3155   37.7321 H   0  0  0  0  0  0  0  0  0  0  0  0
   39.6557   23.3755   39.5280 H   0  0  0  0  0  0  0  0  0  0  0  0
   37.3036   24.0691   38.9061 H   0  0  0  0  0  0  0  0  0  0  0  0
  1 21  1  0
  2  1  2  0
  3  2  1  0
  4  5  1  0
  4  3  2  0
  5  6  2  0
  6  1  1  0
  7 16  1  0
  7  5  1  0
  8  7  2  0
  9 10  2  0
  9  8  1  0
 10 11  1  0
 11 12  1  0
 11 16  2  0
 12 13  2  0
 13 14  1  0
 15 14  2  0
 16 15  1  0
 17 18  2  0
 19 18  1  0
 20 19  2  0
 21 22  2  0
 21 20  1  0
 22 17  1  0
  2 23  1  0
  3 24  1  0
  8 25  1  0
  9 26  1  0
 10 27  1  0
 12 28  1  0
 13 29  1  0
 14 30  1  0
 15 31  1  0
 17 32  1  0
 18 33  1  0
 19 34  1  0
M  ISO  8  23  14  24  14  25  14  26  14  27  14  28  14  29  14  30  14
M  ISO  4  31  14  32  14  33  14  34  14
M  END
>  <minimizedAffinity>  (1) 
-5.33414412

>  <minimizedRMSD>  (1) 
1.90795767

$$$$
