
     RDKit          3D

 32 35  0  0  0  0  0  0  0  0999 V2000
   37.8890   22.9230   34.6870 C   0  0  0  0  0  0  0  0  0  0  0  0
   37.2520   21.7370   34.2960 C   0  0  0  0  0  0  0  0  0  0  0  0
   36.8620   21.7020   32.9710 C   0  0  0  0  0  0  0  0  0  0  0  0
   37.0650   22.7190   32.0980 N   0  0  0  0  0  0  0  0  0  0  0  0
   37.6860   23.8450   32.5290 C   0  0  0  0  0  0  0  0  0  0  0  0
   38.0910   23.9330   33.8200 N   0  0  0  0  0  0  0  0  0  0  0  0
   37.9070   24.9410   31.5920 C   0  0  0  0  0  0  0  0  0  0  0  0
   38.5830   24.8110   30.4050 C   0  0  0  0  0  0  0  0  0  0  0  0
   38.5660   26.0480   29.8410 N   0  0  0  0  0  0  0  0  0  0  0  0
   37.9060   26.9210   30.6400 C   0  0  0  0  0  0  0  0  0  0  0  0
   37.6100   28.2660   30.5360 C   0  0  0  0  0  0  0  0  0  0  0  0
   36.9050   28.9360   31.5140 C   0  0  0  0  0  0  0  0  0  0  0  0
   36.4980   28.2050   32.6170 C   0  0  0  0  0  0  0  0  0  0  0  0
   36.7710   26.8740   32.7570 C   0  0  0  0  0  0  0  0  0  0  0  0
   37.4760   26.2380   31.7620 C   0  0  0  0  0  0  0  0  0  0  0  0
   39.9490   22.7220   37.7120 C   0  0  0  0  0  0  0  0  0  0  0  0
   39.1240   23.2940   38.7000 C   0  0  0  0  0  0  0  0  0  0  0  0
   37.8690   23.7360   38.2900 C   0  0  0  0  0  0  0  0  0  0  0  0
   37.5220   23.5910   36.9820 N   0  0  0  0  0  0  0  0  0  0  0  0
   38.3340   23.0430   36.0720 C   0  0  0  0  0  0  0  0  0  0  0  0
   39.5530   22.6060   36.4340 N   0  0  0  0  0  0  0  0  0  0  0  0
   37.0766   20.9009   34.9889 H   0  0  0  0  0  0  0  0  0  0  0  0
   36.3575   20.7964   32.6032 H   0  0  0  0  0  0  0  0  0  0  0  0
   39.0418   23.8987   29.9961 H   0  0  0  0  0  0  0  0  0  0  0  0
   38.9939   26.2875   28.9352 H   0  0  0  0  0  0  0  0  0  0  0  0
   37.9465   28.8193   29.6468 H   0  0  0  0  0  0  0  0  0  0  0  0
   36.6754   30.0078   31.4213 H   0  0  0  0  0  0  0  0  0  0  0  0
   35.9332   28.7156   33.4109 H   0  0  0  0  0  0  0  0  0  0  0  0
   36.4340   26.3223   33.6470 H   0  0  0  0  0  0  0  0  0  0  0  0
   40.9480   22.3593   37.9958 H   0  0  0  0  0  0  0  0  0  0  0  0
   39.4552   23.3870   39.7448 H   0  0  0  0  0  0  0  0  0  0  0  0
   37.1724   24.1929   39.0083 H   0  0  0  0  0  0  0  0  0  0  0  0
  1 20  1  0
  2  1  2  0
  3  2  1  0
  4  5  1  0
  4  3  2  0
  5  6  2  0
  6  1  1  0
  7 15  1  0
  7  5  1  0
  8  7  2  0
  9  8  1  0
  9 10  1  0
 10 15  2  0
 11 10  1  0
 11 12  2  0
 12 13  1  0
 13 14  2  0
 15 14  1  0
 16 17  2  0
 18 17  1  0
 19 18  2  0
 20 21  2  0
 20 19  1  0
 21 16  1  0
  2 22  1  0
  3 23  1  0
  8 24  1  0
  9 25  1  0
 11 26  1  0
 12 27  1  0
 13 28  1  0
 14 29  1  0
 16 30  1  0
 17 31  1  0
 18 32  1  0
M  ISO  8  22  14  23  14  24  14  25   9  26  14  27  14  28  14  29  14
M  ISO  3  30  14  31  14  32  14
M  END
>  <minimizedAffinity>  (1) 
-5.42854786

>  <minimizedRMSD>  (1) 
2.80724454

$$$$
