
     RDKit          3D

 32 35  0  0  0  0  0  0  0  0999 V2000
   37.7300   22.5320   34.7040 C   0  0  0  0  0  0  0  0  0  0  0  0
   36.8780   21.4710   34.4940 C   0  0  0  0  0  0  0  0  0  0  0  0
   36.4080   21.3650   33.1960 C   0  0  0  0  0  0  0  0  0  0  0  0
   36.7330   22.2070   32.2050 N   0  0  0  0  0  0  0  0  0  0  0  0
   37.5720   23.2400   32.4450 C   0  0  0  0  0  0  0  0  0  0  0  0
   38.0350   23.3490   33.7090 N   0  0  0  0  0  0  0  0  0  0  0  0
   38.1050   24.3060   31.5810 C   0  0  0  0  0  0  0  0  0  0  0  0
   38.9770   24.0790   30.5560 N   0  0  0  0  0  0  0  0  0  0  0  0
   39.4640   25.0370   29.7690 C   0  0  0  0  0  0  0  0  0  0  0  0
   39.1260   26.3270   29.9260 N   0  0  0  0  0  0  0  0  0  0  0  0
   38.2690   26.6430   30.9110 C   0  0  0  0  0  0  0  0  0  0  0  0
   37.9260   27.9670   31.0680 C   0  0  0  0  0  0  0  0  0  0  0  0
   37.0520   28.3540   32.0600 C   0  0  0  0  0  0  0  0  0  0  0  0
   36.5440   27.3460   32.8840 C   0  0  0  0  0  0  0  0  0  0  0  0
   36.9300   26.0460   32.6710 C   0  0  0  0  0  0  0  0  0  0  0  0
   37.7950   25.6410   31.6930 C   0  0  0  0  0  0  0  0  0  0  0  0
   40.0030   22.6230   37.5840 C   0  0  0  0  0  0  0  0  0  0  0  0
   39.2320   23.2280   38.5900 C   0  0  0  0  0  0  0  0  0  0  0  0
   37.9380   23.5890   38.2380 C   0  0  0  0  0  0  0  0  0  0  0  0
   37.4830   23.3490   36.9720 N   0  0  0  0  0  0  0  0  0  0  0  0
   38.2830   22.7600   36.0460 C   0  0  0  0  0  0  0  0  0  0  0  0
   39.5390   22.3930   36.3350 N   0  0  0  0  0  0  0  0  0  0  0  0
   36.5946   20.7670   35.2903 H   0  0  0  0  0  0  0  0  0  0  0  0
   35.7235   20.5361   32.9629 H   0  0  0  0  0  0  0  0  0  0  0  0
   40.1643   24.7630   28.9662 H   0  0  0  0  0  0  0  0  0  0  0  0
   38.3543   28.7238   30.3943 H   0  0  0  0  0  0  0  0  0  0  0  0
   36.7672   29.4076   32.1972 H   0  0  0  0  0  0  0  0  0  0  0  0
   35.8423   27.5917   33.6947 H   0  0  0  0  0  0  0  0  0  0  0  0
   36.5132   25.2745   33.3352 H   0  0  0  0  0  0  0  0  0  0  0  0
   41.0335   22.3219   37.8236 H   0  0  0  0  0  0  0  0  0  0  0  0
   39.6306   23.4059   39.5997 H   0  0  0  0  0  0  0  0  0  0  0  0
   37.2797   24.0678   38.9778 H   0  0  0  0  0  0  0  0  0  0  0  0
  1 21  1  0
  2  1  2  0
  3  2  1  0
  4  5  1  0
  4  3  2  0
  5  6  2  0
  6  1  1  0
  7 16  1  0
  7  5  1  0
  8  7  2  0
  9 10  2  0
  9  8  1  0
 10 11  1  0
 11 12  1  0
 11 16  2  0
 12 13  2  0
 13 14  1  0
 15 14  2  0
 16 15  1  0
 17 18  2  0
 19 18  1  0
 20 19  2  0
 21 22  2  0
 21 20  1  0
 22 17  1  0
  2 23  1  0
  3 24  1  0
  9 25  1  0
 12 26  1  0
 13 27  1  0
 14 28  1  0
 15 29  1  0
 17 30  1  0
 18 31  1  0
 19 32  1  0
M  ISO  8  23  14  24  14  25  14  26  14  27  14  28  14  29  14  30  14
M  ISO  2  31  14  32  14
M  END
>  <minimizedAffinity>  (1) 
-5.28327084

>  <minimizedRMSD>  (1) 
2.36888361

$$$$
