
     RDKit          3D

 25 26  0  0  0  0  0  0  0  0999 V2000
   37.2300   21.9110   34.9070 C   0  0  0  0  0  0  0  0  0  0  0  0
   36.2100   20.9790   35.0790 C   0  0  0  0  0  0  0  0  0  0  0  0
   35.5550   20.5770   33.9340 C   0  0  0  0  0  0  0  0  0  0  0  0
   35.8650   21.0440   32.7140 N   0  0  0  0  0  0  0  0  0  0  0  0
   36.8790   21.9650   32.5790 C   0  0  0  0  0  0  0  0  0  0  0  0
   37.5420   22.3780   33.6990 N   0  0  0  0  0  0  0  0  0  0  0  0
   37.2490   22.4930   31.3120 N   0  0  0  0  0  0  0  0  0  0  0  0
   36.9040   23.8130   30.8980 C   0  0  0  0  0  0  0  0  0  0  0  0
   35.7870   24.2840   31.3560 N   0  0  0  0  0  0  0  0  0  0  0  0
   37.8440   24.4600   30.0190 N   0  0  0  0  0  0  0  0  0  0  0  0
   35.5130   25.2490   31.0670 H   0  0  0  0  0  0  0  0  0  0  0  0
   39.9560   22.6090   37.2710 C   0  0  0  0  0  0  0  0  0  0  0  0
   39.2960   23.2530   38.3330 C   0  0  0  0  0  0  0  0  0  0  0  0
   37.9230   23.4280   38.2020 C   0  0  0  0  0  0  0  0  0  0  0  0
   37.2790   22.9840   37.0820 N   0  0  0  0  0  0  0  0  0  0  0  0
   37.9570   22.3720   36.0880 C   0  0  0  0  0  0  0  0  0  0  0  0
   39.2840   22.1910   36.1930 N   0  0  0  0  0  0  0  0  0  0  0  0
   35.9421   20.5861   36.0709 H   0  0  0  0  0  0  0  0  0  0  0  0
   34.7425   19.8410   34.0242 H   0  0  0  0  0  0  0  0  0  0  0  0
   37.7881   21.8979   30.6670 H   0  0  0  0  0  0  0  0  0  0  0  0
   37.6590   25.4149   29.6801 H   0  0  0  0  0  0  0  0  0  0  0  0
   38.7011   23.9677   29.7293 H   0  0  0  0  0  0  0  0  0  0  0  0
   41.0424   22.4465   37.3280 H   0  0  0  0  0  0  0  0  0  0  0  0
   39.8396   23.6012   39.2237 H   0  0  0  0  0  0  0  0  0  0  0  0
   37.3542   23.9249   39.0017 H   0  0  0  0  0  0  0  0  0  0  0  0
  1  2  2  0
  1 16  1  0
  3  2  1  0
  4  3  2  0
  5  4  1  0
  5  6  2  0
  6  1  1  0
  7  5  1  0
  8  7  1  0
  8  9  2  0
 10  8  1  0
 11  9  1  0
 12 13  2  0
 14 13  1  0
 15 14  2  0
 16 17  2  0
 16 15  1  0
 17 12  1  0
  2 18  1  0
  3 19  1  0
  7 20  1  0
 10 21  1  0
 10 22  1  0
 12 23  1  0
 13 24  1  0
 14 25  1  0
M  ISO  5  18  14  19  14  23  14  24  14  25  14
M  END
>  <minimizedAffinity>  (1) 
-4.97539377

>  <minimizedRMSD>  (1) 
0.14404428

$$$$
