
     RDKit          3D

 31 34  0  0  0  0  0  0  0  0999 V2000
   38.0930   23.2000   34.6560 C   0  0  0  0  0  0  0  0  0  0  0  0
   37.4430   22.1060   34.1200 C   0  0  0  0  0  0  0  0  0  0  0  0
   37.1190   22.1750   32.7880 C   0  0  0  0  0  0  0  0  0  0  0  0
   37.4100   23.2490   32.0110 N   0  0  0  0  0  0  0  0  0  0  0  0
   38.0490   24.3040   32.5740 C   0  0  0  0  0  0  0  0  0  0  0  0
   38.3900   24.2760   33.8990 N   0  0  0  0  0  0  0  0  0  0  0  0
   38.3670   25.4490   31.7770 N   0  0  0  0  0  0  0  0  0  0  0  0
   39.5560   25.6780   31.1620 C   0  0  0  0  0  0  0  0  0  0  0  0
   39.4720   26.8640   30.5040 N   0  0  0  0  0  0  0  0  0  0  0  0
   38.2560   27.3600   30.7070 C   0  0  0  0  0  0  0  0  0  0  0  0
   37.5300   28.4770   30.3510 C   0  0  0  0  0  0  0  0  0  0  0  0
   36.2750   28.7420   30.7030 N   0  0  0  0  0  0  0  0  0  0  0  0
   35.6500   27.8320   31.4880 C   0  0  0  0  0  0  0  0  0  0  0  0
   36.2640   26.7200   31.8890 N   0  0  0  0  0  0  0  0  0  0  0  0
   37.5320   26.4780   31.5160 C   0  0  0  0  0  0  0  0  0  0  0  0
   39.9860   22.7220   37.7640 C   0  0  0  0  0  0  0  0  0  0  0  0
   39.1020   23.2330   38.7420 C   0  0  0  0  0  0  0  0  0  0  0  0
   37.8750   23.7270   38.3000 C   0  0  0  0  0  0  0  0  0  0  0  0
   37.5810   23.7000   36.9640 N   0  0  0  0  0  0  0  0  0  0  0  0
   38.4690   23.1990   36.0680 C   0  0  0  0  0  0  0  0  0  0  0  0
   39.6390   22.7250   36.4770 N   0  0  0  0  0  0  0  0  0  0  0  0
   38.1670   29.4480   29.5240 N   0  0  0  0  0  0  0  0  0  0  0  0
   37.1973   21.2239   34.7296 H   0  0  0  0  0  0  0  0  0  0  0  0
   36.5997   21.3207   32.3293 H   0  0  0  0  0  0  0  0  0  0  0  0
   40.4352   25.0175   31.1914 H   0  0  0  0  0  0  0  0  0  0  0  0
   34.6117   28.0155   31.8015 H   0  0  0  0  0  0  0  0  0  0  0  0
   40.9643   22.3202   38.0665 H   0  0  0  0  0  0  0  0  0  0  0  0
   39.3712   23.2406   39.8085 H   0  0  0  0  0  0  0  0  0  0  0  0
   37.1497   24.1349   39.0194 H   0  0  0  0  0  0  0  0  0  0  0  0
   39.1391   29.3037   29.2156 H   0  0  0  0  0  0  0  0  0  0  0  0
   37.6551   30.2938   29.2349 H   0  0  0  0  0  0  0  0  0  0  0  0
  1 20  1  0
  2  1  2  0
  3  2  1  0
  4  5  1  0
  4  3  2  0
  5  6  2  0
  6  1  1  0
  7  5  1  0
  8  7  1  0
  9 10  1  0
  9  8  2  0
 10 15  2  0
 11 12  2  0
 11 10  1  0
 12 13  1  0
 13 14  2  0
 15  7  1  0
 15 14  1  0
 16 17  2  0
 18 17  1  0
 19 18  2  0
 20 21  2  0
 20 19  1  0
 21 16  1  0
 22 11  1  0
  2 23  1  0
  3 24  1  0
  8 25  1  0
 13 26  1  0
 16 27  1  0
 17 28  1  0
 18 29  1  0
 22 30  1  0
 22 31  1  0
M  ISO  7  23  14  24  14  25  14  26  14  27  14  28  14  29  14
M  END
>  <minimizedAffinity>  (1) 
-5.25076056

>  <minimizedRMSD>  (1) 
2.99441719

$$$$
