
     RDKit          3D

 31 33  0  0  0  0  0  0  0  0999 V2000
   37.2740   21.9800   35.1280 C   0  0  0  0  0  0  0  0  0  0  0  0
   36.3200   20.9780   35.2750 C   0  0  0  0  0  0  0  0  0  0  0  0
   35.6410   20.6230   34.1350 C   0  0  0  0  0  0  0  0  0  0  0  0
   35.8650   21.1960   32.9230 N   0  0  0  0  0  0  0  0  0  0  0  0
   36.8050   22.1690   32.8310 C   0  0  0  0  0  0  0  0  0  0  0  0
   37.5080   22.5580   33.9330 N   0  0  0  0  0  0  0  0  0  0  0  0
   37.0230   22.7500   31.5750 N   0  0  0  0  0  0  0  0  0  0  0  0
   36.0450   23.6920   31.0680 C   0  0  0  0  0  0  0  0  0  0  0  0
   36.7590   25.0090   30.8220 C   0  0  0  0  0  0  0  0  0  0  0  0
   38.1450   24.7980   30.7280 O   0  0  0  0  0  0  0  0  0  0  0  0
   38.4110   23.6880   29.9000 C   0  0  0  0  0  0  0  0  0  0  0  0
   38.1800   22.4590   30.7500 C   0  0  0  0  0  0  0  0  0  0  0  0
   40.0510   22.5980   37.4490 C   0  0  0  0  0  0  0  0  0  0  0  0
   39.4320   23.2720   38.5160 C   0  0  0  0  0  0  0  0  0  0  0  0
   38.0500   23.4950   38.3970 C   0  0  0  0  0  0  0  0  0  0  0  0
   37.3830   23.0610   37.2830 N   0  0  0  0  0  0  0  0  0  0  0  0
   38.0440   22.4180   36.2930 C   0  0  0  0  0  0  0  0  0  0  0  0
   39.3490   22.2000   36.3920 N   0  0  0  0  0  0  0  0  0  0  0  0
   36.1216   20.4992   36.2452 H   0  0  0  0  0  0  0  0  0  0  0  0
   34.8770   19.8348   34.2066 H   0  0  0  0  0  0  0  0  0  0  0  0
   35.6158   23.3168   30.1272 H   0  0  0  0  0  0  0  0  0  0  0  0
   35.2271   23.8258   31.7913 H   0  0  0  0  0  0  0  0  0  0  0  0
   36.3939   25.4506   29.8830 H   0  0  0  0  0  0  0  0  0  0  0  0
   36.5552   25.6906   31.6610 H   0  0  0  0  0  0  0  0  0  0  0  0
   37.7311   23.6863   29.0353 H   0  0  0  0  0  0  0  0  0  0  0  0
   39.4394   23.7171   29.5107 H   0  0  0  0  0  0  0  0  0  0  0  0
   37.9832   21.5851   30.1115 H   0  0  0  0  0  0  0  0  0  0  0  0
   39.0619   22.2246   31.3642 H   0  0  0  0  0  0  0  0  0  0  0  0
   41.1317   22.3969   37.4889 H   0  0  0  0  0  0  0  0  0  0  0  0
   39.9993   23.6069   39.3969 H   0  0  0  0  0  0  0  0  0  0  0  0
   37.5050   24.0172   39.1972 H   0  0  0  0  0  0  0  0  0  0  0  0
  1  2  2  0
  1 17  1  0
  3  2  1  0
  4  3  2  0
  5  4  1  0
  5  6  2  0
  6  1  1  0
  7  5  1  0
  8  7  1  0
  9  8  1  0
 10  9  1  0
 11 10  1  0
 11 12  1  0
 12  7  1  0
 13 14  2  0
 15 14  1  0
 16 15  2  0
 17 18  2  0
 17 16  1  0
 18 13  1  0
  2 19  1  0
  3 20  1  0
  8 21  1  0
  8 22  1  0
  9 23  1  0
  9 24  1  0
 11 25  1  0
 11 26  1  0
 12 27  1  0
 12 28  1  0
 13 29  1  0
 14 30  1  0
 15 31  1  0
M  ISO  8  19  14  20  14  21  13  22  13  23  13  24  13  25  13  26  13
M  ISO  5  27  13  28  13  29  14  30  14  31  14
M  END
>  <minimizedAffinity>  (1) 
-4.80075884

>  <minimizedRMSD>  (1) 
0.523109376

$$$$
