
     RDKit          3D

 29 31  0  0  0  0  0  0  0  0999 V2000
   37.4330   22.0060   35.0590 C   0  0  0  0  0  0  0  0  0  0  0  0
   36.3240   21.1530   35.1400 C   0  0  0  0  0  0  0  0  0  0  0  0
   35.7980   20.7620   33.9260 C   0  0  0  0  0  0  0  0  0  0  0  0
   36.2930   21.1530   32.7310 N   0  0  0  0  0  0  0  0  0  0  0  0
   37.3680   21.9800   32.7010 C   0  0  0  0  0  0  0  0  0  0  0  0
   37.9260   22.3970   33.8770 N   0  0  0  0  0  0  0  0  0  0  0  0
   37.9390   22.4310   31.4700 N   0  0  0  0  0  0  0  0  0  0  0  0
   38.7790   21.5520   30.8930 C   0  0  0  0  0  0  0  0  0  0  0  0
   39.3620   21.9430   29.6930 C   0  0  0  0  0  0  0  0  0  0  0  0
   39.0260   23.1910   29.2090 C   0  0  0  0  0  0  0  0  0  0  0  0
   39.5470   23.7170   27.9960 N   0  0  0  0  0  0  0  0  0  0  0  0
   38.1730   24.0380   29.8330 N   0  0  0  0  0  0  0  0  0  0  0  0
   37.6060   23.6460   31.0090 C   0  0  0  0  0  0  0  0  0  0  0  0
   36.8020   24.3520   31.6720 O   0  0  0  0  0  0  0  0  0  0  0  0
   39.9180   22.7210   37.6570 C   0  0  0  0  0  0  0  0  0  0  0  0
   39.1530   23.3620   38.6660 C   0  0  0  0  0  0  0  0  0  0  0  0
   37.7890   23.5250   38.4040 C   0  0  0  0  0  0  0  0  0  0  0  0
   37.2940   23.0670   37.2240 N   0  0  0  0  0  0  0  0  0  0  0  0
   38.0480   22.4660   36.2970 C   0  0  0  0  0  0  0  0  0  0  0  0
   39.3570   22.2940   36.5160 N   0  0  0  0  0  0  0  0  0  0  0  0
   35.9040   20.8199   36.1005 H   0  0  0  0  0  0  0  0  0  0  0  0
   34.9248   20.0930   33.9311 H   0  0  0  0  0  0  0  0  0  0  0  0
   38.9934   20.5737   31.3478 H   0  0  0  0  0  0  0  0  0  0  0  0
   40.0603   21.2866   29.1531 H   0  0  0  0  0  0  0  0  0  0  0  0
   39.2644   24.6550   27.6780 H   0  0  0  0  0  0  0  0  0  0  0  0
   40.2073   23.1602   27.4348 H   0  0  0  0  0  0  0  0  0  0  0  0
   40.9963   22.5709   37.8144 H   0  0  0  0  0  0  0  0  0  0  0  0
   39.6086   23.7119   39.6041 H   0  0  0  0  0  0  0  0  0  0  0  0
   37.1307   24.0136   39.1374 H   0  0  0  0  0  0  0  0  0  0  0  0
  1  2  2  0
  1 19  1  0
  3  2  1  0
  4  3  2  0
  5  4  1  0
  5  6  2  0
  6  1  1  0
  7  5  1  0
  8  7  1  0
  9  8  2  0
 10  9  1  0
 10 12  2  0
 11 10  1  0
 12 13  1  0
 13  7  1  0
 13 14  2  0
 15 16  2  0
 17 16  1  0
 18 17  2  0
 19 20  2  0
 19 18  1  0
 20 15  1  0
  2 21  1  0
  3 22  1  0
  8 23  1  0
  9 24  1  0
 11 25  1  0
 11 26  1  0
 15 27  1  0
 16 28  1  0
 17 29  1  0
M  ISO  7  21  14  22  14  23  14  24  14  27  14  28  14  29  14
M  END
>  <minimizedAffinity>  (1) 
-4.82503939

>  <minimizedRMSD>  (1) 
0.603337526

$$$$
