
     RDKit          3D

 21 22  0  0  0  0  0  0  0  0999 V2000
   37.1250   21.8520   34.9830 C   0  0  0  0  0  0  0  0  0  0  0  0
   36.1790   20.8670   35.1940 C   0  0  0  0  0  0  0  0  0  0  0  0
   35.4700   20.4670   34.0900 C   0  0  0  0  0  0  0  0  0  0  0  0
   35.6640   20.9860   32.8620 N   0  0  0  0  0  0  0  0  0  0  0  0
   36.6020   21.9520   32.6940 C   0  0  0  0  0  0  0  0  0  0  0  0
   37.3420   22.3900   33.7650 N   0  0  0  0  0  0  0  0  0  0  0  0
   39.9630   22.6010   37.1920 C   0  0  0  0  0  0  0  0  0  0  0  0
   39.3450   23.2850   38.2810 C   0  0  0  0  0  0  0  0  0  0  0  0
   37.9480   23.4630   38.2100 C   0  0  0  0  0  0  0  0  0  0  0  0
   37.2900   22.9770   37.1190 N   0  0  0  0  0  0  0  0  0  0  0  0
   37.9240   22.3370   36.1140 C   0  0  0  0  0  0  0  0  0  0  0  0
   39.2390   22.1610   36.1660 N   0  0  0  0  0  0  0  0  0  0  0  0
   36.7800   22.4930   31.3230 C   0  0  0  0  0  0  0  0  0  0  0  0
   35.5500   22.8340   30.7490 F   0  0  0  0  0  0  0  0  0  0  0  0
   37.5140   23.6590   31.3220 F   0  0  0  0  0  0  0  0  0  0  0  0
   37.4530   21.5810   30.5040 F   0  0  0  0  0  0  0  0  0  0  0  0
   36.0049   20.4297   36.1882 H   0  0  0  0  0  0  0  0  0  0  0  0
   34.7064   19.6849   34.2132 H   0  0  0  0  0  0  0  0  0  0  0  0
   41.0504   22.4355   37.2007 H   0  0  0  0  0  0  0  0  0  0  0  0
   39.9304   23.6558   39.1353 H   0  0  0  0  0  0  0  0  0  0  0  0
   37.4033   23.9803   39.0136 H   0  0  0  0  0  0  0  0  0  0  0  0
  1  2  2  0
  1 11  1  0
  3  2  1  0
  4  3  2  0
  5  4  1  0
  5  6  2  0
  6  1  1  0
  7  8  2  0
  9  8  1  0
 10  9  2  0
 11 12  2  0
 11 10  1  0
 12  7  1  0
 13  5  1  0
 14 13  1  0
 15 13  1  0
 16 13  1  0
  2 17  1  0
  3 18  1  0
  7 19  1  0
  8 20  1  0
  9 21  1  0
M  ISO  5  17  14  18  14  19  14  20  14  21  14
M  END
>  <minimizedAffinity>  (1) 
-4.45028019

>  <minimizedRMSD>  (1) 
0.326644808

$$$$
