
     RDKit          3D

 26 28  0  0  0  0  0  0  0  0999 V2000
   37.5090   21.9670   34.8430 C   0  0  0  0  0  0  0  0  0  0  0  0
   36.3670   21.1870   34.8750 C   0  0  0  0  0  0  0  0  0  0  0  0
   35.8870   20.8100   33.6340 C   0  0  0  0  0  0  0  0  0  0  0  0
   36.4580   21.1570   32.4720 N   0  0  0  0  0  0  0  0  0  0  0  0
   37.5900   21.9330   32.4820 C   0  0  0  0  0  0  0  0  0  0  0  0
   38.0900   22.3200   33.6770 N   0  0  0  0  0  0  0  0  0  0  0  0
   39.9170   22.7020   37.5230 C   0  0  0  0  0  0  0  0  0  0  0  0
   39.1260   23.3080   38.5140 C   0  0  0  0  0  0  0  0  0  0  0  0
   37.7760   23.4420   38.2160 C   0  0  0  0  0  0  0  0  0  0  0  0
   37.2680   23.0010   37.0190 N   0  0  0  0  0  0  0  0  0  0  0  0
   38.1010   22.4240   36.1130 C   0  0  0  0  0  0  0  0  0  0  0  0
   39.4170   22.2690   36.3490 N   0  0  0  0  0  0  0  0  0  0  0  0
   38.2010   22.3010   31.2180 C   0  0  0  0  0  0  0  0  0  0  0  0
   38.1800   23.6210   30.8150 C   0  0  0  0  0  0  0  0  0  0  0  0
   38.8020   23.8360   29.5830 C   0  0  0  0  0  0  0  0  0  0  0  0
   39.3770   22.8820   28.8290 N   0  0  0  0  0  0  0  0  0  0  0  0
   39.3610   21.6100   29.2840 C   0  0  0  0  0  0  0  0  0  0  0  0
   38.7690   21.3310   30.4820 N   0  0  0  0  0  0  0  0  0  0  0  0
   35.8785   20.8897   35.8147 H   0  0  0  0  0  0  0  0  0  0  0  0
   34.9810   20.1872   33.5983 H   0  0  0  0  0  0  0  0  0  0  0  0
   40.9928   22.5754   37.7143 H   0  0  0  0  0  0  0  0  0  0  0  0
   39.5502   23.6551   39.4677 H   0  0  0  0  0  0  0  0  0  0  0  0
   37.1032   23.9088   38.9505 H   0  0  0  0  0  0  0  0  0  0  0  0
   37.7183   24.4253   31.4065 H   0  0  0  0  0  0  0  0  0  0  0  0
   38.8233   24.8666   29.1991 H   0  0  0  0  0  0  0  0  0  0  0  0
   39.8218   20.8047   28.6932 H   0  0  0  0  0  0  0  0  0  0  0  0
  1  2  2  0
  1 11  1  0
  3  2  1  0
  4  5  1  0
  4  3  2  0
  5  6  2  0
  6  1  1  0
  7  8  2  0
  9  8  1  0
 10  9  2  0
 11 12  2  0
 11 10  1  0
 12  7  1  0
 13  5  1  0
 14 13  2  0
 15 14  1  0
 16 17  1  0
 16 15  2  0
 17 18  2  0
 18 13  1  0
  2 19  1  0
  3 20  1  0
  7 21  1  0
  8 22  1  0
  9 23  1  0
 14 24  1  0
 15 25  1  0
 17 26  1  0
M  ISO  8  19  14  20  14  21  14  22  14  23  14  24  14  25  14  26  14
M  END
>  <minimizedAffinity>  (1) 
-4.24833536

>  <minimizedRMSD>  (1) 
0.900622845

$$$$
