
     RDKit          3D

 26 28  0  0  0  0  0  0  0  0999 V2000
   37.4390   21.9330   34.8570 C   0  0  0  0  0  0  0  0  0  0  0  0
   36.3080   21.1380   34.9270 C   0  0  0  0  0  0  0  0  0  0  0  0
   35.7880   20.7430   33.7080 C   0  0  0  0  0  0  0  0  0  0  0  0
   36.3330   21.0990   32.5230 N   0  0  0  0  0  0  0  0  0  0  0  0
   37.4410   21.8780   32.5040 C   0  0  0  0  0  0  0  0  0  0  0  0
   37.9750   22.2820   33.6910 N   0  0  0  0  0  0  0  0  0  0  0  0
   39.9350   22.6830   37.4560 C   0  0  0  0  0  0  0  0  0  0  0  0
   39.1650   23.2970   38.4650 C   0  0  0  0  0  0  0  0  0  0  0  0
   37.7950   23.4370   38.2230 C   0  0  0  0  0  0  0  0  0  0  0  0
   37.2740   22.9820   37.0390 N   0  0  0  0  0  0  0  0  0  0  0  0
   38.0600   22.3990   36.1020 C   0  0  0  0  0  0  0  0  0  0  0  0
   39.3620   22.2650   36.3300 N   0  0  0  0  0  0  0  0  0  0  0  0
   38.0930   22.3080   31.2680 C   0  0  0  0  0  0  0  0  0  0  0  0
   38.0340   23.6490   30.9530 C   0  0  0  0  0  0  0  0  0  0  0  0
   38.6710   23.9990   29.7660 C   0  0  0  0  0  0  0  0  0  0  0  0
   39.3060   23.1280   28.9600 N   0  0  0  0  0  0  0  0  0  0  0  0
   39.3330   21.8450   29.3130 C   0  0  0  0  0  0  0  0  0  0  0  0
   38.7310   21.4200   30.4630 N   0  0  0  0  0  0  0  0  0  0  0  0
   35.8549   20.8414   35.8845 H   0  0  0  0  0  0  0  0  0  0  0  0
   34.8888   20.1094   33.7022 H   0  0  0  0  0  0  0  0  0  0  0  0
   41.0171   22.5485   37.6006 H   0  0  0  0  0  0  0  0  0  0  0  0
   39.6219   23.6503   39.4012 H   0  0  0  0  0  0  0  0  0  0  0  0
   37.1426   23.9068   38.9738 H   0  0  0  0  0  0  0  0  0  0  0  0
   37.5229   24.3854   31.5906 H   0  0  0  0  0  0  0  0  0  0  0  0
   38.6544   25.0574   29.4669 H   0  0  0  0  0  0  0  0  0  0  0  0
   39.8476   21.1164   28.6693 H   0  0  0  0  0  0  0  0  0  0  0  0
  1  2  2  0
  1 11  1  0
  3  2  1  0
  4  3  2  0
  5  4  1  0
  5  6  2  0
  6  1  1  0
  7  8  2  0
  9  8  1  0
 10  9  2  0
 11 12  2  0
 11 10  1  0
 12  7  1  0
 13  5  1  0
 14 13  2  0
 15 14  1  0
 16 17  1  0
 16 15  2  0
 17 18  2  0
 18 13  1  0
  2 19  1  0
  3 20  1  0
  7 21  1  0
  8 22  1  0
  9 23  1  0
 14 24  1  0
 15 25  1  0
 17 26  1  0
M  ISO  8  19  14  20  14  21  14  22  14  23  14  24  14  25  14  26  14
M  END
>  <minimizedAffinity>  (1) 
-4.30908585

>  <minimizedRMSD>  (1) 
0.632884145

$$$$
