
     RDKit          3D

 48 50  0  0  1  0  0  0  0  0999 V2000
   39.8570   22.6580   37.2700 C   0  0  0  0  0  0  0  0  0  0  0  0
   39.1260   23.2240   38.3050 C   0  0  0  0  0  0  0  0  0  0  0  0
   37.7510   23.3310   38.1550 C   0  0  0  0  0  0  0  0  0  0  0  0
   37.1690   22.8800   37.0020 N   0  0  0  0  0  0  0  0  0  0  0  0
   37.9120   22.3370   36.0200 C   0  0  0  0  0  0  0  0  0  0  0  0
   39.2560   22.2290   36.1580 N   0  0  0  0  0  0  0  0  0  0  0  0
   37.3250   21.8600   34.8210 N   0  0  0  0  0  0  0  0  0  0  0  0
   37.9650   22.2170   33.7110 C   0  0  0  0  0  0  0  0  0  0  0  0
   37.4920   21.8060   32.4940 C   0  0  0  0  0  0  0  0  0  0  0  0
   36.3420   21.0230   32.5390 C   0  0  0  0  0  0  0  0  0  0  0  0
   35.7110   20.5040   31.3660 N   0  0  0  0  0  0  0  0  0  0  0  0
   35.7110   20.6750   33.6800 N   0  0  0  0  0  0  0  0  0  0  0  0
   36.2150   21.1060   34.8670 C   0  0  0  0  0  0  0  0  0  0  0  0
   35.7220   20.8500   35.9780 O   0  0  0  0  0  0  0  0  0  0  0  0
   38.0550   22.0880   31.2460 N   0  0  0  0  0  0  0  0  0  0  0  0
   37.9740   23.3190   30.4890 C   0  0  0  0  0  0  0  0  0  0  0  0
   39.3720   23.6220   30.0120 C   0  0  0  0  0  0  0  0  0  0  0  0
   39.7200   22.5890   28.9720 C   0  0  0  0  0  0  0  0  0  0  0  0
   38.9020   21.3480   29.1510 C   0  0  0  0  0  0  0  0  0  0  0  0
   38.7780   21.0290   30.6220 C   0  0  1  0  0  0  0  0  0  0  0  0
   39.9160   20.3820   31.2360 C   0  0  0  0  0  0  0  0  0  0  0  0
   39.3510   19.1180   31.9250 C   0  0  0  0  0  0  0  0  0  0  0  0
   41.0440   19.8620   30.4240 C   0  0  0  0  0  0  0  0  0  0  0  0
   40.5130   21.1860   32.3750 C   0  0  0  0  0  0  0  0  0  0  0  0
   40.9484   22.5614   37.3675 H   0  0  0  0  0  0  0  0  0  0  0  0
   39.6235   23.5783   39.2198 H   0  0  0  0  0  0  0  0  0  0  0  0
   37.1364   23.7729   38.9531 H   0  0  0  0  0  0  0  0  0  0  0  0
   38.8700   22.8395   33.7707 H   0  0  0  0  0  0  0  0  0  0  0  0
   34.8607   19.9289   31.4503 H   0  0  0  0  0  0  0  0  0  0  0  0
   36.1066   20.7052   30.4365 H   0  0  0  0  0  0  0  0  0  0  0  0
   37.2985   23.1930   29.6300 H   0  0  0  0  0  0  0  0  0  0  0  0
   37.5778   24.1394   31.1055 H   0  0  0  0  0  0  0  0  0  0  0  0
   39.4100   24.6290   29.5709 H   0  0  0  0  0  0  0  0  0  0  0  0
   40.0859   23.5909   30.8483 H   0  0  0  0  0  0  0  0  0  0  0  0
   40.7860   22.3329   29.0624 H   0  0  0  0  0  0  0  0  0  0  0  0
   39.5064   23.0082   27.9777 H   0  0  0  0  0  0  0  0  0  0  0  0
   37.9001   21.5057   28.7251 H   0  0  0  0  0  0  0  0  0  0  0  0
   39.3939   20.5095   28.6362 H   0  0  0  0  0  0  0  0  0  0  0  0
   38.1482   20.1484   30.8164 H   0  0  0  0  0  0  0  0  0  0  0  0
   39.4056   19.2401   33.0168 H   0  0  0  0  0  0  0  0  0  0  0  0
   38.3028   18.9739   31.6241 H   0  0  0  0  0  0  0  0  0  0  0  0
   39.9427   18.2409   31.6241 H   0  0  0  0  0  0  0  0  0  0  0  0
   41.8381   19.4959   31.0914 H   0  0  0  0  0  0  0  0  0  0  0  0
   40.6890   19.0367   29.7893 H   0  0  0  0  0  0  0  0  0  0  0  0
   41.4410   20.6680   29.7893 H   0  0  0  0  0  0  0  0  0  0  0  0
   40.1930   20.7551   33.3351 H   0  0  0  0  0  0  0  0  0  0  0  0
   41.6106   21.1576   32.3080 H   0  0  0  0  0  0  0  0  0  0  0  0
   40.1684   22.2285   32.3080 H   0  0  0  0  0  0  0  0  0  0  0  0
  1  2  2  0
  3  2  1  0
  4  3  2  0
  5  6  2  0
  5  4  1  0
  6  1  1  0
  7 13  1  0
  7  5  1  0
  8  7  1  0
  9 10  1  0
  9  8  2  0
 10 12  2  0
 11 10  1  0
 12 13  1  0
 13 14  2  0
 15  9  1  0
 16 15  1  0
 17 16  1  0
 18 19  1  0
 18 17  1  0
 19 20  1  0
 20 21  1  0
 20 15  1  0
 21 22  1  0
 21 24  1  0
 23 21  1  0
  1 25  1  0
  2 26  1  0
  3 27  1  0
  8 28  1  0
 11 29  1  0
 11 30  1  0
 16 31  1  0
 16 32  1  0
 17 33  1  0
 17 34  1  0
 18 35  1  0
 18 36  1  0
 19 37  1  0
 19 38  1  0
 20 39  1  6
 22 40  1  0
 22 41  1  0
 22 42  1  0
 23 43  1  0
 23 44  1  0
 23 45  1  0
 24 46  1  0
 24 47  1  0
 24 48  1  0
M  ISO  8  25  14  26  14  27  14  28  14  31  13  32  13  33  13  34  13
M  ISO  8  35  13  36  13  37  13  38  13  39  13  40   8  41   8  42   8
M  ISO  6  43   8  44   8  45   8  46   8  47   8  48   8
M  END
>  <minimizedAffinity>  (1) 
-4.9424305

>  <minimizedRMSD>  (1) 
0.58749944

$$$$
