
     RDKit          3D

 27 29  0  0  0  0  0  0  0  0999 V2000
   37.4690   21.9540   34.8390 C   0  0  0  0  0  0  0  0  0  0  0  0
   36.3330   21.1550   34.8990 C   0  0  0  0  0  0  0  0  0  0  0  0
   35.8140   20.7610   33.6830 C   0  0  0  0  0  0  0  0  0  0  0  0
   36.3590   21.1170   32.4910 N   0  0  0  0  0  0  0  0  0  0  0  0
   37.4650   21.8970   32.4910 C   0  0  0  0  0  0  0  0  0  0  0  0
   38.0120   22.3100   33.6680 N   0  0  0  0  0  0  0  0  0  0  0  0
   39.9300   22.6740   37.4660 C   0  0  0  0  0  0  0  0  0  0  0  0
   39.1560   23.2890   38.4760 C   0  0  0  0  0  0  0  0  0  0  0  0
   37.7910   23.4360   38.2100 C   0  0  0  0  0  0  0  0  0  0  0  0
   37.2810   22.9930   37.0260 N   0  0  0  0  0  0  0  0  0  0  0  0
   38.0730   22.4100   36.0930 C   0  0  0  0  0  0  0  0  0  0  0  0
   39.3740   22.2570   36.3190 N   0  0  0  0  0  0  0  0  0  0  0  0
   38.1160   22.3270   31.2640 C   0  0  0  0  0  0  0  0  0  0  0  0
   38.0570   23.6900   30.9500 C   0  0  0  0  0  0  0  0  0  0  0  0
   38.6910   24.0380   29.7790 C   0  0  0  0  0  0  0  0  0  0  0  0
   39.3360   23.1510   28.9600 C   0  0  0  0  0  0  0  0  0  0  0  0
   39.3690   21.7970   29.3150 C   0  0  0  0  0  0  0  0  0  0  0  0
   38.7530   21.4750   30.4480 N   0  0  0  0  0  0  0  0  0  0  0  0
   35.8773   20.8562   35.8545 H   0  0  0  0  0  0  0  0  0  0  0  0
   34.9147   20.1275   33.6786 H   0  0  0  0  0  0  0  0  0  0  0  0
   41.0097   22.5346   37.6238 H   0  0  0  0  0  0  0  0  0  0  0  0
   39.6031   23.6334   39.4202 H   0  0  0  0  0  0  0  0  0  0  0  0
   37.1313   23.9073   38.9534 H   0  0  0  0  0  0  0  0  0  0  0  0
   37.5446   24.4246   31.5886 H   0  0  0  0  0  0  0  0  0  0  0  0
   38.6786   25.0971   29.4822 H   0  0  0  0  0  0  0  0  0  0  0  0
   39.8217   23.4971   28.0357 H   0  0  0  0  0  0  0  0  0  0  0  0
   39.8749   21.0440   28.6929 H   0  0  0  0  0  0  0  0  0  0  0  0
  1  2  2  0
  1 11  1  0
  3  2  1  0
  4  5  1  0
  4  3  2  0
  5  6  2  0
  6  1  1  0
  7  8  2  0
  9  8  1  0
 10  9  2  0
 11 12  2  0
 11 10  1  0
 12  7  1  0
 13  5  1  0
 14 13  2  0
 15 14  1  0
 16 17  1  0
 16 15  2  0
 17 18  2  0
 18 13  1  0
  2 19  1  0
  3 20  1  0
  7 21  1  0
  8 22  1  0
  9 23  1  0
 14 24  1  0
 15 25  1  0
 16 26  1  0
 17 27  1  0
M  ISO  8  19  14  20  14  21  14  22  14  23  14  24  14  25  14  26  14
M  ISO  1  27  14
M  END
>  <minimizedAffinity>  (1) 
-4.35294819

>  <minimizedRMSD>  (1) 
0.637168407

$$$$
