
     RDKit          3D

 34 36  0  0  0  0  0  0  0  0999 V2000
   37.3530   21.9430   35.0450 C   0  0  0  0  0  0  0  0  0  0  0  0
   36.2560   21.0930   35.1730 C   0  0  0  0  0  0  0  0  0  0  0  0
   35.6770   20.6660   33.9990 C   0  0  0  0  0  0  0  0  0  0  0  0
   36.1290   21.0380   32.7720 N   0  0  0  0  0  0  0  0  0  0  0  0
   37.2130   21.8760   32.6950 C   0  0  0  0  0  0  0  0  0  0  0  0
   37.8040   22.3120   33.8370 N   0  0  0  0  0  0  0  0  0  0  0  0
   39.9200   22.6980   37.5560 C   0  0  0  0  0  0  0  0  0  0  0  0
   39.1870   23.3530   38.5640 C   0  0  0  0  0  0  0  0  0  0  0  0
   37.8250   23.5180   38.3500 C   0  0  0  0  0  0  0  0  0  0  0  0
   37.2570   23.0480   37.1940 N   0  0  0  0  0  0  0  0  0  0  0  0
   38.0030   22.4230   36.2540 C   0  0  0  0  0  0  0  0  0  0  0  0
   39.3270   22.2540   36.4410 N   0  0  0  0  0  0  0  0  0  0  0  0
   37.6740   22.2560   31.3660 C   0  0  0  0  0  0  0  0  0  0  0  0
   38.5230   23.5240   31.5050 C   0  0  0  0  0  0  0  0  0  0  0  0
   38.5240   24.1000   30.0930 C   0  0  0  0  0  0  0  0  0  0  0  0
   39.0490   23.1300   29.0820 C   0  0  0  0  0  0  0  0  0  0  0  0
   39.3870   21.7790   29.6010 C   0  0  0  0  0  0  0  0  0  0  0  0
   38.5120   21.2420   30.6780 C   0  0  0  0  0  0  0  0  0  0  0  0
   35.8743   20.7809   36.1563 H   0  0  0  0  0  0  0  0  0  0  0  0
   34.8088   19.9930   34.0565 H   0  0  0  0  0  0  0  0  0  0  0  0
   41.0018   22.5481   37.6874 H   0  0  0  0  0  0  0  0  0  0  0  0
   39.6722   23.7181   39.4812 H   0  0  0  0  0  0  0  0  0  0  0  0
   37.2045   24.0235   39.1046 H   0  0  0  0  0  0  0  0  0  0  0  0
   36.7677   22.3874   30.7566 H   0  0  0  0  0  0  0  0  0  0  0  0
   38.0675   24.2274   32.2175 H   0  0  0  0  0  0  0  0  0  0  0  0
   39.5340   23.3258   31.8905 H   0  0  0  0  0  0  0  0  0  0  0  0
   37.4930   24.3705   29.8210 H   0  0  0  0  0  0  0  0  0  0  0  0
   39.1854   24.9790   30.0897 H   0  0  0  0  0  0  0  0  0  0  0  0
   39.9603   23.5607   28.6416 H   0  0  0  0  0  0  0  0  0  0  0  0
   38.2335   22.9786   28.3595 H   0  0  0  0  0  0  0  0  0  0  0  0
   39.3454   21.0765   28.7556 H   0  0  0  0  0  0  0  0  0  0  0  0
   40.3811   21.8845   30.0599 H   0  0  0  0  0  0  0  0  0  0  0  0
   37.8430   20.4912   30.2322 H   0  0  0  0  0  0  0  0  0  0  0  0
   39.1841   20.8265   31.4432 H   0  0  0  0  0  0  0  0  0  0  0  0
  1  2  2  0
  1 11  1  0
  3  2  1  0
  4  3  2  0
  5  4  1  0
  5  6  2  0
  6  1  1  0
  7  8  2  0
  9  8  1  0
 10  9  2  0
 11 12  2  0
 11 10  1  0
 12  7  1  0
 13 14  1  0
 13  5  1  0
 15 14  1  0
 16 17  1  0
 16 15  1  0
 17 18  1  0
 18 13  1  0
  2 19  1  0
  3 20  1  0
  7 21  1  0
  8 22  1  0
  9 23  1  0
 13 24  1  0
 14 25  1  0
 14 26  1  0
 15 27  1  0
 15 28  1  0
 16 29  1  0
 16 30  1  0
 17 31  1  0
 17 32  1  0
 18 33  1  0
 18 34  1  0
M  ISO  8  19  14  20  14  21  14  22  14  23  14  24  13  25  13  26  13
M  ISO  8  27  13  28  13  29  13  30  13  31  13  32  13  33  13  34  13
M  END
>  <minimizedAffinity>  (1) 
-4.43915987

>  <minimizedRMSD>  (1) 
0.401036799

$$$$
