
     RDKit          3D

 25 27  0  0  0  0  0  0  0  0999 V2000
   37.1350   21.8860   34.7930 C   0  0  0  0  0  0  0  0  0  0  0  0
   36.2210   20.8470   35.0080 C   0  0  0  0  0  0  0  0  0  0  0  0
   35.4800   20.4900   33.8890 C   0  0  0  0  0  0  0  0  0  0  0  0
   35.6120   21.0850   32.6710 N   0  0  0  0  0  0  0  0  0  0  0  0
   36.5140   22.0870   32.5240 C   0  0  0  0  0  0  0  0  0  0  0  0
   37.2610   22.4690   33.5950 N   0  0  0  0  0  0  0  0  0  0  0  0
   40.0230   22.4750   36.9640 C   0  0  0  0  0  0  0  0  0  0  0  0
   39.4620   23.1630   38.0660 C   0  0  0  0  0  0  0  0  0  0  0  0
   38.0900   23.4050   38.0280 C   0  0  0  0  0  0  0  0  0  0  0  0
   37.3630   22.9740   36.9450 N   0  0  0  0  0  0  0  0  0  0  0  0
   37.9520   22.3210   35.9170 C   0  0  0  0  0  0  0  0  0  0  0  0
   39.2700   22.0760   35.9300 N   0  0  0  0  0  0  0  0  0  0  0  0
   36.7060   22.7710   31.2370 C   0  0  0  0  0  0  0  0  0  0  0  0
   37.3670   24.0960   31.1560 C   0  0  0  0  0  0  0  0  0  0  0  0
   35.8660   24.0080   31.0250 C   0  0  0  0  0  0  0  0  0  0  0  0
   36.0999   20.3538   35.9837 H   0  0  0  0  0  0  0  0  0  0  0  0
   34.7436   19.6795   33.9924 H   0  0  0  0  0  0  0  0  0  0  0  0
   41.1023   22.2628   36.9561 H   0  0  0  0  0  0  0  0  0  0  0  0
   40.0806   23.4918   38.9140 H   0  0  0  0  0  0  0  0  0  0  0  0
   37.5952   23.9348   38.8553 H   0  0  0  0  0  0  0  0  0  0  0  0
   36.8900   21.8190   30.7176 H   0  0  0  0  0  0  0  0  0  0  0  0
   37.8135   24.5420   32.0570 H   0  0  0  0  0  0  0  0  0  0  0  0
   38.1740   24.5223   30.5420 H   0  0  0  0  0  0  0  0  0  0  0  0
   35.2175   24.3812   31.8313 H   0  0  0  0  0  0  0  0  0  0  0  0
   35.1227   24.3340   30.2825 H   0  0  0  0  0  0  0  0  0  0  0  0
  1  2  2  0
  1 11  1  0
  3  2  1  0
  4  3  2  0
  5  4  1  0
  5  6  2  0
  6  1  1  0
  7  8  2  0
  9  8  1  0
 10  9  2  0
 11 12  2  0
 11 10  1  0
 12  7  1  0
 13  5  1  0
 14 13  1  0
 15 14  1  0
 15 13  1  0
  2 16  1  0
  3 17  1  0
  7 18  1  0
  8 19  1  0
  9 20  1  0
 13 21  1  0
 14 22  1  0
 14 23  1  0
 15 24  1  0
 15 25  1  0
M  ISO  8  16  14  17  14  18  14  19  14  20  14  21  13  22  13  23  13
M  ISO  2  24  13  25  13
M  END
>  <minimizedAffinity>  (1) 
-4.30919027

>  <minimizedRMSD>  (1) 
0.730104208

$$$$
