
     RDKit          3D

 27 28  0  0  0  0  0  0  0  0999 V2000
   37.1400   21.8700   35.0030 C   0  0  0  0  0  0  0  0  0  0  0  0
   36.1920   20.8840   35.2010 C   0  0  0  0  0  0  0  0  0  0  0  0
   35.4920   20.4820   34.0830 C   0  0  0  0  0  0  0  0  0  0  0  0
   35.6930   20.9960   32.8610 N   0  0  0  0  0  0  0  0  0  0  0  0
   36.6360   21.9680   32.6970 C   0  0  0  0  0  0  0  0  0  0  0  0
   37.3450   22.3850   33.7870 N   0  0  0  0  0  0  0  0  0  0  0  0
   39.9690   22.6080   37.2200 C   0  0  0  0  0  0  0  0  0  0  0  0
   39.3510   23.2910   38.3090 C   0  0  0  0  0  0  0  0  0  0  0  0
   37.9750   23.4630   38.2190 C   0  0  0  0  0  0  0  0  0  0  0  0
   37.2840   22.9950   37.1390 N   0  0  0  0  0  0  0  0  0  0  0  0
   37.9260   22.3530   36.1350 C   0  0  0  0  0  0  0  0  0  0  0  0
   39.2580   22.1610   36.1770 N   0  0  0  0  0  0  0  0  0  0  0  0
   36.9580   22.6230   31.3920 C   0  0  0  0  0  0  0  0  0  0  0  0
   35.8310   23.6090   31.0930 C   0  0  0  0  0  0  0  0  0  0  0  0
   38.3020   23.2690   31.3980 C   0  0  0  0  0  0  0  0  0  0  0  0
   36.0067   20.4455   36.1926 H   0  0  0  0  0  0  0  0  0  0  0  0
   34.7287   19.6986   34.1998 H   0  0  0  0  0  0  0  0  0  0  0  0
   41.0566   22.4444   37.2373 H   0  0  0  0  0  0  0  0  0  0  0  0
   39.9293   23.6597   39.1690 H   0  0  0  0  0  0  0  0  0  0  0  0
   37.4372   23.9816   39.0264 H   0  0  0  0  0  0  0  0  0  0  0  0
   37.0192   21.8703   30.5922 H   0  0  0  0  0  0  0  0  0  0  0  0
   35.4075   23.9795   32.0382 H   0  0  0  0  0  0  0  0  0  0  0  0
   36.2282   24.4549   30.5127 H   0  0  0  0  0  0  0  0  0  0  0  0
   35.0454   23.1029   30.5127 H   0  0  0  0  0  0  0  0  0  0  0  0
   38.6287   23.4260   32.4366 H   0  0  0  0  0  0  0  0  0  0  0  0
   39.0234   22.6193   30.8809 H   0  0  0  0  0  0  0  0  0  0  0  0
   38.2453   24.2382   30.8809 H   0  0  0  0  0  0  0  0  0  0  0  0
  1  2  2  0
  1 11  1  0
  3  2  1  0
  4  3  2  0
  5  4  1  0
  5  6  2  0
  6  1  1  0
  7  8  2  0
  9  8  1  0
 10  9  2  0
 11 12  2  0
 11 10  1  0
 12  7  1  0
 13 15  1  0
 13  5  1  0
 14 13  1  0
  2 16  1  0
  3 17  1  0
  7 18  1  0
  8 19  1  0
  9 20  1  0
 13 21  1  0
 14 22  1  0
 14 23  1  0
 14 24  1  0
 15 25  1  0
 15 26  1  0
 15 27  1  0
M  ISO  8  16  14  17  14  18  14  19  14  20  14  21   8  22   8  23   8
M  ISO  4  24   8  25   8  26   8  27   8
M  END
>  <minimizedAffinity>  (1) 
-4.26997709

>  <minimizedRMSD>  (1) 
0.486882538

$$$$
