
     RDKit          3D

 24 26  0  0  0  0  0  0  0  0999 V2000
   37.3290   21.8460   34.9780 C   0  0  0  0  0  0  0  0  0  0  0  0
   36.1870   21.0700   35.0860 C   0  0  0  0  0  0  0  0  0  0  0  0
   35.6550   20.6300   33.8880 C   0  0  0  0  0  0  0  0  0  0  0  0
   36.1810   20.9140   32.6850 N   0  0  0  0  0  0  0  0  0  0  0  0
   37.3060   21.6800   32.6160 C   0  0  0  0  0  0  0  0  0  0  0  0
   37.8650   22.1360   33.7740 N   0  0  0  0  0  0  0  0  0  0  0  0
   39.8640   22.7280   37.4800 C   0  0  0  0  0  0  0  0  0  0  0  0
   39.1050   23.3540   38.4870 C   0  0  0  0  0  0  0  0  0  0  0  0
   37.7150   23.4570   38.2740 C   0  0  0  0  0  0  0  0  0  0  0  0
   37.2030   22.9490   37.1180 N   0  0  0  0  0  0  0  0  0  0  0  0
   37.9730   22.3630   36.1920 C   0  0  0  0  0  0  0  0  0  0  0  0
   39.2840   22.2560   36.3760 N   0  0  0  0  0  0  0  0  0  0  0  0
   37.9940   22.0740   31.3900 C   0  0  0  0  0  0  0  0  0  0  0  0
   38.7460   21.1190   30.6990 C   0  0  0  0  0  0  0  0  0  0  0  0
   39.4030   22.0520   29.2670 S   0  0  0  0  0  0  0  0  0  0  0  0
   38.5060   23.6360   29.8830 C   0  0  0  0  0  0  0  0  0  0  0  0
   38.0010   23.2660   30.8210 N   0  0  0  0  0  0  0  0  0  0  0  0
   35.7346   20.8210   36.0573 H   0  0  0  0  0  0  0  0  0  0  0  0
   34.7468   20.0104   33.9221 H   0  0  0  0  0  0  0  0  0  0  0  0
   40.9521   22.6267   37.6058 H   0  0  0  0  0  0  0  0  0  0  0  0
   39.5760   23.7459   39.4006 H   0  0  0  0  0  0  0  0  0  0  0  0
   37.0624   23.9340   39.0200 H   0  0  0  0  0  0  0  0  0  0  0  0
   38.9048   20.0609   30.9544 H   0  0  0  0  0  0  0  0  0  0  0  0
   38.4895   24.6414   29.4370 H   0  0  0  0  0  0  0  0  0  0  0  0
  1  2  2  0
  1 11  1  0
  3  2  1  0
  4  3  2  0
  5  4  1  0
  5  6  2  0
  6  1  1  0
  7  8  2  0
  9  8  1  0
 10  9  2  0
 11 12  2  0
 11 10  1  0
 12  7  1  0
 13  5  1  0
 14 13  2  0
 15 16  1  0
 15 14  1  0
 16 17  2  0
 17 13  1  0
  2 18  1  0
  3 19  1  0
  7 20  1  0
  8 21  1  0
  9 22  1  0
 14 23  1  0
 16 24  1  0
M  ISO  7  18  14  19  14  20  14  21  14  22  14  23  14  24  14
M  END
>  <minimizedAffinity>  (1) 
-4.16903639

>  <minimizedRMSD>  (1) 
0.927375734

$$$$
