
     RDKit          3D

 19 20  0  0  0  0  0  0  0  0999 V2000
   37.2080   21.8580   34.9090 C   0  0  0  0  0  0  0  0  0  0  0  0
   36.1620   20.9490   35.1170 C   0  0  0  0  0  0  0  0  0  0  0  0
   35.5220   20.5330   33.9650 C   0  0  0  0  0  0  0  0  0  0  0  0
   35.8550   20.9500   32.7270 N   0  0  0  0  0  0  0  0  0  0  0  0
   36.8790   21.8330   32.5820 C   0  0  0  0  0  0  0  0  0  0  0  0
   37.5440   22.2740   33.6920 N   0  0  0  0  0  0  0  0  0  0  0  0
   39.9270   22.6260   37.2510 C   0  0  0  0  0  0  0  0  0  0  0  0
   39.2670   23.2780   38.3100 C   0  0  0  0  0  0  0  0  0  0  0  0
   37.8920   23.4360   38.1840 C   0  0  0  0  0  0  0  0  0  0  0  0
   37.2600   22.9610   37.0660 N   0  0  0  0  0  0  0  0  0  0  0  0
   37.9340   22.3440   36.0800 C   0  0  0  0  0  0  0  0  0  0  0  0
   39.2640   22.1810   36.1790 N   0  0  0  0  0  0  0  0  0  0  0  0
   37.2120   22.2550   31.3020 O   0  0  0  0  0  0  0  0  0  0  0  0
   35.8733   20.5948   36.1176 H   0  0  0  0  0  0  0  0  0  0  0  0
   34.6912   19.8189   34.0641 H   0  0  0  0  0  0  0  0  0  0  0  0
   41.0157   22.4791   37.3072 H   0  0  0  0  0  0  0  0  0  0  0  0
   39.8121   23.6439   39.1926 H   0  0  0  0  0  0  0  0  0  0  0  0
   37.3164   23.9383   38.9755 H   0  0  0  0  0  0  0  0  0  0  0  0
   37.9536   22.8974   31.1698 H   0  0  0  0  0  0  0  0  0  0  0  0
  1  2  2  0
  1 11  1  0
  3  2  1  0
  4  3  2  0
  5  4  1  0
  5  6  2  0
  6  1  1  0
  7  8  2  0
  9  8  1  0
 10  9  2  0
 11 12  2  0
 11 10  1  0
 12  7  1  0
 13  5  1  0
  2 14  1  0
  3 15  1  0
  7 16  1  0
  8 17  1  0
  9 18  1  0
 13 19  1  0
M  ISO  6  14  14  15  14  16  14  17  14  18  14  19   3
M  END
>  <minimizedAffinity>  (1) 
-3.94816542

>  <minimizedRMSD>  (1) 
0.0161625128

$$$$
