
     RDKit          3D

 25 27  0  0  0  0  0  0  0  0999 V2000
   37.5590   22.0130   34.8440 C   0  0  0  0  0  0  0  0  0  0  0  0
   36.4200   21.2080   34.8480 C   0  0  0  0  0  0  0  0  0  0  0  0
   35.9410   20.8270   33.6180 C   0  0  0  0  0  0  0  0  0  0  0  0
   36.5230   21.1970   32.4450 N   0  0  0  0  0  0  0  0  0  0  0  0
   37.6280   21.9790   32.4900 C   0  0  0  0  0  0  0  0  0  0  0  0
   38.1340   22.3780   33.6840 N   0  0  0  0  0  0  0  0  0  0  0  0
   39.9320   22.7010   37.5450 C   0  0  0  0  0  0  0  0  0  0  0  0
   39.1110   23.3110   38.5370 C   0  0  0  0  0  0  0  0  0  0  0  0
   37.7530   23.4660   38.2340 C   0  0  0  0  0  0  0  0  0  0  0  0
   37.3140   23.0250   37.0210 N   0  0  0  0  0  0  0  0  0  0  0  0
   38.1210   22.4550   36.1150 C   0  0  0  0  0  0  0  0  0  0  0  0
   39.4130   22.2980   36.3820 N   0  0  0  0  0  0  0  0  0  0  0  0
   38.2290   22.3600   31.2580 C   0  0  0  0  0  0  0  0  0  0  0  0
   39.0280   21.7160   30.3600 C   0  0  0  0  0  0  0  0  0  0  0  0
   39.4590   22.3420   29.2440 C   0  0  0  0  0  0  0  0  0  0  0  0
   39.0510   23.6660   29.0600 C   0  0  0  0  0  0  0  0  0  0  0  0
   37.9900   24.0310   30.5680 S   0  0  0  0  0  0  0  0  0  0  0  0
   35.9326   20.8957   35.7834 H   0  0  0  0  0  0  0  0  0  0  0  0
   35.0435   20.1921   33.5796 H   0  0  0  0  0  0  0  0  0  0  0  0
   41.0056   22.5603   37.7391 H   0  0  0  0  0  0  0  0  0  0  0  0
   39.5262   23.6456   39.4991 H   0  0  0  0  0  0  0  0  0  0  0  0
   37.0613   23.9295   38.9528 H   0  0  0  0  0  0  0  0  0  0  0  0
   39.3251   20.6735   30.5471 H   0  0  0  0  0  0  0  0  0  0  0  0
   40.1028   21.8324   28.5120 H   0  0  0  0  0  0  0  0  0  0  0  0
   39.2947   24.3394   28.2250 H   0  0  0  0  0  0  0  0  0  0  0  0
  1  2  2  0
  1 11  1  0
  3  2  1  0
  4  5  1  0
  4  3  2  0
  5  6  2  0
  6  1  1  0
  7  8  2  0
  9  8  1  0
 10  9  2  0
 11 12  2  0
 11 10  1  0
 12  7  1  0
 13  5  1  0
 14 13  2  0
 15 14  1  0
 16 15  2  0
 16 17  1  0
 17 13  1  0
  2 18  1  0
  3 19  1  0
  7 20  1  0
  8 21  1  0
  9 22  1  0
 14 23  1  0
 15 24  1  0
 16 25  1  0
M  ISO  8  18  14  19  14  20  14  21  14  22  14  23  14  24  14  25  14
M  END
>  <minimizedAffinity>  (1) 
-4.18227911

>  <minimizedRMSD>  (1) 
0.787861526

$$$$
