
     RDKit          3D

 24 25  0  0  0  0  0  0  0  0999 V2000
   37.1790   21.9000   34.9170 C   0  0  0  0  0  0  0  0  0  0  0  0
   36.2010   20.9190   35.1040 C   0  0  0  0  0  0  0  0  0  0  0  0
   35.5260   20.5230   33.9730 C   0  0  0  0  0  0  0  0  0  0  0  0
   35.7750   21.0350   32.7490 N   0  0  0  0  0  0  0  0  0  0  0  0
   36.7460   21.9990   32.6080 C   0  0  0  0  0  0  0  0  0  0  0  0
   37.4330   22.4140   33.7090 N   0  0  0  0  0  0  0  0  0  0  0  0
   39.9580   22.5920   37.2150 C   0  0  0  0  0  0  0  0  0  0  0  0
   39.3120   23.2540   38.3000 C   0  0  0  0  0  0  0  0  0  0  0  0
   37.9370   23.4360   38.1950 C   0  0  0  0  0  0  0  0  0  0  0  0
   37.2770   22.9830   37.0810 N   0  0  0  0  0  0  0  0  0  0  0  0
   37.9300   22.3630   36.0800 C   0  0  0  0  0  0  0  0  0  0  0  0
   39.2450   22.1800   36.1670 N   0  0  0  0  0  0  0  0  0  0  0  0
   37.0290   22.5700   31.2680 C   0  0  0  0  0  0  0  0  0  0  0  0
   36.1510   23.7860   31.0520 C   0  0  0  0  0  0  0  0  0  0  0  0
   35.9848   20.4905   36.0938 H   0  0  0  0  0  0  0  0  0  0  0  0
   34.7466   19.7529   34.0704 H   0  0  0  0  0  0  0  0  0  0  0  0
   41.0443   22.4214   37.2428 H   0  0  0  0  0  0  0  0  0  0  0  0
   39.8742   23.6041   39.1783 H   0  0  0  0  0  0  0  0  0  0  0  0
   37.3823   23.9400   39.0002 H   0  0  0  0  0  0  0  0  0  0  0  0
   38.0872   22.8645   31.2090 H   0  0  0  0  0  0  0  0  0  0  0  0
   36.8186   21.8184   30.4928 H   0  0  0  0  0  0  0  0  0  0  0  0
   35.8520   24.2001   32.0262 H   0  0  0  0  0  0  0  0  0  0  0  0
   36.7100   24.5461   30.4865 H   0  0  0  0  0  0  0  0  0  0  0  0
   35.2536   23.4945   30.4865 H   0  0  0  0  0  0  0  0  0  0  0  0
  1  2  2  0
  1 11  1  0
  3  2  1  0
  4  3  2  0
  5  4  1  0
  5  6  2  0
  6  1  1  0
  7  8  2  0
  9  8  1  0
 10  9  2  0
 11 12  2  0
 11 10  1  0
 12  7  1  0
 13  5  1  0
 14 13  1  0
  2 15  1  0
  3 16  1  0
  7 17  1  0
  8 18  1  0
  9 19  1  0
 13 20  1  0
 13 21  1  0
 14 22  1  0
 14 23  1  0
 14 24  1  0
M  ISO  8  15  14  16  14  17  14  18  14  19  14  20   8  21   8  22   8
M  ISO  2  23   8  24   8
M  END
>  <minimizedAffinity>  (1) 
-4.13686085

>  <minimizedRMSD>  (1) 
0.298364967

$$$$
