
     RDKit          3D

 37 39  0  0  0  0  0  0  0  0999 V2000
   37.2130   21.8990   35.0900 C   0  0  0  0  0  0  0  0  0  0  0  0
   36.2020   20.9520   35.2980 C   0  0  0  0  0  0  0  0  0  0  0  0
   35.5430   20.5160   34.1660 C   0  0  0  0  0  0  0  0  0  0  0  0
   35.8290   20.9520   32.9310 N   0  0  0  0  0  0  0  0  0  0  0  0
   36.8340   21.8900   32.7610 C   0  0  0  0  0  0  0  0  0  0  0  0
   37.5040   22.3410   33.8560 N   0  0  0  0  0  0  0  0  0  0  0  0
   39.9580   22.6470   37.3950 C   0  0  0  0  0  0  0  0  0  0  0  0
   39.3060   23.3490   38.4450 C   0  0  0  0  0  0  0  0  0  0  0  0
   37.9430   23.5350   38.3120 C   0  0  0  0  0  0  0  0  0  0  0  0
   37.2900   23.0520   37.2090 N   0  0  0  0  0  0  0  0  0  0  0  0
   37.9430   22.3970   36.2440 C   0  0  0  0  0  0  0  0  0  0  0  0
   39.2650   22.2050   36.3540 N   0  0  0  0  0  0  0  0  0  0  0  0
   37.1670   22.3870   31.4060 C   0  0  0  0  0  0  0  0  0  0  0  0
   36.0930   23.3270   30.9420 C   0  0  0  0  0  0  0  0  0  0  0  0
   36.4020   24.7220   31.1320 N   0  0  0  0  0  0  0  0  0  0  0  0
   37.6760   25.1160   31.3210 C   0  0  0  0  0  0  0  0  0  0  0  0
   38.0440   26.4280   31.5080 C   0  0  0  0  0  0  0  0  0  0  0  0
   39.4860   26.7570   31.7090 C   0  0  0  0  0  0  0  0  0  0  0  0
   37.0480   27.3850   31.5010 C   0  0  0  0  0  0  0  0  0  0  0  0
   37.3750   28.5860   31.6710 O   0  0  0  0  0  0  0  0  0  0  0  0
   35.7630   27.0100   31.3130 N   0  0  0  0  0  0  0  0  0  0  0  0
   35.4840   25.7070   31.1370 C   0  0  0  0  0  0  0  0  0  0  0  0
   34.2750   25.4070   30.9660 O   0  0  0  0  0  0  0  0  0  0  0  0
   35.9488   20.5788   36.3013 H   0  0  0  0  0  0  0  0  0  0  0  0
   34.7414   19.7720   34.2835 H   0  0  0  0  0  0  0  0  0  0  0  0
   41.0424   22.4695   37.4460 H   0  0  0  0  0  0  0  0  0  0  0  0
   39.8581   23.7251   39.3189 H   0  0  0  0  0  0  0  0  0  0  0  0
   37.3824   24.0710   39.0920 H   0  0  0  0  0  0  0  0  0  0  0  0
   38.1306   22.9167   31.4359 H   0  0  0  0  0  0  0  0  0  0  0  0
   37.2379   21.5379   30.7103 H   0  0  0  0  0  0  0  0  0  0  0  0
   35.1720   23.0994   31.4988 H   0  0  0  0  0  0  0  0  0  0  0  0
   35.9868   23.1730   29.8580 H   0  0  0  0  0  0  0  0  0  0  0  0
   38.4636   24.3481   31.3261 H   0  0  0  0  0  0  0  0  0  0  0  0
   39.7041   26.8068   32.7860 H   0  0  0  0  0  0  0  0  0  0  0  0
   40.1081   25.9777   31.2446 H   0  0  0  0  0  0  0  0  0  0  0  0
   39.7085   27.7290   31.2446 H   0  0  0  0  0  0  0  0  0  0  0  0
   35.0093   27.7119   31.3047 H   0  0  0  0  0  0  0  0  0  0  0  0
  1  2  2  0
  1 11  1  0
  3  2  1  0
  4  3  2  0
  5  4  1  0
  5  6  2  0
  6  1  1  0
  7  8  2  0
  9  8  1  0
 10  9  2  0
 11 12  2  0
 11 10  1  0
 12  7  1  0
 13  5  1  0
 14 15  1  0
 14 13  1  0
 15 22  1  0
 15 16  1  0
 16 17  2  0
 17 18  1  0
 19 17  1  0
 19 20  2  0
 21 19  1  0
 22 21  1  0
 23 22  2  0
  2 24  1  0
  3 25  1  0
  7 26  1  0
  8 27  1  0
  9 28  1  0
 13 29  1  0
 13 30  1  0
 14 31  1  0
 14 32  1  0
 16 33  1  0
 18 34  1  0
 18 35  1  0
 18 36  1  0
 21 37  1  0
M  ISO  8  24  14  25  14  26  14  27  14  28  14  29   8  30   8  31   8
M  ISO  6  32   8  33  14  34   8  35   8  36   8  37   9
M  END
>  <minimizedAffinity>  (1) 
-5.54441595

>  <minimizedRMSD>  (1) 
1.31865346

$$$$
