
     RDKit          3D

 34 36  0  0  0  0  0  0  0  0999 V2000
   37.1660   21.8760   35.0390 C   0  0  0  0  0  0  0  0  0  0  0  0
   36.1850   20.9000   35.2720 C   0  0  0  0  0  0  0  0  0  0  0  0
   35.4940   20.4780   34.1590 C   0  0  0  0  0  0  0  0  0  0  0  0
   35.7090   20.9410   32.9200 N   0  0  0  0  0  0  0  0  0  0  0  0
   36.6840   21.9020   32.7330 C   0  0  0  0  0  0  0  0  0  0  0  0
   37.3800   22.3340   33.8120 N   0  0  0  0  0  0  0  0  0  0  0  0
   39.9930   22.6100   37.2530 C   0  0  0  0  0  0  0  0  0  0  0  0
   39.3610   23.3140   38.3330 C   0  0  0  0  0  0  0  0  0  0  0  0
   37.9930   23.5000   38.2430 C   0  0  0  0  0  0  0  0  0  0  0  0
   37.3030   23.0250   37.1660 N   0  0  0  0  0  0  0  0  0  0  0  0
   37.9340   22.3660   36.1670 C   0  0  0  0  0  0  0  0  0  0  0  0
   39.2400   22.1840   36.2450 N   0  0  0  0  0  0  0  0  0  0  0  0
   36.9540   22.4420   31.3700 C   0  0  0  0  0  0  0  0  0  0  0  0
   35.8870   23.4770   31.0410 C   0  0  0  0  0  0  0  0  0  0  0  0
   36.4020   24.8460   31.0870 C   0  0  0  0  0  0  0  0  0  0  0  0
   37.7580   25.0980   31.0690 C   0  0  0  0  0  0  0  0  0  0  0  0
   38.1550   26.4190   31.1160 C   0  0  0  0  0  0  0  0  0  0  0  0
   37.3010   27.4880   31.1790 C   0  0  0  0  0  0  0  0  0  0  0  0
   35.9490   27.1720   31.1940 C   0  0  0  0  0  0  0  0  0  0  0  0
   35.4630   25.8800   31.1500 C   0  0  0  0  0  0  0  0  0  0  0  0
   35.9820   20.4994   36.2761 H   0  0  0  0  0  0  0  0  0  0  0  0
   34.7161   19.7123   34.2951 H   0  0  0  0  0  0  0  0  0  0  0  0
   41.0777   22.4273   37.2601 H   0  0  0  0  0  0  0  0  0  0  0  0
   39.9376   23.6880   39.1919 H   0  0  0  0  0  0  0  0  0  0  0  0
   37.4592   24.0333   39.0434 H   0  0  0  0  0  0  0  0  0  0  0  0
   37.9477   22.9133   31.3476 H   0  0  0  0  0  0  0  0  0  0  0  0
   36.9307   21.6281   30.6304 H   0  0  0  0  0  0  0  0  0  0  0  0
   35.0681   23.3834   31.7694 H   0  0  0  0  0  0  0  0  0  0  0  0
   35.5394   23.2847   30.0152 H   0  0  0  0  0  0  0  0  0  0  0  0
   38.4922   24.2804   31.0193 H   0  0  0  0  0  0  0  0  0  0  0  0
   39.2348   26.6284   31.1018 H   0  0  0  0  0  0  0  0  0  0  0  0
   37.6618   28.5265   31.2153 H   0  0  0  0  0  0  0  0  0  0  0  0
   35.2238   27.9976   31.2438 H   0  0  0  0  0  0  0  0  0  0  0  0
   34.3827   25.6732   31.1639 H   0  0  0  0  0  0  0  0  0  0  0  0
  1  2  2  0
  1 11  1  0
  3  2  1  0
  4  3  2  0
  5  4  1  0
  5  6  2  0
  6  1  1  0
  7  8  2  0
  9  8  1  0
 10  9  2  0
 11 12  2  0
 11 10  1  0
 12  7  1  0
 13  5  1  0
 14 15  1  0
 14 13  1  0
 15 20  1  0
 16 15  2  0
 16 17  1  0
 17 18  2  0
 18 19  1  0
 20 19  2  0
  2 21  1  0
  3 22  1  0
  7 23  1  0
  8 24  1  0
  9 25  1  0
 13 26  1  0
 13 27  1  0
 14 28  1  0
 14 29  1  0
 16 30  1  0
 17 31  1  0
 18 32  1  0
 19 33  1  0
 20 34  1  0
M  ISO  8  21  14  22  14  23  14  24  14  25  14  26   8  27   8  28   8
M  ISO  6  29   8  30  14  31  14  32  14  33  14  34  14
M  END
>  <minimizedAffinity>  (1) 
-5.13934231

>  <minimizedRMSD>  (1) 
1.20454705

$$$$
