
     RDKit          3D

 37 40  0  0  0  0  0  0  0  0999 V2000
   38.3590   21.1020   31.5050 C   0  0  0  0  0  0  0  0  0  0  0  0
   37.4100   21.7130   35.0470 C   0  0  0  0  0  0  0  0  0  0  0  0
   36.1290   21.1690   35.1260 C   0  0  0  0  0  0  0  0  0  0  0  0
   35.6340   20.6140   33.9710 C   0  0  0  0  0  0  0  0  0  0  0  0
   36.3370   20.5860   32.8090 N   0  0  0  0  0  0  0  0  0  0  0  0
   37.6010   21.1360   32.7740 C   0  0  0  0  0  0  0  0  0  0  0  0
   38.0970   21.6840   33.9070 N   0  0  0  0  0  0  0  0  0  0  0  0
   39.8510   22.7970   37.5550 C   0  0  0  0  0  0  0  0  0  0  0  0
   39.0420   23.4800   38.5150 C   0  0  0  0  0  0  0  0  0  0  0  0
   37.6750   23.5330   38.2460 C   0  0  0  0  0  0  0  0  0  0  0  0
   37.1800   22.9520   37.1160 N   0  0  0  0  0  0  0  0  0  0  0  0
   37.9900   22.3160   36.2370 C   0  0  0  0  0  0  0  0  0  0  0  0
   39.3010   22.2530   36.4750 N   0  0  0  0  0  0  0  0  0  0  0  0
   37.6620   22.0130   30.5000 C   0  0  0  0  0  0  0  0  0  0  0  0
   37.9700   23.3920   30.7970 N   0  0  0  0  0  0  0  0  0  0  0  0
   39.1770   23.9670   30.9730 C   0  0  0  0  0  0  0  0  0  0  0  0
   38.9410   25.2790   31.2290 N   0  0  0  0  0  0  0  0  0  0  0  0
   37.6130   25.5230   31.2130 C   0  0  0  0  0  0  0  0  0  0  0  0
   36.9240   26.6970   31.4190 C   0  0  0  0  0  0  0  0  0  0  0  0
   35.5720   26.6220   31.3370 N   0  0  0  0  0  0  0  0  0  0  0  0
   34.9670   25.4320   31.0640 C   0  0  0  0  0  0  0  0  0  0  0  0
   35.6340   24.2730   30.8610 N   0  0  0  0  0  0  0  0  0  0  0  0
   36.9870   24.3240   30.9380 C   0  0  0  0  0  0  0  0  0  0  0  0
   37.5700   27.9340   31.7030 N   0  0  0  0  0  0  0  0  0  0  0  0
   39.3861   21.4563   31.6768 H   0  0  0  0  0  0  0  0  0  0  0  0
   38.3983   20.0734   31.1171 H   0  0  0  0  0  0  0  0  0  0  0  0
   35.5478   21.1833   36.0598 H   0  0  0  0  0  0  0  0  0  0  0  0
   34.6261   20.1738   33.9878 H   0  0  0  0  0  0  0  0  0  0  0  0
   40.9372   22.7212   37.7115 H   0  0  0  0  0  0  0  0  0  0  0  0
   39.4741   23.9387   39.4166 H   0  0  0  0  0  0  0  0  0  0  0  0
   36.9961   24.0433   38.9450 H   0  0  0  0  0  0  0  0  0  0  0  0
   36.5744   21.8601   30.5610 H   0  0  0  0  0  0  0  0  0  0  0  0
   38.0129   21.7719   29.4857 H   0  0  0  0  0  0  0  0  0  0  0  0
   40.1576   23.4715   30.9197 H   0  0  0  0  0  0  0  0  0  0  0  0
   33.8687   25.4127   31.0051 H   0  0  0  0  0  0  0  0  0  0  0  0
   37.0098   28.7858   31.8495 H   0  0  0  0  0  0  0  0  0  0  0  0
   38.5974   27.9768   31.7619 H   0  0  0  0  0  0  0  0  0  0  0  0
  1  6  1  0
  2  3  2  0
  2 12  1  0
  4  3  1  0
  5  4  2  0
  6  5  1  0
  6  7  2  0
  7  2  1  0
  8  9  2  0
 10  9  1  0
 11 10  2  0
 12 13  2  0
 12 11  1  0
 13  8  1  0
 14 15  1  0
 14  1  1  0
 15 23  1  0
 15 16  1  0
 16 17  2  0
 18 17  1  0
 18 19  2  0
 19 24  1  0
 20 19  1  0
 21 20  2  0
 22 23  2  0
 22 21  1  0
 23 18  1  0
  1 25  1  0
  1 26  1  0
  3 27  1  0
  4 28  1  0
  8 29  1  0
  9 30  1  0
 10 31  1  0
 14 32  1  0
 14 33  1  0
 16 34  1  0
 21 35  1  0
 24 36  1  0
 24 37  1  0
M  ISO  8  25   8  26   8  27  14  28  14  29  14  30  14  31  14  32   8
M  ISO  3  33   8  34  14  35  14
M  END
>  <minimizedAffinity>  (1) 
-5.30379868

>  <minimizedRMSD>  (1) 
1.88678706

$$$$
