
     RDKit          3D

 31 33  0  0  0  0  0  0  0  0999 V2000
   37.2160   21.8550   35.1970 C   0  0  0  0  0  0  0  0  0  0  0  0
   36.2000   20.9270   35.4680 C   0  0  0  0  0  0  0  0  0  0  0  0
   35.5010   20.4730   34.3690 C   0  0  0  0  0  0  0  0  0  0  0  0
   35.7650   20.8830   33.1070 N   0  0  0  0  0  0  0  0  0  0  0  0
   36.7630   21.7870   32.8860 C   0  0  0  0  0  0  0  0  0  0  0  0
   37.4800   22.2650   33.9450 N   0  0  0  0  0  0  0  0  0  0  0  0
   40.0540   22.6390   37.3820 C   0  0  0  0  0  0  0  0  0  0  0  0
   39.4480   23.3810   38.4330 C   0  0  0  0  0  0  0  0  0  0  0  0
   38.0800   23.5800   38.3380 C   0  0  0  0  0  0  0  0  0  0  0  0
   37.3750   23.0760   37.2810 N   0  0  0  0  0  0  0  0  0  0  0  0
   37.9930   22.3770   36.3080 C   0  0  0  0  0  0  0  0  0  0  0  0
   39.3020   22.1840   36.3930 N   0  0  0  0  0  0  0  0  0  0  0  0
   37.0560   22.2390   31.5150 C   0  0  0  0  0  0  0  0  0  0  0  0
   35.8320   22.9200   30.9250 C   0  0  0  0  0  0  0  0  0  0  0  0
   35.4660   24.1760   31.6280 C   0  0  0  0  0  0  0  0  0  0  0  0
   34.7880   25.2280   30.7570 C   0  0  0  0  0  0  0  0  0  0  0  0
   36.2050   25.4170   31.1840 C   0  0  0  0  0  0  0  0  0  0  0  0
   35.9756   20.5841   36.4888 H   0  0  0  0  0  0  0  0  0  0  0  0
   34.6920   19.7443   34.5258 H   0  0  0  0  0  0  0  0  0  0  0  0
   41.1368   22.4453   37.3912 H   0  0  0  0  0  0  0  0  0  0  0  0
   40.0338   23.7758   39.2762 H   0  0  0  0  0  0  0  0  0  0  0  0
   37.5565   24.1489   39.1205 H   0  0  0  0  0  0  0  0  0  0  0  0
   37.8949   22.9502   31.5364 H   0  0  0  0  0  0  0  0  0  0  0  0
   37.3225   21.3702   30.8952 H   0  0  0  0  0  0  0  0  0  0  0  0
   36.0377   23.1566   29.8706 H   0  0  0  0  0  0  0  0  0  0  0  0
   34.9863   22.2252   31.0350 H   0  0  0  0  0  0  0  0  0  0  0  0
   35.2559   23.6953   32.5948 H   0  0  0  0  0  0  0  0  0  0  0  0
   33.9969   25.8648   31.1796 H   0  0  0  0  0  0  0  0  0  0  0  0
   34.2625   25.2158   29.7907 H   0  0  0  0  0  0  0  0  0  0  0  0
   37.0149   25.3362   30.4440 H   0  0  0  0  0  0  0  0  0  0  0  0
   36.7543   26.2156   31.7040 H   0  0  0  0  0  0  0  0  0  0  0  0
  1  2  2  0
  1 11  1  0
  3  2  1  0
  4  3  2  0
  5  4  1  0
  5  6  2  0
  6  1  1  0
  7  8  2  0
  9  8  1  0
 10  9  2  0
 11 12  2  0
 11 10  1  0
 12  7  1  0
 13  5  1  0
 14 13  1  0
 14 15  1  0
 16 17  1  0
 16 15  1  0
 17 15  1  0
  2 18  1  0
  3 19  1  0
  7 20  1  0
  8 21  1  0
  9 22  1  0
 13 23  1  0
 13 24  1  0
 14 25  1  0
 14 26  1  0
 15 27  1  0
 16 28  1  0
 16 29  1  0
 17 30  1  0
 17 31  1  0
M  ISO  8  18  14  19  14  20  14  21  14  22  14  23   8  24   8  25   8
M  ISO  6  26   8  27  13  28  13  29  13  30  13  31  13
M  END
>  <minimizedAffinity>  (1) 
-4.61977291

>  <minimizedRMSD>  (1) 
0.99265784

$$$$
