
     RDKit          3D

 31 32  0  0  0  0  0  0  0  0999 V2000
   38.3730   23.9460   34.5810 C   0  0  0  0  0  0  0  0  0  0  0  0
   37.7770   22.9340   33.8330 C   0  0  0  0  0  0  0  0  0  0  0  0
   37.6300   23.1790   32.4870 C   0  0  0  0  0  0  0  0  0  0  0  0
   38.0280   24.3190   31.9030 N   0  0  0  0  0  0  0  0  0  0  0  0
   38.6100   25.2980   32.6610 C   0  0  0  0  0  0  0  0  0  0  0  0
   38.7680   25.0800   34.0000 N   0  0  0  0  0  0  0  0  0  0  0  0
   39.7320   22.7960   37.7830 C   0  0  0  0  0  0  0  0  0  0  0  0
   38.8770   23.4010   38.7380 C   0  0  0  0  0  0  0  0  0  0  0  0
   37.8500   24.1940   38.2310 C   0  0  0  0  0  0  0  0  0  0  0  0
   37.7230   24.3440   36.8680 N   0  0  0  0  0  0  0  0  0  0  0  0
   38.5570   23.7520   36.0050 C   0  0  0  0  0  0  0  0  0  0  0  0
   39.5440   22.9890   36.4840 N   0  0  0  0  0  0  0  0  0  0  0  0
   39.0640   26.5770   32.0460 C   0  0  0  0  0  0  0  0  0  0  0  0
   37.9870   27.6300   32.2530 C   0  0  0  0  0  0  0  0  0  0  0  0
   36.6760   27.0540   32.1560 N   0  0  0  0  0  0  0  0  0  0  0  0
   36.1410   26.9080   30.8240 C   0  0  0  0  0  0  0  0  0  0  0  0
   36.4130   27.7440   29.8720 N   0  0  0  0  0  0  0  0  0  0  0  0
   35.2770   25.8690   30.3910 N   0  0  0  0  0  0  0  0  0  0  0  0
   37.0310   28.5640   30.0220 H   0  0  0  0  0  0  0  0  0  0  0  0
   37.4426   21.9920   34.2921 H   0  0  0  0  0  0  0  0  0  0  0  0
   37.1644   22.4038   31.8607 H   0  0  0  0  0  0  0  0  0  0  0  0
   40.5615   22.1587   38.1231 H   0  0  0  0  0  0  0  0  0  0  0  0
   39.0166   23.2526   39.8190 H   0  0  0  0  0  0  0  0  0  0  0  0
   37.1473   24.6955   38.9128 H   0  0  0  0  0  0  0  0  0  0  0  0
   39.2346   26.4294   30.9694 H   0  0  0  0  0  0  0  0  0  0  0  0
   40.0027   26.9052   32.5163 H   0  0  0  0  0  0  0  0  0  0  0  0
   38.1096   28.0782   33.2500 H   0  0  0  0  0  0  0  0  0  0  0  0
   38.0913   28.3952   31.4697 H   0  0  0  0  0  0  0  0  0  0  0  0
   36.1471   26.7614   32.9900 H   0  0  0  0  0  0  0  0  0  0  0  0
   34.9451   25.8479   29.4162 H   0  0  0  0  0  0  0  0  0  0  0  0
   34.9817   25.1359   31.0515 H   0  0  0  0  0  0  0  0  0  0  0  0
  1 11  1  0
  2  1  2  0
  3  2  1  0
  4  3  2  0
  4  5  1  0
  5  6  2  0
  6  1  1  0
  7  8  2  0
  9  8  1  0
 10  9  2  0
 11 12  2  0
 11 10  1  0
 12  7  1  0
 13 14  1  0
 13  5  1  0
 15 14  1  0
 16 15  1  0
 17 19  1  0
 17 16  2  0
 18 16  1  0
  2 20  1  0
  3 21  1  0
  7 22  1  0
  8 23  1  0
  9 24  1  0
 13 25  1  0
 13 26  1  0
 14 27  1  0
 14 28  1  0
 15 29  1  0
 18 30  1  0
 18 31  1  0
M  ISO  8  20  14  21  14  22  14  23  14  24  14  25   8  26   8  27   8
M  ISO  1  28   8
M  END
>  <minimizedAffinity>  (1) 
-4.72799158

>  <minimizedRMSD>  (1) 
3.08719277

$$$$
