
     RDKit          3D

 25 26  0  0  0  0  0  0  0  0999 V2000
   37.1990   21.9230   35.0310 C   0  0  0  0  0  0  0  0  0  0  0  0
   36.2350   20.9300   35.2380 C   0  0  0  0  0  0  0  0  0  0  0  0
   35.5360   20.5300   34.1200 C   0  0  0  0  0  0  0  0  0  0  0  0
   35.7440   21.0410   32.8980 N   0  0  0  0  0  0  0  0  0  0  0  0
   36.7040   22.0200   32.7390 C   0  0  0  0  0  0  0  0  0  0  0  0
   37.4090   22.4350   33.8250 N   0  0  0  0  0  0  0  0  0  0  0  0
   40.0140   22.5960   37.2790 C   0  0  0  0  0  0  0  0  0  0  0  0
   39.3880   23.2850   38.3710 C   0  0  0  0  0  0  0  0  0  0  0  0
   38.0070   23.4880   38.2800 C   0  0  0  0  0  0  0  0  0  0  0  0
   37.3340   23.0290   37.1770 N   0  0  0  0  0  0  0  0  0  0  0  0
   37.9670   22.3860   36.1740 C   0  0  0  0  0  0  0  0  0  0  0  0
   39.2730   22.1890   36.2510 N   0  0  0  0  0  0  0  0  0  0  0  0
   36.9490   22.6000   31.3910 C   0  0  0  0  0  0  0  0  0  0  0  0
   35.7940   23.5350   31.0560 C   0  0  0  0  0  0  0  0  0  0  0  0
   36.1800   25.2120   31.5740 S   0  0  0  0  0  0  0  0  0  0  0  0
   36.0470   20.4959   36.2311 H   0  0  0  0  0  0  0  0  0  0  0  0
   34.7677   19.7513   34.2360 H   0  0  0  0  0  0  0  0  0  0  0  0
   41.0974   22.4058   37.2914 H   0  0  0  0  0  0  0  0  0  0  0  0
   39.9664   23.6367   39.2381 H   0  0  0  0  0  0  0  0  0  0  0  0
   37.4672   24.0098   39.0839 H   0  0  0  0  0  0  0  0  0  0  0  0
   37.8942   23.1627   31.3943 H   0  0  0  0  0  0  0  0  0  0  0  0
   37.0183   21.7989   30.6404 H   0  0  0  0  0  0  0  0  0  0  0  0
   35.6194   23.5216   29.9700 H   0  0  0  0  0  0  0  0  0  0  0  0
   34.8924   23.1948   31.5865 H   0  0  0  0  0  0  0  0  0  0  0  0
   36.1946   25.2753   32.9425 H   0  0  0  0  0  0  0  0  0  0  0  0
  1  2  2  0
  1 11  1  0
  3  2  1  0
  4  3  2  0
  5  4  1  0
  5  6  2  0
  6  1  1  0
  7  8  2  0
  9  8  1  0
 10  9  2  0
 11 12  2  0
 11 10  1  0
 12  7  1  0
 13  5  1  0
 14 13  1  0
 14 15  1  0
  2 16  1  0
  3 17  1  0
  7 18  1  0
  8 19  1  0
  9 20  1  0
 13 21  1  0
 13 22  1  0
 14 23  1  0
 14 24  1  0
 15 25  1  0
M  ISO  8  16  14  17  14  18  14  19  14  20  14  21   8  22   8  23   8
M  ISO  2  24   8  25  11
M  END
>  <minimizedAffinity>  (1) 
-4.10536337

>  <minimizedRMSD>  (1) 
0.266458869

$$$$
