
     RDKit          3D

 37 40  0  0  0  0  0  0  0  0999 V2000
   36.9220   22.7610   31.1110 C   0  0  0  0  0  0  0  0  0  0  0  0
   37.2010   21.9360   34.7260 C   0  0  0  0  0  0  0  0  0  0  0  0
   36.2310   20.9370   34.9110 C   0  0  0  0  0  0  0  0  0  0  0  0
   35.5180   20.5860   33.7830 C   0  0  0  0  0  0  0  0  0  0  0  0
   35.7040   21.1330   32.5780 N   0  0  0  0  0  0  0  0  0  0  0  0
   36.6650   22.1100   32.4330 C   0  0  0  0  0  0  0  0  0  0  0  0
   37.3950   22.4880   33.5280 N   0  0  0  0  0  0  0  0  0  0  0  0
   40.0350   22.4410   36.9940 C   0  0  0  0  0  0  0  0  0  0  0  0
   39.4390   23.1480   38.0840 C   0  0  0  0  0  0  0  0  0  0  0  0
   38.0780   23.4210   37.9880 C   0  0  0  0  0  0  0  0  0  0  0  0
   37.3990   23.0050   36.8760 N   0  0  0  0  0  0  0  0  0  0  0  0
   37.9830   22.3470   35.8750 C   0  0  0  0  0  0  0  0  0  0  0  0
   39.2660   22.0900   35.9680 N   0  0  0  0  0  0  0  0  0  0  0  0
   36.1180   24.0410   31.0570 C   0  0  0  0  0  0  0  0  0  0  0  0
   37.0230   25.1300   30.8210 N   0  0  0  0  0  0  0  0  0  0  0  0
   36.8750   27.7570   34.6840 N   0  0  0  0  0  0  0  0  0  0  0  0
   37.3140   26.4920   34.9360 C   0  0  0  0  0  0  0  0  0  0  0  0
   37.3340   25.7910   33.7880 N   0  0  0  0  0  0  0  0  0  0  0  0
   36.9090   26.5950   32.7960 C   0  0  0  0  0  0  0  0  0  0  0  0
   36.7370   26.3800   31.4250 C   0  0  0  0  0  0  0  0  0  0  0  0
   36.2840   27.4360   30.7240 N   0  0  0  0  0  0  0  0  0  0  0  0
   36.0110   28.6210   31.2890 C   0  0  0  0  0  0  0  0  0  0  0  0
   36.1720   28.8480   32.6090 N   0  0  0  0  0  0  0  0  0  0  0  0
   36.6220   27.8320   33.3710 C   0  0  0  0  0  0  0  0  0  0  0  0
   37.9934   22.9884   31.0087 H   0  0  0  0  0  0  0  0  0  0  0  0
   36.6280   22.0898   30.2906 H   0  0  0  0  0  0  0  0  0  0  0  0
   36.0519   20.4663   35.8890 H   0  0  0  0  0  0  0  0  0  0  0  0
   34.7479   19.8068   33.8819 H   0  0  0  0  0  0  0  0  0  0  0  0
   41.1066   22.1928   37.0039 H   0  0  0  0  0  0  0  0  0  0  0  0
   40.0288   23.4616   38.9580 H   0  0  0  0  0  0  0  0  0  0  0  0
   37.5574   23.9618   38.7921 H   0  0  0  0  0  0  0  0  0  0  0  0
   35.3826   23.9846   30.2409 H   0  0  0  0  0  0  0  0  0  0  0  0
   35.5807   24.1923   32.0049 H   0  0  0  0  0  0  0  0  0  0  0  0
   37.8569   25.0065   30.2292 H   0  0  0  0  0  0  0  0  0  0  0  0
   36.7595   28.5133   35.3736 H   0  0  0  0  0  0  0  0  0  0  0  0
   37.6062   26.1047   35.9232 H   0  0  0  0  0  0  0  0  0  0  0  0
   35.6420   29.4386   30.6523 H   0  0  0  0  0  0  0  0  0  0  0  0
  1  6  1  0
  2  3  2  0
  2 12  1  0
  4  3  1  0
  5  4  2  0
  6  5  1  0
  6  7  2  0
  7  2  1  0
  8  9  2  0
 10  9  1  0
 11 10  2  0
 12 13  2  0
 12 11  1  0
 13  8  1  0
 14  1  1  0
 15 14  1  0
 15 20  1  0
 16 17  1  0
 18 17  2  0
 19 24  2  0
 19 18  1  0
 20 19  1  0
 21 22  1  0
 21 20  2  0
 22 23  2  0
 23 24  1  0
 24 16  1  0
  1 25  1  0
  1 26  1  0
  3 27  1  0
  4 28  1  0
  8 29  1  0
  9 30  1  0
 10 31  1  0
 14 32  1  0
 14 33  1  0
 15 34  1  0
 16 35  1  0
 17 36  1  0
 22 37  1  0
M  ISO  8  25   8  26   8  27  14  28  14  29  14  30  14  31  14  32   8
M  ISO  4  33   8  35   9  36  14  37  14
M  END
>  <minimizedAffinity>  (1) 
-5.71615839

>  <minimizedRMSD>  (1) 
1.46684587

$$$$
