
     RDKit          3D

 36 38  0  0  0  0  0  0  0  0999 V2000
   37.2120   21.9520   34.7660 C   0  0  0  0  0  0  0  0  0  0  0  0
   36.2560   20.9280   34.9320 C   0  0  0  0  0  0  0  0  0  0  0  0
   35.5400   20.5910   33.8050 C   0  0  0  0  0  0  0  0  0  0  0  0
   35.7060   21.1690   32.6170 N   0  0  0  0  0  0  0  0  0  0  0  0
   36.6490   22.1680   32.4860 C   0  0  0  0  0  0  0  0  0  0  0  0
   37.3860   22.5380   33.5770 N   0  0  0  0  0  0  0  0  0  0  0  0
   40.0320   22.4640   37.0340 C   0  0  0  0  0  0  0  0  0  0  0  0
   39.4450   23.1350   38.1310 C   0  0  0  0  0  0  0  0  0  0  0  0
   38.0790   23.3910   38.0490 C   0  0  0  0  0  0  0  0  0  0  0  0
   37.4090   22.9790   36.9250 N   0  0  0  0  0  0  0  0  0  0  0  0
   37.9970   22.3500   35.9130 C   0  0  0  0  0  0  0  0  0  0  0  0
   39.2820   22.1080   35.9890 N   0  0  0  0  0  0  0  0  0  0  0  0
   36.8740   22.8490   31.1730 C   0  0  0  0  0  0  0  0  0  0  0  0
   35.8620   23.9800   31.0470 C   0  0  0  0  0  0  0  0  0  0  0  0
   36.6040   25.1900   30.8310 N   0  0  0  0  0  0  0  0  0  0  0  0
   36.5590   26.2130   31.8450 C   0  0  0  0  0  0  0  0  0  0  0  0
   35.8520   27.3700   31.5860 C   0  0  0  0  0  0  0  0  0  0  0  0
   35.7580   28.4060   32.5120 C   0  0  0  0  0  0  0  0  0  0  0  0
   36.4000   28.2670   33.7360 C   0  0  0  0  0  0  0  0  0  0  0  0
   37.1050   27.0870   33.9680 C   0  0  0  0  0  0  0  0  0  0  0  0
   37.2030   26.0570   33.0560 C   0  0  0  0  0  0  0  0  0  0  0  0
   36.0930   20.4307   35.8995 H   0  0  0  0  0  0  0  0  0  0  0  0
   34.7849   19.7958   33.8915 H   0  0  0  0  0  0  0  0  0  0  0  0
   41.1079   22.2351   37.0416 H   0  0  0  0  0  0  0  0  0  0  0  0
   40.0380   23.4397   39.0059 H   0  0  0  0  0  0  0  0  0  0  0  0
   37.5514   23.9094   38.8632 H   0  0  0  0  0  0  0  0  0  0  0  0
   37.8951   23.2563   31.1344 H   0  0  0  0  0  0  0  0  0  0  0  0
   36.7507   22.1335   30.3466 H   0  0  0  0  0  0  0  0  0  0  0  0
   35.1907   23.7923   30.1960 H   0  0  0  0  0  0  0  0  0  0  0  0
   35.2457   24.0561   31.9549 H   0  0  0  0  0  0  0  0  0  0  0  0
   37.1555   25.3237   29.9715 H   0  0  0  0  0  0  0  0  0  0  0  0
   35.3457   27.4773   30.6154 H   0  0  0  0  0  0  0  0  0  0  0  0
   35.1866   29.3165   32.2787 H   0  0  0  0  0  0  0  0  0  0  0  0
   36.3537   29.0608   34.4961 H   0  0  0  0  0  0  0  0  0  0  0  0
   37.6136   26.9704   34.9364 H   0  0  0  0  0  0  0  0  0  0  0  0
   37.7734   25.1448   33.2852 H   0  0  0  0  0  0  0  0  0  0  0  0
  1  2  2  0
  1 11  1  0
  3  2  1  0
  4  3  2  0
  5  4  1  0
  5  6  2  0
  6  1  1  0
  7  8  2  0
  9  8  1  0
 10  9  2  0
 11 12  2  0
 11 10  1  0
 12  7  1  0
 13  5  1  0
 14 13  1  0
 15 14  1  0
 15 16  1  0
 16 21  1  0
 17 16  2  0
 17 18  1  0
 18 19  2  0
 19 20  1  0
 21 20  2  0
  2 22  1  0
  3 23  1  0
  7 24  1  0
  8 25  1  0
  9 26  1  0
 13 27  1  0
 13 28  1  0
 14 29  1  0
 14 30  1  0
 15 31  1  0
 17 32  1  0
 18 33  1  0
 19 34  1  0
 20 35  1  0
 21 36  1  0
M  ISO  8  22  14  23  14  24  14  25  14  26  14  27   8  28   8  29   8
M  ISO  6  30   8  32  14  33  14  34  14  35  14  36  14
M  END
>  <minimizedAffinity>  (1) 
-5.33223963

>  <minimizedRMSD>  (1) 
1.82530284

$$$$
