
     RDKit          3D

 38 40  0  0  1  0  0  0  0  0999 V2000
   37.1770   21.8950   34.8570 C   0  0  0  0  0  0  0  0  0  0  0  0
   36.1830   20.9190   35.0340 C   0  0  0  0  0  0  0  0  0  0  0  0
   35.5190   20.5250   33.8960 C   0  0  0  0  0  0  0  0  0  0  0  0
   35.7800   21.0190   32.6900 N   0  0  0  0  0  0  0  0  0  0  0  0
   36.7550   21.9730   32.5360 C   0  0  0  0  0  0  0  0  0  0  0  0
   37.4410   22.3930   33.6530 N   0  0  0  0  0  0  0  0  0  0  0  0
   39.9210   22.5960   37.1890 C   0  0  0  0  0  0  0  0  0  0  0  0
   39.2690   23.2450   38.2610 C   0  0  0  0  0  0  0  0  0  0  0  0
   37.8920   23.4190   38.1400 C   0  0  0  0  0  0  0  0  0  0  0  0
   37.2550   22.9640   37.0170 N   0  0  0  0  0  0  0  0  0  0  0  0
   37.9140   22.3520   36.0200 C   0  0  0  0  0  0  0  0  0  0  0  0
   39.2070   22.1910   36.1390 N   0  0  0  0  0  0  0  0  0  0  0  0
   37.0940   22.5660   31.2090 C   0  0  0  0  0  0  0  0  0  0  0  0
   36.2930   23.8660   31.0540 C   0  0  0  0  0  0  0  0  0  0  0  0
   37.2110   24.8010   30.4460 N   0  0  0  0  0  0  0  0  0  0  0  0
   36.1060   26.9580   30.4300 N   0  0  0  0  0  0  0  0  0  0  0  0
   36.1320   28.1130   31.3100 C   0  0  0  0  0  0  0  0  0  0  0  0
   36.6880   27.6660   32.6390 C   0  0  0  0  0  0  0  0  0  0  0  0
   36.7830   26.1460   32.4540 C   0  0  0  0  0  0  0  0  0  0  0  0
   37.1270   26.1230   30.9790 C   0  0  1  0  0  0  0  0  0  0  0  0
   35.9498   20.4957   36.0221 H   0  0  0  0  0  0  0  0  0  0  0  0
   34.7318   19.7622   33.9885 H   0  0  0  0  0  0  0  0  0  0  0  0
   41.0074   22.4265   37.2205 H   0  0  0  0  0  0  0  0  0  0  0  0
   39.8203   23.5951   39.1461 H   0  0  0  0  0  0  0  0  0  0  0  0
   37.3225   23.9169   38.9386 H   0  0  0  0  0  0  0  0  0  0  0  0
   38.1713   22.7830   31.1610 H   0  0  0  0  0  0  0  0  0  0  0  0
   36.8438   21.8634   30.4005 H   0  0  0  0  0  0  0  0  0  0  0  0
   35.4184   23.7063   30.4062 H   0  0  0  0  0  0  0  0  0  0  0  0
   35.9088   24.2318   32.0176 H   0  0  0  0  0  0  0  0  0  0  0  0
   38.1701   24.4538   30.5893 H   0  0  0  0  0  0  0  0  0  0  0  0
   36.3261   27.2250   29.4599 H   0  0  0  0  0  0  0  0  0  0  0  0
   36.7732   28.8967   30.8804 H   0  0  0  0  0  0  0  0  0  0  0  0
   35.1195   28.5242   31.4352 H   0  0  0  0  0  0  0  0  0  0  0  0
   37.6778   28.1079   32.8265 H   0  0  0  0  0  0  0  0  0  0  0  0
   36.0738   27.9691   33.4998 H   0  0  0  0  0  0  0  0  0  0  0  0
   37.5770   25.7017   33.0722 H   0  0  0  0  0  0  0  0  0  0  0  0
   35.8917   25.5716   32.7466 H   0  0  0  0  0  0  0  0  0  0  0  0
   38.1326   26.4945   30.7328 H   0  0  0  0  0  0  0  0  0  0  0  0
  1  2  2  0
  1 11  1  0
  3  2  1  0
  4  3  2  0
  5  4  1  0
  5  6  2  0
  6  1  1  0
  7  8  2  0
  9  8  1  0
 10  9  2  0
 11 12  2  0
 11 10  1  0
 12  7  1  0
 13  5  1  0
 14 13  1  0
 15 14  1  0
 16 20  1  0
 16 17  1  0
 17 18  1  0
 19 18  1  0
 20 15  1  0
 20 19  1  0
  2 21  1  0
  3 22  1  0
  7 23  1  0
  8 24  1  0
  9 25  1  0
 13 26  1  0
 13 27  1  0
 14 28  1  0
 14 29  1  0
 15 30  1  0
 16 31  1  0
 17 32  1  0
 17 33  1  0
 18 34  1  0
 18 35  1  0
 19 36  1  0
 19 37  1  0
 20 38  1  1
M  ISO  8  21  14  22  14  23  14  24  14  25  14  26   8  27   8  28   8
M  ISO  8  29   8  30   5  31   5  32  13  33  13  34  13  35  13  36  13
M  ISO  2  37  13  38  13
M  END
>  <minimizedAffinity>  (1) 
-5.19891596

>  <minimizedRMSD>  (1) 
0.733747244

$$$$
