
     RDKit          3D

 40 43  0  0  0  0  0  0  0  0999 V2000
   37.0950   22.3770   31.2090 C   0  0  0  0  0  0  0  0  0  0  0  0
   37.1610   21.8470   34.8880 C   0  0  0  0  0  0  0  0  0  0  0  0
   36.1380   20.8970   35.0940 C   0  0  0  0  0  0  0  0  0  0  0  0
   35.4720   20.4810   33.9620 C   0  0  0  0  0  0  0  0  0  0  0  0
   35.7470   20.9250   32.7340 N   0  0  0  0  0  0  0  0  0  0  0  0
   36.7530   21.8540   32.5580 C   0  0  0  0  0  0  0  0  0  0  0  0
   37.4300   22.2830   33.6630 N   0  0  0  0  0  0  0  0  0  0  0  0
   39.9080   22.5920   37.1770 C   0  0  0  0  0  0  0  0  0  0  0  0
   39.2600   23.2460   38.2670 C   0  0  0  0  0  0  0  0  0  0  0  0
   37.8780   23.3990   38.1550 C   0  0  0  0  0  0  0  0  0  0  0  0
   37.2410   22.9290   37.0390 N   0  0  0  0  0  0  0  0  0  0  0  0
   37.8940   22.3200   36.0380 C   0  0  0  0  0  0  0  0  0  0  0  0
   39.2020   22.1660   36.1280 N   0  0  0  0  0  0  0  0  0  0  0  0
   36.3110   23.6690   30.9850 C   0  0  0  0  0  0  0  0  0  0  0  0
   36.5150   24.5020   32.1390 N   0  0  0  0  0  0  0  0  0  0  0  0
   37.6780   25.3030   32.2050 C   0  0  0  0  0  0  0  0  0  0  0  0
   38.4250   25.5240   31.1080 N   0  0  0  0  0  0  0  0  0  0  0  0
   39.5300   26.2580   31.0690 C   0  0  0  0  0  0  0  0  0  0  0  0
   40.0110   26.8650   32.1780 N   0  0  0  0  0  0  0  0  0  0  0  0
   39.3210   26.6940   33.3220 C   0  0  0  0  0  0  0  0  0  0  0  0
   39.7320   27.2710   34.5080 C   0  0  0  0  0  0  0  0  0  0  0  0
   39.0480   27.1190   35.7160 C   0  0  0  0  0  0  0  0  0  0  0  0
   37.9020   26.3390   35.6760 C   0  0  0  0  0  0  0  0  0  0  0  0
   37.4830   25.7610   34.5140 C   0  0  0  0  0  0  0  0  0  0  0  0
   38.1760   25.9250   33.3330 C   0  0  0  0  0  0  0  0  0  0  0  0
   38.1743   22.5817   31.1516 H   0  0  0  0  0  0  0  0  0  0  0  0
   36.8360   21.6368   30.4376 H   0  0  0  0  0  0  0  0  0  0  0  0
   35.8884   20.5133   36.0942 H   0  0  0  0  0  0  0  0  0  0  0  0
   34.6671   19.7401   34.0771 H   0  0  0  0  0  0  0  0  0  0  0  0
   40.9969   22.4380   37.2016 H   0  0  0  0  0  0  0  0  0  0  0  0
   39.8171   23.6081   39.1436 H   0  0  0  0  0  0  0  0  0  0  0  0
   37.3065   23.8921   38.9552 H   0  0  0  0  0  0  0  0  0  0  0  0
   36.6784   24.1800   30.0829 H   0  0  0  0  0  0  0  0  0  0  0  0
   35.2412   23.4546   30.8453 H   0  0  0  0  0  0  0  0  0  0  0  0
   35.8258   24.5149   32.9043 H   0  0  0  0  0  0  0  0  0  0  0  0
   40.0656   26.3751   30.1154 H   0  0  0  0  0  0  0  0  0  0  0  0
   40.6464   27.8825   34.5004 H   0  0  0  0  0  0  0  0  0  0  0  0
   39.3981   27.5909   36.6459 H   0  0  0  0  0  0  0  0  0  0  0  0
   37.3211   26.1839   36.5972 H   0  0  0  0  0  0  0  0  0  0  0  0
   36.5693   25.1486   34.5189 H   0  0  0  0  0  0  0  0  0  0  0  0
  1  6  1  0
  2  3  2  0
  2 12  1  0
  4  3  1  0
  5  4  2  0
  6  5  1  0
  6  7  2  0
  7  2  1  0
  8  9  2  0
 10  9  1  0
 11 10  2  0
 12 13  2  0
 12 11  1  0
 13  8  1  0
 14  1  1  0
 14 15  1  0
 15 16  1  0
 16 25  1  0
 17 16  2  0
 18 17  1  0
 18 19  2  0
 19 20  1  0
 20 25  2  0
 20 21  1  0
 21 22  2  0
 23 22  1  0
 24 23  2  0
 25 24  1  0
  1 26  1  0
  1 27  1  0
  3 28  1  0
  4 29  1  0
  8 30  1  0
  9 31  1  0
 10 32  1  0
 14 33  1  0
 14 34  1  0
 15 35  1  0
 18 36  1  0
 21 37  1  0
 22 38  1  0
 23 39  1  0
 24 40  1  0
M  ISO  8  26   8  27   8  28  14  29  14  30  14  31  14  32  14  33   8
M  ISO  6  34   8  36  14  37  14  38  14  39  14  40  14
M  END
>  <minimizedAffinity>  (1) 
-6.03216457

>  <minimizedRMSD>  (1) 
4.11339283

$$$$
