
     RDKit          3D

 33 35  0  0  0  0  0  0  0  0999 V2000
   37.1860   21.9030   34.9520 C   0  0  0  0  0  0  0  0  0  0  0  0
   36.2040   20.9300   35.1410 C   0  0  0  0  0  0  0  0  0  0  0  0
   35.5220   20.5320   34.0130 C   0  0  0  0  0  0  0  0  0  0  0  0
   35.7610   21.0300   32.7900 N   0  0  0  0  0  0  0  0  0  0  0  0
   36.7300   21.9820   32.6390 C   0  0  0  0  0  0  0  0  0  0  0  0
   37.4260   22.4000   33.7360 N   0  0  0  0  0  0  0  0  0  0  0  0
   39.9720   22.5990   37.2360 C   0  0  0  0  0  0  0  0  0  0  0  0
   39.3270   23.2690   38.3140 C   0  0  0  0  0  0  0  0  0  0  0  0
   37.9480   23.4600   38.2170 C   0  0  0  0  0  0  0  0  0  0  0  0
   37.2990   22.9930   37.0960 N   0  0  0  0  0  0  0  0  0  0  0  0
   37.9450   22.3680   36.1070 C   0  0  0  0  0  0  0  0  0  0  0  0
   39.2470   22.1890   36.1990 N   0  0  0  0  0  0  0  0  0  0  0  0
   37.0350   22.5660   31.3030 C   0  0  0  0  0  0  0  0  0  0  0  0
   36.0370   23.7010   31.0410 C   0  0  0  0  0  0  0  0  0  0  0  0
   36.8010   24.8390   30.6170 N   0  0  0  0  0  0  0  0  0  0  0  0
   36.7990   26.0480   31.3820 C   0  0  0  0  0  0  0  0  0  0  0  0
   37.6810   26.7460   32.1830 C   0  0  0  0  0  0  0  0  0  0  0  0
   36.9700   27.8470   32.6080 C   0  0  0  0  0  0  0  0  0  0  0  0
   35.7280   27.8240   32.0970 N   0  0  0  0  0  0  0  0  0  0  0  0
   35.6120   26.7210   31.3400 N   0  0  0  0  0  0  0  0  0  0  0  0
   35.9874   20.5059   36.1326 H   0  0  0  0  0  0  0  0  0  0  0  0
   34.7402   19.7656   34.1200 H   0  0  0  0  0  0  0  0  0  0  0  0
   41.0575   22.4225   37.2605 H   0  0  0  0  0  0  0  0  0  0  0  0
   39.8931   23.6221   39.1886 H   0  0  0  0  0  0  0  0  0  0  0  0
   37.3927   23.9715   39.0170 H   0  0  0  0  0  0  0  0  0  0  0  0
   38.0611   22.9622   31.2946 H   0  0  0  0  0  0  0  0  0  0  0  0
   36.9508   21.7961   30.5219 H   0  0  0  0  0  0  0  0  0  0  0  0
   35.3279   23.4067   30.2532 H   0  0  0  0  0  0  0  0  0  0  0  0
   35.4570   23.9318   31.9467 H   0  0  0  0  0  0  0  0  0  0  0  0
   37.3573   24.7849   29.7519 H   0  0  0  0  0  0  0  0  0  0  0  0
   38.7204   26.4817   32.4275 H   0  0  0  0  0  0  0  0  0  0  0  0
   37.3630   28.6321   33.2706 H   0  0  0  0  0  0  0  0  0  0  0  0
   34.9939   28.5284   32.2575 H   0  0  0  0  0  0  0  0  0  0  0  0
  1  2  2  0
  1 11  1  0
  3  2  1  0
  4  3  2  0
  5  4  1  0
  5  6  2  0
  6  1  1  0
  7  8  2  0
  9  8  1  0
 10  9  2  0
 11 12  2  0
 11 10  1  0
 12  7  1  0
 13  5  1  0
 14 13  1  0
 15 14  1  0
 15 16  1  0
 16 17  1  0
 17 18  2  0
 19 18  1  0
 20 16  2  0
 20 19  1  0
  2 21  1  0
  3 22  1  0
  7 23  1  0
  8 24  1  0
  9 25  1  0
 13 26  1  0
 13 27  1  0
 14 28  1  0
 14 29  1  0
 15 30  1  0
 17 31  1  0
 18 32  1  0
 19 33  1  0
M  ISO  8  21  14  22  14  23  14  24  14  25  14  26   8  27   8  28   8
M  ISO  4  29   8  31  14  32  14  33   9
M  END
>  <minimizedAffinity>  (1) 
-5.18565845

>  <minimizedRMSD>  (1) 
1.17879474

$$$$
