
     RDKit          3D

 33 35  0  0  0  0  0  0  0  0999 V2000
   37.1910   21.9150   34.8100 C   0  0  0  0  0  0  0  0  0  0  0  0
   36.2390   20.9030   34.9960 C   0  0  0  0  0  0  0  0  0  0  0  0
   35.5230   20.5450   33.8780 C   0  0  0  0  0  0  0  0  0  0  0  0
   35.7090   21.1180   32.6800 N   0  0  0  0  0  0  0  0  0  0  0  0
   36.6530   22.1080   32.5350 C   0  0  0  0  0  0  0  0  0  0  0  0
   37.3790   22.4830   33.6280 N   0  0  0  0  0  0  0  0  0  0  0  0
   40.0180   22.5030   37.0750 C   0  0  0  0  0  0  0  0  0  0  0  0
   39.4230   23.1710   38.1710 C   0  0  0  0  0  0  0  0  0  0  0  0
   38.0500   23.4010   38.0900 C   0  0  0  0  0  0  0  0  0  0  0  0
   37.3720   22.9730   36.9800 N   0  0  0  0  0  0  0  0  0  0  0  0
   37.9850   22.3390   35.9600 C   0  0  0  0  0  0  0  0  0  0  0  0
   39.2750   22.1250   36.0370 N   0  0  0  0  0  0  0  0  0  0  0  0
   36.8800   22.7630   31.2110 C   0  0  0  0  0  0  0  0  0  0  0  0
   35.8210   23.8320   31.0300 C   0  0  0  0  0  0  0  0  0  0  0  0
   36.4990   25.0540   30.7120 N   0  0  0  0  0  0  0  0  0  0  0  0
   36.4640   26.1120   31.5990 C   0  0  0  0  0  0  0  0  0  0  0  0
   35.8590   27.3210   31.4940 C   0  0  0  0  0  0  0  0  0  0  0  0
   35.9320   28.2590   32.4840 C   0  0  0  0  0  0  0  0  0  0  0  0
   36.7170   27.8360   33.6620 C   0  0  0  0  0  0  0  0  0  0  0  0
   37.2570   26.1190   33.1810 S   0  0  0  0  0  0  0  0  0  0  0  0
   36.0753   20.4259   35.9735 H   0  0  0  0  0  0  0  0  0  0  0  0
   34.7644   19.7539   33.9704 H   0  0  0  0  0  0  0  0  0  0  0  0
   41.0982   22.2952   37.0805 H   0  0  0  0  0  0  0  0  0  0  0  0
   40.0129   23.4924   39.0420 H   0  0  0  0  0  0  0  0  0  0  0  0
   37.5205   23.9176   38.9041 H   0  0  0  0  0  0  0  0  0  0  0  0
   37.8801   23.2204   31.1873 H   0  0  0  0  0  0  0  0  0  0  0  0
   36.8164   22.0209   30.4015 H   0  0  0  0  0  0  0  0  0  0  0  0
   35.1418   23.5541   30.2106 H   0  0  0  0  0  0  0  0  0  0  0  0
   35.2220   23.9458   31.9456 H   0  0  0  0  0  0  0  0  0  0  0  0
   37.0117   25.1430   29.8231 H   0  0  0  0  0  0  0  0  0  0  0  0
   35.2907   27.5539   30.5814 H   0  0  0  0  0  0  0  0  0  0  0  0
   35.4482   29.2442   32.4107 H   0  0  0  0  0  0  0  0  0  0  0  0
   36.9286   28.3927   34.5869 H   0  0  0  0  0  0  0  0  0  0  0  0
  1  2  2  0
  1 11  1  0
  3  2  1  0
  4  3  2  0
  5  4  1  0
  5  6  2  0
  6  1  1  0
  7  8  2  0
  9  8  1  0
 10  9  2  0
 11 12  2  0
 11 10  1  0
 12  7  1  0
 13  5  1  0
 14 13  1  0
 15 14  1  0
 15 16  1  0
 16 20  1  0
 17 16  2  0
 17 18  1  0
 18 19  2  0
 20 19  1  0
  2 21  1  0
  3 22  1  0
  7 23  1  0
  8 24  1  0
  9 25  1  0
 13 26  1  0
 13 27  1  0
 14 28  1  0
 14 29  1  0
 15 30  1  0
 17 31  1  0
 18 32  1  0
 19 33  1  0
M  ISO  8  21  14  22  14  23  14  24  14  25  14  26   8  27   8  28   8
M  ISO  4  29   8  31  14  32  14  33  14
M  END
>  <minimizedAffinity>  (1) 
-4.99557829

>  <minimizedRMSD>  (1) 
1.54131603

$$$$
