
     RDKit          3D

 34 36  0  0  0  0  0  0  0  0999 V2000
   37.1730   21.8870   34.9890 C   0  0  0  0  0  0  0  0  0  0  0  0
   36.1920   20.9050   35.1990 C   0  0  0  0  0  0  0  0  0  0  0  0
   35.4900   20.4890   34.0890 C   0  0  0  0  0  0  0  0  0  0  0  0
   35.7110   20.9780   32.8750 N   0  0  0  0  0  0  0  0  0  0  0  0
   36.6860   21.9500   32.6930 C   0  0  0  0  0  0  0  0  0  0  0  0
   37.3850   22.3680   33.7770 N   0  0  0  0  0  0  0  0  0  0  0  0
   39.9710   22.6080   37.2370 C   0  0  0  0  0  0  0  0  0  0  0  0
   39.3530   23.2810   38.3130 C   0  0  0  0  0  0  0  0  0  0  0  0
   37.9800   23.4650   38.2260 C   0  0  0  0  0  0  0  0  0  0  0  0
   37.3060   22.9960   37.1270 N   0  0  0  0  0  0  0  0  0  0  0  0
   37.9440   22.3600   36.1260 C   0  0  0  0  0  0  0  0  0  0  0  0
   39.2410   22.1850   36.2060 N   0  0  0  0  0  0  0  0  0  0  0  0
   36.9520   22.5120   31.3280 C   0  0  0  0  0  0  0  0  0  0  0  0
   35.8370   23.4960   31.0110 C   0  0  0  0  0  0  0  0  0  0  0  0
   36.4500   24.7660   30.7480 N   0  0  0  0  0  0  0  0  0  0  0  0
   37.1850   25.6200   31.6150 C   0  0  0  0  0  0  0  0  0  0  0  0
   38.2950   26.3430   31.2290 C   0  0  0  0  0  0  0  0  0  0  0  0
   39.0210   27.1640   32.0460 C   0  0  0  0  0  0  0  0  0  0  0  0
   38.6330   27.2850   33.3280 N   0  0  0  0  0  0  0  0  0  0  0  0
   37.5490   26.5790   33.7100 C   0  0  0  0  0  0  0  0  0  0  0  0
   36.8560   25.7820   32.8890 N   0  0  0  0  0  0  0  0  0  0  0  0
   35.9941   20.4893   36.1980 H   0  0  0  0  0  0  0  0  0  0  0  0
   34.7140   19.7195   34.2140 H   0  0  0  0  0  0  0  0  0  0  0  0
   41.0568   22.4326   37.2498 H   0  0  0  0  0  0  0  0  0  0  0  0
   39.9305   23.6415   39.1770 H   0  0  0  0  0  0  0  0  0  0  0  0
   37.4372   23.9822   39.0309 H   0  0  0  0  0  0  0  0  0  0  0  0
   37.9228   23.0291   31.3179 H   0  0  0  0  0  0  0  0  0  0  0  0
   36.9824   21.7078   30.5782 H   0  0  0  0  0  0  0  0  0  0  0  0
   35.2770   23.1581   30.1266 H   0  0  0  0  0  0  0  0  0  0  0  0
   35.1328   23.5706   31.8528 H   0  0  0  0  0  0  0  0  0  0  0  0
   36.3410   25.1119   29.7840 H   0  0  0  0  0  0  0  0  0  0  0  0
   38.6211   26.2516   30.1824 H   0  0  0  0  0  0  0  0  0  0  0  0
   39.8971   27.7098   31.6659 H   0  0  0  0  0  0  0  0  0  0  0  0
   37.2162   26.6633   34.7551 H   0  0  0  0  0  0  0  0  0  0  0  0
  1  2  2  0
  1 11  1  0
  3  2  1  0
  4  3  2  0
  5  4  1  0
  5  6  2  0
  6  1  1  0
  7  8  2  0
  9  8  1  0
 10  9  2  0
 11 12  2  0
 11 10  1  0
 12  7  1  0
 13  5  1  0
 14 13  1  0
 15 14  1  0
 15 16  1  0
 16 21  1  0
 17 16  2  0
 17 18  1  0
 18 19  2  0
 19 20  1  0
 21 20  2  0
  2 22  1  0
  3 23  1  0
  7 24  1  0
  8 25  1  0
  9 26  1  0
 13 27  1  0
 13 28  1  0
 14 29  1  0
 14 30  1  0
 15 31  1  0
 17 32  1  0
 18 33  1  0
 20 34  1  0
M  ISO  8  22  14  23  14  24  14  25  14  26  14  27   8  28   8  29   8
M  ISO  4  30   8  32  14  33  14  34  14
M  END
>  <minimizedAffinity>  (1) 
-4.92003775

>  <minimizedRMSD>  (1) 
2.99392223

$$$$
