
     RDKit          3D

 32 33  0  0  0  0  0  0  0  0999 V2000
   37.1900   21.9250   34.9990 C   0  0  0  0  0  0  0  0  0  0  0  0
   36.2100   20.9250   35.2120 C   0  0  0  0  0  0  0  0  0  0  0  0
   35.5170   20.5150   34.0950 C   0  0  0  0  0  0  0  0  0  0  0  0
   35.7370   21.0210   32.8650 N   0  0  0  0  0  0  0  0  0  0  0  0
   36.6920   21.9860   32.6910 C   0  0  0  0  0  0  0  0  0  0  0  0
   37.4070   22.4210   33.7770 N   0  0  0  0  0  0  0  0  0  0  0  0
   39.9820   22.6100   37.2570 C   0  0  0  0  0  0  0  0  0  0  0  0
   39.3590   23.2800   38.3350 C   0  0  0  0  0  0  0  0  0  0  0  0
   37.9780   23.4780   38.2460 C   0  0  0  0  0  0  0  0  0  0  0  0
   37.3370   23.0140   37.1400 N   0  0  0  0  0  0  0  0  0  0  0  0
   37.9490   22.3860   36.1400 C   0  0  0  0  0  0  0  0  0  0  0  0
   39.2620   22.1960   36.2210 N   0  0  0  0  0  0  0  0  0  0  0  0
   36.9640   22.5590   31.3420 C   0  0  0  0  0  0  0  0  0  0  0  0
   35.9190   23.5990   31.0360 C   0  0  0  0  0  0  0  0  0  0  0  0
   36.5740   24.8420   30.7190 N   0  0  0  0  0  0  0  0  0  0  0  0
   36.1500   25.9340   31.5820 C   0  0  0  0  0  0  0  0  0  0  0  0
   37.0260   25.9980   32.7970 C   0  0  0  0  0  0  0  0  0  0  0  0
   36.0145   20.5019   36.2084 H   0  0  0  0  0  0  0  0  0  0  0  0
   34.7474   19.7378   34.2119 H   0  0  0  0  0  0  0  0  0  0  0  0
   41.0672   22.4311   37.2767 H   0  0  0  0  0  0  0  0  0  0  0  0
   39.9350   23.6297   39.2045 H   0  0  0  0  0  0  0  0  0  0  0  0
   37.4266   23.9934   39.0462 H   0  0  0  0  0  0  0  0  0  0  0  0
   37.9613   23.0230   31.3318 H   0  0  0  0  0  0  0  0  0  0  0  0
   36.9310   21.7623   30.5843 H   0  0  0  0  0  0  0  0  0  0  0  0
   35.3132   23.2720   30.1781 H   0  0  0  0  0  0  0  0  0  0  0  0
   35.2638   23.7359   31.9089 H   0  0  0  0  0  0  0  0  0  0  0  0
   37.5908   24.7150   30.8232 H   0  0  0  0  0  0  0  0  0  0  0  0
   36.2223   26.8831   31.0306 H   0  0  0  0  0  0  0  0  0  0  0  0
   35.1097   25.7628   31.8958 H   0  0  0  0  0  0  0  0  0  0  0  0
   36.4020   25.9524   33.7017 H   0  0  0  0  0  0  0  0  0  0  0  0
   37.7248   25.1485   32.7904 H   0  0  0  0  0  0  0  0  0  0  0  0
   37.5939   26.9400   32.7904 H   0  0  0  0  0  0  0  0  0  0  0  0
  1  2  2  0
  1 11  1  0
  3  2  1  0
  4  3  2  0
  5  4  1  0
  5  6  2  0
  6  1  1  0
  7  8  2  0
  9  8  1  0
 10  9  2  0
 11 12  2  0
 11 10  1  0
 12  7  1  0
 13  5  1  0
 14 13  1  0
 15 14  1  0
 15 16  1  0
 16 17  1  0
  2 18  1  0
  3 19  1  0
  7 20  1  0
  8 21  1  0
  9 22  1  0
 13 23  1  0
 13 24  1  0
 14 25  1  0
 14 26  1  0
 15 27  1  0
 16 28  1  0
 16 29  1  0
 17 30  1  0
 17 31  1  0
 17 32  1  0
M  ISO  8  18  14  19  14  20  14  21  14  22  14  23   8  24   8  25   8
M  ISO  7  26   8  27   5  28   8  29   8  30   8  31   8  32   8
M  END
>  <minimizedAffinity>  (1) 
-4.32076693

>  <minimizedRMSD>  (1) 
1.12466896

$$$$
