
     RDKit          3D

 51 53  0  0  1  0  0  0  0  0999 V2000
   37.3590   22.2400   31.3950 C   0  0  0  0  0  0  0  0  0  0  0  0
   37.2680   21.9040   35.0890 C   0  0  0  0  0  0  0  0  0  0  0  0
   36.2070   20.9980   35.3160 C   0  0  0  0  0  0  0  0  0  0  0  0
   35.5700   20.5430   34.1830 C   0  0  0  0  0  0  0  0  0  0  0  0
   35.9160   20.9220   32.9310 N   0  0  0  0  0  0  0  0  0  0  0  0
   36.9470   21.7980   32.7530 C   0  0  0  0  0  0  0  0  0  0  0  0
   37.6090   22.2760   33.8530 N   0  0  0  0  0  0  0  0  0  0  0  0
   39.9570   22.6960   37.4560 C   0  0  0  0  0  0  0  0  0  0  0  0
   39.2720   23.4370   38.4580 C   0  0  0  0  0  0  0  0  0  0  0  0
   37.8840   23.6460   38.2880 C   0  0  0  0  0  0  0  0  0  0  0  0
   37.3150   23.1150   37.1680 N   0  0  0  0  0  0  0  0  0  0  0  0
   37.9840   22.4230   36.2420 C   0  0  0  0  0  0  0  0  0  0  0  0
   39.2620   22.2380   36.4130 N   0  0  0  0  0  0  0  0  0  0  0  0
   36.3420   23.2460   30.8890 C   0  0  0  0  0  0  0  0  0  0  0  0
   37.0630   24.4480   30.5750 N   0  0  0  0  0  0  0  0  0  0  0  0
   36.4510   25.6510   31.1290 C   0  0  1  0  0  0  0  0  0  0  0  0
   34.9640   25.5380   30.8590 C   0  0  0  0  0  0  0  0  0  0  0  0
   36.6630   25.6080   32.6250 C   0  0  0  0  0  0  0  0  0  0  0  0
   37.6900   26.6100   33.1010 C   0  0  0  0  0  0  0  0  0  0  0  0
   39.0370   26.0160   33.3470 C   0  0  0  0  0  0  0  0  0  0  0  0
   39.8370   26.9570   34.2250 C   0  0  0  0  0  0  0  0  0  0  0  0
   39.2710   27.0630   35.6190 C   0  0  0  0  0  0  0  0  0  0  0  0
   37.8190   26.6490   35.6060 C   0  0  0  0  0  0  0  0  0  0  0  0
   37.1660   27.2280   34.3730 C   0  0  0  0  0  0  0  0  0  0  0  0
   38.3530   22.7087   31.4426 H   0  0  0  0  0  0  0  0  0  0  0  0
   37.4067   21.3766   30.7151 H   0  0  0  0  0  0  0  0  0  0  0  0
   35.9111   20.6789   36.3263 H   0  0  0  0  0  0  0  0  0  0  0  0
   34.7368   19.8348   34.3020 H   0  0  0  0  0  0  0  0  0  0  0  0
   41.0370   22.5044   37.5390 H   0  0  0  0  0  0  0  0  0  0  0  0
   39.8038   23.8340   39.3353 H   0  0  0  0  0  0  0  0  0  0  0  0
   37.2916   24.2097   39.0237 H   0  0  0  0  0  0  0  0  0  0  0  0
   35.8426   22.8586   29.9887 H   0  0  0  0  0  0  0  0  0  0  0  0
   35.5683   23.4382   31.6469 H   0  0  0  0  0  0  0  0  0  0  0  0
   38.0179   24.3640   30.9518 H   0  0  0  0  0  0  0  0  0  0  0  0
   36.8700   26.5731   30.6997 H   0  0  0  0  0  0  0  0  0  0  0  0
   34.4200   25.4967   31.8142 H   0  0  0  0  0  0  0  0  0  0  0  0
   34.6283   26.4132   30.2834 H   0  0  0  0  0  0  0  0  0  0  0  0
   34.7644   24.6221   30.2834 H   0  0  0  0  0  0  0  0  0  0  0  0
   35.7055   25.8234   33.1218 H   0  0  0  0  0  0  0  0  0  0  0  0
   37.0376   24.6050   32.8773 H   0  0  0  0  0  0  0  0  0  0  0  0
   37.8326   27.3566   32.3058 H   0  0  0  0  0  0  0  0  0  0  0  0
   38.9255   25.0452   33.8521 H   0  0  0  0  0  0  0  0  0  0  0  0
   39.5582   25.8666   32.3899 H   0  0  0  0  0  0  0  0  0  0  0  0
   40.8705   26.5861   34.2906 H   0  0  0  0  0  0  0  0  0  0  0  0
   39.7960   27.9573   33.7693 H   0  0  0  0  0  0  0  0  0  0  0  0
   39.8344   26.4026   36.2946 H   0  0  0  0  0  0  0  0  0  0  0  0
   39.3526   28.1024   35.9696 H   0  0  0  0  0  0  0  0  0  0  0  0
   37.7463   25.5516   35.5837 H   0  0  0  0  0  0  0  0  0  0  0  0
   37.3134   27.0202   36.5096 H   0  0  0  0  0  0  0  0  0  0  0  0
   37.3599   28.3104   34.3458 H   0  0  0  0  0  0  0  0  0  0  0  0
   36.0888   27.0128   34.4315 H   0  0  0  0  0  0  0  0  0  0  0  0
  1  6  1  0
  2  3  2  0
  2 12  1  0
  4  3  1  0
  5  4  2  0
  6  5  1  0
  6  7  2  0
  7  2  1  0
  8  9  2  0
 10  9  1  0
 11 10  2  0
 12 13  2  0
 12 11  1  0
 13  8  1  0
 14  1  1  0
 15 14  1  0
 15 16  1  0
 16 18  1  0
 17 16  1  0
 18 19  1  0
 19 20  1  0
 19 24  1  0
 20 21  1  0
 21 22  1  0
 23 22  1  0
 24 23  1  0
  1 25  1  0
  1 26  1  0
  3 27  1  0
  4 28  1  0
  8 29  1  0
  9 30  1  0
 10 31  1  0
 14 32  1  0
 14 33  1  0
 15 34  1  0
 16 35  1  6
 17 36  1  0
 17 37  1  0
 17 38  1  0
 18 39  1  0
 18 40  1  0
 19 41  1  0
 20 42  1  0
 20 43  1  0
 21 44  1  0
 21 45  1  0
 22 46  1  0
 22 47  1  0
 23 48  1  0
 23 49  1  0
 24 50  1  0
 24 51  1  0
M  ISO  8  25   8  26   8  27  14  28  14  29  14  30  14  31  14  32   8
M  ISO  8  33   8  34   5  35   8  36   8  37   8  38   8  39   8  40   8
M  ISO  8  41  13  42  13  43  13  44  13  45  13  46  13  47  13  48  13
M  ISO  3  49  13  50  13  51  13
M  END
>  <minimizedAffinity>  (1) 
-5.7290287

>  <minimizedRMSD>  (1) 
1.54779947

$$$$
