
     RDKit          3D

 45 47  0  0  1  0  0  0  0  0999 V2000
   36.2970   23.3070   30.9030 C   0  0  0  0  0  0  0  0  0  0  0  0
   37.3570   22.3190   31.4070 C   0  0  0  0  0  0  0  0  0  0  0  0
   37.2620   21.9100   35.0980 C   0  0  0  0  0  0  0  0  0  0  0  0
   36.2120   20.9990   35.3030 C   0  0  0  0  0  0  0  0  0  0  0  0
   35.5700   20.5520   34.1650 C   0  0  0  0  0  0  0  0  0  0  0  0
   35.9120   20.9520   32.9330 N   0  0  0  0  0  0  0  0  0  0  0  0
   36.9460   21.8470   32.7630 C   0  0  0  0  0  0  0  0  0  0  0  0
   37.6000   22.3080   33.8680 N   0  0  0  0  0  0  0  0  0  0  0  0
   39.9640   22.6870   37.4500 C   0  0  0  0  0  0  0  0  0  0  0  0
   39.2690   23.3960   38.4840 C   0  0  0  0  0  0  0  0  0  0  0  0
   37.8830   23.5810   38.3270 C   0  0  0  0  0  0  0  0  0  0  0  0
   37.3070   23.0670   37.2000 N   0  0  0  0  0  0  0  0  0  0  0  0
   37.9720   22.4130   36.2550 C   0  0  0  0  0  0  0  0  0  0  0  0
   39.2600   22.2490   36.4160 N   0  0  0  0  0  0  0  0  0  0  0  0
   36.9820   24.5170   30.6080 N   0  0  0  0  0  0  0  0  0  0  0  0
   36.2620   25.7370   30.9540 C   0  0  1  0  0  0  0  0  0  0  0  0
   34.8060   25.3400   31.0390 C   0  0  0  0  0  0  0  0  0  0  0  0
   36.7440   26.1540   32.3110 C   0  0  0  0  0  0  0  0  0  0  0  0
   36.3710   27.4700   32.7170 N   0  0  0  0  0  0  0  0  0  0  0  0
   35.9320   28.4960   31.9740 C   0  0  0  0  0  0  0  0  0  0  0  0
   35.6010   29.7220   32.5010 C   0  0  0  0  0  0  0  0  0  0  0  0
   35.7030   29.9630   33.8470 C   0  0  0  0  0  0  0  0  0  0  0  0
   35.3870   31.1010   34.2680 O   0  0  0  0  0  0  0  0  0  0  0  0
   36.1390   28.9510   34.6030 N   0  0  0  0  0  0  0  0  0  0  0  0
   36.4530   27.7680   34.0470 C   0  0  0  0  0  0  0  0  0  0  0  0
   36.8580   26.8670   34.8550 O   0  0  0  0  0  0  0  0  0  0  0  0
   35.8115   22.9145   29.9973 H   0  0  0  0  0  0  0  0  0  0  0  0
   35.5120   23.4675   31.6567 H   0  0  0  0  0  0  0  0  0  0  0  0
   37.4254   21.4631   30.7194 H   0  0  0  0  0  0  0  0  0  0  0  0
   38.3407   22.8089   31.4566 H   0  0  0  0  0  0  0  0  0  0  0  0
   35.9193   20.6625   36.3085 H   0  0  0  0  0  0  0  0  0  0  0  0
   34.7418   19.8364   34.2749 H   0  0  0  0  0  0  0  0  0  0  0  0
   41.0482   22.5119   37.5128 H   0  0  0  0  0  0  0  0  0  0  0  0
   39.7995   23.7811   39.3673 H   0  0  0  0  0  0  0  0  0  0  0  0
   37.2878   24.1174   39.0807 H   0  0  0  0  0  0  0  0  0  0  0  0
   37.8720   24.5141   31.1264 H   0  0  0  0  0  0  0  0  0  0  0  0
   36.4094   26.5546   30.2330 H   0  0  0  0  0  0  0  0  0  0  0  0
   34.5091   25.2590   32.0951 H   0  0  0  0  0  0  0  0  0  0  0  0
   34.1884   26.1025   30.5419 H   0  0  0  0  0  0  0  0  0  0  0  0
   34.6609   24.3695   30.5419 H   0  0  0  0  0  0  0  0  0  0  0  0
   36.3390   25.4444   33.0475 H   0  0  0  0  0  0  0  0  0  0  0  0
   37.8425   26.1550   32.2545 H   0  0  0  0  0  0  0  0  0  0  0  0
   35.8316   28.3496   30.8884 H   0  0  0  0  0  0  0  0  0  0  0  0
   35.2490   30.5217   31.8327 H   0  0  0  0  0  0  0  0  0  0  0  0
   36.2353   29.0785   35.6205 H   0  0  0  0  0  0  0  0  0  0  0  0
  1  2  1  0
  2  7  1  0
  3  4  2  0
  3 13  1  0
  5  4  1  0
  6  5  2  0
  7  6  1  0
  7  8  2  0
  8  3  1  0
  9 10  2  0
 11 10  1  0
 12 11  2  0
 13 14  2  0
 13 12  1  0
 14  9  1  0
 15  1  1  0
 15 16  1  0
 16 17  1  0
 16 18  1  0
 18 19  1  0
 19 25  1  0
 20 21  2  0
 20 19  1  0
 21 22  1  0
 22 23  2  0
 22 24  1  0
 25 24  1  0
 25 26  2  0
  1 27  1  0
  1 28  1  0
  2 29  1  0
  2 30  1  0
  4 31  1  0
  5 32  1  0
  9 33  1  0
 10 34  1  0
 11 35  1  0
 15 36  1  0
 16 37  1  6
 17 38  1  0
 17 39  1  0
 17 40  1  0
 18 41  1  0
 18 42  1  0
 20 43  1  0
 21 44  1  0
 24 45  1  0
M  ISO  8  27   8  28   8  29   8  30   8  31  14  32  14  33  14  34  14
M  ISO  8  35  14  36   5  37   8  38   8  39   8  40   8  41   8  42   8
M  ISO  3  43  14  44  14  45   9
M  END
>  <minimizedAffinity>  (1) 
-5.57687235

>  <minimizedRMSD>  (1) 
0.933864892

$$$$
