
     RDKit          3D

 48 50  0  0  1  0  0  0  0  0999 V2000
   36.7970   22.8550   31.1750 C   0  0  0  0  0  0  0  0  0  0  0  0
   37.1860   21.9480   34.7600 C   0  0  0  0  0  0  0  0  0  0  0  0
   36.2520   20.9060   34.9270 C   0  0  0  0  0  0  0  0  0  0  0  0
   35.5250   20.5540   33.8100 C   0  0  0  0  0  0  0  0  0  0  0  0
   35.6870   21.1610   32.6170 N   0  0  0  0  0  0  0  0  0  0  0  0
   36.5970   22.1680   32.4790 C   0  0  0  0  0  0  0  0  0  0  0  0
   37.3410   22.5440   33.5770 N   0  0  0  0  0  0  0  0  0  0  0  0
   40.0310   22.4840   37.0030 C   0  0  0  0  0  0  0  0  0  0  0  0
   39.4410   23.1540   38.1060 C   0  0  0  0  0  0  0  0  0  0  0  0
   38.0500   23.4050   38.0340 C   0  0  0  0  0  0  0  0  0  0  0  0
   37.3860   22.9820   36.9120 N   0  0  0  0  0  0  0  0  0  0  0  0
   37.9740   22.3550   35.9000 C   0  0  0  0  0  0  0  0  0  0  0  0
   39.2520   22.1350   35.9840 N   0  0  0  0  0  0  0  0  0  0  0  0
   36.1530   24.2340   31.2600 C   0  0  0  0  0  0  0  0  0  0  0  0
   37.0160   25.1330   30.5540 N   0  0  0  0  0  0  0  0  0  0  0  0
   37.2900   26.3710   31.2480 C   0  0  1  0  0  0  0  0  0  0  0  0
   36.2980   27.3850   30.7130 C   0  0  0  0  0  0  0  0  0  0  0  0
   36.9630   26.1270   32.7110 C   0  0  0  0  0  0  0  0  0  0  0  0
   37.7700   27.0350   33.6260 C   0  0  0  0  0  0  0  0  0  0  0  0
   37.1680   27.0940   35.0110 C   0  0  0  0  0  0  0  0  0  0  0  0
   38.2190   26.5520   35.9570 C   0  0  0  0  0  0  0  0  0  0  0  0
   39.4890   27.0190   35.2370 C   0  0  0  0  0  0  0  0  0  0  0  0
   39.1640   26.5490   33.8320 C   0  0  0  0  0  0  0  0  0  0  0  0
   36.3244   22.2722   30.3706 H   0  0  0  0  0  0  0  0  0  0  0  0
   37.8708   22.9498   30.9560 H   0  0  0  0  0  0  0  0  0  0  0  0
   36.1110   20.4018   35.8944 H   0  0  0  0  0  0  0  0  0  0  0  0
   34.7834   19.7460   33.8953 H   0  0  0  0  0  0  0  0  0  0  0  0
   41.1076   22.2587   36.9915 H   0  0  0  0  0  0  0  0  0  0  0  0
   40.0373   23.4640   38.9768 H   0  0  0  0  0  0  0  0  0  0  0  0
   37.5210   23.9208   38.8489 H   0  0  0  0  0  0  0  0  0  0  0  0
   35.1576   24.2175   30.7921 H   0  0  0  0  0  0  0  0  0  0  0  0
   36.0240   24.5477   32.3064 H   0  0  0  0  0  0  0  0  0  0  0  0
   36.5742   25.3610   29.6519 H   0  0  0  0  0  0  0  0  0  0  0  0
   38.3279   26.7123   31.1204 H   0  0  0  0  0  0  0  0  0  0  0  0
   35.8022   27.8918   31.5540 H   0  0  0  0  0  0  0  0  0  0  0  0
   36.8281   28.1275   30.0984 H   0  0  0  0  0  0  0  0  0  0  0  0
   35.5440   26.8714   30.0984 H   0  0  0  0  0  0  0  0  0  0  0  0
   35.8919   26.3177   32.8736 H   0  0  0  0  0  0  0  0  0  0  0  0
   37.2181   25.0841   32.9504 H   0  0  0  0  0  0  0  0  0  0  0  0
   37.7631   28.0140   33.1244 H   0  0  0  0  0  0  0  0  0  0  0  0
   36.9189   28.1327   35.2737 H   0  0  0  0  0  0  0  0  0  0  0  0
   36.2394   26.5070   35.0677 H   0  0  0  0  0  0  0  0  0  0  0  0
   38.1323   26.9941   36.9605 H   0  0  0  0  0  0  0  0  0  0  0  0
   38.1623   25.4692   36.1423 H   0  0  0  0  0  0  0  0  0  0  0  0
   39.6115   28.1110   35.2868 H   0  0  0  0  0  0  0  0  0  0  0  0
   40.4323   26.6360   35.6535 H   0  0  0  0  0  0  0  0  0  0  0  0
   39.2143   25.4524   33.7611 H   0  0  0  0  0  0  0  0  0  0  0  0
   39.8690   26.9259   33.0764 H   0  0  0  0  0  0  0  0  0  0  0  0
  1 14  1  0
  1  6  1  0
  2  3  2  0
  2 12  1  0
  4  3  1  0
  5  4  2  0
  6  5  1  0
  6  7  2  0
  7  2  1  0
  8  9  2  0
 10  9  1  0
 11 10  2  0
 12 13  2  0
 12 11  1  0
 13  8  1  0
 15 16  1  0
 15 14  1  0
 16 18  1  0
 17 16  1  0
 18 19  1  0
 19 23  1  0
 19 20  1  0
 20 21  1  0
 22 21  1  0
 23 22  1  0
  1 24  1  0
  1 25  1  0
  3 26  1  0
  4 27  1  0
  8 28  1  0
  9 29  1  0
 10 30  1  0
 14 31  1  0
 14 32  1  0
 15 33  1  0
 16 34  1  1
 17 35  1  0
 17 36  1  0
 17 37  1  0
 18 38  1  0
 18 39  1  0
 19 40  1  0
 20 41  1  0
 20 42  1  0
 21 43  1  0
 21 44  1  0
 22 45  1  0
 22 46  1  0
 23 47  1  0
 23 48  1  0
M  ISO  8  24   8  25   8  26  14  27  14  28  14  29  14  30  14  31   8
M  ISO  8  32   8  33   5  34   8  35   8  36   8  37   8  38   8  39   8
M  ISO  8  40  13  41  13  42  13  43  13  44  13  45  13  46  13  47  13
M  ISO  1  48  13
M  END
>  <minimizedAffinity>  (1) 
-5.52964783

>  <minimizedRMSD>  (1) 
1.46594477

$$$$
