
     RDKit          3D

 43 45  0  0  1  0  0  0  0  0999 V2000
   36.1000   23.3940   30.9840 C   0  0  0  0  0  0  0  0  0  0  0  0
   37.1660   22.3770   31.4010 C   0  0  0  0  0  0  0  0  0  0  0  0
   37.2220   21.8960   35.0920 C   0  0  0  0  0  0  0  0  0  0  0  0
   36.1990   20.9510   35.3090 C   0  0  0  0  0  0  0  0  0  0  0  0
   35.5330   20.5150   34.1860 C   0  0  0  0  0  0  0  0  0  0  0  0
   35.8180   20.9500   32.9350 N   0  0  0  0  0  0  0  0  0  0  0  0
   36.8190   21.8730   32.7580 C   0  0  0  0  0  0  0  0  0  0  0  0
   37.5110   22.3330   33.8570 N   0  0  0  0  0  0  0  0  0  0  0  0
   39.9540   22.6610   37.3880 C   0  0  0  0  0  0  0  0  0  0  0  0
   39.3100   23.3610   38.4360 C   0  0  0  0  0  0  0  0  0  0  0  0
   37.9260   23.5480   38.3120 C   0  0  0  0  0  0  0  0  0  0  0  0
   37.3100   23.0460   37.1990 N   0  0  0  0  0  0  0  0  0  0  0  0
   37.9560   22.3900   36.2300 C   0  0  0  0  0  0  0  0  0  0  0  0
   39.2530   22.2170   36.3520 N   0  0  0  0  0  0  0  0  0  0  0  0
   36.7960   24.6060   30.6880 N   0  0  0  0  0  0  0  0  0  0  0  0
   35.9840   25.8000   30.7040 C   0  0  1  0  0  0  0  0  0  0  0  0
   34.5430   25.3050   30.8930 C   0  0  0  0  0  0  0  0  0  0  0  0
   36.3180   26.5830   31.9550 C   0  0  0  0  0  0  0  0  0  0  0  0
   35.9130   28.0100   31.7230 C   0  0  0  0  0  0  0  0  0  0  0  0
   36.5830   28.7050   30.7370 C   0  0  0  0  0  0  0  0  0  0  0  0
   36.2120   30.0110   30.5260 C   0  0  0  0  0  0  0  0  0  0  0  0
   35.2370   30.5550   31.2630 N   0  0  0  0  0  0  0  0  0  0  0  0
   34.5810   29.8990   32.2170 C   0  0  0  0  0  0  0  0  0  0  0  0
   34.9420   28.6200   32.4280 N   0  0  0  0  0  0  0  0  0  0  0  0
   35.5608   23.0373   30.0940 H   0  0  0  0  0  0  0  0  0  0  0  0
   35.3571   23.5441   31.7812 H   0  0  0  0  0  0  0  0  0  0  0  0
   37.1837   21.5411   30.6861 H   0  0  0  0  0  0  0  0  0  0  0  0
   38.1593   22.8494   31.4125 H   0  0  0  0  0  0  0  0  0  0  0  0
   35.9480   20.5840   36.3151 H   0  0  0  0  0  0  0  0  0  0  0  0
   34.7282   19.7756   34.3107 H   0  0  0  0  0  0  0  0  0  0  0  0
   41.0388   22.4843   37.4322 H   0  0  0  0  0  0  0  0  0  0  0  0
   39.8679   23.7397   39.3051 H   0  0  0  0  0  0  0  0  0  0  0  0
   37.3539   24.0815   39.0853 H   0  0  0  0  0  0  0  0  0  0  0  0
   37.2102   24.5147   29.7494 H   0  0  0  0  0  0  0  0  0  0  0  0
   36.1338   26.4084   29.7999 H   0  0  0  0  0  0  0  0  0  0  0  0
   34.3196   25.2283   31.9673 H   0  0  0  0  0  0  0  0  0  0  0  0
   33.8467   26.0155   30.4235 H   0  0  0  0  0  0  0  0  0  0  0  0
   34.4303   24.3166   30.4235 H   0  0  0  0  0  0  0  0  0  0  0  0
   35.7658   26.1717   32.8128 H   0  0  0  0  0  0  0  0  0  0  0  0
   37.3942   26.5189   32.1734 H   0  0  0  0  0  0  0  0  0  0  0  0
   37.3808   28.2331   30.1447 H   0  0  0  0  0  0  0  0  0  0  0  0
   36.7160   30.6085   29.7521 H   0  0  0  0  0  0  0  0  0  0  0  0
   33.7835   30.3783   32.8038 H   0  0  0  0  0  0  0  0  0  0  0  0
  1  2  1  0
  2  7  1  0
  3  4  2  0
  3 13  1  0
  5  4  1  0
  6  5  2  0
  7  6  1  0
  7  8  2  0
  8  3  1  0
  9 10  2  0
 11 10  1  0
 12 11  2  0
 13 14  2  0
 13 12  1  0
 14  9  1  0
 15 16  1  0
 15  1  1  0
 16 17  1  0
 16 18  1  0
 19 18  1  0
 19 24  1  0
 20 19  2  0
 21 20  1  0
 21 22  2  0
 22 23  1  0
 23 24  2  0
  1 25  1  0
  1 26  1  0
  2 27  1  0
  2 28  1  0
  4 29  1  0
  5 30  1  0
  9 31  1  0
 10 32  1  0
 11 33  1  0
 15 34  1  0
 16 35  1  6
 17 36  1  0
 17 37  1  0
 17 38  1  0
 18 39  1  0
 18 40  1  0
 20 41  1  0
 21 42  1  0
 23 43  1  0
M  ISO  8  25   8  26   8  27   8  28   8  29  14  30  14  31  14  32  14
M  ISO  8  33  14  34   5  35   8  36   8  37   8  38   8  39   8  40   8
M  ISO  3  41  14  42  14  43  14
M  END
>  <minimizedAffinity>  (1) 
-5.25854588

>  <minimizedRMSD>  (1) 
1.27623141

$$$$
