
     RDKit          3D

 44 46  0  0  1  0  0  0  0  0999 V2000
   36.2420   23.4510   30.9550 C   0  0  0  0  0  0  0  0  0  0  0  0
   37.2550   22.3770   31.3710 C   0  0  0  0  0  0  0  0  0  0  0  0
   37.2350   21.9120   35.0540 C   0  0  0  0  0  0  0  0  0  0  0  0
   36.1950   20.9790   35.2640 C   0  0  0  0  0  0  0  0  0  0  0  0
   35.5510   20.5570   34.1220 C   0  0  0  0  0  0  0  0  0  0  0  0
   35.8620   20.9770   32.8900 N   0  0  0  0  0  0  0  0  0  0  0  0
   36.8830   21.8900   32.7180 C   0  0  0  0  0  0  0  0  0  0  0  0
   37.5470   22.3330   33.8350 N   0  0  0  0  0  0  0  0  0  0  0  0
   39.9530   22.6590   37.3960 C   0  0  0  0  0  0  0  0  0  0  0  0
   39.2940   23.3520   38.4410 C   0  0  0  0  0  0  0  0  0  0  0  0
   37.9010   23.5440   38.2980 C   0  0  0  0  0  0  0  0  0  0  0  0
   37.3060   23.0490   37.1730 N   0  0  0  0  0  0  0  0  0  0  0  0
   37.9570   22.4010   36.2130 C   0  0  0  0  0  0  0  0  0  0  0  0
   39.2540   22.2280   36.3550 N   0  0  0  0  0  0  0  0  0  0  0  0
   36.9750   24.6340   30.6450 N   0  0  0  0  0  0  0  0  0  0  0  0
   36.3050   25.8660   30.9540 C   0  0  1  0  0  0  0  0  0  0  0  0
   34.8190   25.4980   31.0760 C   0  0  0  0  0  0  0  0  0  0  0  0
   36.7420   26.3090   32.3440 C   0  0  0  0  0  0  0  0  0  0  0  0
   36.3420   27.7100   32.6200 C   0  0  0  0  0  0  0  0  0  0  0  0
   36.2390   28.0670   33.9580 C   0  0  0  0  0  0  0  0  0  0  0  0
   35.8780   29.3310   34.3610 C   0  0  0  0  0  0  0  0  0  0  0  0
   35.6170   30.2500   33.3700 C   0  0  0  0  0  0  0  0  0  0  0  0
   35.7220   29.8840   32.0240 C   0  0  0  0  0  0  0  0  0  0  0  0
   36.0780   28.6370   31.6550 N   0  0  0  0  0  0  0  0  0  0  0  0
   35.6799   23.1150   30.0712 H   0  0  0  0  0  0  0  0  0  0  0  0
   35.5239   23.6414   31.7663 H   0  0  0  0  0  0  0  0  0  0  0  0
   37.2304   21.5436   30.6535 H   0  0  0  0  0  0  0  0  0  0  0  0
   38.2713   22.7975   31.3855 H   0  0  0  0  0  0  0  0  0  0  0  0
   35.9200   20.6165   36.2655 H   0  0  0  0  0  0  0  0  0  0  0  0
   34.7316   19.8310   34.2290 H   0  0  0  0  0  0  0  0  0  0  0  0
   41.0370   22.4797   37.4478 H   0  0  0  0  0  0  0  0  0  0  0  0
   39.8399   23.7227   39.3211 H   0  0  0  0  0  0  0  0  0  0  0  0
   37.3171   24.0732   39.0655 H   0  0  0  0  0  0  0  0  0  0  0  0
   37.1797   24.6269   29.6356 H   0  0  0  0  0  0  0  0  0  0  0  0
   36.5115   26.6442   30.2045 H   0  0  0  0  0  0  0  0  0  0  0  0
   34.5442   25.4299   32.1389 H   0  0  0  0  0  0  0  0  0  0  0  0
   34.2083   26.2720   30.5882 H   0  0  0  0  0  0  0  0  0  0  0  0
   34.6401   24.5284   30.5882 H   0  0  0  0  0  0  0  0  0  0  0  0
   36.2759   25.6505   33.0918 H   0  0  0  0  0  0  0  0  0  0  0  0
   37.8390   26.2472   32.3964 H   0  0  0  0  0  0  0  0  0  0  0  0
   36.4546   27.3090   34.7254 H   0  0  0  0  0  0  0  0  0  0  0  0
   35.8013   29.5956   35.4259 H   0  0  0  0  0  0  0  0  0  0  0  0
   35.3247   31.2762   33.6376 H   0  0  0  0  0  0  0  0  0  0  0  0
   35.5087   30.6326   31.2468 H   0  0  0  0  0  0  0  0  0  0  0  0
  1  2  1  0
  2  7  1  0
  3  4  2  0
  3 13  1  0
  5  4  1  0
  6  5  2  0
  7  6  1  0
  7  8  2  0
  8  3  1  0
  9 10  2  0
 11 10  1  0
 12 11  2  0
 13 14  2  0
 13 12  1  0
 14  9  1  0
 15 16  1  0
 15  1  1  0
 16 17  1  0
 16 18  1  0
 18 19  1  0
 19 20  2  0
 20 21  1  0
 22 21  2  0
 23 22  1  0
 24 23  2  0
 24 19  1  0
  1 25  1  0
  1 26  1  0
  2 27  1  0
  2 28  1  0
  4 29  1  0
  5 30  1  0
  9 31  1  0
 10 32  1  0
 11 33  1  0
 15 34  1  0
 16 35  1  6
 17 36  1  0
 17 37  1  0
 17 38  1  0
 18 39  1  0
 18 40  1  0
 20 41  1  0
 21 42  1  0
 22 43  1  0
 23 44  1  0
M  ISO  8  25   8  26   8  27   8  28   8  29  14  30  14  31  14  32  14
M  ISO  8  33  14  34   5  35   8  36   8  37   8  38   8  39   8  40   8
M  ISO  4  41  14  42  14  43  14  44  14
M  END
>  <minimizedAffinity>  (1) 
-5.40281296

>  <minimizedRMSD>  (1) 
0.754507899

$$$$
