
     RDKit          3D

 42 43  0  0  1  0  0  0  0  0999 V2000
   36.3190   23.3990   30.9510 C   0  0  0  0  0  0  0  0  0  0  0  0
   37.2180   22.2330   31.3380 C   0  0  0  0  0  0  0  0  0  0  0  0
   37.2160   21.8490   35.0360 C   0  0  0  0  0  0  0  0  0  0  0  0
   36.1560   20.9360   35.2610 C   0  0  0  0  0  0  0  0  0  0  0  0
   35.4920   20.4960   34.1380 C   0  0  0  0  0  0  0  0  0  0  0  0
   35.8080   20.8900   32.8940 N   0  0  0  0  0  0  0  0  0  0  0  0
   36.8280   21.7680   32.6950 C   0  0  0  0  0  0  0  0  0  0  0  0
   37.5120   22.2270   33.7940 N   0  0  0  0  0  0  0  0  0  0  0  0
   39.9720   22.6370   37.3040 C   0  0  0  0  0  0  0  0  0  0  0  0
   39.3260   23.3260   38.3580 C   0  0  0  0  0  0  0  0  0  0  0  0
   37.9430   23.4950   38.2450 C   0  0  0  0  0  0  0  0  0  0  0  0
   37.3230   22.9880   37.1400 N   0  0  0  0  0  0  0  0  0  0  0  0
   37.9500   22.3490   36.1680 C   0  0  0  0  0  0  0  0  0  0  0  0
   39.2350   22.2040   36.2960 N   0  0  0  0  0  0  0  0  0  0  0  0
   37.1800   24.5140   30.6430 N   0  0  0  0  0  0  0  0  0  0  0  0
   36.7610   25.7620   31.2630 C   0  0  1  0  0  0  0  0  0  0  0  0
   35.2680   25.8960   30.9770 C   0  0  0  0  0  0  0  0  0  0  0  0
   36.9210   25.5930   32.7490 C   0  0  0  0  0  0  0  0  0  0  0  0
   37.9880   26.3780   33.3240 N   0  0  0  0  0  0  0  0  0  0  0  0
   37.7590   27.2050   34.4830 C   0  0  0  0  0  0  0  0  0  0  0  0
   36.6270   27.8010   34.5890 N   0  0  0  0  0  0  0  0  0  0  0  0
   38.7340   27.3830   35.5090 N   0  0  0  0  0  0  0  0  0  0  0  0
   36.4460   28.4000   35.4190 H   0  0  0  0  0  0  0  0  0  0  0  0
   35.7153   23.1340   30.0705 H   0  0  0  0  0  0  0  0  0  0  0  0
   35.6300   23.6510   31.7706 H   0  0  0  0  0  0  0  0  0  0  0  0
   37.0946   21.4132   30.6150 H   0  0  0  0  0  0  0  0  0  0  0  0
   38.2708   22.5517   31.3365 H   0  0  0  0  0  0  0  0  0  0  0  0
   35.8804   20.5993   36.2713 H   0  0  0  0  0  0  0  0  0  0  0  0
   34.6613   19.7864   34.2664 H   0  0  0  0  0  0  0  0  0  0  0  0
   41.0585   22.4664   37.3232 H   0  0  0  0  0  0  0  0  0  0  0  0
   39.8851   23.7099   39.2241 H   0  0  0  0  0  0  0  0  0  0  0  0
   37.3713   24.0211   39.0237 H   0  0  0  0  0  0  0  0  0  0  0  0
   38.1310   24.2911   30.9699 H   0  0  0  0  0  0  0  0  0  0  0  0
   37.3334   26.6267   30.8960 H   0  0  0  0  0  0  0  0  0  0  0  0
   34.7157   25.9456   31.9270 H   0  0  0  0  0  0  0  0  0  0  0  0
   35.0864   26.8141   30.3989 H   0  0  0  0  0  0  0  0  0  0  0  0
   34.9258   25.0250   30.3989 H   0  0  0  0  0  0  0  0  0  0  0  0
   35.9778   25.8866   33.2328 H   0  0  0  0  0  0  0  0  0  0  0  0
   37.1783   24.5374   32.9205 H   0  0  0  0  0  0  0  0  0  0  0  0
   38.9262   26.3468   32.9002 H   0  0  0  0  0  0  0  0  0  0  0  0
   38.5253   27.9839   36.3191 H   0  0  0  0  0  0  0  0  0  0  0  0
   39.6467   26.9106   35.4397 H   0  0  0  0  0  0  0  0  0  0  0  0
  1  2  1  0
  2  7  1  0
  3  4  2  0
  3 13  1  0
  5  4  1  0
  6  5  2  0
  7  6  1  0
  7  8  2  0
  8  3  1  0
  9 10  2  0
 11 10  1  0
 12 11  2  0
 13 14  2  0
 13 12  1  0
 14  9  1  0
 15  1  1  0
 15 16  1  0
 16 18  1  0
 17 16  1  0
 18 19  1  0
 19 20  1  0
 20 21  2  0
 20 22  1  0
 21 23  1  0
  1 24  1  0
  1 25  1  0
  2 26  1  0
  2 27  1  0
  4 28  1  0
  5 29  1  0
  9 30  1  0
 10 31  1  0
 11 32  1  0
 15 33  1  0
 16 34  1  6
 17 35  1  0
 17 36  1  0
 17 37  1  0
 18 38  1  0
 18 39  1  0
 19 40  1  0
 22 41  1  0
 22 42  1  0
M  ISO  8  24   8  25   8  26   8  27   8  28  14  29  14  30  14  31  14
M  ISO  8  32  14  33   5  34   8  35   8  36   8  37   8  38   8  39   8
M  END
>  <minimizedAffinity>  (1) 
-4.97045565

>  <minimizedRMSD>  (1) 
1.38011193

$$$$
