
     RDKit          3D

 42 44  0  0  1  0  0  0  0  0999 V2000
   36.1330   23.4320   30.9800 C   0  0  0  0  0  0  0  0  0  0  0  0
   37.1810   22.4050   31.3860 C   0  0  0  0  0  0  0  0  0  0  0  0
   37.2270   21.9020   35.0710 C   0  0  0  0  0  0  0  0  0  0  0  0
   36.1990   20.9530   35.2820 C   0  0  0  0  0  0  0  0  0  0  0  0
   35.5360   20.5290   34.1550 C   0  0  0  0  0  0  0  0  0  0  0  0
   35.8290   20.9720   32.9230 N   0  0  0  0  0  0  0  0  0  0  0  0
   36.8280   21.8910   32.7420 C   0  0  0  0  0  0  0  0  0  0  0  0
   37.5090   22.3340   33.8460 N   0  0  0  0  0  0  0  0  0  0  0  0
   39.9680   22.6470   37.3770 C   0  0  0  0  0  0  0  0  0  0  0  0
   39.3120   23.3430   38.4290 C   0  0  0  0  0  0  0  0  0  0  0  0
   37.9290   23.5340   38.3050 C   0  0  0  0  0  0  0  0  0  0  0  0
   37.3060   23.0410   37.1870 N   0  0  0  0  0  0  0  0  0  0  0  0
   37.9640   22.3910   36.2190 C   0  0  0  0  0  0  0  0  0  0  0  0
   39.2540   22.2220   36.3520 N   0  0  0  0  0  0  0  0  0  0  0  0
   36.8270   24.6440   30.6730 N   0  0  0  0  0  0  0  0  0  0  0  0
   36.0100   25.8340   30.8070 C   0  0  1  0  0  0  0  0  0  0  0  0
   34.5670   25.3650   30.9050 C   0  0  0  0  0  0  0  0  0  0  0  0
   36.3790   26.4770   32.1220 C   0  0  0  0  0  0  0  0  0  0  0  0
   36.1430   27.8980   32.0000 N   0  0  0  0  0  0  0  0  0  0  0  0
   35.0710   28.5810   32.4070 N   0  0  0  0  0  0  0  0  0  0  0  0
   35.2140   29.8990   32.1170 C   0  0  0  0  0  0  0  0  0  0  0  0
   36.4520   30.0680   31.4870 C   0  0  0  0  0  0  0  0  0  0  0  0
   36.9530   28.7970   31.4560 C   0  0  0  0  0  0  0  0  0  0  0  0
   35.5816   23.0789   30.0961 H   0  0  0  0  0  0  0  0  0  0  0  0
   35.4073   23.5917   31.7911 H   0  0  0  0  0  0  0  0  0  0  0  0
   37.1891   21.5755   30.6636 H   0  0  0  0  0  0  0  0  0  0  0  0
   38.1794   22.8664   31.4021 H   0  0  0  0  0  0  0  0  0  0  0  0
   35.9463   20.5781   36.2848 H   0  0  0  0  0  0  0  0  0  0  0  0
   34.7274   19.7920   34.2686 H   0  0  0  0  0  0  0  0  0  0  0  0
   41.0523   22.4659   37.4169 H   0  0  0  0  0  0  0  0  0  0  0  0
   39.8663   23.7157   39.3030 H   0  0  0  0  0  0  0  0  0  0  0  0
   37.3594   24.0643   39.0824 H   0  0  0  0  0  0  0  0  0  0  0  0
   37.1637   24.5886   29.7012 H   0  0  0  0  0  0  0  0  0  0  0  0
   36.1501   26.5329   29.9692 H   0  0  0  0  0  0  0  0  0  0  0  0
   34.2826   25.2726   31.9636 H   0  0  0  0  0  0  0  0  0  0  0  0
   33.9096   26.0957   30.4112 H   0  0  0  0  0  0  0  0  0  0  0  0
   34.4648   24.3874   30.4112 H   0  0  0  0  0  0  0  0  0  0  0  0
   35.7571   26.0622   32.9290 H   0  0  0  0  0  0  0  0  0  0  0  0
   37.4345   26.2818   32.3627 H   0  0  0  0  0  0  0  0  0  0  0  0
   34.4860   30.6934   32.3380 H   0  0  0  0  0  0  0  0  0  0  0  0
   36.9089   30.9948   31.1099 H   0  0  0  0  0  0  0  0  0  0  0  0
   37.9318   28.5441   31.0225 H   0  0  0  0  0  0  0  0  0  0  0  0
  1  2  1  0
  2  7  1  0
  3  4  2  0
  3 13  1  0
  5  4  1  0
  6  5  2  0
  7  6  1  0
  7  8  2  0
  8  3  1  0
  9 10  2  0
 11 10  1  0
 12 11  2  0
 13 14  2  0
 13 12  1  0
 14  9  1  0
 15 16  1  0
 15  1  1  0
 16 17  1  0
 16 18  1  0
 19 18  1  0
 19 20  1  0
 21 20  2  0
 22 21  1  0
 23 22  2  0
 23 19  1  0
  1 24  1  0
  1 25  1  0
  2 26  1  0
  2 27  1  0
  4 28  1  0
  5 29  1  0
  9 30  1  0
 10 31  1  0
 11 32  1  0
 15 33  1  0
 16 34  1  6
 17 35  1  0
 17 36  1  0
 17 37  1  0
 18 38  1  0
 18 39  1  0
 21 40  1  0
 22 41  1  0
 23 42  1  0
M  ISO  8  24   8  25   8  26   8  27   8  28  14  29  14  30  14  31  14
M  ISO  8  32  14  33   5  34   8  35   8  36   8  37   8  38   8  39   8
M  ISO  3  40  14  41  14  42  14
M  END
>  <minimizedAffinity>  (1) 
-5.09654427

>  <minimizedRMSD>  (1) 
0.98394376

$$$$
