
     RDKit          3D

 30 32  0  0  1  0  0  0  0  0999 V2000
   38.3250   23.2380   36.4430 C   0  0  0  0  0  0  0  0  0  0  0  0
   37.4720   23.6270   37.4390 C   0  0  0  0  0  0  0  0  0  0  0  0
   38.2050   23.5310   38.5860 N   0  0  0  0  0  0  0  0  0  0  0  0
   39.4200   23.1060   38.2510 C   0  0  0  0  0  0  0  0  0  0  0  0
   39.5310   22.9110   36.9230 N   0  0  0  0  0  0  0  0  0  0  0  0
   38.0170   23.1650   35.0150 C   0  0  0  0  0  0  0  0  0  0  0  0
   37.5820   21.9560   34.4610 C   0  0  0  0  0  0  0  0  0  0  0  0
   37.2960   21.9330   33.0780 C   0  0  0  0  0  0  0  0  0  0  0  0
   37.4600   23.0830   32.3730 N   0  0  0  0  0  0  0  0  0  0  0  0
   37.8800   24.2290   32.9400 C   0  0  0  0  0  0  0  0  0  0  0  0
   38.1550   24.2670   34.2470 N   0  0  0  0  0  0  0  0  0  0  0  0
   43.5650   22.3570   36.5450 N   0  0  0  0  0  0  0  0  0  0  0  0
   43.0330   23.4380   35.7880 C   0  0  0  0  0  0  0  0  0  0  0  0
   41.5530   23.5790   35.7710 C   0  0  0  0  0  0  0  0  0  0  0  0
   40.7600   22.4480   36.3030 C   0  0  1  0  0  0  0  0  0  0  0  0
   41.5010   21.5490   37.2650 C   0  0  0  0  0  0  0  0  0  0  0  0
   42.7820   21.1470   36.5390 C   0  0  0  0  0  0  0  0  0  0  0  0
   36.4245   23.9471   37.3376 H   0  0  0  0  0  0  0  0  0  0  0  0
   40.2343   22.9348   38.9704 H   0  0  0  0  0  0  0  0  0  0  0  0
   37.4668   21.0547   35.0810 H   0  0  0  0  0  0  0  0  0  0  0  0
   36.9508   21.0116   32.5863 H   0  0  0  0  0  0  0  0  0  0  0  0
   37.9970   25.1349   32.3271 H   0  0  0  0  0  0  0  0  0  0  0  0
   44.4517   22.4342   37.0634 H   0  0  0  0  0  0  0  0  0  0  0  0
   43.6851   24.1355   35.2419 H   0  0  0  0  0  0  0  0  0  0  0  0
   41.0679   24.4854   35.3797 H   0  0  0  0  0  0  0  0  0  0  0  0
   40.5339   21.8350   35.4181 H   0  0  0  0  0  0  0  0  0  0  0  0
   41.7381   22.0904   38.1927 H   0  0  0  0  0  0  0  0  0  0  0  0
   40.9007   20.6728   37.5511 H   0  0  0  0  0  0  0  0  0  0  0  0
   42.5660   20.8234   35.5101 H   0  0  0  0  0  0  0  0  0  0  0  0
   43.2975   20.3003   37.0159 H   0  0  0  0  0  0  0  0  0  0  0  0
  1  5  1  0
  1  2  2  0
  2  3  1  0
  4  3  2  0
  5  4  1  0
  6  1  1  0
  7  6  2  0
  8  7  1  0
  9 10  1  0
  9  8  2  0
 10 11  2  0
 11  6  1  0
 13 12  1  0
 14 13  2  0
 15 14  1  0
 15  5  1  0
 15 16  1  0
 17 12  1  0
 17 16  1  0
  2 18  1  0
  4 19  1  0
  7 20  1  0
  8 21  1  0
 10 22  1  0
 12 23  1  0
 13 24  1  0
 14 25  1  0
 15 26  1  6
 16 27  1  0
 16 28  1  0
 17 29  1  0
 17 30  1  0
M  ISO  8  18  14  19  14  20  14  21  14  22  14  24  13  25  13  26  13
M  ISO  4  27  13  28  13  29  13  30  13
M  END
>  <minimizedAffinity>  (1) 
-4.25382853

>  <minimizedRMSD>  (1) 
6.06570339

$$$$
