
     RDKit          3D

 40 42  0  0  1  0  0  0  0  0999 V2000
   37.3360   22.2760   31.3980 C   0  0  0  0  0  0  0  0  0  0  0  0
   37.2510   21.8900   35.0820 C   0  0  0  0  0  0  0  0  0  0  0  0
   36.1950   20.9840   35.3040 C   0  0  0  0  0  0  0  0  0  0  0  0
   35.5510   20.5390   34.1650 C   0  0  0  0  0  0  0  0  0  0  0  0
   35.8970   20.9360   32.9240 N   0  0  0  0  0  0  0  0  0  0  0  0
   36.9320   21.8220   32.7450 C   0  0  0  0  0  0  0  0  0  0  0  0
   37.5830   22.2740   33.8560 N   0  0  0  0  0  0  0  0  0  0  0  0
   39.9580   22.6850   37.4250 C   0  0  0  0  0  0  0  0  0  0  0  0
   39.2760   23.3860   38.4580 C   0  0  0  0  0  0  0  0  0  0  0  0
   37.8990   23.5650   38.3170 C   0  0  0  0  0  0  0  0  0  0  0  0
   37.2940   23.0520   37.1910 N   0  0  0  0  0  0  0  0  0  0  0  0
   37.9690   22.3960   36.2360 C   0  0  0  0  0  0  0  0  0  0  0  0
   39.2490   22.2480   36.3990 N   0  0  0  0  0  0  0  0  0  0  0  0
   36.3230   23.3090   30.9140 C   0  0  0  0  0  0  0  0  0  0  0  0
   37.0450   24.4910   30.5850 N   0  0  0  0  0  0  0  0  0  0  0  0
   36.4760   25.7110   31.0870 C   0  0  1  0  0  0  0  0  0  0  0  0
   34.9520   25.5330   30.9650 C   0  0  0  0  0  0  0  0  0  0  0  0
   36.7790   25.7970   32.5740 C   0  0  0  0  0  0  0  0  0  0  0  0
   38.1190   26.4050   32.7810 C   0  0  0  0  0  0  0  0  0  0  0  0
   38.8750   26.8960   33.7760 N   0  0  0  0  0  0  0  0  0  0  0  0
   40.0110   27.3030   33.3000 O   0  0  0  0  0  0  0  0  0  0  0  0
   40.0510   27.1040   32.0110 C   0  0  0  0  0  0  0  0  0  0  0  0
   38.8750   26.5430   31.6720 N   0  0  0  0  0  0  0  0  0  0  0  0
   38.3368   22.7302   31.4437 H   0  0  0  0  0  0  0  0  0  0  0  0
   37.3660   21.4225   30.7047 H   0  0  0  0  0  0  0  0  0  0  0  0
   35.9038   20.6543   36.3122 H   0  0  0  0  0  0  0  0  0  0  0  0
   34.7184   19.8287   34.2761 H   0  0  0  0  0  0  0  0  0  0  0  0
   41.0430   22.5119   37.4786 H   0  0  0  0  0  0  0  0  0  0  0  0
   39.8142   23.7729   39.3359 H   0  0  0  0  0  0  0  0  0  0  0  0
   37.3152   24.0990   39.0812 H   0  0  0  0  0  0  0  0  0  0  0  0
   35.7956   22.9310   30.0258 H   0  0  0  0  0  0  0  0  0  0  0  0
   35.5751   23.5149   31.6939 H   0  0  0  0  0  0  0  0  0  0  0  0
   37.9967   24.4010   30.9686 H   0  0  0  0  0  0  0  0  0  0  0  0
   36.8594   26.5931   30.5532 H   0  0  0  0  0  0  0  0  0  0  0  0
   34.5073   25.4811   31.9698 H   0  0  0  0  0  0  0  0  0  0  0  0
   34.5256   26.3874   30.4190 H   0  0  0  0  0  0  0  0  0  0  0  0
   34.7340   24.6033   30.4190 H   0  0  0  0  0  0  0  0  0  0  0  0
   36.0163   26.4180   33.0666 H   0  0  0  0  0  0  0  0  0  0  0  0
   36.7690   24.7852   33.0055 H   0  0  0  0  0  0  0  0  0  0  0  0
   40.8830   27.3471   31.3337 H   0  0  0  0  0  0  0  0  0  0  0  0
  1  6  1  0
  2  3  2  0
  2 12  1  0
  4  3  1  0
  5  4  2  0
  6  5  1  0
  6  7  2  0
  7  2  1  0
  8  9  2  0
 10  9  1  0
 11 10  2  0
 12 13  2  0
 12 11  1  0
 13  8  1  0
 14  1  1  0
 15 14  1  0
 15 16  1  0
 16 18  1  0
 17 16  1  0
 18 19  1  0
 19 20  2  0
 21 20  1  0
 22 21  1  0
 23 22  2  0
 23 19  1  0
  1 24  1  0
  1 25  1  0
  3 26  1  0
  4 27  1  0
  8 28  1  0
  9 29  1  0
 10 30  1  0
 14 31  1  0
 14 32  1  0
 15 33  1  0
 16 34  1  6
 17 35  1  0
 17 36  1  0
 17 37  1  0
 18 38  1  0
 18 39  1  0
 22 40  1  0
M  ISO  8  24   8  25   8  26  14  27  14  28  14  29  14  30  14  31   8
M  ISO  8  32   8  33   5  34   8  35   8  36   8  37   8  38   8  39   8
M  ISO  1  40  14
M  END
>  <minimizedAffinity>  (1) 
-4.92850685

>  <minimizedRMSD>  (1) 
0.571683228

$$$$
