
     RDKit          3D

 41 43  0  0  1  0  0  0  0  0999 V2000
   37.2120   22.3760   31.3730 C   0  0  0  0  0  0  0  0  0  0  0  0
   37.2330   21.9090   35.0650 C   0  0  0  0  0  0  0  0  0  0  0  0
   36.1930   20.9670   35.2660 C   0  0  0  0  0  0  0  0  0  0  0  0
   35.5340   20.5330   34.1410 C   0  0  0  0  0  0  0  0  0  0  0  0
   35.8400   20.9670   32.8990 N   0  0  0  0  0  0  0  0  0  0  0  0
   36.8500   21.8790   32.7230 C   0  0  0  0  0  0  0  0  0  0  0  0
   37.5270   22.3310   33.8270 N   0  0  0  0  0  0  0  0  0  0  0  0
   39.9650   22.6710   37.3720 C   0  0  0  0  0  0  0  0  0  0  0  0
   39.2930   23.3620   38.4250 C   0  0  0  0  0  0  0  0  0  0  0  0
   37.9080   23.5410   38.2980 C   0  0  0  0  0  0  0  0  0  0  0  0
   37.2980   23.0430   37.1790 N   0  0  0  0  0  0  0  0  0  0  0  0
   37.9600   22.3990   36.2110 C   0  0  0  0  0  0  0  0  0  0  0  0
   39.2470   22.2440   36.3500 N   0  0  0  0  0  0  0  0  0  0  0  0
   36.1570   23.4070   30.9460 C   0  0  0  0  0  0  0  0  0  0  0  0
   36.8780   24.5960   30.6240 N   0  0  0  0  0  0  0  0  0  0  0  0
   36.1690   25.8390   30.9000 C   0  0  1  0  0  0  0  0  0  0  0  0
   34.6950   25.4150   31.0260 C   0  0  0  0  0  0  0  0  0  0  0  0
   36.5850   26.3150   32.2610 C   0  0  0  0  0  0  0  0  0  0  0  0
   36.2730   27.7430   32.5220 C   0  0  0  0  0  0  0  0  0  0  0  0
   36.2540   28.7110   31.3300 C   0  0  0  0  0  0  0  0  0  0  0  0
   35.8500   30.2370   32.1550 S   0  0  0  0  0  0  0  0  0  0  0  0
   35.7620   29.4420   33.8810 C   0  0  0  0  0  0  0  0  0  0  0  0
   36.0120   28.2600   33.7060 N   0  0  0  0  0  0  0  0  0  0  0  0
   38.2047   22.8489   31.4035 H   0  0  0  0  0  0  0  0  0  0  0  0
   37.2431   21.5427   30.6556 H   0  0  0  0  0  0  0  0  0  0  0  0
   35.9275   20.6027   36.2694 H   0  0  0  0  0  0  0  0  0  0  0  0
   34.7219   19.8002   34.2569 H   0  0  0  0  0  0  0  0  0  0  0  0
   41.0508   22.4992   37.4112 H   0  0  0  0  0  0  0  0  0  0  0  0
   39.8401   23.7392   39.3016 H   0  0  0  0  0  0  0  0  0  0  0  0
   37.3302   24.0652   39.0735 H   0  0  0  0  0  0  0  0  0  0  0  0
   35.6032   23.0458   30.0669 H   0  0  0  0  0  0  0  0  0  0  0  0
   35.4211   23.5852   31.7439 H   0  0  0  0  0  0  0  0  0  0  0  0
   37.1016   24.5719   29.6189 H   0  0  0  0  0  0  0  0  0  0  0  0
   36.3538   26.6114   30.1389 H   0  0  0  0  0  0  0  0  0  0  0  0
   34.4254   25.3375   32.0896 H   0  0  0  0  0  0  0  0  0  0  0  0
   34.0547   26.1654   30.5392 H   0  0  0  0  0  0  0  0  0  0  0  0
   34.5513   24.4391   30.5392 H   0  0  0  0  0  0  0  0  0  0  0  0
   36.0665   25.7042   33.0147 H   0  0  0  0  0  0  0  0  0  0  0  0
   37.6790   26.2132   32.3135 H   0  0  0  0  0  0  0  0  0  0  0  0
   36.4386   28.5161   30.2632 H   0  0  0  0  0  0  0  0  0  0  0  0
   35.5342   29.9413   34.8343 H   0  0  0  0  0  0  0  0  0  0  0  0
  1  6  1  0
  2  3  2  0
  2 12  1  0
  4  3  1  0
  5  4  2  0
  6  5  1  0
  6  7  2  0
  7  2  1  0
  8  9  2  0
 10  9  1  0
 11 10  2  0
 12 13  2  0
 12 11  1  0
 13  8  1  0
 14  1  1  0
 15 16  1  0
 15 14  1  0
 16 17  1  0
 16 18  1  0
 18 19  1  0
 19 23  1  0
 20 21  1  0
 20 19  2  0
 21 22  1  0
 23 22  2  0
  1 24  1  0
  1 25  1  0
  3 26  1  0
  4 27  1  0
  8 28  1  0
  9 29  1  0
 10 30  1  0
 14 31  1  0
 14 32  1  0
 15 33  1  0
 16 34  1  6
 17 35  1  0
 17 36  1  0
 17 37  1  0
 18 38  1  0
 18 39  1  0
 20 40  1  0
 22 41  1  0
M  ISO  8  24   8  25   8  26  14  27  14  28  14  29  14  30  14  31   8
M  ISO  8  32   8  33   5  34   8  35   8  36   8  37   8  38   8  39   8
M  ISO  2  40  14  41  14
M  END
>  <minimizedAffinity>  (1) 
-5.04967976

>  <minimizedRMSD>  (1) 
0.694951832

$$$$
