
     RDKit          3D

 45 47  0  0  1  0  0  0  0  0999 V2000
   36.2540   24.0730   30.9640 C   0  0  0  0  0  0  0  0  0  0  0  0
   37.0710   22.8300   31.1410 C   0  0  0  0  0  0  0  0  0  0  0  0
   37.1890   21.9680   34.7160 C   0  0  0  0  0  0  0  0  0  0  0  0
   36.2010   20.9550   34.8390 C   0  0  0  0  0  0  0  0  0  0  0  0
   35.5380   20.6130   33.6860 C   0  0  0  0  0  0  0  0  0  0  0  0
   35.7880   21.1900   32.4890 N   0  0  0  0  0  0  0  0  0  0  0  0
   36.7480   22.1620   32.4120 C   0  0  0  0  0  0  0  0  0  0  0  0
   37.4270   22.5270   33.5360 N   0  0  0  0  0  0  0  0  0  0  0  0
   39.8950   22.6000   37.0770 C   0  0  0  0  0  0  0  0  0  0  0  0
   39.2270   23.1530   38.1770 C   0  0  0  0  0  0  0  0  0  0  0  0
   37.8540   23.2950   38.0730 C   0  0  0  0  0  0  0  0  0  0  0  0
   37.2500   22.8930   36.9180 N   0  0  0  0  0  0  0  0  0  0  0  0
   37.9160   22.3710   35.8930 C   0  0  0  0  0  0  0  0  0  0  0  0
   39.2030   22.2440   36.0090 N   0  0  0  0  0  0  0  0  0  0  0  0
   37.0030   25.0980   30.4120 N   0  0  0  0  0  0  0  0  0  0  0  0
   37.3330   26.2410   31.1720 C   0  0  1  0  0  0  0  0  0  0  0  0
   36.6950   27.4210   30.4330 C   0  0  0  0  0  0  0  0  0  0  0  0
   36.6300   26.1200   32.4860 C   0  0  0  0  0  0  0  0  0  0  0  0
   37.5600   26.4350   33.5840 C   0  0  0  0  0  0  0  0  0  0  0  0
   38.8100   26.9900   33.6760 C   0  0  0  0  0  0  0  0  0  0  0  0
   39.1060   27.0320   35.0500 C   0  0  0  0  0  0  0  0  0  0  0  0
   38.0240   26.5020   35.7250 N   0  0  0  0  0  0  0  0  0  0  0  0
   37.1080   26.1440   34.8410 N   0  0  0  0  0  0  0  0  0  0  0  0
   38.4070   26.6610   37.1100 C   0  0  0  0  0  0  0  0  0  0  0  0
   35.4061   23.8518   30.2991 H   0  0  0  0  0  0  0  0  0  0  0  0
   35.9010   24.3979   31.9539 H   0  0  0  0  0  0  0  0  0  0  0  0
   36.8620   22.1409   30.3094 H   0  0  0  0  0  0  0  0  0  0  0  0
   38.1349   23.1091   31.1527 H   0  0  0  0  0  0  0  0  0  0  0  0
   35.9797   20.4722   35.8023 H   0  0  0  0  0  0  0  0  0  0  0  0
   34.7658   19.8314   33.7388 H   0  0  0  0  0  0  0  0  0  0  0  0
   40.9862   22.4632   37.1020 H   0  0  0  0  0  0  0  0  0  0  0  0
   39.7694   23.4607   39.0832 H   0  0  0  0  0  0  0  0  0  0  0  0
   37.2659   23.7205   38.8995 H   0  0  0  0  0  0  0  0  0  0  0  0
   37.8939   24.6801   30.1076 H   0  0  0  0  0  0  0  0  0  0  0  0
   38.4182   26.3573   31.3095 H   0  0  0  0  0  0  0  0  0  0  0  0
   36.3042   28.1437   31.1644 H   0  0  0  0  0  0  0  0  0  0  0  0
   37.4513   27.9106   29.8019 H   0  0  0  0  0  0  0  0  0  0  0  0
   35.8712   27.0562   29.8019 H   0  0  0  0  0  0  0  0  0  0  0  0
   35.7835   26.8219   32.5126 H   0  0  0  0  0  0  0  0  0  0  0  0
   36.2634   25.0899   32.6067 H   0  0  0  0  0  0  0  0  0  0  0  0
   39.4484   27.3313   32.8478 H   0  0  0  0  0  0  0  0  0  0  0  0
   40.0309   27.4169   35.5044 H   0  0  0  0  0  0  0  0  0  0  0  0
   37.5866   26.3204   37.7587 H   0  0  0  0  0  0  0  0  0  0  0  0
   39.3073   26.0623   37.3125 H   0  0  0  0  0  0  0  0  0  0  0  0
   38.6186   27.7213   37.3125 H   0  0  0  0  0  0  0  0  0  0  0  0
  1  2  1  0
  2  7  1  0
  3  4  2  0
  3 13  1  0
  5  4  1  0
  6  5  2  0
  7  6  1  0
  7  8  2  0
  8  3  1  0
  9 10  2  0
 11 10  1  0
 12 11  2  0
 13 14  2  0
 13 12  1  0
 14  9  1  0
 15  1  1  0
 15 16  1  0
 16 18  1  0
 17 16  1  0
 18 19  1  0
 19 20  1  0
 19 23  2  0
 20 21  2  0
 21 22  1  0
 22 24  1  0
 23 22  1  0
  1 25  1  0
  1 26  1  0
  2 27  1  0
  2 28  1  0
  4 29  1  0
  5 30  1  0
  9 31  1  0
 10 32  1  0
 11 33  1  0
 15 34  1  0
 16 35  1  1
 17 36  1  0
 17 37  1  0
 17 38  1  0
 18 39  1  0
 18 40  1  0
 20 41  1  0
 21 42  1  0
 24 43  1  0
 24 44  1  0
 24 45  1  0
M  ISO  8  25   8  26   8  27   8  28   8  29  14  30  14  31  14  32  14
M  ISO  8  33  14  34   5  35   8  36   8  37   8  38   8  39   8  40   8
M  ISO  5  41  14  42  14  43   8  44   8  45   8
M  END
>  <minimizedAffinity>  (1) 
-4.6860218

>  <minimizedRMSD>  (1) 
0.291715056

$$$$
