
     RDKit          3D

 58 61  0  0  1  0  0  0  0  0999 V2000
   36.7560   25.3430   30.7580 N   0  0  0  0  0  0  0  0  0  0  0  0
   36.8410   23.9850   31.0010 C   0  0  0  0  0  0  0  0  0  0  0  0
   35.5030   23.4030   31.3380 C   0  0  0  0  0  0  0  0  0  0  0  0
   36.1020   19.7730   31.1460 C   0  0  0  0  0  0  0  0  0  0  0  0
   35.9020   19.3430   32.4850 C   0  0  0  0  0  0  0  0  0  0  0  0
   35.5680   20.3180   33.3920 C   0  0  0  0  0  0  0  0  0  0  0  0
   35.4310   21.6210   33.0580 N   0  0  0  0  0  0  0  0  0  0  0  0
   35.6300   21.9970   31.7600 C   0  0  0  0  0  0  0  0  0  0  0  0
   35.9630   21.0540   30.8340 N   0  0  0  0  0  0  0  0  0  0  0  0
   36.8650   18.1980   27.9530 C   0  0  0  0  0  0  0  0  0  0  0  0
   37.1180   16.8740   28.3050 C   0  0  0  0  0  0  0  0  0  0  0  0
   37.0260   16.5580   29.6420 C   0  0  0  0  0  0  0  0  0  0  0  0
   36.6960   17.5440   30.5270 N   0  0  0  0  0  0  0  0  0  0  0  0
   36.4590   18.7980   30.1550 C   0  0  0  0  0  0  0  0  0  0  0  0
   36.5530   19.0690   28.8890 N   0  0  0  0  0  0  0  0  0  0  0  0
   37.7030   26.2450   31.2920 C   0  0  1  0  0  0  0  0  0  0  0  0
   37.2460   27.6240   30.8260 C   0  0  0  0  0  0  0  0  0  0  0  0
   37.5430   26.2070   32.7670 C   0  0  0  0  0  0  0  0  0  0  0  0
   38.8580   26.2230   33.4360 C   0  0  0  0  0  0  0  0  0  0  0  0
   39.4280   26.9580   34.4360 C   0  0  0  0  0  0  0  0  0  0  0  0
   40.7090   26.3980   34.6090 C   0  0  0  0  0  0  0  0  0  0  0  0
   40.8530   25.3580   33.7130 N   0  0  0  0  0  0  0  0  0  0  0  0
   39.7410   25.2570   33.0030 N   0  0  0  0  0  0  0  0  0  0  0  0
   42.1260   24.7460   34.0220 C   0  0  0  0  0  0  0  0  0  0  0  0
   42.7070   25.2210   35.3890 C   0  0  0  0  0  0  0  0  0  0  0  0
   43.6220   24.1550   35.9290 C   0  0  0  0  0  0  0  0  0  0  0  0
   42.7270   23.1310   36.6080 C   0  0  0  0  0  0  0  0  0  0  0  0
   41.4660   23.0800   35.7350 C   0  0  0  0  0  0  0  0  0  0  0  0
   41.9230   23.2420   34.3050 C   0  0  0  0  0  0  0  0  0  0  0  0
   36.7880   25.4586   29.7350 H   0  0  0  0  0  0  0  0  0  0  0  0
   37.2323   23.4850   30.1028 H   0  0  0  0  0  0  0  0  0  0  0  0
   37.5112   23.8292   31.8592 H   0  0  0  0  0  0  0  0  0  0  0  0
   35.0533   23.9849   32.1560 H   0  0  0  0  0  0  0  0  0  0  0  0
   34.8671   23.4437   30.4413 H   0  0  0  0  0  0  0  0  0  0  0  0
   36.0087   18.2883   32.7786 H   0  0  0  0  0  0  0  0  0  0  0  0
   35.4042   20.0254   34.4396 H   0  0  0  0  0  0  0  0  0  0  0  0
   36.9255   18.5130   26.9008 H   0  0  0  0  0  0  0  0  0  0  0  0
   37.3789   16.1171   27.5507 H   0  0  0  0  0  0  0  0  0  0  0  0
   37.2146   15.5317   29.9902 H   0  0  0  0  0  0  0  0  0  0  0  0
   38.7367   26.0150   30.9943 H   0  0  0  0  0  0  0  0  0  0  0  0
   37.0365   28.2561   31.7015 H   0  0  0  0  0  0  0  0  0  0  0  0
   38.0385   28.0876   30.2202 H   0  0  0  0  0  0  0  0  0  0  0  0
   36.3334   27.5225   30.2202 H   0  0  0  0  0  0  0  0  0  0  0  0
   36.9632   27.0843   33.0898 H   0  0  0  0  0  0  0  0  0  0  0  0
   37.0184   25.2800   33.0415 H   0  0  0  0  0  0  0  0  0  0  0  0
   38.9845   27.8015   34.9854 H   0  0  0  0  0  0  0  0  0  0  0  0
   41.4654   26.7324   35.3343 H   0  0  0  0  0  0  0  0  0  0  0  0
   42.7719   24.9949   33.1671 H   0  0  0  0  0  0  0  0  0  0  0  0
   43.2718   26.1540   35.2456 H   0  0  0  0  0  0  0  0  0  0  0  0
   41.8866   25.4015   36.0992 H   0  0  0  0  0  0  0  0  0  0  0  0
   44.1853   23.6850   35.1093 H   0  0  0  0  0  0  0  0  0  0  0  0
   44.3553   24.5755   36.6329 H   0  0  0  0  0  0  0  0  0  0  0  0
   43.2174   22.1469   36.6398 H   0  0  0  0  0  0  0  0  0  0  0  0
   42.5020   23.3997   37.6507 H   0  0  0  0  0  0  0  0  0  0  0  0
   40.9549   22.1143   35.8628 H   0  0  0  0  0  0  0  0  0  0  0  0
   40.7569   23.8724   36.0165 H   0  0  0  0  0  0  0  0  0  0  0  0
   41.1607   22.8360   33.6238 H   0  0  0  0  0  0  0  0  0  0  0  0
   42.8663   22.6986   34.1473 H   0  0  0  0  0  0  0  0  0  0  0  0
  1  2  1  0
  1 16  1  0
  2  3  1  0
  3  8  1  0
  4  5  2  0
  5  6  1  0
  7  6  2  0
  8  7  1  0
  9  4  1  0
  9  8  2  0
 10 11  2  0
 10 15  1  0
 11 12  1  0
 12 13  2  0
 14 13  1  0
 14  4  1  0
 15 14  2  0
 16 18  1  0
 17 16  1  0
 18 19  1  0
 19 20  1  0
 20 21  2  0
 22 24  1  0
 22 21  1  0
 23 19  2  0
 23 22  1  0
 24 29  1  0
 24 25  1  0
 25 26  1  0
 26 27  1  0
 28 27  1  0
 29 28  1  0
  1 30  1  0
  2 31  1  0
  2 32  1  0
  3 33  1  0
  3 34  1  0
  5 35  1  0
  6 36  1  0
 10 37  1  0
 11 38  1  0
 12 39  1  0
 16 40  1  1
 17 41  1  0
 17 42  1  0
 17 43  1  0
 18 44  1  0
 18 45  1  0
 20 46  1  0
 21 47  1  0
 24 48  1  0
 25 49  1  0
 25 50  1  0
 26 51  1  0
 26 52  1  0
 27 53  1  0
 27 54  1  0
 28 55  1  0
 28 56  1  0
 29 57  1  0
 29 58  1  0
M  ISO  8  30   5  31   8  32   8  33   8  34   8  35  14  36  14  37  14
M  ISO  8  38  14  39  14  40   8  41   8  42   8  43   8  44   8  45   8
M  ISO  8  46  14  47  14  48  13  49  13  50  13  51  13  52  13  53  13
M  ISO  5  54  13  55  13  56  13  57  13  58  13
M  END
>  <minimizedAffinity>  (1) 
-5.02958441

>  <minimizedRMSD>  (1) 
5.46624756

$$$$
