
     RDKit          3D

 27 29  0  0  0  0  0  0  0  0999 V2000
   40.6400   22.2960   35.6170 C   0  0  0  0  0  0  0  0  0  0  0  0
   40.2360   22.4860   36.9440 C   0  0  0  0  0  0  0  0  0  0  0  0
   39.0790   23.1920   37.2280 C   0  0  0  0  0  0  0  0  0  0  0  0
   38.3630   23.6850   36.1820 N   0  0  0  0  0  0  0  0  0  0  0  0
   38.7780   23.4870   34.9010 C   0  0  0  0  0  0  0  0  0  0  0  0
   39.8890   22.8100   34.6270 N   0  0  0  0  0  0  0  0  0  0  0  0
   38.0180   24.0100   33.8150 N   0  0  0  0  0  0  0  0  0  0  0  0
   37.9290   25.2790   33.4250 C   0  0  0  0  0  0  0  0  0  0  0  0
   37.1150   25.3870   32.3610 N   0  0  0  0  0  0  0  0  0  0  0  0
   36.6900   24.1550   32.0850 C   0  0  0  0  0  0  0  0  0  0  0  0
   35.8520   23.6250   31.1290 C   0  0  0  0  0  0  0  0  0  0  0  0
   35.5840   22.2890   31.0780 N   0  0  0  0  0  0  0  0  0  0  0  0
   36.1540   21.4730   31.9840 C   0  0  0  0  0  0  0  0  0  0  0  0
   36.9790   21.9680   32.9290 N   0  0  0  0  0  0  0  0  0  0  0  0
   37.2500   23.2840   32.9920 C   0  0  0  0  0  0  0  0  0  0  0  0
   38.6800   23.3730   38.6420 C   0  0  0  0  0  0  0  0  0  0  0  0
   37.9040   24.6740   38.7190 C   0  0  0  0  0  0  0  0  0  0  0  0
   41.5578   21.7348   35.3877 H   0  0  0  0  0  0  0  0  0  0  0  0
   40.8404   22.0726   37.7648 H   0  0  0  0  0  0  0  0  0  0  0  0
   38.4485   26.1211   33.9057 H   0  0  0  0  0  0  0  0  0  0  0  0
   35.3884   24.2948   30.3898 H   0  0  0  0  0  0  0  0  0  0  0  0
   35.9452   20.3934   31.9534 H   0  0  0  0  0  0  0  0  0  0  0  0
   38.0458   22.5347   38.9661 H   0  0  0  0  0  0  0  0  0  0  0  0
   39.5619   23.4017   39.2989 H   0  0  0  0  0  0  0  0  0  0  0  0
   37.7434   24.9433   39.7734 H   0  0  0  0  0  0  0  0  0  0  0  0
   38.4743   25.4712   38.2197 H   0  0  0  0  0  0  0  0  0  0  0  0
   36.9316   24.5510   38.2197 H   0  0  0  0  0  0  0  0  0  0  0  0
  1  2  2  0
  2  3  1  0
  3 16  1  0
  4  3  2  0
  5  4  1  0
  6  5  2  0
  6  1  1  0
  7  5  1  0
  8  7  1  0
  9  8  2  0
 10  9  1  0
 10 15  2  0
 11 10  1  0
 12 11  2  0
 12 13  1  0
 13 14  2  0
 14 15  1  0
 15  7  1  0
 16 17  1  0
  1 18  1  0
  2 19  1  0
  8 20  1  0
 11 21  1  0
 13 22  1  0
 16 23  1  0
 16 24  1  0
 17 25  1  0
 17 26  1  0
 17 27  1  0
M  ISO  8  18  14  19  14  20  14  21  14  22  14  23   8  24   8  25   8
M  ISO  2  26   8  27   8
M  END
>  <minimizedAffinity>  (1) 
-4.73321867

>  <minimizedRMSD>  (1) 
3.76877594

$$$$
