
     RDKit          3D

 32 34  0  0  0  0  0  0  0  0999 V2000
   40.2410   22.1390   35.9750 C   0  0  0  0  0  0  0  0  0  0  0  0
   39.7060   22.8300   37.0670 C   0  0  0  0  0  0  0  0  0  0  0  0
   38.5350   23.5220   36.8490 C   0  0  0  0  0  0  0  0  0  0  0  0
   37.9990   23.4780   35.6020 N   0  0  0  0  0  0  0  0  0  0  0  0
   38.5110   22.8200   34.5660 C   0  0  0  0  0  0  0  0  0  0  0  0
   39.6310   22.1610   34.7800 N   0  0  0  0  0  0  0  0  0  0  0  0
   37.6830   22.9850   33.3800 C   0  0  0  0  0  0  0  0  0  0  0  0
   37.7730   24.0770   32.5480 C   0  0  0  0  0  0  0  0  0  0  0  0
   37.0120   24.2710   31.4200 C   0  0  0  0  0  0  0  0  0  0  0  0
   36.0750   23.3300   31.0570 C   0  0  0  0  0  0  0  0  0  0  0  0
   35.9370   22.2140   31.8490 C   0  0  0  0  0  0  0  0  0  0  0  0
   34.9920   21.2900   31.4600 C   0  0  0  0  0  0  0  0  0  0  0  0
   34.7990   20.1490   32.2060 C   0  0  0  0  0  0  0  0  0  0  0  0
   35.5870   19.9770   33.3490 C   0  0  0  0  0  0  0  0  0  0  0  0
   36.5120   20.9390   33.6790 C   0  0  0  0  0  0  0  0  0  0  0  0
   36.7330   22.0880   32.9610 C   0  0  0  0  0  0  0  0  0  0  0  0
   37.9150   24.2810   37.9850 C   0  0  0  0  0  0  0  0  0  0  0  0
   38.6930   23.8680   39.2370 C   0  0  0  0  0  0  0  0  0  0  0  0
   41.1743   21.5699   36.0974 H   0  0  0  0  0  0  0  0  0  0  0  0
   40.1963   22.8213   38.0517 H   0  0  0  0  0  0  0  0  0  0  0  0
   38.5092   24.8530   32.8048 H   0  0  0  0  0  0  0  0  0  0  0  0
   37.1512   25.1752   30.8093 H   0  0  0  0  0  0  0  0  0  0  0  0
   35.4544   23.4667   30.1592 H   0  0  0  0  0  0  0  0  0  0  0  0
   34.3923   21.4637   30.5543 H   0  0  0  0  0  0  0  0  0  0  0  0
   34.0505   19.3980   31.9131 H   0  0  0  0  0  0  0  0  0  0  0  0
   35.4678   19.0817   33.9769 H   0  0  0  0  0  0  0  0  0  0  0  0
   37.1181   20.7765   34.5825 H   0  0  0  0  0  0  0  0  0  0  0  0
   38.0067   25.3642   37.8171 H   0  0  0  0  0  0  0  0  0  0  0  0
   36.8424   24.0578   38.0831 H   0  0  0  0  0  0  0  0  0  0  0  0
   38.1302   24.1668   40.1336 H   0  0  0  0  0  0  0  0  0  0  0  0
   38.8328   22.7769   39.2385 H   0  0  0  0  0  0  0  0  0  0  0  0
   39.6751   24.3635   39.2385 H   0  0  0  0  0  0  0  0  0  0  0  0
  1  2  2  0
  3  2  1  0
  3 17  1  0
  4  3  2  0
  5  6  2  0
  5  4  1  0
  6  1  1  0
  7  5  1  0
  8  7  2  0
  9  8  1  0
 10  9  2  0
 10 11  1  0
 11 16  2  0
 12 11  1  0
 12 13  2  0
 13 14  1  0
 14 15  2  0
 16  7  1  0
 16 15  1  0
 17 18  1  0
  1 19  1  0
  2 20  1  0
  8 21  1  0
  9 22  1  0
 10 23  1  0
 12 24  1  0
 13 25  1  0
 14 26  1  0
 15 27  1  0
 17 28  1  0
 17 29  1  0
 18 30  1  0
 18 31  1  0
 18 32  1  0
M  ISO  8  19  14  20  14  21  14  22  14  23  14  24  14  25  14  26  14
M  ISO  6  27  14  28   8  29   8  30   8  31   8  32   8
M  END
>  <minimizedAffinity>  (1) 
-5.20742416

>  <minimizedRMSD>  (1) 
3.04761624

$$$$
