
     RDKit          3D

 30 31  0  0  0  0  0  0  0  0999 V2000
   40.8570   22.1740   37.4070 C   0  0  0  0  0  0  0  0  0  0  0  0
   39.7440   22.8710   37.9180 C   0  0  0  0  0  0  0  0  0  0  0  0
   38.7240   23.2340   37.0500 C   0  0  0  0  0  0  0  0  0  0  0  0
   38.8450   22.8950   35.7260 N   0  0  0  0  0  0  0  0  0  0  0  0
   39.9280   22.2270   35.2860 C   0  0  0  0  0  0  0  0  0  0  0  0
   40.9170   21.8700   36.0990 N   0  0  0  0  0  0  0  0  0  0  0  0
   40.0520   21.8770   33.9150 N   0  0  0  0  0  0  0  0  0  0  0  0
   38.9080   21.6060   33.0630 C   0  0  0  0  0  0  0  0  0  0  0  0
   39.3240   21.0940   31.7230 C   0  0  0  0  0  0  0  0  0  0  0  0
   40.3520   20.1090   31.7210 N   0  0  0  0  0  0  0  0  0  0  0  0
   41.3350   20.2970   32.7380 C   0  0  0  0  0  0  0  0  0  0  0  0
   41.3020   21.7420   33.1920 C   0  0  0  0  0  0  0  0  0  0  0  0
   37.5410   23.9680   37.5590 C   0  0  0  0  0  0  0  0  0  0  0  0
   37.9980   24.6710   38.8400 C   0  0  0  0  0  0  0  0  0  0  0  0
   41.6767   21.8787   38.0785 H   0  0  0  0  0  0  0  0  0  0  0  0
   39.6847   23.1231   38.9871 H   0  0  0  0  0  0  0  0  0  0  0  0
   38.2716   20.8527   33.5502 H   0  0  0  0  0  0  0  0  0  0  0  0
   38.3611   22.5488   32.9144 H   0  0  0  0  0  0  0  0  0  0  0  0
   38.4378   20.6560   31.2405 H   0  0  0  0  0  0  0  0  0  0  0  0
   39.7443   21.9612   31.1925 H   0  0  0  0  0  0  0  0  0  0  0  0
   39.9166   19.1856   31.8576 H   0  0  0  0  0  0  0  0  0  0  0  0
   41.1153   19.6372   33.5903 H   0  0  0  0  0  0  0  0  0  0  0  0
   42.3320   20.0537   32.3419 H   0  0  0  0  0  0  0  0  0  0  0  0
   42.1556   21.9605   33.8505 H   0  0  0  0  0  0  0  0  0  0  0  0
   41.3699   22.4433   32.3473 H   0  0  0  0  0  0  0  0  0  0  0  0
   37.2019   24.7068   36.8180 H   0  0  0  0  0  0  0  0  0  0  0  0
   36.6980   23.2882   37.7519 H   0  0  0  0  0  0  0  0  0  0  0  0
   37.6345   24.1118   39.7148 H   0  0  0  0  0  0  0  0  0  0  0  0
   39.0969   24.7136   38.8628 H   0  0  0  0  0  0  0  0  0  0  0  0
   37.5909   25.6926   38.8628 H   0  0  0  0  0  0  0  0  0  0  0  0
  1  2  2  0
  3 13  1  0
  3  2  1  0
  4  3  2  0
  5  4  1  0
  5  6  2  0
  6  1  1  0
  7  5  1  0
  8  7  1  0
  9  8  1  0
 10  9  1  0
 10 11  1  0
 11 12  1  0
 12  7  1  0
 13 14  1  0
  1 15  1  0
  2 16  1  0
  8 17  1  0
  8 18  1  0
  9 19  1  0
  9 20  1  0
 10 21  1  0
 11 22  1  0
 11 23  1  0
 12 24  1  0
 12 25  1  0
 13 26  1  0
 13 27  1  0
 14 28  1  0
 14 29  1  0
 14 30  1  0
M  ISO  8  15  14  16  14  17  13  18  13  19  13  20  13  21   5  22  13
M  ISO  8  23  13  24  13  25  13  26   8  27   8  28   8  29   8  30   8
M  END
>  <minimizedAffinity>  (1) 
-3.41626072

>  <minimizedRMSD>  (1) 
0.556037605

$$$$
