
     RDKit          3D

 28 29  0  0  0  0  0  0  0  0999 V2000
   40.8200   22.1800   37.4480 C   0  0  0  0  0  0  0  0  0  0  0  0
   39.7240   22.9260   37.9140 C   0  0  0  0  0  0  0  0  0  0  0  0
   38.7300   23.2790   37.0190 C   0  0  0  0  0  0  0  0  0  0  0  0
   38.8390   22.8940   35.7110 N   0  0  0  0  0  0  0  0  0  0  0  0
   39.9160   22.1720   35.3030 C   0  0  0  0  0  0  0  0  0  0  0  0
   40.8900   21.8200   36.1500 N   0  0  0  0  0  0  0  0  0  0  0  0
   39.9870   21.7920   33.9260 N   0  0  0  0  0  0  0  0  0  0  0  0
   38.8300   21.5480   33.0970 C   0  0  0  0  0  0  0  0  0  0  0  0
   39.4050   21.3850   31.7030 C   0  0  0  0  0  0  0  0  0  0  0  0
   40.7270   20.7120   32.0280 C   0  0  0  0  0  0  0  0  0  0  0  0
   41.2050   21.5970   33.1650 C   0  0  0  0  0  0  0  0  0  0  0  0
   37.5720   24.0700   37.5220 C   0  0  0  0  0  0  0  0  0  0  0  0
   37.9870   24.6820   38.8490 C   0  0  0  0  0  0  0  0  0  0  0  0
   41.6218   21.8893   38.1427 H   0  0  0  0  0  0  0  0  0  0  0  0
   39.6577   23.2237   38.9709 H   0  0  0  0  0  0  0  0  0  0  0  0
   38.3078   20.6332   33.4140 H   0  0  0  0  0  0  0  0  0  0  0  0
   38.0880   22.3579   33.1568 H   0  0  0  0  0  0  0  0  0  0  0  0
   39.5541   22.3563   31.2087 H   0  0  0  0  0  0  0  0  0  0  0  0
   38.7647   20.8261   31.0047 H   0  0  0  0  0  0  0  0  0  0  0  0
   40.5852   19.6709   32.3537 H   0  0  0  0  0  0  0  0  0  0  0  0
   41.4245   20.6308   31.1813 H   0  0  0  0  0  0  0  0  0  0  0  0
   41.9761   21.0935   33.7666 H   0  0  0  0  0  0  0  0  0  0  0  0
   41.6747   22.5339   32.8310 H   0  0  0  0  0  0  0  0  0  0  0  0
   37.3178   24.8638   36.8042 H   0  0  0  0  0  0  0  0  0  0  0  0
   36.6871   23.4289   37.6480 H   0  0  0  0  0  0  0  0  0  0  0  0
   37.5787   24.0799   39.6741 H   0  0  0  0  0  0  0  0  0  0  0  0
   39.0847   24.7005   38.9169 H   0  0  0  0  0  0  0  0  0  0  0  0
   37.5980   25.7087   38.9169 H   0  0  0  0  0  0  0  0  0  0  0  0
  1  2  2  0
  3 12  1  0
  3  2  1  0
  4  3  2  0
  5  4  1  0
  5  6  2  0
  6  1  1  0
  7  5  1  0
  8  7  1  0
  9 10  1  0
  9  8  1  0
 10 11  1  0
 11  7  1  0
 12 13  1  0
  1 14  1  0
  2 15  1  0
  8 16  1  0
  8 17  1  0
  9 18  1  0
  9 19  1  0
 10 20  1  0
 10 21  1  0
 11 22  1  0
 11 23  1  0
 12 24  1  0
 12 25  1  0
 13 26  1  0
 13 27  1  0
 13 28  1  0
M  ISO  8  14  14  15  14  16  13  17  13  18  13  19  13  20  13  21  13
M  ISO  7  22  13  23  13  24   8  25   8  26   8  27   8  28   8
M  END
>  <minimizedAffinity>  (1) 
-3.34468031

>  <minimizedRMSD>  (1) 
0.60348767

$$$$
