
     RDKit          3D

 22 23  0  0  0  0  0  0  0  0999 V2000
   40.8230   22.1610   37.4500 C   0  0  0  0  0  0  0  0  0  0  0  0
   39.7260   22.9090   37.9010 C   0  0  0  0  0  0  0  0  0  0  0  0
   38.7360   23.2740   37.0070 C   0  0  0  0  0  0  0  0  0  0  0  0
   38.8670   22.8890   35.6980 N   0  0  0  0  0  0  0  0  0  0  0  0
   39.9310   22.1720   35.2930 C   0  0  0  0  0  0  0  0  0  0  0  0
   40.8870   21.8150   36.1420 N   0  0  0  0  0  0  0  0  0  0  0  0
   39.9840   21.8170   33.9170 N   0  0  0  0  0  0  0  0  0  0  0  0
   38.8650   21.7050   33.1790 C   0  0  0  0  0  0  0  0  0  0  0  0
   39.2380   21.3560   31.9170 N   0  0  0  0  0  0  0  0  0  0  0  0
   40.5800   21.2560   31.8870 C   0  0  0  0  0  0  0  0  0  0  0  0
   41.0250   21.5450   33.1400 N   0  0  0  0  0  0  0  0  0  0  0  0
   37.5850   24.0660   37.5120 C   0  0  0  0  0  0  0  0  0  0  0  0
   37.9880   24.6660   38.8380 C   0  0  0  0  0  0  0  0  0  0  0  0
   41.6188   21.8601   38.1472 H   0  0  0  0  0  0  0  0  0  0  0  0
   39.6534   23.2034   38.9584 H   0  0  0  0  0  0  0  0  0  0  0  0
   37.8354   21.8661   33.5312 H   0  0  0  0  0  0  0  0  0  0  0  0
   41.1983   20.9914   31.0166 H   0  0  0  0  0  0  0  0  0  0  0  0
   37.3384   24.8658   36.7982 H   0  0  0  0  0  0  0  0  0  0  0  0
   36.6990   23.4252   37.6321 H   0  0  0  0  0  0  0  0  0  0  0  0
   37.5781   24.0558   39.6563 H   0  0  0  0  0  0  0  0  0  0  0  0
   39.0853   24.6889   38.9118 H   0  0  0  0  0  0  0  0  0  0  0  0
   37.5941   25.6904   38.9118 H   0  0  0  0  0  0  0  0  0  0  0  0
  1  2  2  0
  3 12  1  0
  3  2  1  0
  4  3  2  0
  5  4  1  0
  5  6  2  0
  6  1  1  0
  7  5  1  0
  8  7  1  0
  9  8  2  0
 10  9  1  0
 10 11  2  0
 11  7  1  0
 12 13  1  0
  1 14  1  0
  2 15  1  0
  8 16  1  0
 10 17  1  0
 12 18  1  0
 12 19  1  0
 13 20  1  0
 13 21  1  0
 13 22  1  0
M  ISO  8  14  14  15  14  16  14  17  14  18   8  19   8  20   8  21   8
M  ISO  1  22   8
M  END
>  <minimizedAffinity>  (1) 
-3.34172082

>  <minimizedRMSD>  (1) 
0.542836368

$$$$
