
     RDKit          3D

 31 32  0  0  0  0  0  0  0  0999 V2000
   40.8170   22.1840   37.4370 C   0  0  0  0  0  0  0  0  0  0  0  0
   39.7300   22.9250   37.9200 C   0  0  0  0  0  0  0  0  0  0  0  0
   38.7250   23.2760   37.0320 C   0  0  0  0  0  0  0  0  0  0  0  0
   38.8410   22.8830   35.7240 N   0  0  0  0  0  0  0  0  0  0  0  0
   39.8990   22.1730   35.3000 C   0  0  0  0  0  0  0  0  0  0  0  0
   40.8700   21.8290   36.1390 N   0  0  0  0  0  0  0  0  0  0  0  0
   39.9930   21.7760   33.9240 N   0  0  0  0  0  0  0  0  0  0  0  0
   41.2840   21.6120   33.2830 C   0  0  0  0  0  0  0  0  0  0  0  0
   41.1060   20.7380   32.0600 C   0  0  0  0  0  0  0  0  0  0  0  0
   40.2490   21.5120   31.0820 C   0  0  0  0  0  0  0  0  0  0  0  0
   38.9690   21.9990   31.7080 C   0  0  0  0  0  0  0  0  0  0  0  0
   38.8060   21.5240   33.1300 C   0  0  0  0  0  0  0  0  0  0  0  0
   37.5630   24.0630   37.5260 C   0  0  0  0  0  0  0  0  0  0  0  0
   37.9900   24.6830   38.8500 C   0  0  0  0  0  0  0  0  0  0  0  0
   41.6286   21.8917   38.1195 H   0  0  0  0  0  0  0  0  0  0  0  0
   39.6756   23.2209   38.9780 H   0  0  0  0  0  0  0  0  0  0  0  0
   41.6766   22.5947   32.9827 H   0  0  0  0  0  0  0  0  0  0  0  0
   41.9941   21.1438   33.9805 H   0  0  0  0  0  0  0  0  0  0  0  0
   42.0846   20.5148   31.6099 H   0  0  0  0  0  0  0  0  0  0  0  0
   40.6306   19.7826   32.3269 H   0  0  0  0  0  0  0  0  0  0  0  0
   40.0015   20.8577   30.2331 H   0  0  0  0  0  0  0  0  0  0  0  0
   40.8213   22.3928   30.7554 H   0  0  0  0  0  0  0  0  0  0  0  0
   38.9688   23.0990   31.7010 H   0  0  0  0  0  0  0  0  0  0  0  0
   38.1329   21.5914   31.1209 H   0  0  0  0  0  0  0  0  0  0  0  0
   37.9549   22.0512   33.5856 H   0  0  0  0  0  0  0  0  0  0  0  0
   38.6344   20.4377   33.1089 H   0  0  0  0  0  0  0  0  0  0  0  0
   37.3035   24.8511   36.8038 H   0  0  0  0  0  0  0  0  0  0  0  0
   36.6765   23.4245   37.6541 H   0  0  0  0  0  0  0  0  0  0  0  0
   37.5814   24.0898   39.6814 H   0  0  0  0  0  0  0  0  0  0  0  0
   39.0882   24.6941   38.9124 H   0  0  0  0  0  0  0  0  0  0  0  0
   37.6088   25.7129   38.9124 H   0  0  0  0  0  0  0  0  0  0  0  0
  1  2  2  0
  3 13  1  0
  3  2  1  0
  4  3  2  0
  5  4  1  0
  5  6  2  0
  6  1  1  0
  7  5  1  0
  8  7  1  0
  9  8  1  0
 10 11  1  0
 10  9  1  0
 11 12  1  0
 12  7  1  0
 13 14  1  0
  1 15  1  0
  2 16  1  0
  8 17  1  0
  8 18  1  0
  9 19  1  0
  9 20  1  0
 10 21  1  0
 10 22  1  0
 11 23  1  0
 11 24  1  0
 12 25  1  0
 12 26  1  0
 13 27  1  0
 13 28  1  0
 14 29  1  0
 14 30  1  0
 14 31  1  0
M  ISO  8  15  14  16  14  17  13  18  13  19  13  20  13  21  13  22  13
M  ISO  8  23  13  24  13  25  13  26  13  27   8  28   8  29   8  30   8
M  ISO  1  31   8
M  END
>  <minimizedAffinity>  (1) 
-3.40129423

>  <minimizedRMSD>  (1) 
0.642699718

$$$$
