
     RDKit          3D

 23 24  0  0  0  0  0  0  0  0999 V2000
   40.8060   22.2150   37.3780 C   0  0  0  0  0  0  0  0  0  0  0  0
   39.7250   22.9070   37.9520 C   0  0  0  0  0  0  0  0  0  0  0  0
   38.6750   23.2310   37.1120 C   0  0  0  0  0  0  0  0  0  0  0  0
   38.7140   22.8760   35.7740 N   0  0  0  0  0  0  0  0  0  0  0  0
   39.7800   22.2140   35.2950 C   0  0  0  0  0  0  0  0  0  0  0  0
   40.8140   21.8800   36.0600 N   0  0  0  0  0  0  0  0  0  0  0  0
   39.6670   21.9130   33.8640 C   0  0  0  0  0  0  0  0  0  0  0  0
   38.5000   21.5200   33.2420 C   0  0  0  0  0  0  0  0  0  0  0  0
   38.8210   21.3390   31.9050 C   0  0  0  0  0  0  0  0  0  0  0  0
   40.1280   21.6120   31.7350 N   0  0  0  0  0  0  0  0  0  0  0  0
   40.6140   21.9510   32.9090 N   0  0  0  0  0  0  0  0  0  0  0  0
   37.4980   23.9630   37.6520 C   0  0  0  0  0  0  0  0  0  0  0  0
   38.0050   24.7220   38.8770 C   0  0  0  0  0  0  0  0  0  0  0  0
   41.6638   21.9386   38.0087 H   0  0  0  0  0  0  0  0  0  0  0  0
   39.7148   23.1778   39.0181 H   0  0  0  0  0  0  0  0  0  0  0  0
   37.5151   21.3789   33.7111 H   0  0  0  0  0  0  0  0  0  0  0  0
   38.1234   21.0246   31.1148 H   0  0  0  0  0  0  0  0  0  0  0  0
   40.6510   21.5642   30.8489 H   0  0  0  0  0  0  0  0  0  0  0  0
   37.1065   24.6653   36.9014 H   0  0  0  0  0  0  0  0  0  0  0  0
   36.6789   23.2763   37.9120 H   0  0  0  0  0  0  0  0  0  0  0  0
   37.6648   24.2126   39.7907 H   0  0  0  0  0  0  0  0  0  0  0  0
   39.1045   24.7511   38.8612 H   0  0  0  0  0  0  0  0  0  0  0  0
   37.6108   25.7488   38.8612 H   0  0  0  0  0  0  0  0  0  0  0  0
  1  2  2  0
  3 12  1  0
  3  2  1  0
  4  3  2  0
  5  4  1  0
  5  6  2  0
  6  1  1  0
  7  5  1  0
  8  7  1  0
  9  8  2  0
 10  9  1  0
 10 11  1  0
 11  7  2  0
 12 13  1  0
  1 14  1  0
  2 15  1  0
  8 16  1  0
  9 17  1  0
 10 18  1  0
 12 19  1  0
 12 20  1  0
 13 21  1  0
 13 22  1  0
 13 23  1  0
M  ISO  8  14  14  15  14  16  14  17  14  18   9  19   8  20   8  21   8
M  ISO  2  22   8  23   8
M  END
>  <minimizedAffinity>  (1) 
-3.19612789

>  <minimizedRMSD>  (1) 
0.844315171

$$$$
