
     RDKit          3D

 29 30  0  0  0  0  0  0  0  0999 V2000
   40.8070   22.1400   37.4230 C   0  0  0  0  0  0  0  0  0  0  0  0
   39.7190   22.8730   37.9390 C   0  0  0  0  0  0  0  0  0  0  0  0
   38.7580   23.2860   37.0060 C   0  0  0  0  0  0  0  0  0  0  0  0
   38.9040   22.9760   35.6860 N   0  0  0  0  0  0  0  0  0  0  0  0
   39.9820   22.2630   35.2550 C   0  0  0  0  0  0  0  0  0  0  0  0
   40.9150   21.8530   36.1090 N   0  0  0  0  0  0  0  0  0  0  0  0
   40.1160   21.9420   33.8320 C   0  0  0  0  0  0  0  0  0  0  0  0
   40.5090   23.1070   32.9600 C   0  0  0  0  0  0  0  0  0  0  0  0
   39.6890   23.0000   31.6840 C   0  0  0  0  0  0  0  0  0  0  0  0
   39.1970   21.5710   31.7480 C   0  0  0  0  0  0  0  0  0  0  0  0
   38.7920   21.4920   33.2130 C   0  0  0  0  0  0  0  0  0  0  0  0
   37.5860   24.0690   37.5110 C   0  0  0  0  0  0  0  0  0  0  0  0
   37.9960   24.6650   38.8450 C   0  0  0  0  0  0  0  0  0  0  0  0
   41.5909   21.7918   38.1117 H   0  0  0  0  0  0  0  0  0  0  0  0
   39.6295   23.1069   39.0101 H   0  0  0  0  0  0  0  0  0  0  0  0
   40.8931   21.1636   33.8453 H   0  0  0  0  0  0  0  0  0  0  0  0
   40.2885   24.0548   33.4730 H   0  0  0  0  0  0  0  0  0  0  0  0
   41.5863   23.0872   32.7385 H   0  0  0  0  0  0  0  0  0  0  0  0
   40.3115   23.1693   30.7930 H   0  0  0  0  0  0  0  0  0  0  0  0
   38.8828   23.7447   31.6101 H   0  0  0  0  0  0  0  0  0  0  0  0
   38.3401   21.4046   31.0787 H   0  0  0  0  0  0  0  0  0  0  0  0
   39.9306   20.8154   31.4303 H   0  0  0  0  0  0  0  0  0  0  0  0
   37.9665   22.1781   33.4534 H   0  0  0  0  0  0  0  0  0  0  0  0
   38.4092   20.5186   33.5534 H   0  0  0  0  0  0  0  0  0  0  0  0
   37.3318   24.8698   36.8010 H   0  0  0  0  0  0  0  0  0  0  0  0
   36.7010   23.4253   37.6226 H   0  0  0  0  0  0  0  0  0  0  0  0
   37.5784   24.0579   39.6617 H   0  0  0  0  0  0  0  0  0  0  0  0
   39.0934   24.6755   38.9201 H   0  0  0  0  0  0  0  0  0  0  0  0
   37.6135   25.6936   38.9201 H   0  0  0  0  0  0  0  0  0  0  0  0
  1  2  2  0
  3 12  1  0
  3  2  1  0
  4  3  2  0
  5  4  1  0
  5  6  2  0
  6  1  1  0
  7  5  1  0
  8  7  1  0
  9 10  1  0
  9  8  1  0
 10 11  1  0
 11  7  1  0
 12 13  1  0
  1 14  1  0
  2 15  1  0
  7 16  1  0
  8 17  1  0
  8 18  1  0
  9 19  1  0
  9 20  1  0
 10 21  1  0
 10 22  1  0
 11 23  1  0
 11 24  1  0
 12 25  1  0
 12 26  1  0
 13 27  1  0
 13 28  1  0
 13 29  1  0
M  ISO  8  14  14  15  14  16  13  17  13  18  13  19  13  20  13  21  13
M  ISO  8  22  13  23  13  24  13  25   8  26   8  27   8  28   8  29   8
M  END
>  <minimizedAffinity>  (1) 
-3.22456694

>  <minimizedRMSD>  (1) 
0.558212876

$$$$
