
     RDKit          3D

 24 25  0  0  0  0  0  0  0  0999 V2000
   40.8140   22.1780   37.4200 C   0  0  0  0  0  0  0  0  0  0  0  0
   39.7080   22.9020   37.8790 C   0  0  0  0  0  0  0  0  0  0  0  0
   38.6940   23.2850   37.0180 C   0  0  0  0  0  0  0  0  0  0  0  0
   38.8260   22.9260   35.7090 N   0  0  0  0  0  0  0  0  0  0  0  0
   39.8920   22.2300   35.2790 C   0  0  0  0  0  0  0  0  0  0  0  0
   40.8590   21.8670   36.1130 N   0  0  0  0  0  0  0  0  0  0  0  0
   39.9670   21.8760   33.8560 C   0  0  0  0  0  0  0  0  0  0  0  0
   38.8150   21.5080   33.1800 C   0  0  0  0  0  0  0  0  0  0  0  0
   38.8750   21.1740   31.8440 C   0  0  0  0  0  0  0  0  0  0  0  0
   40.0720   21.2200   31.2370 N   0  0  0  0  0  0  0  0  0  0  0  0
   41.1960   21.5820   31.9010 C   0  0  0  0  0  0  0  0  0  0  0  0
   41.1470   21.9100   33.2070 N   0  0  0  0  0  0  0  0  0  0  0  0
   37.5480   24.0520   37.5690 C   0  0  0  0  0  0  0  0  0  0  0  0
   38.0130   24.6790   38.8690 C   0  0  0  0  0  0  0  0  0  0  0  0
   41.6190   21.8738   38.1052 H   0  0  0  0  0  0  0  0  0  0  0  0
   39.6432   23.1717   38.9434 H   0  0  0  0  0  0  0  0  0  0  0  0
   37.8514   21.4823   33.7100 H   0  0  0  0  0  0  0  0  0  0  0  0
   37.9704   20.8789   31.2921 H   0  0  0  0  0  0  0  0  0  0  0  0
   42.1583   21.6084   31.3687 H   0  0  0  0  0  0  0  0  0  0  0  0
   37.2432   24.8359   36.8601 H   0  0  0  0  0  0  0  0  0  0  0  0
   36.6832   23.3940   37.7397 H   0  0  0  0  0  0  0  0  0  0  0  0
   37.5958   24.1165   39.7172 H   0  0  0  0  0  0  0  0  0  0  0  0
   39.1117   24.6527   38.9164 H   0  0  0  0  0  0  0  0  0  0  0  0
   37.6689   25.7227   38.9164 H   0  0  0  0  0  0  0  0  0  0  0  0
  1  2  2  0
  3 13  1  0
  3  2  1  0
  4  3  2  0
  5  4  1  0
  5  6  2  0
  6  1  1  0
  7  5  1  0
  8  7  2  0
  9  8  1  0
 10  9  2  0
 10 11  1  0
 11 12  2  0
 12  7  1  0
 13 14  1  0
  1 15  1  0
  2 16  1  0
  8 17  1  0
  9 18  1  0
 11 19  1  0
 13 20  1  0
 13 21  1  0
 14 22  1  0
 14 23  1  0
 14 24  1  0
M  ISO  8  15  14  16  14  17  14  18  14  19  14  20   8  21   8  22   8
M  ISO  2  23   8  24   8
M  END
>  <minimizedAffinity>  (1) 
-3.22568226

>  <minimizedRMSD>  (1) 
0.691758871

$$$$
