
     RDKit          3D

 25 26  0  0  0  0  0  0  0  0999 V2000
   40.8050   22.2300   37.2720 C   0  0  0  0  0  0  0  0  0  0  0  0
   39.7370   22.9060   37.8740 C   0  0  0  0  0  0  0  0  0  0  0  0
   38.6630   23.2240   37.0620 C   0  0  0  0  0  0  0  0  0  0  0  0
   38.6610   22.8840   35.7220 N   0  0  0  0  0  0  0  0  0  0  0  0
   39.7330   22.2300   35.2120 C   0  0  0  0  0  0  0  0  0  0  0  0
   40.7960   21.9010   35.9620 N   0  0  0  0  0  0  0  0  0  0  0  0
   39.7170   21.8770   33.7960 C   0  0  0  0  0  0  0  0  0  0  0  0
   40.8530   22.0050   33.0270 C   0  0  0  0  0  0  0  0  0  0  0  0
   40.8590   21.6730   31.6710 C   0  0  0  0  0  0  0  0  0  0  0  0
   39.6450   21.2110   31.1710 C   0  0  0  0  0  0  0  0  0  0  0  0
   38.4990   21.0790   31.9340 C   0  0  0  0  0  0  0  0  0  0  0  0
   38.5500   21.4190   33.2560 N   0  0  0  0  0  0  0  0  0  0  0  0
   37.4970   23.9410   37.6390 C   0  0  0  0  0  0  0  0  0  0  0  0
   38.0220   24.6880   38.8660 C   0  0  0  0  0  0  0  0  0  0  0  0
   41.6777   21.9586   37.8842 H   0  0  0  0  0  0  0  0  0  0  0  0
   39.7511   23.1715   38.9414 H   0  0  0  0  0  0  0  0  0  0  0  0
   41.7773   22.3777   33.4926 H   0  0  0  0  0  0  0  0  0  0  0  0
   41.7574   21.7695   31.0437 H   0  0  0  0  0  0  0  0  0  0  0  0
   39.5941   20.9349   30.1074 H   0  0  0  0  0  0  0  0  0  0  0  0
   37.5657   20.7079   31.4855 H   0  0  0  0  0  0  0  0  0  0  0  0
   37.0854   24.6514   36.9069 H   0  0  0  0  0  0  0  0  0  0  0  0
   36.6900   23.2437   37.9084 H   0  0  0  0  0  0  0  0  0  0  0  0
   37.6694   24.1864   39.7793 H   0  0  0  0  0  0  0  0  0  0  0  0
   39.1219   24.6910   38.8506 H   0  0  0  0  0  0  0  0  0  0  0  0
   37.6523   25.7239   38.8506 H   0  0  0  0  0  0  0  0  0  0  0  0
  1  2  2  0
  3 13  1  0
  3  2  1  0
  4  3  2  0
  5  4  1  0
  5  6  2  0
  6  1  1  0
  7  5  1  0
  8  7  2  0
  9  8  1  0
 10  9  2  0
 10 11  1  0
 11 12  2  0
 12  7  1  0
 13 14  1  0
  1 15  1  0
  2 16  1  0
  8 17  1  0
  9 18  1  0
 10 19  1  0
 11 20  1  0
 13 21  1  0
 13 22  1  0
 14 23  1  0
 14 24  1  0
 14 25  1  0
M  ISO  8  15  14  16  14  17  14  18  14  19  14  20  14  21   8  22   8
M  ISO  3  23   8  24   8  25   8
M  END
>  <minimizedAffinity>  (1) 
-3.2400136

>  <minimizedRMSD>  (1) 
0.937967658

$$$$
