
     RDKit          3D

 25 25  0  0  0  0  0  0  0  0999 V2000
   40.8290   22.0990   37.4770 C   0  0  0  0  0  0  0  0  0  0  0  0
   39.7210   22.8640   37.8840 C   0  0  0  0  0  0  0  0  0  0  0  0
   38.8390   23.3340   36.9010 C   0  0  0  0  0  0  0  0  0  0  0  0
   39.1010   23.0260   35.5970 N   0  0  0  0  0  0  0  0  0  0  0  0
   40.1850   22.2830   35.2480 C   0  0  0  0  0  0  0  0  0  0  0  0
   41.0260   21.8330   36.1720 N   0  0  0  0  0  0  0  0  0  0  0  0
   37.6650   24.1420   37.3120 C   0  0  0  0  0  0  0  0  0  0  0  0
   37.9210   24.5700   38.7520 C   0  0  0  0  0  0  0  0  0  0  0  0
   40.3870   21.9990   33.7990 C   0  0  0  0  0  0  0  0  0  0  0  0
   39.1220   21.4710   33.1490 C   0  0  0  0  0  0  0  0  0  0  0  0
   41.5570   21.0950   33.5290 C   0  0  0  0  0  0  0  0  0  0  0  0
   41.5368   21.7169   38.2273 H   0  0  0  0  0  0  0  0  0  0  0  0
   39.5508   23.0879   38.9474 H   0  0  0  0  0  0  0  0  0  0  0  0
   37.5655   25.0255   36.6643 H   0  0  0  0  0  0  0  0  0  0  0  0
   36.7331   23.5637   37.2272 H   0  0  0  0  0  0  0  0  0  0  0  0
   37.4796   23.8320   39.4379 H   0  0  0  0  0  0  0  0  0  0  0  0
   39.0049   24.6325   38.9288 H   0  0  0  0  0  0  0  0  0  0  0  0
   37.4633   25.5545   38.9288 H   0  0  0  0  0  0  0  0  0  0  0  0
   40.6303   22.9662   33.3349 H   0  0  0  0  0  0  0  0  0  0  0  0
   38.4062   21.1722   33.9290 H   0  0  0  0  0  0  0  0  0  0  0  0
   38.6753   22.2578   32.5234 H   0  0  0  0  0  0  0  0  0  0  0  0
   39.3672   20.6001   32.5234 H   0  0  0  0  0  0  0  0  0  0  0  0
   41.9899   20.7606   34.4834 H   0  0  0  0  0  0  0  0  0  0  0  0
   41.2196   20.2207   32.9530 H   0  0  0  0  0  0  0  0  0  0  0  0
   42.3179   21.6421   32.9530 H   0  0  0  0  0  0  0  0  0  0  0  0
  1  2  2  0
  3  7  1  0
  3  2  1  0
  4  3  2  0
  5  4  1  0
  5  6  2  0
  6  1  1  0
  7  8  1  0
  9  5  1  0
 10  9  1  0
 11  9  1  0
  1 12  1  0
  2 13  1  0
  7 14  1  0
  7 15  1  0
  8 16  1  0
  8 17  1  0
  8 18  1  0
  9 19  1  0
 10 20  1  0
 10 21  1  0
 10 22  1  0
 11 23  1  0
 11 24  1  0
 11 25  1  0
M  ISO  8  12  14  13  14  14   8  15   8  16   8  17   8  18   8  19   8
M  ISO  6  20   8  21   8  22   8  23   8  24   8  25   8
M  END
>  <minimizedAffinity>  (1) 
-3.07570076

>  <minimizedRMSD>  (1) 
0.284272224

$$$$
