
     RDKit          3D

 18 18  0  0  0  0  0  0  0  0999 V2000
   40.7980   22.1260   37.4320 C   0  0  0  0  0  0  0  0  0  0  0  0
   39.7270   22.9010   37.8950 C   0  0  0  0  0  0  0  0  0  0  0  0
   38.8000   23.3300   36.9360 C   0  0  0  0  0  0  0  0  0  0  0  0
   38.9730   22.9830   35.6080 N   0  0  0  0  0  0  0  0  0  0  0  0
   40.0290   22.2340   35.2430 C   0  0  0  0  0  0  0  0  0  0  0  0
   40.9260   21.8120   36.1270 N   0  0  0  0  0  0  0  0  0  0  0  0
   37.6390   24.1570   37.3570 C   0  0  0  0  0  0  0  0  0  0  0  0
   37.9350   24.6010   38.7890 C   0  0  0  0  0  0  0  0  0  0  0  0
   40.1720   21.8920   33.8320 C   0  0  0  0  0  0  0  0  0  0  0  0
   39.2420   21.3380   33.1890 O   0  0  0  0  0  0  0  0  0  0  0  0
   41.5509   21.7658   38.1485 H   0  0  0  0  0  0  0  0  0  0  0  0
   39.6191   23.1599   38.9586 H   0  0  0  0  0  0  0  0  0  0  0  0
   37.5349   25.0325   36.6992 H   0  0  0  0  0  0  0  0  0  0  0  0
   36.6981   23.5904   37.2973 H   0  0  0  0  0  0  0  0  0  0  0  0
   37.4670   23.8989   39.4947 H   0  0  0  0  0  0  0  0  0  0  0  0
   39.0229   24.6136   38.9515 H   0  0  0  0  0  0  0  0  0  0  0  0
   37.5283   25.6100   38.9515 H   0  0  0  0  0  0  0  0  0  0  0  0
   41.1159   22.1239   33.3170 H   0  0  0  0  0  0  0  0  0  0  0  0
  1  2  2  0
  3  7  1  0
  3  2  1  0
  4  3  2  0
  5  4  1  0
  5  6  2  0
  6  1  1  0
  7  8  1  0
  9  5  1  0
 10  9  2  0
  1 11  1  0
  2 12  1  0
  7 13  1  0
  7 14  1  0
  8 15  1  0
  8 16  1  0
  8 17  1  0
  9 18  1  0
M  ISO  8  11  14  12  14  13   8  14   8  15   8  16   8  17   8  18   6
M  END
>  <minimizedAffinity>  (1) 
-2.96268988

>  <minimizedRMSD>  (1) 
0.329745442

$$$$
