
     RDKit          3D

 22 22  0  0  0  0  0  0  0  0999 V2000
   40.8290   22.1210   37.4710 C   0  0  0  0  0  0  0  0  0  0  0  0
   39.7140   22.8890   37.8330 C   0  0  0  0  0  0  0  0  0  0  0  0
   38.8090   23.3140   36.8760 C   0  0  0  0  0  0  0  0  0  0  0  0
   39.0430   22.9590   35.5830 N   0  0  0  0  0  0  0  0  0  0  0  0
   40.1280   22.2120   35.2410 C   0  0  0  0  0  0  0  0  0  0  0  0
   41.0040   21.8030   36.1750 N   0  0  0  0  0  0  0  0  0  0  0  0
   37.6520   24.1220   37.3270 C   0  0  0  0  0  0  0  0  0  0  0  0
   37.9350   24.5550   38.7520 C   0  0  0  0  0  0  0  0  0  0  0  0
   40.2710   21.8890   33.7770 C   0  0  0  0  0  0  0  0  0  0  0  0
   38.8920   21.5840   33.2510 C   0  0  0  0  0  0  0  0  0  0  0  0
   41.5481   21.7842   38.2323 H   0  0  0  0  0  0  0  0  0  0  0  0
   39.5566   23.1567   38.8883 H   0  0  0  0  0  0  0  0  0  0  0  0
   37.5344   25.0048   36.6813 H   0  0  0  0  0  0  0  0  0  0  0  0
   36.7226   23.5359   37.2745 H   0  0  0  0  0  0  0  0  0  0  0  0
   37.4701   23.8437   39.4505 H   0  0  0  0  0  0  0  0  0  0  0  0
   39.0219   24.5764   38.9197 H   0  0  0  0  0  0  0  0  0  0  0  0
   37.5183   25.5591   38.9197 H   0  0  0  0  0  0  0  0  0  0  0  0
   40.6969   22.7500   33.2410 H   0  0  0  0  0  0  0  0  0  0  0  0
   40.9434   21.0309   33.6304 H   0  0  0  0  0  0  0  0  0  0  0  0
   38.2031   21.4316   34.0949 H   0  0  0  0  0  0  0  0  0  0  0  0
   38.5392   22.4258   32.6371 H   0  0  0  0  0  0  0  0  0  0  0  0
   38.9272   20.6719   32.6371 H   0  0  0  0  0  0  0  0  0  0  0  0
  1  2  2  0
  3  7  1  0
  3  2  1  0
  4  3  2  0
  5  4  1  0
  5  6  2  0
  6  1  1  0
  7  8  1  0
  9  5  1  0
 10  9  1  0
  1 11  1  0
  2 12  1  0
  7 13  1  0
  7 14  1  0
  8 15  1  0
  8 16  1  0
  8 17  1  0
  9 18  1  0
  9 19  1  0
 10 20  1  0
 10 21  1  0
 10 22  1  0
M  ISO  8  11  14  12  14  13   8  14   8  15   8  16   8  17   8  18   8
M  ISO  4  19   8  20   8  21   8  22   8
M  END
>  <minimizedAffinity>  (1) 
-2.97585464

>  <minimizedRMSD>  (1) 
0.374056458

$$$$
