
     RDKit          3D

 19 19  0  0  0  0  0  0  0  0999 V2000
   40.8090   22.1300   37.4550 C   0  0  0  0  0  0  0  0  0  0  0  0
   39.7280   22.8990   37.8980 C   0  0  0  0  0  0  0  0  0  0  0  0
   38.8230   23.3170   36.9390 C   0  0  0  0  0  0  0  0  0  0  0  0
   39.0120   22.9740   35.6270 N   0  0  0  0  0  0  0  0  0  0  0  0
   40.0680   22.2320   35.2480 C   0  0  0  0  0  0  0  0  0  0  0  0
   40.9500   21.8180   36.1510 N   0  0  0  0  0  0  0  0  0  0  0  0
   37.6580   24.1380   37.3620 C   0  0  0  0  0  0  0  0  0  0  0  0
   37.9330   24.5990   38.7850 C   0  0  0  0  0  0  0  0  0  0  0  0
   40.2210   21.8940   33.8390 C   0  0  0  0  0  0  0  0  0  0  0  0
   41.2890   22.1560   33.1920 O   0  0  0  0  0  0  0  0  0  0  0  0
   39.2260   21.2730   33.1190 O   0  0  0  0  0  0  0  0  0  0  0  0
   41.5550   21.7746   38.1811 H   0  0  0  0  0  0  0  0  0  0  0  0
   39.6033   23.1593   38.9595 H   0  0  0  0  0  0  0  0  0  0  0  0
   37.5475   25.0078   36.6977 H   0  0  0  0  0  0  0  0  0  0  0  0
   36.7270   23.5544   37.3111 H   0  0  0  0  0  0  0  0  0  0  0  0
   37.5022   23.8768   39.4941 H   0  0  0  0  0  0  0  0  0  0  0  0
   39.0192   24.6667   38.9451 H   0  0  0  0  0  0  0  0  0  0  0  0
   37.4765   25.5869   38.9451 H   0  0  0  0  0  0  0  0  0  0  0  0
   39.3668   21.0591   32.1627 H   0  0  0  0  0  0  0  0  0  0  0  0
  1  2  2  0
  3  7  1  0
  3  2  1  0
  4  3  2  0
  5  4  1  0
  5  6  2  0
  6  1  1  0
  7  8  1  0
  9  5  1  0
 10  9  2  0
 11  9  1  0
  1 12  1  0
  2 13  1  0
  7 14  1  0
  7 15  1  0
  8 16  1  0
  8 17  1  0
  8 18  1  0
 11 19  1  0
M  ISO  8  12  14  13  14  14   8  15   8  16   8  17   8  18   8  19   3
M  END
>  <minimizedAffinity>  (1) 
-3.02031016

>  <minimizedRMSD>  (1) 
0.502593517

$$$$
