
     RDKit          3D

 22 24  0  0  0  0  0  0  0  0999 V2000
   39.6260   25.7830   34.5830 C   0  0  0  0  0  0  0  0  0  0  0  0
   40.7010   26.6440   34.7470 C   0  0  0  0  0  0  0  0  0  0  0  0
   40.7840   27.3390   33.5930 N   0  0  0  0  0  0  0  0  0  0  0  0
   39.7970   26.8950   32.7970 C   0  0  0  0  0  0  0  0  0  0  0  0
   39.0520   25.9200   33.3860 N   0  0  0  0  0  0  0  0  0  0  0  0
   37.9390   25.2420   32.8190 C   0  0  0  0  0  0  0  0  0  0  0  0
   36.6890   25.6420   32.5200 N   0  0  0  0  0  0  0  0  0  0  0  0
   36.0100   24.6450   32.0050 O   0  0  0  0  0  0  0  0  0  0  0  0
   36.8060   23.6130   31.9700 C   0  0  0  0  0  0  0  0  0  0  0  0
   38.0300   23.9480   32.4740 N   0  0  0  0  0  0  0  0  0  0  0  0
   39.1560   24.8320   35.5810 C   0  0  0  0  0  0  0  0  0  0  0  0
   39.8400   23.6310   35.7860 C   0  0  0  0  0  0  0  0  0  0  0  0
   39.3680   22.7330   36.7540 C   0  0  0  0  0  0  0  0  0  0  0  0
   38.2580   23.0930   37.4440 N   0  0  0  0  0  0  0  0  0  0  0  0
   37.6090   24.2630   37.2300 C   0  0  0  0  0  0  0  0  0  0  0  0
   38.0600   25.1190   36.3070 N   0  0  0  0  0  0  0  0  0  0  0  0
   41.3489   26.7401   35.6307 H   0  0  0  0  0  0  0  0  0  0  0  0
   39.6116   27.2769   31.7822 H   0  0  0  0  0  0  0  0  0  0  0  0
   36.5316   22.6179   31.5900 H   0  0  0  0  0  0  0  0  0  0  0  0
   40.7371   23.3930   35.1957 H   0  0  0  0  0  0  0  0  0  0  0  0
   39.8769   21.7768   36.9454 H   0  0  0  0  0  0  0  0  0  0  0  0
   36.7109   24.5087   37.8157 H   0  0  0  0  0  0  0  0  0  0  0  0
  1  2  2  0
  1 11  1  0
  3  2  1  0
  4  5  1  0
  4  3  2  0
  5  1  1  0
  6  5  1  0
  7  6  2  0
  8  7  1  0
  9  8  1  0
  9 10  2  0
 10  6  1  0
 11 12  2  0
 11 16  1  0
 12 13  1  0
 13 14  2  0
 15 14  1  0
 16 15  2  0
  2 17  1  0
  4 18  1  0
  9 19  1  0
 12 20  1  0
 13 21  1  0
 15 22  1  0
M  ISO  6  17  14  18  14  19  14  20  14  21  14  22  14
M  END
>  <minimizedAffinity>  (1) 
-4.04665995

>  <minimizedRMSD>  (1) 
5.50560665

$$$$
