
     RDKit          3D

 17 17  0  0  0  0  0  0  0  0999 V2000
   40.8560   22.0480   37.5280 C   0  0  0  0  0  0  0  0  0  0  0  0
   39.7480   22.8560   37.8680 C   0  0  0  0  0  0  0  0  0  0  0  0
   38.9380   23.3360   36.8510 C   0  0  0  0  0  0  0  0  0  0  0  0
   39.2370   23.0130   35.5580 N   0  0  0  0  0  0  0  0  0  0  0  0
   40.3000   22.2410   35.2640 C   0  0  0  0  0  0  0  0  0  0  0  0
   41.1070   21.7570   36.2210 N   0  0  0  0  0  0  0  0  0  0  0  0
   37.7780   24.1840   37.2310 C   0  0  0  0  0  0  0  0  0  0  0  0
   37.9190   24.5260   38.7000 C   0  0  0  0  0  0  0  0  0  0  0  0
   40.6020   21.8770   33.5390 S   0  0  0  0  0  0  0  0  0  0  0  0
   41.5144   21.6549   38.3167 H   0  0  0  0  0  0  0  0  0  0  0  0
   39.5325   23.0993   38.9189 H   0  0  0  0  0  0  0  0  0  0  0  0
   37.7750   25.1056   36.6304 H   0  0  0  0  0  0  0  0  0  0  0  0
   36.8340   23.6495   37.0488 H   0  0  0  0  0  0  0  0  0  0  0  0
   37.5698   23.6790   39.3088 H   0  0  0  0  0  0  0  0  0  0  0  0
   38.9751   24.7313   38.9289 H   0  0  0  0  0  0  0  0  0  0  0  0
   37.3144   25.4160   38.9289 H   0  0  0  0  0  0  0  0  0  0  0  0
   41.4745   20.8254   33.4401 H   0  0  0  0  0  0  0  0  0  0  0  0
  1  2  2  0
  3  7  1  0
  3  2  1  0
  4  3  2  0
  5  4  1  0
  5  6  2  0
  6  1  1  0
  7  8  1  0
  9  5  1  0
  1 10  1  0
  2 11  1  0
  7 12  1  0
  7 13  1  0
  8 14  1  0
  8 15  1  0
  8 16  1  0
  9 17  1  0
M  ISO  8  10  14  11  14  12   8  13   8  14   8  15   8  16   8  17  11
M  END
>  <minimizedAffinity>  (1) 
-2.95376611

>  <minimizedRMSD>  (1) 
0.0918537453

$$$$
