
     RDKit          3D

 30 32  0  0  0  0  0  0  0  0999 V2000
   40.2420   22.5140   37.8940 C   0  0  0  0  0  0  0  0  0  0  0  0
   39.2230   23.4210   37.6510 C   0  0  0  0  0  0  0  0  0  0  0  0
   38.8660   23.7910   36.3770 C   0  0  0  0  0  0  0  0  0  0  0  0
   39.5850   23.2040   35.3730 N   0  0  0  0  0  0  0  0  0  0  0  0
   40.5680   22.3300   35.6180 C   0  0  0  0  0  0  0  0  0  0  0  0
   40.9020   21.9810   36.8440 N   0  0  0  0  0  0  0  0  0  0  0  0
   41.3000   21.7350   34.5380 C   0  0  0  0  0  0  0  0  0  0  0  0
   42.5190   21.2490   34.2500 C   0  0  0  0  0  0  0  0  0  0  0  0
   42.8700   20.7430   33.0650 C   0  0  0  0  0  0  0  0  0  0  0  0
   41.7720   20.7730   32.0900 C   0  0  0  0  0  0  0  0  0  0  0  0
   40.3830   21.5380   33.0520 S   0  0  0  0  0  0  0  0  0  0  0  0
   37.7670   24.7670   36.1690 C   0  0  0  0  0  0  0  0  0  0  0  0
   38.3460   26.1450   36.4190 C   0  0  0  0  0  0  0  0  0  0  0  0
   39.0060   26.5690   35.1330 C   0  0  0  0  0  0  0  0  0  0  0  0
   38.4190   26.7250   33.9060 C   0  0  0  0  0  0  0  0  0  0  0  0
   39.3540   27.1290   32.9620 C   0  0  0  0  0  0  0  0  0  0  0  0
   40.5130   27.2070   33.6690 N   0  0  0  0  0  0  0  0  0  0  0  0
   40.2870   26.8780   34.9240 N   0  0  0  0  0  0  0  0  0  0  0  0
   40.5082   22.2334   38.9238 H   0  0  0  0  0  0  0  0  0  0  0  0
   38.6835   23.8581   38.5042 H   0  0  0  0  0  0  0  0  0  0  0  0
   43.2797   21.2693   35.0443 H   0  0  0  0  0  0  0  0  0  0  0  0
   43.8720   20.3470   32.8434 H   0  0  0  0  0  0  0  0  0  0  0  0
   41.7732   20.4268   31.0459 H   0  0  0  0  0  0  0  0  0  0  0  0
   37.3895   24.6970   35.1382 H   0  0  0  0  0  0  0  0  0  0  0  0
   36.9273   24.5642   36.8501 H   0  0  0  0  0  0  0  0  0  0  0  0
   37.5460   26.8509   36.6867 H   0  0  0  0  0  0  0  0  0  0  0  0
   39.0659   26.1301   37.2506 H   0  0  0  0  0  0  0  0  0  0  0  0
   37.3528   26.5538   33.6966 H   0  0  0  0  0  0  0  0  0  0  0  0
   39.1946   27.3370   31.8937 H   0  0  0  0  0  0  0  0  0  0  0  0
   41.4274   27.4813   33.2823 H   0  0  0  0  0  0  0  0  0  0  0  0
  2  1  2  0
  3  2  1  0
  4  5  1  0
  4  3  2  0
  5  6  2  0
  6  1  1  0
  7  5  1  0
  8  7  2  0
  9  8  1  0
 10 11  1  0
 10  9  2  0
 11  7  1  0
 12  3  1  0
 12 13  1  0
 14 13  1  0
 15 14  1  0
 16 17  1  0
 16 15  2  0
 17 18  1  0
 18 14  2  0
  1 19  1  0
  2 20  1  0
  8 21  1  0
  9 22  1  0
 10 23  1  0
 12 24  1  0
 12 25  1  0
 13 26  1  0
 13 27  1  0
 15 28  1  0
 16 29  1  0
 17 30  1  0
M  ISO  8  19  14  20  14  21  14  22  14  23  14  24   8  25   8  26   8
M  ISO  4  27   8  28  14  29  14  30   9
M  END
>  <minimizedAffinity>  (1) 
-3.51777387

>  <minimizedRMSD>  (1) 
3.85133982

$$$$
