
     RDKit          3D

 24 26  0  0  0  0  0  0  0  0999 V2000
   38.9970   24.2530   34.1870 C   0  0  0  0  0  0  0  0  0  0  0  0
   39.8420   25.2080   33.6650 C   0  0  0  0  0  0  0  0  0  0  0  0
   39.6170   25.1730   32.3150 N   0  0  0  0  0  0  0  0  0  0  0  0
   38.6870   24.2350   32.1000 C   0  0  0  0  0  0  0  0  0  0  0  0
   38.2780   23.6420   33.2420 N   0  0  0  0  0  0  0  0  0  0  0  0
   38.8810   23.9240   35.6030 C   0  0  0  0  0  0  0  0  0  0  0  0
   39.8400   23.0760   36.2050 C   0  0  0  0  0  0  0  0  0  0  0  0
   39.7060   22.7760   37.5710 C   0  0  0  0  0  0  0  0  0  0  0  0
   38.6550   23.3230   38.2350 N   0  0  0  0  0  0  0  0  0  0  0  0
   37.7640   24.1220   37.6360 C   0  0  0  0  0  0  0  0  0  0  0  0
   37.8590   24.4340   36.3290 N   0  0  0  0  0  0  0  0  0  0  0  0
   37.3090   22.6250   33.2910 C   0  0  0  0  0  0  0  0  0  0  0  0
   37.0890   21.6500   34.1820 C   0  0  0  0  0  0  0  0  0  0  0  0
   36.0810   20.7680   34.0260 C   0  0  0  0  0  0  0  0  0  0  0  0
   35.2840   20.9320   32.8870 C   0  0  0  0  0  0  0  0  0  0  0  0
   36.0260   22.4330   31.9940 S   0  0  0  0  0  0  0  0  0  0  0  0
   40.5428   25.8557   34.2122 H   0  0  0  0  0  0  0  0  0  0  0  0
   38.2990   23.9760   31.1038 H   0  0  0  0  0  0  0  0  0  0  0  0
   40.6718   22.6609   35.6169 H   0  0  0  0  0  0  0  0  0  0  0  0
   40.4262   22.1218   38.0841 H   0  0  0  0  0  0  0  0  0  0  0  0
   36.9325   24.5346   38.2262 H   0  0  0  0  0  0  0  0  0  0  0  0
   37.7452   21.5667   35.0609 H   0  0  0  0  0  0  0  0  0  0  0  0
   35.8953   19.9641   34.7535 H   0  0  0  0  0  0  0  0  0  0  0  0
   34.4197   20.3256   32.5782 H   0  0  0  0  0  0  0  0  0  0  0  0
  1  6  1  0
  2  1  2  0
  3  2  1  0
  4  3  2  0
  4  5  1  0
  5 12  1  0
  5  1  1  0
  6  7  2  0
  6 11  1  0
  7  8  1  0
  8  9  2  0
 10  9  1  0
 11 10  2  0
 12 13  2  0
 14 13  1  0
 15 14  2  0
 16 15  1  0
 16 12  1  0
  2 17  1  0
  4 18  1  0
  7 19  1  0
  8 20  1  0
 10 21  1  0
 13 22  1  0
 14 23  1  0
 15 24  1  0
M  ISO  8  17  14  18  14  19  14  20  14  21  14  22  14  23  14  24  14
M  END
>  <minimizedAffinity>  (1) 
-3.94769096

>  <minimizedRMSD>  (1) 
3.75495815

$$$$
