
     RDKit          3D

 37 39  0  0  0  0  0  0  0  0999 V2000
   39.2720   23.1570   37.9750 C   0  0  0  0  0  0  0  0  0  0  0  0
   38.6090   23.5700   36.8220 C   0  0  0  0  0  0  0  0  0  0  0  0
   39.0350   23.1970   35.5730 C   0  0  0  0  0  0  0  0  0  0  0  0
   40.1370   22.4060   35.5390 N   0  0  0  0  0  0  0  0  0  0  0  0
   40.7780   22.0060   36.6420 C   0  0  0  0  0  0  0  0  0  0  0  0
   40.3580   22.3710   37.8330 N   0  0  0  0  0  0  0  0  0  0  0  0
   41.9350   21.1700   36.5720 C   0  0  0  0  0  0  0  0  0  0  0  0
   42.6560   20.3210   37.3170 C   0  0  0  0  0  0  0  0  0  0  0  0
   43.7510   19.6780   36.8900 C   0  0  0  0  0  0  0  0  0  0  0  0
   44.0860   19.9920   35.5260 C   0  0  0  0  0  0  0  0  0  0  0  0
   42.7570   21.1990   35.0200 S   0  0  0  0  0  0  0  0  0  0  0  0
   38.2920   23.6540   34.3870 C   0  0  0  0  0  0  0  0  0  0  0  0
   37.8710   25.0840   34.6120 C   0  0  0  0  0  0  0  0  0  0  0  0
   38.5670   26.0450   33.7990 N   0  0  0  0  0  0  0  0  0  0  0  0
   37.6490   27.0890   33.4030 C   0  0  0  0  0  0  0  0  0  0  0  0
   36.8910   27.6900   34.5590 C   0  0  0  0  0  0  0  0  0  0  0  0
   37.7230   28.0600   35.6530 N   0  0  0  0  0  0  0  0  0  0  0  0
   38.8500   27.2380   35.9190 C   0  0  0  0  0  0  0  0  0  0  0  0
   39.5360   26.7010   34.6780 C   0  0  0  0  0  0  0  0  0  0  0  0
   38.9202   23.4629   38.9713 H   0  0  0  0  0  0  0  0  0  0  0  0
   37.7207   24.2120   36.9156 H   0  0  0  0  0  0  0  0  0  0  0  0
   42.3260   20.1395   38.3505 H   0  0  0  0  0  0  0  0  0  0  0  0
   44.3320   18.9841   37.5152 H   0  0  0  0  0  0  0  0  0  0  0  0
   44.9252   19.6112   34.9254 H   0  0  0  0  0  0  0  0  0  0  0  0
   37.4027   23.0235   34.2399 H   0  0  0  0  0  0  0  0  0  0  0  0
   38.9276   23.5832   33.4920 H   0  0  0  0  0  0  0  0  0  0  0  0
   36.7958   25.1641   34.3942 H   0  0  0  0  0  0  0  0  0  0  0  0
   38.1166   25.3219   35.6575 H   0  0  0  0  0  0  0  0  0  0  0  0
   38.2215   27.8876   32.9086 H   0  0  0  0  0  0  0  0  0  0  0  0
   36.9076   26.6318   32.7312 H   0  0  0  0  0  0  0  0  0  0  0  0
   36.3659   28.5881   34.2017 H   0  0  0  0  0  0  0  0  0  0  0  0
   36.1973   26.9194   34.9264 H   0  0  0  0  0  0  0  0  0  0  0  0
   38.0704   29.0122   35.4697 H   0  0  0  0  0  0  0  0  0  0  0  0
   39.5817   27.8299   36.4885 H   0  0  0  0  0  0  0  0  0  0  0  0
   38.4795   26.3656   36.4772 H   0  0  0  0  0  0  0  0  0  0  0  0
   40.3050   25.9731   34.9760 H   0  0  0  0  0  0  0  0  0  0  0  0
   39.9970   27.5397   34.1357 H   0  0  0  0  0  0  0  0  0  0  0  0
  2  1  2  0
  3  2  1  0
  4  3  2  0
  4  5  1  0
  5  6  2  0
  6  1  1  0
  7  5  1  0
  7  8  2  0
  9  8  1  0
 10  9  2  0
 11 10  1  0
 11  7  1  0
 12 13  1  0
 12  3  1  0
 14 13  1  0
 14 19  1  0
 15 14  1  0
 15 16  1  0
 16 17  1  0
 17 18  1  0
 19 18  1  0
  1 20  1  0
  2 21  1  0
  8 22  1  0
  9 23  1  0
 10 24  1  0
 12 25  1  0
 12 26  1  0
 13 27  1  0
 13 28  1  0
 15 29  1  0
 15 30  1  0
 16 31  1  0
 16 32  1  0
 17 33  1  0
 18 34  1  0
 18 35  1  0
 19 36  1  0
 19 37  1  0
M  ISO  8  20  14  21  14  22  14  23  14  24  14  25   8  26   8  27   8
M  ISO  8  28   8  29  13  30  13  31  13  32  13  33   5  34  13  35  13
M  ISO  2  36  13  37  13
M  END
>  <minimizedAffinity>  (1) 
-4.40609026

>  <minimizedRMSD>  (1) 
3.72910333

$$$$
