
     RDKit          3D

 24 25  0  0  0  0  0  0  0  0999 V2000
   41.6630   21.7640   37.0820 C   0  0  0  0  0  0  0  0  0  0  0  0
   40.4790   22.3250   37.5400 C   0  0  0  0  0  0  0  0  0  0  0  0
   39.4580   22.6900   36.6960 C   0  0  0  0  0  0  0  0  0  0  0  0
   39.6750   22.4670   35.3760 N   0  0  0  0  0  0  0  0  0  0  0  0
   40.8280   21.9200   34.9370 C   0  0  0  0  0  0  0  0  0  0  0  0
   41.8040   21.5730   35.7520 N   0  0  0  0  0  0  0  0  0  0  0  0
   41.0290   21.6950   33.5290 C   0  0  0  0  0  0  0  0  0  0  0  0
   42.0040   21.7050   32.6060 C   0  0  0  0  0  0  0  0  0  0  0  0
   41.8140   21.4270   31.3130 C   0  0  0  0  0  0  0  0  0  0  0  0
   40.4420   21.1110   30.9940 C   0  0  0  0  0  0  0  0  0  0  0  0
   39.5910   21.2600   32.6400 S   0  0  0  0  0  0  0  0  0  0  0  0
   38.2400   23.2910   37.2770 C   0  0  0  0  0  0  0  0  0  0  0  0
   38.5110   23.5580   38.7420 C   0  0  0  0  0  0  0  0  0  0  0  0
   38.0310   24.8760   38.9620 O   0  0  0  0  0  0  0  0  0  0  0  0
   42.4637   21.4829   37.7819 H   0  0  0  0  0  0  0  0  0  0  0  0
   40.3530   22.4837   38.6212 H   0  0  0  0  0  0  0  0  0  0  0  0
   43.0228   21.9578   32.9348 H   0  0  0  0  0  0  0  0  0  0  0  0
   42.6219   21.4378   30.5665 H   0  0  0  0  0  0  0  0  0  0  0  0
   40.0076   20.8473   30.0184 H   0  0  0  0  0  0  0  0  0  0  0  0
   38.0054   24.2341   36.7617 H   0  0  0  0  0  0  0  0  0  0  0  0
   37.3830   22.6111   37.1619 H   0  0  0  0  0  0  0  0  0  0  0  0
   37.9710   22.8377   39.3741 H   0  0  0  0  0  0  0  0  0  0  0  0
   39.5768   23.4553   38.9939 H   0  0  0  0  0  0  0  0  0  0  0  0
   37.9689   25.0464   39.9352 H   0  0  0  0  0  0  0  0  0  0  0  0
  1  2  2  0
  3 12  1  0
  3  2  1  0
  4  3  2  0
  5  4  1  0
  5  6  2  0
  6  1  1  0
  7  5  1  0
  8  7  2  0
  9  8  1  0
 10  9  2  0
 10 11  1  0
 11  7  1  0
 12 13  1  0
 13 14  1  0
  1 15  1  0
  2 16  1  0
  8 17  1  0
  9 18  1  0
 10 19  1  0
 12 20  1  0
 12 21  1  0
 13 22  1  0
 13 23  1  0
 14 24  1  0
M  ISO  8  15  14  16  14  17  14  18  14  19  14  20   8  21   8  22   8
M  ISO  2  23   8  24   3
M  END
>  <minimizedAffinity>  (1) 
-2.95492101

>  <minimizedRMSD>  (1) 
0.963106394

$$$$
