
     RDKit          3D

 30 31  0  0  0  0  0  0  0  0999 V2000
   40.3020   22.3580   37.8510 C   0  0  0  0  0  0  0  0  0  0  0  0
   39.6310   23.2080   36.9830 C   0  0  0  0  0  0  0  0  0  0  0  0
   40.0120   23.3870   35.6770 C   0  0  0  0  0  0  0  0  0  0  0  0
   41.0920   22.6840   35.2640 N   0  0  0  0  0  0  0  0  0  0  0  0
   41.7400   21.8570   36.1170 C   0  0  0  0  0  0  0  0  0  0  0  0
   41.3650   21.6920   37.3730 N   0  0  0  0  0  0  0  0  0  0  0  0
   42.8840   21.0990   35.6780 C   0  0  0  0  0  0  0  0  0  0  0  0
   44.0920   20.6750   36.0840 C   0  0  0  0  0  0  0  0  0  0  0  0
   44.9180   19.9340   35.3300 C   0  0  0  0  0  0  0  0  0  0  0  0
   44.3880   19.6280   34.0240 C   0  0  0  0  0  0  0  0  0  0  0  0
   42.7260   20.4660   34.0490 S   0  0  0  0  0  0  0  0  0  0  0  0
   39.2430   24.3290   34.8340 C   0  0  0  0  0  0  0  0  0  0  0  0
   38.1510   24.9290   35.6950 C   0  0  0  0  0  0  0  0  0  0  0  0
   37.5360   26.0140   34.8990 N   0  0  0  0  0  0  0  0  0  0  0  0
   37.6160   27.3730   35.2890 C   0  0  0  0  0  0  0  0  0  0  0  0
   38.4780   27.7700   36.1550 N   0  0  0  0  0  0  0  0  0  0  0  0
   36.7470   28.3770   34.7430 N   0  0  0  0  0  0  0  0  0  0  0  0
   39.1540   27.1470   36.6160 H   0  0  0  0  0  0  0  0  0  0  0  0
   39.9744   22.2344   38.8938 H   0  0  0  0  0  0  0  0  0  0  0  0
   38.7572   23.7613   37.3577 H   0  0  0  0  0  0  0  0  0  0  0  0
   44.4240   20.9519   37.0955 H   0  0  0  0  0  0  0  0  0  0  0  0
   45.9051   19.5925   35.6749 H   0  0  0  0  0  0  0  0  0  0  0  0
   44.8508   19.0445   33.2145 H   0  0  0  0  0  0  0  0  0  0  0  0
   39.9051   25.1240   34.4603 H   0  0  0  0  0  0  0  0  0  0  0  0
   38.8089   23.8065   33.9688 H   0  0  0  0  0  0  0  0  0  0  0  0
   37.3987   24.1652   35.9413 H   0  0  0  0  0  0  0  0  0  0  0  0
   38.5574   25.3124   36.6425 H   0  0  0  0  0  0  0  0  0  0  0  0
   37.0333   25.7730   34.0329 H   0  0  0  0  0  0  0  0  0  0  0  0
   36.8342   29.3561   35.0505 H   0  0  0  0  0  0  0  0  0  0  0  0
   36.0364   28.1181   34.0438 H   0  0  0  0  0  0  0  0  0  0  0  0
  2  1  2  0
  3  2  1  0
  4  3  2  0
  4  5  1  0
  5  6  2  0
  6  1  1  0
  7  8  2  0
  7  5  1  0
  9  8  1  0
 10 11  1  0
 10  9  2  0
 11  7  1  0
 12  3  1  0
 12 13  1  0
 14 15  1  0
 14 13  1  0
 15 16  2  0
 16 18  1  0
 17 15  1  0
  1 19  1  0
  2 20  1  0
  8 21  1  0
  9 22  1  0
 10 23  1  0
 12 24  1  0
 12 25  1  0
 13 26  1  0
 13 27  1  0
 14 28  1  0
 17 29  1  0
 17 30  1  0
M  ISO  8  19  14  20  14  21  14  22  14  23  14  24   8  25   8  26   8
M  ISO  1  27   8
M  END
>  <minimizedAffinity>  (1) 
-3.63409019

>  <minimizedRMSD>  (1) 
3.44107938

$$$$
