
     RDKit          3D

 25 26  0  0  0  0  0  0  0  0999 V2000
   41.4330   21.8880   37.1430 C   0  0  0  0  0  0  0  0  0  0  0  0
   40.1920   22.4330   37.5030 C   0  0  0  0  0  0  0  0  0  0  0  0
   39.2430   22.7490   36.5640 C   0  0  0  0  0  0  0  0  0  0  0  0
   39.5590   22.5100   35.2600 N   0  0  0  0  0  0  0  0  0  0  0  0
   40.7660   21.9800   34.9380 C   0  0  0  0  0  0  0  0  0  0  0  0
   41.6840   21.6740   35.8340 N   0  0  0  0  0  0  0  0  0  0  0  0
   41.0810   21.7280   33.5600 C   0  0  0  0  0  0  0  0  0  0  0  0
   42.1150   21.7810   32.7080 C   0  0  0  0  0  0  0  0  0  0  0  0
   42.0420   21.4560   31.4180 C   0  0  0  0  0  0  0  0  0  0  0  0
   40.6900   21.0230   31.0100 C   0  0  0  0  0  0  0  0  0  0  0  0
   39.7280   21.1590   32.5850 S   0  0  0  0  0  0  0  0  0  0  0  0
   37.9670   23.3210   37.0230 C   0  0  0  0  0  0  0  0  0  0  0  0
   38.0240   23.5210   38.5170 C   0  0  0  0  0  0  0  0  0  0  0  0
   37.9550   24.9110   38.9010 N   0  0  0  0  0  0  0  0  0  0  0  0
   42.1834   21.6410   37.9084 H   0  0  0  0  0  0  0  0  0  0  0  0
   39.9738   22.6118   38.5662 H   0  0  0  0  0  0  0  0  0  0  0  0
   43.0872   22.1147   33.0998 H   0  0  0  0  0  0  0  0  0  0  0  0
   42.8983   21.5050   30.7293 H   0  0  0  0  0  0  0  0  0  0  0  0
   40.3419   20.7003   30.0177 H   0  0  0  0  0  0  0  0  0  0  0  0
   37.7981   24.2888   36.5281 H   0  0  0  0  0  0  0  0  0  0  0  0
   37.1430   22.6368   36.7722 H   0  0  0  0  0  0  0  0  0  0  0  0
   37.1777   22.9880   38.9750 H   0  0  0  0  0  0  0  0  0  0  0  0
   38.9912   23.1300   38.8656 H   0  0  0  0  0  0  0  0  0  0  0  0
   37.9514   24.9836   39.9284 H   0  0  0  0  0  0  0  0  0  0  0  0
   38.7721   25.4122   38.5243 H   0  0  0  0  0  0  0  0  0  0  0  0
  1  2  2  0
  3 12  1  0
  3  2  1  0
  4  3  2  0
  5  4  1  0
  5  6  2  0
  6  1  1  0
  7  5  1  0
  8  7  2  0
  9  8  1  0
 10  9  2  0
 10 11  1  0
 11  7  1  0
 12 13  1  0
 13 14  1  0
  1 15  1  0
  2 16  1  0
  8 17  1  0
  9 18  1  0
 10 19  1  0
 12 20  1  0
 12 21  1  0
 13 22  1  0
 13 23  1  0
 14 24  1  0
 14 25  1  0
M  ISO  8  15  14  16  14  17  14  18  14  19  14  20   8  21   8  22   8
M  ISO  3  23   8  24   5  25   5
M  END
>  <minimizedAffinity>  (1) 
-2.84178042

>  <minimizedRMSD>  (1) 
0.922077179

$$$$
