
     RDKit          3D

 24 26  0  0  0  0  0  0  0  0999 V2000
   39.1210   25.2490   34.7670 C   0  0  0  0  0  0  0  0  0  0  0  0
   39.7790   26.4570   34.6100 C   0  0  0  0  0  0  0  0  0  0  0  0
   39.6170   26.8030   33.3130 N   0  0  0  0  0  0  0  0  0  0  0  0
   38.8880   25.8190   32.7490 C   0  0  0  0  0  0  0  0  0  0  0  0
   38.5670   24.8470   33.6200 N   0  0  0  0  0  0  0  0  0  0  0  0
   39.0240   24.4880   36.0150 C   0  0  0  0  0  0  0  0  0  0  0  0
   40.0070   23.5200   36.3040 C   0  0  0  0  0  0  0  0  0  0  0  0
   39.8470   22.8250   37.5310 C   0  0  0  0  0  0  0  0  0  0  0  0
   38.7910   23.1240   38.3270 N   0  0  0  0  0  0  0  0  0  0  0  0
   37.8890   24.0550   37.9970 C   0  0  0  0  0  0  0  0  0  0  0  0
   37.9830   24.7550   36.8410 N   0  0  0  0  0  0  0  0  0  0  0  0
   37.8040   23.6950   33.2810 C   0  0  0  0  0  0  0  0  0  0  0  0
   36.8810   23.7400   32.2560 C   0  0  0  0  0  0  0  0  0  0  0  0
   36.2940   22.5230   32.1360 N   0  0  0  0  0  0  0  0  0  0  0  0
   36.8690   21.7650   33.0840 C   0  0  0  0  0  0  0  0  0  0  0  0
   37.7860   22.4520   33.7910 N   0  0  0  0  0  0  0  0  0  0  0  0
   40.3226   27.0203   35.3827 H   0  0  0  0  0  0  0  0  0  0  0  0
   38.5884   25.8124   31.6906 H   0  0  0  0  0  0  0  0  0  0  0  0
   40.8453   23.3161   35.6216 H   0  0  0  0  0  0  0  0  0  0  0  0
   40.5707   22.0534   37.8324 H   0  0  0  0  0  0  0  0  0  0  0  0
   37.0511   24.2570   38.6805 H   0  0  0  0  0  0  0  0  0  0  0  0
   36.6574   24.6208   31.6362 H   0  0  0  0  0  0  0  0  0  0  0  0
   36.6203   20.7083   33.2617 H   0  0  0  0  0  0  0  0  0  0  0  0
   38.3598   22.0955   34.5685 H   0  0  0  0  0  0  0  0  0  0  0  0
  1  6  1  0
  2  1  2  0
  3  2  1  0
  4  3  2  0
  4  5  1  0
  5  1  1  0
  6  7  2  0
  6 11  1  0
  7  8  1  0
  8  9  2  0
 10  9  1  0
 11 10  2  0
 12  5  1  0
 12 16  1  0
 13 12  2  0
 14 13  1  0
 14 15  2  0
 15 16  1  0
  2 17  1  0
  4 18  1  0
  7 19  1  0
  8 20  1  0
 10 21  1  0
 13 22  1  0
 15 23  1  0
 16 24  1  0
M  ISO  8  17  14  18  14  19  14  20  14  21  14  22  14  23  14  24   9
M  END
>  <minimizedAffinity>  (1) 
-3.89115

>  <minimizedRMSD>  (1) 
4.52623463

$$$$
