
     RDKit          3D

 47 52  0  0  0  0  0  0  0  0999 V2000
   37.2760   27.5440   34.1710 N   0  0  0  0  0  0  0  0  0  0  0  0
   36.2640   28.3770   34.4790 C   0  0  0  0  0  0  0  0  0  0  0  0
   35.8080   28.9490   33.3490 N   0  0  0  0  0  0  0  0  0  0  0  0
   36.5170   28.4930   32.3050 C   0  0  0  0  0  0  0  0  0  0  0  0
   36.5210   28.6990   30.9460 C   0  0  0  0  0  0  0  0  0  0  0  0
   37.4100   28.0510   30.1220 N   0  0  0  0  0  0  0  0  0  0  0  0
   38.2780   27.2050   30.7020 C   0  0  0  0  0  0  0  0  0  0  0  0
   38.3120   26.9720   32.0210 N   0  0  0  0  0  0  0  0  0  0  0  0
   37.4420   27.6050   32.8410 C   0  0  0  0  0  0  0  0  0  0  0  0
   39.2140   26.5160   29.8710 N   0  0  0  0  0  0  0  0  0  0  0  0
   39.8490   25.3560   30.1380 C   0  0  0  0  0  0  0  0  0  0  0  0
   40.6630   24.9700   29.1600 N   0  0  0  0  0  0  0  0  0  0  0  0
   40.5680   25.9070   28.2040 C   0  0  0  0  0  0  0  0  0  0  0  0
   41.2040   25.9900   26.9780 C   0  0  0  0  0  0  0  0  0  0  0  0
   40.9290   27.0490   26.1950 N   0  0  0  0  0  0  0  0  0  0  0  0
   40.0430   27.9820   26.6440 C   0  0  0  0  0  0  0  0  0  0  0  0
   39.4170   27.8970   27.8540 N   0  0  0  0  0  0  0  0  0  0  0  0
   39.6630   26.8580   28.6640 C   0  0  0  0  0  0  0  0  0  0  0  0
   38.0670   26.7160   35.0970 C   0  0  0  0  0  0  0  0  0  0  0  0
   37.6980   25.2570   34.8870 C   0  0  0  0  0  0  0  0  0  0  0  0
   38.2070   23.9650   38.3940 C   0  0  0  0  0  0  0  0  0  0  0  0
   37.7200   24.6450   37.2990 C   0  0  0  0  0  0  0  0  0  0  0  0
   38.2700   24.4950   36.0170 C   0  0  0  0  0  0  0  0  0  0  0  0
   39.3190   23.6350   35.9100 N   0  0  0  0  0  0  0  0  0  0  0  0
   39.7690   22.9840   37.0080 C   0  0  0  0  0  0  0  0  0  0  0  0
   39.2500   23.1220   38.2300 N   0  0  0  0  0  0  0  0  0  0  0  0
   40.8770   22.0740   36.8990 C   0  0  0  0  0  0  0  0  0  0  0  0
   41.6540   21.2550   37.6180 C   0  0  0  0  0  0  0  0  0  0  0  0
   42.6490   20.5340   37.1170 C   0  0  0  0  0  0  0  0  0  0  0  0
   42.8330   20.7020   35.6960 C   0  0  0  0  0  0  0  0  0  0  0  0
   41.5010   21.9250   35.2470 S   0  0  0  0  0  0  0  0  0  0  0  0
   42.1090   24.9730   26.5990 N   0  0  0  0  0  0  0  0  0  0  0  0
   35.8730   28.5605   35.4907 H   0  0  0  0  0  0  0  0  0  0  0  0
   35.7951   29.3994   30.5072 H   0  0  0  0  0  0  0  0  0  0  0  0
   39.7078   24.7878   31.0692 H   0  0  0  0  0  0  0  0  0  0  0  0
   39.8215   28.8458   25.9999 H   0  0  0  0  0  0  0  0  0  0  0  0
   39.1391   26.8587   34.8966 H   0  0  0  0  0  0  0  0  0  0  0  0
   37.8540   27.0095   36.1355 H   0  0  0  0  0  0  0  0  0  0  0  0
   36.6040   25.1434   34.8711 H   0  0  0  0  0  0  0  0  0  0  0  0
   38.0917   24.8885   33.9282 H   0  0  0  0  0  0  0  0  0  0  0  0
   37.7537   24.1063   39.3862 H   0  0  0  0  0  0  0  0  0  0  0  0
   36.8699   25.3297   37.4348 H   0  0  0  0  0  0  0  0  0  0  0  0
   41.4543   21.1741   38.6967 H   0  0  0  0  0  0  0  0  0  0  0  0
   43.2761   19.8691   37.7291 H   0  0  0  0  0  0  0  0  0  0  0  0
   43.5762   20.2257   35.0397 H   0  0  0  0  0  0  0  0  0  0  0  0
   42.5887   25.0234   25.6889 H   0  0  0  0  0  0  0  0  0  0  0  0
   42.2889   24.1813   27.2328 H   0  0  0  0  0  0  0  0  0  0  0  0
  1  2  1  0
  1 19  1  0
  3  2  2  0
  4  9  2  0
  4  3  1  0
  5  4  1  0
  6  7  1  0
  6  5  2  0
  7  8  2  0
  8  9  1  0
  9  1  1  0
 10 11  1  0
 10  7  1  0
 12 11  2  0
 13 18  2  0
 13 12  1  0
 14 13  1  0
 15 16  1  0
 15 14  2  0
 16 17  2  0
 17 18  1  0
 18 10  1  0
 20 19  1  0
 20 23  1  0
 22 21  2  0
 23 22  1  0
 24 23  2  0
 24 25  1  0
 25 26  2  0
 26 21  1  0
 27 25  1  0
 27 28  2  0
 29 28  1  0
 30 29  2  0
 31 30  1  0
 31 27  1  0
 32 14  1  0
  2 33  1  0
  5 34  1  0
 11 35  1  0
 16 36  1  0
 19 37  1  0
 19 38  1  0
 20 39  1  0
 20 40  1  0
 21 41  1  0
 22 42  1  0
 28 43  1  0
 29 44  1  0
 30 45  1  0
 32 46  1  0
 32 47  1  0
M  ISO  8  33  14  34  14  35  14  36  14  37   8  38   8  39   8  40   8
M  ISO  5  41  14  42  14  43  14  44  14  45  14
M  END
>  <minimizedAffinity>  (1) 
-6.08371925

>  <minimizedRMSD>  (1) 
1.78341866

$$$$
