
     RDKit          3D

 45 49  0  0  0  0  0  0  0  0999 V2000
   38.3220   26.6370   34.7660 C   0  0  0  0  0  0  0  0  0  0  0  0
   37.4120   27.4950   33.9970 N   0  0  0  0  0  0  0  0  0  0  0  0
   36.3190   28.1430   34.4520 C   0  0  0  0  0  0  0  0  0  0  0  0
   35.7460   28.8300   33.4390 N   0  0  0  0  0  0  0  0  0  0  0  0
   36.4610   28.6360   32.3160 C   0  0  0  0  0  0  0  0  0  0  0  0
   36.4050   29.0430   31.0000 C   0  0  0  0  0  0  0  0  0  0  0  0
   37.3230   28.6500   30.0770 N   0  0  0  0  0  0  0  0  0  0  0  0
   38.3180   27.8290   30.4970 C   0  0  0  0  0  0  0  0  0  0  0  0
   38.4120   27.4100   31.7620 N   0  0  0  0  0  0  0  0  0  0  0  0
   37.4940   27.8030   32.6860 C   0  0  0  0  0  0  0  0  0  0  0  0
   39.2340   27.4690   29.4610 N   0  0  0  0  0  0  0  0  0  0  0  0
   40.2930   26.6460   29.4820 C   0  0  0  0  0  0  0  0  0  0  0  0
   41.0190   26.4720   28.3270 C   0  0  0  0  0  0  0  0  0  0  0  0
   40.6840   27.1210   27.1560 C   0  0  0  0  0  0  0  0  0  0  0  0
   41.4680   26.9050   25.9890 N   0  0  0  0  0  0  0  0  0  0  0  0
   39.6180   27.9370   27.1690 N   0  0  0  0  0  0  0  0  0  0  0  0
   38.8980   28.1130   28.3060 C   0  0  0  0  0  0  0  0  0  0  0  0
   37.9400   28.9100   28.1270 O   0  0  0  0  0  0  0  0  0  0  0  0
   37.8860   25.1810   34.5890 C   0  0  0  0  0  0  0  0  0  0  0  0
   38.2010   23.9690   38.1520 C   0  0  0  0  0  0  0  0  0  0  0  0
   37.7730   24.6300   37.0100 C   0  0  0  0  0  0  0  0  0  0  0  0
   38.3910   24.4480   35.7610 C   0  0  0  0  0  0  0  0  0  0  0  0
   39.4480   23.5780   35.7230 N   0  0  0  0  0  0  0  0  0  0  0  0
   39.8210   22.9590   36.8780 C   0  0  0  0  0  0  0  0  0  0  0  0
   39.2530   23.1180   38.0610 N   0  0  0  0  0  0  0  0  0  0  0  0
   40.9380   22.0400   36.8230 C   0  0  0  0  0  0  0  0  0  0  0  0
   41.6650   21.2230   37.6270 C   0  0  0  0  0  0  0  0  0  0  0  0
   42.6780   20.4900   37.1800 C   0  0  0  0  0  0  0  0  0  0  0  0
   42.9430   20.6230   35.7990 C   0  0  0  0  0  0  0  0  0  0  0  0
   41.6620   21.8440   35.2290 S   0  0  0  0  0  0  0  0  0  0  0  0
   39.3506   26.7633   34.3973 H   0  0  0  0  0  0  0  0  0  0  0  0
   38.2888   26.9126   35.8304 H   0  0  0  0  0  0  0  0  0  0  0  0
   35.9510   28.1161   35.4883 H   0  0  0  0  0  0  0  0  0  0  0  0
   35.5885   29.7095   30.6853 H   0  0  0  0  0  0  0  0  0  0  0  0
   40.5755   26.1200   30.4059 H   0  0  0  0  0  0  0  0  0  0  0  0
   41.8887   25.7985   28.3368 H   0  0  0  0  0  0  0  0  0  0  0  0
   42.2783   26.2701   26.0232 H   0  0  0  0  0  0  0  0  0  0  0  0
   41.2254   27.3835   25.1097 H   0  0  0  0  0  0  0  0  0  0  0  0
   36.7889   25.1157   34.5437 H   0  0  0  0  0  0  0  0  0  0  0  0
   38.2824   24.7580   33.6542 H   0  0  0  0  0  0  0  0  0  0  0  0
   37.6956   24.1324   39.1153 H   0  0  0  0  0  0  0  0  0  0  0  0
   36.9201   25.3207   37.0846 H   0  0  0  0  0  0  0  0  0  0  0  0
   41.4039   21.1657   38.6940 H   0  0  0  0  0  0  0  0  0  0  0  0
   43.2657   19.8299   37.8349 H   0  0  0  0  0  0  0  0  0  0  0  0
   43.7212   20.1236   35.2032 H   0  0  0  0  0  0  0  0  0  0  0  0
  2  3  1  0
  2  1  1  0
  4  3  2  0
  5 10  2  0
  5  4  1  0
  6  5  1  0
  7  8  1  0
  7  6  2  0
  8  9  2  0
  9 10  1  0
 10  2  1  0
 11 12  1  0
 11  8  1  0
 13 12  2  0
 14 16  2  0
 14 13  1  0
 15 14  1  0
 16 17  1  0
 17 11  1  0
 18 17  2  0
 19  1  1  0
 19 22  1  0
 21 20  2  0
 22 21  1  0
 23 22  2  0
 23 24  1  0
 24 25  2  0
 25 20  1  0
 26 24  1  0
 26 27  2  0
 28 27  1  0
 29 28  2  0
 30 29  1  0
 30 26  1  0
  1 31  1  0
  1 32  1  0
  3 33  1  0
  6 34  1  0
 12 35  1  0
 13 36  1  0
 15 37  1  0
 15 38  1  0
 19 39  1  0
 19 40  1  0
 20 41  1  0
 21 42  1  0
 27 43  1  0
 28 44  1  0
 29 45  1  0
M  ISO  8  31   8  32   8  33  14  34  14  35  14  36  14  39   8  40   8
M  ISO  5  41  14  42  14  43  14  44  14  45  14
M  END
>  <minimizedAffinity>  (1) 
-6.04632664

>  <minimizedRMSD>  (1) 
1.7139591

$$$$
