
     RDKit          3D

 44 48  0  0  0  0  0  0  0  0999 V2000
   38.3620   26.6330   34.6530 C   0  0  0  0  0  0  0  0  0  0  0  0
   37.3970   27.5100   33.9950 N   0  0  0  0  0  0  0  0  0  0  0  0
   36.3620   28.1600   34.5600 C   0  0  0  0  0  0  0  0  0  0  0  0
   35.7050   28.8750   33.6210 N   0  0  0  0  0  0  0  0  0  0  0  0
   36.3100   28.6940   32.4320 C   0  0  0  0  0  0  0  0  0  0  0  0
   36.1270   29.1340   31.1500 C   0  0  0  0  0  0  0  0  0  0  0  0
   36.9410   28.7580   30.1250 N   0  0  0  0  0  0  0  0  0  0  0  0
   37.9490   27.9270   30.4270 C   0  0  0  0  0  0  0  0  0  0  0  0
   38.1960   27.4490   31.6710 N   0  0  0  0  0  0  0  0  0  0  0  0
   37.3620   27.8420   32.6800 C   0  0  0  0  0  0  0  0  0  0  0  0
   38.8410   27.5090   29.3360 C   0  0  0  0  0  0  0  0  0  0  0  0
   39.5970   26.3710   29.4150 C   0  0  0  0  0  0  0  0  0  0  0  0
   40.4350   25.9930   28.3710 C   0  0  0  0  0  0  0  0  0  0  0  0
   40.5230   26.7640   27.2240 C   0  0  0  0  0  0  0  0  0  0  0  0
   39.7510   27.9070   27.1690 C   0  0  0  0  0  0  0  0  0  0  0  0
   38.9180   28.2860   28.2000 C   0  0  0  0  0  0  0  0  0  0  0  0
   37.9120   25.1890   34.4890 C   0  0  0  0  0  0  0  0  0  0  0  0
   38.1660   23.9720   38.0500 C   0  0  0  0  0  0  0  0  0  0  0  0
   37.7620   24.6290   36.9100 C   0  0  0  0  0  0  0  0  0  0  0  0
   38.4010   24.4490   35.6740 C   0  0  0  0  0  0  0  0  0  0  0  0
   39.4490   23.5830   35.6600 N   0  0  0  0  0  0  0  0  0  0  0  0
   39.8190   22.9540   36.8070 C   0  0  0  0  0  0  0  0  0  0  0  0
   39.2140   23.1240   37.9810 N   0  0  0  0  0  0  0  0  0  0  0  0
   40.9270   22.0410   36.7900 C   0  0  0  0  0  0  0  0  0  0  0  0
   41.6460   21.2450   37.5880 C   0  0  0  0  0  0  0  0  0  0  0  0
   42.6710   20.5050   37.1820 C   0  0  0  0  0  0  0  0  0  0  0  0
   42.9550   20.6310   35.7740 C   0  0  0  0  0  0  0  0  0  0  0  0
   41.6630   21.8420   35.1990 S   0  0  0  0  0  0  0  0  0  0  0  0
   39.3529   26.7648   34.1939 H   0  0  0  0  0  0  0  0  0  0  0  0
   38.4230   26.8838   35.7223 H   0  0  0  0  0  0  0  0  0  0  0  0
   36.0922   28.1155   35.6255 H   0  0  0  0  0  0  0  0  0  0  0  0
   35.2911   29.8171   30.9390 H   0  0  0  0  0  0  0  0  0  0  0  0
   39.5411   25.7455   30.3181 H   0  0  0  0  0  0  0  0  0  0  0  0
   41.0329   25.0737   28.4573 H   0  0  0  0  0  0  0  0  0  0  0  0
   41.1813   26.4773   26.3907 H   0  0  0  0  0  0  0  0  0  0  0  0
   39.8023   28.5384   26.2697 H   0  0  0  0  0  0  0  0  0  0  0  0
   38.3177   29.2040   28.1165 H   0  0  0  0  0  0  0  0  0  0  0  0
   36.8144   25.1383   34.4378 H   0  0  0  0  0  0  0  0  0  0  0  0
   38.3123   24.7549   33.5609 H   0  0  0  0  0  0  0  0  0  0  0  0
   37.6425   24.1356   39.0035 H   0  0  0  0  0  0  0  0  0  0  0  0
   36.9079   25.3196   36.9701 H   0  0  0  0  0  0  0  0  0  0  0  0
   41.3700   21.2001   38.6519 H   0  0  0  0  0  0  0  0  0  0  0  0
   43.2493   19.8566   37.8566 H   0  0  0  0  0  0  0  0  0  0  0  0
   43.7405   20.1346   35.1853 H   0  0  0  0  0  0  0  0  0  0  0  0
  2  3  1  0
  2  1  1  0
  4  3  2  0
  5 10  2  0
  5  4  1  0
  6  5  1  0
  7  8  1  0
  7  6  2  0
  8  9  2  0
  9 10  1  0
 10  2  1  0
 11 12  2  0
 11  8  1  0
 13 12  1  0
 14 13  2  0
 15 14  1  0
 15 16  2  0
 16 11  1  0
 17  1  1  0
 17 20  1  0
 19 18  2  0
 20 19  1  0
 21 20  2  0
 21 22  1  0
 22 23  2  0
 23 18  1  0
 24 22  1  0
 24 25  2  0
 26 25  1  0
 27 26  2  0
 28 27  1  0
 28 24  1  0
  1 29  1  0
  1 30  1  0
  3 31  1  0
  6 32  1  0
 12 33  1  0
 13 34  1  0
 14 35  1  0
 15 36  1  0
 16 37  1  0
 17 38  1  0
 17 39  1  0
 18 40  1  0
 19 41  1  0
 25 42  1  0
 26 43  1  0
 27 44  1  0
M  ISO  8  29   8  30   8  31  14  32  14  33  14  34  14  35  14  36  14
M  ISO  8  37  14  38   8  39   8  40  14  41  14  42  14  43  14  44  14
M  END
>  <minimizedAffinity>  (1) 
-5.59388638

>  <minimizedRMSD>  (1) 
1.87003434

$$$$
