
     RDKit          3D

 40 44  0  0  0  0  0  0  0  0999 V2000
   37.9740   25.1190   34.3670 C   0  0  0  0  0  0  0  0  0  0  0  0
   38.1340   23.9520   37.9620 C   0  0  0  0  0  0  0  0  0  0  0  0
   37.7570   24.5940   36.7940 C   0  0  0  0  0  0  0  0  0  0  0  0
   38.4290   24.4020   35.5760 C   0  0  0  0  0  0  0  0  0  0  0  0
   39.4820   23.5460   35.5950 N   0  0  0  0  0  0  0  0  0  0  0  0
   39.8250   22.9330   36.7620 C   0  0  0  0  0  0  0  0  0  0  0  0
   39.1900   23.1090   37.9290 N   0  0  0  0  0  0  0  0  0  0  0  0
   40.9370   22.0220   36.7930 C   0  0  0  0  0  0  0  0  0  0  0  0
   41.6430   21.2310   37.6080 C   0  0  0  0  0  0  0  0  0  0  0  0
   42.6800   20.4940   37.2260 C   0  0  0  0  0  0  0  0  0  0  0  0
   42.9990   20.6120   35.8340 C   0  0  0  0  0  0  0  0  0  0  0  0
   41.7160   21.8150   35.2200 S   0  0  0  0  0  0  0  0  0  0  0  0
   38.4730   26.5580   34.4970 C   0  0  0  0  0  0  0  0  0  0  0  0
   37.4590   27.4570   33.9120 N   0  0  0  0  0  0  0  0  0  0  0  0
   36.4480   28.0710   34.5510 C   0  0  0  0  0  0  0  0  0  0  0  0
   35.7470   28.8080   33.6660 N   0  0  0  0  0  0  0  0  0  0  0  0
   36.2980   28.6760   32.4440 C   0  0  0  0  0  0  0  0  0  0  0  0
   36.0420   29.1620   31.1920 C   0  0  0  0  0  0  0  0  0  0  0  0
   36.8220   28.8240   30.1140 N   0  0  0  0  0  0  0  0  0  0  0  0
   37.8550   27.9910   30.3390 C   0  0  0  0  0  0  0  0  0  0  0  0
   38.1570   27.4780   31.5560 N   0  0  0  0  0  0  0  0  0  0  0  0
   37.3680   27.8260   32.6160 C   0  0  0  0  0  0  0  0  0  0  0  0
   38.7350   27.5690   29.3010 N   0  0  0  0  0  0  0  0  0  0  0  0
   39.5740   26.5380   29.0830 C   0  0  0  0  0  0  0  0  0  0  0  0
   40.1550   26.6790   27.8780 N   0  0  0  0  0  0  0  0  0  0  0  0
   39.6740   27.8060   27.3400 C   0  0  0  0  0  0  0  0  0  0  0  0
   38.8090   28.3460   28.2090 N   0  0  0  0  0  0  0  0  0  0  0  0
   36.8758   25.1024   34.3070 H   0  0  0  0  0  0  0  0  0  0  0  0
   38.3652   24.6450   33.4547 H   0  0  0  0  0  0  0  0  0  0  0  0
   37.5843   24.1250   38.8989 H   0  0  0  0  0  0  0  0  0  0  0  0
   36.8981   25.2807   36.8216 H   0  0  0  0  0  0  0  0  0  0  0  0
   41.3449   21.1878   38.6660 H   0  0  0  0  0  0  0  0  0  0  0  0
   43.2439   19.8502   37.9170 H   0  0  0  0  0  0  0  0  0  0  0  0
   43.8016   20.1158   35.2687 H   0  0  0  0  0  0  0  0  0  0  0  0
   38.6209   26.8055   35.5585 H   0  0  0  0  0  0  0  0  0  0  0  0
   39.4313   26.6750   33.9697 H   0  0  0  0  0  0  0  0  0  0  0  0
   36.2277   27.9856   35.6253 H   0  0  0  0  0  0  0  0  0  0  0  0
   35.1893   29.8411   31.0447 H   0  0  0  0  0  0  0  0  0  0  0  0
   39.7560   25.7087   29.7824 H   0  0  0  0  0  0  0  0  0  0  0  0
   39.9421   28.2174   26.3557 H   0  0  0  0  0  0  0  0  0  0  0  0
  1 13  1  0
  1  4  1  0
  3  2  2  0
  4  5  2  0
  4  3  1  0
  5  6  1  0
  6  8  1  0
  6  7  2  0
  7  2  1  0
  8  9  2  0
 10  9  1  0
 11 10  2  0
 12 11  1  0
 12  8  1  0
 14 13  1  0
 14 15  1  0
 16 15  2  0
 17 22  2  0
 17 16  1  0
 18 17  1  0
 19 20  1  0
 19 18  2  0
 20 21  2  0
 21 22  1  0
 22 14  1  0
 23 20  1  0
 24 23  1  0
 25 24  2  0
 26 25  1  0
 26 27  2  0
 27 23  1  0
  1 28  1  0
  1 29  1  0
  2 30  1  0
  3 31  1  0
  9 32  1  0
 10 33  1  0
 11 34  1  0
 13 35  1  0
 13 36  1  0
 15 37  1  0
 18 38  1  0
 24 39  1  0
 26 40  1  0
M  ISO  8  28   8  29   8  30  14  31  14  32  14  33  14  34  14  35   8
M  ISO  5  36   8  37  14  38  14  39  14  40  14
M  END
>  <minimizedAffinity>  (1) 
-5.74946785

>  <minimizedRMSD>  (1) 
1.87828875

$$$$
