
     RDKit          3D

 41 45  0  0  0  0  0  0  0  0999 V2000
   38.3700   26.6200   34.6520 C   0  0  0  0  0  0  0  0  0  0  0  0
   37.4100   27.4980   33.9790 N   0  0  0  0  0  0  0  0  0  0  0  0
   36.3680   28.1510   34.5300 C   0  0  0  0  0  0  0  0  0  0  0  0
   35.7150   28.8620   33.5750 N   0  0  0  0  0  0  0  0  0  0  0  0
   36.3390   28.6680   32.3950 C   0  0  0  0  0  0  0  0  0  0  0  0
   36.1690   29.0970   31.1030 C   0  0  0  0  0  0  0  0  0  0  0  0
   37.0020   28.7080   30.0910 N   0  0  0  0  0  0  0  0  0  0  0  0
   38.0050   27.8800   30.4120 C   0  0  0  0  0  0  0  0  0  0  0  0
   38.2220   27.4270   31.6590 N   0  0  0  0  0  0  0  0  0  0  0  0
   37.3900   27.8180   32.6640 C   0  0  0  0  0  0  0  0  0  0  0  0
   38.8970   27.4630   29.3350 C   0  0  0  0  0  0  0  0  0  0  0  0
   40.0230   26.7020   29.3850 C   0  0  0  0  0  0  0  0  0  0  0  0
   40.5660   26.5400   28.1660 N   0  0  0  0  0  0  0  0  0  0  0  0
   39.7680   27.2150   27.3100 C   0  0  0  0  0  0  0  0  0  0  0  0
   38.7610   27.7670   28.0380 N   0  0  0  0  0  0  0  0  0  0  0  0
   37.9130   25.1690   34.4740 C   0  0  0  0  0  0  0  0  0  0  0  0
   38.1660   23.9720   38.0540 C   0  0  0  0  0  0  0  0  0  0  0  0
   37.7600   24.6280   36.8930 C   0  0  0  0  0  0  0  0  0  0  0  0
   38.4000   24.4410   35.6570 C   0  0  0  0  0  0  0  0  0  0  0  0
   39.4530   23.5740   35.6530 N   0  0  0  0  0  0  0  0  0  0  0  0
   39.8140   22.9560   36.8180 C   0  0  0  0  0  0  0  0  0  0  0  0
   39.2150   23.1270   37.9850 N   0  0  0  0  0  0  0  0  0  0  0  0
   40.9310   22.0430   36.7810 C   0  0  0  0  0  0  0  0  0  0  0  0
   41.6470   21.2390   37.6130 C   0  0  0  0  0  0  0  0  0  0  0  0
   42.6720   20.5070   37.1780 C   0  0  0  0  0  0  0  0  0  0  0  0
   42.9610   20.6260   35.7870 C   0  0  0  0  0  0  0  0  0  0  0  0
   41.6760   21.8360   35.1990 S   0  0  0  0  0  0  0  0  0  0  0  0
   39.3675   26.7516   34.2074 H   0  0  0  0  0  0  0  0  0  0  0  0
   38.4213   26.8693   35.7221 H   0  0  0  0  0  0  0  0  0  0  0  0
   36.0885   28.1137   35.5932 H   0  0  0  0  0  0  0  0  0  0  0  0
   35.3349   29.7764   30.8737 H   0  0  0  0  0  0  0  0  0  0  0  0
   40.4380   26.2722   30.3086 H   0  0  0  0  0  0  0  0  0  0  0  0
   39.9075   27.3021   26.2224 H   0  0  0  0  0  0  0  0  0  0  0  0
   37.9995   28.3394   27.6463 H   0  0  0  0  0  0  0  0  0  0  0  0
   36.8155   25.1181   34.4192 H   0  0  0  0  0  0  0  0  0  0  0  0
   38.3070   24.7343   33.5435 H   0  0  0  0  0  0  0  0  0  0  0  0
   37.6419   24.1399   39.0064 H   0  0  0  0  0  0  0  0  0  0  0  0
   36.9055   25.3186   36.9470 H   0  0  0  0  0  0  0  0  0  0  0  0
   41.3714   21.1918   38.6769 H   0  0  0  0  0  0  0  0  0  0  0  0
   43.2549   19.8559   37.8460 H   0  0  0  0  0  0  0  0  0  0  0  0
   43.7492   20.1259   35.2051 H   0  0  0  0  0  0  0  0  0  0  0  0
  2  3  1  0
  2  1  1  0
  4  3  2  0
  5 10  2  0
  5  4  1  0
  6  5  1  0
  7  8  1  0
  7  6  2  0
  8  9  2  0
  9 10  1  0
 10  2  1  0
 11 12  2  0
 11  8  1  0
 13 12  1  0
 14 15  1  0
 14 13  2  0
 15 11  1  0
 16  1  1  0
 16 19  1  0
 18 17  2  0
 19 18  1  0
 20 19  2  0
 20 21  1  0
 21 22  2  0
 22 17  1  0
 23 21  1  0
 23 24  2  0
 25 24  1  0
 26 25  2  0
 27 26  1  0
 27 23  1  0
  1 28  1  0
  1 29  1  0
  3 30  1  0
  6 31  1  0
 12 32  1  0
 14 33  1  0
 15 34  1  0
 16 35  1  0
 16 36  1  0
 17 37  1  0
 18 38  1  0
 24 39  1  0
 25 40  1  0
 26 41  1  0
M  ISO  8  28   8  29   8  30  14  31  14  32  14  33  14  34   9  35   8
M  ISO  6  36   8  37  14  38  14  39  14  40  14  41  14
M  END
>  <minimizedAffinity>  (1) 
-5.61821556

>  <minimizedRMSD>  (1) 
1.73694813

$$$$
