
     RDKit          3D

 48 52  0  0  0  0  0  0  0  0999 V2000
   38.6690   26.2220   34.8260 C   0  0  0  0  0  0  0  0  0  0  0  0
   38.0270   27.0200   33.7810 N   0  0  0  0  0  0  0  0  0  0  0  0
   36.8460   27.6640   33.8440 C   0  0  0  0  0  0  0  0  0  0  0  0
   36.6040   28.2900   32.6720 N   0  0  0  0  0  0  0  0  0  0  0  0
   37.6270   28.0560   31.8330 C   0  0  0  0  0  0  0  0  0  0  0  0
   37.9660   28.3980   30.5490 C   0  0  0  0  0  0  0  0  0  0  0  0
   39.1210   27.9860   29.9630 N   0  0  0  0  0  0  0  0  0  0  0  0
   39.9370   27.2190   30.6930 C   0  0  0  0  0  0  0  0  0  0  0  0
   39.6770   26.8370   31.9660 N   0  0  0  0  0  0  0  0  0  0  0  0
   38.5120   27.2590   32.5410 C   0  0  0  0  0  0  0  0  0  0  0  0
   41.1550   26.7720   30.1060 N   0  0  0  0  0  0  0  0  0  0  0  0
   41.8860   27.5140   29.0950 C   0  0  0  0  0  0  0  0  0  0  0  0
   41.9270   26.6060   27.8670 C   0  0  0  0  0  0  0  0  0  0  0  0
   42.5470   25.3420   28.2330 N   0  0  0  0  0  0  0  0  0  0  0  0
   41.8100   24.6420   29.2540 C   0  0  0  0  0  0  0  0  0  0  0  0
   41.7690   25.5200   30.4780 C   0  0  0  0  0  0  0  0  0  0  0  0
   37.5990   25.4630   35.5920 C   0  0  0  0  0  0  0  0  0  0  0  0
   38.5160   23.6890   38.8020 C   0  0  0  0  0  0  0  0  0  0  0  0
   37.8990   24.5160   37.8690 C   0  0  0  0  0  0  0  0  0  0  0  0
   38.3000   24.5620   36.5240 C   0  0  0  0  0  0  0  0  0  0  0  0
   39.3330   23.7470   36.1750 N   0  0  0  0  0  0  0  0  0  0  0  0
   39.9100   22.9550   37.1120 C   0  0  0  0  0  0  0  0  0  0  0  0
   39.5370   22.9040   38.3930 N   0  0  0  0  0  0  0  0  0  0  0  0
   40.9980   22.0930   36.7470 C   0  0  0  0  0  0  0  0  0  0  0  0
   41.9040   21.2540   37.2560 C   0  0  0  0  0  0  0  0  0  0  0  0
   42.8140   20.5960   36.5480 C   0  0  0  0  0  0  0  0  0  0  0  0
   42.7460   20.8660   35.1360 C   0  0  0  0  0  0  0  0  0  0  0  0
   41.3310   22.0760   35.0100 S   0  0  0  0  0  0  0  0  0  0  0  0
   39.2155   26.8845   35.5133 H   0  0  0  0  0  0  0  0  0  0  0  0
   39.3765   25.5126   34.3718 H   0  0  0  0  0  0  0  0  0  0  0  0
   36.1788   27.6781   34.7184 H   0  0  0  0  0  0  0  0  0  0  0  0
   37.2763   29.0304   29.9708 H   0  0  0  0  0  0  0  0  0  0  0  0
   41.3672   28.4550   28.8594 H   0  0  0  0  0  0  0  0  0  0  0  0
   42.8967   27.7805   29.4376 H   0  0  0  0  0  0  0  0  0  0  0  0
   42.5141   27.0880   27.0714 H   0  0  0  0  0  0  0  0  0  0  0  0
   40.9045   26.4267   27.5031 H   0  0  0  0  0  0  0  0  0  0  0  0
   42.5996   24.7450   27.3953 H   0  0  0  0  0  0  0  0  0  0  0  0
   40.7868   24.4397   28.9044 H   0  0  0  0  0  0  0  0  0  0  0  0
   42.2939   23.6819   29.4865 H   0  0  0  0  0  0  0  0  0  0  0  0
   42.7908   25.6991   30.8438 H   0  0  0  0  0  0  0  0  0  0  0  0
   41.1926   25.0338   31.2789 H   0  0  0  0  0  0  0  0  0  0  0  0
   36.9632   26.1655   36.1508 H   0  0  0  0  0  0  0  0  0  0  0  0
   36.9511   24.8959   34.9074 H   0  0  0  0  0  0  0  0  0  0  0  0
   38.1802   23.6744   39.8494 H   0  0  0  0  0  0  0  0  0  0  0  0
   37.0672   25.1569   38.1966 H   0  0  0  0  0  0  0  0  0  0  0  0
   41.8955   21.0962   38.3446 H   0  0  0  0  0  0  0  0  0  0  0  0
   43.5485   19.9111   36.9969 H   0  0  0  0  0  0  0  0  0  0  0  0
   43.3737   20.4592   34.3295 H   0  0  0  0  0  0  0  0  0  0  0  0
  1 17  1  0
  2  3  1  0
  2  1  1  0
  4  3  2  0
  5 10  2  0
  5  4  1  0
  6  5  1  0
  7  6  2  0
  7  8  1  0
  8  9  2  0
  9 10  1  0
 10  2  1  0
 11 16  1  0
 11  8  1  0
 12 11  1  0
 13 14  1  0
 13 12  1  0
 14 15  1  0
 15 16  1  0
 17 20  1  0
 19 18  2  0
 20 19  1  0
 21 20  2  0
 21 22  1  0
 22 23  2  0
 23 18  1  0
 24 22  1  0
 24 25  2  0
 26 25  1  0
 27 26  2  0
 28 27  1  0
 28 24  1  0
  1 29  1  0
  1 30  1  0
  3 31  1  0
  6 32  1  0
 12 33  1  0
 12 34  1  0
 13 35  1  0
 13 36  1  0
 14 37  1  0
 15 38  1  0
 15 39  1  0
 16 40  1  0
 16 41  1  0
 17 42  1  0
 17 43  1  0
 18 44  1  0
 19 45  1  0
 25 46  1  0
 26 47  1  0
 27 48  1  0
M  ISO  8  29   8  30   8  31  14  32  14  33  13  34  13  35  13  36  13
M  ISO  8  37   5  38  13  39  13  40  13  41  13  42   8  43   8  44  14
M  ISO  4  45  14  46  14  47  14  48  14
M  END
>  <minimizedAffinity>  (1) 
-5.26310539

>  <minimizedRMSD>  (1) 
0.16313298

$$$$
