
     RDKit          3D

 41 45  0  0  0  0  0  0  0  0999 V2000
   37.6280   25.1470   35.3400 C   0  0  0  0  0  0  0  0  0  0  0  0
   38.5570   23.7210   38.7090 C   0  0  0  0  0  0  0  0  0  0  0  0
   37.9300   24.4360   37.7040 C   0  0  0  0  0  0  0  0  0  0  0  0
   38.3380   24.3570   36.3640 C   0  0  0  0  0  0  0  0  0  0  0  0
   39.3900   23.5330   36.1020 N   0  0  0  0  0  0  0  0  0  0  0  0
   39.9790   22.8490   37.1110 C   0  0  0  0  0  0  0  0  0  0  0  0
   39.5910   22.9240   38.3880 N   0  0  0  0  0  0  0  0  0  0  0  0
   41.0870   21.9830   36.8290 C   0  0  0  0  0  0  0  0  0  0  0  0
   41.9480   21.1450   37.4250 C   0  0  0  0  0  0  0  0  0  0  0  0
   42.9040   20.4770   36.7980 C   0  0  0  0  0  0  0  0  0  0  0  0
   42.9400   20.7340   35.3860 C   0  0  0  0  0  0  0  0  0  0  0  0
   41.5470   21.9430   35.1330 S   0  0  0  0  0  0  0  0  0  0  0  0
   38.1700   26.5520   35.3880 C   0  0  0  0  0  0  0  0  0  0  0  0
   37.4430   27.3690   34.4010 N   0  0  0  0  0  0  0  0  0  0  0  0
   36.4550   28.2540   34.6300 C   0  0  0  0  0  0  0  0  0  0  0  0
   36.0560   28.7910   33.4610 N   0  0  0  0  0  0  0  0  0  0  0  0
   36.7800   28.2610   32.4590 C   0  0  0  0  0  0  0  0  0  0  0  0
   36.8470   28.3930   31.0870 C   0  0  0  0  0  0  0  0  0  0  0  0
   37.7250   27.6850   30.3260 N   0  0  0  0  0  0  0  0  0  0  0  0
   38.5500   26.8280   30.9690 C   0  0  0  0  0  0  0  0  0  0  0  0
   38.5200   26.6660   32.3050 N   0  0  0  0  0  0  0  0  0  0  0  0
   37.6420   27.3750   33.0580 C   0  0  0  0  0  0  0  0  0  0  0  0
   39.5330   26.0040   30.3360 N   0  0  0  0  0  0  0  0  0  0  0  0
   39.7740   26.1630   29.0120 C   0  0  0  0  0  0  0  0  0  0  0  0
   40.7630   25.2360   28.6960 C   0  0  0  0  0  0  0  0  0  0  0  0
   41.0980   24.5480   29.7990 N   0  0  0  0  0  0  0  0  0  0  0  0
   40.3310   25.0320   30.8110 C   0  0  0  0  0  0  0  0  0  0  0  0
   36.5490   25.1542   35.5539 H   0  0  0  0  0  0  0  0  0  0  0  0
   37.7797   24.7095   34.3422 H   0  0  0  0  0  0  0  0  0  0  0  0
   38.2157   23.8032   39.7515 H   0  0  0  0  0  0  0  0  0  0  0  0
   37.0833   25.0882   37.9643 H   0  0  0  0  0  0  0  0  0  0  0  0
   41.8533   21.0025   38.5116 H   0  0  0  0  0  0  0  0  0  0  0  0
   43.6001   19.7943   37.3074 H   0  0  0  0  0  0  0  0  0  0  0  0
   43.6260   20.3167   34.6341 H   0  0  0  0  0  0  0  0  0  0  0  0
   38.0254   26.9710   36.3947 H   0  0  0  0  0  0  0  0  0  0  0  0
   39.2450   26.5487   35.1550 H   0  0  0  0  0  0  0  0  0  0  0  0
   36.0384   28.5003   35.6178 H   0  0  0  0  0  0  0  0  0  0  0  0
   36.1644   29.0976   30.5895 H   0  0  0  0  0  0  0  0  0  0  0  0
   39.2890   26.8762   28.3292 H   0  0  0  0  0  0  0  0  0  0  0  0
   41.2018   25.0899   27.6979 H   0  0  0  0  0  0  0  0  0  0  0  0
   40.3587   24.6835   31.8540 H   0  0  0  0  0  0  0  0  0  0  0  0
  1 13  1  0
  1  4  1  0
  3  2  2  0
  4  3  1  0
  5  4  2  0
  5  6  1  0
  6  7  2  0
  7  2  1  0
  8  6  1  0
  8  9  2  0
 10  9  1  0
 11 10  2  0
 12 11  1  0
 12  8  1  0
 14 15  1  0
 14 13  1  0
 16 15  2  0
 17 22  2  0
 17 16  1  0
 18 17  1  0
 19 20  1  0
 19 18  2  0
 20 21  2  0
 21 22  1  0
 22 14  1  0
 23 27  1  0
 23 20  1  0
 24 23  1  0
 25 24  2  0
 25 26  1  0
 26 27  2  0
  1 28  1  0
  1 29  1  0
  2 30  1  0
  3 31  1  0
  9 32  1  0
 10 33  1  0
 11 34  1  0
 13 35  1  0
 13 36  1  0
 15 37  1  0
 18 38  1  0
 24 39  1  0
 25 40  1  0
 27 41  1  0
M  ISO  8  28   8  29   8  30  14  31  14  32  14  33  14  34  14  35   8
M  ISO  6  36   8  37  14  38  14  39  14  40  14  41  14
M  END
>  <minimizedAffinity>  (1) 
-5.45436049

>  <minimizedRMSD>  (1) 
1.28037357

$$$$
