
     RDKit          3D

 47 51  0  0  0  0  0  0  0  0999 V2000
   37.7790   25.2590   34.9410 C   0  0  0  0  0  0  0  0  0  0  0  0
   38.2670   23.9260   38.4370 C   0  0  0  0  0  0  0  0  0  0  0  0
   37.7890   24.6220   37.3490 C   0  0  0  0  0  0  0  0  0  0  0  0
   38.3410   24.4810   36.0710 C   0  0  0  0  0  0  0  0  0  0  0  0
   39.3860   23.6130   35.9580 N   0  0  0  0  0  0  0  0  0  0  0  0
   39.8240   22.9500   37.0530 C   0  0  0  0  0  0  0  0  0  0  0  0
   39.3080   23.0750   38.2710 N   0  0  0  0  0  0  0  0  0  0  0  0
   40.9290   22.0330   36.9310 C   0  0  0  0  0  0  0  0  0  0  0  0
   41.6980   21.2030   37.6480 C   0  0  0  0  0  0  0  0  0  0  0  0
   42.6890   20.4800   37.1400 C   0  0  0  0  0  0  0  0  0  0  0  0
   42.8810   20.6590   35.7260 C   0  0  0  0  0  0  0  0  0  0  0  0
   41.5600   21.8930   35.2850 S   0  0  0  0  0  0  0  0  0  0  0  0
   37.9700   26.7360   35.2870 C   0  0  0  0  0  0  0  0  0  0  0  0
   37.2460   27.5440   34.3050 N   0  0  0  0  0  0  0  0  0  0  0  0
   36.0830   28.2140   34.4910 C   0  0  0  0  0  0  0  0  0  0  0  0
   35.7340   28.8420   33.3490 N   0  0  0  0  0  0  0  0  0  0  0  0
   36.6690   28.5850   32.4090 C   0  0  0  0  0  0  0  0  0  0  0  0
   36.8740   28.9230   31.0930 C   0  0  0  0  0  0  0  0  0  0  0  0
   37.9550   28.4890   30.3930 N   0  0  0  0  0  0  0  0  0  0  0  0
   38.8270   27.7070   31.0400 C   0  0  0  0  0  0  0  0  0  0  0  0
   38.6910   27.3320   32.3320 N   0  0  0  0  0  0  0  0  0  0  0  0
   37.6010   27.7750   33.0270 C   0  0  0  0  0  0  0  0  0  0  0  0
   39.9850   27.2740   30.1980 C   0  0  0  0  0  0  0  0  0  0  0  0
   40.3250   28.2600   29.1210 C   0  0  0  0  0  0  0  0  0  0  0  0
   41.4540   29.0980   29.6890 C   0  0  0  0  0  0  0  0  0  0  0  0
   42.2660   28.0810   30.4770 C   0  0  0  0  0  0  0  0  0  0  0  0
   41.2360   27.1570   31.0750 C   0  0  0  0  0  0  0  0  0  0  0  0
   36.7092   25.0332   34.8201 H   0  0  0  0  0  0  0  0  0  0  0  0
   38.2827   25.0054   33.9965 H   0  0  0  0  0  0  0  0  0  0  0  0
   37.8093   24.0594   39.4283 H   0  0  0  0  0  0  0  0  0  0  0  0
   36.9443   25.3124   37.4895 H   0  0  0  0  0  0  0  0  0  0  0  0
   41.4957   21.1148   38.7256 H   0  0  0  0  0  0  0  0  0  0  0  0
   43.3086   19.8037   37.7472 H   0  0  0  0  0  0  0  0  0  0  0  0
   43.6242   20.1843   35.0685 H   0  0  0  0  0  0  0  0  0  0  0  0
   37.5745   26.9347   36.2940 H   0  0  0  0  0  0  0  0  0  0  0  0
   39.0399   26.9908   35.2672 H   0  0  0  0  0  0  0  0  0  0  0  0
   35.5106   28.2417   35.4300 H   0  0  0  0  0  0  0  0  0  0  0  0
   36.1381   29.5667   30.5890 H   0  0  0  0  0  0  0  0  0  0  0  0
   39.6897   26.3183   29.7404 H   0  0  0  0  0  0  0  0  0  0  0  0
   39.4552   28.8920   28.8884 H   0  0  0  0  0  0  0  0  0  0  0  0
   40.6150   27.7612   28.1845 H   0  0  0  0  0  0  0  0  0  0  0  0
   42.0556   29.5486   28.8859 H   0  0  0  0  0  0  0  0  0  0  0  0
   41.1039   29.9430   30.3000 H   0  0  0  0  0  0  0  0  0  0  0  0
   42.9458   27.5274   29.8126 H   0  0  0  0  0  0  0  0  0  0  0  0
   42.8985   28.5538   31.2428 H   0  0  0  0  0  0  0  0  0  0  0  0
   41.0064   27.4609   32.1070 H   0  0  0  0  0  0  0  0  0  0  0  0
   41.6030   26.1205   31.1082 H   0  0  0  0  0  0  0  0  0  0  0  0
  1 13  1  0
  1  4  1  0
  3  2  2  0
  4  3  1  0
  5  4  2  0
  5  6  1  0
  6  7  2  0
  7  2  1  0
  8  6  1  0
  8  9  2  0
 10  9  1  0
 11 10  2  0
 12 11  1  0
 12  8  1  0
 14 15  1  0
 14 13  1  0
 16 15  2  0
 17 22  2  0
 17 16  1  0
 18 17  1  0
 19 20  1  0
 19 18  2  0
 20 21  2  0
 21 22  1  0
 22 14  1  0
 23 20  1  0
 23 27  1  0
 24 25  1  0
 24 23  1  0
 25 26  1  0
 26 27  1  0
  1 28  1  0
  1 29  1  0
  2 30  1  0
  3 31  1  0
  9 32  1  0
 10 33  1  0
 11 34  1  0
 13 35  1  0
 13 36  1  0
 15 37  1  0
 18 38  1  0
 23 39  1  0
 24 40  1  0
 24 41  1  0
 25 42  1  0
 25 43  1  0
 26 44  1  0
 26 45  1  0
 27 46  1  0
 27 47  1  0
M  ISO  8  28   8  29   8  30  14  31  14  32  14  33  14  34  14  35   8
M  ISO  8  36   8  37  14  38  14  39  13  40  13  41  13  42  13  43  13
M  ISO  4  44  13  45  13  46  13  47  13
M  END
>  <minimizedAffinity>  (1) 
-5.34998846

>  <minimizedRMSD>  (1) 
1.05502129

$$$$
