
     RDKit          3D

 29 31  0  0  1  0  0  0  0  0999 V2000
   38.4280   24.4050   36.0830 C   0  0  0  0  0  0  0  0  0  0  0  0
   37.7770   24.0650   37.2390 C   0  0  0  0  0  0  0  0  0  0  0  0
   38.6190   23.2190   37.8820 N   0  0  0  0  0  0  0  0  0  0  0  0
   39.6960   23.0890   37.1180 C   0  0  0  0  0  0  0  0  0  0  0  0
   39.6300   23.8200   35.9640 N   0  0  0  0  0  0  0  0  0  0  0  0
   37.9040   25.3100   35.0490 C   0  0  0  0  0  0  0  0  0  0  0  0
   37.7110   26.6760   35.3760 C   0  0  0  0  0  0  0  0  0  0  0  0
   37.2040   27.5180   34.3560 C   0  0  0  0  0  0  0  0  0  0  0  0
   36.9380   26.9630   33.1400 N   0  0  0  0  0  0  0  0  0  0  0  0
   37.1420   25.6520   32.8840 C   0  0  0  0  0  0  0  0  0  0  0  0
   37.6190   24.8430   33.8310 N   0  0  0  0  0  0  0  0  0  0  0  0
   41.4100   25.1280   35.0220 N   0  0  0  0  0  0  0  0  0  0  0  0
   42.7320   24.7070   35.4140 C   0  0  0  0  0  0  0  0  0  0  0  0
   42.8910   23.4140   34.6250 C   0  0  0  0  0  0  0  0  0  0  0  0
   41.5510   22.7460   34.9230 C   0  0  0  0  0  0  0  0  0  0  0  0
   40.5950   23.9200   34.9200 C   0  0  1  0  0  0  0  0  0  0  0  0
   36.7857   24.4047   37.5734 H   0  0  0  0  0  0  0  0  0  0  0  0
   40.5555   22.4569   37.3858 H   0  0  0  0  0  0  0  0  0  0  0  0
   37.9448   27.0649   36.3780 H   0  0  0  0  0  0  0  0  0  0  0  0
   37.0301   28.5885   34.5400 H   0  0  0  0  0  0  0  0  0  0  0  0
   36.9128   25.2488   31.8866 H   0  0  0  0  0  0  0  0  0  0  0  0
   41.0155   25.7631   35.7305 H   0  0  0  0  0  0  0  0  0  0  0  0
   43.4911   25.4488   35.1253 H   0  0  0  0  0  0  0  0  0  0  0  0
   42.8583   24.5858   36.5000 H   0  0  0  0  0  0  0  0  0  0  0  0
   43.7359   22.8137   34.9935 H   0  0  0  0  0  0  0  0  0  0  0  0
   43.1094   23.5511   33.5556 H   0  0  0  0  0  0  0  0  0  0  0  0
   41.2878   22.0164   34.1430 H   0  0  0  0  0  0  0  0  0  0  0  0
   41.5437   22.1755   35.8635 H   0  0  0  0  0  0  0  0  0  0  0  0
   40.0042   23.9415   33.9924 H   0  0  0  0  0  0  0  0  0  0  0  0
  1  2  2  0
  2  3  1  0
  4  3  2  0
  5  1  1  0
  5  4  1  0
  6  7  2  0
  6  1  1  0
  8  7  1  0
  9  8  2  0
 10  9  1  0
 10 11  2  0
 11  6  1  0
 12 13  1  0
 14 15  1  0
 14 13  1  0
 16 15  1  0
 16 12  1  0
 16  5  1  0
  2 17  1  0
  4 18  1  0
  7 19  1  0
  8 20  1  0
 10 21  1  0
 12 22  1  0
 13 23  1  0
 13 24  1  0
 14 25  1  0
 14 26  1  0
 15 27  1  0
 15 28  1  0
 16 29  1  6
M  ISO  8  17  14  18  14  19  14  20  14  21  14  22   5  23  13  24  13
M  ISO  5  25  13  26  13  27  13  28  13  29  13
M  END
>  <minimizedAffinity>  (1) 
-3.81834579

>  <minimizedRMSD>  (1) 
6.16437912

$$$$
