
     RDKit          3D

 40 43  0  0  0  0  0  0  0  0999 V2000
   37.6150   25.4100   35.5960 C   0  0  0  0  0  0  0  0  0  0  0  0
   38.5380   23.6780   38.8240 C   0  0  0  0  0  0  0  0  0  0  0  0
   37.9200   24.4900   37.8840 C   0  0  0  0  0  0  0  0  0  0  0  0
   38.3190   24.5190   36.5390 C   0  0  0  0  0  0  0  0  0  0  0  0
   39.3520   23.7020   36.1990 N   0  0  0  0  0  0  0  0  0  0  0  0
   39.9280   22.9210   37.1490 C   0  0  0  0  0  0  0  0  0  0  0  0
   39.5570   22.8870   38.4270 N   0  0  0  0  0  0  0  0  0  0  0  0
   41.0210   22.0570   36.7800 C   0  0  0  0  0  0  0  0  0  0  0  0
   41.9220   21.2160   37.2960 C   0  0  0  0  0  0  0  0  0  0  0  0
   42.8320   20.5620   36.5850 C   0  0  0  0  0  0  0  0  0  0  0  0
   42.7790   20.8290   35.1810 C   0  0  0  0  0  0  0  0  0  0  0  0
   41.3680   22.0400   35.0480 S   0  0  0  0  0  0  0  0  0  0  0  0
   38.6930   26.2050   34.8570 C   0  0  0  0  0  0  0  0  0  0  0  0
   38.0230   26.9900   33.8050 N   0  0  0  0  0  0  0  0  0  0  0  0
   36.7960   27.5570   33.8420 C   0  0  0  0  0  0  0  0  0  0  0  0
   36.5440   28.1910   32.6820 N   0  0  0  0  0  0  0  0  0  0  0  0
   37.6030   28.0450   31.8740 C   0  0  0  0  0  0  0  0  0  0  0  0
   37.9530   28.4430   30.6010 C   0  0  0  0  0  0  0  0  0  0  0  0
   39.1470   28.1250   30.0330 N   0  0  0  0  0  0  0  0  0  0  0  0
   40.0030   27.3860   30.7820 C   0  0  0  0  0  0  0  0  0  0  0  0
   39.7110   26.9740   32.0260 N   0  0  0  0  0  0  0  0  0  0  0  0
   38.5180   27.2970   32.5780 C   0  0  0  0  0  0  0  0  0  0  0  0
   41.3300   26.9960   30.2360 C   0  0  0  0  0  0  0  0  0  0  0  0
   42.3690   28.0840   30.4100 C   0  0  0  0  0  0  0  0  0  0  0  0
   37.0248   24.8167   34.8821 H   0  0  0  0  0  0  0  0  0  0  0  0
   36.9218   26.0798   36.1260 H   0  0  0  0  0  0  0  0  0  0  0  0
   38.2041   23.6789   39.8721 H   0  0  0  0  0  0  0  0  0  0  0  0
   37.0877   25.1339   38.2044 H   0  0  0  0  0  0  0  0  0  0  0  0
   41.9086   21.0548   38.3840 H   0  0  0  0  0  0  0  0  0  0  0  0
   43.5630   19.8748   37.0361 H   0  0  0  0  0  0  0  0  0  0  0  0
   43.4127   20.4215   34.3796 H   0  0  0  0  0  0  0  0  0  0  0  0
   39.2088   26.8787   35.5571 H   0  0  0  0  0  0  0  0  0  0  0  0
   39.4404   25.5279   34.4178 H   0  0  0  0  0  0  0  0  0  0  0  0
   36.1045   27.5073   34.6960 H   0  0  0  0  0  0  0  0  0  0  0  0
   37.2364   29.0428   30.0207 H   0  0  0  0  0  0  0  0  0  0  0  0
   41.2208   26.7804   29.1629 H   0  0  0  0  0  0  0  0  0  0  0  0
   41.6744   26.1117   30.7922 H   0  0  0  0  0  0  0  0  0  0  0  0
   42.5383   28.2612   31.4824 H   0  0  0  0  0  0  0  0  0  0  0  0
   43.3112   27.7702   29.9370 H   0  0  0  0  0  0  0  0  0  0  0  0
   42.0122   29.0108   29.9370 H   0  0  0  0  0  0  0  0  0  0  0  0
  1  4  1  0
  3  2  2  0
  4  3  1  0
  5  4  2  0
  5  6  1  0
  6  7  2  0
  7  2  1  0
  8  6  1  0
  8  9  2  0
 10  9  1  0
 11 10  2  0
 12 11  1  0
 12  8  1  0
 13  1  1  0
 14 15  1  0
 14 13  1  0
 16 15  2  0
 17 22  2  0
 17 16  1  0
 18 17  1  0
 19 18  2  0
 19 20  1  0
 20 21  2  0
 21 22  1  0
 22 14  1  0
 23 24  1  0
 23 20  1  0
  1 25  1  0
  1 26  1  0
  2 27  1  0
  3 28  1  0
  9 29  1  0
 10 30  1  0
 11 31  1  0
 13 32  1  0
 13 33  1  0
 15 34  1  0
 18 35  1  0
 23 36  1  0
 23 37  1  0
 24 38  1  0
 24 39  1  0
 24 40  1  0
M  ISO  8  25   8  26   8  27  14  28  14  29  14  30  14  31  14  32   8
M  ISO  8  33   8  34  14  35  14  36   8  37   8  38   8  39   8  40   8
M  END
>  <minimizedAffinity>  (1) 
-4.84741783

>  <minimizedRMSD>  (1) 
0.129353508

$$$$
