
     RDKit          3D

 26 27  0  0  0  0  0  0  0  0999 V2000
   38.3150   23.2160   36.4860 C   0  0  0  0  0  0  0  0  0  0  0  0
   37.4360   23.6950   37.4240 C   0  0  0  0  0  0  0  0  0  0  0  0
   38.1560   23.6910   38.5860 N   0  0  0  0  0  0  0  0  0  0  0  0
   39.3730   23.2310   38.3040 C   0  0  0  0  0  0  0  0  0  0  0  0
   39.5260   22.9160   36.9910 N   0  0  0  0  0  0  0  0  0  0  0  0
   37.9940   23.0350   35.0560 C   0  0  0  0  0  0  0  0  0  0  0  0
   37.4970   21.8120   34.6010 C   0  0  0  0  0  0  0  0  0  0  0  0
   37.2080   21.6920   33.2280 C   0  0  0  0  0  0  0  0  0  0  0  0
   37.4320   22.7780   32.4320 N   0  0  0  0  0  0  0  0  0  0  0  0
   37.9120   23.9420   32.9100 C   0  0  0  0  0  0  0  0  0  0  0  0
   38.1880   24.0630   34.2090 N   0  0  0  0  0  0  0  0  0  0  0  0
   40.7160   22.4020   36.3910 C   0  0  0  0  0  0  0  0  0  0  0  0
   41.4430   21.5020   37.3640 C   0  0  0  0  0  0  0  0  0  0  0  0
   41.6060   23.4450   35.7860 C   0  0  0  0  0  0  0  0  0  0  0  0
   36.3925   24.0097   37.2754 H   0  0  0  0  0  0  0  0  0  0  0  0
   40.1698   23.1179   39.0539 H   0  0  0  0  0  0  0  0  0  0  0  0
   37.3367   20.9709   35.2916 H   0  0  0  0  0  0  0  0  0  0  0  0
   36.8145   20.7535   32.8105 H   0  0  0  0  0  0  0  0  0  0  0  0
   38.0760   24.7912   32.2303 H   0  0  0  0  0  0  0  0  0  0  0  0
   40.3996   21.7992   35.5270 H   0  0  0  0  0  0  0  0  0  0  0  0
   41.1999   21.8030   38.3937 H   0  0  0  0  0  0  0  0  0  0  0  0
   41.1304   20.4597   37.2031 H   0  0  0  0  0  0  0  0  0  0  0  0
   42.5277   21.5884   37.2031 H   0  0  0  0  0  0  0  0  0  0  0  0
   42.0955   24.0187   36.5868 H   0  0  0  0  0  0  0  0  0  0  0  0
   42.3711   22.9580   35.1636 H   0  0  0  0  0  0  0  0  0  0  0  0
   41.0047   24.1239   35.1636 H   0  0  0  0  0  0  0  0  0  0  0  0
  1  5  1  0
  1  2  2  0
  2  3  1  0
  4  3  2  0
  5  4  1  0
  6  1  1  0
  7  6  2  0
  8  7  1  0
  9 10  1  0
  9  8  2  0
 10 11  2  0
 11  6  1  0
 12  5  1  0
 12 13  1  0
 14 12  1  0
  2 15  1  0
  4 16  1  0
  7 17  1  0
  8 18  1  0
 10 19  1  0
 12 20  1  0
 13 21  1  0
 13 22  1  0
 13 23  1  0
 14 24  1  0
 14 25  1  0
 14 26  1  0
M  ISO  8  15  14  16  14  17  14  18  14  19  14  20   8  21   8  22   8
M  ISO  4  23   8  24   8  25   8  26   8
M  END
>  <minimizedAffinity>  (1) 
-3.76476192

>  <minimizedRMSD>  (1) 
5.1592803

$$$$
