
     RDKit          3D

 14 14  0  0  0  0  0  0  0  0999 V2000
   40.8570   21.9720   37.4870 C   0  0  0  0  0  0  0  0  0  0  0  0
   39.7190   22.7830   37.6420 C   0  0  0  0  0  0  0  0  0  0  0  0
   39.3570   23.6050   36.5850 C   0  0  0  0  0  0  0  0  0  0  0  0
   40.0990   23.5980   35.4580 N   0  0  0  0  0  0  0  0  0  0  0  0
   41.1940   22.8050   35.3370 C   0  0  0  0  0  0  0  0  0  0  0  0
   41.5620   21.9980   36.3540 N   0  0  0  0  0  0  0  0  0  0  0  0
   39.0520   22.6900   38.8480 O   0  0  0  0  0  0  0  0  0  0  0  0
   38.1920   24.4340   36.7460 C   0  0  0  0  0  0  0  0  0  0  0  0
   37.1260   23.9400   37.1580 O   0  0  0  0  0  0  0  0  0  0  0  0
   38.2990   25.7920   36.4300 O   0  0  0  0  0  0  0  0  0  0  0  0
   41.1694   21.3095   38.3077 H   0  0  0  0  0  0  0  0  0  0  0  0
   41.7827   22.8202   34.4079 H   0  0  0  0  0  0  0  0  0  0  0  0
   38.2443   23.2389   39.0105 H   0  0  0  0  0  0  0  0  0  0  0  0
   37.5142   26.3870   36.5308 H   0  0  0  0  0  0  0  0  0  0  0  0
  1  2  2  0
  2  7  1  0
  3  8  1  0
  3  2  1  0
  4  3  2  0
  5  4  1  0
  5  6  2  0
  6  1  1  0
  8  9  2  0
 10  8  1  0
  1 11  1  0
  5 12  1  0
  7 13  1  0
 10 14  1  0
M  ISO  4  11  14  12  14  13   3  14   3
M  END
>  <minimizedAffinity>  (1) 
-3.43241358

>  <minimizedRMSD>  (1) 
2.05694175

$$$$
