
     RDKit          3D

 23 23  0  0  0  0  0  0  0  0999 V2000
   42.0880   22.5210   36.6680 C   0  0  0  0  0  0  0  0  0  0  0  0
   40.7350   22.5960   37.0270 C   0  0  0  0  0  0  0  0  0  0  0  0
   39.9380   23.5380   36.3520 C   0  0  0  0  0  0  0  0  0  0  0  0
   40.5390   24.2990   35.4080 N   0  0  0  0  0  0  0  0  0  0  0  0
   41.8380   24.2000   35.0900 C   0  0  0  0  0  0  0  0  0  0  0  0
   42.6270   23.3030   35.7230 N   0  0  0  0  0  0  0  0  0  0  0  0
   38.5340   23.5810   36.7580 C   0  0  0  0  0  0  0  0  0  0  0  0
   37.8890   24.8510   36.2130 C   0  0  0  0  0  0  0  0  0  0  0  0
   38.4110   23.6670   38.2690 C   0  0  0  0  0  0  0  0  0  0  0  0
   37.7250   22.4250   36.2110 C   0  0  0  0  0  0  0  0  0  0  0  0
   40.3320   21.7260   38.0150 O   0  0  0  0  0  0  0  0  0  0  0  0
   42.7319   21.7921   37.1819 H   0  0  0  0  0  0  0  0  0  0  0  0
   42.2630   24.8507   34.3116 H   0  0  0  0  0  0  0  0  0  0  0  0
   37.5661   25.4868   37.0506 H   0  0  0  0  0  0  0  0  0  0  0  0
   38.6186   25.3978   35.5977 H   0  0  0  0  0  0  0  0  0  0  0  0
   37.0170   24.5844   35.5977 H   0  0  0  0  0  0  0  0  0  0  0  0
   39.2271   23.0964   38.7364 H   0  0  0  0  0  0  0  0  0  0  0  0
   38.4731   24.7195   38.5826 H   0  0  0  0  0  0  0  0  0  0  0  0
   37.4438   23.2474   38.5826 H   0  0  0  0  0  0  0  0  0  0  0  0
   37.3140   21.8378   37.0454 H   0  0  0  0  0  0  0  0  0  0  0  0
   36.9006   22.8134   35.5950 H   0  0  0  0  0  0  0  0  0  0  0  0
   38.3723   21.7835   35.5950 H   0  0  0  0  0  0  0  0  0  0  0  0
   39.3897   21.7240   38.3186 H   0  0  0  0  0  0  0  0  0  0  0  0
  1  2  2  0
  2 11  1  0
  3  7  1  0
  3  2  1  0
  4  3  2  0
  5  4  1  0
  5  6  2  0
  6  1  1  0
  7  9  1  0
  8  7  1  0
 10  7  1  0
  1 12  1  0
  5 13  1  0
  8 14  1  0
  8 15  1  0
  8 16  1  0
  9 17  1  0
  9 18  1  0
  9 19  1  0
 10 20  1  0
 10 21  1  0
 10 22  1  0
 11 23  1  0
M  ISO  8  12  14  13  14  14   8  15   8  16   8  17   8  18   8  19   8
M  ISO  4  20   8  21   8  22   8  23   3
M  END
>  <minimizedAffinity>  (1) 
-3.70944118

>  <minimizedRMSD>  (1) 
2.78930879

$$$$
