
     RDKit          3D

 24 25  0  0  0  0  0  0  0  0999 V2000
   42.1550   20.8350   37.6990 C   0  0  0  0  0  0  0  0  0  0  0  0
   41.1370   21.6580   37.1540 C   0  0  0  0  0  0  0  0  0  0  0  0
   41.2280   21.9030   35.7760 C   0  0  0  0  0  0  0  0  0  0  0  0
   42.2400   21.3630   35.0680 N   0  0  0  0  0  0  0  0  0  0  0  0
   43.1840   20.5840   35.6400 C   0  0  0  0  0  0  0  0  0  0  0  0
   43.1260   20.3320   36.9490 N   0  0  0  0  0  0  0  0  0  0  0  0
   40.1990   22.7250   35.2690 N   0  0  0  0  0  0  0  0  0  0  0  0
   40.2370   24.1560   35.5390 C   0  0  0  0  0  0  0  0  0  0  0  0
   38.8420   24.7070   35.7350 C   0  0  0  0  0  0  0  0  0  0  0  0
   38.0460   24.2800   34.6670 O   0  0  0  0  0  0  0  0  0  0  0  0
   37.8530   22.9060   34.8420 C   0  0  0  0  0  0  0  0  0  0  0  0
   39.1340   22.1700   34.5050 C   0  0  0  0  0  0  0  0  0  0  0  0
   40.1790   22.1240   38.0240 O   0  0  0  0  0  0  0  0  0  0  0  0
   42.1388   20.6072   38.7750 H   0  0  0  0  0  0  0  0  0  0  0  0
   43.9955   20.1601   35.0303 H   0  0  0  0  0  0  0  0  0  0  0  0
   40.8259   24.3347   36.4507 H   0  0  0  0  0  0  0  0  0  0  0  0
   40.6969   24.6634   34.6781 H   0  0  0  0  0  0  0  0  0  0  0  0
   38.4247   24.3341   36.6820 H   0  0  0  0  0  0  0  0  0  0  0  0
   38.8706   25.8061   35.7701 H   0  0  0  0  0  0  0  0  0  0  0  0
   37.5784   22.7044   35.8879 H   0  0  0  0  0  0  0  0  0  0  0  0
   37.0462   22.5612   34.1786 H   0  0  0  0  0  0  0  0  0  0  0  0
   39.0219   21.1031   34.7483 H   0  0  0  0  0  0  0  0  0  0  0  0
   39.3519   22.2732   33.4318 H   0  0  0  0  0  0  0  0  0  0  0  0
   39.4475   22.7022   37.6914 H   0  0  0  0  0  0  0  0  0  0  0  0
  2  1  2  0
  2 13  1  0
  3  2  1  0
  4  5  1  0
  4  3  2  0
  5  6  2  0
  6  1  1  0
  7  8  1  0
  7  3  1  0
  8  9  1  0
 10 11  1  0
 10  9  1  0
 12 11  1  0
 12  7  1  0
  1 14  1  0
  5 15  1  0
  8 16  1  0
  8 17  1  0
  9 18  1  0
  9 19  1  0
 11 20  1  0
 11 21  1  0
 12 22  1  0
 12 23  1  0
 13 24  1  0
M  ISO  8  14  14  15  14  16  13  17  13  18  13  19  13  20  13  21  13
M  ISO  3  22  13  23  13  24   3
M  END
>  <minimizedAffinity>  (1) 
-3.43014717

>  <minimizedRMSD>  (1) 
4.55741453

$$$$
