
     RDKit          3D

 24 25  0  0  0  0  0  0  0  0999 V2000
   40.4220   22.4200   37.5640 C   0  0  0  0  0  0  0  0  0  0  0  0
   39.2590   23.1480   37.2300 C   0  0  0  0  0  0  0  0  0  0  0  0
   39.3430   24.0350   36.1490 C   0  0  0  0  0  0  0  0  0  0  0  0
   40.5130   24.1470   35.4930 N   0  0  0  0  0  0  0  0  0  0  0  0
   41.6050   23.4450   35.8280 C   0  0  0  0  0  0  0  0  0  0  0  0
   41.5440   22.5830   36.8690 N   0  0  0  0  0  0  0  0  0  0  0  0
   38.1000   24.7600   35.8540 C   0  0  0  0  0  0  0  0  0  0  0  0
   37.9770   25.2050   34.4090 C   0  0  0  0  0  0  0  0  0  0  0  0
   37.9460   26.7110   34.4560 C   0  0  0  0  0  0  0  0  0  0  0  0
   38.8580   26.9670   35.6600 C   0  0  0  0  0  0  0  0  0  0  0  0
   38.1760   26.0600   36.6680 C   0  0  0  0  0  0  0  0  0  0  0  0
   38.1430   22.9100   38.0090 O   0  0  0  0  0  0  0  0  0  0  0  0
   40.3997   21.7124   38.4059 H   0  0  0  0  0  0  0  0  0  0  0  0
   42.5404   23.5685   35.2626 H   0  0  0  0  0  0  0  0  0  0  0  0
   37.2572   24.0913   36.0833 H   0  0  0  0  0  0  0  0  0  0  0  0
   37.0501   24.8146   33.9635 H   0  0  0  0  0  0  0  0  0  0  0  0
   38.8087   24.8317   33.7935 H   0  0  0  0  0  0  0  0  0  0  0  0
   38.3529   27.1552   33.5356 H   0  0  0  0  0  0  0  0  0  0  0  0
   36.9400   27.1481   34.5396 H   0  0  0  0  0  0  0  0  0  0  0  0
   39.8960   26.6600   35.4644 H   0  0  0  0  0  0  0  0  0  0  0  0
   38.9598   28.0197   35.9623 H   0  0  0  0  0  0  0  0  0  0  0  0
   37.1763   26.4305   36.9387 H   0  0  0  0  0  0  0  0  0  0  0  0
   38.6946   25.9705   37.6339 H   0  0  0  0  0  0  0  0  0  0  0  0
   37.2978   23.3908   37.8230 H   0  0  0  0  0  0  0  0  0  0  0  0
  2  1  2  0
  2 12  1  0
  3  2  1  0
  4  5  1  0
  4  3  2  0
  5  6  2  0
  6  1  1  0
  7  3  1  0
  7 11  1  0
  8  9  1  0
  8  7  1  0
  9 10  1  0
 10 11  1  0
  1 13  1  0
  5 14  1  0
  7 15  1  0
  8 16  1  0
  8 17  1  0
  9 18  1  0
  9 19  1  0
 10 20  1  0
 10 21  1  0
 11 22  1  0
 11 23  1  0
 12 24  1  0
M  ISO  8  13  14  14  14  15  13  16  13  17  13  18  13  19  13  20  13
M  ISO  4  21  13  22  13  23  13  24   3
M  END
>  <minimizedAffinity>  (1) 
-3.92992496

>  <minimizedRMSD>  (1) 
3.76608396

$$$$
