
     RDKit          3D

 36 39  0  0  0  0  0  0  0  0999 V2000
   37.6310   25.4370   35.5860 C   0  0  0  0  0  0  0  0  0  0  0  0
   38.5320   23.6720   38.8080 C   0  0  0  0  0  0  0  0  0  0  0  0
   37.9200   24.4980   37.8730 C   0  0  0  0  0  0  0  0  0  0  0  0
   38.3230   24.5400   36.5290 C   0  0  0  0  0  0  0  0  0  0  0  0
   39.3590   23.7210   36.1820 N   0  0  0  0  0  0  0  0  0  0  0  0
   39.9240   22.9320   37.1380 C   0  0  0  0  0  0  0  0  0  0  0  0
   39.5540   22.8810   38.4070 N   0  0  0  0  0  0  0  0  0  0  0  0
   41.0200   22.0690   36.7500 C   0  0  0  0  0  0  0  0  0  0  0  0
   41.9280   21.2190   37.3050 C   0  0  0  0  0  0  0  0  0  0  0  0
   42.8300   20.5710   36.5740 C   0  0  0  0  0  0  0  0  0  0  0  0
   42.7730   20.8340   35.1720 C   0  0  0  0  0  0  0  0  0  0  0  0
   41.3660   22.0410   35.0230 S   0  0  0  0  0  0  0  0  0  0  0  0
   38.7240   26.2080   34.8450 C   0  0  0  0  0  0  0  0  0  0  0  0
   38.0820   26.9970   33.7800 N   0  0  0  0  0  0  0  0  0  0  0  0
   36.8870   27.6230   33.8280 C   0  0  0  0  0  0  0  0  0  0  0  0
   36.6550   28.2420   32.6400 N   0  0  0  0  0  0  0  0  0  0  0  0
   37.6880   28.0220   31.8270 C   0  0  0  0  0  0  0  0  0  0  0  0
   38.0520   28.3580   30.5460 C   0  0  0  0  0  0  0  0  0  0  0  0
   39.2220   27.9630   29.9770 N   0  0  0  0  0  0  0  0  0  0  0  0
   40.0410   27.2080   30.7300 C   0  0  0  0  0  0  0  0  0  0  0  0
   39.7610   26.8350   31.9910 N   0  0  0  0  0  0  0  0  0  0  0  0
   38.5780   27.2420   32.5480 C   0  0  0  0  0  0  0  0  0  0  0  0
   41.3120   26.7570   30.1670 C   0  0  0  0  0  0  0  0  0  0  0  0
   41.4050   26.2730   28.9920 O   0  0  0  0  0  0  0  0  0  0  0  0
   37.0296   24.8513   34.8752 H   0  0  0  0  0  0  0  0  0  0  0  0
   36.9476   26.1196   36.1124 H   0  0  0  0  0  0  0  0  0  0  0  0
   38.1921   23.6614   39.8541 H   0  0  0  0  0  0  0  0  0  0  0  0
   37.0897   25.1423   38.1978 H   0  0  0  0  0  0  0  0  0  0  0  0
   41.9147   21.0635   38.3939 H   0  0  0  0  0  0  0  0  0  0  0  0
   43.5656   19.8833   37.0167 H   0  0  0  0  0  0  0  0  0  0  0  0
   43.4076   20.4224   34.3733 H   0  0  0  0  0  0  0  0  0  0  0  0
   39.2465   26.8786   35.5431 H   0  0  0  0  0  0  0  0  0  0  0  0
   39.4583   25.5112   34.4146 H   0  0  0  0  0  0  0  0  0  0  0  0
   36.2074   27.6310   34.6929 H   0  0  0  0  0  0  0  0  0  0  0  0
   37.3636   28.9767   29.9516 H   0  0  0  0  0  0  0  0  0  0  0  0
   42.2217   26.8384   30.7801 H   0  0  0  0  0  0  0  0  0  0  0  0
  1  4  1  0
  3  2  2  0
  4  3  1  0
  5  4  2  0
  5  6  1  0
  6  7  2  0
  7  2  1  0
  8  6  1  0
  8  9  2  0
 10  9  1  0
 11 10  2  0
 12 11  1  0
 12  8  1  0
 13  1  1  0
 14 15  1  0
 14 13  1  0
 16 15  2  0
 17 22  2  0
 17 16  1  0
 18 17  1  0
 19 18  2  0
 19 20  1  0
 20 21  2  0
 21 22  1  0
 22 14  1  0
 23 20  1  0
 24 23  2  0
  1 25  1  0
  1 26  1  0
  2 27  1  0
  3 28  1  0
  9 29  1  0
 10 30  1  0
 11 31  1  0
 13 32  1  0
 13 33  1  0
 15 34  1  0
 18 35  1  0
 23 36  1  0
M  ISO  8  25   8  26   8  27  14  28  14  29  14  30  14  31  14  32   8
M  ISO  4  33   8  34  14  35  14  36   6
M  END
>  <minimizedAffinity>  (1) 
-4.78523827

>  <minimizedRMSD>  (1) 
0.0530662499

$$$$
