
     RDKit          3D

 12 12  0  0  0  0  0  0  0  0999 V2000
   40.8590   21.9710   37.5400 C   0  0  0  0  0  0  0  0  0  0  0  0
   39.7760   22.8650   37.6360 C   0  0  0  0  0  0  0  0  0  0  0  0
   39.2650   23.3820   36.4520 C   0  0  0  0  0  0  0  0  0  0  0  0
   39.8330   22.9970   35.3000 N   0  0  0  0  0  0  0  0  0  0  0  0
   40.8630   22.1450   35.2260 C   0  0  0  0  0  0  0  0  0  0  0  0
   41.3670   21.6390   36.3530 N   0  0  0  0  0  0  0  0  0  0  0  0
   39.3480   23.1240   38.9210 O   0  0  0  0  0  0  0  0  0  0  0  0
   37.9110   24.4970   36.6170 S   0  0  0  0  0  0  0  0  0  0  0  0
   41.2914   21.5411   38.4555 H   0  0  0  0  0  0  0  0  0  0  0  0
   41.2876   21.8662   34.2503 H   0  0  0  0  0  0  0  0  0  0  0  0
   38.5906   23.7426   39.0752 H   0  0  0  0  0  0  0  0  0  0  0  0
   37.6534   24.7091   37.9457 H   0  0  0  0  0  0  0  0  0  0  0  0
  1  2  2  0
  2  7  1  0
  3  8  1  0
  3  2  1  0
  4  3  2  0
  5  4  1  0
  5  6  2  0
  6  1  1  0
  1  9  1  0
  5 10  1  0
  7 11  1  0
  8 12  1  0
M  ISO  4   9  14  10  14  11   3  12  11
M  END
>  <minimizedAffinity>  (1) 
-2.83444786

>  <minimizedRMSD>  (1) 
1.73759174

$$$$
