
     RDKit          3D

 23 25  0  0  0  0  0  0  0  0999 V2000
   39.6600   25.7620   34.4590 C   0  0  0  0  0  0  0  0  0  0  0  0
   40.6740   26.6680   34.7050 C   0  0  0  0  0  0  0  0  0  0  0  0
   40.8160   27.3540   33.5400 N   0  0  0  0  0  0  0  0  0  0  0  0
   39.9220   26.8540   32.6790 C   0  0  0  0  0  0  0  0  0  0  0  0
   39.1880   25.8630   33.2220 N   0  0  0  0  0  0  0  0  0  0  0  0
   39.1520   24.7960   35.4290 C   0  0  0  0  0  0  0  0  0  0  0  0
   39.7710   23.5330   35.5530 C   0  0  0  0  0  0  0  0  0  0  0  0
   39.2460   22.6310   36.5030 C   0  0  0  0  0  0  0  0  0  0  0  0
   38.1830   23.0270   37.2380 N   0  0  0  0  0  0  0  0  0  0  0  0
   37.6200   24.2410   37.0900 C   0  0  0  0  0  0  0  0  0  0  0  0
   38.0930   25.1260   36.1960 N   0  0  0  0  0  0  0  0  0  0  0  0
   38.1490   25.1110   32.5860 C   0  0  0  0  0  0  0  0  0  0  0  0
   36.8080   25.5960   32.4550 C   0  0  0  0  0  0  0  0  0  0  0  0
   35.9930   24.2040   31.5790 S   0  0  0  0  0  0  0  0  0  0  0  0
   37.6140   23.2110   31.5450 C   0  0  0  0  0  0  0  0  0  0  0  0
   38.3690   23.9120   32.0790 N   0  0  0  0  0  0  0  0  0  0  0  0
   41.2411   26.8041   35.6377 H   0  0  0  0  0  0  0  0  0  0  0  0
   39.8002   27.2112   31.6458 H   0  0  0  0  0  0  0  0  0  0  0  0
   40.6350   23.2608   34.9290 H   0  0  0  0  0  0  0  0  0  0  0  0
   39.6893   21.6339   36.6414 H   0  0  0  0  0  0  0  0  0  0  0  0
   36.7557   24.5139   37.7132 H   0  0  0  0  0  0  0  0  0  0  0  0
   36.3791   26.5516   32.7910 H   0  0  0  0  0  0  0  0  0  0  0  0
   37.7931   22.2119   31.1210 H   0  0  0  0  0  0  0  0  0  0  0  0
  1  2  2  0
  1  6  1  0
  3  2  1  0
  4  5  1  0
  4  3  2  0
  5  1  1  0
  6  7  2  0
  6 11  1  0
  7  8  1  0
  8  9  2  0
 10  9  1  0
 11 10  2  0
 12  5  1  0
 13 12  2  0
 14 13  1  0
 15 14  1  0
 15 16  2  0
 16 12  1  0
  2 17  1  0
  4 18  1  0
  7 19  1  0
  8 20  1  0
 10 21  1  0
 13 22  1  0
 15 23  1  0
M  ISO  7  17  14  18  14  19  14  20  14  21  14  22  14  23  14
M  END
>  <minimizedAffinity>  (1) 
-3.71248364

>  <minimizedRMSD>  (1) 
5.6296339

$$$$
