
     RDKit          3D

 13 13  0  0  0  0  0  0  0  0999 V2000
   40.7930   21.9870   37.5020 C   0  0  0  0  0  0  0  0  0  0  0  0
   39.6590   22.7980   37.6530 C   0  0  0  0  0  0  0  0  0  0  0  0
   39.2920   23.5800   36.5650 C   0  0  0  0  0  0  0  0  0  0  0  0
   40.0410   23.5190   35.4280 N   0  0  0  0  0  0  0  0  0  0  0  0
   41.1150   22.7300   35.3290 C   0  0  0  0  0  0  0  0  0  0  0  0
   41.5030   21.9550   36.3660 N   0  0  0  0  0  0  0  0  0  0  0  0
   38.1080   24.4180   36.7400 C   0  0  0  0  0  0  0  0  0  0  0  0
   38.1120   25.6670   36.5940 O   0  0  0  0  0  0  0  0  0  0  0  0
   39.0230   22.7360   38.8690 O   0  0  0  0  0  0  0  0  0  0  0  0
   41.1105   21.3555   38.3449 H   0  0  0  0  0  0  0  0  0  0  0  0
   41.6905   22.7111   34.3917 H   0  0  0  0  0  0  0  0  0  0  0  0
   37.1613   23.9296   37.0145 H   0  0  0  0  0  0  0  0  0  0  0  0
   38.2167   23.2861   39.0345 H   0  0  0  0  0  0  0  0  0  0  0  0
  1  2  2  0
  2  9  1  0
  3  7  1  0
  3  2  1  0
  4  3  2  0
  5  4  1  0
  5  6  2  0
  6  1  1  0
  8  7  2  0
  1 10  1  0
  5 11  1  0
  7 12  1  0
  9 13  1  0
M  ISO  4  10  14  11  14  12   6  13   3
M  END
>  <minimizedAffinity>  (1) 
-3.12744927

>  <minimizedRMSD>  (1) 
1.88230348

$$$$
