
     RDKit          3D

 34 36  0  0  0  0  0  0  0  0999 V2000
   39.6960   22.0830   36.9250 C   0  0  0  0  0  0  0  0  0  0  0  0
   39.2310   23.0850   36.0260 C   0  0  0  0  0  0  0  0  0  0  0  0
   40.2350   23.8870   35.4810 C   0  0  0  0  0  0  0  0  0  0  0  0
   41.5590   23.6950   35.8100 N   0  0  0  0  0  0  0  0  0  0  0  0
   41.9300   22.7290   36.6660 C   0  0  0  0  0  0  0  0  0  0  0  0
   41.0060   21.9140   37.2300 N   0  0  0  0  0  0  0  0  0  0  0  0
   39.7600   24.8480   34.4630 C   0  0  0  0  0  0  0  0  0  0  0  0
   40.1660   24.5110   33.0960 C   0  0  0  0  0  0  0  0  0  0  0  0
   40.1650   26.2870   34.8740 C   0  0  0  0  0  0  0  0  0  0  0  0
   37.9220   23.1300   35.8390 O   0  0  0  0  0  0  0  0  0  0  0  0
   37.0290   22.1330   35.7000 C   0  0  0  0  0  0  0  0  0  0  0  0
   36.1370   21.2480   36.3230 C   0  0  0  0  0  0  0  0  0  0  0  0
   35.4900   20.4250   35.5190 N   0  0  0  0  0  0  0  0  0  0  0  0
   35.9200   20.7190   34.2880 C   0  0  0  0  0  0  0  0  0  0  0  0
   35.4950   20.0900   33.1430 C   0  0  0  0  0  0  0  0  0  0  0  0
   36.0160   20.4870   31.9420 C   0  0  0  0  0  0  0  0  0  0  0  0
   36.9380   21.4920   31.9130 C   0  0  0  0  0  0  0  0  0  0  0  0
   37.3110   22.0690   33.0870 C   0  0  0  0  0  0  0  0  0  0  0  0
   36.8460   21.7420   34.3610 C   0  0  0  0  0  0  0  0  0  0  0  0
   38.9580   21.4153   37.3935 H   0  0  0  0  0  0  0  0  0  0  0  0
   42.9942   22.5981   36.9116 H   0  0  0  0  0  0  0  0  0  0  0  0
   38.6620   24.7865   34.4364 H   0  0  0  0  0  0  0  0  0  0  0  0
   41.0121   23.8087   33.1274 H   0  0  0  0  0  0  0  0  0  0  0  0
   39.3217   24.0446   32.5672 H   0  0  0  0  0  0  0  0  0  0  0  0
   40.4690   25.4267   32.5672 H   0  0  0  0  0  0  0  0  0  0  0  0
   40.1863   26.3627   35.9712 H   0  0  0  0  0  0  0  0  0  0  0  0
   41.1626   26.5163   34.4712 H   0  0  0  0  0  0  0  0  0  0  0  0
   39.4335   27.0030   34.4712 H   0  0  0  0  0  0  0  0  0  0  0  0
   35.9861   21.2402   37.4126 H   0  0  0  0  0  0  0  0  0  0  0  0
   34.7998   19.7079   35.7841 H   0  0  0  0  0  0  0  0  0  0  0  0
   34.7498   19.2823   33.1910 H   0  0  0  0  0  0  0  0  0  0  0  0
   35.6947   20.0007   31.0091 H   0  0  0  0  0  0  0  0  0  0  0  0
   37.3710   21.8289   30.9596 H   0  0  0  0  0  0  0  0  0  0  0  0
   38.0557   22.8763   33.0255 H   0  0  0  0  0  0  0  0  0  0  0  0
  1  6  2  0
  2  1  1  0
  3  4  1  0
  3  2  2  0
  4  5  2  0
  5  6  1  0
  7  9  1  0
  7  3  1  0
  8  7  1  0
 10  2  1  0
 11 10  1  0
 11 12  2  0
 13 12  1  0
 14 19  2  0
 14 13  1  0
 15 14  1  0
 16 15  2  0
 17 16  1  0
 17 18  2  0
 18 19  1  0
 19 11  1  0
  1 20  1  0
  5 21  1  0
  7 22  1  0
  8 23  1  0
  8 24  1  0
  8 25  1  0
  9 26  1  0
  9 27  1  0
  9 28  1  0
 12 29  1  0
 13 30  1  0
 15 31  1  0
 16 32  1  0
 17 33  1  0
 18 34  1  0
M  ISO  8  20  14  21  14  22   8  23   8  24   8  25   8  26   8  27   8
M  ISO  7  28   8  29  14  30   9  31  14  32  14  33  14  34  14
M  END
>  <minimizedAffinity>  (1) 
-4.37872505

>  <minimizedRMSD>  (1) 
3.06946993

$$$$
