
     RDKit          3D

 27 28  0  0  0  0  0  0  0  0999 V2000
   39.0600   23.3400   36.4780 C   0  0  0  0  0  0  0  0  0  0  0  0
   39.9500   24.0530   35.6340 C   0  0  0  0  0  0  0  0  0  0  0  0
   41.2950   23.7380   35.7900 C   0  0  0  0  0  0  0  0  0  0  0  0
   41.7010   22.7970   36.7110 N   0  0  0  0  0  0  0  0  0  0  0  0
   40.8060   22.1550   37.4820 C   0  0  0  0  0  0  0  0  0  0  0  0
   39.4910   22.4150   37.3760 N   0  0  0  0  0  0  0  0  0  0  0  0
   42.1860   24.4110   34.8190 C   0  0  0  0  0  0  0  0  0  0  0  0
   42.6400   23.5200   33.7520 C   0  0  0  0  0  0  0  0  0  0  0  0
   43.3690   25.0780   35.5660 C   0  0  0  0  0  0  0  0  0  0  0  0
   39.3600   24.9210   34.8260 O   0  0  0  0  0  0  0  0  0  0  0  0
   38.8560   26.1350   35.2320 C   0  0  0  0  0  0  0  0  0  0  0  0
   37.6690   26.2050   34.4710 C   0  0  0  0  0  0  0  0  0  0  0  0
   36.9870   27.4020   34.7470 C   0  0  0  0  0  0  0  0  0  0  0  0
   37.7810   28.0240   35.6690 N   0  0  0  0  0  0  0  0  0  0  0  0
   38.8310   27.3070   35.9400 N   0  0  0  0  0  0  0  0  0  0  0  0
   37.9815   23.5432   36.4029 H   0  0  0  0  0  0  0  0  0  0  0  0
   41.1542   21.4069   38.2094 H   0  0  0  0  0  0  0  0  0  0  0  0
   41.6027   25.1949   34.3137 H   0  0  0  0  0  0  0  0  0  0  0  0
   43.0974   22.6224   34.1937 H   0  0  0  0  0  0  0  0  0  0  0  0
   41.7818   23.2259   33.1299 H   0  0  0  0  0  0  0  0  0  0  0  0
   43.3823   24.0415   33.1299 H   0  0  0  0  0  0  0  0  0  0  0  0
   43.2135   24.9903   36.6514 H   0  0  0  0  0  0  0  0  0  0  0  0
   44.3077   24.5762   35.2884 H   0  0  0  0  0  0  0  0  0  0  0  0
   43.4254   26.1409   35.2884 H   0  0  0  0  0  0  0  0  0  0  0  0
   37.3276   25.4342   33.7644 H   0  0  0  0  0  0  0  0  0  0  0  0
   36.0366   27.7556   34.3208 H   0  0  0  0  0  0  0  0  0  0  0  0
   37.5748   28.9397   36.0931 H   0  0  0  0  0  0  0  0  0  0  0  0
  1  6  2  0
  2  3  2  0
  2  1  1  0
  3  4  1  0
  4  5  2  0
  6  5  1  0
  7  9  1  0
  7  3  1  0
  8  7  1  0
 10 11  1  0
 10  2  1  0
 11 15  2  0
 12 13  2  0
 12 11  1  0
 13 14  1  0
 14 15  1  0
  1 16  1  0
  5 17  1  0
  7 18  1  0
  8 19  1  0
  8 20  1  0
  8 21  1  0
  9 22  1  0
  9 23  1  0
  9 24  1  0
 12 25  1  0
 13 26  1  0
 14 27  1  0
M  ISO  8  16  14  17  14  18   8  19   8  20   8  21   8  22   8  23   8
M  ISO  4  24   8  25  14  26  14  27   9
M  END
>  <minimizedAffinity>  (1) 
-3.66094255

>  <minimizedRMSD>  (1) 
4.91804886

$$$$
