
     RDKit          3D

 27 28  0  0  0  0  0  0  0  0999 V2000
   37.8090   23.4440   36.4640 C   0  0  0  0  0  0  0  0  0  0  0  0
   39.0750   23.0070   35.9640 C   0  0  0  0  0  0  0  0  0  0  0  0
   40.0450   22.7950   36.9370 C   0  0  0  0  0  0  0  0  0  0  0  0
   39.7710   23.0010   38.2670 N   0  0  0  0  0  0  0  0  0  0  0  0
   38.5570   23.4130   38.6800 C   0  0  0  0  0  0  0  0  0  0  0  0
   37.5650   23.6380   37.7860 N   0  0  0  0  0  0  0  0  0  0  0  0
   41.3100   22.2380   36.4140 C   0  0  0  0  0  0  0  0  0  0  0  0
   41.8730   21.1780   37.2530 C   0  0  0  0  0  0  0  0  0  0  0  0
   42.3150   23.3900   36.1390 C   0  0  0  0  0  0  0  0  0  0  0  0
   39.1520   22.8740   34.6480 O   0  0  0  0  0  0  0  0  0  0  0  0
   38.2890   22.0290   33.8960 C   0  0  0  0  0  0  0  0  0  0  0  0
   39.2270   21.3680   33.0940 C   0  0  0  0  0  0  0  0  0  0  0  0
   38.8940   20.4360   32.1830 C   0  0  0  0  0  0  0  0  0  0  0  0
   37.4860   20.1940   32.1220 C   0  0  0  0  0  0  0  0  0  0  0  0
   36.7850   21.3780   33.4300 S   0  0  0  0  0  0  0  0  0  0  0  0
   36.9966   23.6314   35.7464 H   0  0  0  0  0  0  0  0  0  0  0  0
   38.3697   23.5681   39.7528 H   0  0  0  0  0  0  0  0  0  0  0  0
   41.0869   21.7362   35.4609 H   0  0  0  0  0  0  0  0  0  0  0  0
   41.7353   21.4373   38.3131 H   0  0  0  0  0  0  0  0  0  0  0  0
   41.3601   20.2289   37.0381 H   0  0  0  0  0  0  0  0  0  0  0  0
   42.9465   21.0715   37.0381 H   0  0  0  0  0  0  0  0  0  0  0  0
   42.6729   23.8003   37.0948 H   0  0  0  0  0  0  0  0  0  0  0  0
   43.1687   23.0023   35.5637 H   0  0  0  0  0  0  0  0  0  0  0  0
   41.8151   24.1832   35.5637 H   0  0  0  0  0  0  0  0  0  0  0  0
   40.2900   21.6237   33.2149 H   0  0  0  0  0  0  0  0  0  0  0  0
   39.6280   19.9146   31.5511 H   0  0  0  0  0  0  0  0  0  0  0  0
   36.9410   19.4918   31.4740 H   0  0  0  0  0  0  0  0  0  0  0  0
  1  6  2  0
  2  1  1  0
  2  3  2  0
  3  4  1  0
  4  5  2  0
  6  5  1  0
  7  3  1  0
  7  8  1  0
  9  7  1  0
 10  2  1  0
 11 10  1  0
 12 11  2  0
 13 12  1  0
 14 13  2  0
 14 15  1  0
 15 11  1  0
  1 16  1  0
  5 17  1  0
  7 18  1  0
  8 19  1  0
  8 20  1  0
  8 21  1  0
  9 22  1  0
  9 23  1  0
  9 24  1  0
 12 25  1  0
 13 26  1  0
 14 27  1  0
M  ISO  8  16  14  17  14  18   8  19   8  20   8  21   8  22   8  23   8
M  ISO  4  24   8  25  14  26  14  27  14
M  END
>  <minimizedAffinity>  (1) 
-3.75499153

>  <minimizedRMSD>  (1) 
4.58411932

$$$$
