
     RDKit          3D

 31 33  0  0  0  0  0  0  0  0999 V2000
   38.3810   25.1310   34.0630 C   0  0  0  0  0  0  0  0  0  0  0  0
   38.4430   24.1500   35.0990 C   0  0  0  0  0  0  0  0  0  0  0  0
   38.4470   24.6640   36.3930 C   0  0  0  0  0  0  0  0  0  0  0  0
   38.3920   26.0260   36.6060 N   0  0  0  0  0  0  0  0  0  0  0  0
   38.3340   26.9010   35.5920 C   0  0  0  0  0  0  0  0  0  0  0  0
   38.3280   26.4590   34.3190 N   0  0  0  0  0  0  0  0  0  0  0  0
   38.4220   23.6400   37.4590 C   0  0  0  0  0  0  0  0  0  0  0  0
   37.9040   24.1340   38.7360 C   0  0  0  0  0  0  0  0  0  0  0  0
   39.8480   23.0120   37.6020 C   0  0  0  0  0  0  0  0  0  0  0  0
   38.5010   22.8840   34.7060 O   0  0  0  0  0  0  0  0  0  0  0  0
   36.2750   20.7360   31.4050 N   0  0  0  0  0  0  0  0  0  0  0  0
   37.2880   21.5100   31.0040 C   0  0  0  0  0  0  0  0  0  0  0  0
   37.9190   22.1240   32.0130 N   0  0  0  0  0  0  0  0  0  0  0  0
   37.3010   21.7480   33.1630 C   0  0  0  0  0  0  0  0  0  0  0  0
   37.4550   22.0180   34.5430 C   0  0  0  0  0  0  0  0  0  0  0  0
   36.5740   21.3920   35.3440 N   0  0  0  0  0  0  0  0  0  0  0  0
   35.6210   20.5780   34.9030 C   0  0  0  0  0  0  0  0  0  0  0  0
   35.4470   20.3020   33.6130 N   0  0  0  0  0  0  0  0  0  0  0  0
   36.3020   20.8970   32.7270 C   0  0  0  0  0  0  0  0  0  0  0  0
   38.3761   24.7941   33.0159 H   0  0  0  0  0  0  0  0  0  0  0  0
   38.2913   27.9805   35.7992 H   0  0  0  0  0  0  0  0  0  0  0  0
   37.7085   22.8590   37.1576 H   0  0  0  0  0  0  0  0  0  0  0  0
   38.4289   23.6334   39.5629 H   0  0  0  0  0  0  0  0  0  0  0  0
   38.0668   25.2199   38.8023 H   0  0  0  0  0  0  0  0  0  0  0  0
   36.8271   23.9199   38.8023 H   0  0  0  0  0  0  0  0  0  0  0  0
   40.0954   22.9030   38.6683 H   0  0  0  0  0  0  0  0  0  0  0  0
   39.8635   22.0238   37.1191 H   0  0  0  0  0  0  0  0  0  0  0  0
   40.5875   23.6677   37.1191 H   0  0  0  0  0  0  0  0  0  0  0  0
   35.6363   20.1615   30.8368 H   0  0  0  0  0  0  0  0  0  0  0  0
   37.5752   21.6308   29.9490 H   0  0  0  0  0  0  0  0  0  0  0  0
   34.9464   20.1119   35.6363 H   0  0  0  0  0  0  0  0  0  0  0  0
  1  6  2  0
  1  2  1  0
  2  3  2  0
  3  4  1  0
  3  7  1  0
  5  4  2  0
  6  5  1  0
  7  9  1  0
  7  8  1  0
 10  2  1  0
 11 19  1  0
 12 11  1  0
 12 13  2  0
 13 14  1  0
 14 15  1  0
 15 10  1  0
 15 16  2  0
 17 16  1  0
 18 17  2  0
 19 14  2  0
 19 18  1  0
  1 20  1  0
  5 21  1  0
  7 22  1  0
  8 23  1  0
  8 24  1  0
  8 25  1  0
  9 26  1  0
  9 27  1  0
  9 28  1  0
 11 29  1  0
 12 30  1  0
 17 31  1  0
M  ISO  8  20  14  21  14  22   8  23   8  24   8  25   8  26   8  27   8
M  ISO  4  28   8  29   9  30  14  31  14
M  END
>  <minimizedAffinity>  (1) 
-4.62885761

>  <minimizedRMSD>  (1) 
4.17234039

$$$$
