
     RDKit          3D

 44 47  0  0  0  0  0  0  0  0999 V2000
   38.9820   26.3750   34.3010 C   0  0  0  0  0  0  0  0  0  0  0  0
   39.1480   24.9940   34.5730 C   0  0  0  0  0  0  0  0  0  0  0  0
   38.8320   24.5780   35.8510 C   0  0  0  0  0  0  0  0  0  0  0  0
   38.3860   25.5090   36.7780 N   0  0  0  0  0  0  0  0  0  0  0  0
   38.2470   26.8110   36.4680 C   0  0  0  0  0  0  0  0  0  0  0  0
   38.5450   27.2420   35.2310 N   0  0  0  0  0  0  0  0  0  0  0  0
   38.8640   23.1320   36.1130 C   0  0  0  0  0  0  0  0  0  0  0  0
   37.6150   22.4380   36.0320 C   0  0  0  0  0  0  0  0  0  0  0  0
   39.5340   22.9780   37.5910 C   0  0  0  0  0  0  0  0  0  0  0  0
   39.5950   24.2330   33.5720 O   0  0  0  0  0  0  0  0  0  0  0  0
   38.9250   24.5450   29.1240 N   0  0  0  0  0  0  0  0  0  0  0  0
   39.7770   25.4300   29.6190 C   0  0  0  0  0  0  0  0  0  0  0  0
   39.9460   25.3040   30.9400 N   0  0  0  0  0  0  0  0  0  0  0  0
   39.1580   24.2660   31.3560 C   0  0  0  0  0  0  0  0  0  0  0  0
   38.8850   23.6340   32.5870 C   0  0  0  0  0  0  0  0  0  0  0  0
   38.0200   22.6260   32.4960 N   0  0  0  0  0  0  0  0  0  0  0  0
   37.4360   22.2100   31.3820 C   0  0  0  0  0  0  0  0  0  0  0  0
   37.6790   22.7920   30.2170 N   0  0  0  0  0  0  0  0  0  0  0  0
   38.5490   23.8340   30.1960 C   0  0  0  0  0  0  0  0  0  0  0  0
   36.4950   21.0620   31.4830 C   0  0  0  0  0  0  0  0  0  0  0  0
   35.1400   21.4800   32.0520 C   0  0  0  0  0  0  0  0  0  0  0  0
   34.4880   20.1100   32.1280 C   0  0  0  0  0  0  0  0  0  0  0  0
   35.5870   19.2710   32.7250 C   0  0  0  0  0  0  0  0  0  0  0  0
   36.8970   20.0420   32.5140 C   0  0  0  0  0  0  0  0  0  0  0  0
   39.2188   26.7503   33.2945 H   0  0  0  0  0  0  0  0  0  0  0  0
   37.8895   27.5222   37.2272 H   0  0  0  0  0  0  0  0  0  0  0  0
   39.4413   22.6492   35.3107 H   0  0  0  0  0  0  0  0  0  0  0  0
   37.2437   22.2317   37.0467 H   0  0  0  0  0  0  0  0  0  0  0  0
   36.8844   23.0595   35.4935 H   0  0  0  0  0  0  0  0  0  0  0  0
   37.7569   21.4894   35.4935 H   0  0  0  0  0  0  0  0  0  0  0  0
   38.7683   23.1540   38.3608 H   0  0  0  0  0  0  0  0  0  0  0  0
   39.9417   21.9627   37.7048 H   0  0  0  0  0  0  0  0  0  0  0  0
   40.3441   23.7134   37.7048 H   0  0  0  0  0  0  0  0  0  0  0  0
   38.6228   24.4303   28.1461 H   0  0  0  0  0  0  0  0  0  0  0  0
   40.2907   26.1877   29.0091 H   0  0  0  0  0  0  0  0  0  0  0  0
   36.4817   20.6791   30.4519 H   0  0  0  0  0  0  0  0  0  0  0  0
   35.2344   21.9484   33.0428 H   0  0  0  0  0  0  0  0  0  0  0  0
   34.5924   22.2353   31.4692 H   0  0  0  0  0  0  0  0  0  0  0  0
   33.6001   20.1257   32.7771 H   0  0  0  0  0  0  0  0  0  0  0  0
   34.1240   19.7384   31.1588 H   0  0  0  0  0  0  0  0  0  0  0  0
   35.4061   19.1185   33.7992 H   0  0  0  0  0  0  0  0  0  0  0  0
   35.6307   18.2804   32.2488 H   0  0  0  0  0  0  0  0  0  0  0  0
   37.6925   19.3831   32.1358 H   0  0  0  0  0  0  0  0  0  0  0  0
   37.3080   20.4800   33.4355 H   0  0  0  0  0  0  0  0  0  0  0  0
  1  2  2  0
  1  6  1  0
  2  3  1  0
  3  7  1  0
  3  4  2  0
  5  4  1  0
  6  5  2  0
  7  9  1  0
  8  7  1  0
 10  2  1  0
 11 12  1  0
 11 19  1  0
 12 13  2  0
 13 14  1  0
 14 15  2  0
 15 10  1  0
 16 15  1  0
 17 20  1  0
 17 16  2  0
 18 17  1  0
 19 18  2  0
 19 14  1  0
 20 21  1  0
 20 24  1  0
 21 22  1  0
 22 23  1  0
 24 23  1  0
  1 25  1  0
  5 26  1  0
  7 27  1  0
  8 28  1  0
  8 29  1  0
  8 30  1  0
  9 31  1  0
  9 32  1  0
  9 33  1  0
 11 34  1  0
 12 35  1  0
 20 36  1  0
 21 37  1  0
 21 38  1  0
 22 39  1  0
 22 40  1  0
 23 41  1  0
 23 42  1  0
 24 43  1  0
 24 44  1  0
M  ISO  8  25  14  26  14  27   8  28   8  29   8  30   8  31   8  32   8
M  ISO  8  33   8  34   9  35  14  36  13  37  13  38  13  39  13  40  13
M  ISO  4  41  13  42  13  43  13  44  13
M  END
>  <minimizedAffinity>  (1) 
-4.9736104

>  <minimizedRMSD>  (1) 
3.62579966

$$$$
