
     RDKit          3D

 33 35  0  0  0  0  0  0  0  0999 V2000
   38.7030   25.1550   34.1390 C   0  0  0  0  0  0  0  0  0  0  0  0
   38.5720   24.3260   35.2810 C   0  0  0  0  0  0  0  0  0  0  0  0
   38.5130   24.9650   36.5030 C   0  0  0  0  0  0  0  0  0  0  0  0
   38.5880   26.3550   36.5560 N   0  0  0  0  0  0  0  0  0  0  0  0
   38.7130   27.0940   35.4360 C   0  0  0  0  0  0  0  0  0  0  0  0
   38.7690   26.5000   34.2320 N   0  0  0  0  0  0  0  0  0  0  0  0
   38.2380   24.1310   37.6850 C   0  0  0  0  0  0  0  0  0  0  0  0
   37.8050   24.8170   38.8620 C   0  0  0  0  0  0  0  0  0  0  0  0
   39.6090   23.3050   37.9520 C   0  0  0  0  0  0  0  0  0  0  0  0
   38.5230   23.0130   35.0600 O   0  0  0  0  0  0  0  0  0  0  0  0
   35.8960   20.3760   32.5080 N   0  0  0  0  0  0  0  0  0  0  0  0
   36.8500   21.0280   31.8470 C   0  0  0  0  0  0  0  0  0  0  0  0
   37.6060   21.7970   32.6380 N   0  0  0  0  0  0  0  0  0  0  0  0
   37.1350   21.6580   33.9120 C   0  0  0  0  0  0  0  0  0  0  0  0
   37.4690   22.1740   35.1850 C   0  0  0  0  0  0  0  0  0  0  0  0
   36.6930   21.7290   36.1690 N   0  0  0  0  0  0  0  0  0  0  0  0
   35.6900   20.8840   36.0370 C   0  0  0  0  0  0  0  0  0  0  0  0
   35.3510   20.3810   34.8510 N   0  0  0  0  0  0  0  0  0  0  0  0
   36.0870   20.7750   33.7700 C   0  0  0  0  0  0  0  0  0  0  0  0
   34.9870   20.5380   37.2260 N   0  0  0  0  0  0  0  0  0  0  0  0
   38.7525   24.6872   33.1446 H   0  0  0  0  0  0  0  0  0  0  0  0
   38.7695   28.1902   35.5079 H   0  0  0  0  0  0  0  0  0  0  0  0
   37.3706   23.4915   37.4645 H   0  0  0  0  0  0  0  0  0  0  0  0
   38.1497   24.2709   39.7524 H   0  0  0  0  0  0  0  0  0  0  0  0
   38.2255   25.8334   38.8696 H   0  0  0  0  0  0  0  0  0  0  0  0
   36.7065   24.8746   38.8696 H   0  0  0  0  0  0  0  0  0  0  0  0
   39.7726   23.2064   39.0353 H   0  0  0  0  0  0  0  0  0  0  0  0
   39.5284   22.3050   37.5009 H   0  0  0  0  0  0  0  0  0  0  0  0
   40.4554   23.8436   37.5009 H   0  0  0  0  0  0  0  0  0  0  0  0
   35.1872   19.7260   32.1392 H   0  0  0  0  0  0  0  0  0  0  0  0
   37.0011   20.9429   30.7608 H   0  0  0  0  0  0  0  0  0  0  0  0
   34.1942   19.8819   37.1831 H   0  0  0  0  0  0  0  0  0  0  0  0
   35.2713   20.9438   38.1290 H   0  0  0  0  0  0  0  0  0  0  0  0
  1  6  2  0
  1  2  1  0
  2  3  2  0
  3  4  1  0
  3  7  1  0
  5  4  2  0
  6  5  1  0
  7  9  1  0
  7  8  1  0
 10 15  1  0
 10  2  1  0
 11 19  1  0
 12 11  1  0
 12 13  2  0
 13 14  1  0
 14 15  1  0
 15 16  2  0
 17 16  1  0
 17 20  1  0
 18 17  2  0
 19 14  2  0
 19 18  1  0
  1 21  1  0
  5 22  1  0
  7 23  1  0
  8 24  1  0
  8 25  1  0
  8 26  1  0
  9 27  1  0
  9 28  1  0
  9 29  1  0
 11 30  1  0
 12 31  1  0
 20 32  1  0
 20 33  1  0
M  ISO  8  21  14  22  14  23   8  24   8  25   8  26   8  27   8  28   8
M  ISO  3  29   8  30   9  31  14
M  END
>  <minimizedAffinity>  (1) 
-5.12620926

>  <minimizedRMSD>  (1) 
0.815297425

$$$$
