
     RDKit          3D

 44 47  0  0  0  0  0  0  0  0999 V2000
   37.3210   26.8760   33.8500 C   0  0  0  0  0  0  0  0  0  0  0  0
   38.6120   26.5680   33.3500 C   0  0  0  0  0  0  0  0  0  0  0  0
   39.6590   26.6790   34.2410 C   0  0  0  0  0  0  0  0  0  0  0  0
   39.4010   27.0800   35.5440 N   0  0  0  0  0  0  0  0  0  0  0  0
   38.1550   27.3620   35.9690 C   0  0  0  0  0  0  0  0  0  0  0  0
   37.1150   27.2590   35.1200 N   0  0  0  0  0  0  0  0  0  0  0  0
   40.9840   26.2320   33.7800 C   0  0  0  0  0  0  0  0  0  0  0  0
   41.8190   25.5990   34.7550 C   0  0  0  0  0  0  0  0  0  0  0  0
   41.6880   27.5640   33.1610 C   0  0  0  0  0  0  0  0  0  0  0  0
   38.6870   26.2050   32.0660 O   0  0  0  0  0  0  0  0  0  0  0  0
   39.3760   23.9790   28.2050 N   0  0  0  0  0  0  0  0  0  0  0  0
   39.8350   25.2230   28.2220 C   0  0  0  0  0  0  0  0  0  0  0  0
   39.6110   25.8520   29.3860 N   0  0  0  0  0  0  0  0  0  0  0  0
   38.9590   24.9660   30.1990 C   0  0  0  0  0  0  0  0  0  0  0  0
   38.4530   24.9900   31.5170 C   0  0  0  0  0  0  0  0  0  0  0  0
   37.8810   23.8490   31.8960 N   0  0  0  0  0  0  0  0  0  0  0  0
   37.7700   22.7650   31.1500 C   0  0  0  0  0  0  0  0  0  0  0  0
   38.2380   22.7190   29.9050 N   0  0  0  0  0  0  0  0  0  0  0  0
   38.8440   23.8400   29.4220 C   0  0  0  0  0  0  0  0  0  0  0  0
   37.1280   21.6290   31.7140 N   0  0  0  0  0  0  0  0  0  0  0  0
   36.3990   20.6990   30.8510 C   0  0  0  0  0  0  0  0  0  0  0  0
   35.5990   19.7850   31.7540 C   0  0  0  0  0  0  0  0  0  0  0  0
   34.9410   20.4770   32.7660 O   0  0  0  0  0  0  0  0  0  0  0  0
   35.8310   20.9750   33.7130 C   0  0  0  0  0  0  0  0  0  0  0  0
   37.1600   21.3400   33.1290 C   0  0  0  0  0  0  0  0  0  0  0  0
   36.4576   26.7983   33.1729 H   0  0  0  0  0  0  0  0  0  0  0  0
   37.9867   27.6765   37.0096 H   0  0  0  0  0  0  0  0  0  0  0  0
   40.8461   25.4227   33.0479 H   0  0  0  0  0  0  0  0  0  0  0  0
   41.4699   25.8636   35.7640 H   0  0  0  0  0  0  0  0  0  0  0  0
   41.7718   24.5077   34.6252 H   0  0  0  0  0  0  0  0  0  0  0  0
   42.8570   25.9392   34.6252 H   0  0  0  0  0  0  0  0  0  0  0  0
   42.0306   28.2123   33.9809 H   0  0  0  0  0  0  0  0  0  0  0  0
   42.5485   27.2699   32.5420 H   0  0  0  0  0  0  0  0  0  0  0  0
   40.9603   28.1093   32.5420 H   0  0  0  0  0  0  0  0  0  0  0  0
   39.4192   23.2895   27.4410 H   0  0  0  0  0  0  0  0  0  0  0  0
   40.3472   25.6916   27.3688 H   0  0  0  0  0  0  0  0  0  0  0  0
   35.7240   21.2545   30.1834 H   0  0  0  0  0  0  0  0  0  0  0  0
   37.0941   20.1197   30.2255 H   0  0  0  0  0  0  0  0  0  0  0  0
   34.8514   19.2546   31.1458 H   0  0  0  0  0  0  0  0  0  0  0  0
   36.3029   19.0866   32.2302 H   0  0  0  0  0  0  0  0  0  0  0  0
   35.3903   21.8730   34.1706 H   0  0  0  0  0  0  0  0  0  0  0  0
   36.0033   20.1802   34.4537 H   0  0  0  0  0  0  0  0  0  0  0  0
   37.8511   20.5002   33.2936 H   0  0  0  0  0  0  0  0  0  0  0  0
   37.4824   22.2636   33.6321 H   0  0  0  0  0  0  0  0  0  0  0  0
  1  6  2  0
  2  1  1  0
  2  3  2  0
  3  4  1  0
  4  5  2  0
  6  5  1  0
  7  3  1  0
  7  8  1  0
  9  7  1  0
 10  2  1  0
 11 12  1  0
 11 19  1  0
 12 13  2  0
 13 14  1  0
 14 15  2  0
 15 16  1  0
 15 10  1  0
 17 20  1  0
 17 16  2  0
 18 17  1  0
 19 18  2  0
 19 14  1  0
 20 25  1  0
 21 20  1  0
 21 22  1  0
 22 23  1  0
 23 24  1  0
 25 24  1  0
  1 26  1  0
  5 27  1  0
  7 28  1  0
  8 29  1  0
  8 30  1  0
  8 31  1  0
  9 32  1  0
  9 33  1  0
  9 34  1  0
 11 35  1  0
 12 36  1  0
 21 37  1  0
 21 38  1  0
 22 39  1  0
 22 40  1  0
 24 41  1  0
 24 42  1  0
 25 43  1  0
 25 44  1  0
M  ISO  8  26  14  27  14  28   8  29   8  30   8  31   8  32   8  33   8
M  ISO  8  34   8  35   9  36  14  37  13  38  13  39  13  40  13  41  13
M  ISO  3  42  13  43  13  44  13
M  END
>  <minimizedAffinity>  (1) 
-4.94538307

>  <minimizedRMSD>  (1) 
4.64780617

$$$$
