
     RDKit          3D

 38 41  0  0  0  0  0  0  0  0999 V2000
   37.5440   21.9660   34.4810 C   0  0  0  0  0  0  0  0  0  0  0  0
   38.0720   22.7180   35.5570 C   0  0  0  0  0  0  0  0  0  0  0  0
   37.4200   22.6010   36.7680 C   0  0  0  0  0  0  0  0  0  0  0  0
   36.3090   21.7770   36.8630 N   0  0  0  0  0  0  0  0  0  0  0  0
   35.8460   21.0820   35.8070 C   0  0  0  0  0  0  0  0  0  0  0  0
   36.4620   21.1750   34.6140 N   0  0  0  0  0  0  0  0  0  0  0  0
   38.0350   23.2760   37.9240 C   0  0  0  0  0  0  0  0  0  0  0  0
   37.8960   24.6970   37.9740 C   0  0  0  0  0  0  0  0  0  0  0  0
   39.6000   22.8450   37.8970 C   0  0  0  0  0  0  0  0  0  0  0  0
   39.1460   23.4680   35.2910 O   0  0  0  0  0  0  0  0  0  0  0  0
   42.1260   26.7400   34.3950 N   0  0  0  0  0  0  0  0  0  0  0  0
   42.6310   25.6510   35.0080 C   0  0  0  0  0  0  0  0  0  0  0  0
   41.7190   24.7190   35.2480 N   0  0  0  0  0  0  0  0  0  0  0  0
   40.5290   25.1740   34.7860 C   0  0  0  0  0  0  0  0  0  0  0  0
   39.1950   24.6990   34.7290 C   0  0  0  0  0  0  0  0  0  0  0  0
   38.3320   25.5380   34.1590 N   0  0  0  0  0  0  0  0  0  0  0  0
   38.6370   26.7250   33.6710 C   0  0  0  0  0  0  0  0  0  0  0  0
   39.8730   27.2100   33.7040 N   0  0  0  0  0  0  0  0  0  0  0  0
   40.8350   26.4220   34.2710 C   0  0  0  0  0  0  0  0  0  0  0  0
   37.5690   27.5220   33.0790 C   0  0  0  0  0  0  0  0  0  0  0  0
   37.4580   27.9710   31.7690 C   0  0  0  0  0  0  0  0  0  0  0  0
   36.3210   28.6810   31.6110 N   0  0  0  0  0  0  0  0  0  0  0  0
   35.6890   28.6980   32.8100 C   0  0  0  0  0  0  0  0  0  0  0  0
   36.4450   28.0040   33.6740 N   0  0  0  0  0  0  0  0  0  0  0  0
   38.0356   22.0298   33.4990 H   0  0  0  0  0  0  0  0  0  0  0  0
   34.9623   20.4367   35.9195 H   0  0  0  0  0  0  0  0  0  0  0  0
   37.5029   22.9551   38.8317 H   0  0  0  0  0  0  0  0  0  0  0  0
   37.8639   25.0256   39.0233 H   0  0  0  0  0  0  0  0  0  0  0  0
   38.7524   25.1672   37.4686 H   0  0  0  0  0  0  0  0  0  0  0  0
   36.9647   24.9923   37.4686 H   0  0  0  0  0  0  0  0  0  0  0  0
   39.9701   22.7431   38.9279 H   0  0  0  0  0  0  0  0  0  0  0  0
   39.7067   21.8840   37.3724 H   0  0  0  0  0  0  0  0  0  0  0  0
   40.1836   23.6159   37.3724 H   0  0  0  0  0  0  0  0  0  0  0  0
   42.6118   27.5983   34.0980 H   0  0  0  0  0  0  0  0  0  0  0  0
   43.6914   25.5462   35.2812 H   0  0  0  0  0  0  0  0  0  0  0  0
   38.1923   27.7757   30.9736 H   0  0  0  0  0  0  0  0  0  0  0  0
   34.7313   29.1908   33.0337 H   0  0  0  0  0  0  0  0  0  0  0  0
   36.2043   27.8548   34.6643 H   0  0  0  0  0  0  0  0  0  0  0  0
  1  6  2  0
  1  2  1  0
  2  3  2  0
  3  4  1  0
  3  7  1  0
  5  4  2  0
  6  5  1  0
  7  8  1  0
  9  7  1  0
 10  2  1  0
 11 12  1  0
 12 13  2  0
 14 13  1  0
 15 14  2  0
 15 10  1  0
 16 15  1  0
 17 18  1  0
 17 16  2  0
 18 19  2  0
 19 11  1  0
 19 14  1  0
 20 17  1  0
 20 24  1  0
 21 20  2  0
 22 21  1  0
 22 23  2  0
 23 24  1  0
  1 25  1  0
  5 26  1  0
  7 27  1  0
  8 28  1  0
  8 29  1  0
  8 30  1  0
  9 31  1  0
  9 32  1  0
  9 33  1  0
 11 34  1  0
 12 35  1  0
 21 36  1  0
 23 37  1  0
 24 38  1  0
M  ISO  8  25  14  26  14  27   8  28   8  29   8  30   8  31   8  32   8
M  ISO  6  33   8  34   9  35  14  36  14  37  14  38   9
M  END
>  <minimizedAffinity>  (1) 
-5.18848944

>  <minimizedRMSD>  (1) 
6.53859997

$$$$
