
     RDKit          3D

 40 42  0  0  0  0  0  0  0  0999 V2000
   38.1920   25.2870   34.3760 C   0  0  0  0  0  0  0  0  0  0  0  0
   37.8010   25.3710   33.0170 C   0  0  0  0  0  0  0  0  0  0  0  0
   37.0100   26.4450   32.6670 C   0  0  0  0  0  0  0  0  0  0  0  0
   36.6430   27.3640   33.6410 N   0  0  0  0  0  0  0  0  0  0  0  0
   37.0410   27.2390   34.9200 C   0  0  0  0  0  0  0  0  0  0  0  0
   37.8150   26.2030   35.2880 N   0  0  0  0  0  0  0  0  0  0  0  0
   36.7090   26.6220   31.2370 C   0  0  0  0  0  0  0  0  0  0  0  0
   36.6510   27.9710   30.7620 C   0  0  0  0  0  0  0  0  0  0  0  0
   35.3050   25.8470   30.9930 C   0  0  0  0  0  0  0  0  0  0  0  0
   38.2330   24.3970   32.2100 O   0  0  0  0  0  0  0  0  0  0  0  0
   38.7490   20.8090   29.5130 N   0  0  0  0  0  0  0  0  0  0  0  0
   39.6140   21.8070   29.3010 C   0  0  0  0  0  0  0  0  0  0  0  0
   39.4240   22.8440   30.1190 N   0  0  0  0  0  0  0  0  0  0  0  0
   38.3740   22.5400   30.9330 C   0  0  0  0  0  0  0  0  0  0  0  0
   37.6840   23.1780   31.9880 C   0  0  0  0  0  0  0  0  0  0  0  0
   36.6890   22.4560   32.4980 N   0  0  0  0  0  0  0  0  0  0  0  0
   36.3330   21.2480   32.0960 C   0  0  0  0  0  0  0  0  0  0  0  0
   36.9660   20.6310   31.1070 N   0  0  0  0  0  0  0  0  0  0  0  0
   38.0040   21.2860   30.5150 C   0  0  0  0  0  0  0  0  0  0  0  0
   35.1870   20.6040   32.7980 C   0  0  0  0  0  0  0  0  0  0  0  0
   35.5850   20.5340   34.2620 C   0  0  0  0  0  0  0  0  0  0  0  0
   34.9320   19.2080   32.2520 C   0  0  0  0  0  0  0  0  0  0  0  0
   38.8243   24.4459   34.6967 H   0  0  0  0  0  0  0  0  0  0  0  0
   36.7325   27.9859   35.6663 H   0  0  0  0  0  0  0  0  0  0  0  0
   37.5460   26.2111   30.6534 H   0  0  0  0  0  0  0  0  0  0  0  0
   36.6214   28.6604   31.6186 H   0  0  0  0  0  0  0  0  0  0  0  0
   37.5409   28.1832   30.1512 H   0  0  0  0  0  0  0  0  0  0  0  0
   35.7462   28.1061   30.1512 H   0  0  0  0  0  0  0  0  0  0  0  0
   34.8511   25.5964   31.9631 H   0  0  0  0  0  0  0  0  0  0  0  0
   34.6219   26.4958   30.4252 H   0  0  0  0  0  0  0  0  0  0  0  0
   35.4900   24.9232   30.4252 H   0  0  0  0  0  0  0  0  0  0  0  0
   38.6757   19.9035   29.0277 H   0  0  0  0  0  0  0  0  0  0  0  0
   40.4002   21.7761   28.5323 H   0  0  0  0  0  0  0  0  0  0  0  0
   34.2586   21.1762   32.6541 H   0  0  0  0  0  0  0  0  0  0  0  0
   34.6965   20.6903   34.8914 H   0  0  0  0  0  0  0  0  0  0  0  0
   36.0178   19.5459   34.4775 H   0  0  0  0  0  0  0  0  0  0  0  0
   36.3290   21.3151   34.4775 H   0  0  0  0  0  0  0  0  0  0  0  0
   34.8036   18.5050   33.0883 H   0  0  0  0  0  0  0  0  0  0  0  0
   34.0204   19.2159   31.6364 H   0  0  0  0  0  0  0  0  0  0  0  0
   35.7875   18.8931   31.6364 H   0  0  0  0  0  0  0  0  0  0  0  0
  1  6  2  0
  2  1  1  0
  3  2  2  0
  3  4  1  0
  4  5  2  0
  5  6  1  0
  7  3  1  0
  8  7  1  0
  9  7  1  0
 10  2  1  0
 11 19  1  0
 12 11  1  0
 12 13  2  0
 13 14  1  0
 14 15  1  0
 15 10  1  0
 15 16  2  0
 17 16  1  0
 17 20  1  0
 18 17  2  0
 19 14  2  0
 19 18  1  0
 20 21  1  0
 22 20  1  0
  1 23  1  0
  5 24  1  0
  7 25  1  0
  8 26  1  0
  8 27  1  0
  8 28  1  0
  9 29  1  0
  9 30  1  0
  9 31  1  0
 11 32  1  0
 12 33  1  0
 20 34  1  0
 21 35  1  0
 21 36  1  0
 21 37  1  0
 22 38  1  0
 22 39  1  0
 22 40  1  0
M  ISO  8  23  14  24  14  25   8  26   8  27   8  28   8  29   8  30   8
M  ISO  8  31   8  32   9  33  14  34   8  35   8  36   8  37   8  38   8
M  ISO  2  39   8  40   8
M  END
>  <minimizedAffinity>  (1) 
-4.59441805

>  <minimizedRMSD>  (1) 
4.08569384

$$$$
