
     RDKit          3D

 37 39  0  0  0  0  0  0  0  0999 V2000
   38.9780   25.9530   33.9450 C   0  0  0  0  0  0  0  0  0  0  0  0
   38.9670   24.7500   34.6910 C   0  0  0  0  0  0  0  0  0  0  0  0
   38.6940   24.8610   36.0380 C   0  0  0  0  0  0  0  0  0  0  0  0
   38.4530   26.1170   36.5840 N   0  0  0  0  0  0  0  0  0  0  0  0
   38.4760   27.2310   35.8250 C   0  0  0  0  0  0  0  0  0  0  0  0
   38.7380   27.1500   34.5100 N   0  0  0  0  0  0  0  0  0  0  0  0
   38.5360   23.6120   36.7970 C   0  0  0  0  0  0  0  0  0  0  0  0
   37.7470   23.6960   37.9900 C   0  0  0  0  0  0  0  0  0  0  0  0
   40.0480   23.1090   37.1200 C   0  0  0  0  0  0  0  0  0  0  0  0
   39.2280   23.6280   34.0160 O   0  0  0  0  0  0  0  0  0  0  0  0
   38.2190   21.4130   30.2110 N   0  0  0  0  0  0  0  0  0  0  0  0
   39.2370   22.2790   30.1150 C   0  0  0  0  0  0  0  0  0  0  0  0
   39.4980   22.9070   31.2590 N   0  0  0  0  0  0  0  0  0  0  0  0
   38.6100   22.4460   32.1940 C   0  0  0  0  0  0  0  0  0  0  0  0
   38.3580   22.6950   33.5610 C   0  0  0  0  0  0  0  0  0  0  0  0
   37.3520   21.9780   34.0590 N   0  0  0  0  0  0  0  0  0  0  0  0
   36.6240   21.1020   33.3910 C   0  0  0  0  0  0  0  0  0  0  0  0
   36.8480   20.8570   32.1040 N   0  0  0  0  0  0  0  0  0  0  0  0
   37.8560   21.5360   31.4910 C   0  0  0  0  0  0  0  0  0  0  0  0
   35.5450   20.4090   34.1500 C   0  0  0  0  0  0  0  0  0  0  0  0
   35.5970   20.7530   35.6230 C   0  0  0  0  0  0  0  0  0  0  0  0
   39.1900   25.9075   32.8666 H   0  0  0  0  0  0  0  0  0  0  0  0
   38.2793   28.2108   36.2847 H   0  0  0  0  0  0  0  0  0  0  0  0
   37.9589   22.9020   36.1864 H   0  0  0  0  0  0  0  0  0  0  0  0
   38.4038   23.6261   38.8696 H   0  0  0  0  0  0  0  0  0  0  0  0
   37.2108   24.6563   38.0081 H   0  0  0  0  0  0  0  0  0  0  0  0
   37.0207   22.8701   38.0081 H   0  0  0  0  0  0  0  0  0  0  0  0
   40.1935   23.0606   38.2093 H   0  0  0  0  0  0  0  0  0  0  0  0
   40.2032   22.1108   36.6846 H   0  0  0  0  0  0  0  0  0  0  0  0
   40.7702   23.8153   36.6846 H   0  0  0  0  0  0  0  0  0  0  0  0
   37.8177   20.8059   29.4822 H   0  0  0  0  0  0  0  0  0  0  0  0
   39.7994   22.4530   29.1858 H   0  0  0  0  0  0  0  0  0  0  0  0
   34.5692   20.7155   33.7452 H   0  0  0  0  0  0  0  0  0  0  0  0
   35.6888   19.3237   34.0428 H   0  0  0  0  0  0  0  0  0  0  0  0
   35.4587   19.8384   36.2182 H   0  0  0  0  0  0  0  0  0  0  0  0
   36.5731   21.2011   35.8607 H   0  0  0  0  0  0  0  0  0  0  0  0
   34.7970   21.4696   35.8607 H   0  0  0  0  0  0  0  0  0  0  0  0
  1  6  2  0
  1  2  1  0
  2  3  2  0
  3  4  1  0
  3  7  1  0
  5  4  2  0
  6  5  1  0
  7  9  1  0
  7  8  1  0
 10  2  1  0
 11 19  1  0
 12 11  1  0
 12 13  2  0
 13 14  1  0
 14 15  2  0
 15 10  1  0
 15 16  1  0
 17 16  2  0
 17 20  1  0
 18 17  1  0
 19 18  2  0
 19 14  1  0
 20 21  1  0
  1 22  1  0
  5 23  1  0
  7 24  1  0
  8 25  1  0
  8 26  1  0
  8 27  1  0
  9 28  1  0
  9 29  1  0
  9 30  1  0
 11 31  1  0
 12 32  1  0
 20 33  1  0
 20 34  1  0
 21 35  1  0
 21 36  1  0
 21 37  1  0
M  ISO  8  22  14  23  14  24   8  25   8  26   8  27   8  28   8  29   8
M  ISO  8  30   8  31   9  32  14  33   8  34   8  35   8  36   8  37   8
M  END
>  <minimizedAffinity>  (1) 
-4.46537304

>  <minimizedRMSD>  (1) 
1.52144265

$$$$
