
     RDKit          3D

 34 36  0  0  0  0  0  0  0  0999 V2000
   39.1530   24.7230   33.4200 C   0  0  0  0  0  0  0  0  0  0  0  0
   39.6570   23.6560   34.2110 C   0  0  0  0  0  0  0  0  0  0  0  0
   40.6060   23.9840   35.1570 C   0  0  0  0  0  0  0  0  0  0  0  0
   41.0130   25.3070   35.2820 N   0  0  0  0  0  0  0  0  0  0  0  0
   40.5010   26.2800   34.5040 C   0  0  0  0  0  0  0  0  0  0  0  0
   39.5760   25.9990   33.5780 N   0  0  0  0  0  0  0  0  0  0  0  0
   41.0370   22.9180   36.0760 C   0  0  0  0  0  0  0  0  0  0  0  0
   40.2790   22.7800   37.2810 C   0  0  0  0  0  0  0  0  0  0  0  0
   42.5960   23.2180   36.3860 C   0  0  0  0  0  0  0  0  0  0  0  0
   39.1660   22.4400   33.9570 O   0  0  0  0  0  0  0  0  0  0  0  0
   35.5850   20.2690   32.2630 N   0  0  0  0  0  0  0  0  0  0  0  0
   36.5410   20.5840   31.3710 C   0  0  0  0  0  0  0  0  0  0  0  0
   37.5790   21.2240   31.9190 N   0  0  0  0  0  0  0  0  0  0  0  0
   37.3190   21.3520   33.2510 C   0  0  0  0  0  0  0  0  0  0  0  0
   37.9850   21.9120   34.3640 C   0  0  0  0  0  0  0  0  0  0  0  0
   37.3180   21.7940   35.5130 N   0  0  0  0  0  0  0  0  0  0  0  0
   36.1450   21.2200   35.6560 C   0  0  0  0  0  0  0  0  0  0  0  0
   35.4850   20.6820   34.6290 N   0  0  0  0  0  0  0  0  0  0  0  0
   36.0880   20.7500   33.4040 C   0  0  0  0  0  0  0  0  0  0  0  0
   35.5680   21.1880   36.9990 C   0  0  0  0  0  0  0  0  0  0  0  0
   36.1280   21.7930   37.9500 O   0  0  0  0  0  0  0  0  0  0  0  0
   34.3980   20.5160   37.3360 O   0  0  0  0  0  0  0  0  0  0  0  0
   38.3942   24.5051   32.6541 H   0  0  0  0  0  0  0  0  0  0  0  0
   40.8466   27.3166   34.6309 H   0  0  0  0  0  0  0  0  0  0  0  0
   40.8687   21.9473   35.5868 H   0  0  0  0  0  0  0  0  0  0  0  0
   40.9443   22.9011   38.1486 H   0  0  0  0  0  0  0  0  0  0  0  0
   39.4940   23.5500   37.3106 H   0  0  0  0  0  0  0  0  0  0  0  0
   39.8157   21.7828   37.3106 H   0  0  0  0  0  0  0  0  0  0  0  0
   42.7542   23.2484   37.4741 H   0  0  0  0  0  0  0  0  0  0  0  0
   43.2167   22.4228   35.9473 H   0  0  0  0  0  0  0  0  0  0  0  0
   42.8773   24.1867   35.9473 H   0  0  0  0  0  0  0  0  0  0  0  0
   34.6917   19.7808   32.1065 H   0  0  0  0  0  0  0  0  0  0  0  0
   36.4756   20.3401   30.3004 H   0  0  0  0  0  0  0  0  0  0  0  0
   34.0656   20.5379   38.2683 H   0  0  0  0  0  0  0  0  0  0  0  0
  1  6  2  0
  1  2  1  0
  2  3  2  0
  3  4  1  0
  3  7  1  0
  5  4  2  0
  6  5  1  0
  7  9  1  0
  7  8  1  0
 10  2  1  0
 10 15  1  0
 11 19  1  0
 12 13  2  0
 12 11  1  0
 13 14  1  0
 14 19  2  0
 14 15  1  0
 15 16  2  0
 16 17  1  0
 17 20  1  0
 18 17  2  0
 19 18  1  0
 20 22  1  0
 20 21  2  0
  1 23  1  0
  5 24  1  0
  7 25  1  0
  8 26  1  0
  8 27  1  0
  8 28  1  0
  9 29  1  0
  9 30  1  0
  9 31  1  0
 11 32  1  0
 12 33  1  0
 22 34  1  0
M  ISO  8  23  14  24  14  25   8  26   8  27   8  28   8  29   8  30   8
M  ISO  4  31   8  32   9  33  14  34   3
M  END
>  <minimizedAffinity>  (1) 
-4.61227417

>  <minimizedRMSD>  (1) 
1.88746762

$$$$
