
     RDKit          3D

 38 41  0  0  0  0  0  0  0  0999 V2000
   38.6910   25.1650   32.1600 O   0  0  0  0  0  0  0  0  0  0  0  0
   40.9640   21.7980   34.1320 N   0  0  0  0  0  0  0  0  0  0  0  0
   41.5960   22.9700   34.1120 C   0  0  0  0  0  0  0  0  0  0  0  0
   40.8910   23.9350   33.5220 N   0  0  0  0  0  0  0  0  0  0  0  0
   39.7060   23.3880   33.1150 C   0  0  0  0  0  0  0  0  0  0  0  0
   38.5510   23.8520   32.4520 C   0  0  0  0  0  0  0  0  0  0  0  0
   37.6200   22.9170   32.2750 N   0  0  0  0  0  0  0  0  0  0  0  0
   37.7100   21.6520   32.6590 C   0  0  0  0  0  0  0  0  0  0  0  0
   38.7930   21.2020   33.2820 N   0  0  0  0  0  0  0  0  0  0  0  0
   39.8050   22.0780   33.5150 C   0  0  0  0  0  0  0  0  0  0  0  0
   36.5810   20.8370   32.3560 N   0  0  0  0  0  0  0  0  0  0  0  0
   36.7210   19.7590   31.5890 N   0  0  0  0  0  0  0  0  0  0  0  0
   35.5220   19.1560   31.4480 C   0  0  0  0  0  0  0  0  0  0  0  0
   34.6100   19.9220   32.1750 C   0  0  0  0  0  0  0  0  0  0  0  0
   35.3000   20.9770   32.7390 C   0  0  0  0  0  0  0  0  0  0  0  0
   36.8290   26.3630   31.3980 C   0  0  0  0  0  0  0  0  0  0  0  0
   37.8330   26.1610   32.3780 C   0  0  0  0  0  0  0  0  0  0  0  0
   37.8160   27.0260   33.4530 C   0  0  0  0  0  0  0  0  0  0  0  0
   36.8510   28.0160   33.5140 N   0  0  0  0  0  0  0  0  0  0  0  0
   35.9190   28.1670   32.5560 C   0  0  0  0  0  0  0  0  0  0  0  0
   35.9080   27.3360   31.4950 N   0  0  0  0  0  0  0  0  0  0  0  0
   38.7650   26.7470   34.5500 C   0  0  0  0  0  0  0  0  0  0  0  0
   38.4320   27.3030   35.8260 C   0  0  0  0  0  0  0  0  0  0  0  0
   40.2010   27.2880   34.0180 C   0  0  0  0  0  0  0  0  0  0  0  0
   41.2844   20.9007   34.5232 H   0  0  0  0  0  0  0  0  0  0  0  0
   42.5977   23.1258   34.5389 H   0  0  0  0  0  0  0  0  0  0  0  0
   35.3065   18.2426   30.8742 H   0  0  0  0  0  0  0  0  0  0  0  0
   33.5336   19.7214   32.2801 H   0  0  0  0  0  0  0  0  0  0  0  0
   34.8845   21.7728   33.3746 H   0  0  0  0  0  0  0  0  0  0  0  0
   36.8030   25.6965   30.5233 H   0  0  0  0  0  0  0  0  0  0  0  0
   35.1679   28.9665   32.6383 H   0  0  0  0  0  0  0  0  0  0  0  0
   38.7543   25.6676   34.7618 H   0  0  0  0  0  0  0  0  0  0  0  0
   38.8218   26.6522   36.6226 H   0  0  0  0  0  0  0  0  0  0  0  0
   38.8797   28.3036   35.9181 H   0  0  0  0  0  0  0  0  0  0  0  0
   37.3386   27.3806   35.9181 H   0  0  0  0  0  0  0  0  0  0  0  0
   40.8431   27.5299   34.8778 H   0  0  0  0  0  0  0  0  0  0  0  0
   40.6829   26.5098   33.4080 H   0  0  0  0  0  0  0  0  0  0  0  0
   40.0496   28.1907   33.4080 H   0  0  0  0  0  0  0  0  0  0  0  0
  1 17  1  0
  1  6  1  0
  3  2  1  0
  4  3  2  0
  5 10  2  0
  5  4  1  0
  6  5  1  0
  7  6  2  0
  7  8  1  0
  8  9  2  0
  9 10  1  0
 10  2  1  0
 11  8  1  0
 11 15  1  0
 12 11  1  0
 13 12  2  0
 13 14  1  0
 14 15  2  0
 16 21  2  0
 16 17  1  0
 17 18  2  0
 18 19  1  0
 18 22  1  0
 20 19  2  0
 21 20  1  0
 22 23  1  0
 24 22  1  0
  2 25  1  0
  3 26  1  0
 13 27  1  0
 14 28  1  0
 15 29  1  0
 16 30  1  0
 20 31  1  0
 22 32  1  0
 23 33  1  0
 23 34  1  0
 23 35  1  0
 24 36  1  0
 24 37  1  0
 24 38  1  0
M  ISO  8  25   9  26  14  27  14  28  14  29  14  30  14  31  14  32   8
M  ISO  6  33   8  34   8  35   8  36   8  37   8  38   8
M  END
>  <minimizedAffinity>  (1) 
-4.80857992

>  <minimizedRMSD>  (1) 
4.29775047

$$$$
