
     RDKit          3D

 37 40  0  0  0  0  0  0  0  0999 V2000
   39.9530   25.6600   34.5970 C   0  0  0  0  0  0  0  0  0  0  0  0
   39.6540   24.5790   35.4630 C   0  0  0  0  0  0  0  0  0  0  0  0
   38.7610   24.8380   36.4870 C   0  0  0  0  0  0  0  0  0  0  0  0
   38.2230   26.1120   36.6120 N   0  0  0  0  0  0  0  0  0  0  0  0
   38.5440   27.1040   35.7610 C   0  0  0  0  0  0  0  0  0  0  0  0
   39.4060   26.8780   34.7560 N   0  0  0  0  0  0  0  0  0  0  0  0
   38.3310   23.6960   37.3070 C   0  0  0  0  0  0  0  0  0  0  0  0
   37.2260   22.9370   36.8060 C   0  0  0  0  0  0  0  0  0  0  0  0
   38.0040   24.3170   38.7690 C   0  0  0  0  0  0  0  0  0  0  0  0
   40.2640   23.4190   35.2110 O   0  0  0  0  0  0  0  0  0  0  0  0
   42.2420   20.2090   32.7190 N   0  0  0  0  0  0  0  0  0  0  0  0
   43.0660   20.8820   33.5450 C   0  0  0  0  0  0  0  0  0  0  0  0
   42.4390   21.8190   34.2600 N   0  0  0  0  0  0  0  0  0  0  0  0
   41.1180   21.7840   33.9040 C   0  0  0  0  0  0  0  0  0  0  0  0
   39.9530   22.4890   34.2770 C   0  0  0  0  0  0  0  0  0  0  0  0
   38.8550   22.0860   33.6410 N   0  0  0  0  0  0  0  0  0  0  0  0
   38.8010   21.1250   32.7370 C   0  0  0  0  0  0  0  0  0  0  0  0
   39.8860   20.4550   32.3760 N   0  0  0  0  0  0  0  0  0  0  0  0
   41.0640   20.7830   32.9650 C   0  0  0  0  0  0  0  0  0  0  0  0
   37.5450   20.8270   32.1590 N   0  0  0  0  0  0  0  0  0  0  0  0
   37.0990   21.0730   30.9150 C   0  0  0  0  0  0  0  0  0  0  0  0
   35.8320   20.6290   30.7560 N   0  0  0  0  0  0  0  0  0  0  0  0
   35.4760   20.0900   31.9300 C   0  0  0  0  0  0  0  0  0  0  0  0
   36.5240   20.2250   32.7470 N   0  0  0  0  0  0  0  0  0  0  0  0
   40.6561   25.4973   33.7669 H   0  0  0  0  0  0  0  0  0  0  0  0
   38.0995   28.1020   35.8888 H   0  0  0  0  0  0  0  0  0  0  0  0
   39.1390   22.9496   37.3145 H   0  0  0  0  0  0  0  0  0  0  0  0
   36.6436   22.5370   37.6491 H   0  0  0  0  0  0  0  0  0  0  0  0
   36.5840   23.5856   36.1919 H   0  0  0  0  0  0  0  0  0  0  0  0
   37.6010   22.1050   36.1919 H   0  0  0  0  0  0  0  0  0  0  0  0
   38.3657   23.6301   39.5484 H   0  0  0  0  0  0  0  0  0  0  0  0
   38.5070   25.2895   38.8751 H   0  0  0  0  0  0  0  0  0  0  0  0
   36.9176   24.4526   38.8751 H   0  0  0  0  0  0  0  0  0  0  0  0
   42.4650   19.4457   32.0644 H   0  0  0  0  0  0  0  0  0  0  0  0
   44.1446   20.6803   33.6225 H   0  0  0  0  0  0  0  0  0  0  0  0
   37.6875   21.5701   30.1298 H   0  0  0  0  0  0  0  0  0  0  0  0
   34.5086   19.6264   32.1736 H   0  0  0  0  0  0  0  0  0  0  0  0
  1  6  2  0
  1  2  1  0
  2  3  2  0
  3  4  1  0
  3  7  1  0
  5  4  2  0
  6  5  1  0
  7  9  1  0
  8  7  1  0
 10  2  1  0
 11 19  1  0
 11 12  1  0
 12 13  2  0
 14 13  1  0
 14 15  2  0
 15 10  1  0
 16 15  1  0
 17 16  2  0
 18 17  1  0
 18 19  2  0
 19 14  1  0
 20 17  1  0
 20 24  1  0
 21 20  1  0
 22 21  2  0
 22 23  1  0
 23 24  2  0
  1 25  1  0
  5 26  1  0
  7 27  1  0
  8 28  1  0
  8 29  1  0
  8 30  1  0
  9 31  1  0
  9 32  1  0
  9 33  1  0
 11 34  1  0
 12 35  1  0
 21 36  1  0
 23 37  1  0
M  ISO  8  25  14  26  14  27   8  28   8  29   8  30   8  31   8  32   8
M  ISO  5  33   8  34   9  35  14  36  14  37  14
M  END
>  <minimizedAffinity>  (1) 
-4.49596596

>  <minimizedRMSD>  (1) 
3.99484873

$$$$
