
     RDKit          3D

 38 41  0  0  0  0  0  0  0  0999 V2000
   37.9170   25.5210   34.0970 C   0  0  0  0  0  0  0  0  0  0  0  0
   37.9780   24.4930   35.0700 C   0  0  0  0  0  0  0  0  0  0  0  0
   38.2460   24.8850   36.3680 C   0  0  0  0  0  0  0  0  0  0  0  0
   38.4380   26.2280   36.6450 N   0  0  0  0  0  0  0  0  0  0  0  0
   38.3720   27.1720   35.6900 C   0  0  0  0  0  0  0  0  0  0  0  0
   38.1110   26.8230   34.4170 N   0  0  0  0  0  0  0  0  0  0  0  0
   38.1840   23.8400   37.4040 C   0  0  0  0  0  0  0  0  0  0  0  0
   37.8680   24.2830   38.7280 C   0  0  0  0  0  0  0  0  0  0  0  0
   39.6290   23.1010   37.3580 C   0  0  0  0  0  0  0  0  0  0  0  0
   37.7770   23.2490   34.6300 O   0  0  0  0  0  0  0  0  0  0  0  0
   37.4330   20.7240   30.9010 N   0  0  0  0  0  0  0  0  0  0  0  0
   36.2800   21.2640   31.3440 C   0  0  0  0  0  0  0  0  0  0  0  0
   36.4380   21.9940   32.4350 N   0  0  0  0  0  0  0  0  0  0  0  0
   37.7590   21.9640   32.7730 C   0  0  0  0  0  0  0  0  0  0  0  0
   38.5580   22.5160   33.8000 C   0  0  0  0  0  0  0  0  0  0  0  0
   39.8460   22.1930   33.7130 N   0  0  0  0  0  0  0  0  0  0  0  0
   40.3820   21.4330   32.7770 C   0  0  0  0  0  0  0  0  0  0  0  0
   39.6560   20.9010   31.7990 N   0  0  0  0  0  0  0  0  0  0  0  0
   38.3150   21.1720   31.7970 C   0  0  0  0  0  0  0  0  0  0  0  0
   41.7860   21.2260   32.8910 N   0  0  0  0  0  0  0  0  0  0  0  0
   42.8220   22.0280   32.5610 C   0  0  0  0  0  0  0  0  0  0  0  0
   43.9720   21.3270   32.8860 C   0  0  0  0  0  0  0  0  0  0  0  0
   43.5990   20.1330   33.3990 N   0  0  0  0  0  0  0  0  0  0  0  0
   42.2440   20.0770   33.4000 C   0  0  0  0  0  0  0  0  0  0  0  0
   37.7059   25.2541   33.0510 H   0  0  0  0  0  0  0  0  0  0  0  0
   38.5313   28.2291   35.9492 H   0  0  0  0  0  0  0  0  0  0  0  0
   37.3409   23.1716   37.1750 H   0  0  0  0  0  0  0  0  0  0  0  0
   38.3441   23.6156   39.4614 H   0  0  0  0  0  0  0  0  0  0  0  0
   38.2397   25.3085   38.8700 H   0  0  0  0  0  0  0  0  0  0  0  0
   36.7773   24.2654   38.8700 H   0  0  0  0  0  0  0  0  0  0  0  0
   39.9815   22.9207   38.3843 H   0  0  0  0  0  0  0  0  0  0  0  0
   39.5333   22.1412   36.8293 H   0  0  0  0  0  0  0  0  0  0  0  0
   40.3512   23.7404   36.8293 H   0  0  0  0  0  0  0  0  0  0  0  0
   37.5924   20.1207   30.0816 H   0  0  0  0  0  0  0  0  0  0  0  0
   35.3091   21.1131   30.8495 H   0  0  0  0  0  0  0  0  0  0  0  0
   42.7641   23.0351   32.1224 H   0  0  0  0  0  0  0  0  0  0  0  0
   45.0052   21.6794   32.7507 H   0  0  0  0  0  0  0  0  0  0  0  0
   41.6307   19.2362   33.7561 H   0  0  0  0  0  0  0  0  0  0  0  0
  1  6  2  0
  1  2  1  0
  2  3  2  0
  3  4  1  0
  3  7  1  0
  5  4  2  0
  6  5  1  0
  7  8  1  0
  9  7  1  0
 10  2  1  0
 11 12  1  0
 11 19  1  0
 12 13  2  0
 13 14  1  0
 14 15  2  0
 15 10  1  0
 16 15  1  0
 17 20  1  0
 17 16  2  0
 18 17  1  0
 19 18  2  0
 19 14  1  0
 20 24  1  0
 21 22  2  0
 21 20  1  0
 22 23  1  0
 23 24  2  0
  1 25  1  0
  5 26  1  0
  7 27  1  0
  8 28  1  0
  8 29  1  0
  8 30  1  0
  9 31  1  0
  9 32  1  0
  9 33  1  0
 11 34  1  0
 12 35  1  0
 21 36  1  0
 22 37  1  0
 24 38  1  0
M  ISO  8  25  14  26  14  27   8  28   8  29   8  30   8  31   8  32   8
M  ISO  6  33   8  34   9  35  14  36  14  37  14  38  14
M  END
>  <minimizedAffinity>  (1) 
-4.29000044

>  <minimizedRMSD>  (1) 
4.84209204

$$$$
