
     RDKit          3D

 25 26  0  0  1  0  0  0  0  0999 V2000
   39.9930   22.3430   37.5670 C   0  0  0  0  0  0  0  0  0  0  0  0
   39.5180   23.4020   36.7770 C   0  0  0  0  0  0  0  0  0  0  0  0
   40.3830   23.9190   35.8030 C   0  0  0  0  0  0  0  0  0  0  0  0
   41.6390   23.3590   35.6820 N   0  0  0  0  0  0  0  0  0  0  0  0
   42.0520   22.3380   36.4700 C   0  0  0  0  0  0  0  0  0  0  0  0
   41.2240   21.8330   37.4120 N   0  0  0  0  0  0  0  0  0  0  0  0
   40.0320   24.9790   34.9460 N   0  0  0  0  0  0  0  0  0  0  0  0
   40.6500   26.2960   34.7750 C   0  0  0  0  0  0  0  0  0  0  0  0
   39.3730   27.1200   34.6540 C   0  0  1  0  0  0  0  0  0  0  0  0
   38.6630   26.3250   33.5630 C   0  0  0  0  0  0  0  0  0  0  0  0
   38.9140   24.9190   34.0300 C   0  0  0  0  0  0  0  0  0  0  0  0
   38.5810   27.1460   35.9340 C   0  0  0  0  0  0  0  0  0  0  0  0
   39.3341   21.9176   38.3383 H   0  0  0  0  0  0  0  0  0  0  0  0
   38.5062   23.8101   36.9171 H   0  0  0  0  0  0  0  0  0  0  0  0
   43.0614   21.9194   36.3436 H   0  0  0  0  0  0  0  0  0  0  0  0
   41.2531   26.5889   35.6471 H   0  0  0  0  0  0  0  0  0  0  0  0
   41.3632   26.3886   33.9426 H   0  0  0  0  0  0  0  0  0  0  0  0
   39.5302   28.1865   34.4351 H   0  0  0  0  0  0  0  0  0  0  0  0
   39.1079   26.5085   32.5739 H   0  0  0  0  0  0  0  0  0  0  0  0
   37.6006   26.5787   33.4330 H   0  0  0  0  0  0  0  0  0  0  0  0
   38.0242   24.5253   34.5430 H   0  0  0  0  0  0  0  0  0  0  0  0
   39.1324   24.2533   33.1820 H   0  0  0  0  0  0  0  0  0  0  0  0
   39.2694   27.1234   36.7917 H   0  0  0  0  0  0  0  0  0  0  0  0
   37.9769   28.0645   35.9728 H   0  0  0  0  0  0  0  0  0  0  0  0
   37.9180   26.2691   35.9728 H   0  0  0  0  0  0  0  0  0  0  0  0
  2  1  2  0
  3  2  1  0
  4  3  2  0
  4  5  1  0
  5  6  2  0
  6  1  1  0
  7  3  1  0
  8  7  1  0
  9  8  1  0
  9 12  1  0
 10 11  1  0
 10  9  1  0
 11  7  1  0
  1 13  1  0
  2 14  1  0
  5 15  1  0
  8 16  1  0
  8 17  1  0
  9 18  1  6
 10 19  1  0
 10 20  1  0
 11 21  1  0
 11 22  1  0
 12 23  1  0
 12 24  1  0
 12 25  1  0
M  ISO  8  13  14  14  14  15  14  16  13  17  13  18  13  19  13  20  13
M  ISO  5  21  13  22  13  23   8  24   8  25   8
M  END
>  <minimizedAffinity>  (1) 
-3.68328619

>  <minimizedRMSD>  (1) 
1.22389257

$$$$
