
     RDKit          3D

 23 24  0  0  1  0  0  0  0  0999 V2000
   40.6790   21.9660   37.0720 C   0  0  0  0  0  0  0  0  0  0  0  0
   39.8040   22.9970   36.7380 C   0  0  0  0  0  0  0  0  0  0  0  0
   40.2040   23.9490   35.8050 C   0  0  0  0  0  0  0  0  0  0  0  0
   41.4470   23.8210   35.2610 N   0  0  0  0  0  0  0  0  0  0  0  0
   42.2880   22.8170   35.5920 C   0  0  0  0  0  0  0  0  0  0  0  0
   41.8970   21.8890   36.5010 N   0  0  0  0  0  0  0  0  0  0  0  0
   39.3830   25.0270   35.4080 N   0  0  0  0  0  0  0  0  0  0  0  0
   39.5920   26.4670   35.5030 C   0  0  0  0  0  0  0  0  0  0  0  0
   38.1750   26.8690   35.9000 C   0  0  2  0  0  0  0  0  0  0  0  0
   37.4070   26.1730   34.7710 C   0  0  0  0  0  0  0  0  0  0  0  0
   38.0870   24.8250   34.7870 C   0  0  0  0  0  0  0  0  0  0  0  0
   37.9540   28.2240   35.8080 O   0  0  0  0  0  0  0  0  0  0  0  0
   40.3730   21.2082   37.8082 H   0  0  0  0  0  0  0  0  0  0  0  0
   38.8101   23.0579   37.2054 H   0  0  0  0  0  0  0  0  0  0  0  0
   43.2831   22.7524   35.1276 H   0  0  0  0  0  0  0  0  0  0  0  0
   40.3301   26.7296   36.2751 H   0  0  0  0  0  0  0  0  0  0  0  0
   39.9947   26.9540   34.6026 H   0  0  0  0  0  0  0  0  0  0  0  0
   37.9147   26.6087   36.9366 H   0  0  0  0  0  0  0  0  0  0  0  0
   37.5414   26.6871   33.8079 H   0  0  0  0  0  0  0  0  0  0  0  0
   36.3152   26.1438   34.9015 H   0  0  0  0  0  0  0  0  0  0  0  0
   37.4933   24.1063   35.3709 H   0  0  0  0  0  0  0  0  0  0  0  0
   38.1911   24.4189   33.7700 H   0  0  0  0  0  0  0  0  0  0  0  0
   37.8910   28.6106   36.7172 H   0  0  0  0  0  0  0  0  0  0  0  0
  2  1  2  0
  3  2  1  0
  4  5  1  0
  4  3  2  0
  5  6  2  0
  6  1  1  0
  7  8  1  0
  7  3  1  0
  8  9  1  0
 10 11  1  0
 10  9  1  0
 11  7  1  0
 12  9  1  0
  1 13  1  0
  2 14  1  0
  5 15  1  0
  8 16  1  0
  8 17  1  0
  9 18  1  1
 10 19  1  0
 10 20  1  0
 11 21  1  0
 11 22  1  0
 12 23  1  0
M  ISO  8  13  14  14  14  15  14  16  13  17  13  18  13  19  13  20  13
M  ISO  3  21  13  22  13  23   3
M  END
>  <minimizedAffinity>  (1) 
-3.40057755

>  <minimizedRMSD>  (1) 
0.603850663

$$$$
