
     RDKit          3D

 40 43  0  0  1  0  0  0  0  0999 V2000
   38.0990   25.5860   35.7690 N   0  0  0  0  0  0  0  0  0  0  0  0
   37.1720   25.5500   34.6630 C   0  0  0  0  0  0  0  0  0  0  0  0
   37.8110   26.5620   33.7190 C   0  0  2  0  0  0  0  0  0  0  0  0
   37.7350   27.7280   34.7960 C   0  0  0  0  0  0  0  0  0  0  0  0
   38.2640   26.9800   36.0030 C   0  0  0  0  0  0  0  0  0  0  0  0
   39.0210   23.1460   38.3880 C   0  0  0  0  0  0  0  0  0  0  0  0
   38.2980   24.1850   37.7790 C   0  0  0  0  0  0  0  0  0  0  0  0
   38.7310   24.5640   36.5020 C   0  0  0  0  0  0  0  0  0  0  0  0
   39.8040   23.9260   35.9210 N   0  0  0  0  0  0  0  0  0  0  0  0
   40.4600   22.9240   36.5700 C   0  0  0  0  0  0  0  0  0  0  0  0
   40.0690   22.5430   37.7870 N   0  0  0  0  0  0  0  0  0  0  0  0
   37.1770   26.9440   32.4870 C   0  0  0  0  0  0  0  0  0  0  0  0
   36.3050   26.2130   32.1000 O   0  0  0  0  0  0  0  0  0  0  0  0
   37.2630   28.0050   31.4960 C   0  0  0  0  0  0  0  0  0  0  0  0
   38.1220   27.8940   30.3780 C   0  0  0  0  0  0  0  0  0  0  0  0
   38.4200   28.8820   29.4680 C   0  0  0  0  0  0  0  0  0  0  0  0
   37.8400   30.0930   29.6460 C   0  0  0  0  0  0  0  0  0  0  0  0
   36.9840   30.3300   30.6890 C   0  0  0  0  0  0  0  0  0  0  0  0
   36.3790   31.5570   30.8020 C   0  0  0  0  0  0  0  0  0  0  0  0
   35.4720   31.8020   31.8090 C   0  0  0  0  0  0  0  0  0  0  0  0
   35.2010   30.7620   32.6900 C   0  0  0  0  0  0  0  0  0  0  0  0
   35.8450   29.5610   32.5140 C   0  0  0  0  0  0  0  0  0  0  0  0
   36.7620   29.2700   31.5280 C   0  0  0  0  0  0  0  0  0  0  0  0
   37.1222   24.5491   34.2094 H   0  0  0  0  0  0  0  0  0  0  0  0
   36.1306   25.7766   34.9351 H   0  0  0  0  0  0  0  0  0  0  0  0
   38.7504   26.2148   33.2640 H   0  0  0  0  0  0  0  0  0  0  0  0
   38.3767   28.5797   34.5261 H   0  0  0  0  0  0  0  0  0  0  0  0
   36.7433   28.1864   34.9240 H   0  0  0  0  0  0  0  0  0  0  0  0
   37.7015   27.2761   36.9007 H   0  0  0  0  0  0  0  0  0  0  0  0
   39.3268   27.2159   36.1607 H   0  0  0  0  0  0  0  0  0  0  0  0
   38.7222   22.8110   39.3922 H   0  0  0  0  0  0  0  0  0  0  0  0
   37.4445   24.6710   38.2744 H   0  0  0  0  0  0  0  0  0  0  0  0
   41.3153   22.4272   36.0887 H   0  0  0  0  0  0  0  0  0  0  0  0
   38.6014   26.9167   30.2196 H   0  0  0  0  0  0  0  0  0  0  0  0
   39.1040   28.6953   28.6270 H   0  0  0  0  0  0  0  0  0  0  0  0
   38.0613   30.9045   28.9371 H   0  0  0  0  0  0  0  0  0  0  0  0
   36.6209   32.3521   30.0814 H   0  0  0  0  0  0  0  0  0  0  0  0
   34.9819   32.7814   31.9118 H   0  0  0  0  0  0  0  0  0  0  0  0
   34.4841   30.8977   33.5132 H   0  0  0  0  0  0  0  0  0  0  0  0
   35.6062   28.7576   33.2264 H   0  0  0  0  0  0  0  0  0  0  0  0
  1  5  1  0
  1  8  1  0
  2  1  1  0
  3  2  1  0
  3  4  1  0
  4  5  1  0
  7  6  2  0
  8  7  1  0
  9  8  2  0
  9 10  1  0
 10 11  2  0
 11  6  1  0
 12  3  1  0
 13 12  2  0
 14 23  1  0
 14 12  1  0
 15 14  2  0
 16 17  2  0
 16 15  1  0
 17 18  1  0
 18 19  1  0
 18 23  2  0
 19 20  2  0
 20 21  1  0
 22 21  2  0
 23 22  1  0
  2 24  1  0
  2 25  1  0
  3 26  1  6
  4 27  1  0
  4 28  1  0
  5 29  1  0
  5 30  1  0
  6 31  1  0
  7 32  1  0
 10 33  1  0
 15 34  1  0
 16 35  1  0
 17 36  1  0
 19 37  1  0
 20 38  1  0
 21 39  1  0
 22 40  1  0
M  ISO  8  24  13  25  13  26  13  27  13  28  13  29  13  30  13  31  14
M  ISO  8  32  14  33  14  34  14  35  14  36  14  37  14  38  14  39  14
M  ISO  1  40  14
M  END
>  <minimizedAffinity>  (1) 
-5.26128244

>  <minimizedRMSD>  (1) 
4.11909819

$$$$
