
     RDKit          3D

 34 36  0  0  1  0  0  0  0  0999 V2000
   37.9320   25.1480   35.0890 N   0  0  0  0  0  0  0  0  0  0  0  0
   37.6560   24.9000   33.6830 C   0  0  0  0  0  0  0  0  0  0  0  0
   38.1590   26.2050   33.0830 C   0  0  2  0  0  0  0  0  0  0  0  0
   37.2100   27.1050   33.9600 C   0  0  0  0  0  0  0  0  0  0  0  0
   37.3960   26.4490   35.3120 C   0  0  0  0  0  0  0  0  0  0  0  0
   38.7690   23.3910   38.2540 C   0  0  0  0  0  0  0  0  0  0  0  0
   38.0410   24.2190   37.3730 C   0  0  0  0  0  0  0  0  0  0  0  0
   38.5630   24.3610   36.0800 C   0  0  0  0  0  0  0  0  0  0  0  0
   39.7270   23.7100   35.7330 N   0  0  0  0  0  0  0  0  0  0  0  0
   40.3810   22.9300   36.6250 C   0  0  0  0  0  0  0  0  0  0  0  0
   39.9080   22.7700   37.8730 N   0  0  0  0  0  0  0  0  0  0  0  0
   37.9870   26.4630   31.6760 C   0  0  0  0  0  0  0  0  0  0  0  0
   37.7830   25.5130   30.9800 O   0  0  0  0  0  0  0  0  0  0  0  0
   37.9950   27.6670   30.8710 C   0  0  0  0  0  0  0  0  0  0  0  0
   39.1440   28.0880   30.2340 C   0  0  0  0  0  0  0  0  0  0  0  0
   39.2150   29.2270   29.4380 C   0  0  0  0  0  0  0  0  0  0  0  0
   38.0880   29.9910   29.2640 C   0  0  0  0  0  0  0  0  0  0  0  0
   36.9030   29.6370   29.8660 C   0  0  0  0  0  0  0  0  0  0  0  0
   36.9230   28.4980   30.6340 C   0  0  0  0  0  0  0  0  0  0  0  0
   38.2165   24.0330   33.3034 H   0  0  0  0  0  0  0  0  0  0  0  0
   36.6086   24.6561   33.4516 H   0  0  0  0  0  0  0  0  0  0  0  0
   39.2531   26.3161   33.1094 H   0  0  0  0  0  0  0  0  0  0  0  0
   37.5369   28.1553   33.9680 H   0  0  0  0  0  0  0  0  0  0  0  0
   36.1683   27.1559   33.6104 H   0  0  0  0  0  0  0  0  0  0  0  0
   36.4277   26.3724   35.8282 H   0  0  0  0  0  0  0  0  0  0  0  0
   38.0749   27.0442   35.9403 H   0  0  0  0  0  0  0  0  0  0  0  0
   38.3992   23.2467   39.2799 H   0  0  0  0  0  0  0  0  0  0  0  0
   37.1151   24.7250   37.6839 H   0  0  0  0  0  0  0  0  0  0  0  0
   41.3094   22.4216   36.3255 H   0  0  0  0  0  0  0  0  0  0  0  0
   40.0571   27.4883   30.3629 H   0  0  0  0  0  0  0  0  0  0  0  0
   40.1614   29.5113   28.9547 H   0  0  0  0  0  0  0  0  0  0  0  0
   38.1329   30.8942   28.6377 H   0  0  0  0  0  0  0  0  0  0  0  0
   35.9879   30.2341   29.7393 H   0  0  0  0  0  0  0  0  0  0  0  0
   35.9740   28.2179   31.1146 H   0  0  0  0  0  0  0  0  0  0  0  0
  1  5  1  0
  1  8  1  0
  2  1  1  0
  3  2  1  0
  3  4  1  0
  4  5  1  0
  7  6  2  0
  8  7  1  0
  9  8  2  0
  9 10  1  0
 10 11  2  0
 11  6  1  0
 12  3  1  0
 13 12  2  0
 14 12  1  0
 15 14  2  0
 16 15  1  0
 17 16  2  0
 17 18  1  0
 18 19  2  0
 19 14  1  0
  2 20  1  0
  2 21  1  0
  3 22  1  1
  4 23  1  0
  4 24  1  0
  5 25  1  0
  5 26  1  0
  6 27  1  0
  7 28  1  0
 10 29  1  0
 15 30  1  0
 16 31  1  0
 17 32  1  0
 18 33  1  0
 19 34  1  0
M  ISO  8  20  13  21  13  22  13  23  13  24  13  25  13  26  13  27  14
M  ISO  7  28  14  29  14  30  14  31  14  32  14  33  14  34  14
M  END
>  <minimizedAffinity>  (1) 
-4.63900948

>  <minimizedRMSD>  (1) 
3.33586311

$$$$
