
     RDKit          3D

 37 39  0  0  1  0  0  0  0  0999 V2000
   38.2600   23.0710   34.6030 N   0  0  0  0  0  0  0  0  0  0  0  0
   38.6230   23.9860   33.5170 C   0  0  0  0  0  0  0  0  0  0  0  0
   37.2920   24.0060   32.7620 C   0  0  2  0  0  0  0  0  0  0  0  0
   37.2120   22.4600   32.5630 C   0  0  0  0  0  0  0  0  0  0  0  0
   37.5670   21.9950   33.9620 C   0  0  0  0  0  0  0  0  0  0  0  0
   37.9160   23.7190   38.2410 C   0  0  0  0  0  0  0  0  0  0  0  0
   37.5580   23.6940   36.8780 C   0  0  0  0  0  0  0  0  0  0  0  0
   38.4990   23.1550   35.9900 C   0  0  0  0  0  0  0  0  0  0  0  0
   39.6990   22.6860   36.4790 N   0  0  0  0  0  0  0  0  0  0  0  0
   39.9890   22.7350   37.8030 C   0  0  0  0  0  0  0  0  0  0  0  0
   39.1100   23.2440   38.6670 N   0  0  0  0  0  0  0  0  0  0  0  0
   37.3190   24.7160   31.4880 C   0  0  0  0  0  0  0  0  0  0  0  0
   37.5050   23.9980   30.5300 O   0  0  0  0  0  0  0  0  0  0  0  0
   37.1470   26.1230   31.2840 N   0  0  0  0  0  0  0  0  0  0  0  0
   35.9610   26.9030   31.0470 C   0  0  0  0  0  0  0  0  0  0  0  0
   36.3940   28.3210   30.7280 C   0  0  0  0  0  0  0  0  0  0  0  0
   37.3270   28.3930   29.7000 O   0  0  0  0  0  0  0  0  0  0  0  0
   38.4360   27.6030   29.9340 C   0  0  0  0  0  0  0  0  0  0  0  0
   38.3420   26.9800   31.3100 C   0  0  0  0  0  0  0  0  0  0  0  0
   38.8986   24.9825   33.8926 H   0  0  0  0  0  0  0  0  0  0  0  0
   39.4988   23.6882   32.9218 H   0  0  0  0  0  0  0  0  0  0  0  0
   36.4602   24.5196   33.2663 H   0  0  0  0  0  0  0  0  0  0  0  0
   36.2018   22.1380   32.2699 H   0  0  0  0  0  0  0  0  0  0  0  0
   37.8563   22.0619   31.7653 H   0  0  0  0  0  0  0  0  0  0  0  0
   36.6520   21.7500   34.5212 H   0  0  0  0  0  0  0  0  0  0  0  0
   38.1952   21.0928   33.9258 H   0  0  0  0  0  0  0  0  0  0  0  0
   37.2094   24.1337   38.9750 H   0  0  0  0  0  0  0  0  0  0  0  0
   36.5884   24.0784   36.5286 H   0  0  0  0  0  0  0  0  0  0  0  0
   40.9545   22.3528   38.1661 H   0  0  0  0  0  0  0  0  0  0  0  0
   35.4005   26.4832   30.1987 H   0  0  0  0  0  0  0  0  0  0  0  0
   35.3098   26.8906   31.9334 H   0  0  0  0  0  0  0  0  0  0  0  0
   35.5057   28.8996   30.4344 H   0  0  0  0  0  0  0  0  0  0  0  0
   36.8728   28.7264   31.6315 H   0  0  0  0  0  0  0  0  0  0  0  0
   38.4840   26.8076   29.1757 H   0  0  0  0  0  0  0  0  0  0  0  0
   39.3421   28.2242   29.8783 H   0  0  0  0  0  0  0  0  0  0  0  0
   38.2360   27.7611   32.0772 H   0  0  0  0  0  0  0  0  0  0  0  0
   39.2466   26.4041   31.5551 H   0  0  0  0  0  0  0  0  0  0  0  0
  1  8  1  0
  2  1  1  0
  3  2  1  0
  4  3  1  0
  4  5  1  0
  5  1  1  0
  6 11  2  0
  7  6  1  0
  8  9  1  0
  8  7  2  0
  9 10  2  0
 10 11  1  0
 12  3  1  0
 13 12  2  0
 14 19  1  0
 14 12  1  0
 15 14  1  0
 16 15  1  0
 17 18  1  0
 17 16  1  0
 18 19  1  0
  2 20  1  0
  2 21  1  0
  3 22  1  1
  4 23  1  0
  4 24  1  0
  5 25  1  0
  5 26  1  0
  6 27  1  0
  7 28  1  0
 10 29  1  0
 15 30  1  0
 15 31  1  0
 16 32  1  0
 16 33  1  0
 18 34  1  0
 18 35  1  0
 19 36  1  0
 19 37  1  0
M  ISO  8  20  13  21  13  22  13  23  13  24  13  25  13  26  13  27  14
M  ISO  8  28  14  29  14  30  13  31  13  32  13  33  13  34  13  35  13
M  ISO  2  36  13  37  13
M  END
>  <minimizedAffinity>  (1) 
-4.68475056

>  <minimizedRMSD>  (1) 
3.77383828

$$$$
