
     RDKit          3D

 38 40  0  0  1  0  0  0  0  0999 V2000
   38.6070   25.1810   34.9340 N   0  0  0  0  0  0  0  0  0  0  0  0
   39.5210   25.2130   33.8070 C   0  0  0  0  0  0  0  0  0  0  0  0
   39.4980   26.7020   33.4840 C   0  0  2  0  0  0  0  0  0  0  0  0
   37.9510   26.8010   33.3060 C   0  0  0  0  0  0  0  0  0  0  0  0
   37.5010   26.0100   34.5240 C   0  0  0  0  0  0  0  0  0  0  0  0
   38.0090   24.1250   38.4370 C   0  0  0  0  0  0  0  0  0  0  0  0
   37.8340   24.8600   37.2440 C   0  0  0  0  0  0  0  0  0  0  0  0
   38.6830   24.5300   36.1770 C   0  0  0  0  0  0  0  0  0  0  0  0
   39.6240   23.5360   36.3290 N   0  0  0  0  0  0  0  0  0  0  0  0
   39.7430   22.8660   37.5030 C   0  0  0  0  0  0  0  0  0  0  0  0
   38.9430   23.1600   38.5420 N   0  0  0  0  0  0  0  0  0  0  0  0
   40.2020   27.0860   32.2670 C   0  0  0  0  0  0  0  0  0  0  0  0
   39.5730   26.9050   31.2520 O   0  0  0  0  0  0  0  0  0  0  0  0
   41.4690   27.6390   31.9480 N   0  0  0  0  0  0  0  0  0  0  0  0
   42.3990   27.5550   33.0620 C   0  0  0  0  0  0  0  0  0  0  0  0
   43.8150   27.4500   32.5070 C   0  0  0  0  0  0  0  0  0  0  0  0
   44.2000   28.6850   31.8450 N   0  0  0  0  0  0  0  0  0  0  0  0
   43.0640   29.3250   31.2100 C   0  0  0  0  0  0  0  0  0  0  0  0
   42.0450   28.2720   30.7500 C   0  0  0  0  0  0  0  0  0  0  0  0
   40.5282   24.8728   34.0894 H   0  0  0  0  0  0  0  0  0  0  0  0
   39.2450   24.5548   32.9700 H   0  0  0  0  0  0  0  0  0  0  0  0
   39.9914   27.3524   34.2213 H   0  0  0  0  0  0  0  0  0  0  0  0
   37.6006   27.8431   33.3423 H   0  0  0  0  0  0  0  0  0  0  0  0
   37.5682   26.4317   32.3431 H   0  0  0  0  0  0  0  0  0  0  0  0
   37.2248   26.6972   35.3373 H   0  0  0  0  0  0  0  0  0  0  0  0
   36.6225   25.3934   34.2831 H   0  0  0  0  0  0  0  0  0  0  0  0
   37.3666   24.3460   39.3022 H   0  0  0  0  0  0  0  0  0  0  0  0
   37.0727   25.6491   37.1560 H   0  0  0  0  0  0  0  0  0  0  0  0
   40.5009   22.0753   37.6051 H   0  0  0  0  0  0  0  0  0  0  0  0
   42.3116   28.4564   33.6864 H   0  0  0  0  0  0  0  0  0  0  0  0
   42.1700   26.6720   33.6768 H   0  0  0  0  0  0  0  0  0  0  0  0
   44.5129   27.2506   33.3335 H   0  0  0  0  0  0  0  0  0  0  0  0
   43.8477   26.6306   31.7738 H   0  0  0  0  0  0  0  0  0  0  0  0
   44.5993   29.3284   32.5432 H   0  0  0  0  0  0  0  0  0  0  0  0
   42.5831   30.0054   31.9281 H   0  0  0  0  0  0  0  0  0  0  0  0
   43.4158   29.8884   30.3331 H   0  0  0  0  0  0  0  0  0  0  0  0
   41.2489   28.7545   30.1640 H   0  0  0  0  0  0  0  0  0  0  0  0
   42.5360   27.5168   30.1187 H   0  0  0  0  0  0  0  0  0  0  0  0
  1  8  1  0
  2  1  1  0
  3  2  1  0
  4  3  1  0
  4  5  1  0
  5  1  1  0
  6 11  2  0
  7  6  1  0
  8  9  1  0
  8  7  2  0
  9 10  2  0
 10 11  1  0
 12  3  1  0
 13 12  2  0
 14 12  1  0
 14 15  1  0
 16 15  1  0
 17 16  1  0
 18 17  1  0
 19 18  1  0
 19 14  1  0
  2 20  1  0
  2 21  1  0
  3 22  1  1
  4 23  1  0
  4 24  1  0
  5 25  1  0
  5 26  1  0
  6 27  1  0
  7 28  1  0
 10 29  1  0
 15 30  1  0
 15 31  1  0
 16 32  1  0
 16 33  1  0
 17 34  1  0
 18 35  1  0
 18 36  1  0
 19 37  1  0
 19 38  1  0
M  ISO  8  20  13  21  13  22  13  23  13  24  13  25  13  26  13  27  14
M  ISO  8  28  14  29  14  30  13  31  13  32  13  33  13  34   5  35  13
M  ISO  3  36  13  37  13  38  13
M  END
>  <minimizedAffinity>  (1) 
-4.23688841

>  <minimizedRMSD>  (1) 
0.718057454

$$$$
