
     RDKit          3D

 31 33  0  0  1  0  0  0  0  0999 V2000
   38.1500   25.3580   35.0180 N   0  0  0  0  0  0  0  0  0  0  0  0
   38.5210   25.3350   33.6170 C   0  0  0  0  0  0  0  0  0  0  0  0
   38.7990   26.8250   33.4030 C   0  0  2  0  0  0  0  0  0  0  0  0
   37.3740   27.2930   33.8630 C   0  0  0  0  0  0  0  0  0  0  0  0
   37.2180   26.4440   35.1130 C   0  0  0  0  0  0  0  0  0  0  0  0
   38.3590   23.7110   38.3400 C   0  0  0  0  0  0  0  0  0  0  0  0
   37.8590   24.5730   37.3440 C   0  0  0  0  0  0  0  0  0  0  0  0
   38.5380   24.5560   36.1180 C   0  0  0  0  0  0  0  0  0  0  0  0
   39.6250   23.7300   35.9390 N   0  0  0  0  0  0  0  0  0  0  0  0
   40.0560   22.9200   36.9510 C   0  0  0  0  0  0  0  0  0  0  0  0
   39.4300   22.9150   38.1270 N   0  0  0  0  0  0  0  0  0  0  0  0
   39.1260   27.2720   32.0650 C   0  0  0  0  0  0  0  0  0  0  0  0
   38.1980   27.5420   31.3470 O   0  0  0  0  0  0  0  0  0  0  0  0
   40.5340   27.3710   31.6930 C   0  0  0  0  0  0  0  0  0  0  0  0
   41.5300   27.5060   32.6410 C   0  0  0  0  0  0  0  0  0  0  0  0
   42.7330   27.5700   31.9410 C   0  0  0  0  0  0  0  0  0  0  0  0
   42.3960   27.4700   30.5880 C   0  0  0  0  0  0  0  0  0  0  0  0
   41.0730   27.3530   30.5080 O   0  0  0  0  0  0  0  0  0  0  0  0
   39.4165   24.7212   33.4400 H   0  0  0  0  0  0  0  0  0  0  0  0
   37.7708   24.8976   32.9418 H   0  0  0  0  0  0  0  0  0  0  0  0
   39.6964   27.2055   33.9129 H   0  0  0  0  0  0  0  0  0  0  0  0
   37.3503   28.3685   34.0927 H   0  0  0  0  0  0  0  0  0  0  0  0
   36.5782   27.1707   33.1135 H   0  0  0  0  0  0  0  0  0  0  0  0
   36.1916   26.0532   35.1755 H   0  0  0  0  0  0  0  0  0  0  0  0
   37.4135   27.0435   36.0143 H   0  0  0  0  0  0  0  0  0  0  0  0
   37.8623   23.6852   39.3211 H   0  0  0  0  0  0  0  0  0  0  0  0
   36.9874   25.2210   37.5183 H   0  0  0  0  0  0  0  0  0  0  0  0
   40.9269   22.2667   36.7937 H   0  0  0  0  0  0  0  0  0  0  0  0
   41.3991   27.5535   33.7322 H   0  0  0  0  0  0  0  0  0  0  0  0
   43.7418   27.6773   32.3662 H   0  0  0  0  0  0  0  0  0  0  0  0
   43.0984   27.4853   29.7416 H   0  0  0  0  0  0  0  0  0  0  0  0
  1  5  1  0
  1  8  1  0
  2  1  1  0
  3  2  1  0
  3  4  1  0
  4  5  1  0
  7  6  2  0
  8  7  1  0
  9  8  2  0
  9 10  1  0
 10 11  2  0
 11  6  1  0
 12  3  1  0
 13 12  2  0
 14 12  1  0
 14 15  2  0
 16 15  1  0
 17 16  2  0
 18 17  1  0
 18 14  1  0
  2 19  1  0
  2 20  1  0
  3 21  1  1
  4 22  1  0
  4 23  1  0
  5 24  1  0
  5 25  1  0
  6 26  1  0
  7 27  1  0
 10 28  1  0
 15 29  1  0
 16 30  1  0
 17 31  1  0
M  ISO  8  19  13  20  13  21  13  22  13  23  13  24  13  25  13  26  14
M  ISO  5  27  14  28  14  29  14  30  14  31  14
M  END
>  <minimizedAffinity>  (1) 
-4.0768919

>  <minimizedRMSD>  (1) 
1.54619753

$$$$
