
     RDKit          3D

 37 39  0  0  1  0  0  0  0  0999 V2000
   37.9420   25.3610   35.0770 N   0  0  0  0  0  0  0  0  0  0  0  0
   37.9040   25.2600   33.6340 C   0  0  0  0  0  0  0  0  0  0  0  0
   38.3920   26.6560   33.2570 C   0  0  2  0  0  0  0  0  0  0  0  0
   37.2920   27.4210   34.0630 C   0  0  0  0  0  0  0  0  0  0  0  0
   37.2710   26.5950   35.3380 C   0  0  0  0  0  0  0  0  0  0  0  0
   38.5310   23.4990   38.2330 C   0  0  0  0  0  0  0  0  0  0  0  0
   37.8760   24.3750   37.3470 C   0  0  0  0  0  0  0  0  0  0  0  0
   38.4700   24.5250   36.0870 C   0  0  0  0  0  0  0  0  0  0  0  0
   39.6230   23.8350   35.7880 N   0  0  0  0  0  0  0  0  0  0  0  0
   40.2020   23.0040   36.6940 C   0  0  0  0  0  0  0  0  0  0  0  0
   39.6600   22.8400   37.9020 N   0  0  0  0  0  0  0  0  0  0  0  0
   38.4050   27.0170   31.8530 C   0  0  0  0  0  0  0  0  0  0  0  0
   37.6710   27.9080   31.5390 O   0  0  0  0  0  0  0  0  0  0  0  0
   39.3030   26.2960   30.9080 C   0  0  0  0  0  0  0  0  0  0  0  0
   40.7170   26.1680   31.4030 C   0  0  0  0  0  0  0  0  0  0  0  0
   41.2910   27.5580   31.2080 C   0  0  0  0  0  0  0  0  0  0  0  0
   40.5050   28.1830   30.0950 C   0  0  0  0  0  0  0  0  0  0  0  0
   39.5100   27.1260   29.6340 C   0  0  0  0  0  0  0  0  0  0  0  0
   38.5807   24.4768   33.2617 H   0  0  0  0  0  0  0  0  0  0  0  0
   36.9255   24.9826   33.2148 H   0  0  0  0  0  0  0  0  0  0  0  0
   39.4547   26.8409   33.4728 H   0  0  0  0  0  0  0  0  0  0  0  0
   37.5811   28.4643   34.2580 H   0  0  0  0  0  0  0  0  0  0  0  0
   36.3214   27.5071   33.5525 H   0  0  0  0  0  0  0  0  0  0  0  0
   36.2311   26.3981   35.6379 H   0  0  0  0  0  0  0  0  0  0  0  0
   37.7731   27.1376   36.1526 H   0  0  0  0  0  0  0  0  0  0  0  0
   38.1049   23.3459   39.2355 H   0  0  0  0  0  0  0  0  0  0  0  0
   36.9554   24.9084   37.6264 H   0  0  0  0  0  0  0  0  0  0  0  0
   41.1229   22.4634   36.4299 H   0  0  0  0  0  0  0  0  0  0  0  0
   38.8128   25.3210   30.7697 H   0  0  0  0  0  0  0  0  0  0  0  0
   40.7369   25.8804   32.4645 H   0  0  0  0  0  0  0  0  0  0  0  0
   41.2871   25.3920   30.8713 H   0  0  0  0  0  0  0  0  0  0  0  0
   41.1821   28.1482   32.1298 H   0  0  0  0  0  0  0  0  0  0  0  0
   42.3638   27.5185   30.9680 H   0  0  0  0  0  0  0  0  0  0  0  0
   39.9734   29.0752   30.4575 H   0  0  0  0  0  0  0  0  0  0  0  0
   41.1602   28.5039   29.2717 H   0  0  0  0  0  0  0  0  0  0  0  0
   38.5677   27.5845   29.2995 H   0  0  0  0  0  0  0  0  0  0  0  0
   39.8606   26.5352   28.7749 H   0  0  0  0  0  0  0  0  0  0  0  0
  1  5  1  0
  1  8  1  0
  2  1  1  0
  3  2  1  0
  3  4  1  0
  4  5  1  0
  7  6  2  0
  8  7  1  0
  9  8  2  0
  9 10  1  0
 10 11  2  0
 11  6  1  0
 12  3  1  0
 13 12  2  0
 14 15  1  0
 14 12  1  0
 16 15  1  0
 17 16  1  0
 18 17  1  0
 18 14  1  0
  2 19  1  0
  2 20  1  0
  3 21  1  1
  4 22  1  0
  4 23  1  0
  5 24  1  0
  5 25  1  0
  6 26  1  0
  7 27  1  0
 10 28  1  0
 14 29  1  0
 15 30  1  0
 15 31  1  0
 16 32  1  0
 16 33  1  0
 17 34  1  0
 17 35  1  0
 18 36  1  0
 18 37  1  0
M  ISO  8  19  13  20  13  21  13  22  13  23  13  24  13  25  13  26  14
M  ISO  8  27  14  28  14  29  13  30  13  31  13  32  13  33  13  34  13
M  ISO  3  35  13  36  13  37  13
M  END
>  <minimizedAffinity>  (1) 
-4.15422106

>  <minimizedRMSD>  (1) 
2.45943618

$$$$
