
     RDKit          3D

 50 54  0  0  1  0  0  0  0  0999 V2000
   39.1070   26.3040   30.9370 C   0  0  2  0  0  0  0  0  0  0  0  0
   40.5390   26.0030   31.3590 C   0  0  0  0  0  0  0  0  0  0  0  0
   41.2500   27.2960   31.0960 C   0  0  0  0  0  0  0  0  0  0  0  0
   40.4630   28.0080   30.0240 C   0  0  0  0  0  0  0  0  0  0  0  0
   39.3150   27.0740   29.6510 C   0  0  1  0  0  0  0  0  0  0  0  0
   39.6700   26.1150   28.6400 N   0  0  0  0  0  0  0  0  0  0  0  0
   39.7630   24.7940   28.6440 C   0  0  0  0  0  0  0  0  0  0  0  0
   40.1390   24.3420   27.4330 N   0  0  0  0  0  0  0  0  0  0  0  0
   40.2830   25.4450   26.6470 C   0  0  0  0  0  0  0  0  0  0  0  0
   40.6560   25.4970   25.3120 C   0  0  0  0  0  0  0  0  0  0  0  0
   40.7350   26.7050   24.7210 N   0  0  0  0  0  0  0  0  0  0  0  0
   40.4500   27.7950   25.4560 C   0  0  0  0  0  0  0  0  0  0  0  0
   40.0880   27.7270   26.7510 N   0  0  0  0  0  0  0  0  0  0  0  0
   39.9870   26.5550   27.4090 C   0  0  0  0  0  0  0  0  0  0  0  0
   40.9510   24.3080   24.5680 N   0  0  0  0  0  0  0  0  0  0  0  0
   38.3800   27.1040   31.9460 C   0  0  0  0  0  0  0  0  0  0  0  0
   37.7480   28.0980   31.6780 O   0  0  0  0  0  0  0  0  0  0  0  0
   37.9360   25.3780   35.1250 N   0  0  0  0  0  0  0  0  0  0  0  0
   37.8640   25.3240   33.6860 C   0  0  0  0  0  0  0  0  0  0  0  0
   38.3670   26.7540   33.3530 C   0  0  2  0  0  0  0  0  0  0  0  0
   37.3250   27.4990   34.1970 C   0  0  0  0  0  0  0  0  0  0  0  0
   37.2800   26.6210   35.4350 C   0  0  0  0  0  0  0  0  0  0  0  0
   38.5630   23.4710   38.2470 C   0  0  0  0  0  0  0  0  0  0  0  0
   37.8980   24.3570   37.3800 C   0  0  0  0  0  0  0  0  0  0  0  0
   38.4680   24.5300   36.1160 C   0  0  0  0  0  0  0  0  0  0  0  0
   39.6200   23.8430   35.7920 N   0  0  0  0  0  0  0  0  0  0  0  0
   40.2140   23.0000   36.6800 C   0  0  0  0  0  0  0  0  0  0  0  0
   39.6950   22.8170   37.8840 N   0  0  0  0  0  0  0  0  0  0  0  0
   38.4871   25.4027   30.8211 H   0  0  0  0  0  0  0  0  0  0  0  0
   40.5885   25.7348   32.4247 H   0  0  0  0  0  0  0  0  0  0  0  0
   40.9784   25.1506   30.8201 H   0  0  0  0  0  0  0  0  0  0  0  0
   41.2820   27.9050   32.0115 H   0  0  0  0  0  0  0  0  0  0  0  0
   42.2881   27.1211   30.7770 H   0  0  0  0  0  0  0  0  0  0  0  0
   40.0704   28.9611   30.4080 H   0  0  0  0  0  0  0  0  0  0  0  0
   41.0914   28.2407   29.1517 H   0  0  0  0  0  0  0  0  0  0  0  0
   38.4545   27.6370   29.2604 H   0  0  0  0  0  0  0  0  0  0  0  0
   39.5610   24.1547   29.5160 H   0  0  0  0  0  0  0  0  0  0  0  0
   40.5155   28.7839   24.9787 H   0  0  0  0  0  0  0  0  0  0  0  0
   41.2257   24.3751   23.5776 H   0  0  0  0  0  0  0  0  0  0  0  0
   40.8883   23.3865   25.0238 H   0  0  0  0  0  0  0  0  0  0  0  0
   38.5248   24.5490   33.2705 H   0  0  0  0  0  0  0  0  0  0  0  0
   36.8767   25.0665   33.2750 H   0  0  0  0  0  0  0  0  0  0  0  0
   39.4250   26.9608   33.5718 H   0  0  0  0  0  0  0  0  0  0  0  0
   37.6543   28.5207   34.4372 H   0  0  0  0  0  0  0  0  0  0  0  0
   36.3527   27.6374   33.7016 H   0  0  0  0  0  0  0  0  0  0  0  0
   36.2346   26.4303   35.7192 H   0  0  0  0  0  0  0  0  0  0  0  0
   37.7856   27.1199   36.2749 H   0  0  0  0  0  0  0  0  0  0  0  0
   38.1514   23.3027   39.2531 H   0  0  0  0  0  0  0  0  0  0  0  0
   36.9805   24.8842   37.6803 H   0  0  0  0  0  0  0  0  0  0  0  0
   41.1327   22.4664   36.3950 H   0  0  0  0  0  0  0  0  0  0  0  0
  1  2  1  0
  1 16  1  0
  3  2  1  0
  4  3  1  0
  5  4  1  0
  5  1  1  0
  6  7  1  0
  6  5  1  0
  8  7  2  0
  9 14  2  0
  9  8  1  0
 10  9  1  0
 11 10  2  0
 11 12  1  0
 12 13  2  0
 13 14  1  0
 14  6  1  0
 15 10  1  0
 16 20  1  0
 17 16  2  0
 18 22  1  0
 18 25  1  0
 19 18  1  0
 20 19  1  0
 20 21  1  0
 21 22  1  0
 24 23  2  0
 25 24  1  0
 26 25  2  0
 26 27  1  0
 27 28  2  0
 28 23  1  0
  1 29  1  6
  2 30  1  0
  2 31  1  0
  3 32  1  0
  3 33  1  0
  4 34  1  0
  4 35  1  0
  5 36  1  6
  7 37  1  0
 12 38  1  0
 15 39  1  0
 15 40  1  0
 19 41  1  0
 19 42  1  0
 20 43  1  1
 21 44  1  0
 21 45  1  0
 22 46  1  0
 22 47  1  0
 23 48  1  0
 24 49  1  0
 27 50  1  0
M  ISO  8  29  13  30  13  31  13  32  13  33  13  34  13  35  13  36  13
M  ISO  8  37  14  38  14  41  13  42  13  43  13  44  13  45  13  46  13
M  ISO  4  47  13  48  14  49  14  50  14
M  END
>  <minimizedAffinity>  (1) 
-5.35721016

>  <minimizedRMSD>  (1) 
0.524249077

$$$$
