
     RDKit          3D

 53 57  0  0  1  0  0  0  0  0999 V2000
   38.5320   26.7970   31.8550 C   0  0  0  0  0  0  0  0  0  0  0  0
   38.0090   27.8330   31.5230 O   0  0  0  0  0  0  0  0  0  0  0  0
   37.9910   25.3200   35.1420 N   0  0  0  0  0  0  0  0  0  0  0  0
   37.9330   25.1520   33.6960 C   0  0  0  0  0  0  0  0  0  0  0  0
   38.4970   26.5390   33.2810 C   0  0  2  0  0  0  0  0  0  0  0  0
   37.4790   27.3770   34.0670 C   0  0  0  0  0  0  0  0  0  0  0  0
   37.3950   26.5910   35.3580 C   0  0  0  0  0  0  0  0  0  0  0  0
   38.5040   23.5430   38.3650 C   0  0  0  0  0  0  0  0  0  0  0  0
   37.8990   24.4030   37.4440 C   0  0  0  0  0  0  0  0  0  0  0  0
   38.4940   24.4900   36.1830 C   0  0  0  0  0  0  0  0  0  0  0  0
   39.6120   23.7500   35.9160 N   0  0  0  0  0  0  0  0  0  0  0  0
   40.1550   22.9290   36.8550 C   0  0  0  0  0  0  0  0  0  0  0  0
   39.6020   22.8310   38.0650 N   0  0  0  0  0  0  0  0  0  0  0  0
   39.1690   25.8510   30.8920 C   0  0  2  0  0  0  0  0  0  0  0  0
   40.5420   25.4030   31.3670 C   0  0  0  0  0  0  0  0  0  0  0  0
   41.4140   26.5790   31.0550 C   0  0  0  0  0  0  0  0  0  0  0  0
   40.7450   27.3470   29.9670 C   0  0  0  0  0  0  0  0  0  0  0  0
   39.4970   26.5550   29.5930 C   0  0  1  0  0  0  0  0  0  0  0  0
   39.6670   25.5910   28.5220 C   0  0  0  0  0  0  0  0  0  0  0  0
   39.5560   24.2300   28.6310 C   0  0  0  0  0  0  0  0  0  0  0  0
   39.7530   23.3080   27.6300 C   0  0  0  0  0  0  0  0  0  0  0  0
   40.1010   23.7580   26.3610 C   0  0  0  0  0  0  0  0  0  0  0  0
   40.2330   25.1120   26.1740 C   0  0  0  0  0  0  0  0  0  0  0  0
   40.5720   25.5210   24.9060 C   0  0  0  0  0  0  0  0  0  0  0  0
   40.7160   26.8600   24.6280 C   0  0  0  0  0  0  0  0  0  0  0  0
   40.5130   27.7700   25.6410 C   0  0  0  0  0  0  0  0  0  0  0  0
   40.1770   27.3060   26.8870 C   0  0  0  0  0  0  0  0  0  0  0  0
   40.0200   25.9790   27.2250 C   0  0  0  0  0  0  0  0  0  0  0  0
   38.5696   24.3248   33.3489 H   0  0  0  0  0  0  0  0  0  0  0  0
   36.9461   24.8946   33.2839 H   0  0  0  0  0  0  0  0  0  0  0  0
   39.5604   26.7181   33.4981 H   0  0  0  0  0  0  0  0  0  0  0  0
   37.8449   28.3999   34.2397 H   0  0  0  0  0  0  0  0  0  0  0  0
   36.5146   27.5157   33.5565 H   0  0  0  0  0  0  0  0  0  0  0  0
   36.3418   26.4640   35.6490 H   0  0  0  0  0  0  0  0  0  0  0  0
   37.9198   27.1254   36.1636 H   0  0  0  0  0  0  0  0  0  0  0  0
   38.0658   23.4463   39.3693 H   0  0  0  0  0  0  0  0  0  0  0  0
   36.9994   24.9823   37.6993 H   0  0  0  0  0  0  0  0  0  0  0  0
   41.0546   22.3430   36.6153 H   0  0  0  0  0  0  0  0  0  0  0  0
   38.4540   25.0213   30.7896 H   0  0  0  0  0  0  0  0  0  0  0  0
   40.5362   25.1920   32.4466 H   0  0  0  0  0  0  0  0  0  0  0  0
   40.8826   24.4744   30.8856 H   0  0  0  0  0  0  0  0  0  0  0  0
   41.5276   27.2114   31.9478 H   0  0  0  0  0  0  0  0  0  0  0  0
   42.4159   26.2502   30.7419 H   0  0  0  0  0  0  0  0  0  0  0  0
   40.4676   28.3501   30.3232 H   0  0  0  0  0  0  0  0  0  0  0  0
   41.4108   27.4786   29.1013 H   0  0  0  0  0  0  0  0  0  0  0  0
   38.7150   27.2186   29.1955 H   0  0  0  0  0  0  0  0  0  0  0  0
   39.2813   23.8344   29.6200 H   0  0  0  0  0  0  0  0  0  0  0  0
   39.6373   22.2325   27.8297 H   0  0  0  0  0  0  0  0  0  0  0  0
   40.2653   23.0520   25.5336 H   0  0  0  0  0  0  0  0  0  0  0  0
   40.7284   24.7757   24.1123 H   0  0  0  0  0  0  0  0  0  0  0  0
   40.9878   27.1972   23.6169 H   0  0  0  0  0  0  0  0  0  0  0  0
   40.6183   28.8489   25.4544 H   0  0  0  0  0  0  0  0  0  0  0  0
   40.0203   28.0523   27.6798 H   0  0  0  0  0  0  0  0  0  0  0  0
  1  5  1  0
  2  1  2  0
  3  7  1  0
  3 10  1  0
  4  3  1  0
  5  4  1  0
  5  6  1  0
  6  7  1  0
  9  8  2  0
 10  9  1  0
 11 10  2  0
 11 12  1  0
 12 13  2  0
 13  8  1  0
 14 15  1  0
 14  1  1  0
 16 15  1  0
 17 16  1  0
 18 17  1  0
 18 14  1  0
 19 20  2  0
 19 18  1  0
 21 20  1  0
 22 21  2  0
 23 22  1  0
 23 28  2  0
 24 23  1  0
 25 24  2  0
 25 26  1  0
 26 27  2  0
 27 28  1  0
 28 19  1  0
  4 29  1  0
  4 30  1  0
  5 31  1  1
  6 32  1  0
  6 33  1  0
  7 34  1  0
  7 35  1  0
  8 36  1  0
  9 37  1  0
 12 38  1  0
 14 39  1  6
 15 40  1  0
 15 41  1  0
 16 42  1  0
 16 43  1  0
 17 44  1  0
 17 45  1  0
 18 46  1  6
 20 47  1  0
 21 48  1  0
 22 49  1  0
 24 50  1  0
 25 51  1  0
 26 52  1  0
 27 53  1  0
M  ISO  8  29  13  30  13  31  13  32  13  33  13  34  13  35  13  36  14
M  ISO  8  37  14  38  14  39  13  40  13  41  13  42  13  43  13  44  13
M  ISO  8  45  13  46  13  47  14  48  14  49  14  50  14  51  14  52  14
M  ISO  1  53  14
M  END
>  <minimizedAffinity>  (1) 
-5.6368084

>  <minimizedRMSD>  (1) 
1.99348831

$$$$
