
     RDKit          3D

 48 51  0  0  1  0  0  0  0  0999 V2000
   38.3920   27.0940   32.1580 C   0  0  0  0  0  0  0  0  0  0  0  0
   37.7170   28.0610   31.9060 O   0  0  0  0  0  0  0  0  0  0  0  0
   38.0140   25.3740   35.3500 N   0  0  0  0  0  0  0  0  0  0  0  0
   37.8760   25.3290   33.9140 C   0  0  0  0  0  0  0  0  0  0  0  0
   38.4270   26.7350   33.5630 C   0  0  2  0  0  0  0  0  0  0  0  0
   37.4670   27.5310   34.4590 C   0  0  0  0  0  0  0  0  0  0  0  0
   37.4280   26.6430   35.6920 C   0  0  0  0  0  0  0  0  0  0  0  0
   38.7010   23.4340   38.4400 C   0  0  0  0  0  0  0  0  0  0  0  0
   38.0390   24.3450   37.6080 C   0  0  0  0  0  0  0  0  0  0  0  0
   38.5510   24.5010   36.3160 C   0  0  0  0  0  0  0  0  0  0  0  0
   39.6540   23.7680   35.9390 N   0  0  0  0  0  0  0  0  0  0  0  0
   40.2580   22.8970   36.7880 C   0  0  0  0  0  0  0  0  0  0  0  0
   39.7790   22.7340   38.0300 N   0  0  0  0  0  0  0  0  0  0  0  0
   39.1250   26.3330   31.1360 C   0  0  2  0  0  0  0  0  0  0  0  0
   40.5890   26.1130   31.4960 C   0  0  0  0  0  0  0  0  0  0  0  0
   41.2100   27.4420   31.1810 C   0  0  0  0  0  0  0  0  0  0  0  0
   40.3150   28.0800   30.1450 C   0  0  0  0  0  0  0  0  0  0  0  0
   39.2420   27.0910   29.8230 C   0  0  1  0  0  0  0  0  0  0  0  0
   39.4850   26.1050   28.8460 N   0  0  0  0  0  0  0  0  0  0  0  0
   39.2520   24.8440   29.3210 C   0  0  0  0  0  0  0  0  0  0  0  0
   39.4440   23.7490   28.4850 C   0  0  0  0  0  0  0  0  0  0  0  0
   39.8640   23.8650   27.1770 C   0  0  0  0  0  0  0  0  0  0  0  0
   40.0610   22.7460   26.3220 N   0  0  0  0  0  0  0  0  0  0  0  0
   40.0780   25.1420   26.7660 N   0  0  0  0  0  0  0  0  0  0  0  0
   39.8930   26.1910   27.5720 C   0  0  0  0  0  0  0  0  0  0  0  0
   40.0950   27.3670   27.1770 O   0  0  0  0  0  0  0  0  0  0  0  0
   38.4824   24.5270   33.4679 H   0  0  0  0  0  0  0  0  0  0  0  0
   36.8611   25.1174   33.5464 H   0  0  0  0  0  0  0  0  0  0  0  0
   39.5032   26.8861   33.7330 H   0  0  0  0  0  0  0  0  0  0  0  0
   37.8645   28.5299   34.6917 H   0  0  0  0  0  0  0  0  0  0  0  0
   36.4831   27.7301   34.0093 H   0  0  0  0  0  0  0  0  0  0  0  0
   36.3861   26.4976   36.0136 H   0  0  0  0  0  0  0  0  0  0  0  0
   37.9877   27.1108   36.5154 H   0  0  0  0  0  0  0  0  0  0  0  0
   38.3290   23.2837   39.4642 H   0  0  0  0  0  0  0  0  0  0  0  0
   37.1604   24.9096   37.9532 H   0  0  0  0  0  0  0  0  0  0  0  0
   41.1384   22.3263   36.4576 H   0  0  0  0  0  0  0  0  0  0  0  0
   38.5476   25.3995   31.0631 H   0  0  0  0  0  0  0  0  0  0  0  0
   40.7024   25.8649   32.5616 H   0  0  0  0  0  0  0  0  0  0  0  0
   41.0509   25.2757   30.9523 H   0  0  0  0  0  0  0  0  0  0  0  0
   41.2556   28.0672   32.0849 H   0  0  0  0  0  0  0  0  0  0  0  0
   42.2401   27.3299   30.8119 H   0  0  0  0  0  0  0  0  0  0  0  0
   39.8700   29.0021   30.5471 H   0  0  0  0  0  0  0  0  0  0  0  0
   40.8866   28.3452   29.2434 H   0  0  0  0  0  0  0  0  0  0  0  0
   38.3881   27.6540   29.4182 H   0  0  0  0  0  0  0  0  0  0  0  0
   38.9149   24.6965   30.3576 H   0  0  0  0  0  0  0  0  0  0  0  0
   39.2517   22.7431   28.8864 H   0  0  0  0  0  0  0  0  0  0  0  0
   40.3762   22.8884   25.3518 H   0  0  0  0  0  0  0  0  0  0  0  0
   39.8885   21.7931   26.6729 H   0  0  0  0  0  0  0  0  0  0  0  0
  1  5  1  0
  2  1  2  0
  3  7  1  0
  3 10  1  0
  4  3  1  0
  5  4  1  0
  5  6  1  0
  6  7  1  0
  9  8  2  0
 10  9  1  0
 11 10  2  0
 11 12  1  0
 12 13  2  0
 13  8  1  0
 14 15  1  0
 14  1  1  0
 16 15  1  0
 17 16  1  0
 18 17  1  0
 18 14  1  0
 19 20  1  0
 19 18  1  0
 21 20  2  0
 22 21  1  0
 23 22  1  0
 24 22  2  0
 24 25  1  0
 25 19  1  0
 26 25  2  0
  4 27  1  0
  4 28  1  0
  5 29  1  1
  6 30  1  0
  6 31  1  0
  7 32  1  0
  7 33  1  0
  8 34  1  0
  9 35  1  0
 12 36  1  0
 14 37  1  6
 15 38  1  0
 15 39  1  0
 16 40  1  0
 16 41  1  0
 17 42  1  0
 17 43  1  0
 18 44  1  6
 20 45  1  0
 21 46  1  0
 23 47  1  0
 23 48  1  0
M  ISO  8  27  13  28  13  29  13  30  13  31  13  32  13  33  13  34  14
M  ISO  8  35  14  36  14  37  13  38  13  39  13  40  13  41  13  42  13
M  ISO  4  43  13  44  13  45  14  46  14
M  END
>  <minimizedAffinity>  (1) 
-5.13584089

>  <minimizedRMSD>  (1) 
0.86313802

$$$$
