
     RDKit          3D

 44 47  0  0  1  0  0  0  0  0999 V2000
   37.9410   25.4160   35.1200 N   0  0  0  0  0  0  0  0  0  0  0  0
   37.8750   25.3450   33.6670 C   0  0  0  0  0  0  0  0  0  0  0  0
   38.3590   26.7840   33.3450 C   0  0  2  0  0  0  0  0  0  0  0  0
   37.2970   27.5010   34.1880 C   0  0  0  0  0  0  0  0  0  0  0  0
   37.2850   26.6380   35.4330 C   0  0  0  0  0  0  0  0  0  0  0  0
   38.5890   23.4610   38.2100 C   0  0  0  0  0  0  0  0  0  0  0  0
   37.9180   24.3630   37.3630 C   0  0  0  0  0  0  0  0  0  0  0  0
   38.4960   24.5400   36.0950 C   0  0  0  0  0  0  0  0  0  0  0  0
   39.6370   23.8590   35.7540 N   0  0  0  0  0  0  0  0  0  0  0  0
   40.2260   23.0030   36.6330 C   0  0  0  0  0  0  0  0  0  0  0  0
   39.7070   22.8080   37.8440 N   0  0  0  0  0  0  0  0  0  0  0  0
   38.3730   27.1460   31.9400 C   0  0  0  0  0  0  0  0  0  0  0  0
   37.6800   28.0980   31.6690 O   0  0  0  0  0  0  0  0  0  0  0  0
   39.1800   26.3990   30.9400 C   0  0  2  0  0  0  0  0  0  0  0  0
   40.6230   26.2330   31.3740 C   0  0  0  0  0  0  0  0  0  0  0  0
   41.2250   27.5780   31.1130 C   0  0  0  0  0  0  0  0  0  0  0  0
   40.3890   28.2210   30.0360 C   0  0  0  0  0  0  0  0  0  0  0  0
   39.3140   27.2160   29.6650 C   0  0  1  0  0  0  0  0  0  0  0  0
   39.6330   26.4440   28.4740 C   0  0  0  0  0  0  0  0  0  0  0  0
   40.1480   27.1400   27.3950 C   0  0  0  0  0  0  0  0  0  0  0  0
   40.4010   26.2840   26.3610 N   0  0  0  0  0  0  0  0  0  0  0  0
   40.0460   25.0450   26.7840 C   0  0  0  0  0  0  0  0  0  0  0  0
   39.5940   25.1780   28.0440 N   0  0  0  0  0  0  0  0  0  0  0  0
   38.5506   24.5792   33.2582 H   0  0  0  0  0  0  0  0  0  0  0  0
   36.8984   25.0638   33.2461 H   0  0  0  0  0  0  0  0  0  0  0  0
   39.4127   27.0067   33.5688 H   0  0  0  0  0  0  0  0  0  0  0  0
   37.5933   28.5354   34.4164 H   0  0  0  0  0  0  0  0  0  0  0  0
   36.3184   27.6003   33.6957 H   0  0  0  0  0  0  0  0  0  0  0  0
   36.2478   26.4382   35.7400 H   0  0  0  0  0  0  0  0  0  0  0  0
   37.7987   27.1494   36.2604 H   0  0  0  0  0  0  0  0  0  0  0  0
   38.1812   23.2820   39.2158 H   0  0  0  0  0  0  0  0  0  0  0  0
   37.0047   24.8924   37.6724 H   0  0  0  0  0  0  0  0  0  0  0  0
   41.1405   22.4664   36.3401 H   0  0  0  0  0  0  0  0  0  0  0  0
   38.6650   25.4350   30.8153 H   0  0  0  0  0  0  0  0  0  0  0  0
   40.6850   25.9753   32.4416 H   0  0  0  0  0  0  0  0  0  0  0  0
   41.1398   25.4221   30.8398 H   0  0  0  0  0  0  0  0  0  0  0  0
   41.2012   28.1887   32.0276 H   0  0  0  0  0  0  0  0  0  0  0  0
   42.2758   27.4889   30.8001 H   0  0  0  0  0  0  0  0  0  0  0  0
   39.9296   29.1464   30.4136 H   0  0  0  0  0  0  0  0  0  0  0  0
   41.0026   28.4868   29.1626 H   0  0  0  0  0  0  0  0  0  0  0  0
   38.3613   27.6767   29.3649 H   0  0  0  0  0  0  0  0  0  0  0  0
   40.3276   28.2250   27.3729 H   0  0  0  0  0  0  0  0  0  0  0  0
   40.1146   24.1108   26.2073 H   0  0  0  0  0  0  0  0  0  0  0  0
   39.2549   24.3909   28.6153 H   0  0  0  0  0  0  0  0  0  0  0  0
  1  5  1  0
  1  8  1  0
  2  1  1  0
  3  2  1  0
  3  4  1  0
  4  5  1  0
  7  6  2  0
  8  7  1  0
  9  8  2  0
  9 10  1  0
 10 11  2  0
 11  6  1  0
 12  3  1  0
 13 12  2  0
 14 15  1  0
 14 12  1  0
 16 15  1  0
 17 16  1  0
 18 17  1  0
 18 14  1  0
 19 18  1  0
 20 19  2  0
 21 22  2  0
 21 20  1  0
 22 23  1  0
 23 19  1  0
  2 24  1  0
  2 25  1  0
  3 26  1  1
  4 27  1  0
  4 28  1  0
  5 29  1  0
  5 30  1  0
  6 31  1  0
  7 32  1  0
 10 33  1  0
 14 34  1  6
 15 35  1  0
 15 36  1  0
 16 37  1  0
 16 38  1  0
 17 39  1  0
 17 40  1  0
 18 41  1  6
 20 42  1  0
 22 43  1  0
 23 44  1  0
M  ISO  8  24  13  25  13  26  13  27  13  28  13  29  13  30  13  31  14
M  ISO  8  32  14  33  14  34  13  35  13  36  13  37  13  38  13  39  13
M  ISO  5  40  13  41  13  42  14  43  14  44   9
M  END
>  <minimizedAffinity>  (1) 
-4.97546244

>  <minimizedRMSD>  (1) 
0.383090109

$$$$
