
     RDKit          3D

 44 47  0  0  1  0  0  0  0  0999 V2000
   37.9480   25.3890   35.1710 N   0  0  0  0  0  0  0  0  0  0  0  0
   37.8240   25.2990   33.7220 C   0  0  0  0  0  0  0  0  0  0  0  0
   38.3360   26.7280   33.3690 C   0  0  2  0  0  0  0  0  0  0  0  0
   37.3180   27.4830   34.2360 C   0  0  0  0  0  0  0  0  0  0  0  0
   37.3380   26.6420   35.5000 C   0  0  0  0  0  0  0  0  0  0  0  0
   38.6410   23.4500   38.2620 C   0  0  0  0  0  0  0  0  0  0  0  0
   37.9770   24.3470   37.4150 C   0  0  0  0  0  0  0  0  0  0  0  0
   38.5150   24.5150   36.1400 C   0  0  0  0  0  0  0  0  0  0  0  0
   39.6380   23.8170   35.7760 N   0  0  0  0  0  0  0  0  0  0  0  0
   40.2370   22.9600   36.6460 C   0  0  0  0  0  0  0  0  0  0  0  0
   39.7460   22.7800   37.8690 N   0  0  0  0  0  0  0  0  0  0  0  0
   38.3040   27.0660   31.9550 C   0  0  0  0  0  0  0  0  0  0  0  0
   37.5520   27.9720   31.6790 O   0  0  0  0  0  0  0  0  0  0  0  0
   39.1260   26.3550   30.9570 C   0  0  2  0  0  0  0  0  0  0  0  0
   40.5940   26.2910   31.3460 C   0  0  0  0  0  0  0  0  0  0  0  0
   41.0850   27.6750   31.0270 C   0  0  0  0  0  0  0  0  0  0  0  0
   40.1750   28.2160   29.9530 C   0  0  0  0  0  0  0  0  0  0  0  0
   39.1780   27.1020   29.6390 C   0  0  1  0  0  0  0  0  0  0  0  0
   39.6280   26.2230   28.6080 N   0  0  0  0  0  0  0  0  0  0  0  0
   40.0730   26.7320   27.4450 C   0  0  0  0  0  0  0  0  0  0  0  0
   40.4400   25.6840   26.6360 C   0  0  0  0  0  0  0  0  0  0  0  0
   40.2110   24.5460   27.3230 N   0  0  0  0  0  0  0  0  0  0  0  0
   39.7090   24.9030   28.5380 C   0  0  0  0  0  0  0  0  0  0  0  0
   38.4635   24.5110   33.2976 H   0  0  0  0  0  0  0  0  0  0  0  0
   36.8269   25.0361   33.3391 H   0  0  0  0  0  0  0  0  0  0  0  0
   39.4003   26.9305   33.5593 H   0  0  0  0  0  0  0  0  0  0  0  0
   37.6412   28.5159   34.4323 H   0  0  0  0  0  0  0  0  0  0  0  0
   36.3237   27.5922   33.7784 H   0  0  0  0  0  0  0  0  0  0  0  0
   36.3111   26.4776   35.8585 H   0  0  0  0  0  0  0  0  0  0  0  0
   37.9010   27.1509   36.2962 H   0  0  0  0  0  0  0  0  0  0  0  0
   38.2508   23.2865   39.2774 H   0  0  0  0  0  0  0  0  0  0  0  0
   37.0775   24.8907   37.7394 H   0  0  0  0  0  0  0  0  0  0  0  0
   41.1372   22.4098   36.3348 H   0  0  0  0  0  0  0  0  0  0  0  0
   38.6549   25.3632   30.8902 H   0  0  0  0  0  0  0  0  0  0  0  0
   40.7106   26.0664   32.4165 H   0  0  0  0  0  0  0  0  0  0  0  0
   41.1493   25.5005   30.8200 H   0  0  0  0  0  0  0  0  0  0  0  0
   41.0357   28.3115   31.9228 H   0  0  0  0  0  0  0  0  0  0  0  0
   42.1318   27.6574   30.6894 H   0  0  0  0  0  0  0  0  0  0  0  0
   39.6464   29.1099   30.3156 H   0  0  0  0  0  0  0  0  0  0  0  0
   40.7421   28.5107   29.0578 H   0  0  0  0  0  0  0  0  0  0  0  0
   38.2161   27.4928   29.2755 H   0  0  0  0  0  0  0  0  0  0  0  0
   40.1326   27.7997   27.1871 H   0  0  0  0  0  0  0  0  0  0  0  0
   40.8457   25.7591   25.6163 H   0  0  0  0  0  0  0  0  0  0  0  0
   39.4167   24.2044   29.3359 H   0  0  0  0  0  0  0  0  0  0  0  0
  1  5  1  0
  1  8  1  0
  2  1  1  0
  3  2  1  0
  3  4  1  0
  4  5  1  0
  7  6  2  0
  8  7  1  0
  9  8  2  0
  9 10  1  0
 10 11  2  0
 11  6  1  0
 12  3  1  0
 13 12  2  0
 14 15  1  0
 14 12  1  0
 16 15  1  0
 17 16  1  0
 18 17  1  0
 18 14  1  0
 19 18  1  0
 20 19  1  0
 21 22  1  0
 21 20  2  0
 22 23  2  0
 23 19  1  0
  2 24  1  0
  2 25  1  0
  3 26  1  1
  4 27  1  0
  4 28  1  0
  5 29  1  0
  5 30  1  0
  6 31  1  0
  7 32  1  0
 10 33  1  0
 14 34  1  6
 15 35  1  0
 15 36  1  0
 16 37  1  0
 16 38  1  0
 17 39  1  0
 17 40  1  0
 18 41  1  6
 20 42  1  0
 21 43  1  0
 23 44  1  0
M  ISO  8  24  13  25  13  26  13  27  13  28  13  29  13  30  13  31  14
M  ISO  8  32  14  33  14  34  13  35  13  36  13  37  13  38  13  39  13
M  ISO  5  40  13  41  13  42  14  43  14  44  14
M  END
>  <minimizedAffinity>  (1) 
-4.72346592

>  <minimizedRMSD>  (1) 
0.376979202

$$$$
