
     RDKit          3D

 53 56  0  0  1  0  0  0  0  0999 V2000
   37.8930   25.0580   35.0020 N   0  0  0  0  0  0  0  0  0  0  0  0
   37.8620   24.7310   33.5870 C   0  0  0  0  0  0  0  0  0  0  0  0
   38.4330   26.0610   33.0220 C   0  0  2  0  0  0  0  0  0  0  0  0
   37.3940   26.9840   33.6760 C   0  0  0  0  0  0  0  0  0  0  0  0
   37.2770   26.3570   35.0520 C   0  0  0  0  0  0  0  0  0  0  0  0
   38.3570   23.7320   38.4300 C   0  0  0  0  0  0  0  0  0  0  0  0
   37.7540   24.4710   37.4000 C   0  0  0  0  0  0  0  0  0  0  0  0
   38.3700   24.3790   36.1440 C   0  0  0  0  0  0  0  0  0  0  0  0
   39.4850   23.6020   35.9910 N   0  0  0  0  0  0  0  0  0  0  0  0
   40.0150   22.9110   37.0370 C   0  0  0  0  0  0  0  0  0  0  0  0
   39.4520   22.9800   38.2430 N   0  0  0  0  0  0  0  0  0  0  0  0
   38.5040   26.1440   31.5720 C   0  0  0  0  0  0  0  0  0  0  0  0
   37.5820   26.7440   31.0700 O   0  0  0  0  0  0  0  0  0  0  0  0
   39.6120   25.5440   30.7980 C   0  0  2  0  0  0  0  0  0  0  0  0
   40.9660   25.9850   31.3170 C   0  0  0  0  0  0  0  0  0  0  0  0
   41.1190   27.3660   30.7740 C   0  0  0  0  0  0  0  0  0  0  0  0
   40.2550   27.4390   29.5430 C   0  0  0  0  0  0  0  0  0  0  0  0
   39.6070   26.0820   29.3830 C   0  0  1  0  0  0  0  0  0  0  0  0
   40.1380   25.2070   28.3400 C   0  0  0  0  0  0  0  0  0  0  0  0
   39.4140   23.8560   28.4530 C   0  0  0  0  0  0  0  0  0  0  0  0
   40.3550   22.8490   27.7980 C   0  0  0  0  0  0  0  0  0  0  0  0
   40.9850   23.3860   26.5460 C   0  0  0  0  0  0  0  0  0  0  0  0
   40.1060   24.4440   25.9630 C   0  0  0  0  0  0  0  0  0  0  0  0
   39.9790   25.6400   26.9170 C   0  0  0  0  0  0  0  0  0  0  0  0
   38.5045   23.8708   33.3476 H   0  0  0  0  0  0  0  0  0  0  0  0
   36.8811   24.4294   33.1909 H   0  0  0  0  0  0  0  0  0  0  0  0
   39.4899   26.2713   33.2427 H   0  0  0  0  0  0  0  0  0  0  0  0
   37.7547   28.0215   33.7340 H   0  0  0  0  0  0  0  0  0  0  0  0
   36.4430   27.0569   33.1281 H   0  0  0  0  0  0  0  0  0  0  0  0
   36.2169   26.2571   35.3279 H   0  0  0  0  0  0  0  0  0  0  0  0
   37.7751   26.9877   35.8031 H   0  0  0  0  0  0  0  0  0  0  0  0
   37.9118   23.7713   39.4351 H   0  0  0  0  0  0  0  0  0  0  0  0
   36.8556   25.0831   37.5677 H   0  0  0  0  0  0  0  0  0  0  0  0
   40.9122   22.2927   36.8863 H   0  0  0  0  0  0  0  0  0  0  0  0
   39.4664   24.4560   30.8692 H   0  0  0  0  0  0  0  0  0  0  0  0
   40.9815   25.9918   32.4169 H   0  0  0  0  0  0  0  0  0  0  0  0
   41.7805   25.3128   31.0093 H   0  0  0  0  0  0  0  0  0  0  0  0
   40.7855   28.1056   31.5168 H   0  0  0  0  0  0  0  0  0  0  0  0
   42.1702   27.5859   30.5360 H   0  0  0  0  0  0  0  0  0  0  0  0
   39.4846   28.2144   29.6665 H   0  0  0  0  0  0  0  0  0  0  0  0
   40.8522   27.6982   28.6564 H   0  0  0  0  0  0  0  0  0  0  0  0
   38.5918   26.1546   28.9658 H   0  0  0  0  0  0  0  0  0  0  0  0
   41.2216   25.1964   28.5289 H   0  0  0  0  0  0  0  0  0  0  0  0
   39.2428   23.5959   29.5080 H   0  0  0  0  0  0  0  0  0  0  0  0
   38.4262   23.8743   27.9694 H   0  0  0  0  0  0  0  0  0  0  0  0
   41.1512   22.5929   28.5124 H   0  0  0  0  0  0  0  0  0  0  0  0
   39.7614   21.9648   27.5225 H   0  0  0  0  0  0  0  0  0  0  0  0
   41.9684   23.8167   26.7856 H   0  0  0  0  0  0  0  0  0  0  0  0
   41.1104   22.5704   25.8186 H   0  0  0  0  0  0  0  0  0  0  0  0
   40.5384   24.7870   25.0115 H   0  0  0  0  0  0  0  0  0  0  0  0
   39.1052   24.0178   25.7997 H   0  0  0  0  0  0  0  0  0  0  0  0
   40.7586   26.3775   26.6757 H   0  0  0  0  0  0  0  0  0  0  0  0
   38.9797   26.0831   26.7940 H   0  0  0  0  0  0  0  0  0  0  0  0
  1  5  1  0
  1  8  1  0
  2  1  1  0
  3  2  1  0
  3  4  1  0
  4  5  1  0
  7  6  2  0
  8  7  1  0
  9  8  2  0
  9 10  1  0
 10 11  2  0
 11  6  1  0
 12  3  1  0
 13 12  2  0
 14 15  1  0
 14 12  1  0
 16 15  1  0
 17 16  1  0
 18 17  1  0
 18 14  1  0
 19 20  1  0
 19 18  1  0
 21 20  1  0
 22 21  1  0
 23 22  1  0
 23 24  1  0
 24 19  1  0
  2 25  1  0
  2 26  1  0
  3 27  1  1
  4 28  1  0
  4 29  1  0
  5 30  1  0
  5 31  1  0
  6 32  1  0
  7 33  1  0
 10 34  1  0
 14 35  1  6
 15 36  1  0
 15 37  1  0
 16 38  1  0
 16 39  1  0
 17 40  1  0
 17 41  1  0
 18 42  1  6
 19 43  1  0
 20 44  1  0
 20 45  1  0
 21 46  1  0
 21 47  1  0
 22 48  1  0
 22 49  1  0
 23 50  1  0
 23 51  1  0
 24 52  1  0
 24 53  1  0
M  ISO  8  25  13  26  13  27  13  28  13  29  13  30  13  31  13  32  14
M  ISO  8  33  14  34  14  35  13  36  13  37  13  38  13  39  13  40  13
M  ISO  8  41  13  42  13  43  13  44  13  45  13  46  13  47  13  48  13
M  ISO  5  49  13  50  13  51  13  52  13  53  13
M  END
>  <minimizedAffinity>  (1) 
-4.79873753

>  <minimizedRMSD>  (1) 
0.931577146

$$$$
