
     RDKit          3D

 44 47  0  0  1  0  0  0  0  0999 V2000
   37.9480   25.3590   35.1450 N   0  0  0  0  0  0  0  0  0  0  0  0
   37.8340   25.3120   33.7060 C   0  0  0  0  0  0  0  0  0  0  0  0
   38.3350   26.7440   33.3700 C   0  0  2  0  0  0  0  0  0  0  0  0
   37.3160   27.4850   34.2460 C   0  0  0  0  0  0  0  0  0  0  0  0
   37.3030   26.6000   35.4800 C   0  0  0  0  0  0  0  0  0  0  0  0
   38.6650   23.4280   38.2240 C   0  0  0  0  0  0  0  0  0  0  0  0
   37.9750   24.3250   37.3930 C   0  0  0  0  0  0  0  0  0  0  0  0
   38.5140   24.4950   36.1090 C   0  0  0  0  0  0  0  0  0  0  0  0
   39.6440   23.8040   35.7400 N   0  0  0  0  0  0  0  0  0  0  0  0
   40.2540   22.9520   36.6070 C   0  0  0  0  0  0  0  0  0  0  0  0
   39.7740   22.7670   37.8280 N   0  0  0  0  0  0  0  0  0  0  0  0
   38.2960   27.0990   31.9590 C   0  0  0  0  0  0  0  0  0  0  0  0
   37.5700   28.0280   31.6990 O   0  0  0  0  0  0  0  0  0  0  0  0
   39.0950   26.3690   30.9440 C   0  0  2  0  0  0  0  0  0  0  0  0
   40.5610   26.2770   31.3120 C   0  0  0  0  0  0  0  0  0  0  0  0
   41.0850   27.6400   30.9880 C   0  0  0  0  0  0  0  0  0  0  0  0
   40.1620   28.2300   29.9490 C   0  0  0  0  0  0  0  0  0  0  0  0
   39.1490   27.1530   29.6400 C   0  0  1  0  0  0  0  0  0  0  0  0
   39.6320   26.2270   28.5830 C   0  0  0  0  0  0  0  0  0  0  0  0
   39.7160   24.8540   28.4660 C   0  0  0  0  0  0  0  0  0  0  0  0
   40.2530   24.5100   27.2430 C   0  0  0  0  0  0  0  0  0  0  0  0
   40.4840   25.7290   26.6420 C   0  0  0  0  0  0  0  0  0  0  0  0
   40.1100   26.6870   27.4520 O   0  0  0  0  0  0  0  0  0  0  0  0
   38.4792   24.5367   33.2671 H   0  0  0  0  0  0  0  0  0  0  0  0
   36.8350   25.0599   33.3206 H   0  0  0  0  0  0  0  0  0  0  0  0
   39.3987   26.9485   33.5614 H   0  0  0  0  0  0  0  0  0  0  0  0
   37.6524   28.5051   34.4832 H   0  0  0  0  0  0  0  0  0  0  0  0
   36.3310   27.6267   33.7773 H   0  0  0  0  0  0  0  0  0  0  0  0
   36.2654   26.4091   35.7913 H   0  0  0  0  0  0  0  0  0  0  0  0
   37.8316   27.0933   36.3090 H   0  0  0  0  0  0  0  0  0  0  0  0
   38.2857   23.2561   39.2421 H   0  0  0  0  0  0  0  0  0  0  0  0
   37.0726   24.8585   37.7263 H   0  0  0  0  0  0  0  0  0  0  0  0
   41.1572   22.4097   36.2906 H   0  0  0  0  0  0  0  0  0  0  0  0
   38.6108   25.3840   30.8705 H   0  0  0  0  0  0  0  0  0  0  0  0
   40.6851   26.0514   32.3814 H   0  0  0  0  0  0  0  0  0  0  0  0
   41.0892   25.4748   30.7758 H   0  0  0  0  0  0  0  0  0  0  0  0
   41.0887   28.2682   31.8910 H   0  0  0  0  0  0  0  0  0  0  0  0
   42.1172   27.5855   30.6117 H   0  0  0  0  0  0  0  0  0  0  0  0
   39.6606   29.1250   30.3459 H   0  0  0  0  0  0  0  0  0  0  0  0
   40.7117   28.5396   29.0479 H   0  0  0  0  0  0  0  0  0  0  0  0
   38.1947   27.5755   29.2924 H   0  0  0  0  0  0  0  0  0  0  0  0
   39.3998   24.1368   29.2378 H   0  0  0  0  0  0  0  0  0  0  0  0
   40.4497   23.5043   26.8431 H   0  0  0  0  0  0  0  0  0  0  0  0
   40.9145   25.8738   25.6402 H   0  0  0  0  0  0  0  0  0  0  0  0
  1  5  1  0
  1  8  1  0
  2  1  1  0
  3  2  1  0
  3  4  1  0
  4  5  1  0
  7  6  2  0
  8  7  1  0
  9  8  2  0
  9 10  1  0
 10 11  2  0
 11  6  1  0
 12  3  1  0
 13 12  2  0
 14 15  1  0
 14 12  1  0
 16 15  1  0
 17 16  1  0
 18 17  1  0
 18 14  1  0
 19 18  1  0
 20 19  2  0
 21 20  1  0
 22 21  2  0
 22 23  1  0
 23 19  1  0
  2 24  1  0
  2 25  1  0
  3 26  1  1
  4 27  1  0
  4 28  1  0
  5 29  1  0
  5 30  1  0
  6 31  1  0
  7 32  1  0
 10 33  1  0
 14 34  1  6
 15 35  1  0
 15 36  1  0
 16 37  1  0
 16 38  1  0
 17 39  1  0
 17 40  1  0
 18 41  1  6
 20 42  1  0
 21 43  1  0
 22 44  1  0
M  ISO  8  24  13  25  13  26  13  27  13  28  13  29  13  30  13  31  14
M  ISO  8  32  14  33  14  34  13  35  13  36  13  37  13  38  13  39  13
M  ISO  5  40  13  41  13  42  14  43  14  44  14
M  END
>  <minimizedAffinity>  (1) 
-4.7274375

>  <minimizedRMSD>  (1) 
0.308985591

$$$$
