
     RDKit          3D

 42 45  0  0  1  0  0  0  0  0999 V2000
   37.9570   25.3980   35.1400 N   0  0  0  0  0  0  0  0  0  0  0  0
   37.8560   25.3250   33.6900 C   0  0  0  0  0  0  0  0  0  0  0  0
   38.3510   26.7580   33.3550 C   0  0  2  0  0  0  0  0  0  0  0  0
   37.3200   27.4960   34.2200 C   0  0  0  0  0  0  0  0  0  0  0  0
   37.3350   26.6410   35.4760 C   0  0  0  0  0  0  0  0  0  0  0  0
   38.6370   23.4480   38.2160 C   0  0  0  0  0  0  0  0  0  0  0  0
   37.9610   24.3510   37.3850 C   0  0  0  0  0  0  0  0  0  0  0  0
   38.5110   24.5240   36.1090 C   0  0  0  0  0  0  0  0  0  0  0  0
   39.6380   23.8280   35.7460 N   0  0  0  0  0  0  0  0  0  0  0  0
   40.2360   22.9650   36.6140 C   0  0  0  0  0  0  0  0  0  0  0  0
   39.7410   22.7780   37.8320 N   0  0  0  0  0  0  0  0  0  0  0  0
   38.3330   27.1160   31.9490 C   0  0  0  0  0  0  0  0  0  0  0  0
   37.6100   28.0450   31.6810 O   0  0  0  0  0  0  0  0  0  0  0  0
   39.1410   26.3960   30.9430 C   0  0  2  0  0  0  0  0  0  0  0  0
   40.5960   26.2490   31.3540 C   0  0  0  0  0  0  0  0  0  0  0  0
   41.1610   27.6160   31.0890 C   0  0  0  0  0  0  0  0  0  0  0  0
   40.2980   28.2320   30.0150 C   0  0  0  0  0  0  0  0  0  0  0  0
   39.2540   27.1790   29.6510 C   0  0  1  0  0  0  0  0  0  0  0  0
   39.6600   26.3090   28.5480 C   0  0  0  0  0  0  0  0  0  0  0  0
   39.6930   24.9640   28.3930 N   0  0  0  0  0  0  0  0  0  0  0  0
   40.1380   24.6890   27.2180 O   0  0  0  0  0  0  0  0  0  0  0  0
   40.4140   25.7710   26.5490 C   0  0  0  0  0  0  0  0  0  0  0  0
   40.1230   26.7800   27.3580 N   0  0  0  0  0  0  0  0  0  0  0  0
   38.5120   24.5500   33.2669 H   0  0  0  0  0  0  0  0  0  0  0  0
   36.8666   25.0552   33.2921 H   0  0  0  0  0  0  0  0  0  0  0  0
   39.4126   26.9648   33.5558 H   0  0  0  0  0  0  0  0  0  0  0  0
   37.6337   28.5292   34.4302 H   0  0  0  0  0  0  0  0  0  0  0  0
   36.3291   27.6029   33.7545 H   0  0  0  0  0  0  0  0  0  0  0  0
   36.3062   26.4648   35.8232 H   0  0  0  0  0  0  0  0  0  0  0  0
   37.8867   27.1457   36.2827 H   0  0  0  0  0  0  0  0  0  0  0  0
   38.2477   23.2779   39.2306 H   0  0  0  0  0  0  0  0  0  0  0  0
   37.0587   24.8880   37.7130 H   0  0  0  0  0  0  0  0  0  0  0  0
   41.1379   22.4176   36.3029 H   0  0  0  0  0  0  0  0  0  0  0  0
   38.6243   25.4306   30.8381 H   0  0  0  0  0  0  0  0  0  0  0  0
   40.6816   25.9852   32.4185 H   0  0  0  0  0  0  0  0  0  0  0  0
   41.1215   25.4496   30.8110 H   0  0  0  0  0  0  0  0  0  0  0  0
   41.1246   28.2266   32.0032 H   0  0  0  0  0  0  0  0  0  0  0  0
   42.2127   27.5586   30.7718 H   0  0  0  0  0  0  0  0  0  0  0  0
   39.8072   29.1403   30.3946 H   0  0  0  0  0  0  0  0  0  0  0  0
   40.8957   28.5234   29.1387 H   0  0  0  0  0  0  0  0  0  0  0  0
   38.3145   27.6262   29.2941 H   0  0  0  0  0  0  0  0  0  0  0  0
   40.8075   25.8349   25.5238 H   0  0  0  0  0  0  0  0  0  0  0  0
  1  5  1  0
  1  8  1  0
  2  1  1  0
  3  2  1  0
  3  4  1  0
  4  5  1  0
  7  6  2  0
  8  7  1  0
  9  8  2  0
  9 10  1  0
 10 11  2  0
 11  6  1  0
 12  3  1  0
 13 12  2  0
 14 15  1  0
 14 12  1  0
 16 15  1  0
 17 16  1  0
 18 17  1  0
 18 14  1  0
 19 18  1  0
 20 19  2  0
 21 20  1  0
 22 21  1  0
 22 23  2  0
 23 19  1  0
  2 24  1  0
  2 25  1  0
  3 26  1  1
  4 27  1  0
  4 28  1  0
  5 29  1  0
  5 30  1  0
  6 31  1  0
  7 32  1  0
 10 33  1  0
 14 34  1  6
 15 35  1  0
 15 36  1  0
 16 37  1  0
 16 38  1  0
 17 39  1  0
 17 40  1  0
 18 41  1  6
 22 42  1  0
M  ISO  8  24  13  25  13  26  13  27  13  28  13  29  13  30  13  31  14
M  ISO  8  32  14  33  14  34  13  35  13  36  13  37  13  38  13  39  13
M  ISO  3  40  13  41  13  42  14
M  END
>  <minimizedAffinity>  (1) 
-4.71356821

>  <minimizedRMSD>  (1) 
0.395597726

$$$$
