
     RDKit          3D

 39 41  0  0  1  0  0  0  0  0999 V2000
   37.8810   25.3240   35.0650 N   0  0  0  0  0  0  0  0  0  0  0  0
   37.7830   25.2360   33.6350 C   0  0  0  0  0  0  0  0  0  0  0  0
   38.3010   26.6530   33.2530 C   0  0  2  0  0  0  0  0  0  0  0  0
   37.2940   27.4380   34.1030 C   0  0  0  0  0  0  0  0  0  0  0  0
   37.2340   26.5690   35.3500 C   0  0  0  0  0  0  0  0  0  0  0  0
   38.5900   23.5220   38.2380 C   0  0  0  0  0  0  0  0  0  0  0  0
   37.9150   24.3780   37.3640 C   0  0  0  0  0  0  0  0  0  0  0  0
   38.4300   24.5060   36.0760 C   0  0  0  0  0  0  0  0  0  0  0  0
   39.5630   23.7900   35.7400 N   0  0  0  0  0  0  0  0  0  0  0  0
   40.1800   22.9720   36.6330 C   0  0  0  0  0  0  0  0  0  0  0  0
   39.7030   22.8390   37.8610 N   0  0  0  0  0  0  0  0  0  0  0  0
   38.2770   26.9600   31.8320 C   0  0  0  0  0  0  0  0  0  0  0  0
   37.4860   27.8190   31.5220 O   0  0  0  0  0  0  0  0  0  0  0  0
   39.1530   26.2740   30.8630 C   0  0  2  0  0  0  0  0  0  0  0  0
   40.5910   26.1800   31.3280 C   0  0  0  0  0  0  0  0  0  0  0  0
   41.1140   27.5690   31.0790 C   0  0  0  0  0  0  0  0  0  0  0  0
   40.2670   28.1650   29.9830 C   0  0  0  0  0  0  0  0  0  0  0  0
   39.2890   27.0560   29.5710 C   0  0  2  0  0  0  0  0  0  0  0  0
   38.0470   27.7060   29.2100 N   0  0  0  0  0  0  0  0  0  0  0  0
   38.4252   24.4411   33.2280 H   0  0  0  0  0  0  0  0  0  0  0  0
   36.7843   24.9834   33.2493 H   0  0  0  0  0  0  0  0  0  0  0  0
   39.3664   26.8517   33.4412 H   0  0  0  0  0  0  0  0  0  0  0  0
   37.6597   28.4498   34.3320 H   0  0  0  0  0  0  0  0  0  0  0  0
   36.3212   27.6052   33.6175 H   0  0  0  0  0  0  0  0  0  0  0  0
   36.1848   26.3877   35.6263 H   0  0  0  0  0  0  0  0  0  0  0  0
   37.7383   27.0740   36.1871 H   0  0  0  0  0  0  0  0  0  0  0  0
   38.2091   23.3970   39.2623 H   0  0  0  0  0  0  0  0  0  0  0  0
   37.0156   24.9272   37.6794 H   0  0  0  0  0  0  0  0  0  0  0  0
   41.0813   22.4170   36.3337 H   0  0  0  0  0  0  0  0  0  0  0  0
   38.6757   25.2902   30.7433 H   0  0  0  0  0  0  0  0  0  0  0  0
   40.6459   25.9215   32.3958 H   0  0  0  0  0  0  0  0  0  0  0  0
   41.1660   25.3989   30.8092 H   0  0  0  0  0  0  0  0  0  0  0  0
   41.0304   28.1745   31.9936 H   0  0  0  0  0  0  0  0  0  0  0  0
   42.1746   27.5446   30.7883 H   0  0  0  0  0  0  0  0  0  0  0  0
   39.7182   29.0426   30.3555 H   0  0  0  0  0  0  0  0  0  0  0  0
   40.8785   28.5056   29.1344 H   0  0  0  0  0  0  0  0  0  0  0  0
   39.5903   26.4197   28.7258 H   0  0  0  0  0  0  0  0  0  0  0  0
   37.5379   27.9725   30.0648 H   0  0  0  0  0  0  0  0  0  0  0  0
   38.2497   28.5491   28.6542 H   0  0  0  0  0  0  0  0  0  0  0  0
  1  5  1  0
  1  8  1  0
  2  1  1  0
  3  2  1  0
  3  4  1  0
  4  5  1  0
  7  6  2  0
  8  7  1  0
  9  8  2  0
  9 10  1  0
 10 11  2  0
 11  6  1  0
 12  3  1  0
 13 12  2  0
 14 15  1  0
 14 12  1  0
 16 15  1  0
 17 16  1  0
 18 17  1  0
 18 14  1  0
 19 18  1  0
  2 20  1  0
  2 21  1  0
  3 22  1  1
  4 23  1  0
  4 24  1  0
  5 25  1  0
  5 26  1  0
  6 27  1  0
  7 28  1  0
 10 29  1  0
 14 30  1  6
 15 31  1  0
 15 32  1  0
 16 33  1  0
 16 34  1  0
 17 35  1  0
 17 36  1  0
 18 37  1  6
 19 38  1  0
 19 39  1  0
M  ISO  8  20  13  21  13  22  13  23  13  24  13  25  13  26  13  27  14
M  ISO  8  28  14  29  14  30  13  31  13  32  13  33  13  34  13  35  13
M  ISO  4  36  13  37  13  38   5  39   5
M  END
>  <minimizedAffinity>  (1) 
-4.70825529

>  <minimizedRMSD>  (1) 
0.144491255

$$$$
