
     RDKit          3D

 38 40  0  0  1  0  0  0  0  0999 V2000
   37.9520   25.4050   35.1220 N   0  0  0  0  0  0  0  0  0  0  0  0
   37.8690   25.3460   33.6810 C   0  0  0  0  0  0  0  0  0  0  0  0
   38.3820   26.7690   33.3410 C   0  0  2  0  0  0  0  0  0  0  0  0
   37.3390   27.5170   34.1810 C   0  0  0  0  0  0  0  0  0  0  0  0
   37.3250   26.6620   35.4360 C   0  0  0  0  0  0  0  0  0  0  0  0
   38.5640   23.4800   38.2340 C   0  0  0  0  0  0  0  0  0  0  0  0
   37.9120   24.3730   37.3760 C   0  0  0  0  0  0  0  0  0  0  0  0
   38.4730   24.5480   36.1100 C   0  0  0  0  0  0  0  0  0  0  0  0
   39.6120   23.8480   35.7810 N   0  0  0  0  0  0  0  0  0  0  0  0
   40.2000   22.9940   36.6590 C   0  0  0  0  0  0  0  0  0  0  0  0
   39.6760   22.8150   37.8760 N   0  0  0  0  0  0  0  0  0  0  0  0
   38.3970   27.1160   31.9310 C   0  0  0  0  0  0  0  0  0  0  0  0
   37.6900   28.0540   31.6480 O   0  0  0  0  0  0  0  0  0  0  0  0
   39.2130   26.3800   30.9480 C   0  0  2  0  0  0  0  0  0  0  0  0
   40.5850   26.0050   31.4860 C   0  0  0  0  0  0  0  0  0  0  0  0
   41.3430   27.2970   31.4070 C   0  0  0  0  0  0  0  0  0  0  0  0
   40.6900   28.1200   30.3270 C   0  0  0  0  0  0  0  0  0  0  0  0
   39.5700   27.2420   29.7540 C   0  0  2  0  0  0  0  0  0  0  0  0
   38.1780   28.3660   29.3580 S   0  0  0  0  0  0  0  0  0  0  0  0
   38.5200   24.5637   33.2635 H   0  0  0  0  0  0  0  0  0  0  0  0
   36.8768   25.0954   33.2775 H   0  0  0  0  0  0  0  0  0  0  0  0
   39.4414   26.9715   33.5571 H   0  0  0  0  0  0  0  0  0  0  0  0
   37.6555   28.5483   34.3963 H   0  0  0  0  0  0  0  0  0  0  0  0
   36.3587   27.6327   33.6956 H   0  0  0  0  0  0  0  0  0  0  0  0
   36.2879   26.4916   35.7606 H   0  0  0  0  0  0  0  0  0  0  0  0
   37.8658   27.1672   36.2499 H   0  0  0  0  0  0  0  0  0  0  0  0
   38.1506   23.3160   39.2401 H   0  0  0  0  0  0  0  0  0  0  0  0
   37.0028   24.9101   37.6840 H   0  0  0  0  0  0  0  0  0  0  0  0
   41.1097   22.4483   36.3678 H   0  0  0  0  0  0  0  0  0  0  0  0
   38.5917   25.5066   30.7008 H   0  0  0  0  0  0  0  0  0  0  0  0
   40.5185   25.6485   32.5245 H   0  0  0  0  0  0  0  0  0  0  0  0
   41.0619   25.1876   30.9253 H   0  0  0  0  0  0  0  0  0  0  0  0
   41.2907   27.8261   32.3700 H   0  0  0  0  0  0  0  0  0  0  0  0
   42.4043   27.1185   31.1796 H   0  0  0  0  0  0  0  0  0  0  0  0
   40.2729   29.0458   30.7500 H   0  0  0  0  0  0  0  0  0  0  0  0
   41.4110   28.4154   29.5505 H   0  0  0  0  0  0  0  0  0  0  0  0
   39.8216   26.6568   28.8572 H   0  0  0  0  0  0  0  0  0  0  0  0
   37.6139   28.8215   30.5204 H   0  0  0  0  0  0  0  0  0  0  0  0
  1  5  1  0
  1  8  1  0
  2  1  1  0
  3  2  1  0
  3  4  1  0
  4  5  1  0
  7  6  2  0
  8  7  1  0
  9  8  2  0
  9 10  1  0
 10 11  2  0
 11  6  1  0
 12  3  1  0
 13 12  2  0
 14 15  1  0
 14 12  1  0
 16 15  1  0
 17 16  1  0
 18 17  1  0
 18 14  1  0
 19 18  1  0
  2 20  1  0
  2 21  1  0
  3 22  1  1
  4 23  1  0
  4 24  1  0
  5 25  1  0
  5 26  1  0
  6 27  1  0
  7 28  1  0
 10 29  1  0
 14 30  1  6
 15 31  1  0
 15 32  1  0
 16 33  1  0
 16 34  1  0
 17 35  1  0
 17 36  1  0
 18 37  1  6
 19 38  1  0
M  ISO  8  20  13  21  13  22  13  23  13  24  13  25  13  26  13  27  14
M  ISO  8  28  14  29  14  30  13  31  13  32  13  33  13  34  13  35  13
M  ISO  3  36  13  37  13  38  11
M  END
>  <minimizedAffinity>  (1) 
-4.50762224

>  <minimizedRMSD>  (1) 
0.192890018

$$$$
