
     RDKit          3D

 40 42  0  0  1  0  0  0  0  0999 V2000
   37.9810   25.3680   35.0560 N   0  0  0  0  0  0  0  0  0  0  0  0
   37.9920   25.3110   33.6110 C   0  0  0  0  0  0  0  0  0  0  0  0
   38.4820   26.7560   33.3070 C   0  0  2  0  0  0  0  0  0  0  0  0
   37.3840   27.4800   34.0950 C   0  0  0  0  0  0  0  0  0  0  0  0
   37.2840   26.5900   35.3250 C   0  0  0  0  0  0  0  0  0  0  0  0
   38.4920   23.4720   38.2060 C   0  0  0  0  0  0  0  0  0  0  0  0
   37.8630   24.3400   37.3100 C   0  0  0  0  0  0  0  0  0  0  0  0
   38.4780   24.5290   36.0760 C   0  0  0  0  0  0  0  0  0  0  0  0
   39.6560   23.8630   35.8040 N   0  0  0  0  0  0  0  0  0  0  0  0
   40.2180   23.0290   36.7230 C   0  0  0  0  0  0  0  0  0  0  0  0
   39.6440   22.8400   37.9020 N   0  0  0  0  0  0  0  0  0  0  0  0
   38.5630   27.1030   31.8990 C   0  0  0  0  0  0  0  0  0  0  0  0
   37.8400   28.0120   31.5710 O   0  0  0  0  0  0  0  0  0  0  0  0
   39.4580   26.3980   30.9610 C   0  0  2  0  0  0  0  0  0  0  0  0
   40.8230   26.1000   31.5620 C   0  0  0  0  0  0  0  0  0  0  0  0
   41.5150   27.4320   31.4940 C   0  0  0  0  0  0  0  0  0  0  0  0
   40.8620   28.2080   30.3760 C   0  0  0  0  0  0  0  0  0  0  0  0
   39.8330   27.2470   29.7700 C   0  0  2  0  0  0  0  0  0  0  0  0
   38.6810   27.9760   29.1570 C   0  0  0  0  0  0  0  0  0  0  0  0
   38.6929   24.5513   33.2346 H   0  0  0  0  0  0  0  0  0  0  0  0
   37.0365   25.0302   33.1440 H   0  0  0  0  0  0  0  0  0  0  0  0
   39.5210   26.9879   33.5841 H   0  0  0  0  0  0  0  0  0  0  0  0
   37.6840   28.5047   34.3597 H   0  0  0  0  0  0  0  0  0  0  0  0
   36.4389   27.6086   33.5471 H   0  0  0  0  0  0  0  0  0  0  0  0
   36.2275   26.3749   35.5432 H   0  0  0  0  0  0  0  0  0  0  0  0
   37.7289   27.0955   36.1948 H   0  0  0  0  0  0  0  0  0  0  0  0
   38.0331   23.2986   39.1906 H   0  0  0  0  0  0  0  0  0  0  0  0
   36.9238   24.8511   37.5683 H   0  0  0  0  0  0  0  0  0  0  0  0
   41.1568   22.5079   36.4840 H   0  0  0  0  0  0  0  0  0  0  0  0
   38.8822   25.4970   30.7027 H   0  0  0  0  0  0  0  0  0  0  0  0
   40.7309   25.7540   32.6021 H   0  0  0  0  0  0  0  0  0  0  0  0
   41.3651   25.3004   31.0360 H   0  0  0  0  0  0  0  0  0  0  0  0
   41.3967   27.9690   32.4467 H   0  0  0  0  0  0  0  0  0  0  0  0
   42.5924   27.3074   31.3102 H   0  0  0  0  0  0  0  0  0  0  0  0
   40.3656   29.1075   30.7690 H   0  0  0  0  0  0  0  0  0  0  0  0
   41.5943   28.5511   29.6303 H   0  0  0  0  0  0  0  0  0  0  0  0
   40.2108   26.6469   28.9291 H   0  0  0  0  0  0  0  0  0  0  0  0
   38.0390   28.3823   29.9525 H   0  0  0  0  0  0  0  0  0  0  0  0
   39.0584   28.8001   28.5337 H   0  0  0  0  0  0  0  0  0  0  0  0
   38.0978   27.2822   28.5337 H   0  0  0  0  0  0  0  0  0  0  0  0
  1  5  1  0
  1  8  1  0
  2  1  1  0
  3  2  1  0
  3  4  1  0
  4  5  1  0
  7  6  2  0
  8  7  1  0
  9  8  2  0
  9 10  1  0
 10 11  2  0
 11  6  1  0
 12  3  1  0
 13 12  2  0
 14 15  1  0
 14 12  1  0
 16 15  1  0
 17 16  1  0
 18 17  1  0
 18 14  1  0
 19 18  1  0
  2 20  1  0
  2 21  1  0
  3 22  1  1
  4 23  1  0
  4 24  1  0
  5 25  1  0
  5 26  1  0
  6 27  1  0
  7 28  1  0
 10 29  1  0
 14 30  1  6
 15 31  1  0
 15 32  1  0
 16 33  1  0
 16 34  1  0
 17 35  1  0
 17 36  1  0
 18 37  1  6
 19 38  1  0
 19 39  1  0
 19 40  1  0
M  ISO  8  20  13  21  13  22  13  23  13  24  13  25  13  26  13  27  14
M  ISO  8  28  14  29  14  30  13  31  13  32  13  33  13  34  13  35  13
M  ISO  5  36  13  37  13  38   8  39   8  40   8
M  END
>  <minimizedAffinity>  (1) 
-4.50258064

>  <minimizedRMSD>  (1) 
0.229457274

$$$$
