
     RDKit          3D

 46 48  0  0  1  0  0  0  0  0999 V2000
   37.9950   25.2470   35.0750 N   0  0  0  0  0  0  0  0  0  0  0  0
   37.9750   25.1140   33.6380 C   0  0  0  0  0  0  0  0  0  0  0  0
   38.5090   26.5210   33.2470 C   0  0  2  0  0  0  0  0  0  0  0  0
   37.4460   27.3230   34.0110 C   0  0  0  0  0  0  0  0  0  0  0  0
   37.3340   26.5070   35.2850 C   0  0  0  0  0  0  0  0  0  0  0  0
   38.4960   23.5100   38.3170 C   0  0  0  0  0  0  0  0  0  0  0  0
   37.8670   24.3520   37.3780 C   0  0  0  0  0  0  0  0  0  0  0  0
   38.4900   24.4480   36.1280 C   0  0  0  0  0  0  0  0  0  0  0  0
   39.6370   23.7430   35.8900 N   0  0  0  0  0  0  0  0  0  0  0  0
   40.1950   22.9450   36.8400 C   0  0  0  0  0  0  0  0  0  0  0  0
   39.6340   22.8310   38.0340 N   0  0  0  0  0  0  0  0  0  0  0  0
   38.5760   26.7880   31.8220 C   0  0  0  0  0  0  0  0  0  0  0  0
   37.7310   27.5600   31.4280 O   0  0  0  0  0  0  0  0  0  0  0  0
   39.5930   26.1680   30.9430 C   0  0  2  0  0  0  0  0  0  0  0  0
   40.9690   26.1780   31.5910 C   0  0  0  0  0  0  0  0  0  0  0  0
   41.4360   27.5830   31.4090 C   0  0  0  0  0  0  0  0  0  0  0  0
   40.6930   28.1220   30.2120 C   0  0  0  0  0  0  0  0  0  0  0  0
   39.8160   26.9980   29.7050 C   0  0  1  0  0  0  0  0  0  0  0  0
   40.2660   26.2940   28.5040 C   0  0  0  0  0  0  0  0  0  0  0  0
   39.8310   24.8870   28.3020 C   0  0  0  0  0  0  0  0  0  0  0  0
   39.7910   27.0950   27.2840 C   0  0  0  0  0  0  0  0  0  0  0  0
   38.6408   24.3104   33.2903 H   0  0  0  0  0  0  0  0  0  0  0  0
   37.0006   24.8442   33.2047 H   0  0  0  0  0  0  0  0  0  0  0  0
   39.5599   26.7318   33.4941 H   0  0  0  0  0  0  0  0  0  0  0  0
   37.7837   28.3496   34.2163 H   0  0  0  0  0  0  0  0  0  0  0  0
   36.4976   27.4532   33.4692 H   0  0  0  0  0  0  0  0  0  0  0  0
   36.2742   26.3355   35.5247 H   0  0  0  0  0  0  0  0  0  0  0  0
   37.8027   27.0455   36.1219 H   0  0  0  0  0  0  0  0  0  0  0  0
   38.0471   23.4001   39.3152 H   0  0  0  0  0  0  0  0  0  0  0  0
   36.9428   24.9003   37.6130 H   0  0  0  0  0  0  0  0  0  0  0  0
   41.1182   22.3909   36.6148 H   0  0  0  0  0  0  0  0  0  0  0  0
   39.2140   25.1561   30.7373 H   0  0  0  0  0  0  0  0  0  0  0  0
   40.9015   25.9224   32.6588 H   0  0  0  0  0  0  0  0  0  0  0  0
   41.6541   25.4405   31.1476 H   0  0  0  0  0  0  0  0  0  0  0  0
   41.2038   28.1808   32.3027 H   0  0  0  0  0  0  0  0  0  0  0  0
   42.5247   27.6270   31.2580 H   0  0  0  0  0  0  0  0  0  0  0  0
   40.0745   28.9831   30.5054 H   0  0  0  0  0  0  0  0  0  0  0  0
   41.3906   28.4630   29.4328 H   0  0  0  0  0  0  0  0  0  0  0  0
   38.8725   27.3670   29.2766 H   0  0  0  0  0  0  0  0  0  0  0  0
   41.3560   26.2262   28.6357 H   0  0  0  0  0  0  0  0  0  0  0  0
   39.6821   24.4053   29.2796 H   0  0  0  0  0  0  0  0  0  0  0  0
   38.8864   24.8726   27.7384 H   0  0  0  0  0  0  0  0  0  0  0  0
   40.6026   24.3420   27.7384 H   0  0  0  0  0  0  0  0  0  0  0  0
   39.2570   27.9954   27.6218 H   0  0  0  0  0  0  0  0  0  0  0  0
   40.6603   27.3899   26.6779 H   0  0  0  0  0  0  0  0  0  0  0  0
   39.1152   26.4737   26.6779 H   0  0  0  0  0  0  0  0  0  0  0  0
  1  5  1  0
  1  8  1  0
  2  1  1  0
  3  2  1  0
  3  4  1  0
  4  5  1  0
  7  6  2  0
  8  7  1  0
  9  8  2  0
  9 10  1  0
 10 11  2  0
 11  6  1  0
 12  3  1  0
 13 12  2  0
 14 15  1  0
 14 12  1  0
 16 15  1  0
 17 16  1  0
 18 17  1  0
 18 14  1  0
 19 18  1  0
 20 19  1  0
 21 19  1  0
  2 22  1  0
  2 23  1  0
  3 24  1  1
  4 25  1  0
  4 26  1  0
  5 27  1  0
  5 28  1  0
  6 29  1  0
  7 30  1  0
 10 31  1  0
 14 32  1  6
 15 33  1  0
 15 34  1  0
 16 35  1  0
 16 36  1  0
 17 37  1  0
 17 38  1  0
 18 39  1  6
 19 40  1  0
 20 41  1  0
 20 42  1  0
 20 43  1  0
 21 44  1  0
 21 45  1  0
 21 46  1  0
M  ISO  8  22  13  23  13  24  13  25  13  26  13  27  13  28  13  29  14
M  ISO  8  30  14  31  14  32  13  33  13  34  13  35  13  36  13  37  13
M  ISO  8  38  13  39  13  40   8  41   8  42   8  43   8  44   8  45   8
M  ISO  1  46   8
M  END
>  <minimizedAffinity>  (1) 
-4.57561159

>  <minimizedRMSD>  (1) 
0.301054299

$$$$
