
     RDKit          3D

 31 34  0  0  0  0  0  0  0  0999 V2000
   38.2510   25.8030   35.4180 C   0  0  0  0  0  0  0  0  0  0  0  0
   38.4230   27.0030   36.1310 C   0  0  0  0  0  0  0  0  0  0  0  0
   37.7710   27.9830   35.3990 C   0  0  0  0  0  0  0  0  0  0  0  0
   37.2530   27.3450   34.3130 C   0  0  0  0  0  0  0  0  0  0  0  0
   37.5520   26.0530   34.3470 O   0  0  0  0  0  0  0  0  0  0  0  0
   36.5080   28.0670   33.3360 N   0  0  0  0  0  0  0  0  0  0  0  0
   36.6020   28.0220   31.9740 C   0  0  0  0  0  0  0  0  0  0  0  0
   35.6990   28.8780   31.4300 N   0  0  0  0  0  0  0  0  0  0  0  0
   35.0140   29.4820   32.4180 C   0  0  0  0  0  0  0  0  0  0  0  0
   34.0030   30.4210   32.3900 C   0  0  0  0  0  0  0  0  0  0  0  0
   33.5780   30.8510   31.2650 O   0  0  0  0  0  0  0  0  0  0  0  0
   33.5120   30.8400   33.5770 N   0  0  0  0  0  0  0  0  0  0  0  0
   34.0170   30.3360   34.7260 C   0  0  0  0  0  0  0  0  0  0  0  0
   33.4380   30.8360   35.9270 N   0  0  0  0  0  0  0  0  0  0  0  0
   35.0020   29.4200   34.7440 N   0  0  0  0  0  0  0  0  0  0  0  0
   35.5350   28.9620   33.5910 C   0  0  0  0  0  0  0  0  0  0  0  0
   38.5420   24.0310   37.1860 C   0  0  0  0  0  0  0  0  0  0  0  0
   38.8160   24.5480   35.9060 C   0  0  0  0  0  0  0  0  0  0  0  0
   39.6620   23.8200   35.0840 C   0  0  0  0  0  0  0  0  0  0  0  0
   40.1810   22.6370   35.5670 N   0  0  0  0  0  0  0  0  0  0  0  0
   39.8900   22.1810   36.8010 C   0  0  0  0  0  0  0  0  0  0  0  0
   39.0680   22.8810   37.6090 N   0  0  0  0  0  0  0  0  0  0  0  0
   38.9655   27.1369   37.0785 H   0  0  0  0  0  0  0  0  0  0  0  0
   37.6891   29.0522   35.6440 H   0  0  0  0  0  0  0  0  0  0  0  0
   37.3008   27.3903   31.4060 H   0  0  0  0  0  0  0  0  0  0  0  0
   32.7568   31.5398   33.6067 H   0  0  0  0  0  0  0  0  0  0  0  0
   33.7729   30.4971   36.8402 H   0  0  0  0  0  0  0  0  0  0  0  0
   32.6843   31.5366   35.8826 H   0  0  0  0  0  0  0  0  0  0  0  0
   37.8746   24.5918   37.8569 H   0  0  0  0  0  0  0  0  0  0  0  0
   39.9126   24.1761   34.0739 H   0  0  0  0  0  0  0  0  0  0  0  0
   40.3250   21.2332   37.1510 H   0  0  0  0  0  0  0  0  0  0  0  0
  1 18  1  0
  1  2  2  0
  3  2  1  0
  4  5  1  0
  4  3  2  0
  5  1  1  0
  6 16  1  0
  6  4  1  0
  7  6  1  0
  8  7  2  0
  8  9  1  0
  9 16  2  0
 10  9  1  0
 10 12  1  0
 11 10  2  0
 12 13  1  0
 13 15  2  0
 13 14  1  0
 16 15  1  0
 17 22  2  0
 18 17  1  0
 19 20  1  0
 19 18  2  0
 20 21  2  0
 21 22  1  0
  2 23  1  0
  3 24  1  0
  7 25  1  0
 12 26  1  0
 14 27  1  0
 14 28  1  0
 17 29  1  0
 19 30  1  0
 21 31  1  0
M  ISO  7  23  14  24  14  25  14  26   9  29  14  30  14  31  14
M  END
>  <minimizedAffinity>  (1) 
-5.28308392

>  <minimizedRMSD>  (1) 
2.21202207

$$$$
