
     RDKit          3D

 31 34  0  0  0  0  0  0  0  0999 V2000
   38.3960   25.8310   35.5340 C   0  0  0  0  0  0  0  0  0  0  0  0
   38.3750   27.0360   36.2080 C   0  0  0  0  0  0  0  0  0  0  0  0
   37.7640   27.9540   35.3660 C   0  0  0  0  0  0  0  0  0  0  0  0
   37.4430   27.2730   34.2250 C   0  0  0  0  0  0  0  0  0  0  0  0
   37.8360   26.0600   34.3940 O   0  0  0  0  0  0  0  0  0  0  0  0
   36.7770   27.9990   33.1470 C   0  0  0  0  0  0  0  0  0  0  0  0
   35.5940   28.6070   33.2860 N   0  0  0  0  0  0  0  0  0  0  0  0
   34.9420   29.2850   32.3350 C   0  0  0  0  0  0  0  0  0  0  0  0
   35.4880   29.3980   31.0930 N   0  0  0  0  0  0  0  0  0  0  0  0
   36.6780   28.8210   30.8500 C   0  0  0  0  0  0  0  0  0  0  0  0
   37.2160   28.9410   29.6010 C   0  0  0  0  0  0  0  0  0  0  0  0
   38.4340   28.3660   29.3060 C   0  0  0  0  0  0  0  0  0  0  0  0
   39.0920   27.6640   30.3180 C   0  0  0  0  0  0  0  0  0  0  0  0
   38.4840   27.5890   31.5520 C   0  0  0  0  0  0  0  0  0  0  0  0
   37.2870   28.1380   31.8890 C   0  0  0  0  0  0  0  0  0  0  0  0
   38.4630   24.0420   37.2990 C   0  0  0  0  0  0  0  0  0  0  0  0
   38.9660   24.6190   36.1080 C   0  0  0  0  0  0  0  0  0  0  0  0
   40.0440   24.0090   35.4760 C   0  0  0  0  0  0  0  0  0  0  0  0
   40.5630   22.8680   36.0510 N   0  0  0  0  0  0  0  0  0  0  0  0
   40.0470   22.3520   37.1950 C   0  0  0  0  0  0  0  0  0  0  0  0
   39.0040   22.9360   37.8140 N   0  0  0  0  0  0  0  0  0  0  0  0
   38.7669   27.2305   37.2173 H   0  0  0  0  0  0  0  0  0  0  0  0
   37.5755   29.0174   35.5749 H   0  0  0  0  0  0  0  0  0  0  0  0
   33.9693   29.7490   32.5554 H   0  0  0  0  0  0  0  0  0  0  0  0
   36.6739   29.5004   28.8244 H   0  0  0  0  0  0  0  0  0  0  0  0
   38.8747   28.4576   28.3023 H   0  0  0  0  0  0  0  0  0  0  0  0
   40.0656   27.1857   30.1356 H   0  0  0  0  0  0  0  0  0  0  0  0
   39.0167   27.0332   32.3376 H   0  0  0  0  0  0  0  0  0  0  0  0
   37.6105   24.5140   37.8093 H   0  0  0  0  0  0  0  0  0  0  0  0
   40.4683   24.4224   34.5491 H   0  0  0  0  0  0  0  0  0  0  0  0
   40.4887   21.4405   37.6241 H   0  0  0  0  0  0  0  0  0  0  0  0
  1 17  1  0
  1  2  2  0
  3  2  1  0
  4  5  1  0
  4  3  2  0
  5  1  1  0
  6  7  2  0
  6  4  1  0
  8  7  1  0
  9  8  2  0
 10  9  1  0
 10 15  2  0
 11 10  1  0
 12 11  2  0
 12 13  1  0
 13 14  2  0
 14 15  1  0
 15  6  1  0
 16 21  2  0
 17 16  1  0
 18 19  1  0
 18 17  2  0
 19 20  2  0
 20 21  1  0
  2 22  1  0
  3 23  1  0
  8 24  1  0
 11 25  1  0
 12 26  1  0
 13 27  1  0
 14 28  1  0
 16 29  1  0
 18 30  1  0
 20 31  1  0
M  ISO  8  22  14  23  14  24  14  25  14  26  14  27  14  28  14  29  14
M  ISO  2  30  14  31  14
M  END
>  <minimizedAffinity>  (1) 
-5.4549346

>  <minimizedRMSD>  (1) 
2.35054779

$$$$
