
     RDKit          3D

 31 34  0  0  0  0  0  0  0  0999 V2000
   38.4950   25.6300   35.5970 C   0  0  0  0  0  0  0  0  0  0  0  0
   38.5230   26.8120   36.3200 C   0  0  0  0  0  0  0  0  0  0  0  0
   37.8590   27.7560   35.5420 C   0  0  0  0  0  0  0  0  0  0  0  0
   37.4750   27.1020   34.4160 C   0  0  0  0  0  0  0  0  0  0  0  0
   37.8590   25.8520   34.4670 O   0  0  0  0  0  0  0  0  0  0  0  0
   36.7390   27.6920   33.2960 C   0  0  0  0  0  0  0  0  0  0  0  0
   36.6740   27.2700   31.9780 C   0  0  0  0  0  0  0  0  0  0  0  0
   35.8750   28.1100   31.2800 N   0  0  0  0  0  0  0  0  0  0  0  0
   35.4040   29.0810   32.0940 C   0  0  0  0  0  0  0  0  0  0  0  0
   34.5630   30.1790   31.9130 C   0  0  0  0  0  0  0  0  0  0  0  0
   34.3020   30.9730   33.0180 C   0  0  0  0  0  0  0  0  0  0  0  0
   34.8180   30.7430   34.2720 C   0  0  0  0  0  0  0  0  0  0  0  0
   35.6440   29.6460   34.4100 C   0  0  0  0  0  0  0  0  0  0  0  0
   35.9340   28.8210   33.3210 C   0  0  0  0  0  0  0  0  0  0  0  0
   38.7530   23.8080   37.3190 C   0  0  0  0  0  0  0  0  0  0  0  0
   39.1050   24.3990   36.1030 C   0  0  0  0  0  0  0  0  0  0  0  0
   40.0880   23.7670   35.3530 C   0  0  0  0  0  0  0  0  0  0  0  0
   40.6640   22.6160   35.8180 N   0  0  0  0  0  0  0  0  0  0  0  0
   40.2810   22.0860   37.0100 C   0  0  0  0  0  0  0  0  0  0  0  0
   39.3170   22.6900   37.7650 N   0  0  0  0  0  0  0  0  0  0  0  0
   38.9779   26.9718   37.3087 H   0  0  0  0  0  0  0  0  0  0  0  0
   37.6820   28.8133   35.7885 H   0  0  0  0  0  0  0  0  0  0  0  0
   37.1902   26.3911   31.5644 H   0  0  0  0  0  0  0  0  0  0  0  0
   35.6579   28.0225   30.2770 H   0  0  0  0  0  0  0  0  0  0  0  0
   34.1237   30.4059   30.9304 H   0  0  0  0  0  0  0  0  0  0  0  0
   33.6407   31.8417   32.8840 H   0  0  0  0  0  0  0  0  0  0  0  0
   34.5841   31.4004   35.1223 H   0  0  0  0  0  0  0  0  0  0  0  0
   36.0809   29.4178   35.3934 H   0  0  0  0  0  0  0  0  0  0  0  0
   37.9767   24.2879   37.9330 H   0  0  0  0  0  0  0  0  0  0  0  0
   40.4028   24.1904   34.3878 H   0  0  0  0  0  0  0  0  0  0  0  0
   40.7531   21.1601   37.3702 H   0  0  0  0  0  0  0  0  0  0  0  0
  1 16  1  0
  1  2  2  0
  3  2  1  0
  4  5  1  0
  4  3  2  0
  5  1  1  0
  6 14  1  0
  6  4  1  0
  7  6  2  0
  8  7  1  0
  8  9  1  0
  9 14  2  0
 10  9  1  0
 10 11  2  0
 11 12  1  0
 12 13  2  0
 14 13  1  0
 15 20  2  0
 16 15  1  0
 17 18  1  0
 17 16  2  0
 18 19  2  0
 19 20  1  0
  2 21  1  0
  3 22  1  0
  7 23  1  0
  8 24  1  0
 10 25  1  0
 11 26  1  0
 12 27  1  0
 13 28  1  0
 15 29  1  0
 17 30  1  0
 19 31  1  0
M  ISO  8  21  14  22  14  23  14  24   9  25  14  26  14  27  14  28  14
M  ISO  3  29  14  30  14  31  14
M  END
>  <minimizedAffinity>  (1) 
-5.29734421

>  <minimizedRMSD>  (1) 
1.04826295

$$$$
