
     RDKit          3D

 27 29  0  0  0  0  0  0  0  0999 V2000
   38.6190   25.6890   35.4640 C   0  0  0  0  0  0  0  0  0  0  0  0
   38.2640   26.8300   36.1620 C   0  0  0  0  0  0  0  0  0  0  0  0
   37.7770   27.7410   35.2440 C   0  0  0  0  0  0  0  0  0  0  0  0
   37.8570   27.1180   34.0360 C   0  0  0  0  0  0  0  0  0  0  0  0
   38.3550   25.9110   34.1880 O   0  0  0  0  0  0  0  0  0  0  0  0
   38.6250   23.9520   37.2770 C   0  0  0  0  0  0  0  0  0  0  0  0
   39.1780   24.5070   36.1180 C   0  0  0  0  0  0  0  0  0  0  0  0
   40.3100   23.9100   35.5580 C   0  0  0  0  0  0  0  0  0  0  0  0
   40.8290   22.8000   36.1760 N   0  0  0  0  0  0  0  0  0  0  0  0
   40.2740   22.2910   37.2910 C   0  0  0  0  0  0  0  0  0  0  0  0
   39.1800   22.8670   37.8320 N   0  0  0  0  0  0  0  0  0  0  0  0
   37.4590   27.6700   32.7440 C   0  0  0  0  0  0  0  0  0  0  0  0
   36.3670   28.4610   32.5770 C   0  0  0  0  0  0  0  0  0  0  0  0
   35.9810   28.9910   31.3470 C   0  0  0  0  0  0  0  0  0  0  0  0
   36.7740   28.6820   30.2390 C   0  0  0  0  0  0  0  0  0  0  0  0
   37.8920   27.8810   30.3660 C   0  0  0  0  0  0  0  0  0  0  0  0
   38.2110   27.3940   31.6080 C   0  0  0  0  0  0  0  0  0  0  0  0
   38.3531   26.9835   37.2476 H   0  0  0  0  0  0  0  0  0  0  0  0
   37.4035   28.7556   35.4466 H   0  0  0  0  0  0  0  0  0  0  0  0
   37.7334   24.4073   37.7329 H   0  0  0  0  0  0  0  0  0  0  0  0
   40.7724   24.3182   34.6472 H   0  0  0  0  0  0  0  0  0  0  0  0
   40.7142   21.4008   37.7640 H   0  0  0  0  0  0  0  0  0  0  0  0
   35.7546   28.6958   33.4601 H   0  0  0  0  0  0  0  0  0  0  0  0
   35.0883   29.6267   31.2525 H   0  0  0  0  0  0  0  0  0  0  0  0
   36.5039   29.0826   29.2508 H   0  0  0  0  0  0  0  0  0  0  0  0
   38.5127   27.6390   29.4907 H   0  0  0  0  0  0  0  0  0  0  0  0
   39.1017   26.7566   31.7096 H   0  0  0  0  0  0  0  0  0  0  0  0
  1  7  1  0
  1  2  2  0
  3  2  1  0
  4  5  1  0
  4  3  2  0
  5  1  1  0
  6 11  2  0
  7  6  1  0
  8  7  2  0
  8  9  1  0
  9 10  2  0
 10 11  1  0
 12  4  1  0
 13 12  2  0
 14 13  1  0
 15 16  1  0
 15 14  2  0
 16 17  2  0
 17 12  1  0
  2 18  1  0
  3 19  1  0
  6 20  1  0
  8 21  1  0
 10 22  1  0
 13 23  1  0
 14 24  1  0
 15 25  1  0
 16 26  1  0
 17 27  1  0
M  ISO  8  18  14  19  14  20  14  21  14  22  14  23  14  24  14  25  14
M  ISO  2  26  14  27  14
M  END
>  <minimizedAffinity>  (1) 
-4.75504923

>  <minimizedRMSD>  (1) 
1.30564332

$$$$
