
     RDKit          3D

 41 45  0  0  1  0  0  0  0  0999 V2000
   38.5630   25.4240   34.4520 C   0  0  1  0  0  0  0  0  0  0  0  0
   39.5040   26.5870   34.5040 C   0  0  0  0  0  0  0  0  0  0  0  0
   38.7800   27.5880   35.3480 C   0  0  0  0  0  0  0  0  0  0  0  0
   38.1130   26.7690   36.4080 C   0  0  0  0  0  0  0  0  0  0  0  0
   37.8620   25.4390   35.7930 C   0  0  2  0  0  0  0  0  0  0  0  0
   38.4900   24.4190   36.6110 N   0  0  0  0  0  0  0  0  0  0  0  0
   38.2090   24.1050   37.8870 C   0  0  0  0  0  0  0  0  0  0  0  0
   38.9850   23.1040   38.3420 N   0  0  0  0  0  0  0  0  0  0  0  0
   39.8020   22.7520   37.3280 C   0  0  0  0  0  0  0  0  0  0  0  0
   40.7830   21.7820   37.2770 C   0  0  0  0  0  0  0  0  0  0  0  0
   41.4540   21.6540   36.0970 N   0  0  0  0  0  0  0  0  0  0  0  0
   41.1370   22.4670   35.0480 C   0  0  0  0  0  0  0  0  0  0  0  0
   40.1680   23.4290   35.0890 N   0  0  0  0  0  0  0  0  0  0  0  0
   39.4920   23.5640   36.2660 C   0  0  0  0  0  0  0  0  0  0  0  0
   37.2730   24.6260   32.4830 C   0  0  0  0  0  0  0  0  0  0  0  0
   36.3320   25.1040   31.5710 C   0  0  0  0  0  0  0  0  0  0  0  0
   36.1130   26.3970   31.9410 N   0  0  0  0  0  0  0  0  0  0  0  0
   36.8890   26.6420   33.0090 C   0  0  0  0  0  0  0  0  0  0  0  0
   37.6160   25.5700   33.3690 N   0  0  0  0  0  0  0  0  0  0  0  0
   37.8320   23.2760   32.5000 C   0  0  0  0  0  0  0  0  0  0  0  0
   37.2040   22.2700   33.2460 C   0  0  0  0  0  0  0  0  0  0  0  0
   37.7940   20.9950   33.2190 C   0  0  0  0  0  0  0  0  0  0  0  0
   38.9070   20.8000   32.4970 N   0  0  0  0  0  0  0  0  0  0  0  0
   39.4820   21.7890   31.7950 C   0  0  0  0  0  0  0  0  0  0  0  0
   38.9650   23.0450   31.7760 N   0  0  0  0  0  0  0  0  0  0  0  0
   39.0866   24.4743   34.2680 H   0  0  0  0  0  0  0  0  0  0  0  0
   40.4588   26.2992   34.9682 H   0  0  0  0  0  0  0  0  0  0  0  0
   39.7603   26.9743   33.5069 H   0  0  0  0  0  0  0  0  0  0  0  0
   39.4860   28.3031   35.7954 H   0  0  0  0  0  0  0  0  0  0  0  0
   38.0624   28.1856   34.7666 H   0  0  0  0  0  0  0  0  0  0  0  0
   38.7700   26.6681   37.2844 H   0  0  0  0  0  0  0  0  0  0  0  0
   37.1802   27.2375   36.7551 H   0  0  0  0  0  0  0  0  0  0  0  0
   36.7815   25.2549   35.7002 H   0  0  0  0  0  0  0  0  0  0  0  0
   37.4364   24.6066   38.4883 H   0  0  0  0  0  0  0  0  0  0  0  0
   41.0116   21.1449   38.1441 H   0  0  0  0  0  0  0  0  0  0  0  0
   41.6972   22.3397   34.1099 H   0  0  0  0  0  0  0  0  0  0  0  0
   35.8686   24.5573   30.7365 H   0  0  0  0  0  0  0  0  0  0  0  0
   36.9257   27.6100   33.5302 H   0  0  0  0  0  0  0  0  0  0  0  0
   36.2909   22.4691   33.8262 H   0  0  0  0  0  0  0  0  0  0  0  0
   37.3469   20.1644   33.7850 H   0  0  0  0  0  0  0  0  0  0  0  0
   40.3956   21.5769   31.2202 H   0  0  0  0  0  0  0  0  0  0  0  0
  1  2  1  0
  1  5  1  0
  2  3  1  0
  3  4  1  0
  5  4  1  0
  5  6  1  0
  6  7  1  0
  7  8  2  0
  9  8  1  0
 10  9  2  0
 11 10  1  0
 12 13  1  0
 12 11  2  0
 13 14  2  0
 14  6  1  0
 14  9  1  0
 15 20  1  0
 15 19  1  0
 16 17  1  0
 16 15  2  0
 17 18  2  0
 18 19  1  0
 19  1  1  0
 20 21  2  0
 22 21  1  0
 23 22  2  0
 24 23  1  0
 25 24  2  0
 25 20  1  0
  1 26  1  6
  2 27  1  0
  2 28  1  0
  3 29  1  0
  3 30  1  0
  4 31  1  0
  4 32  1  0
  5 33  1  6
  7 34  1  0
 10 35  1  0
 12 36  1  0
 16 37  1  0
 18 38  1  0
 21 39  1  0
 22 40  1  0
 24 41  1  0
M  ISO  8  26  13  27  13  28  13  29  13  30  13  31  13  32  13  33  13
M  ISO  8  34  14  35  14  36  14  37  14  38  14  39  14  40  14  41  14
M  END
>  <minimizedAffinity>  (1) 
-5.5299778

>  <minimizedRMSD>  (1) 
4.12468815

$$$$
