
     RDKit          3D

 24 26  0  0  0  0  0  0  0  0999 V2000
   38.3310   25.6610   35.6200 C   0  0  0  0  0  0  0  0  0  0  0  0
   38.2380   26.9470   36.1550 C   0  0  0  0  0  0  0  0  0  0  0  0
   37.6610   27.7400   35.1730 C   0  0  0  0  0  0  0  0  0  0  0  0
   37.4370   26.9170   34.1170 C   0  0  0  0  0  0  0  0  0  0  0  0
   37.8380   25.6980   34.4000 O   0  0  0  0  0  0  0  0  0  0  0  0
   38.4140   24.1370   37.6210 C   0  0  0  0  0  0  0  0  0  0  0  0
   38.8960   24.5480   36.3780 C   0  0  0  0  0  0  0  0  0  0  0  0
   39.9830   23.8510   35.8260 C   0  0  0  0  0  0  0  0  0  0  0  0
   40.5140   22.8030   36.5390 N   0  0  0  0  0  0  0  0  0  0  0  0
   40.0130   22.4470   37.7360 C   0  0  0  0  0  0  0  0  0  0  0  0
   38.9620   23.1100   38.2820 N   0  0  0  0  0  0  0  0  0  0  0  0
   36.8830   27.0840   32.8160 N   0  0  0  0  0  0  0  0  0  0  0  0
   36.3070   26.2070   31.9820 N   0  0  0  0  0  0  0  0  0  0  0  0
   35.9340   26.8420   30.8500 C   0  0  0  0  0  0  0  0  0  0  0  0
   36.2860   28.1800   30.9660 C   0  0  0  0  0  0  0  0  0  0  0  0
   36.8830   28.3070   32.2140 C   0  0  0  0  0  0  0  0  0  0  0  0
   38.5587   27.2683   37.1569 H   0  0  0  0  0  0  0  0  0  0  0  0
   37.4323   28.8141   35.2372 H   0  0  0  0  0  0  0  0  0  0  0  0
   37.5625   24.6701   38.0690 H   0  0  0  0  0  0  0  0  0  0  0  0
   40.3986   24.1365   34.8484 H   0  0  0  0  0  0  0  0  0  0  0  0
   40.4629   21.6043   38.2814 H   0  0  0  0  0  0  0  0  0  0  0  0
   35.4369   26.3789   29.9849 H   0  0  0  0  0  0  0  0  0  0  0  0
   36.1254   28.9753   30.2232 H   0  0  0  0  0  0  0  0  0  0  0  0
   37.2868   29.2359   32.6431 H   0  0  0  0  0  0  0  0  0  0  0  0
  1  2  2  0
  1  7  1  0
  3  2  1  0
  4  5  1  0
  4  3  2  0
  5  1  1  0
  6 11  2  0
  7  6  1  0
  8  7  2  0
  8  9  1  0
  9 10  2  0
 10 11  1  0
 12  4  1  0
 13 12  1  0
 14 15  1  0
 14 13  2  0
 15 16  2  0
 16 12  1  0
  2 17  1  0
  3 18  1  0
  6 19  1  0
  8 20  1  0
 10 21  1  0
 14 22  1  0
 15 23  1  0
 16 24  1  0
M  ISO  8  17  14  18  14  19  14  20  14  21  14  22  14  23  14  24  14
M  END
>  <minimizedAffinity>  (1) 
-4.45253086

>  <minimizedRMSD>  (1) 
0.545961082

$$$$
