
     RDKit          3D

 29 31  0  0  0  0  0  0  0  0999 V2000
   38.3390   25.7100   35.6020 C   0  0  0  0  0  0  0  0  0  0  0  0
   38.3260   26.9930   36.1670 C   0  0  0  0  0  0  0  0  0  0  0  0
   37.6960   27.8260   35.2610 C   0  0  0  0  0  0  0  0  0  0  0  0
   37.3560   27.0210   34.1950 C   0  0  0  0  0  0  0  0  0  0  0  0
   37.7520   25.8020   34.4430 O   0  0  0  0  0  0  0  0  0  0  0  0
   38.4480   24.0910   37.5240 C   0  0  0  0  0  0  0  0  0  0  0  0
   38.9340   24.5640   36.2920 C   0  0  0  0  0  0  0  0  0  0  0  0
   40.0170   23.9240   35.7060 C   0  0  0  0  0  0  0  0  0  0  0  0
   40.5620   22.8470   36.3710 N   0  0  0  0  0  0  0  0  0  0  0  0
   40.0740   22.4150   37.5540 C   0  0  0  0  0  0  0  0  0  0  0  0
   39.0180   23.0420   38.1230 N   0  0  0  0  0  0  0  0  0  0  0  0
   36.6840   27.4560   33.0200 N   0  0  0  0  0  0  0  0  0  0  0  0
   36.1630   28.7870   32.7720 C   0  0  0  0  0  0  0  0  0  0  0  0
   35.9060   28.8820   31.3060 C   0  0  0  0  0  0  0  0  0  0  0  0
   36.3860   27.6180   30.6780 C   0  0  0  0  0  0  0  0  0  0  0  0
   36.3880   26.6570   31.8440 C   0  0  0  0  0  0  0  0  0  0  0  0
   38.7385   27.2819   37.1449 H   0  0  0  0  0  0  0  0  0  0  0  0
   37.5061   28.9042   35.3683 H   0  0  0  0  0  0  0  0  0  0  0  0
   37.5902   24.5897   37.9989 H   0  0  0  0  0  0  0  0  0  0  0  0
   40.4264   24.2647   34.7436 H   0  0  0  0  0  0  0  0  0  0  0  0
   40.5357   21.5519   38.0560 H   0  0  0  0  0  0  0  0  0  0  0  0
   35.2278   28.9380   33.3311 H   0  0  0  0  0  0  0  0  0  0  0  0
   36.8766   29.5578   33.0987 H   0  0  0  0  0  0  0  0  0  0  0  0
   34.8286   29.0060   31.1219 H   0  0  0  0  0  0  0  0  0  0  0  0
   36.4321   29.7482   30.8783 H   0  0  0  0  0  0  0  0  0  0  0  0
   35.7005   27.2817   29.8862 H   0  0  0  0  0  0  0  0  0  0  0  0
   37.3655   27.7155   30.1870 H   0  0  0  0  0  0  0  0  0  0  0  0
   35.4034   26.1772   31.9457 H   0  0  0  0  0  0  0  0  0  0  0  0
   37.1282   25.8554   31.7045 H   0  0  0  0  0  0  0  0  0  0  0  0
  1  2  2  0
  1  7  1  0
  3  2  1  0
  4  5  1  0
  4  3  2  0
  5  1  1  0
  6 11  2  0
  7  6  1  0
  8  7  2  0
  8  9  1  0
  9 10  2  0
 10 11  1  0
 12  4  1  0
 13 12  1  0
 14 13  1  0
 15 14  1  0
 15 16  1  0
 16 12  1  0
  2 17  1  0
  3 18  1  0
  6 19  1  0
  8 20  1  0
 10 21  1  0
 13 22  1  0
 13 23  1  0
 14 24  1  0
 14 25  1  0
 15 26  1  0
 15 27  1  0
 16 28  1  0
 16 29  1  0
M  ISO  8  17  14  18  14  19  14  20  14  21  14  22  13  23  13  24  13
M  ISO  5  25  13  26  13  27  13  28  13  29  13
M  END
>  <minimizedAffinity>  (1) 
-4.49352741

>  <minimizedRMSD>  (1) 
0.650254071

$$$$
