
     RDKit          3D

 26 27  0  0  0  0  0  0  0  0999 V2000
   38.0780   25.7300   35.4820 C   0  0  0  0  0  0  0  0  0  0  0  0
   38.0520   27.0630   35.9190 C   0  0  0  0  0  0  0  0  0  0  0  0
   37.4540   27.7920   34.8910 C   0  0  0  0  0  0  0  0  0  0  0  0
   37.1580   26.8780   33.9070 C   0  0  0  0  0  0  0  0  0  0  0  0
   37.5370   25.6700   34.2820 O   0  0  0  0  0  0  0  0  0  0  0  0
   38.1340   24.3360   37.5760 C   0  0  0  0  0  0  0  0  0  0  0  0
   38.6470   24.6690   36.3230 C   0  0  0  0  0  0  0  0  0  0  0  0
   39.7550   23.9650   35.8370 C   0  0  0  0  0  0  0  0  0  0  0  0
   40.2880   22.9680   36.6300 N   0  0  0  0  0  0  0  0  0  0  0  0
   39.7560   22.6750   37.8490 C   0  0  0  0  0  0  0  0  0  0  0  0
   38.6750   23.3680   38.3130 N   0  0  0  0  0  0  0  0  0  0  0  0
   36.5010   27.1840   32.5940 C   0  0  0  0  0  0  0  0  0  0  0  0
   36.3270   25.9280   31.7700 C   0  0  0  0  0  0  0  0  0  0  0  0
   37.3050   28.2030   31.8140 C   0  0  0  0  0  0  0  0  0  0  0  0
   38.4267   27.4535   36.8767 H   0  0  0  0  0  0  0  0  0  0  0  0
   37.2594   28.8745   34.8715 H   0  0  0  0  0  0  0  0  0  0  0  0
   37.2634   24.8850   37.9641 H   0  0  0  0  0  0  0  0  0  0  0  0
   40.1880   24.1989   34.8532 H   0  0  0  0  0  0  0  0  0  0  0  0
   40.1991   21.8766   38.4624 H   0  0  0  0  0  0  0  0  0  0  0  0
   35.5076   27.6048   32.8086 H   0  0  0  0  0  0  0  0  0  0  0  0
   36.2073   25.0637   32.4398 H   0  0  0  0  0  0  0  0  0  0  0  0
   35.4339   26.0266   31.1354 H   0  0  0  0  0  0  0  0  0  0  0  0
   37.2132   25.7801   31.1354 H   0  0  0  0  0  0  0  0  0  0  0  0
   37.8306   28.8691   32.5141 H   0  0  0  0  0  0  0  0  0  0  0  0
   38.0393   27.6837   31.1807 H   0  0  0  0  0  0  0  0  0  0  0  0
   36.6291   28.7964   31.1807 H   0  0  0  0  0  0  0  0  0  0  0  0
  1  2  2  0
  1  7  1  0
  3  2  1  0
  4  5  1  0
  4  3  2  0
  5  1  1  0
  6 11  2  0
  7  6  1  0
  8  7  2  0
  8  9  1  0
  9 10  2  0
 10 11  1  0
 12  4  1  0
 13 12  1  0
 14 12  1  0
  2 15  1  0
  3 16  1  0
  6 17  1  0
  8 18  1  0
 10 19  1  0
 12 20  1  0
 13 21  1  0
 13 22  1  0
 13 23  1  0
 14 24  1  0
 14 25  1  0
 14 26  1  0
M  ISO  8  15  14  16  14  17  14  18  14  19  14  20   8  21   8  22   8
M  ISO  4  23   8  24   8  25   8  26   8
M  END
>  <minimizedAffinity>  (1) 
-4.1965661

>  <minimizedRMSD>  (1) 
0.746206522

$$$$
