
     RDKit          3D

 24 26  0  0  0  0  0  0  0  0999 V2000
   38.4280   25.7060   35.5130 C   0  0  0  0  0  0  0  0  0  0  0  0
   38.2260   26.9380   36.1230 C   0  0  0  0  0  0  0  0  0  0  0  0
   37.6620   27.7750   35.1670 C   0  0  0  0  0  0  0  0  0  0  0  0
   37.5530   27.0220   34.0420 C   0  0  0  0  0  0  0  0  0  0  0  0
   38.0090   25.8170   34.2720 O   0  0  0  0  0  0  0  0  0  0  0  0
   38.4860   24.1020   37.4390 C   0  0  0  0  0  0  0  0  0  0  0  0
   39.0070   24.5730   36.2130 C   0  0  0  0  0  0  0  0  0  0  0  0
   40.1060   23.9140   35.6850 C   0  0  0  0  0  0  0  0  0  0  0  0
   40.6330   22.8480   36.3650 N   0  0  0  0  0  0  0  0  0  0  0  0
   40.0950   22.4310   37.5440 C   0  0  0  0  0  0  0  0  0  0  0  0
   39.0200   23.0590   38.0810 N   0  0  0  0  0  0  0  0  0  0  0  0
   37.0620   27.2920   32.7330 N   0  0  0  0  0  0  0  0  0  0  0  0
   37.0280   28.3310   31.8810 C   0  0  0  0  0  0  0  0  0  0  0  0
   36.3850   27.9530   30.7160 C   0  0  0  0  0  0  0  0  0  0  0  0
   36.0140   26.6480   30.8540 N   0  0  0  0  0  0  0  0  0  0  0  0
   36.4360   26.2640   32.0920 C   0  0  0  0  0  0  0  0  0  0  0  0
   38.4665   27.2009   37.1637 H   0  0  0  0  0  0  0  0  0  0  0  0
   37.3661   28.8267   35.2949 H   0  0  0  0  0  0  0  0  0  0  0  0
   37.6144   24.6093   37.8782 H   0  0  0  0  0  0  0  0  0  0  0  0
   40.5489   24.2424   34.7332 H   0  0  0  0  0  0  0  0  0  0  0  0
   40.5389   21.5721   38.0686 H   0  0  0  0  0  0  0  0  0  0  0  0
   37.4470   29.3285   32.0796 H   0  0  0  0  0  0  0  0  0  0  0  0
   36.2054   28.5898   29.8373 H   0  0  0  0  0  0  0  0  0  0  0  0
   36.2910   25.2598   32.5169 H   0  0  0  0  0  0  0  0  0  0  0  0
  1  2  2  0
  1  7  1  0
  3  2  1  0
  4  5  1  0
  4  3  2  0
  5  1  1  0
  6 11  2  0
  7  6  1  0
  8  7  2  0
  8  9  1  0
  9 10  2  0
 10 11  1  0
 12  4  1  0
 13 12  1  0
 14 15  1  0
 14 13  2  0
 15 16  2  0
 16 12  1  0
  2 17  1  0
  3 18  1  0
  6 19  1  0
  8 20  1  0
 10 21  1  0
 13 22  1  0
 14 23  1  0
 16 24  1  0
M  ISO  8  17  14  18  14  19  14  20  14  21  14  22  14  23  14  24  14
M  END
>  <minimizedAffinity>  (1) 
-4.38723087

>  <minimizedRMSD>  (1) 
0.767585099

$$$$
