
     RDKit          3D

 20 21  0  0  0  0  0  0  0  0999 V2000
   38.0770   25.7450   35.4890 C   0  0  0  0  0  0  0  0  0  0  0  0
   38.0440   27.0660   35.9050 C   0  0  0  0  0  0  0  0  0  0  0  0
   37.4490   27.7960   34.8850 C   0  0  0  0  0  0  0  0  0  0  0  0
   37.1560   26.8930   33.9140 C   0  0  0  0  0  0  0  0  0  0  0  0
   37.5330   25.6960   34.2900 O   0  0  0  0  0  0  0  0  0  0  0  0
   38.1230   24.3450   37.5750 C   0  0  0  0  0  0  0  0  0  0  0  0
   38.6380   24.6880   36.3150 C   0  0  0  0  0  0  0  0  0  0  0  0
   39.7430   23.9780   35.8360 C   0  0  0  0  0  0  0  0  0  0  0  0
   40.2700   22.9790   36.6210 N   0  0  0  0  0  0  0  0  0  0  0  0
   39.7480   22.6780   37.8270 C   0  0  0  0  0  0  0  0  0  0  0  0
   38.6790   23.3590   38.3000 N   0  0  0  0  0  0  0  0  0  0  0  0
   36.5140   27.2440   32.6510 C   0  0  0  0  0  0  0  0  0  0  0  0
   36.4740   28.4380   32.2760 O   0  0  0  0  0  0  0  0  0  0  0  0
   35.9190   26.3290   31.7930 O   0  0  0  0  0  0  0  0  0  0  0  0
   38.4179   27.4611   36.8611 H   0  0  0  0  0  0  0  0  0  0  0  0
   37.2555   28.8787   34.8671 H   0  0  0  0  0  0  0  0  0  0  0  0
   37.2543   24.8894   37.9737 H   0  0  0  0  0  0  0  0  0  0  0  0
   40.1806   24.2127   34.8545 H   0  0  0  0  0  0  0  0  0  0  0  0
   40.1941   21.8736   38.4302 H   0  0  0  0  0  0  0  0  0  0  0  0
   35.5014   26.6393   30.9507 H   0  0  0  0  0  0  0  0  0  0  0  0
  1  2  2  0
  1  7  1  0
  3  2  1  0
  4  5  1  0
  4  3  2  0
  5  1  1  0
  6 11  2  0
  7  6  1  0
  8  7  2  0
  8  9  1  0
  9 10  2  0
 10 11  1  0
 12  4  1  0
 13 12  2  0
 14 12  1  0
  2 15  1  0
  3 16  1  0
  6 17  1  0
  8 18  1  0
 10 19  1  0
 14 20  1  0
M  ISO  6  15  14  16  14  17  14  18  14  19  14  20   3
M  END
>  <minimizedAffinity>  (1) 
-4.0682025

>  <minimizedRMSD>  (1) 
0.144826993

$$$$
