
     RDKit          3D

 23 25  0  0  0  0  0  0  0  0999 V2000
   38.5190   25.7360   35.4990 C   0  0  0  0  0  0  0  0  0  0  0  0
   38.3100   26.9120   36.1930 C   0  0  0  0  0  0  0  0  0  0  0  0
   37.7550   27.8170   35.3140 C   0  0  0  0  0  0  0  0  0  0  0  0
   37.6470   27.1480   34.1110 C   0  0  0  0  0  0  0  0  0  0  0  0
   38.1080   25.9380   34.2750 O   0  0  0  0  0  0  0  0  0  0  0  0
   38.5860   23.9780   37.2990 C   0  0  0  0  0  0  0  0  0  0  0  0
   39.0970   24.5490   36.1110 C   0  0  0  0  0  0  0  0  0  0  0  0
   40.1930   23.9370   35.5220 C   0  0  0  0  0  0  0  0  0  0  0  0
   40.7400   22.8190   36.0940 N   0  0  0  0  0  0  0  0  0  0  0  0
   40.2120   22.3050   37.2400 C   0  0  0  0  0  0  0  0  0  0  0  0
   39.1350   22.8870   37.8400 N   0  0  0  0  0  0  0  0  0  0  0  0
   37.1080   27.6840   32.8360 C   0  0  0  0  0  0  0  0  0  0  0  0
   37.8490   27.5360   31.6660 C   0  0  0  0  0  0  0  0  0  0  0  0
   36.7780   28.3450   30.3990 S   0  0  0  0  0  0  0  0  0  0  0  0
   35.4810   28.7490   31.7310 C   0  0  0  0  0  0  0  0  0  0  0  0
   35.9390   28.3210   32.6790 N   0  0  0  0  0  0  0  0  0  0  0  0
   38.5436   27.0929   37.2526 H   0  0  0  0  0  0  0  0  0  0  0  0
   37.4598   28.8551   35.5265 H   0  0  0  0  0  0  0  0  0  0  0  0
   37.7173   24.4423   37.7886 H   0  0  0  0  0  0  0  0  0  0  0  0
   40.6225   24.3487   34.5968 H   0  0  0  0  0  0  0  0  0  0  0  0
   40.6616   21.4066   37.6880 H   0  0  0  0  0  0  0  0  0  0  0  0
   38.8294   27.0560   31.5306 H   0  0  0  0  0  0  0  0  0  0  0  0
   34.5199   29.2708   31.6123 H   0  0  0  0  0  0  0  0  0  0  0  0
  1  7  1  0
  1  2  2  0
  3  2  1  0
  4  5  1  0
  4  3  2  0
  5  1  1  0
  6 11  2  0
  7  6  1  0
  8  9  1  0
  8  7  2  0
  9 10  2  0
 10 11  1  0
 12  4  1  0
 13 12  2  0
 14 13  1  0
 14 15  1  0
 15 16  2  0
 16 12  1  0
  2 17  1  0
  3 18  1  0
  6 19  1  0
  8 20  1  0
 10 21  1  0
 13 22  1  0
 15 23  1  0
M  ISO  7  17  14  18  14  19  14  20  14  21  14  22  14  23  14
M  END
>  <minimizedAffinity>  (1) 
-4.26287413

>  <minimizedRMSD>  (1) 
0.915600538

$$$$
