
     RDKit          3D

 23 24  0  0  0  0  0  0  0  0999 V2000
   38.0680   25.7070   35.4560 C   0  0  0  0  0  0  0  0  0  0  0  0
   38.0210   27.0440   35.8620 C   0  0  0  0  0  0  0  0  0  0  0  0
   37.4260   27.7460   34.8280 C   0  0  0  0  0  0  0  0  0  0  0  0
   37.1430   26.8130   33.8540 C   0  0  0  0  0  0  0  0  0  0  0  0
   37.5360   25.6390   34.2660 O   0  0  0  0  0  0  0  0  0  0  0  0
   38.1280   24.3450   37.5670 C   0  0  0  0  0  0  0  0  0  0  0  0
   38.6380   24.6680   36.3090 C   0  0  0  0  0  0  0  0  0  0  0  0
   39.7550   23.9580   35.8450 C   0  0  0  0  0  0  0  0  0  0  0  0
   40.2800   22.9850   36.6600 N   0  0  0  0  0  0  0  0  0  0  0  0
   39.7510   22.7070   37.8690 C   0  0  0  0  0  0  0  0  0  0  0  0
   38.6670   23.3920   38.3270 N   0  0  0  0  0  0  0  0  0  0  0  0
   36.4950   27.1190   32.5520 C   0  0  0  0  0  0  0  0  0  0  0  0
   36.7370   28.5620   32.1480 C   0  0  0  0  0  0  0  0  0  0  0  0
   38.3849   27.4565   36.8146 H   0  0  0  0  0  0  0  0  0  0  0  0
   37.2212   28.8261   34.7913 H   0  0  0  0  0  0  0  0  0  0  0  0
   37.2528   24.8947   37.9436 H   0  0  0  0  0  0  0  0  0  0  0  0
   40.1962   24.1733   34.8606 H   0  0  0  0  0  0  0  0  0  0  0  0
   40.1998   21.9189   38.4914 H   0  0  0  0  0  0  0  0  0  0  0  0
   36.9097   26.4550   31.7793 H   0  0  0  0  0  0  0  0  0  0  0  0
   35.4112   26.9617   32.6552 H   0  0  0  0  0  0  0  0  0  0  0  0
   36.8411   29.1828   33.0501 H   0  0  0  0  0  0  0  0  0  0  0  0
   37.6584   28.6259   31.5506 H   0  0  0  0  0  0  0  0  0  0  0  0
   35.8869   28.9230   31.5506 H   0  0  0  0  0  0  0  0  0  0  0  0
  1  2  2  0
  1  7  1  0
  3  2  1  0
  4  5  1  0
  4  3  2  0
  5  1  1  0
  6 11  2  0
  7  6  1  0
  8  7  2  0
  8  9  1  0
  9 10  2  0
 10 11  1  0
 12  4  1  0
 13 12  1  0
  2 14  1  0
  3 15  1  0
  6 16  1  0
  8 17  1  0
 10 18  1  0
 12 19  1  0
 12 20  1  0
 13 21  1  0
 13 22  1  0
 13 23  1  0
M  ISO  8  14  14  15  14  16  14  17  14  18  14  19   8  20   8  21   8
M  ISO  2  22   8  23   8
M  END
>  <minimizedAffinity>  (1) 
-3.96366811

>  <minimizedRMSD>  (1) 
0.128886566

$$$$
