
     RDKit          3D

 43 47  0  0  1  0  0  0  0  0999 V2000
   39.1600   23.9730   35.4130 C   0  0  1  0  0  0  0  0  0  0  0  0
   38.3690   24.5280   36.5600 C   0  0  0  0  0  0  0  0  0  0  0  0
   38.3800   23.3890   37.5460 C   0  0  0  0  0  0  0  0  0  0  0  0
   39.7890   22.8620   37.4490 C   0  0  0  0  0  0  0  0  0  0  0  0
   40.2250   23.1170   36.0550 C   0  0  2  0  0  0  0  0  0  0  0  0
   41.5400   23.6890   35.9360 N   0  0  0  0  0  0  0  0  0  0  0  0
   42.6890   23.2280   36.5150 C   0  0  0  0  0  0  0  0  0  0  0  0
   43.7380   23.9990   36.1960 N   0  0  0  0  0  0  0  0  0  0  0  0
   43.2910   24.9720   35.4080 C   0  0  0  0  0  0  0  0  0  0  0  0
   44.0160   26.0050   34.8300 C   0  0  0  0  0  0  0  0  0  0  0  0
   43.2970   26.8660   34.0620 N   0  0  0  0  0  0  0  0  0  0  0  0
   41.9540   26.6770   33.9020 C   0  0  0  0  0  0  0  0  0  0  0  0
   41.2850   25.6500   34.4870 N   0  0  0  0  0  0  0  0  0  0  0  0
   41.9360   24.7790   35.2470 C   0  0  0  0  0  0  0  0  0  0  0  0
   45.4160   26.1440   35.0380 N   0  0  0  0  0  0  0  0  0  0  0  0
   37.7640   23.7130   33.3850 C   0  0  0  0  0  0  0  0  0  0  0  0
   37.0310   22.7170   32.7330 C   0  0  0  0  0  0  0  0  0  0  0  0
   37.1880   21.6060   33.5080 N   0  0  0  0  0  0  0  0  0  0  0  0
   37.9690   21.9650   34.5390 C   0  0  0  0  0  0  0  0  0  0  0  0
   38.3390   23.2480   34.4930 N   0  0  0  0  0  0  0  0  0  0  0  0
   37.9050   25.1030   32.9350 C   0  0  0  0  0  0  0  0  0  0  0  0
   38.8410   25.4220   31.9420 C   0  0  0  0  0  0  0  0  0  0  0  0
   38.8980   26.7910   31.5790 C   0  0  0  0  0  0  0  0  0  0  0  0
   38.0860   27.6820   32.1800 N   0  0  0  0  0  0  0  0  0  0  0  0
   37.2120   27.3210   33.1230 C   0  0  0  0  0  0  0  0  0  0  0  0
   37.1010   26.0330   33.5190 N   0  0  0  0  0  0  0  0  0  0  0  0
   39.6066   24.7668   34.7962 H   0  0  0  0  0  0  0  0  0  0  0  0
   38.8525   25.4222   36.9804 H   0  0  0  0  0  0  0  0  0  0  0  0
   37.3569   24.8534   36.2776 H   0  0  0  0  0  0  0  0  0  0  0  0
   38.1617   23.7460   38.5633 H   0  0  0  0  0  0  0  0  0  0  0  0
   37.6183   22.6251   37.3307 H   0  0  0  0  0  0  0  0  0  0  0  0
   40.4443   23.3902   38.1572 H   0  0  0  0  0  0  0  0  0  0  0  0
   39.8370   21.7914   37.6970 H   0  0  0  0  0  0  0  0  0  0  0  0
   40.3289   22.1556   35.5307 H   0  0  0  0  0  0  0  0  0  0  0  0
   42.7456   22.3386   37.1598 H   0  0  0  0  0  0  0  0  0  0  0  0
   41.3919   27.3844   33.2746 H   0  0  0  0  0  0  0  0  0  0  0  0
   45.9277   26.9209   34.5959 H   0  0  0  0  0  0  0  0  0  0  0  0
   45.9182   25.4677   35.6307 H   0  0  0  0  0  0  0  0  0  0  0  0
   36.4547   22.8092   31.8006 H   0  0  0  0  0  0  0  0  0  0  0  0
   38.2730   21.2742   35.3392 H   0  0  0  0  0  0  0  0  0  0  0  0
   39.4866   24.6627   31.4766 H   0  0  0  0  0  0  0  0  0  0  0  0
   39.6056   27.1259   30.8062 H   0  0  0  0  0  0  0  0  0  0  0  0
   36.5707   28.0855   33.5860 H   0  0  0  0  0  0  0  0  0  0  0  0
  1  5  1  0
  1  2  1  0
  2  3  1  0
  4  3  1  0
  5  4  1  0
  6  5  1  0
  6  7  1  0
  8  7  2  0
  9  8  1  0
 10 15  1  0
 10  9  2  0
 11 10  1  0
 12 11  2  0
 12 13  1  0
 13 14  2  0
 14  9  1  0
 14  6  1  0
 16 20  1  0
 17 16  2  0
 17 18  1  0
 18 19  2  0
 20 19  1  0
 20  1  1  0
 21 16  1  0
 21 26  1  0
 22 21  2  0
 23 22  1  0
 23 24  2  0
 24 25  1  0
 25 26  2  0
  1 27  1  6
  2 28  1  0
  2 29  1  0
  3 30  1  0
  3 31  1  0
  4 32  1  0
  4 33  1  0
  5 34  1  6
  7 35  1  0
 12 36  1  0
 15 37  1  0
 15 38  1  0
 17 39  1  0
 19 40  1  0
 22 41  1  0
 23 42  1  0
 25 43  1  0
M  ISO  8  27  13  28  13  29  13  30  13  31  13  32  13  33  13  34  13
M  ISO  7  35  14  36  14  39  14  40  14  41  14  42  14  43  14
M  END
>  <minimizedAffinity>  (1) 
-5.43285704

>  <minimizedRMSD>  (1) 
1.14579368

$$$$
