
     RDKit          3D

 18 19  0  0  0  0  0  0  0  0999 V2000
   38.1280   24.3450   37.5620 C   0  0  0  0  0  0  0  0  0  0  0  0
   38.6520   24.6690   36.3030 C   0  0  0  0  0  0  0  0  0  0  0  0
   39.7520   23.9660   35.8350 C   0  0  0  0  0  0  0  0  0  0  0  0
   40.2700   22.9820   36.6430 N   0  0  0  0  0  0  0  0  0  0  0  0
   39.7430   22.6960   37.8460 C   0  0  0  0  0  0  0  0  0  0  0  0
   38.6580   23.3860   38.3120 N   0  0  0  0  0  0  0  0  0  0  0  0
   38.0780   25.7260   35.4620 C   0  0  0  0  0  0  0  0  0  0  0  0
   38.0070   27.0470   35.8670 C   0  0  0  0  0  0  0  0  0  0  0  0
   37.4140   27.7590   34.8340 C   0  0  0  0  0  0  0  0  0  0  0  0
   37.1570   26.8420   33.8640 C   0  0  0  0  0  0  0  0  0  0  0  0
   37.5540   25.6530   34.2510 O   0  0  0  0  0  0  0  0  0  0  0  0
   36.3900   27.1250   32.2570 S   0  0  0  0  0  0  0  0  0  0  0  0
   37.2555   24.8993   37.9383 H   0  0  0  0  0  0  0  0  0  0  0  0
   40.1941   24.1879   34.8525 H   0  0  0  0  0  0  0  0  0  0  0  0
   40.1882   21.9001   38.4610 H   0  0  0  0  0  0  0  0  0  0  0  0
   38.3551   27.4559   36.8270 H   0  0  0  0  0  0  0  0  0  0  0  0
   37.1977   28.8372   34.8060 H   0  0  0  0  0  0  0  0  0  0  0  0
   35.1157   27.5952   32.4357 H   0  0  0  0  0  0  0  0  0  0  0  0
  1  6  2  0
  2  1  1  0
  3  2  2  0
  3  4  1  0
  4  5  2  0
  5  6  1  0
  7  8  2  0
  7  2  1  0
  9  8  1  0
 10 11  1  0
 10  9  2  0
 11  7  1  0
 12 10  1  0
  1 13  1  0
  3 14  1  0
  5 15  1  0
  8 16  1  0
  9 17  1  0
 12 18  1  0
M  ISO  6  13  14  14  14  15  14  16  14  17  14  18  11
M  END
>  <minimizedAffinity>  (1) 
-3.80427051

>  <minimizedRMSD>  (1) 
0.140048757

$$$$
