
     RDKit          3D

 25 27  0  0  0  0  0  0  0  0999 V2000
   38.5470   25.6850   35.5130 C   0  0  0  0  0  0  0  0  0  0  0  0
   38.3090   26.8560   36.2400 C   0  0  0  0  0  0  0  0  0  0  0  0
   37.7590   27.7680   35.3370 C   0  0  0  0  0  0  0  0  0  0  0  0
   37.6940   27.1190   34.1470 C   0  0  0  0  0  0  0  0  0  0  0  0
   38.1640   25.9010   34.2810 O   0  0  0  0  0  0  0  0  0  0  0  0
   38.6140   23.9370   37.3260 C   0  0  0  0  0  0  0  0  0  0  0  0
   39.1260   24.5060   36.1420 C   0  0  0  0  0  0  0  0  0  0  0  0
   40.2330   23.9080   35.5580 C   0  0  0  0  0  0  0  0  0  0  0  0
   40.7930   22.7960   36.1370 N   0  0  0  0  0  0  0  0  0  0  0  0
   40.2590   22.2840   37.2830 C   0  0  0  0  0  0  0  0  0  0  0  0
   39.1850   22.8520   37.8630 N   0  0  0  0  0  0  0  0  0  0  0  0
   37.1860   27.6720   32.8990 C   0  0  0  0  0  0  0  0  0  0  0  0
   36.2560   28.6830   32.8920 C   0  0  0  0  0  0  0  0  0  0  0  0
   35.7620   29.2200   31.7190 C   0  0  0  0  0  0  0  0  0  0  0  0
   36.2140   28.7330   30.5480 N   0  0  0  0  0  0  0  0  0  0  0  0
   37.1280   27.7390   30.5590 C   0  0  0  0  0  0  0  0  0  0  0  0
   37.6150   27.2090   31.6970 N   0  0  0  0  0  0  0  0  0  0  0  0
   38.5138   27.0244   37.3076 H   0  0  0  0  0  0  0  0  0  0  0  0
   37.4432   28.8005   35.5471 H   0  0  0  0  0  0  0  0  0  0  0  0
   37.7372   24.3889   37.8129 H   0  0  0  0  0  0  0  0  0  0  0  0
   40.6610   24.3234   34.6337 H   0  0  0  0  0  0  0  0  0  0  0  0
   40.7132   21.3927   37.7406 H   0  0  0  0  0  0  0  0  0  0  0  0
   35.8926   29.0780   33.8522 H   0  0  0  0  0  0  0  0  0  0  0  0
   35.0157   30.0278   31.7412 H   0  0  0  0  0  0  0  0  0  0  0  0
   37.4900   27.3456   29.5976 H   0  0  0  0  0  0  0  0  0  0  0  0
  1  7  1  0
  1  2  2  0
  3  2  1  0
  4  5  1  0
  4  3  2  0
  5  1  1  0
  6 11  2  0
  7  6  1  0
  8  9  1  0
  8  7  2  0
  9 10  2  0
 10 11  1  0
 12  4  1  0
 13 12  2  0
 14 13  1  0
 15 16  1  0
 15 14  2  0
 16 17  2  0
 17 12  1  0
  2 18  1  0
  3 19  1  0
  6 20  1  0
  8 21  1  0
 10 22  1  0
 13 23  1  0
 14 24  1  0
 16 25  1  0
M  ISO  8  18  14  19  14  20  14  21  14  22  14  23  14  24  14  25  14
M  END
>  <minimizedAffinity>  (1) 
-4.48458672

>  <minimizedRMSD>  (1) 
0.950062513

$$$$
