
     RDKit          3D

 19 20  0  0  0  0  0  0  0  0999 V2000
   38.0620   25.7090   35.4310 C   0  0  0  0  0  0  0  0  0  0  0  0
   37.9920   27.0330   35.8300 C   0  0  0  0  0  0  0  0  0  0  0  0
   37.3980   27.7420   34.8040 C   0  0  0  0  0  0  0  0  0  0  0  0
   37.1420   26.8180   33.8400 C   0  0  0  0  0  0  0  0  0  0  0  0
   37.5440   25.6240   34.2360 O   0  0  0  0  0  0  0  0  0  0  0  0
   38.1190   24.3490   37.5600 C   0  0  0  0  0  0  0  0  0  0  0  0
   38.6420   24.6690   36.2860 C   0  0  0  0  0  0  0  0  0  0  0  0
   39.7510   23.9610   35.8380 C   0  0  0  0  0  0  0  0  0  0  0  0
   40.2860   22.9900   36.6430 N   0  0  0  0  0  0  0  0  0  0  0  0
   39.7440   22.7200   37.8660 C   0  0  0  0  0  0  0  0  0  0  0  0
   38.6560   23.4050   38.3180 N   0  0  0  0  0  0  0  0  0  0  0  0
   36.5070   27.0890   32.5390 C   0  0  0  0  0  0  0  0  0  0  0  0
   35.6970   28.0360   32.4250 O   0  0  0  0  0  0  0  0  0  0  0  0
   38.3444   27.4444   36.7874 H   0  0  0  0  0  0  0  0  0  0  0  0
   37.1796   28.8197   34.7735 H   0  0  0  0  0  0  0  0  0  0  0  0
   37.2420   24.8992   37.9318 H   0  0  0  0  0  0  0  0  0  0  0  0
   40.1918   24.1767   34.8535 H   0  0  0  0  0  0  0  0  0  0  0  0
   40.1920   21.9378   38.4964 H   0  0  0  0  0  0  0  0  0  0  0  0
   36.7445   26.4597   31.6686 H   0  0  0  0  0  0  0  0  0  0  0  0
  1  2  2  0
  1  7  1  0
  3  2  1  0
  4  5  1  0
  4  3  2  0
  5  1  1  0
  6 11  2  0
  7  6  1  0
  8  7  2  0
  8  9  1  0
  9 10  2  0
 10 11  1  0
 12  4  1  0
 13 12  2  0
  2 14  1  0
  3 15  1  0
  6 16  1  0
  8 17  1  0
 10 18  1  0
 12 19  1  0
M  ISO  6  14  14  15  14  16  14  17  14  18  14  19   6
M  END
>  <minimizedAffinity>  (1) 
-3.85227227

>  <minimizedRMSD>  (1) 
0.174239755

$$$$
