
     RDKit          3D

 18 19  0  0  0  0  0  0  0  0999 V2000
   38.1340   24.3350   37.5930 C   0  0  0  0  0  0  0  0  0  0  0  0
   38.6500   24.6700   36.3200 C   0  0  0  0  0  0  0  0  0  0  0  0
   39.7500   23.9670   35.8490 C   0  0  0  0  0  0  0  0  0  0  0  0
   40.2900   22.9790   36.6370 N   0  0  0  0  0  0  0  0  0  0  0  0
   39.7700   22.6880   37.8470 C   0  0  0  0  0  0  0  0  0  0  0  0
   38.6880   23.3700   38.3220 N   0  0  0  0  0  0  0  0  0  0  0  0
   38.0620   25.7280   35.4910 C   0  0  0  0  0  0  0  0  0  0  0  0
   38.0560   27.0580   35.8960 C   0  0  0  0  0  0  0  0  0  0  0  0
   37.4290   27.7690   34.8810 C   0  0  0  0  0  0  0  0  0  0  0  0
   37.0970   26.8530   33.9360 C   0  0  0  0  0  0  0  0  0  0  0  0
   37.4810   25.6590   34.3190 O   0  0  0  0  0  0  0  0  0  0  0  0
   36.4560   26.9200   32.6900 O   0  0  0  0  0  0  0  0  0  0  0  0
   37.2628   24.8796   37.9859 H   0  0  0  0  0  0  0  0  0  0  0  0
   40.1815   24.1963   34.8635 H   0  0  0  0  0  0  0  0  0  0  0  0
   40.2229   21.8926   38.4571 H   0  0  0  0  0  0  0  0  0  0  0  0
   38.4655   27.4653   36.8322 H   0  0  0  0  0  0  0  0  0  0  0  0
   37.2402   28.8522   34.8494 H   0  0  0  0  0  0  0  0  0  0  0  0
   36.1409   27.7915   32.3417 H   0  0  0  0  0  0  0  0  0  0  0  0
  1  6  2  0
  2  1  1  0
  3  2  2  0
  3  4  1  0
  4  5  2  0
  5  6  1  0
  7  8  2  0
  7  2  1  0
  9  8  1  0
 10 11  1  0
 10  9  2  0
 11  7  1  0
 12 10  1  0
  1 13  1  0
  3 14  1  0
  5 15  1  0
  8 16  1  0
  9 17  1  0
 12 18  1  0
M  ISO  6  13  14  14  14  15  14  16  14  17  14  18   3
M  END
>  <minimizedAffinity>  (1) 
-3.85535765

>  <minimizedRMSD>  (1) 
0.0641814694

$$$$
