
     RDKit          3D

 36 40  0  0  0  0  0  0  0  0999 V2000
   37.2360   27.7370   32.9790 C   0  0  0  0  0  0  0  0  0  0  0  0
   36.0000   28.3410   32.9330 C   0  0  0  0  0  0  0  0  0  0  0  0
   35.5090   28.8980   31.7610 C   0  0  0  0  0  0  0  0  0  0  0  0
   36.2660   28.8370   30.6590 N   0  0  0  0  0  0  0  0  0  0  0  0
   37.4830   28.2410   30.7090 C   0  0  0  0  0  0  0  0  0  0  0  0
   37.9600   27.7020   31.8390 N   0  0  0  0  0  0  0  0  0  0  0  0
   38.2520   28.1990   29.5160 N   0  0  0  0  0  0  0  0  0  0  0  0
   38.2260   29.0980   28.5000 C   0  0  0  0  0  0  0  0  0  0  0  0
   39.0780   28.7690   27.5130 N   0  0  0  0  0  0  0  0  0  0  0  0
   39.6830   27.6300   27.8760 C   0  0  0  0  0  0  0  0  0  0  0  0
   40.6300   26.8980   27.2040 C   0  0  0  0  0  0  0  0  0  0  0  0
   41.0610   25.7710   27.8310 N   0  0  0  0  0  0  0  0  0  0  0  0
   40.5560   25.4300   29.0460 C   0  0  0  0  0  0  0  0  0  0  0  0
   39.6130   26.1700   29.6990 N   0  0  0  0  0  0  0  0  0  0  0  0
   39.1520   27.2960   29.1240 C   0  0  0  0  0  0  0  0  0  0  0  0
   38.5710   25.6810   35.5510 C   0  0  0  0  0  0  0  0  0  0  0  0
   38.3270   26.8320   36.3110 C   0  0  0  0  0  0  0  0  0  0  0  0
   37.7860   27.7670   35.4320 C   0  0  0  0  0  0  0  0  0  0  0  0
   37.7290   27.1590   34.2210 C   0  0  0  0  0  0  0  0  0  0  0  0
   38.2000   25.9300   34.3190 O   0  0  0  0  0  0  0  0  0  0  0  0
   38.6440   23.9070   37.3390 C   0  0  0  0  0  0  0  0  0  0  0  0
   39.1430   24.4930   36.1580 C   0  0  0  0  0  0  0  0  0  0  0  0
   40.2340   23.8920   35.5610 C   0  0  0  0  0  0  0  0  0  0  0  0
   40.7960   22.7660   36.1120 N   0  0  0  0  0  0  0  0  0  0  0  0
   40.2720   22.2450   37.2530 C   0  0  0  0  0  0  0  0  0  0  0  0
   39.2120   22.8070   37.8560 N   0  0  0  0  0  0  0  0  0  0  0  0
   35.3878   28.3830   33.8459 H   0  0  0  0  0  0  0  0  0  0  0  0
   34.5199   29.3789   31.7381 H   0  0  0  0  0  0  0  0  0  0  0  0
   37.5836   29.9908   28.4854 H   0  0  0  0  0  0  0  0  0  0  0  0
   41.0159   27.2038   26.2203 H   0  0  0  0  0  0  0  0  0  0  0  0
   40.9255   24.5123   29.5269 H   0  0  0  0  0  0  0  0  0  0  0  0
   38.5230   26.9695   37.3846 H   0  0  0  0  0  0  0  0  0  0  0  0
   37.4687   28.7926   35.6717 H   0  0  0  0  0  0  0  0  0  0  0  0
   37.7768   24.3579   37.8437 H   0  0  0  0  0  0  0  0  0  0  0  0
   40.6556   24.3177   34.6385 H   0  0  0  0  0  0  0  0  0  0  0  0
   40.7259   21.3441   37.6915 H   0  0  0  0  0  0  0  0  0  0  0  0
  1 19  1  0
  2  1  2  0
  3  2  1  0
  4  5  1  0
  4  3  2  0
  5  6  2  0
  6  1  1  0
  7  5  1  0
  8  7  1  0
  9 10  1  0
  9  8  2  0
 10 15  2  0
 11 12  2  0
 11 10  1  0
 12 13  1  0
 13 14  2  0
 15  7  1  0
 15 14  1  0
 16 22  1  0
 16 17  2  0
 18 17  1  0
 19 20  1  0
 19 18  2  0
 20 16  1  0
 21 26  2  0
 22 21  1  0
 23 24  1  0
 23 22  2  0
 24 25  2  0
 25 26  1  0
  2 27  1  0
  3 28  1  0
  8 29  1  0
 11 30  1  0
 13 31  1  0
 17 32  1  0
 18 33  1  0
 21 34  1  0
 23 35  1  0
 25 36  1  0
M  ISO  8  27  14  28  14  29  14  30  14  31  14  32  14  33  14  34  14
M  ISO  2  35  14  36  14
M  END
>  <minimizedAffinity>  (1) 
-5.69644213

>  <minimizedRMSD>  (1) 
1.26799369

$$$$
