
     RDKit          3D

 38 42  0  0  0  0  0  0  0  0999 V2000
   36.8850   28.0090   33.2640 C   0  0  0  0  0  0  0  0  0  0  0  0
   35.6400   28.5540   33.3930 C   0  0  0  0  0  0  0  0  0  0  0  0
   35.0000   29.2090   32.3650 C   0  0  0  0  0  0  0  0  0  0  0  0
   35.6450   29.3090   31.1790 N   0  0  0  0  0  0  0  0  0  0  0  0
   36.8680   28.7730   31.0570 C   0  0  0  0  0  0  0  0  0  0  0  0
   37.4910   28.1320   32.0660 N   0  0  0  0  0  0  0  0  0  0  0  0
   37.5540   28.8740   29.8090 N   0  0  0  0  0  0  0  0  0  0  0  0
   37.4960   29.8900   28.9230 C   0  0  0  0  0  0  0  0  0  0  0  0
   38.2760   29.6490   27.8500 N   0  0  0  0  0  0  0  0  0  0  0  0
   38.8570   28.4480   28.0420 C   0  0  0  0  0  0  0  0  0  0  0  0
   39.7370   27.7840   27.2130 C   0  0  0  0  0  0  0  0  0  0  0  0
   40.1560   26.5820   27.6770 N   0  0  0  0  0  0  0  0  0  0  0  0
   39.7220   26.1030   28.8670 C   0  0  0  0  0  0  0  0  0  0  0  0
   38.8500   26.7920   29.6580 N   0  0  0  0  0  0  0  0  0  0  0  0
   38.3910   27.9960   29.2590 C   0  0  0  0  0  0  0  0  0  0  0  0
   38.5060   25.7430   35.4750 C   0  0  0  0  0  0  0  0  0  0  0  0
   38.4520   26.8690   36.3180 C   0  0  0  0  0  0  0  0  0  0  0  0
   37.8250   27.8800   35.5830 C   0  0  0  0  0  0  0  0  0  0  0  0
   37.5460   27.3170   34.3700 C   0  0  0  0  0  0  0  0  0  0  0  0
   37.9560   26.0800   34.3460 O   0  0  0  0  0  0  0  0  0  0  0  0
   38.7100   23.8420   37.1090 C   0  0  0  0  0  0  0  0  0  0  0  0
   39.1010   24.4980   35.9240 C   0  0  0  0  0  0  0  0  0  0  0  0
   40.1000   23.9150   35.1610 C   0  0  0  0  0  0  0  0  0  0  0  0
   40.6690   22.7330   35.5810 N   0  0  0  0  0  0  0  0  0  0  0  0
   40.2560   22.1440   36.7310 C   0  0  0  0  0  0  0  0  0  0  0  0
   39.2910   22.6950   37.4790 N   0  0  0  0  0  0  0  0  0  0  0  0
   40.1420   28.3600   25.9770 N   0  0  0  0  0  0  0  0  0  0  0  0
   35.1254   28.4659   34.3612 H   0  0  0  0  0  0  0  0  0  0  0  0
   33.9963   29.6375   32.5030 H   0  0  0  0  0  0  0  0  0  0  0  0
   36.8902   30.7981   29.0587 H   0  0  0  0  0  0  0  0  0  0  0  0
   40.0859   25.1226   29.2082 H   0  0  0  0  0  0  0  0  0  0  0  0
   38.8280   26.9396   37.3493 H   0  0  0  0  0  0  0  0  0  0  0  0
   37.6042   28.9066   35.9107 H   0  0  0  0  0  0  0  0  0  0  0  0
   37.9185   24.2780   37.7363 H   0  0  0  0  0  0  0  0  0  0  0  0
   40.4356   24.3918   34.2283 H   0  0  0  0  0  0  0  0  0  0  0  0
   40.7201   21.2004   37.0539 H   0  0  0  0  0  0  0  0  0  0  0  0
   39.7776   29.2809   25.6941 H   0  0  0  0  0  0  0  0  0  0  0  0
   40.7996   27.8562   25.3650 H   0  0  0  0  0  0  0  0  0  0  0  0
  1  2  2  0
  1 19  1  0
  3  2  1  0
  4  3  2  0
  5  4  1  0
  5  6  2  0
  6  1  1  0
  7  5  1  0
  8  7  1  0
  9 10  1  0
  9  8  2  0
 10 15  2  0
 11 12  2  0
 11 10  1  0
 12 13  1  0
 13 14  2  0
 15 14  1  0
 15  7  1  0
 16 22  1  0
 16 17  2  0
 18 17  1  0
 19 18  2  0
 20 19  1  0
 20 16  1  0
 21 26  2  0
 22 21  1  0
 23 24  1  0
 23 22  2  0
 24 25  2  0
 25 26  1  0
 27 11  1  0
  2 28  1  0
  3 29  1  0
  8 30  1  0
 13 31  1  0
 17 32  1  0
 18 33  1  0
 21 34  1  0
 23 35  1  0
 25 36  1  0
 27 37  1  0
 27 38  1  0
M  ISO  8  28  14  29  14  30  14  31  14  32  14  33  14  34  14  35  14
M  ISO  1  36  14
M  END
>  <minimizedAffinity>  (1) 
-6.13954067

>  <minimizedRMSD>  (1) 
1.74030435

$$$$
