
     RDKit          3D

 35 38  0  0  0  0  0  0  0  0999 V2000
   37.3590   27.7350   32.9000 C   0  0  0  0  0  0  0  0  0  0  0  0
   36.2030   28.4770   32.8420 C   0  0  0  0  0  0  0  0  0  0  0  0
   35.7640   29.0490   31.6650 C   0  0  0  0  0  0  0  0  0  0  0  0
   36.4900   28.8700   30.5570 N   0  0  0  0  0  0  0  0  0  0  0  0
   37.6210   28.1420   30.6190 C   0  0  0  0  0  0  0  0  0  0  0  0
   38.0670   27.5730   31.7650 N   0  0  0  0  0  0  0  0  0  0  0  0
   38.4260   27.9250   29.4650 N   0  0  0  0  0  0  0  0  0  0  0  0
   39.3440   26.9440   29.3860 C   0  0  0  0  0  0  0  0  0  0  0  0
   40.1500   26.6770   28.3120 C   0  0  0  0  0  0  0  0  0  0  0  0
   39.9530   27.5350   27.2370 C   0  0  0  0  0  0  0  0  0  0  0  0
   40.6270   27.4020   26.1870 O   0  0  0  0  0  0  0  0  0  0  0  0
   39.0410   28.5290   27.2800 N   0  0  0  0  0  0  0  0  0  0  0  0
   38.2760   28.7280   28.3910 C   0  0  0  0  0  0  0  0  0  0  0  0
   37.4260   29.6450   28.4490 O   0  0  0  0  0  0  0  0  0  0  0  0
   38.6080   25.6730   35.5190 C   0  0  0  0  0  0  0  0  0  0  0  0
   38.2820   26.7940   36.2720 C   0  0  0  0  0  0  0  0  0  0  0  0
   37.7620   27.7300   35.3770 C   0  0  0  0  0  0  0  0  0  0  0  0
   37.8010   27.1400   34.1600 C   0  0  0  0  0  0  0  0  0  0  0  0
   38.3040   25.9240   34.2630 O   0  0  0  0  0  0  0  0  0  0  0  0
   38.6540   23.8940   37.2970 C   0  0  0  0  0  0  0  0  0  0  0  0
   39.1860   24.4780   36.1290 C   0  0  0  0  0  0  0  0  0  0  0  0
   40.3000   23.8930   35.5380 C   0  0  0  0  0  0  0  0  0  0  0  0
   40.8530   22.7740   36.0960 N   0  0  0  0  0  0  0  0  0  0  0  0
   40.3060   22.2400   37.2290 C   0  0  0  0  0  0  0  0  0  0  0  0
   39.2190   22.7990   37.8170 N   0  0  0  0  0  0  0  0  0  0  0  0
   35.6118   28.6187   33.7587 H   0  0  0  0  0  0  0  0  0  0  0  0
   34.8364   29.6396   31.6394 H   0  0  0  0  0  0  0  0  0  0  0  0
   39.4574   26.2957   30.2674 H   0  0  0  0  0  0  0  0  0  0  0  0
   40.8854   25.8590   28.3011 H   0  0  0  0  0  0  0  0  0  0  0  0
   38.9214   29.1450   26.4632 H   0  0  0  0  0  0  0  0  0  0  0  0
   38.4085   26.9190   37.3575 H   0  0  0  0  0  0  0  0  0  0  0  0
   37.3956   28.7401   35.6126 H   0  0  0  0  0  0  0  0  0  0  0  0
   37.7727   24.3398   37.7813 H   0  0  0  0  0  0  0  0  0  0  0  0
   40.7344   24.3282   34.6259 H   0  0  0  0  0  0  0  0  0  0  0  0
   40.7560   21.3396   37.6725 H   0  0  0  0  0  0  0  0  0  0  0  0
  1 18  1  0
  2  1  2  0
  3  2  1  0
  4  5  1  0
  4  3  2  0
  5  6  2  0
  6  1  1  0
  7  5  1  0
  8  7  1  0
  9  8  2  0
 10 12  1  0
 10  9  1  0
 11 10  2  0
 12 13  1  0
 13 14  2  0
 13  7  1  0
 15 21  1  0
 15 16  2  0
 17 16  1  0
 18 19  1  0
 18 17  2  0
 19 15  1  0
 20 25  2  0
 21 20  1  0
 22 23  1  0
 22 21  2  0
 23 24  2  0
 24 25  1  0
  2 26  1  0
  3 27  1  0
  8 28  1  0
  9 29  1  0
 12 30  1  0
 16 31  1  0
 17 32  1  0
 20 33  1  0
 22 34  1  0
 24 35  1  0
M  ISO  8  26  14  27  14  28  14  29  14  30   9  31  14  32  14  33  14
M  ISO  2  34  14  35  14
M  END
>  <minimizedAffinity>  (1) 
-5.94445658

>  <minimizedRMSD>  (1) 
0.902613759

$$$$
