
     RDKit          3D

 36 39  0  0  0  0  0  0  0  0999 V2000
   36.2780   28.4540   33.4310 C   0  0  0  0  0  0  0  0  0  0  0  0
   35.0450   28.9610   33.7240 C   0  0  0  0  0  0  0  0  0  0  0  0
   34.3140   29.7350   32.8490 C   0  0  0  0  0  0  0  0  0  0  0  0
   34.8490   29.9980   31.6530 N   0  0  0  0  0  0  0  0  0  0  0  0
   36.0740   29.4990   31.3500 C   0  0  0  0  0  0  0  0  0  0  0  0
   36.8010   28.7390   32.2000 N   0  0  0  0  0  0  0  0  0  0  0  0
   36.7510   29.7090   30.1070 N   0  0  0  0  0  0  0  0  0  0  0  0
   37.3750   28.7080   29.4530 C   0  0  0  0  0  0  0  0  0  0  0  0
   38.0230   28.9440   28.2490 C   0  0  0  0  0  0  0  0  0  0  0  0
   37.9920   30.2490   27.7650 C   0  0  0  0  0  0  0  0  0  0  0  0
   38.6500   30.5480   26.5170 N   0  0  0  0  0  0  0  0  0  0  0  0
   37.3580   31.2290   28.4430 N   0  0  0  0  0  0  0  0  0  0  0  0
   36.7290   30.9680   29.6260 C   0  0  0  0  0  0  0  0  0  0  0  0
   36.1670   31.9470   30.1830 O   0  0  0  0  0  0  0  0  0  0  0  0
   37.9110   25.9140   35.2870 C   0  0  0  0  0  0  0  0  0  0  0  0
   38.2450   27.0160   36.0960 C   0  0  0  0  0  0  0  0  0  0  0  0
   37.6610   28.1240   35.4850 C   0  0  0  0  0  0  0  0  0  0  0  0
   37.0270   27.6430   34.3760 C   0  0  0  0  0  0  0  0  0  0  0  0
   37.1930   26.3520   34.2910 O   0  0  0  0  0  0  0  0  0  0  0  0
   38.5780   24.1410   36.9400 C   0  0  0  0  0  0  0  0  0  0  0  0
   38.3600   24.5710   35.6260 C   0  0  0  0  0  0  0  0  0  0  0  0
   38.5880   23.6650   34.6170 C   0  0  0  0  0  0  0  0  0  0  0  0
   39.0140   22.3880   34.9210 N   0  0  0  0  0  0  0  0  0  0  0  0
   39.2080   22.0290   36.2130 C   0  0  0  0  0  0  0  0  0  0  0  0
   38.9920   22.9000   37.2240 N   0  0  0  0  0  0  0  0  0  0  0  0
   34.6120   28.7401   34.7107 H   0  0  0  0  0  0  0  0  0  0  0  0
   33.3228   30.1235   33.1259 H   0  0  0  0  0  0  0  0  0  0  0  0
   37.3701   27.6937   29.8787 H   0  0  0  0  0  0  0  0  0  0  0  0
   38.5365   28.1388   27.7032 H   0  0  0  0  0  0  0  0  0  0  0  0
   38.6365   31.5083   26.1449 H   0  0  0  0  0  0  0  0  0  0  0  0
   39.1334   29.8012   25.9978 H   0  0  0  0  0  0  0  0  0  0  0  0
   38.8430   27.0051   37.0192 H   0  0  0  0  0  0  0  0  0  0  0  0
   37.7024   29.1691   35.8257 H   0  0  0  0  0  0  0  0  0  0  0  0
   38.4034   24.8458   37.7663 H   0  0  0  0  0  0  0  0  0  0  0  0
   38.4310   23.9579   33.5684 H   0  0  0  0  0  0  0  0  0  0  0  0
   39.5480   21.0086   36.4438 H   0  0  0  0  0  0  0  0  0  0  0  0
  1  2  2  0
  1 18  1  0
  3  2  1  0
  4  3  2  0
  5  4  1  0
  5  6  2  0
  6  1  1  0
  7  5  1  0
  8  7  1  0
  9  8  2  0
 10  9  1  0
 10 12  2  0
 11 10  1  0
 12 13  1  0
 13  7  1  0
 13 14  2  0
 15 21  1  0
 15 16  2  0
 17 16  1  0
 18 17  2  0
 19 18  1  0
 19 15  1  0
 20 25  2  0
 21 20  1  0
 22 23  1  0
 22 21  2  0
 23 24  2  0
 24 25  1  0
  2 26  1  0
  3 27  1  0
  8 28  1  0
  9 29  1  0
 11 30  1  0
 11 31  1  0
 16 32  1  0
 17 33  1  0
 20 34  1  0
 22 35  1  0
 24 36  1  0
M  ISO  8  26  14  27  14  28  14  29  14  32  14  33  14  34  14  35  14
M  ISO  1  36  14
M  END
>  <minimizedAffinity>  (1) 
-5.96863222

>  <minimizedRMSD>  (1) 
2.46118999

$$$$
