
     RDKit          3D

 39 43  0  0  0  0  0  0  0  0999 V2000
   36.9270   28.0330   33.1750 C   0  0  0  0  0  0  0  0  0  0  0  0
   35.7150   28.6460   33.3060 C   0  0  0  0  0  0  0  0  0  0  0  0
   35.1150   29.3230   32.2600 C   0  0  0  0  0  0  0  0  0  0  0  0
   35.7520   29.3750   31.0790 N   0  0  0  0  0  0  0  0  0  0  0  0
   36.9610   28.7630   30.9490 C   0  0  0  0  0  0  0  0  0  0  0  0
   37.5440   28.1080   31.9590 N   0  0  0  0  0  0  0  0  0  0  0  0
   37.6630   28.8130   29.6730 C   0  0  0  0  0  0  0  0  0  0  0  0
   37.5830   29.7500   28.6800 C   0  0  0  0  0  0  0  0  0  0  0  0
   38.3860   29.4600   27.6380 N   0  0  0  0  0  0  0  0  0  0  0  0
   39.0010   28.3160   27.9550 C   0  0  0  0  0  0  0  0  0  0  0  0
   39.9280   27.5490   27.2750 C   0  0  0  0  0  0  0  0  0  0  0  0
   40.4460   26.3860   27.7800 C   0  0  0  0  0  0  0  0  0  0  0  0
   40.0380   25.9390   29.0280 C   0  0  0  0  0  0  0  0  0  0  0  0
   39.1010   26.7110   29.7200 C   0  0  0  0  0  0  0  0  0  0  0  0
   38.5870   27.8810   29.1950 C   0  0  0  0  0  0  0  0  0  0  0  0
   38.4780   25.7200   35.3930 C   0  0  0  0  0  0  0  0  0  0  0  0
   38.4000   26.8220   36.2500 C   0  0  0  0  0  0  0  0  0  0  0  0
   37.7980   27.8460   35.5130 C   0  0  0  0  0  0  0  0  0  0  0  0
   37.5480   27.3240   34.2780 C   0  0  0  0  0  0  0  0  0  0  0  0
   37.9580   26.0740   34.2370 O   0  0  0  0  0  0  0  0  0  0  0  0
   38.7450   23.8450   37.0490 C   0  0  0  0  0  0  0  0  0  0  0  0
   39.0580   24.4540   35.8270 C   0  0  0  0  0  0  0  0  0  0  0  0
   39.9660   23.8160   34.9990 C   0  0  0  0  0  0  0  0  0  0  0  0
   40.5270   22.6220   35.3870 N   0  0  0  0  0  0  0  0  0  0  0  0
   40.1850   22.0730   36.5870 C   0  0  0  0  0  0  0  0  0  0  0  0
   39.3110   22.6820   37.3920 N   0  0  0  0  0  0  0  0  0  0  0  0
   35.1980   28.6001   34.2759 H   0  0  0  0  0  0  0  0  0  0  0  0
   34.1369   29.8085   32.3926 H   0  0  0  0  0  0  0  0  0  0  0  0
   36.9368   30.6389   28.7268 H   0  0  0  0  0  0  0  0  0  0  0  0
   38.5024   30.0078   26.7735 H   0  0  0  0  0  0  0  0  0  0  0  0
   40.2648   27.8876   26.2841 H   0  0  0  0  0  0  0  0  0  0  0  0
   41.1813   25.8098   27.1992 H   0  0  0  0  0  0  0  0  0  0  0  0
   40.4381   25.0090   29.4581 H   0  0  0  0  0  0  0  0  0  0  0  0
   38.7627   26.3773   30.7120 H   0  0  0  0  0  0  0  0  0  0  0  0
   38.7432   26.8729   37.2938 H   0  0  0  0  0  0  0  0  0  0  0  0
   37.5719   28.8655   35.8588 H   0  0  0  0  0  0  0  0  0  0  0  0
   38.0289   24.3262   37.7314 H   0  0  0  0  0  0  0  0  0  0  0  0
   40.2383   24.2638   34.0319 H   0  0  0  0  0  0  0  0  0  0  0  0
   40.6342   21.1175   36.8956 H   0  0  0  0  0  0  0  0  0  0  0  0
  1  2  2  0
  1 19  1  0
  3  2  1  0
  4  3  2  0
  5  4  1  0
  5  6  2  0
  6  1  1  0
  7  5  1  0
  8  7  2  0
  9 10  1  0
  9  8  1  0
 10 15  2  0
 11 12  2  0
 11 10  1  0
 12 13  1  0
 13 14  2  0
 15  7  1  0
 15 14  1  0
 16 22  1  0
 16 17  2  0
 18 17  1  0
 19 18  2  0
 20 19  1  0
 20 16  1  0
 21 26  2  0
 22 21  1  0
 23 24  1  0
 23 22  2  0
 24 25  2  0
 25 26  1  0
  2 27  1  0
  3 28  1  0
  8 29  1  0
  9 30  1  0
 11 31  1  0
 12 32  1  0
 13 33  1  0
 14 34  1  0
 17 35  1  0
 18 36  1  0
 21 37  1  0
 23 38  1  0
 25 39  1  0
M  ISO  8  27  14  28  14  29  14  30   9  31  14  32  14  33  14  34  14
M  ISO  5  35  14  36  14  37  14  38  14  39  14
M  END
>  <minimizedAffinity>  (1) 
-5.80939627

>  <minimizedRMSD>  (1) 
1.70870328

$$$$
