
     RDKit          3D

 38 41  0  0  0  0  0  0  0  0999 V2000
   37.2320   27.7920   33.0030 C   0  0  0  0  0  0  0  0  0  0  0  0
   36.0670   28.5290   32.9960 C   0  0  0  0  0  0  0  0  0  0  0  0
   35.5860   29.1300   31.8590 C   0  0  0  0  0  0  0  0  0  0  0  0
   36.2860   28.9900   30.7120 N   0  0  0  0  0  0  0  0  0  0  0  0
   37.4180   28.2700   30.7350 C   0  0  0  0  0  0  0  0  0  0  0  0
   37.9260   27.6630   31.8300 N   0  0  0  0  0  0  0  0  0  0  0  0
   38.2510   28.0480   29.5790 N   0  0  0  0  0  0  0  0  0  0  0  0
   39.1400   27.0420   29.4370 C   0  0  0  0  0  0  0  0  0  0  0  0
   39.8760   26.9410   28.2800 C   0  0  0  0  0  0  0  0  0  0  0  0
   40.8350   25.8350   28.1560 C   0  0  0  0  0  0  0  0  0  0  0  0
   39.7100   27.8640   27.2670 C   0  0  0  0  0  0  0  0  0  0  0  0
   40.3980   27.7560   26.2070 O   0  0  0  0  0  0  0  0  0  0  0  0
   38.8100   28.8780   27.4190 N   0  0  0  0  0  0  0  0  0  0  0  0
   38.1190   28.9250   28.5720 C   0  0  0  0  0  0  0  0  0  0  0  0
   37.2940   29.8940   28.6560 O   0  0  0  0  0  0  0  0  0  0  0  0
   38.5920   25.6680   35.5040 C   0  0  0  0  0  0  0  0  0  0  0  0
   38.3310   26.7970   36.3010 C   0  0  0  0  0  0  0  0  0  0  0  0
   37.7790   27.7510   35.4440 C   0  0  0  0  0  0  0  0  0  0  0  0
   37.7400   27.1560   34.2150 C   0  0  0  0  0  0  0  0  0  0  0  0
   38.2200   25.9480   34.2900 O   0  0  0  0  0  0  0  0  0  0  0  0
   38.6850   23.8400   37.2320 C   0  0  0  0  0  0  0  0  0  0  0  0
   39.1770   24.4730   36.0860 C   0  0  0  0  0  0  0  0  0  0  0  0
   40.3000   23.9110   35.4770 C   0  0  0  0  0  0  0  0  0  0  0  0
   40.8690   22.7810   36.0110 N   0  0  0  0  0  0  0  0  0  0  0  0
   40.3440   22.2160   37.1230 C   0  0  0  0  0  0  0  0  0  0  0  0
   39.2650   22.7420   37.7240 N   0  0  0  0  0  0  0  0  0  0  0  0
   35.5031   28.6395   33.9340 H   0  0  0  0  0  0  0  0  0  0  0  0
   34.6527   29.7118   31.8815 H   0  0  0  0  0  0  0  0  0  0  0  0
   39.2750   26.3062   30.2435 H   0  0  0  0  0  0  0  0  0  0  0  0
   41.1317   25.4928   29.1584 H   0  0  0  0  0  0  0  0  0  0  0  0
   40.3671   25.0036   27.6084 H   0  0  0  0  0  0  0  0  0  0  0  0
   41.7243   26.1804   27.6084 H   0  0  0  0  0  0  0  0  0  0  0  0
   38.6653   29.5803   26.6795 H   0  0  0  0  0  0  0  0  0  0  0  0
   38.5225   26.9061   37.3787 H   0  0  0  0  0  0  0  0  0  0  0  0
   37.4460   28.7668   35.7035 H   0  0  0  0  0  0  0  0  0  0  0  0
   37.8015   24.2553   37.7390 H   0  0  0  0  0  0  0  0  0  0  0  0
   40.7272   24.3709   34.5737 H   0  0  0  0  0  0  0  0  0  0  0  0
   40.8090   21.3111   37.5412 H   0  0  0  0  0  0  0  0  0  0  0  0
  1 19  1  0
  2  1  2  0
  3  2  1  0
  4  5  1  0
  4  3  2  0
  5  6  2  0
  6  1  1  0
  7  5  1  0
  8  7  1  0
  9  8  2  0
 10  9  1  0
 11 13  1  0
 11  9  1  0
 12 11  2  0
 13 14  1  0
 14 15  2  0
 14  7  1  0
 16 22  1  0
 16 17  2  0
 18 17  1  0
 19 20  1  0
 19 18  2  0
 20 16  1  0
 21 26  2  0
 22 21  1  0
 23 24  1  0
 23 22  2  0
 24 25  2  0
 25 26  1  0
  2 27  1  0
  3 28  1  0
  8 29  1  0
 10 30  1  0
 10 31  1  0
 10 32  1  0
 13 33  1  0
 17 34  1  0
 18 35  1  0
 21 36  1  0
 23 37  1  0
 25 38  1  0
M  ISO  8  27  14  28  14  29  14  30   8  31   8  32   8  33   9  34  14
M  ISO  4  35  14  36  14  37  14  38  14
M  END
>  <minimizedAffinity>  (1) 
-6.09482193

>  <minimizedRMSD>  (1) 
0.979573846

$$$$
