
     RDKit          3D

 41 45  0  0  0  0  0  0  0  0999 V2000
   36.4560   28.3160   33.4100 C   0  0  0  0  0  0  0  0  0  0  0  0
   35.2130   28.8080   33.6390 C   0  0  0  0  0  0  0  0  0  0  0  0
   34.5280   29.5160   32.6840 C   0  0  0  0  0  0  0  0  0  0  0  0
   35.0960   29.7310   31.4980 N   0  0  0  0  0  0  0  0  0  0  0  0
   36.3230   29.2570   31.2450 C   0  0  0  0  0  0  0  0  0  0  0  0
   36.9660   28.5680   32.2000 N   0  0  0  0  0  0  0  0  0  0  0  0
   37.1590   29.3460   30.0280 C   0  0  0  0  0  0  0  0  0  0  0  0
   37.1650   30.4420   29.1580 C   0  0  0  0  0  0  0  0  0  0  0  0
   37.9300   30.5330   28.0430 C   0  0  0  0  0  0  0  0  0  0  0  0
   38.7670   29.5190   27.6950 C   0  0  0  0  0  0  0  0  0  0  0  0
   38.8160   28.4110   28.5010 C   0  0  0  0  0  0  0  0  0  0  0  0
   39.6740   27.4070   28.1240 C   0  0  0  0  0  0  0  0  0  0  0  0
   39.7870   26.2660   28.8750 C   0  0  0  0  0  0  0  0  0  0  0  0
   38.9930   26.1860   30.0230 C   0  0  0  0  0  0  0  0  0  0  0  0
   38.1540   27.2230   30.3450 C   0  0  0  0  0  0  0  0  0  0  0  0
   38.0270   28.3610   29.6170 C   0  0  0  0  0  0  0  0  0  0  0  0
   38.1680   25.8820   35.3550 C   0  0  0  0  0  0  0  0  0  0  0  0
   38.3470   27.0000   36.1950 C   0  0  0  0  0  0  0  0  0  0  0  0
   37.7140   28.0710   35.5560 C   0  0  0  0  0  0  0  0  0  0  0  0
   37.2060   27.5610   34.4070 C   0  0  0  0  0  0  0  0  0  0  0  0
   37.4830   26.2710   34.3050 O   0  0  0  0  0  0  0  0  0  0  0  0
   38.5780   24.0350   37.0160 C   0  0  0  0  0  0  0  0  0  0  0  0
   38.7030   24.5770   35.7120 C   0  0  0  0  0  0  0  0  0  0  0  0
   39.3620   23.8290   34.7390 C   0  0  0  0  0  0  0  0  0  0  0  0
   39.8680   22.5970   35.0690 N   0  0  0  0  0  0  0  0  0  0  0  0
   39.7270   22.1160   36.3270 C   0  0  0  0  0  0  0  0  0  0  0  0
   39.0880   22.8250   37.2910 N   0  0  0  0  0  0  0  0  0  0  0  0
   34.7410   28.6346   34.6174 H   0  0  0  0  0  0  0  0  0  0  0  0
   33.5200   29.9023   32.8953 H   0  0  0  0  0  0  0  0  0  0  0  0
   36.5032   31.2880   29.3955 H   0  0  0  0  0  0  0  0  0  0  0  0
   37.8735   31.4340   27.4145 H   0  0  0  0  0  0  0  0  0  0  0  0
   39.3887   29.5862   26.7900 H   0  0  0  0  0  0  0  0  0  0  0  0
   40.2763   27.5197   27.2105 H   0  0  0  0  0  0  0  0  0  0  0  0
   40.4695   25.4524   28.5883 H   0  0  0  0  0  0  0  0  0  0  0  0
   39.0407   25.2947   30.6659 H   0  0  0  0  0  0  0  0  0  0  0  0
   37.5432   27.1251   31.2546 H   0  0  0  0  0  0  0  0  0  0  0  0
   38.8774   27.0249   37.1584 H   0  0  0  0  0  0  0  0  0  0  0  0
   37.6431   29.1096   35.9112 H   0  0  0  0  0  0  0  0  0  0  0  0
   38.0629   24.6065   37.8022 H   0  0  0  0  0  0  0  0  0  0  0  0
   39.4754   24.2215   33.7177 H   0  0  0  0  0  0  0  0  0  0  0  0
   40.1405   21.1268   36.5731 H   0  0  0  0  0  0  0  0  0  0  0  0
  1  2  2  0
  1 20  1  0
  3  2  1  0
  4  3  2  0
  5  4  1  0
  5  6  2  0
  6  1  1  0
  7  5  1  0
  8  7  2  0
  9  8  1  0
 10  9  2  0
 10 11  1  0
 11 16  2  0
 12 11  1  0
 12 13  2  0
 13 14  1  0
 14 15  2  0
 16  7  1  0
 16 15  1  0
 17 23  1  0
 17 18  2  0
 19 18  1  0
 20 19  2  0
 21 20  1  0
 21 17  1  0
 22 27  2  0
 23 22  1  0
 24 25  1  0
 24 23  2  0
 25 26  2  0
 26 27  1  0
  2 28  1  0
  3 29  1  0
  8 30  1  0
  9 31  1  0
 10 32  1  0
 12 33  1  0
 13 34  1  0
 14 35  1  0
 15 36  1  0
 18 37  1  0
 19 38  1  0
 22 39  1  0
 24 40  1  0
 26 41  1  0
M  ISO  8  28  14  29  14  30  14  31  14  32  14  33  14  34  14  35  14
M  ISO  6  36  14  37  14  38  14  39  14  40  14  41  14
M  END
>  <minimizedAffinity>  (1) 
-5.80734205

>  <minimizedRMSD>  (1) 
2.0212729

$$$$
