
     RDKit          3D

 40 43  0  0  1  0  0  0  0  0999 V2000
   39.1530   23.9490   35.4890 C   0  0  1  0  0  0  0  0  0  0  0  0
   38.3770   24.4470   36.6680 C   0  0  0  0  0  0  0  0  0  0  0  0
   38.4540   23.2960   37.6340 C   0  0  0  0  0  0  0  0  0  0  0  0
   39.8630   22.8150   37.4910 C   0  0  0  0  0  0  0  0  0  0  0  0
   40.2520   23.1100   36.0830 C   0  0  2  0  0  0  0  0  0  0  0  0
   41.5890   23.7190   35.9470 C   0  0  0  0  0  0  0  0  0  0  0  0
   42.6780   23.2380   36.6740 C   0  0  0  0  0  0  0  0  0  0  0  0
   43.9510   23.7780   36.5780 C   0  0  0  0  0  0  0  0  0  0  0  0
   44.1530   24.8560   35.7110 C   0  0  0  0  0  0  0  0  0  0  0  0
   43.1080   25.3700   34.9670 C   0  0  0  0  0  0  0  0  0  0  0  0
   41.8580   24.7960   35.0990 C   0  0  0  0  0  0  0  0  0  0  0  0
   37.7930   23.6560   33.4530 C   0  0  0  0  0  0  0  0  0  0  0  0
   37.0390   22.6680   32.8170 C   0  0  0  0  0  0  0  0  0  0  0  0
   37.1430   21.5750   33.6360 N   0  0  0  0  0  0  0  0  0  0  0  0
   37.9160   21.9480   34.6700 C   0  0  0  0  0  0  0  0  0  0  0  0
   38.3250   23.2160   34.5800 N   0  0  0  0  0  0  0  0  0  0  0  0
   37.9830   25.0230   32.9490 C   0  0  0  0  0  0  0  0  0  0  0  0
   39.0880   25.3190   32.1400 C   0  0  0  0  0  0  0  0  0  0  0  0
   39.1760   26.6700   31.7090 C   0  0  0  0  0  0  0  0  0  0  0  0
   38.2420   27.5560   32.0760 N   0  0  0  0  0  0  0  0  0  0  0  0
   37.2030   27.2180   32.8530 C   0  0  0  0  0  0  0  0  0  0  0  0
   37.0480   25.9530   33.3050 N   0  0  0  0  0  0  0  0  0  0  0  0
   39.5609   24.7690   34.8798 H   0  0  0  0  0  0  0  0  0  0  0  0
   38.8388   25.3508   37.0922 H   0  0  0  0  0  0  0  0  0  0  0  0
   37.3452   24.7349   36.4178 H   0  0  0  0  0  0  0  0  0  0  0  0
   38.2555   23.6317   38.6625 H   0  0  0  0  0  0  0  0  0  0  0  0
   37.7103   22.5123   37.4274 H   0  0  0  0  0  0  0  0  0  0  0  0
   40.5229   23.3490   38.1906 H   0  0  0  0  0  0  0  0  0  0  0  0
   39.9496   21.7423   37.7186 H   0  0  0  0  0  0  0  0  0  0  0  0
   40.3559   22.1680   35.5245 H   0  0  0  0  0  0  0  0  0  0  0  0
   42.5189   22.3897   37.3560 H   0  0  0  0  0  0  0  0  0  0  0  0
   44.7826   23.3681   37.1700 H   0  0  0  0  0  0  0  0  0  0  0  0
   45.1552   25.3001   35.6200 H   0  0  0  0  0  0  0  0  0  0  0  0
   43.2678   26.2177   34.2845 H   0  0  0  0  0  0  0  0  0  0  0  0
   41.0301   25.2094   34.5043 H   0  0  0  0  0  0  0  0  0  0  0  0
   36.4853   22.7492   31.8700 H   0  0  0  0  0  0  0  0  0  0  0  0
   38.1834   21.2799   35.5020 H   0  0  0  0  0  0  0  0  0  0  0  0
   39.8334   24.5604   31.8589 H   0  0  0  0  0  0  0  0  0  0  0  0
   40.0141   26.9889   31.0719 H   0  0  0  0  0  0  0  0  0  0  0  0
   36.4629   27.9839   33.1279 H   0  0  0  0  0  0  0  0  0  0  0  0
  1  5  1  0
  1  2  1  0
  2  3  1  0
  4  3  1  0
  5  4  1  0
  6  5  1  0
  6  7  2  0
  8  7  1  0
  9  8  2  0
 10 11  2  0
 10  9  1  0
 11  6  1  0
 12 16  1  0
 13 12  2  0
 13 14  1  0
 14 15  2  0
 16 15  1  0
 16  1  1  0
 17 22  1  0
 17 12  1  0
 18 17  2  0
 19 20  2  0
 19 18  1  0
 20 21  1  0
 21 22  2  0
  1 23  1  6
  2 24  1  0
  2 25  1  0
  3 26  1  0
  3 27  1  0
  4 28  1  0
  4 29  1  0
  5 30  1  6
  7 31  1  0
  8 32  1  0
  9 33  1  0
 10 34  1  0
 11 35  1  0
 13 36  1  0
 15 37  1  0
 18 38  1  0
 19 39  1  0
 21 40  1  0
M  ISO  8  23  13  24  13  25  13  26  13  27  13  28  13  29  13  30  13
M  ISO  8  31  14  32  14  33  14  34  14  35  14  36  14  37  14  38  14
M  ISO  2  39  14  40  14
M  END
>  <minimizedAffinity>  (1) 
-5.28244543

>  <minimizedRMSD>  (1) 
0.92198205

$$$$
