
     RDKit          3D

 40 43  0  0  0  0  0  0  0  0999 V2000
   38.4860   25.6700   35.4090 C   0  0  0  0  0  0  0  0  0  0  0  0
   38.4330   26.7840   36.2610 C   0  0  0  0  0  0  0  0  0  0  0  0
   37.8050   27.7980   35.5240 C   0  0  0  0  0  0  0  0  0  0  0  0
   37.5250   27.2630   34.3200 C   0  0  0  0  0  0  0  0  0  0  0  0
   37.9330   26.0160   34.2770 O   0  0  0  0  0  0  0  0  0  0  0  0
   36.8710   27.9370   33.2150 C   0  0  0  0  0  0  0  0  0  0  0  0
   37.3730   27.8520   31.9340 C   0  0  0  0  0  0  0  0  0  0  0  0
   36.7580   28.4930   30.8730 C   0  0  0  0  0  0  0  0  0  0  0  0
   35.6450   29.2160   31.0940 N   0  0  0  0  0  0  0  0  0  0  0  0
   35.1610   29.2930   32.3530 C   0  0  0  0  0  0  0  0  0  0  0  0
   35.7540   28.6750   33.3760 N   0  0  0  0  0  0  0  0  0  0  0  0
   33.9840   30.0550   32.5930 N   0  0  0  0  0  0  0  0  0  0  0  0
   33.4620   31.0010   31.6310 C   0  0  0  0  0  0  0  0  0  0  0  0
   31.9700   31.0720   31.8420 C   0  0  0  0  0  0  0  0  0  0  0  0
   31.7260   31.7940   33.1490 C   0  0  0  0  0  0  0  0  0  0  0  0
   32.6410   31.2510   34.2240 C   0  0  0  0  0  0  0  0  0  0  0  0
   33.2450   29.9220   33.8230 C   0  0  0  0  0  0  0  0  0  0  0  0
   38.7590   23.8080   37.0880 C   0  0  0  0  0  0  0  0  0  0  0  0
   39.0810   24.4180   35.8500 C   0  0  0  0  0  0  0  0  0  0  0  0
   40.0080   23.7960   35.0170 C   0  0  0  0  0  0  0  0  0  0  0  0
   40.5780   22.6110   35.4250 N   0  0  0  0  0  0  0  0  0  0  0  0
   40.2420   22.0580   36.6210 C   0  0  0  0  0  0  0  0  0  0  0  0
   39.3520   22.6540   37.4200 N   0  0  0  0  0  0  0  0  0  0  0  0
   38.8069   26.8483   37.2935 H   0  0  0  0  0  0  0  0  0  0  0  0
   37.5856   28.8220   35.8605 H   0  0  0  0  0  0  0  0  0  0  0  0
   38.2828   27.2614   31.7511 H   0  0  0  0  0  0  0  0  0  0  0  0
   37.1752   28.4122   29.8584 H   0  0  0  0  0  0  0  0  0  0  0  0
   33.6825   30.6599   30.6087 H   0  0  0  0  0  0  0  0  0  0  0  0
   33.9235   31.9904   31.7653 H   0  0  0  0  0  0  0  0  0  0  0  0
   31.5002   31.6246   31.0150 H   0  0  0  0  0  0  0  0  0  0  0  0
   31.5359   30.0617   31.8722 H   0  0  0  0  0  0  0  0  0  0  0  0
   31.9221   32.8678   33.0131 H   0  0  0  0  0  0  0  0  0  0  0  0
   30.6809   31.6391   33.4551 H   0  0  0  0  0  0  0  0  0  0  0  0
   33.4520   31.9729   34.4006 H   0  0  0  0  0  0  0  0  0  0  0  0
   32.0463   31.0972   35.1365 H   0  0  0  0  0  0  0  0  0  0  0  0
   32.4399   29.1855   33.6839 H   0  0  0  0  0  0  0  0  0  0  0  0
   33.9305   29.5886   34.6160 H   0  0  0  0  0  0  0  0  0  0  0  0
   38.0315   24.2763   37.7673 H   0  0  0  0  0  0  0  0  0  0  0  0
   40.2800   24.2438   34.0498 H   0  0  0  0  0  0  0  0  0  0  0  0
   40.7071   21.1114   36.9336 H   0  0  0  0  0  0  0  0  0  0  0  0
  1 19  1  0
  1  2  2  0
  3  2  1  0
  4  3  2  0
  5  4  1  0
  5  1  1  0
  6 11  1  0
  6  4  1  0
  7  6  2  0
  8  9  2  0
  8  7  1  0
  9 10  1  0
 10 12  1  0
 10 11  2  0
 12 17  1  0
 13 14  1  0
 13 12  1  0
 14 15  1  0
 15 16  1  0
 17 16  1  0
 18 23  2  0
 19 18  1  0
 20 21  1  0
 20 19  2  0
 21 22  2  0
 22 23  1  0
  2 24  1  0
  3 25  1  0
  7 26  1  0
  8 27  1  0
 13 28  1  0
 13 29  1  0
 14 30  1  0
 14 31  1  0
 15 32  1  0
 15 33  1  0
 16 34  1  0
 16 35  1  0
 17 36  1  0
 17 37  1  0
 18 38  1  0
 20 39  1  0
 22 40  1  0
M  ISO  8  24  14  25  14  26  14  27  14  28  13  29  13  30  13  31  13
M  ISO  8  32  13  33  13  34  13  35  13  36  13  37  13  38  14  39  14
M  ISO  1  40  14
M  END
>  <minimizedAffinity>  (1) 
-5.39388037

>  <minimizedRMSD>  (1) 
4.45661211

$$$$
