
     RDKit          3D

 32 35  0  0  0  0  0  0  0  0999 V2000
   38.5840   25.6850   35.5170 C   0  0  0  0  0  0  0  0  0  0  0  0
   38.2800   26.8320   36.2380 C   0  0  0  0  0  0  0  0  0  0  0  0
   37.7610   27.7480   35.3180 C   0  0  0  0  0  0  0  0  0  0  0  0
   37.7800   27.1090   34.1090 C   0  0  0  0  0  0  0  0  0  0  0  0
   38.2650   25.9080   34.2590 O   0  0  0  0  0  0  0  0  0  0  0  0
   37.3260   27.6960   32.8610 C   0  0  0  0  0  0  0  0  0  0  0  0
   36.1490   28.4180   32.7760 C   0  0  0  0  0  0  0  0  0  0  0  0
   35.7210   28.9770   31.5890 C   0  0  0  0  0  0  0  0  0  0  0  0
   36.4790   28.8070   30.4860 N   0  0  0  0  0  0  0  0  0  0  0  0
   37.6170   28.1040   30.5860 C   0  0  0  0  0  0  0  0  0  0  0  0
   38.0730   27.5400   31.7260 N   0  0  0  0  0  0  0  0  0  0  0  0
   38.4360   27.9090   29.4390 N   0  0  0  0  0  0  0  0  0  0  0  0
   39.3480   26.9500   29.3760 N   0  0  0  0  0  0  0  0  0  0  0  0
   39.9850   26.9660   28.2110 C   0  0  0  0  0  0  0  0  0  0  0  0
   39.4180   28.0200   27.5030 C   0  0  0  0  0  0  0  0  0  0  0  0
   38.4380   28.6170   28.2770 C   0  0  0  0  0  0  0  0  0  0  0  0
   38.6120   23.9410   37.3360 C   0  0  0  0  0  0  0  0  0  0  0  0
   39.1500   24.5020   36.1490 C   0  0  0  0  0  0  0  0  0  0  0  0
   40.2650   23.8940   35.5680 C   0  0  0  0  0  0  0  0  0  0  0  0
   40.8030   22.7760   36.1620 N   0  0  0  0  0  0  0  0  0  0  0  0
   40.2570   22.2730   37.2940 C   0  0  0  0  0  0  0  0  0  0  0  0
   39.1910   22.8520   37.8520 N   0  0  0  0  0  0  0  0  0  0  0  0
   38.4196   26.9888   37.3178 H   0  0  0  0  0  0  0  0  0  0  0  0
   37.4103   28.7701   35.5238 H   0  0  0  0  0  0  0  0  0  0  0  0
   35.5368   28.5503   33.6803 H   0  0  0  0  0  0  0  0  0  0  0  0
   34.7823   29.5487   31.5432 H   0  0  0  0  0  0  0  0  0  0  0  0
   40.7876   26.2914   27.8780 H   0  0  0  0  0  0  0  0  0  0  0  0
   39.7035   28.3306   26.4871 H   0  0  0  0  0  0  0  0  0  0  0  0
   37.8017   29.4741   28.0115 H   0  0  0  0  0  0  0  0  0  0  0  0
   37.7352   24.3934   37.8224 H   0  0  0  0  0  0  0  0  0  0  0  0
   40.7070   24.3036   34.6478 H   0  0  0  0  0  0  0  0  0  0  0  0
   40.6961   21.3780   37.7590 H   0  0  0  0  0  0  0  0  0  0  0  0
  1 18  1  0
  1  2  2  0
  3  2  1  0
  4  5  1  0
  4  3  2  0
  5  1  1  0
  6  4  1  0
  7  6  2  0
  8  7  1  0
  9 10  1  0
  9  8  2  0
 10 11  2  0
 11  6  1  0
 12 10  1  0
 13 12  1  0
 14 13  2  0
 15 14  1  0
 15 16  2  0
 16 12  1  0
 17 22  2  0
 18 17  1  0
 19 18  2  0
 19 20  1  0
 20 21  2  0
 21 22  1  0
  2 23  1  0
  3 24  1  0
  7 25  1  0
  8 26  1  0
 14 27  1  0
 15 28  1  0
 16 29  1  0
 17 30  1  0
 19 31  1  0
 21 32  1  0
M  ISO  8  23  14  24  14  25  14  26  14  27  14  28  14  29  14  30  14
M  ISO  2  31  14  32  14
M  END
>  <minimizedAffinity>  (1) 
-5.3449707

>  <minimizedRMSD>  (1) 
0.728028655

$$$$
