
     RDKit          3D

 32 34  0  0  0  0  0  0  0  0999 V2000
   38.3980   25.7400   35.4130 C   0  0  0  0  0  0  0  0  0  0  0  0
   38.3780   26.8610   36.2290 C   0  0  0  0  0  0  0  0  0  0  0  0
   37.7450   27.8710   35.5020 C   0  0  0  0  0  0  0  0  0  0  0  0
   37.4230   27.3040   34.3010 C   0  0  0  0  0  0  0  0  0  0  0  0
   37.8180   26.0480   34.2700 O   0  0  0  0  0  0  0  0  0  0  0  0
   36.7430   27.9920   33.2120 C   0  0  0  0  0  0  0  0  0  0  0  0
   35.7600   28.9130   33.4220 C   0  0  0  0  0  0  0  0  0  0  0  0
   35.1290   29.5540   32.3840 C   0  0  0  0  0  0  0  0  0  0  0  0
   35.4890   29.2660   31.1290 N   0  0  0  0  0  0  0  0  0  0  0  0
   36.4690   28.3480   30.9040 C   0  0  0  0  0  0  0  0  0  0  0  0
   37.0670   27.7400   31.9310 N   0  0  0  0  0  0  0  0  0  0  0  0
   36.7980   28.1000   29.5510 N   0  0  0  0  0  0  0  0  0  0  0  0
   38.0020   28.6250   29.0130 C   0  0  0  0  0  0  0  0  0  0  0  0
   39.0800   28.6540   29.7080 N   0  0  0  0  0  0  0  0  0  0  0  0
   38.0550   29.1400   27.6700 N   0  0  0  0  0  0  0  0  0  0  0  0
   39.2030   28.3230   30.6740 H   0  0  0  0  0  0  0  0  0  0  0  0
   38.6980   23.9020   37.1010 C   0  0  0  0  0  0  0  0  0  0  0  0
   38.9900   24.4810   35.8500 C   0  0  0  0  0  0  0  0  0  0  0  0
   39.8680   23.8160   35.0250 C   0  0  0  0  0  0  0  0  0  0  0  0
   40.4360   22.6370   35.4090 N   0  0  0  0  0  0  0  0  0  0  0  0
   40.1200   22.1120   36.6390 C   0  0  0  0  0  0  0  0  0  0  0  0
   39.2620   22.7460   37.4640 N   0  0  0  0  0  0  0  0  0  0  0  0
   38.7818   26.9392   37.2492 H   0  0  0  0  0  0  0  0  0  0  0  0
   37.5475   28.9032   35.8268 H   0  0  0  0  0  0  0  0  0  0  0  0
   35.4631   29.1500   34.4543 H   0  0  0  0  0  0  0  0  0  0  0  0
   34.3391   30.2934   32.5823 H   0  0  0  0  0  0  0  0  0  0  0  0
   36.1670   27.5412   28.9590 H   0  0  0  0  0  0  0  0  0  0  0  0
   38.9382   29.5169   27.2974 H   0  0  0  0  0  0  0  0  0  0  0  0
   37.2097   29.1317   27.0815 H   0  0  0  0  0  0  0  0  0  0  0  0
   37.9995   24.4061   37.7851 H   0  0  0  0  0  0  0  0  0  0  0  0
   40.1154   24.2416   34.0413 H   0  0  0  0  0  0  0  0  0  0  0  0
   40.5734   21.1610   36.9552 H   0  0  0  0  0  0  0  0  0  0  0  0
  1 18  1  0
  1  2  2  0
  3  2  1  0
  4  3  2  0
  5  4  1  0
  5  1  1  0
  6  7  2  0
  6  4  1  0
  8  7  1  0
  9  8  2  0
 10  9  1  0
 10 11  2  0
 11  6  1  0
 12 10  1  0
 13 12  1  0
 13 14  2  0
 14 16  1  0
 15 13  1  0
 17 22  2  0
 18 17  1  0
 19 20  1  0
 19 18  2  0
 20 21  2  0
 21 22  1  0
  2 23  1  0
  3 24  1  0
  7 25  1  0
  8 26  1  0
 12 27  1  0
 15 28  1  0
 15 29  1  0
 17 30  1  0
 19 31  1  0
 21 32  1  0
M  ISO  7  23  14  24  14  25  14  26  14  30  14  31  14  32  14
M  END
>  <minimizedAffinity>  (1) 
-5.69641209

>  <minimizedRMSD>  (1) 
0.809090853

$$$$
