
     RDKit          3D

 38 41  0  0  0  0  0  0  0  0999 V2000
   38.4300   25.7410   35.3910 C   0  0  0  0  0  0  0  0  0  0  0  0
   38.4080   26.8520   36.2460 C   0  0  0  0  0  0  0  0  0  0  0  0
   37.7910   27.8770   35.5200 C   0  0  0  0  0  0  0  0  0  0  0  0
   37.4890   27.3350   34.3050 C   0  0  0  0  0  0  0  0  0  0  0  0
   37.8770   26.0890   34.2690 O   0  0  0  0  0  0  0  0  0  0  0  0
   38.7230   23.8670   37.0540 C   0  0  0  0  0  0  0  0  0  0  0  0
   39.0100   24.4730   35.8250 C   0  0  0  0  0  0  0  0  0  0  0  0
   39.8970   23.8140   34.9870 C   0  0  0  0  0  0  0  0  0  0  0  0
   40.4560   22.6210   35.3690 N   0  0  0  0  0  0  0  0  0  0  0  0
   40.1360   22.0860   36.5780 C   0  0  0  0  0  0  0  0  0  0  0  0
   39.2810   22.7110   37.3980 N   0  0  0  0  0  0  0  0  0  0  0  0
   36.8290   28.0380   33.2060 C   0  0  0  0  0  0  0  0  0  0  0  0
   35.6930   28.7930   33.4260 C   0  0  0  0  0  0  0  0  0  0  0  0
   35.0720   29.4580   32.3770 C   0  0  0  0  0  0  0  0  0  0  0  0
   35.5810   29.3660   31.1440 N   0  0  0  0  0  0  0  0  0  0  0  0
   36.6990   28.6190   30.9440 C   0  0  0  0  0  0  0  0  0  0  0  0
   37.3300   27.9580   31.9460 N   0  0  0  0  0  0  0  0  0  0  0  0
   37.2510   28.5240   29.5800 C   0  0  0  0  0  0  0  0  0  0  0  0
   37.4630   29.8530   28.9070 C   0  0  0  0  0  0  0  0  0  0  0  0
   38.5950   29.6150   27.9020 C   0  0  0  0  0  0  0  0  0  0  0  0
   39.0260   28.1700   28.0960 C   0  0  0  0  0  0  0  0  0  0  0  0
   38.6450   27.9480   29.5510 C   0  0  0  0  0  0  0  0  0  0  0  0
   38.7953   26.9066   37.2741 H   0  0  0  0  0  0  0  0  0  0  0  0
   37.5913   28.9045   35.8582 H   0  0  0  0  0  0  0  0  0  0  0  0
   38.0231   24.3565   37.7473 H   0  0  0  0  0  0  0  0  0  0  0  0
   40.1537   24.2504   34.0105 H   0  0  0  0  0  0  0  0  0  0  0  0
   40.5842   21.1297   36.8856 H   0  0  0  0  0  0  0  0  0  0  0  0
   35.2767   28.8680   34.4414 H   0  0  0  0  0  0  0  0  0  0  0  0
   34.1673   30.0565   32.5592 H   0  0  0  0  0  0  0  0  0  0  0  0
   36.4941   27.9038   29.0774 H   0  0  0  0  0  0  0  0  0  0  0  0
   36.5474   30.1739   28.3886 H   0  0  0  0  0  0  0  0  0  0  0  0
   37.7118   30.6454   29.6283 H   0  0  0  0  0  0  0  0  0  0  0  0
   39.4354   30.2955   28.1037 H   0  0  0  0  0  0  0  0  0  0  0  0
   38.2654   29.8035   26.8696 H   0  0  0  0  0  0  0  0  0  0  0  0
   38.4774   27.4912   27.4264 H   0  0  0  0  0  0  0  0  0  0  0  0
   40.0852   27.9779   27.8696 H   0  0  0  0  0  0  0  0  0  0  0  0
   38.6448   26.8787   29.8090 H   0  0  0  0  0  0  0  0  0  0  0  0
   39.3373   28.4046   30.2737 H   0  0  0  0  0  0  0  0  0  0  0  0
  1  7  1  0
  1  2  2  0
  3  2  1  0
  4  3  2  0
  5  4  1  0
  5  1  1  0
  6 11  2  0
  7  6  1  0
  8  9  1  0
  8  7  2  0
  9 10  2  0
 10 11  1  0
 12 13  2  0
 12  4  1  0
 14 13  1  0
 15 14  2  0
 16 15  1  0
 16 17  2  0
 17 12  1  0
 18 16  1  0
 19 18  1  0
 20 21  1  0
 20 19  1  0
 21 22  1  0
 22 18  1  0
  2 23  1  0
  3 24  1  0
  6 25  1  0
  8 26  1  0
 10 27  1  0
 13 28  1  0
 14 29  1  0
 18 30  1  0
 19 31  1  0
 19 32  1  0
 20 33  1  0
 20 34  1  0
 21 35  1  0
 21 36  1  0
 22 37  1  0
 22 38  1  0
M  ISO  8  23  14  24  14  25  14  26  14  27  14  28  14  29  14  30  13
M  ISO  8  31  13  32  13  33  13  34  13  35  13  36  13  37  13  38  13
M  END
>  <minimizedAffinity>  (1) 
-5.23543549

>  <minimizedRMSD>  (1) 
1.45525682

$$$$
