
     RDKit          3D

 26 28  0  0  0  0  0  0  0  0999 V2000
   38.4630   25.6780   35.3870 C   0  0  0  0  0  0  0  0  0  0  0  0
   38.3880   26.8090   36.2190 C   0  0  0  0  0  0  0  0  0  0  0  0
   37.7630   27.8040   35.4550 C   0  0  0  0  0  0  0  0  0  0  0  0
   37.5060   27.2350   34.2440 C   0  0  0  0  0  0  0  0  0  0  0  0
   37.9280   25.9980   34.2440 O   0  0  0  0  0  0  0  0  0  0  0  0
   38.7330   23.8370   37.0840 C   0  0  0  0  0  0  0  0  0  0  0  0
   39.0660   24.4350   35.8610 C   0  0  0  0  0  0  0  0  0  0  0  0
   40.0190   23.8090   35.0570 C   0  0  0  0  0  0  0  0  0  0  0  0
   40.6020   22.6400   35.4760 N   0  0  0  0  0  0  0  0  0  0  0  0
   40.2460   22.1030   36.6680 C   0  0  0  0  0  0  0  0  0  0  0  0
   39.3280   22.6990   37.4490 N   0  0  0  0  0  0  0  0  0  0  0  0
   36.8600   27.8920   33.1130 C   0  0  0  0  0  0  0  0  0  0  0  0
   36.0060   28.9600   33.3190 C   0  0  0  0  0  0  0  0  0  0  0  0
   35.3850   29.5960   32.2610 C   0  0  0  0  0  0  0  0  0  0  0  0
   35.6220   29.1600   31.0190 N   0  0  0  0  0  0  0  0  0  0  0  0
   36.4620   28.1090   30.8290 C   0  0  0  0  0  0  0  0  0  0  0  0
   37.0840   27.4670   31.8450 N   0  0  0  0  0  0  0  0  0  0  0  0
   36.6220   27.7550   29.4930 O   0  0  0  0  0  0  0  0  0  0  0  0
   38.7460   26.8951   37.2556 H   0  0  0  0  0  0  0  0  0  0  0  0
   37.5284   28.8320   35.7684 H   0  0  0  0  0  0  0  0  0  0  0  0
   37.9841   24.3036   37.7408 H   0  0  0  0  0  0  0  0  0  0  0  0
   40.3020   24.2513   34.0904 H   0  0  0  0  0  0  0  0  0  0  0  0
   40.7149   21.1656   37.0017 H   0  0  0  0  0  0  0  0  0  0  0  0
   35.8174   29.3099   34.3447 H   0  0  0  0  0  0  0  0  0  0  0  0
   34.7083   30.4451   32.4370 H   0  0  0  0  0  0  0  0  0  0  0  0
   37.2145   27.0006   29.2484 H   0  0  0  0  0  0  0  0  0  0  0  0
  1  7  1  0
  1  2  2  0
  3  2  1  0
  4  5  1  0
  4  3  2  0
  5  1  1  0
  6 11  2  0
  7  6  1  0
  8  9  1  0
  8  7  2  0
  9 10  2  0
 10 11  1  0
 12 13  2  0
 12  4  1  0
 14 13  1  0
 15 14  2  0
 16 15  1  0
 16 17  2  0
 17 12  1  0
 18 16  1  0
  2 19  1  0
  3 20  1  0
  6 21  1  0
  8 22  1  0
 10 23  1  0
 13 24  1  0
 14 25  1  0
 18 26  1  0
M  ISO  8  19  14  20  14  21  14  22  14  23  14  24  14  25  14  26   3
M  END
>  <minimizedAffinity>  (1) 
-5.05705738

>  <minimizedRMSD>  (1) 
0.561717451

$$$$
