
     RDKit          3D

 31 34  0  0  0  0  0  0  0  0999 V2000
   38.6040   25.6700   35.4850 C   0  0  0  0  0  0  0  0  0  0  0  0
   38.2770   26.8300   36.2090 C   0  0  0  0  0  0  0  0  0  0  0  0
   37.7790   27.7310   35.2730 C   0  0  0  0  0  0  0  0  0  0  0  0
   37.8270   27.0950   34.0710 C   0  0  0  0  0  0  0  0  0  0  0  0
   38.3160   25.8890   34.2340 O   0  0  0  0  0  0  0  0  0  0  0  0
   38.6220   23.9520   37.3250 C   0  0  0  0  0  0  0  0  0  0  0  0
   39.1620   24.4950   36.1490 C   0  0  0  0  0  0  0  0  0  0  0  0
   40.2800   23.8830   35.5950 C   0  0  0  0  0  0  0  0  0  0  0  0
   40.8280   22.7790   36.1940 N   0  0  0  0  0  0  0  0  0  0  0  0
   40.2610   22.2920   37.3390 C   0  0  0  0  0  0  0  0  0  0  0  0
   39.1710   22.8720   37.8970 N   0  0  0  0  0  0  0  0  0  0  0  0
   37.4050   27.6590   32.8080 C   0  0  0  0  0  0  0  0  0  0  0  0
   36.2280   28.3620   32.6780 C   0  0  0  0  0  0  0  0  0  0  0  0
   35.8050   28.9100   31.4820 C   0  0  0  0  0  0  0  0  0  0  0  0
   36.5890   28.7420   30.3980 N   0  0  0  0  0  0  0  0  0  0  0  0
   37.7340   28.0580   30.5260 C   0  0  0  0  0  0  0  0  0  0  0  0
   38.1590   27.5170   31.6920 N   0  0  0  0  0  0  0  0  0  0  0  0
   38.6240   27.8530   29.3570 C   0  0  0  0  0  0  0  0  0  0  0  0
   38.5890   28.6600   28.1760 C   0  0  0  0  0  0  0  0  0  0  0  0
   39.8880   27.9000   27.1710 S   0  0  0  0  0  0  0  0  0  0  0  0
   40.2720   26.5990   28.5260 C   0  0  0  0  0  0  0  0  0  0  0  0
   39.4920   26.8600   29.4290 N   0  0  0  0  0  0  0  0  0  0  0  0
   38.3912   26.9917   37.2910 H   0  0  0  0  0  0  0  0  0  0  0  0
   37.4188   28.7523   35.4659 H   0  0  0  0  0  0  0  0  0  0  0  0
   37.7373   24.4187   37.7827 H   0  0  0  0  0  0  0  0  0  0  0  0
   40.7260   24.2857   34.6736 H   0  0  0  0  0  0  0  0  0  0  0  0
   40.7014   21.4060   37.8198 H   0  0  0  0  0  0  0  0  0  0  0  0
   35.5949   28.4935   33.5679 H   0  0  0  0  0  0  0  0  0  0  0  0
   34.8581   29.4660   31.4164 H   0  0  0  0  0  0  0  0  0  0  0  0
   37.9419   29.5178   27.9406 H   0  0  0  0  0  0  0  0  0  0  0  0
   41.0252   25.7979   28.4968 H   0  0  0  0  0  0  0  0  0  0  0  0
  1  7  1  0
  1  2  2  0
  3  2  1  0
  4  5  1  0
  4  3  2  0
  5  1  1  0
  6 11  2  0
  7  6  1  0
  8  7  2  0
  8  9  1  0
  9 10  2  0
 10 11  1  0
 12  4  1  0
 13 12  2  0
 14 13  1  0
 15 16  1  0
 15 14  2  0
 16 17  2  0
 17 12  1  0
 18 22  1  0
 18 16  1  0
 19 18  2  0
 20 19  1  0
 20 21  1  0
 21 22  2  0
  2 23  1  0
  3 24  1  0
  6 25  1  0
  8 26  1  0
 10 27  1  0
 13 28  1  0
 14 29  1  0
 19 30  1  0
 21 31  1  0
M  ISO  8  23  14  24  14  25  14  26  14  27  14  28  14  29  14  30  14
M  ISO  1  31  14
M  END
>  <minimizedAffinity>  (1) 
-5.02973747

>  <minimizedRMSD>  (1) 
0.844545662

$$$$
