
     RDKit          3D

 43 46  0  0  1  0  0  0  0  0999 V2000
   39.1180   23.7500   35.6790 C   0  0  1  0  0  0  0  0  0  0  0  0
   38.4030   24.8430   36.3930 C   0  0  0  0  0  0  0  0  0  0  0  0
   37.7380   24.1380   37.5410 C   0  0  0  0  0  0  0  0  0  0  0  0
   38.7720   23.1470   37.9880 C   0  0  0  0  0  0  0  0  0  0  0  0
   39.5640   22.8060   36.7650 C   0  0  2  0  0  0  0  0  0  0  0  0
   37.8840   23.5670   33.5250 C   0  0  0  0  0  0  0  0  0  0  0  0
   37.0600   22.6840   32.8550 C   0  0  0  0  0  0  0  0  0  0  0  0
   36.9370   21.6230   33.7000 N   0  0  0  0  0  0  0  0  0  0  0  0
   37.6620   21.8970   34.7990 C   0  0  0  0  0  0  0  0  0  0  0  0
   38.2590   23.0970   34.7130 N   0  0  0  0  0  0  0  0  0  0  0  0
   38.3150   24.8740   33.0140 C   0  0  0  0  0  0  0  0  0  0  0  0
   39.5630   25.0000   32.3770 C   0  0  0  0  0  0  0  0  0  0  0  0
   39.9010   26.2980   31.9150 C   0  0  0  0  0  0  0  0  0  0  0  0
   39.0380   27.3040   32.1060 N   0  0  0  0  0  0  0  0  0  0  0  0
   37.8640   27.1410   32.7160 C   0  0  0  0  0  0  0  0  0  0  0  0
   37.4780   25.9220   33.1830 N   0  0  0  0  0  0  0  0  0  0  0  0
   41.0120   22.9070   37.1130 C   0  0  0  0  0  0  0  0  0  0  0  0
   41.8660   23.5120   36.0390 C   0  0  0  0  0  0  0  0  0  0  0  0
   43.1050   22.6730   35.8940 C   0  0  0  0  0  0  0  0  0  0  0  0
   42.9440   21.4660   36.7520 C   0  0  0  0  0  0  0  0  0  0  0  0
   41.5240   21.4720   37.2440 C   0  0  0  0  0  0  0  0  0  0  0  0
   39.9702   24.1263   35.0941 H   0  0  0  0  0  0  0  0  0  0  0  0
   39.1100   25.6037   36.7555 H   0  0  0  0  0  0  0  0  0  0  0  0
   37.6900   25.3794   35.7496 H   0  0  0  0  0  0  0  0  0  0  0  0
   37.4948   24.8441   38.3486 H   0  0  0  0  0  0  0  0  0  0  0  0
   36.7847   23.6663   37.2605 H   0  0  0  0  0  0  0  0  0  0  0  0
   39.4233   23.5922   38.7546 H   0  0  0  0  0  0  0  0  0  0  0  0
   38.3109   22.2536   38.4343 H   0  0  0  0  0  0  0  0  0  0  0  0
   39.4031   21.7813   36.3988 H   0  0  0  0  0  0  0  0  0  0  0  0
   36.6050   22.8096   31.8614 H   0  0  0  0  0  0  0  0  0  0  0  0
   37.7547   21.2214   35.6621 H   0  0  0  0  0  0  0  0  0  0  0  0
   40.2379   24.1415   32.2448 H   0  0  0  0  0  0  0  0  0  0  0  0
   40.8599   26.4759   31.4063 H   0  0  0  0  0  0  0  0  0  0  0  0
   37.1962   28.0057   32.8441 H   0  0  0  0  0  0  0  0  0  0  0  0
   41.0806   23.5352   38.0134 H   0  0  0  0  0  0  0  0  0  0  0  0
   41.3132   23.5268   35.0881 H   0  0  0  0  0  0  0  0  0  0  0  0
   42.1360   24.5445   36.3055 H   0  0  0  0  0  0  0  0  0  0  0  0
   43.2309   22.3709   34.8438 H   0  0  0  0  0  0  0  0  0  0  0  0
   43.9931   23.2452   36.2005 H   0  0  0  0  0  0  0  0  0  0  0  0
   43.1383   20.5556   36.1659 H   0  0  0  0  0  0  0  0  0  0  0  0
   43.6538   21.4803   37.5922 H   0  0  0  0  0  0  0  0  0  0  0  0
   41.4872   21.1522   38.2959 H   0  0  0  0  0  0  0  0  0  0  0  0
   40.9026   20.7783   36.6586 H   0  0  0  0  0  0  0  0  0  0  0  0
  1  2  1  0
  1  5  1  0
  2  3  1  0
  3  4  1  0
  5 17  1  0
  5  4  1  0
  6 10  1  0
  7  6  2  0
  7  8  1  0
  8  9  2  0
 10  9  1  0
 10  1  1  0
 11 16  1  0
 11  6  1  0
 12 11  2  0
 13 14  2  0
 13 12  1  0
 14 15  1  0
 15 16  2  0
 17 21  1  0
 18 17  1  0
 19 18  1  0
 19 20  1  0
 20 21  1  0
  1 22  1  6
  2 23  1  0
  2 24  1  0
  3 25  1  0
  3 26  1  0
  4 27  1  0
  4 28  1  0
  5 29  1  6
  7 30  1  0
  9 31  1  0
 12 32  1  0
 13 33  1  0
 15 34  1  0
 17 35  1  0
 18 36  1  0
 18 37  1  0
 19 38  1  0
 19 39  1  0
 20 40  1  0
 20 41  1  0
 21 42  1  0
 21 43  1  0
M  ISO  8  22  13  23  13  24  13  25  13  26  13  27  13  28  13  29  13
M  ISO  8  30  14  31  14  32  14  33  14  34  14  35  13  36  13  37  13
M  ISO  6  38  13  39  13  40  13  41  13  42  13  43  13
M  END
>  <minimizedAffinity>  (1) 
-5.14788151

>  <minimizedRMSD>  (1) 
0.563281834

$$$$
