
     RDKit          3D

 42 46  0  0  0  0  0  0  0  0999 V2000
   36.6550   28.2030   33.1660 C   0  0  0  0  0  0  0  0  0  0  0  0
   35.5310   28.9560   33.3880 C   0  0  0  0  0  0  0  0  0  0  0  0
   34.8970   29.6650   32.3870 C   0  0  0  0  0  0  0  0  0  0  0  0
   35.4060   29.6120   31.1400 N   0  0  0  0  0  0  0  0  0  0  0  0
   36.5090   28.8720   30.9290 C   0  0  0  0  0  0  0  0  0  0  0  0
   37.1310   28.1790   31.9020 N   0  0  0  0  0  0  0  0  0  0  0  0
   38.2240   25.8150   35.2750 C   0  0  0  0  0  0  0  0  0  0  0  0
   38.2950   26.9500   36.1230 C   0  0  0  0  0  0  0  0  0  0  0  0
   37.7020   27.9930   35.4080 C   0  0  0  0  0  0  0  0  0  0  0  0
   37.3170   27.4600   34.2180 C   0  0  0  0  0  0  0  0  0  0  0  0
   37.6360   26.2030   34.1790 O   0  0  0  0  0  0  0  0  0  0  0  0
   38.6040   24.0300   37.0030 C   0  0  0  0  0  0  0  0  0  0  0  0
   38.7520   24.5370   35.6970 C   0  0  0  0  0  0  0  0  0  0  0  0
   39.4430   23.7630   34.7670 C   0  0  0  0  0  0  0  0  0  0  0  0
   39.9520   22.5420   35.1560 N   0  0  0  0  0  0  0  0  0  0  0  0
   39.7810   22.1000   36.4280 C   0  0  0  0  0  0  0  0  0  0  0  0
   39.1200   22.8400   37.3170 N   0  0  0  0  0  0  0  0  0  0  0  0
   37.0980   28.7920   29.5720 C   0  0  0  0  0  0  0  0  0  0  0  0
   38.6190   28.9080   29.7090 C   0  0  0  0  0  0  0  0  0  0  0  0
   39.1400   27.7370   28.9940 N   0  0  0  0  0  0  0  0  0  0  0  0
   39.4120   27.6760   27.6880 C   0  0  0  0  0  0  0  0  0  0  0  0
   39.8790   26.4360   27.3680 N   0  0  0  0  0  0  0  0  0  0  0  0
   39.8970   25.7120   28.5060 C   0  0  0  0  0  0  0  0  0  0  0  0
   40.2380   24.4460   28.8920 C   0  0  0  0  0  0  0  0  0  0  0  0
   40.1440   23.9910   30.1510 N   0  0  0  0  0  0  0  0  0  0  0  0
   39.6910   24.7970   31.1280 C   0  0  0  0  0  0  0  0  0  0  0  0
   39.3430   26.0560   30.7970 N   0  0  0  0  0  0  0  0  0  0  0  0
   39.4310   26.5230   29.5450 C   0  0  0  0  0  0  0  0  0  0  0  0
   35.1169   28.9971   34.4062 H   0  0  0  0  0  0  0  0  0  0  0  0
   33.9969   30.2596   32.6023 H   0  0  0  0  0  0  0  0  0  0  0  0
   38.7271   26.9986   37.1334 H   0  0  0  0  0  0  0  0  0  0  0  0
   37.5728   29.0337   35.7400 H   0  0  0  0  0  0  0  0  0  0  0  0
   38.0640   24.6141   37.7628 H   0  0  0  0  0  0  0  0  0  0  0  0
   39.5806   24.1213   33.7361 H   0  0  0  0  0  0  0  0  0  0  0  0
   40.1911   21.1240   36.7268 H   0  0  0  0  0  0  0  0  0  0  0  0
   36.7154   29.6145   28.9498 H   0  0  0  0  0  0  0  0  0  0  0  0
   36.8289   27.8385   29.0941 H   0  0  0  0  0  0  0  0  0  0  0  0
   38.9815   29.8386   29.2481 H   0  0  0  0  0  0  0  0  0  0  0  0
   38.9445   28.9371   30.7593 H   0  0  0  0  0  0  0  0  0  0  0  0
   39.2789   28.5038   26.9759 H   0  0  0  0  0  0  0  0  0  0  0  0
   40.6133   23.7562   28.1217 H   0  0  0  0  0  0  0  0  0  0  0  0
   39.6072   24.4395   32.1649 H   0  0  0  0  0  0  0  0  0  0  0  0
  1  2  2  0
  1 10  1  0
  3  2  1  0
  4  3  2  0
  5  4  1  0
  5  6  2  0
  6  1  1  0
  7 13  1  0
  7  8  2  0
  9  8  1  0
 10  9  2  0
 11 10  1  0
 11  7  1  0
 12 17  2  0
 13 12  1  0
 14 15  1  0
 14 13  2  0
 15 16  2  0
 16 17  1  0
 18 19  1  0
 18  5  1  0
 20 28  1  0
 20 19  1  0
 21 20  1  0
 22 21  2  0
 22 23  1  0
 23 24  2  0
 23 28  1  0
 24 25  1  0
 25 26  2  0
 27 26  1  0
 28 27  2  0
  2 29  1  0
  3 30  1  0
  8 31  1  0
  9 32  1  0
 12 33  1  0
 14 34  1  0
 16 35  1  0
 18 36  1  0
 18 37  1  0
 19 38  1  0
 19 39  1  0
 21 40  1  0
 24 41  1  0
 26 42  1  0
M  ISO  8  29  14  30  14  31  14  32  14  33  14  34  14  35  14  36   8
M  ISO  6  37   8  38   8  39   8  40  14  41  14  42  14
M  END
>  <minimizedAffinity>  (1) 
-5.2255311

>  <minimizedRMSD>  (1) 
2.21386623

$$$$
