
     RDKit          3D

 38 41  0  0  0  0  0  0  0  0999 V2000
   36.7380   28.0360   33.3840 C   0  0  0  0  0  0  0  0  0  0  0  0
   35.6620   28.8700   33.6690 C   0  0  0  0  0  0  0  0  0  0  0  0
   34.9920   29.5590   32.6870 C   0  0  0  0  0  0  0  0  0  0  0  0
   35.3860   29.4220   31.4230 N   0  0  0  0  0  0  0  0  0  0  0  0
   36.4250   28.6150   31.1540 C   0  0  0  0  0  0  0  0  0  0  0  0
   37.1120   27.9190   32.0900 N   0  0  0  0  0  0  0  0  0  0  0  0
   38.4150   25.7220   35.4770 C   0  0  0  0  0  0  0  0  0  0  0  0
   38.4620   26.8540   36.3300 C   0  0  0  0  0  0  0  0  0  0  0  0
   37.8250   27.8640   35.6220 C   0  0  0  0  0  0  0  0  0  0  0  0
   37.4380   27.3150   34.4210 C   0  0  0  0  0  0  0  0  0  0  0  0
   37.8000   26.0680   34.3750 O   0  0  0  0  0  0  0  0  0  0  0  0
   38.7310   23.8390   37.1090 C   0  0  0  0  0  0  0  0  0  0  0  0
   38.9950   24.4600   35.8930 C   0  0  0  0  0  0  0  0  0  0  0  0
   39.8820   23.8210   35.0150 C   0  0  0  0  0  0  0  0  0  0  0  0
   40.4440   22.6240   35.3910 N   0  0  0  0  0  0  0  0  0  0  0  0
   40.1420   22.0650   36.6020 C   0  0  0  0  0  0  0  0  0  0  0  0
   39.2980   22.6740   37.4360 N   0  0  0  0  0  0  0  0  0  0  0  0
   36.8870   28.4230   29.7560 C   0  0  0  0  0  0  0  0  0  0  0  0
   37.4720   29.7420   29.2780 C   0  0  0  0  0  0  0  0  0  0  0  0
   38.4610   29.3340   28.2150 C   0  0  0  0  0  0  0  0  0  0  0  0
   39.1630   28.1610   28.0170 C   0  0  0  0  0  0  0  0  0  0  0  0
   39.9470   28.2900   26.8900 C   0  0  0  0  0  0  0  0  0  0  0  0
   39.7210   29.5280   26.4150 N   0  0  0  0  0  0  0  0  0  0  0  0
   38.8470   30.1480   27.1900 N   0  0  0  0  0  0  0  0  0  0  0  0
   35.3370   28.9816   34.7140 H   0  0  0  0  0  0  0  0  0  0  0  0
   34.1445   30.2126   32.9411 H   0  0  0  0  0  0  0  0  0  0  0  0
   38.9065   26.9178   37.3342 H   0  0  0  0  0  0  0  0  0  0  0  0
   37.6617   28.8995   35.9554 H   0  0  0  0  0  0  0  0  0  0  0  0
   38.0395   24.3178   37.8180 H   0  0  0  0  0  0  0  0  0  0  0  0
   40.1244   24.2704   34.0407 H   0  0  0  0  0  0  0  0  0  0  0  0
   40.5983   21.1065   36.8902 H   0  0  0  0  0  0  0  0  0  0  0  0
   37.6558   27.6371   29.7200 H   0  0  0  0  0  0  0  0  0  0  0  0
   36.0496   28.1167   29.1119 H   0  0  0  0  0  0  0  0  0  0  0  0
   36.6881   30.3882   28.8563 H   0  0  0  0  0  0  0  0  0  0  0  0
   37.9359   30.3204   30.0905 H   0  0  0  0  0  0  0  0  0  0  0  0
   39.1058   27.2674   28.6558 H   0  0  0  0  0  0  0  0  0  0  0  0
   40.6218   27.5325   26.4647 H   0  0  0  0  0  0  0  0  0  0  0  0
   40.1614   29.9315   25.5758 H   0  0  0  0  0  0  0  0  0  0  0  0
  1  2  2  0
  1 10  1  0
  3  2  1  0
  4  3  2  0
  5  4  1  0
  5  6  2  0
  6  1  1  0
  7 13  1  0
  7  8  2  0
  9  8  1  0
 10  9  2  0
 11 10  1  0
 11  7  1  0
 12 17  2  0
 13 12  1  0
 14 15  1  0
 14 13  2  0
 15 16  2  0
 16 17  1  0
 18  5  1  0
 19 18  1  0
 20 19  1  0
 21 20  1  0
 22 21  2  0
 23 22  1  0
 23 24  1  0
 24 20  2  0
  2 25  1  0
  3 26  1  0
  8 27  1  0
  9 28  1  0
 12 29  1  0
 14 30  1  0
 16 31  1  0
 18 32  1  0
 18 33  1  0
 19 34  1  0
 19 35  1  0
 21 36  1  0
 22 37  1  0
 23 38  1  0
M  ISO  8  25  14  26  14  27  14  28  14  29  14  30  14  31  14  32   8
M  ISO  6  33   8  34   8  35   8  36  14  37  14  38   9
M  END
>  <minimizedAffinity>  (1) 
-5.07978249

>  <minimizedRMSD>  (1) 
0.939885557

$$$$
