
     RDKit          3D

 40 43  0  0  0  0  0  0  0  0999 V2000
   36.7570   28.0510   33.3330 C   0  0  0  0  0  0  0  0  0  0  0  0
   35.6920   28.8870   33.5710 C   0  0  0  0  0  0  0  0  0  0  0  0
   35.0360   29.5720   32.5810 C   0  0  0  0  0  0  0  0  0  0  0  0
   35.4630   29.4140   31.3160 N   0  0  0  0  0  0  0  0  0  0  0  0
   36.4970   28.6050   31.0740 C   0  0  0  0  0  0  0  0  0  0  0  0
   37.1550   27.9230   32.0320 N   0  0  0  0  0  0  0  0  0  0  0  0
   38.3980   25.7350   35.4500 C   0  0  0  0  0  0  0  0  0  0  0  0
   38.4210   26.8640   36.2930 C   0  0  0  0  0  0  0  0  0  0  0  0
   37.7940   27.8800   35.5760 C   0  0  0  0  0  0  0  0  0  0  0  0
   37.4360   27.3390   34.3810 C   0  0  0  0  0  0  0  0  0  0  0  0
   37.8050   26.0990   34.3530 O   0  0  0  0  0  0  0  0  0  0  0  0
   38.7110   23.8810   37.1090 C   0  0  0  0  0  0  0  0  0  0  0  0
   38.9730   24.4800   35.8830 C   0  0  0  0  0  0  0  0  0  0  0  0
   39.8490   23.8230   35.0180 C   0  0  0  0  0  0  0  0  0  0  0  0
   40.4140   22.6230   35.4030 N   0  0  0  0  0  0  0  0  0  0  0  0
   40.1170   22.0890   36.6190 C   0  0  0  0  0  0  0  0  0  0  0  0
   39.2700   22.7150   37.4630 N   0  0  0  0  0  0  0  0  0  0  0  0
   36.9930   28.4080   29.6880 C   0  0  0  0  0  0  0  0  0  0  0  0
   37.4280   29.7670   29.1510 C   0  0  0  0  0  0  0  0  0  0  0  0
   38.4720   29.4860   28.1120 C   0  0  0  0  0  0  0  0  0  0  0  0
   38.9670   28.1840   28.0050 C   0  0  0  0  0  0  0  0  0  0  0  0
   39.9370   27.8670   27.0580 C   0  0  0  0  0  0  0  0  0  0  0  0
   40.3730   28.8940   26.2490 C   0  0  0  0  0  0  0  0  0  0  0  0
   39.8840   30.1850   26.3540 C   0  0  0  0  0  0  0  0  0  0  0  0
   38.9340   30.4670   27.2910 N   0  0  0  0  0  0  0  0  0  0  0  0
   35.3487   29.0127   34.6085 H   0  0  0  0  0  0  0  0  0  0  0  0
   34.1865   30.2306   32.8145 H   0  0  0  0  0  0  0  0  0  0  0  0
   38.8455   26.9292   37.3057 H   0  0  0  0  0  0  0  0  0  0  0  0
   37.6226   28.9140   35.9098 H   0  0  0  0  0  0  0  0  0  0  0  0
   38.0245   24.3783   37.8100 H   0  0  0  0  0  0  0  0  0  0  0  0
   40.0879   24.2579   34.0363 H   0  0  0  0  0  0  0  0  0  0  0  0
   40.5736   21.1340   36.9181 H   0  0  0  0  0  0  0  0  0  0  0  0
   37.8480   27.7159   29.6914 H   0  0  0  0  0  0  0  0  0  0  0  0
   36.2025   27.9796   29.0543 H   0  0  0  0  0  0  0  0  0  0  0  0
   36.5724   30.2918   28.7009 H   0  0  0  0  0  0  0  0  0  0  0  0
   37.8202   30.4102   29.9526 H   0  0  0  0  0  0  0  0  0  0  0  0
   38.5861   27.4005   28.6765 H   0  0  0  0  0  0  0  0  0  0  0  0
   40.3360   26.8466   26.9602 H   0  0  0  0  0  0  0  0  0  0  0  0
   41.1397   28.6796   25.4900 H   0  0  0  0  0  0  0  0  0  0  0  0
   40.2583   30.9761   25.6877 H   0  0  0  0  0  0  0  0  0  0  0  0
  1  2  2  0
  1 10  1  0
  3  2  1  0
  4  3  2  0
  5  4  1  0
  5  6  2  0
  6  1  1  0
  7 13  1  0
  7  8  2  0
  9  8  1  0
 10  9  2  0
 11 10  1  0
 11  7  1  0
 12 17  2  0
 13 12  1  0
 14 15  1  0
 14 13  2  0
 15 16  2  0
 16 17  1  0
 18  5  1  0
 19 18  1  0
 20 19  1  0
 21 20  2  0
 22 21  1  0
 23 24  1  0
 23 22  2  0
 24 25  2  0
 25 20  1  0
  2 26  1  0
  3 27  1  0
  8 28  1  0
  9 29  1  0
 12 30  1  0
 14 31  1  0
 16 32  1  0
 18 33  1  0
 18 34  1  0
 19 35  1  0
 19 36  1  0
 21 37  1  0
 22 38  1  0
 23 39  1  0
 24 40  1  0
M  ISO  8  26  14  27  14  28  14  29  14  30  14  31  14  32  14  33   8
M  ISO  7  34   8  35   8  36   8  37  14  38  14  39  14  40  14
M  END
>  <minimizedAffinity>  (1) 
-5.07969427

>  <minimizedRMSD>  (1) 
0.944177568

$$$$
