
     RDKit          3D

 39 42  0  0  0  0  0  0  0  0999 V2000
   36.7400   28.0460   33.3670 C   0  0  0  0  0  0  0  0  0  0  0  0
   35.6820   28.8780   33.6430 C   0  0  0  0  0  0  0  0  0  0  0  0
   35.0110   29.5640   32.6520 C   0  0  0  0  0  0  0  0  0  0  0  0
   35.4020   29.4130   31.3840 N   0  0  0  0  0  0  0  0  0  0  0  0
   36.4460   28.5920   31.1220 C   0  0  0  0  0  0  0  0  0  0  0  0
   37.1350   27.8970   32.0660 N   0  0  0  0  0  0  0  0  0  0  0  0
   38.4290   25.7300   35.4720 C   0  0  0  0  0  0  0  0  0  0  0  0
   38.4530   26.8500   36.3160 C   0  0  0  0  0  0  0  0  0  0  0  0
   37.8110   27.8750   35.6170 C   0  0  0  0  0  0  0  0  0  0  0  0
   37.4410   27.3280   34.4130 C   0  0  0  0  0  0  0  0  0  0  0  0
   37.8180   26.0790   34.3660 O   0  0  0  0  0  0  0  0  0  0  0  0
   38.7330   23.8470   37.0990 C   0  0  0  0  0  0  0  0  0  0  0  0
   39.0110   24.4630   35.8710 C   0  0  0  0  0  0  0  0  0  0  0  0
   39.8830   23.8180   35.0140 C   0  0  0  0  0  0  0  0  0  0  0  0
   40.4410   22.6160   35.3850 N   0  0  0  0  0  0  0  0  0  0  0  0
   40.1330   22.0700   36.5860 C   0  0  0  0  0  0  0  0  0  0  0  0
   39.2910   22.6770   37.4300 N   0  0  0  0  0  0  0  0  0  0  0  0
   36.9350   28.3790   29.7240 C   0  0  0  0  0  0  0  0  0  0  0  0
   37.4080   29.7520   29.2240 C   0  0  0  0  0  0  0  0  0  0  0  0
   38.4350   29.4940   28.1750 C   0  0  0  0  0  0  0  0  0  0  0  0
   38.9540   28.2260   28.0230 C   0  0  0  0  0  0  0  0  0  0  0  0
   39.9080   27.9560   27.0590 C   0  0  0  0  0  0  0  0  0  0  0  0
   40.3200   28.9580   26.2710 N   0  0  0  0  0  0  0  0  0  0  0  0
   39.8350   30.1950   26.3970 C   0  0  0  0  0  0  0  0  0  0  0  0
   38.8930   30.4710   27.3450 N   0  0  0  0  0  0  0  0  0  0  0  0
   35.3597   29.0010   34.6875 H   0  0  0  0  0  0  0  0  0  0  0  0
   34.1677   30.2246   32.9021 H   0  0  0  0  0  0  0  0  0  0  0  0
   38.8890   26.9092   37.3241 H   0  0  0  0  0  0  0  0  0  0  0  0
   37.6379   28.9058   35.9597 H   0  0  0  0  0  0  0  0  0  0  0  0
   38.0432   24.3346   37.8036 H   0  0  0  0  0  0  0  0  0  0  0  0
   40.1299   24.2638   34.0392 H   0  0  0  0  0  0  0  0  0  0  0  0
   40.5841   21.1086   36.8728 H   0  0  0  0  0  0  0  0  0  0  0  0
   37.7691   27.6619   29.7165 H   0  0  0  0  0  0  0  0  0  0  0  0
   36.1438   27.9677   29.0800 H   0  0  0  0  0  0  0  0  0  0  0  0
   36.5628   30.3122   28.7977 H   0  0  0  0  0  0  0  0  0  0  0  0
   37.8243   30.3514   30.0470 H   0  0  0  0  0  0  0  0  0  0  0  0
   38.6036   27.4157   28.6792 H   0  0  0  0  0  0  0  0  0  0  0  0
   40.3189   26.9424   26.9420 H   0  0  0  0  0  0  0  0  0  0  0  0
   40.1960   30.9952   25.7341 H   0  0  0  0  0  0  0  0  0  0  0  0
  1  2  2  0
  1 10  1  0
  3  2  1  0
  4  3  2  0
  5  4  1  0
  5  6  2  0
  6  1  1  0
  7 13  1  0
  7  8  2  0
  9  8  1  0
 10  9  2  0
 11 10  1  0
 11  7  1  0
 12 17  2  0
 13 12  1  0
 14 15  1  0
 14 13  2  0
 15 16  2  0
 16 17  1  0
 18  5  1  0
 19 18  1  0
 20 19  1  0
 21 20  2  0
 22 21  1  0
 23 24  1  0
 23 22  2  0
 24 25  2  0
 25 20  1  0
  2 26  1  0
  3 27  1  0
  8 28  1  0
  9 29  1  0
 12 30  1  0
 14 31  1  0
 16 32  1  0
 18 33  1  0
 18 34  1  0
 19 35  1  0
 19 36  1  0
 21 37  1  0
 22 38  1  0
 24 39  1  0
M  ISO  8  26  14  27  14  28  14  29  14  30  14  31  14  32  14  33   8
M  ISO  6  34   8  35   8  36   8  37  14  38  14  39  14
M  END
>  <minimizedAffinity>  (1) 
-5.0409646

>  <minimizedRMSD>  (1) 
1.02635562

$$$$
