
     RDKit          3D

 44 47  0  0  0  0  0  0  0  0999 V2000
   36.7550   28.0410   33.3680 C   0  0  0  0  0  0  0  0  0  0  0  0
   35.6720   28.8670   33.6330 C   0  0  0  0  0  0  0  0  0  0  0  0
   34.9930   29.5580   32.6440 C   0  0  0  0  0  0  0  0  0  0  0  0
   35.4090   29.4150   31.3800 N   0  0  0  0  0  0  0  0  0  0  0  0
   36.4500   28.6200   31.1260 C   0  0  0  0  0  0  0  0  0  0  0  0
   37.1320   27.9330   32.0730 N   0  0  0  0  0  0  0  0  0  0  0  0
   38.4280   25.7200   35.4610 C   0  0  0  0  0  0  0  0  0  0  0  0
   38.4520   26.8460   36.3120 C   0  0  0  0  0  0  0  0  0  0  0  0
   37.8120   27.8630   35.6030 C   0  0  0  0  0  0  0  0  0  0  0  0
   37.4460   27.3320   34.4090 C   0  0  0  0  0  0  0  0  0  0  0  0
   37.8210   26.0780   34.3560 O   0  0  0  0  0  0  0  0  0  0  0  0
   38.7390   23.8400   37.0870 C   0  0  0  0  0  0  0  0  0  0  0  0
   39.0100   24.4630   35.8690 C   0  0  0  0  0  0  0  0  0  0  0  0
   39.8910   23.8240   35.0170 C   0  0  0  0  0  0  0  0  0  0  0  0
   40.4500   22.6290   35.3940 N   0  0  0  0  0  0  0  0  0  0  0  0
   40.1480   22.0700   36.5960 C   0  0  0  0  0  0  0  0  0  0  0  0
   39.3010   22.6790   37.4220 N   0  0  0  0  0  0  0  0  0  0  0  0
   36.9520   28.4290   29.7260 C   0  0  0  0  0  0  0  0  0  0  0  0
   37.3460   29.7900   29.2000 C   0  0  0  0  0  0  0  0  0  0  0  0
   38.5460   29.7680   28.3000 C   0  0  0  0  0  0  0  0  0  0  0  0
   39.0200   28.3780   27.9860 C   0  0  0  0  0  0  0  0  0  0  0  0
   40.5080   28.3790   28.3390 C   0  0  0  0  0  0  0  0  0  0  0  0
   40.8990   29.8530   28.1720 C   0  0  0  0  0  0  0  0  0  0  0  0
   39.7230   30.5190   28.8540 C   0  0  0  0  0  0  0  0  0  0  0  0
   35.3381   28.9777   34.6752 H   0  0  0  0  0  0  0  0  0  0  0  0
   34.1378   30.2048   32.8896 H   0  0  0  0  0  0  0  0  0  0  0  0
   38.8843   26.9085   37.3216 H   0  0  0  0  0  0  0  0  0  0  0  0
   37.6381   28.8939   35.9450 H   0  0  0  0  0  0  0  0  0  0  0  0
   38.0425   24.3200   37.7902 H   0  0  0  0  0  0  0  0  0  0  0  0
   40.1422   24.2703   34.0435 H   0  0  0  0  0  0  0  0  0  0  0  0
   40.6048   21.1123   36.8862 H   0  0  0  0  0  0  0  0  0  0  0  0
   37.8243   27.7589   29.7271 H   0  0  0  0  0  0  0  0  0  0  0  0
   36.1751   27.9766   29.0921 H   0  0  0  0  0  0  0  0  0  0  0  0
   36.4968   30.2026   28.6355 H   0  0  0  0  0  0  0  0  0  0  0  0
   37.6113   30.4056   30.0721 H   0  0  0  0  0  0  0  0  0  0  0  0
   38.1858   30.2625   27.3858 H   0  0  0  0  0  0  0  0  0  0  0  0
   38.4787   27.6382   28.5941 H   0  0  0  0  0  0  0  0  0  0  0  0
   38.8448   28.1091   26.9339 H   0  0  0  0  0  0  0  0  0  0  0  0
   40.6695   28.0415   29.3734 H   0  0  0  0  0  0  0  0  0  0  0  0
   41.1034   27.6981   27.7130 H   0  0  0  0  0  0  0  0  0  0  0  0
   41.8479   30.0830   28.6786 H   0  0  0  0  0  0  0  0  0  0  0  0
   41.0712   30.1706   27.1330 H   0  0  0  0  0  0  0  0  0  0  0  0
   39.6684   31.5869   28.5959 H   0  0  0  0  0  0  0  0  0  0  0  0
   39.7817   30.4868   29.9520 H   0  0  0  0  0  0  0  0  0  0  0  0
  1  2  2  0
  1 10  1  0
  3  2  1  0
  4  3  2  0
  5  4  1  0
  5  6  2  0
  6  1  1  0
  7 13  1  0
  7  8  2  0
  9  8  1  0
 10  9  2  0
 11 10  1  0
 11  7  1  0
 12 17  2  0
 13 12  1  0
 14 15  1  0
 14 13  2  0
 15 16  2  0
 16 17  1  0
 18  5  1  0
 19 18  1  0
 20 24  1  0
 20 19  1  0
 21 20  1  0
 21 22  1  0
 23 22  1  0
 23 24  1  0
  2 25  1  0
  3 26  1  0
  8 27  1  0
  9 28  1  0
 12 29  1  0
 14 30  1  0
 16 31  1  0
 18 32  1  0
 18 33  1  0
 19 34  1  0
 19 35  1  0
 20 36  1  0
 21 37  1  0
 21 38  1  0
 22 39  1  0
 22 40  1  0
 23 41  1  0
 23 42  1  0
 24 43  1  0
 24 44  1  0
M  ISO  8  25  14  26  14  27  14  28  14  29  14  30  14  31  14  32   8
M  ISO  8  33   8  34   8  35   8  36  13  37  13  38  13  39  13  40  13
M  ISO  4  41  13  42  13  43  13  44  13
M  END
>  <minimizedAffinity>  (1) 
-4.90531635

>  <minimizedRMSD>  (1) 
1.07723868

$$$$
