
     RDKit          3D

 43 46  0  0  0  0  0  0  0  0999 V2000
   36.7390   28.0450   33.3520 C   0  0  0  0  0  0  0  0  0  0  0  0
   35.6520   28.8600   33.6150 C   0  0  0  0  0  0  0  0  0  0  0  0
   34.9920   29.5450   32.6130 C   0  0  0  0  0  0  0  0  0  0  0  0
   35.4270   29.4100   31.3420 N   0  0  0  0  0  0  0  0  0  0  0  0
   36.4850   28.6140   31.1100 C   0  0  0  0  0  0  0  0  0  0  0  0
   37.1660   27.9200   32.0540 N   0  0  0  0  0  0  0  0  0  0  0  0
   38.4190   25.7270   35.4580 C   0  0  0  0  0  0  0  0  0  0  0  0
   38.4430   26.8570   36.3050 C   0  0  0  0  0  0  0  0  0  0  0  0
   37.8030   27.8820   35.6020 C   0  0  0  0  0  0  0  0  0  0  0  0
   37.4390   27.3250   34.4020 C   0  0  0  0  0  0  0  0  0  0  0  0
   37.8110   26.0780   34.3520 O   0  0  0  0  0  0  0  0  0  0  0  0
   38.7200   23.8620   37.1100 C   0  0  0  0  0  0  0  0  0  0  0  0
   39.0010   24.4660   35.8680 C   0  0  0  0  0  0  0  0  0  0  0  0
   39.8700   23.8220   35.0060 C   0  0  0  0  0  0  0  0  0  0  0  0
   40.4200   22.6220   35.3980 N   0  0  0  0  0  0  0  0  0  0  0  0
   40.1220   22.0770   36.6050 C   0  0  0  0  0  0  0  0  0  0  0  0
   39.2830   22.6970   37.4370 N   0  0  0  0  0  0  0  0  0  0  0  0
   37.0100   28.4570   29.7420 C   0  0  0  0  0  0  0  0  0  0  0  0
   37.3650   29.8230   29.1960 C   0  0  0  0  0  0  0  0  0  0  0  0
   37.9810   29.8140   27.9170 N   0  0  0  0  0  0  0  0  0  0  0  0
   38.0380   31.0390   27.2050 C   0  0  0  0  0  0  0  0  0  0  0  0
   39.4740   31.1920   26.7040 C   0  0  0  0  0  0  0  0  0  0  0  0
   39.9440   29.7540   26.6120 C   0  0  0  0  0  0  0  0  0  0  0  0
   39.2250   29.1250   27.8130 C   0  0  0  0  0  0  0  0  0  0  0  0
   35.3030   28.9656   34.6528 H   0  0  0  0  0  0  0  0  0  0  0  0
   34.1298   30.1872   32.8460 H   0  0  0  0  0  0  0  0  0  0  0  0
   38.8774   26.9182   37.3137 H   0  0  0  0  0  0  0  0  0  0  0  0
   37.6285   28.9145   35.9389 H   0  0  0  0  0  0  0  0  0  0  0  0
   38.0326   24.3537   37.8140 H   0  0  0  0  0  0  0  0  0  0  0  0
   40.1167   24.2594   34.0273 H   0  0  0  0  0  0  0  0  0  0  0  0
   40.5748   21.1186   36.8990 H   0  0  0  0  0  0  0  0  0  0  0  0
   37.9079   27.8218   29.7612 H   0  0  0  0  0  0  0  0  0  0  0  0
   36.2502   27.9847   29.1020 H   0  0  0  0  0  0  0  0  0  0  0  0
   36.4398   30.4138   29.1255 H   0  0  0  0  0  0  0  0  0  0  0  0
   38.1029   30.2506   29.8907 H   0  0  0  0  0  0  0  0  0  0  0  0
   37.3407   31.0156   26.3546 H   0  0  0  0  0  0  0  0  0  0  0  0
   37.7525   31.8837   27.8492 H   0  0  0  0  0  0  0  0  0  0  0  0
   39.5016   31.6830   25.7201 H   0  0  0  0  0  0  0  0  0  0  0  0
   40.1016   31.8177   27.3556 H   0  0  0  0  0  0  0  0  0  0  0  0
   39.6311   29.2879   25.6661 H   0  0  0  0  0  0  0  0  0  0  0  0
   41.0375   29.6356   26.6291 H   0  0  0  0  0  0  0  0  0  0  0  0
   39.0566   28.0517   27.6410 H   0  0  0  0  0  0  0  0  0  0  0  0
   39.8182   29.2130   28.7352 H   0  0  0  0  0  0  0  0  0  0  0  0
  1  2  2  0
  1 10  1  0
  3  2  1  0
  4  3  2  0
  5  4  1  0
  5  6  2  0
  6  1  1  0
  7 13  1  0
  7  8  2  0
  9  8  1  0
 10  9  2  0
 11 10  1  0
 11  7  1  0
 12 17  2  0
 13 12  1  0
 14 15  1  0
 14 13  2  0
 15 16  2  0
 16 17  1  0
 18  5  1  0
 19 18  1  0
 20 19  1  0
 21 20  1  0
 22 21  1  0
 23 22  1  0
 23 24  1  0
 24 20  1  0
  2 25  1  0
  3 26  1  0
  8 27  1  0
  9 28  1  0
 12 29  1  0
 14 30  1  0
 16 31  1  0
 18 32  1  0
 18 33  1  0
 19 34  1  0
 19 35  1  0
 21 36  1  0
 21 37  1  0
 22 38  1  0
 22 39  1  0
 23 40  1  0
 23 41  1  0
 24 42  1  0
 24 43  1  0
M  ISO  8  25  14  26  14  27  14  28  14  29  14  30  14  31  14  32   8
M  ISO  8  33   8  34   8  35   8  36  13  37  13  38  13  39  13  40  13
M  ISO  3  41  13  42  13  43  13
M  END
>  <minimizedAffinity>  (1) 
-4.87799406

>  <minimizedRMSD>  (1) 
0.843137145

$$$$
