
     RDKit          3D

 39 42  0  0  0  0  0  0  0  0999 V2000
   37.2890   27.7110   33.0050 C   0  0  0  0  0  0  0  0  0  0  0  0
   36.0190   28.2140   32.8790 C   0  0  0  0  0  0  0  0  0  0  0  0
   35.5540   28.7950   31.7170 C   0  0  0  0  0  0  0  0  0  0  0  0
   36.3950   28.8640   30.6640 N   0  0  0  0  0  0  0  0  0  0  0  0
   37.6350   28.3720   30.7880 C   0  0  0  0  0  0  0  0  0  0  0  0
   38.1170   27.7970   31.9180 N   0  0  0  0  0  0  0  0  0  0  0  0
   38.6000   25.6350   35.5730 C   0  0  0  0  0  0  0  0  0  0  0  0
   38.3300   26.7980   36.3390 C   0  0  0  0  0  0  0  0  0  0  0  0
   37.7980   27.7220   35.4320 C   0  0  0  0  0  0  0  0  0  0  0  0
   37.7710   27.1030   34.2250 C   0  0  0  0  0  0  0  0  0  0  0  0
   38.2420   25.9020   34.3510 O   0  0  0  0  0  0  0  0  0  0  0  0
   38.6650   23.8770   37.3700 C   0  0  0  0  0  0  0  0  0  0  0  0
   39.1650   24.4590   36.1900 C   0  0  0  0  0  0  0  0  0  0  0  0
   40.2730   23.8640   35.5810 C   0  0  0  0  0  0  0  0  0  0  0  0
   40.8150   22.7390   36.1710 N   0  0  0  0  0  0  0  0  0  0  0  0
   40.2880   22.2250   37.3070 C   0  0  0  0  0  0  0  0  0  0  0  0
   39.2330   22.7900   37.8880 N   0  0  0  0  0  0  0  0  0  0  0  0
   38.5760   28.4350   29.6500 C   0  0  0  0  0  0  0  0  0  0  0  0
   37.7990   28.9160   28.4220 C   0  0  0  0  0  0  0  0  0  0  0  0
   38.3820   30.1780   27.9400 C   0  0  0  0  0  0  0  0  0  0  0  0
   39.6250   30.5260   28.4220 C   0  0  0  0  0  0  0  0  0  0  0  0
   40.2300   31.7050   28.0050 C   0  0  0  0  0  0  0  0  0  0  0  0
   39.6160   32.5230   27.1280 N   0  0  0  0  0  0  0  0  0  0  0  0
   38.4030   32.1740   26.6630 C   0  0  0  0  0  0  0  0  0  0  0  0
   37.8410   31.0430   27.0730 N   0  0  0  0  0  0  0  0  0  0  0  0
   35.3410   28.1514   33.7429 H   0  0  0  0  0  0  0  0  0  0  0  0
   34.5294   29.1897   31.6511 H   0  0  0  0  0  0  0  0  0  0  0  0
   38.5020   26.9428   37.4158 H   0  0  0  0  0  0  0  0  0  0  0  0
   37.4672   28.7473   35.6540 H   0  0  0  0  0  0  0  0  0  0  0  0
   37.7942   24.3258   37.8704 H   0  0  0  0  0  0  0  0  0  0  0  0
   40.7016   24.2801   34.6573 H   0  0  0  0  0  0  0  0  0  0  0  0
   40.7384   21.3275   37.7560 H   0  0  0  0  0  0  0  0  0  0  0  0
   39.3898   29.1395   29.8767 H   0  0  0  0  0  0  0  0  0  0  0  0
   39.0153   27.4444   29.4612 H   0  0  0  0  0  0  0  0  0  0  0  0
   37.8597   28.1567   27.6284 H   0  0  0  0  0  0  0  0  0  0  0  0
   36.7452   29.0773   28.6932 H   0  0  0  0  0  0  0  0  0  0  0  0
   40.1394   29.8688   29.1386 H   0  0  0  0  0  0  0  0  0  0  0  0
   41.2225   31.9740   28.3956 H   0  0  0  0  0  0  0  0  0  0  0  0
   37.8788   32.8229   25.9460 H   0  0  0  0  0  0  0  0  0  0  0  0
  1 10  1  0
  2  1  2  0
  3  2  1  0
  4  5  1  0
  4  3  2  0
  5  6  2  0
  6  1  1  0
  7 13  1  0
  7  8  2  0
  9  8  1  0
 10 11  1  0
 10  9  2  0
 11  7  1  0
 12 17  2  0
 13 12  1  0
 14 15  1  0
 14 13  2  0
 15 16  2  0
 16 17  1  0
 18  5  1  0
 19 18  1  0
 20 21  2  0
 20 19  1  0
 22 21  1  0
 23 22  2  0
 24 25  2  0
 24 23  1  0
 25 20  1  0
  2 26  1  0
  3 27  1  0
  8 28  1  0
  9 29  1  0
 12 30  1  0
 14 31  1  0
 16 32  1  0
 18 33  1  0
 18 34  1  0
 19 35  1  0
 19 36  1  0
 21 37  1  0
 22 38  1  0
 24 39  1  0
M  ISO  8  26  14  27  14  28  14  29  14  30  14  31  14  32  14  33   8
M  ISO  6  34   8  35   8  36   8  37  14  38  14  39  14
M  END
>  <minimizedAffinity>  (1) 
-4.88186789

>  <minimizedRMSD>  (1) 
1.3144027

$$$$
