
     RDKit          3D

 36 39  0  0  0  0  0  0  0  0999 V2000
   36.7800   28.0350   33.2020 C   0  0  0  0  0  0  0  0  0  0  0  0
   35.7250   28.8830   33.4260 C   0  0  0  0  0  0  0  0  0  0  0  0
   35.0920   29.5570   32.4050 C   0  0  0  0  0  0  0  0  0  0  0  0
   35.5270   29.3710   31.1600 N   0  0  0  0  0  0  0  0  0  0  0  0
   36.5590   28.5410   30.9440 C   0  0  0  0  0  0  0  0  0  0  0  0
   37.1920   27.8730   31.9230 N   0  0  0  0  0  0  0  0  0  0  0  0
   38.3920   25.7580   35.4060 C   0  0  0  0  0  0  0  0  0  0  0  0
   38.3800   26.8870   36.2360 C   0  0  0  0  0  0  0  0  0  0  0  0
   37.7640   27.8910   35.4940 C   0  0  0  0  0  0  0  0  0  0  0  0
   37.4430   27.3260   34.2840 C   0  0  0  0  0  0  0  0  0  0  0  0
   37.8230   26.0750   34.2610 O   0  0  0  0  0  0  0  0  0  0  0  0
   38.6930   23.9180   37.0860 C   0  0  0  0  0  0  0  0  0  0  0  0
   38.9660   24.5020   35.8540 C   0  0  0  0  0  0  0  0  0  0  0  0
   39.8490   23.8280   35.0030 C   0  0  0  0  0  0  0  0  0  0  0  0
   40.3990   22.6400   35.4150 N   0  0  0  0  0  0  0  0  0  0  0  0
   40.0880   22.1250   36.6350 C   0  0  0  0  0  0  0  0  0  0  0  0
   39.2420   22.7580   37.4630 N   0  0  0  0  0  0  0  0  0  0  0  0
   37.0770   28.3050   29.5670 C   0  0  0  0  0  0  0  0  0  0  0  0
   37.5190   29.6590   29.0140 C   0  0  0  0  0  0  0  0  0  0  0  0
   38.5780   29.4080   28.0000 C   0  0  0  0  0  0  0  0  0  0  0  0
   39.1130   28.1970   27.7330 N   0  0  0  0  0  0  0  0  0  0  0  0
   40.0070   28.3330   26.7980 O   0  0  0  0  0  0  0  0  0  0  0  0
   40.0950   29.5970   26.4220 C   0  0  0  0  0  0  0  0  0  0  0  0
   39.1940   30.2750   27.1790 N   0  0  0  0  0  0  0  0  0  0  0  0
   35.3721   29.0299   34.4575 H   0  0  0  0  0  0  0  0  0  0  0  0
   34.2485   30.2318   32.6127 H   0  0  0  0  0  0  0  0  0  0  0  0
   38.7748   26.9639   37.2598 H   0  0  0  0  0  0  0  0  0  0  0  0
   37.5731   28.9265   35.8122 H   0  0  0  0  0  0  0  0  0  0  0  0
   38.0021   24.4273   37.7740 H   0  0  0  0  0  0  0  0  0  0  0  0
   40.0991   24.2451   34.0163 H   0  0  0  0  0  0  0  0  0  0  0  0
   40.5383   21.1718   36.9490 H   0  0  0  0  0  0  0  0  0  0  0  0
   37.9318   27.6134   29.5990 H   0  0  0  0  0  0  0  0  0  0  0  0
   36.3014   27.8562   28.9289 H   0  0  0  0  0  0  0  0  0  0  0  0
   36.6647   30.1695   28.5454 H   0  0  0  0  0  0  0  0  0  0  0  0
   37.9026   30.2992   29.8221 H   0  0  0  0  0  0  0  0  0  0  0  0
   40.7617   30.0145   25.6531 H   0  0  0  0  0  0  0  0  0  0  0  0
  1  2  2  0
  1 10  1  0
  3  2  1  0
  4  3  2  0
  5  4  1  0
  5  6  2  0
  6  1  1  0
  7 13  1  0
  7  8  2  0
  9  8  1  0
 10  9  2  0
 11 10  1  0
 11  7  1  0
 12 17  2  0
 13 12  1  0
 14 15  1  0
 14 13  2  0
 15 16  2  0
 16 17  1  0
 18  5  1  0
 19 18  1  0
 20 19  1  0
 21 20  2  0
 22 21  1  0
 23 22  1  0
 23 24  2  0
 24 20  1  0
  2 25  1  0
  3 26  1  0
  8 27  1  0
  9 28  1  0
 12 29  1  0
 14 30  1  0
 16 31  1  0
 18 32  1  0
 18 33  1  0
 19 34  1  0
 19 35  1  0
 23 36  1  0
M  ISO  8  25  14  26  14  27  14  28  14  29  14  30  14  31  14  32   8
M  ISO  4  33   8  34   8  35   8  36  14
M  END
>  <minimizedAffinity>  (1) 
-4.91205168

>  <minimizedRMSD>  (1) 
0.782609224

$$$$
