
     RDKit          3D

 44 48  0  0  1  0  0  0  0  0999 V2000
   39.7640   25.1970   31.7490 C   0  0  1  0  0  0  0  0  0  0  0  0
   40.5460   24.9440   30.5140 C   0  0  0  0  0  0  0  0  0  0  0  0
   40.3590   26.2030   29.7160 C   0  0  0  0  0  0  0  0  0  0  0  0
   40.4140   27.2950   30.7420 C   0  0  0  0  0  0  0  0  0  0  0  0
   39.9590   26.6820   32.0300 C   0  0  2  0  0  0  0  0  0  0  0  0
   41.1420   26.7370   32.9630 C   0  0  0  0  0  0  0  0  0  0  0  0
   42.0600   27.7400   33.2000 C   0  0  0  0  0  0  0  0  0  0  0  0
   42.9290   27.3160   34.1210 N   0  0  0  0  0  0  0  0  0  0  0  0
   42.6310   26.0690   34.5100 C   0  0  0  0  0  0  0  0  0  0  0  0
   43.2820   25.2800   35.4390 C   0  0  0  0  0  0  0  0  0  0  0  0
   42.7570   24.0240   35.6480 C   0  0  0  0  0  0  0  0  0  0  0  0
   41.6510   23.5750   34.9770 C   0  0  0  0  0  0  0  0  0  0  0  0
   41.0530   24.4270   34.0590 C   0  0  0  0  0  0  0  0  0  0  0  0
   41.5160   25.6880   33.7970 C   0  0  0  0  0  0  0  0  0  0  0  0
   37.4070   25.0610   32.5070 C   0  0  0  0  0  0  0  0  0  0  0  0
   36.1820   24.6010   32.0410 C   0  0  0  0  0  0  0  0  0  0  0  0
   36.4460   24.0960   30.8070 N   0  0  0  0  0  0  0  0  0  0  0  0
   37.7570   24.2610   30.5830 C   0  0  0  0  0  0  0  0  0  0  0  0
   38.3790   24.8500   31.6060 N   0  0  0  0  0  0  0  0  0  0  0  0
   37.6480   25.6960   33.8020 C   0  0  0  0  0  0  0  0  0  0  0  0
   37.4810   27.1020   33.9220 C   0  0  0  0  0  0  0  0  0  0  0  0
   37.7270   27.6600   35.1940 C   0  0  0  0  0  0  0  0  0  0  0  0
   38.0960   26.8460   36.1940 N   0  0  0  0  0  0  0  0  0  0  0  0
   38.2410   25.5290   36.0330 C   0  0  0  0  0  0  0  0  0  0  0  0
   38.0220   24.9200   34.8390 N   0  0  0  0  0  0  0  0  0  0  0  0
   40.1101   24.5696   32.5836 H   0  0  0  0  0  0  0  0  0  0  0  0
   41.6084   24.7810   30.7479 H   0  0  0  0  0  0  0  0  0  0  0  0
   40.2169   24.0429   29.9757 H   0  0  0  0  0  0  0  0  0  0  0  0
   41.1649   26.3204   28.9765 H   0  0  0  0  0  0  0  0  0  0  0  0
   39.4190   26.2062   29.1447 H   0  0  0  0  0  0  0  0  0  0  0  0
   41.4422   27.6728   30.8419 H   0  0  0  0  0  0  0  0  0  0  0  0
   39.7777   28.1456   30.4563 H   0  0  0  0  0  0  0  0  0  0  0  0
   39.0606   27.1763   32.4282 H   0  0  0  0  0  0  0  0  0  0  0  0
   42.0736   28.7253   32.7112 H   0  0  0  0  0  0  0  0  0  0  0  0
   43.7184   27.8704   34.4821 H   0  0  0  0  0  0  0  0  0  0  0  0
   44.1704   25.6354   35.9816 H   0  0  0  0  0  0  0  0  0  0  0  0
   43.2422   23.3595   36.3781 H   0  0  0  0  0  0  0  0  0  0  0  0
   41.2481   22.5680   35.1603 H   0  0  0  0  0  0  0  0  0  0  0  0
   40.1646   24.0719   33.5162 H   0  0  0  0  0  0  0  0  0  0  0  0
   35.2114   24.6374   32.5573 H   0  0  0  0  0  0  0  0  0  0  0  0
   38.2637   23.9460   29.6589 H   0  0  0  0  0  0  0  0  0  0  0  0
   37.1756   27.7232   33.0671 H   0  0  0  0  0  0  0  0  0  0  0  0
   37.6183   28.7416   35.3624 H   0  0  0  0  0  0  0  0  0  0  0  0
   38.5475   24.9176   36.8945 H   0  0  0  0  0  0  0  0  0  0  0  0
  1  5  1  0
  2  1  1  0
  3  2  1  0
  3  4  1  0
  4  5  1  0
  5  6  1  0
  6  7  2  0
  6 14  1  0
  7  8  1  0
  8  9  1  0
  9 10  2  0
 10 11  1  0
 12 11  2  0
 13 12  1  0
 14 13  2  0
 14  9  1  0
 15 20  1  0
 16 15  2  0
 17 16  1  0
 18 17  2  0
 18 19  1  0
 19  1  1  0
 19 15  1  0
 20 21  2  0
 20 25  1  0
 21 22  1  0
 22 23  2  0
 24 23  1  0
 25 24  2  0
  1 26  1  1
  2 27  1  0
  2 28  1  0
  3 29  1  0
  3 30  1  0
  4 31  1  0
  4 32  1  0
  5 33  1  1
  7 34  1  0
  8 35  1  0
 10 36  1  0
 11 37  1  0
 12 38  1  0
 13 39  1  0
 16 40  1  0
 18 41  1  0
 21 42  1  0
 22 43  1  0
 24 44  1  0
M  ISO  8  26  13  27  13  28  13  29  13  30  13  31  13  32  13  33  13
M  ISO  8  34  14  35   9  36  14  37  14  38  14  39  14  40  14  41  14
M  ISO  3  42  14  43  14  44  14
M  END
>  <minimizedAffinity>  (1) 
-5.05101061

>  <minimizedRMSD>  (1) 
4.65503979

$$$$
