
     RDKit          3D

 38 41  0  0  0  0  0  0  0  0999 V2000
   36.8460   28.0310   33.1860 C   0  0  0  0  0  0  0  0  0  0  0  0
   35.7420   28.8340   33.3830 C   0  0  0  0  0  0  0  0  0  0  0  0
   35.1240   29.5040   32.3540 C   0  0  0  0  0  0  0  0  0  0  0  0
   35.6210   29.3660   31.1130 N   0  0  0  0  0  0  0  0  0  0  0  0
   36.6920   28.5850   30.9350 C   0  0  0  0  0  0  0  0  0  0  0  0
   37.3230   27.9120   31.9230 N   0  0  0  0  0  0  0  0  0  0  0  0
   38.4230   25.7320   35.3930 C   0  0  0  0  0  0  0  0  0  0  0  0
   38.3750   26.8600   36.2340 C   0  0  0  0  0  0  0  0  0  0  0  0
   37.7670   27.8770   35.4940 C   0  0  0  0  0  0  0  0  0  0  0  0
   37.4880   27.3290   34.2840 C   0  0  0  0  0  0  0  0  0  0  0  0
   37.8840   26.0820   34.2630 O   0  0  0  0  0  0  0  0  0  0  0  0
   38.6980   23.8960   37.0870 C   0  0  0  0  0  0  0  0  0  0  0  0
   38.9960   24.4890   35.8450 C   0  0  0  0  0  0  0  0  0  0  0  0
   39.9020   23.8280   35.0090 C   0  0  0  0  0  0  0  0  0  0  0  0
   40.4570   22.6450   35.4260 N   0  0  0  0  0  0  0  0  0  0  0  0
   40.1340   22.1150   36.6340 C   0  0  0  0  0  0  0  0  0  0  0  0
   39.2650   22.7390   37.4480 N   0  0  0  0  0  0  0  0  0  0  0  0
   37.2760   28.4060   29.5680 C   0  0  0  0  0  0  0  0  0  0  0  0
   37.4250   29.7900   28.9620 C   0  0  0  0  0  0  0  0  0  0  0  0
   38.4270   29.8250   27.9330 N   0  0  0  0  0  0  0  0  0  0  0  0
   38.5480   30.8830   27.1030 C   0  0  0  0  0  0  0  0  0  0  0  0
   39.5730   30.6320   26.2430 C   0  0  0  0  0  0  0  0  0  0  0  0
   40.0990   29.4180   26.5300 N   0  0  0  0  0  0  0  0  0  0  0  0
   39.3760   28.9410   27.5750 C   0  0  0  0  0  0  0  0  0  0  0  0
   35.3411   28.9423   34.4016 H   0  0  0  0  0  0  0  0  0  0  0  0
   34.2445   30.1374   32.5417 H   0  0  0  0  0  0  0  0  0  0  0  0
   38.7431   26.9272   37.2684 H   0  0  0  0  0  0  0  0  0  0  0  0
   37.5582   28.9057   35.8228 H   0  0  0  0  0  0  0  0  0  0  0  0
   37.9903   24.3901   37.7689 H   0  0  0  0  0  0  0  0  0  0  0  0
   40.1662   24.2518   34.0289 H   0  0  0  0  0  0  0  0  0  0  0  0
   40.5886   21.1644   36.9499 H   0  0  0  0  0  0  0  0  0  0  0  0
   38.2588   27.9171   29.6385 H   0  0  0  0  0  0  0  0  0  0  0  0
   36.6272   27.7732   28.9446 H   0  0  0  0  0  0  0  0  0  0  0  0
   36.4606   30.0929   28.5282 H   0  0  0  0  0  0  0  0  0  0  0  0
   37.7369   30.4779   29.7617 H   0  0  0  0  0  0  0  0  0  0  0  0
   37.9263   31.7903   27.1189 H   0  0  0  0  0  0  0  0  0  0  0  0
   39.9177   31.3059   25.4448 H   0  0  0  0  0  0  0  0  0  0  0  0
   39.5425   27.9683   28.0609 H   0  0  0  0  0  0  0  0  0  0  0  0
  1  2  2  0
  1 10  1  0
  3  2  1  0
  4  3  2  0
  5  4  1  0
  5  6  2  0
  6  1  1  0
  7 13  1  0
  7  8  2  0
  9  8  1  0
 10  9  2  0
 11 10  1  0
 11  7  1  0
 12 17  2  0
 13 12  1  0
 14 15  1  0
 14 13  2  0
 15 16  2  0
 16 17  1  0
 18  5  1  0
 19 18  1  0
 20 19  1  0
 21 20  1  0
 22 23  1  0
 22 21  2  0
 23 24  2  0
 24 20  1  0
  2 25  1  0
  3 26  1  0
  8 27  1  0
  9 28  1  0
 12 29  1  0
 14 30  1  0
 16 31  1  0
 18 32  1  0
 18 33  1  0
 19 34  1  0
 19 35  1  0
 21 36  1  0
 22 37  1  0
 24 38  1  0
M  ISO  8  25  14  26  14  27  14  28  14  29  14  30  14  31  14  32   8
M  ISO  6  33   8  34   8  35   8  36  14  37  14  38  14
M  END
>  <minimizedAffinity>  (1) 
-4.83484125

>  <minimizedRMSD>  (1) 
0.840691149

$$$$
