
     RDKit          3D

 44 48  0  0  1  0  0  0  0  0999 V2000
   38.8070   24.2200   34.5250 C   0  0  1  0  0  0  0  0  0  0  0  0
   38.1030   24.8120   35.6920 C   0  0  0  0  0  0  0  0  0  0  0  0
   38.0160   23.6650   36.6660 C   0  0  0  0  0  0  0  0  0  0  0  0
   39.3340   22.9650   36.5190 C   0  0  0  0  0  0  0  0  0  0  0  0
   39.7800   23.2250   35.1230 C   0  0  2  0  0  0  0  0  0  0  0  0
   41.0680   23.8930   35.1840 N   0  0  0  0  0  0  0  0  0  0  0  0
   41.2890   25.2120   34.9760 C   0  0  0  0  0  0  0  0  0  0  0  0
   42.6120   25.4370   35.1220 N   0  0  0  0  0  0  0  0  0  0  0  0
   43.2520   24.2740   35.4240 C   0  0  0  0  0  0  0  0  0  0  0  0
   44.5740   23.9620   35.6660 C   0  0  0  0  0  0  0  0  0  0  0  0
   45.4720   24.8410   35.6340 O   0  0  0  0  0  0  0  0  0  0  0  0
   44.9470   22.6940   35.9480 N   0  0  0  0  0  0  0  0  0  0  0  0
   43.9450   21.7960   35.9690 C   0  0  0  0  0  0  0  0  0  0  0  0
   44.2510   20.4390   36.2590 N   0  0  0  0  0  0  0  0  0  0  0  0
   42.6230   22.0440   35.7380 N   0  0  0  0  0  0  0  0  0  0  0  0
   42.2520   23.3240   35.4540 C   0  0  0  0  0  0  0  0  0  0  0  0
   37.2910   24.1350   32.5640 C   0  0  0  0  0  0  0  0  0  0  0  0
   36.4710   23.2310   31.8920 C   0  0  0  0  0  0  0  0  0  0  0  0
   36.6040   22.0730   32.5880 N   0  0  0  0  0  0  0  0  0  0  0  0
   37.4540   22.3000   33.6070 C   0  0  0  0  0  0  0  0  0  0  0  0
   37.8920   23.5750   33.6090 N   0  0  0  0  0  0  0  0  0  0  0  0
   37.4840   25.5390   32.1850 C   0  0  0  0  0  0  0  0  0  0  0  0
   38.4530   25.8770   31.2220 C   0  0  0  0  0  0  0  0  0  0  0  0
   38.5790   27.2490   30.9110 C   0  0  0  0  0  0  0  0  0  0  0  0
   37.7900   28.1340   31.5320 N   0  0  0  0  0  0  0  0  0  0  0  0
   36.8780   27.7660   32.4450 C   0  0  0  0  0  0  0  0  0  0  0  0
   36.7060   26.4730   32.7880 N   0  0  0  0  0  0  0  0  0  0  0  0
   39.3147   24.9908   33.9266 H   0  0  0  0  0  0  0  0  0  0  0  0
   38.6793   25.6468   36.1174 H   0  0  0  0  0  0  0  0  0  0  0  0
   37.1195   25.2310   35.4330 H   0  0  0  0  0  0  0  0  0  0  0  0
   37.8813   24.0337   37.6936 H   0  0  0  0  0  0  0  0  0  0  0  0
   37.1602   23.0034   36.4664 H   0  0  0  0  0  0  0  0  0  0  0  0
   40.0641   23.3693   37.2356 H   0  0  0  0  0  0  0  0  0  0  0  0
   39.2438   21.8873   36.7203 H   0  0  0  0  0  0  0  0  0  0  0  0
   39.8346   22.2917   34.5434 H   0  0  0  0  0  0  0  0  0  0  0  0
   40.5265   25.9662   34.7316 H   0  0  0  0  0  0  0  0  0  0  0  0
   45.9263   22.4341   36.1332 H   0  0  0  0  0  0  0  0  0  0  0  0
   43.4996   19.7348   36.2803 H   0  0  0  0  0  0  0  0  0  0  0  0
   45.2242   20.1595   36.4479 H   0  0  0  0  0  0  0  0  0  0  0  0
   35.8550   23.4142   30.9992 H   0  0  0  0  0  0  0  0  0  0  0  0
   37.7533   21.5410   34.3448 H   0  0  0  0  0  0  0  0  0  0  0  0
   39.0790   25.1133   30.7373 H   0  0  0  0  0  0  0  0  0  0  0  0
   39.3164   27.5860   30.1676 H   0  0  0  0  0  0  0  0  0  0  0  0
   36.2565   28.5365   32.9246 H   0  0  0  0  0  0  0  0  0  0  0  0
  1  5  1  0
  1  2  1  0
  2  3  1  0
  4  3  1  0
  5  6  1  0
  5  4  1  0
  6 16  1  0
  7  8  2  0
  7  6  1  0
  8  9  1  0
  9 16  2  0
  9 10  1  0
 10 12  1  0
 11 10  2  0
 12 13  1  0
 13 14  1  0
 15 13  2  0
 16 15  1  0
 17 21  1  0
 18 17  2  0
 18 19  1  0
 19 20  2  0
 20 21  1  0
 21  1  1  0
 22 17  1  0
 22 27  1  0
 23 22  2  0
 24 23  1  0
 24 25  2  0
 25 26  1  0
 26 27  2  0
  1 28  1  6
  2 29  1  0
  2 30  1  0
  3 31  1  0
  3 32  1  0
  4 33  1  0
  4 34  1  0
  5 35  1  6
  7 36  1  0
 12 37  1  0
 14 38  1  0
 14 39  1  0
 18 40  1  0
 20 41  1  0
 23 42  1  0
 24 43  1  0
 26 44  1  0
M  ISO  8  28  13  29  13  30  13  31  13  32  13  33  13  34  13  35  13
M  ISO  7  36  14  37   9  40  14  41  14  42  14  43  14  44  14
M  END
>  <minimizedAffinity>  (1) 
-4.96353769

>  <minimizedRMSD>  (1) 
1.69698215

$$$$
