
     RDKit          3D

 38 41  0  0  0  0  0  0  0  0999 V2000
   37.1890   27.7420   33.0220 C   0  0  0  0  0  0  0  0  0  0  0  0
   35.9760   28.4030   32.9920 C   0  0  0  0  0  0  0  0  0  0  0  0
   35.4780   28.9780   31.8450 C   0  0  0  0  0  0  0  0  0  0  0  0
   36.1990   28.8890   30.7240 N   0  0  0  0  0  0  0  0  0  0  0  0
   37.3710   28.2500   30.7530 C   0  0  0  0  0  0  0  0  0  0  0  0
   37.8970   27.6720   31.8580 N   0  0  0  0  0  0  0  0  0  0  0  0
   38.5610   25.6810   35.5680 C   0  0  0  0  0  0  0  0  0  0  0  0
   38.3370   26.8370   36.3250 C   0  0  0  0  0  0  0  0  0  0  0  0
   37.7810   27.7770   35.4490 C   0  0  0  0  0  0  0  0  0  0  0  0
   37.7080   27.1380   34.2380 C   0  0  0  0  0  0  0  0  0  0  0  0
   38.1680   25.9340   34.3510 O   0  0  0  0  0  0  0  0  0  0  0  0
   38.6580   23.9020   37.3320 C   0  0  0  0  0  0  0  0  0  0  0  0
   39.1370   24.4910   36.1700 C   0  0  0  0  0  0  0  0  0  0  0  0
   40.2340   23.8890   35.5600 C   0  0  0  0  0  0  0  0  0  0  0  0
   40.7890   22.7680   36.1130 N   0  0  0  0  0  0  0  0  0  0  0  0
   40.2720   22.2410   37.2550 C   0  0  0  0  0  0  0  0  0  0  0  0
   39.2100   22.8100   37.8590 N   0  0  0  0  0  0  0  0  0  0  0  0
   38.2100   28.1240   29.5330 C   0  0  0  0  0  0  0  0  0  0  0  0
   37.8320   29.2650   28.5980 C   0  0  0  0  0  0  0  0  0  0  0  0
   38.9240   29.3240   27.5780 C   0  0  0  0  0  0  0  0  0  0  0  0
   39.4590   30.3850   26.8900 C   0  0  0  0  0  0  0  0  0  0  0  0
   40.4430   29.8620   26.0760 C   0  0  0  0  0  0  0  0  0  0  0  0
   40.4690   28.5010   26.3010 C   0  0  0  0  0  0  0  0  0  0  0  0
   39.5640   28.2210   27.1880 O   0  0  0  0  0  0  0  0  0  0  0  0
   35.3870   28.4722   33.9184 H   0  0  0  0  0  0  0  0  0  0  0  0
   34.5090   29.4986   31.8512 H   0  0  0  0  0  0  0  0  0  0  0  0
   38.5543   26.9785   37.3940 H   0  0  0  0  0  0  0  0  0  0  0  0
   37.4699   28.8060   35.6819 H   0  0  0  0  0  0  0  0  0  0  0  0
   37.7908   24.3534   37.8362 H   0  0  0  0  0  0  0  0  0  0  0  0
   40.6532   24.3137   34.6359 H   0  0  0  0  0  0  0  0  0  0  0  0
   40.7262   21.3391   37.6912 H   0  0  0  0  0  0  0  0  0  0  0  0
   39.2747   28.1945   29.8004 H   0  0  0  0  0  0  0  0  0  0  0  0
   38.0422   27.1521   29.0460 H   0  0  0  0  0  0  0  0  0  0  0  0
   36.8650   29.0617   28.1147 H   0  0  0  0  0  0  0  0  0  0  0  0
   37.7262   30.2174   29.1382 H   0  0  0  0  0  0  0  0  0  0  0  0
   39.1624   31.4411   26.9714 H   0  0  0  0  0  0  0  0  0  0  0  0
   41.0843   30.4232   25.3804 H   0  0  0  0  0  0  0  0  0  0  0  0
   41.1402   27.7788   25.8133 H   0  0  0  0  0  0  0  0  0  0  0  0
  1 10  1  0
  2  1  2  0
  3  2  1  0
  4  5  1  0
  4  3  2  0
  5  6  2  0
  6  1  1  0
  7 13  1  0
  7  8  2  0
  9  8  1  0
 10 11  1  0
 10  9  2  0
 11  7  1  0
 12 17  2  0
 13 12  1  0
 14 15  1  0
 14 13  2  0
 15 16  2  0
 16 17  1  0
 18  5  1  0
 19 18  1  0
 20 19  1  0
 21 20  2  0
 22 23  2  0
 22 21  1  0
 23 24  1  0
 24 20  1  0
  2 25  1  0
  3 26  1  0
  8 27  1  0
  9 28  1  0
 12 29  1  0
 14 30  1  0
 16 31  1  0
 18 32  1  0
 18 33  1  0
 19 34  1  0
 19 35  1  0
 21 36  1  0
 22 37  1  0
 23 38  1  0
M  ISO  8  25  14  26  14  27  14  28  14  29  14  30  14  31  14  32   8
M  ISO  6  33   8  34   8  35   8  36  14  37  14  38  14
M  END
>  <minimizedAffinity>  (1) 
-4.84323454

>  <minimizedRMSD>  (1) 
0.317666024

$$$$
