
     RDKit          3D

 38 41  0  0  0  0  0  0  0  0999 V2000
   37.2730   27.7060   32.9900 C   0  0  0  0  0  0  0  0  0  0  0  0
   36.0190   28.3030   32.9190 C   0  0  0  0  0  0  0  0  0  0  0  0
   35.5420   28.8680   31.7620 C   0  0  0  0  0  0  0  0  0  0  0  0
   36.3240   28.8380   30.6630 N   0  0  0  0  0  0  0  0  0  0  0  0
   37.5240   28.2610   30.7480 C   0  0  0  0  0  0  0  0  0  0  0  0
   38.0390   27.6880   31.8700 N   0  0  0  0  0  0  0  0  0  0  0  0
   38.5880   25.6530   35.5720 C   0  0  0  0  0  0  0  0  0  0  0  0
   38.3250   26.8160   36.3280 C   0  0  0  0  0  0  0  0  0  0  0  0
   37.7930   27.7340   35.4270 C   0  0  0  0  0  0  0  0  0  0  0  0
   37.7580   27.1140   34.2230 C   0  0  0  0  0  0  0  0  0  0  0  0
   38.2300   25.9000   34.3460 O   0  0  0  0  0  0  0  0  0  0  0  0
   38.6530   23.8930   37.3660 C   0  0  0  0  0  0  0  0  0  0  0  0
   39.1530   24.4760   36.1860 C   0  0  0  0  0  0  0  0  0  0  0  0
   40.2600   23.8670   35.5920 C   0  0  0  0  0  0  0  0  0  0  0  0
   40.8090   22.7480   36.1640 N   0  0  0  0  0  0  0  0  0  0  0  0
   40.2830   22.2300   37.3030 C   0  0  0  0  0  0  0  0  0  0  0  0
   39.2280   22.8020   37.8800 N   0  0  0  0  0  0  0  0  0  0  0  0
   38.4240   28.2020   29.5590 C   0  0  0  0  0  0  0  0  0  0  0  0
   37.7910   29.0300   28.4560 C   0  0  0  0  0  0  0  0  0  0  0  0
   38.6600   30.2030   28.0950 C   0  0  0  0  0  0  0  0  0  0  0  0
   39.9580   30.3090   28.8460 C   0  0  0  0  0  0  0  0  0  0  0  0
   38.8590   31.3310   29.0300 C   0  0  0  0  0  0  0  0  0  0  0  0
   35.3881   28.3233   33.8199 H   0  0  0  0  0  0  0  0  0  0  0  0
   34.5460   29.3340   31.7319 H   0  0  0  0  0  0  0  0  0  0  0  0
   38.5031   26.9653   37.4032 H   0  0  0  0  0  0  0  0  0  0  0  0
   37.4656   28.7604   35.6489 H   0  0  0  0  0  0  0  0  0  0  0  0
   37.7822   24.3392   37.8686 H   0  0  0  0  0  0  0  0  0  0  0  0
   40.6901   24.2830   34.6690 H   0  0  0  0  0  0  0  0  0  0  0  0
   40.7313   21.3316   37.7524 H   0  0  0  0  0  0  0  0  0  0  0  0
   39.4111   28.6136   29.8162 H   0  0  0  0  0  0  0  0  0  0  0  0
   38.5572   27.1610   29.2295 H   0  0  0  0  0  0  0  0  0  0  0  0
   37.6524   28.3980   27.5664 H   0  0  0  0  0  0  0  0  0  0  0  0
   36.8227   29.4090   28.8147 H   0  0  0  0  0  0  0  0  0  0  0  0
   38.3381   30.1621   27.0439 H   0  0  0  0  0  0  0  0  0  0  0  0
   40.1916   29.5964   29.6508 H   0  0  0  0  0  0  0  0  0  0  0  0
   41.0230   30.3417   28.5726 H   0  0  0  0  0  0  0  0  0  0  0  0
   38.9873   32.3515   28.6398 H   0  0  0  0  0  0  0  0  0  0  0  0
   38.3067   31.7293   29.8939 H   0  0  0  0  0  0  0  0  0  0  0  0
  1 10  1  0
  2  1  2  0
  3  2  1  0
  4  5  1  0
  4  3  2  0
  5  6  2  0
  6  1  1  0
  7 13  1  0
  7  8  2  0
  9  8  1  0
 10 11  1  0
 10  9  2  0
 11  7  1  0
 12 17  2  0
 13 12  1  0
 14 15  1  0
 14 13  2  0
 15 16  2  0
 16 17  1  0
 18  5  1  0
 19 18  1  0
 20 19  1  0
 20 21  1  0
 20 22  1  0
 21 22  1  0
  2 23  1  0
  3 24  1  0
  8 25  1  0
  9 26  1  0
 12 27  1  0
 14 28  1  0
 16 29  1  0
 18 30  1  0
 18 31  1  0
 19 32  1  0
 19 33  1  0
 20 34  1  0
 21 35  1  0
 21 36  1  0
 22 37  1  0
 22 38  1  0
M  ISO  8  23  14  24  14  25  14  26  14  27  14  28  14  29  14  30   8
M  ISO  8  31   8  32   8  33   8  34  13  35  13  36  13  37  13  38  13
M  END
>  <minimizedAffinity>  (1) 
-4.72288275

>  <minimizedRMSD>  (1) 
0.74937582

$$$$
