
     RDKit          3D

 33 35  0  0  0  0  0  0  0  0999 V2000
   37.2270   27.7210   32.9700 C   0  0  0  0  0  0  0  0  0  0  0  0
   36.0140   28.3550   32.9110 C   0  0  0  0  0  0  0  0  0  0  0  0
   35.5060   28.9300   31.7630 C   0  0  0  0  0  0  0  0  0  0  0  0
   36.2510   28.8550   30.6500 N   0  0  0  0  0  0  0  0  0  0  0  0
   37.4320   28.2370   30.7050 C   0  0  0  0  0  0  0  0  0  0  0  0
   37.9410   27.6700   31.8230 N   0  0  0  0  0  0  0  0  0  0  0  0
   38.5840   25.6900   35.5490 C   0  0  0  0  0  0  0  0  0  0  0  0
   38.3320   26.8420   36.2950 C   0  0  0  0  0  0  0  0  0  0  0  0
   37.7810   27.7630   35.4000 C   0  0  0  0  0  0  0  0  0  0  0  0
   37.7320   27.1270   34.1900 C   0  0  0  0  0  0  0  0  0  0  0  0
   38.2040   25.9280   34.3090 O   0  0  0  0  0  0  0  0  0  0  0  0
   38.6660   23.9040   37.3070 C   0  0  0  0  0  0  0  0  0  0  0  0
   39.1600   24.5050   36.1340 C   0  0  0  0  0  0  0  0  0  0  0  0
   40.2530   23.9030   35.5380 C   0  0  0  0  0  0  0  0  0  0  0  0
   40.8020   22.7710   36.0950 N   0  0  0  0  0  0  0  0  0  0  0  0
   40.2760   22.2460   37.2240 C   0  0  0  0  0  0  0  0  0  0  0  0
   39.2090   22.8090   37.8330 N   0  0  0  0  0  0  0  0  0  0  0  0
   38.3090   28.1200   29.4970 C   0  0  0  0  0  0  0  0  0  0  0  0
   37.8440   29.1820   28.5070 C   0  0  0  0  0  0  0  0  0  0  0  0
   38.1850   30.4690   29.0810 N   0  0  0  0  0  0  0  0  0  0  0  0
   35.4111   28.4090   33.8295 H   0  0  0  0  0  0  0  0  0  0  0  0
   34.5267   29.4310   31.7612 H   0  0  0  0  0  0  0  0  0  0  0  0
   38.5269   26.9939   37.3669 H   0  0  0  0  0  0  0  0  0  0  0  0
   37.4537   28.7893   35.6229 H   0  0  0  0  0  0  0  0  0  0  0  0
   37.7978   24.3569   37.8081 H   0  0  0  0  0  0  0  0  0  0  0  0
   40.6831   24.3288   34.6195 H   0  0  0  0  0  0  0  0  0  0  0  0
   40.7264   21.3405   37.6567 H   0  0  0  0  0  0  0  0  0  0  0  0
   39.3592   28.2949   29.7737 H   0  0  0  0  0  0  0  0  0  0  0  0
   38.2401   27.1144   29.0566 H   0  0  0  0  0  0  0  0  0  0  0  0
   36.7565   29.1102   28.3579 H   0  0  0  0  0  0  0  0  0  0  0  0
   38.3266   29.0466   27.5279 H   0  0  0  0  0  0  0  0  0  0  0  0
   38.1673   30.4021   30.1087 H   0  0  0  0  0  0  0  0  0  0  0  0
   39.1279   30.7442   28.7710 H   0  0  0  0  0  0  0  0  0  0  0  0
  1 10  1  0
  2  1  2  0
  3  2  1  0
  4  5  1  0
  4  3  2  0
  5  6  2  0
  6  1  1  0
  7 13  1  0
  7  8  2  0
  9  8  1  0
 10 11  1  0
 10  9  2  0
 11  7  1  0
 12 17  2  0
 13 12  1  0
 14 15  1  0
 14 13  2  0
 15 16  2  0
 16 17  1  0
 18  5  1  0
 19 20  1  0
 19 18  1  0
  2 21  1  0
  3 22  1  0
  8 23  1  0
  9 24  1  0
 12 25  1  0
 14 26  1  0
 16 27  1  0
 18 28  1  0
 18 29  1  0
 19 30  1  0
 19 31  1  0
 20 32  1  0
 20 33  1  0
M  ISO  8  21  14  22  14  23  14  24  14  25  14  26  14  27  14  28   8
M  ISO  5  29   8  30   8  31   8  32   5  33   5
M  END
>  <minimizedAffinity>  (1) 
-4.56995201

>  <minimizedRMSD>  (1) 
0.0854672268

$$$$
