
     RDKit          3D

 32 34  0  0  0  0  0  0  0  0999 V2000
   38.5720   25.6850   35.5320 C   0  0  0  0  0  0  0  0  0  0  0  0
   38.3290   26.8510   36.2870 C   0  0  0  0  0  0  0  0  0  0  0  0
   37.7820   27.7670   35.3870 C   0  0  0  0  0  0  0  0  0  0  0  0
   37.7250   27.1320   34.1720 C   0  0  0  0  0  0  0  0  0  0  0  0
   38.1910   25.9270   34.3010 O   0  0  0  0  0  0  0  0  0  0  0  0
   38.6380   23.9160   37.3050 C   0  0  0  0  0  0  0  0  0  0  0  0
   39.1450   24.5020   36.1390 C   0  0  0  0  0  0  0  0  0  0  0  0
   40.2570   23.9160   35.5360 C   0  0  0  0  0  0  0  0  0  0  0  0
   40.8070   22.7940   36.1070 N   0  0  0  0  0  0  0  0  0  0  0  0
   40.2720   22.2610   37.2480 C   0  0  0  0  0  0  0  0  0  0  0  0
   39.2070   22.8230   37.8250 N   0  0  0  0  0  0  0  0  0  0  0  0
   37.2210   27.7290   32.9630 C   0  0  0  0  0  0  0  0  0  0  0  0
   36.0080   28.3810   32.9150 C   0  0  0  0  0  0  0  0  0  0  0  0
   35.5160   28.9570   31.7600 C   0  0  0  0  0  0  0  0  0  0  0  0
   36.2620   28.8720   30.6400 N   0  0  0  0  0  0  0  0  0  0  0  0
   37.4340   28.2400   30.6950 C   0  0  0  0  0  0  0  0  0  0  0  0
   37.9260   27.6740   31.8100 N   0  0  0  0  0  0  0  0  0  0  0  0
   38.2910   28.1220   29.4790 C   0  0  0  0  0  0  0  0  0  0  0  0
   37.8440   29.2140   28.5050 C   0  0  0  0  0  0  0  0  0  0  0  0
   38.1200   30.4400   29.1020 O   0  0  0  0  0  0  0  0  0  0  0  0
   38.5282   27.0058   37.3577 H   0  0  0  0  0  0  0  0  0  0  0  0
   37.4601   28.7953   35.6082 H   0  0  0  0  0  0  0  0  0  0  0  0
   37.7613   24.3598   37.7993 H   0  0  0  0  0  0  0  0  0  0  0  0
   40.6867   24.3447   34.6186 H   0  0  0  0  0  0  0  0  0  0  0  0
   40.7230   21.3621   37.6936 H   0  0  0  0  0  0  0  0  0  0  0  0
   35.4070   28.4454   33.8340 H   0  0  0  0  0  0  0  0  0  0  0  0
   34.5432   29.4705   31.7540 H   0  0  0  0  0  0  0  0  0  0  0  0
   39.3481   28.2654   29.7472 H   0  0  0  0  0  0  0  0  0  0  0  0
   38.1889   27.1259   29.0236 H   0  0  0  0  0  0  0  0  0  0  0  0
   36.7652   29.1251   28.3093 H   0  0  0  0  0  0  0  0  0  0  0  0
   38.3738   29.1203   27.5455 H   0  0  0  0  0  0  0  0  0  0  0  0
   38.0975   30.3401   30.0867 H   0  0  0  0  0  0  0  0  0  0  0  0
  1  7  1  0
  1  2  2  0
  3  2  1  0
  4  5  1  0
  4  3  2  0
  5  1  1  0
  6 11  2  0
  7  6  1  0
  8  9  1  0
  8  7  2  0
  9 10  2  0
 10 11  1  0
 12  4  1  0
 13 12  2  0
 14 13  1  0
 15 16  1  0
 15 14  2  0
 16 17  2  0
 17 12  1  0
 18 16  1  0
 19 20  1  0
 19 18  1  0
  2 21  1  0
  3 22  1  0
  6 23  1  0
  8 24  1  0
 10 25  1  0
 13 26  1  0
 14 27  1  0
 18 28  1  0
 18 29  1  0
 19 30  1  0
 19 31  1  0
 20 32  1  0
M  ISO  8  21  14  22  14  23  14  24  14  25  14  26  14  27  14  28   8
M  ISO  4  29   8  30   8  31   8  32   3
M  END
>  <minimizedAffinity>  (1) 
-4.57291842

>  <minimizedRMSD>  (1) 
0.0449556075

$$$$
