
     RDKit          3D

 41 44  0  0  0  0  0  0  0  0999 V2000
   37.9940   25.2960   35.2060 C   0  0  0  0  0  0  0  0  0  0  0  0
   37.8390   25.3290   36.5660 C   0  0  0  0  0  0  0  0  0  0  0  0
   38.2280   24.2950   37.3850 C   0  0  0  0  0  0  0  0  0  0  0  0
   38.7840   23.2080   36.8070 N   0  0  0  0  0  0  0  0  0  0  0  0
   38.9360   23.1740   35.4700 C   0  0  0  0  0  0  0  0  0  0  0  0
   38.5570   24.1850   34.6560 N   0  0  0  0  0  0  0  0  0  0  0  0
   37.3730   27.6430   32.6040 C   0  0  0  0  0  0  0  0  0  0  0  0
   36.6160   28.2460   33.6380 C   0  0  0  0  0  0  0  0  0  0  0  0
   36.7620   27.4200   34.7570 C   0  0  0  0  0  0  0  0  0  0  0  0
   37.5820   26.3880   34.3420 C   0  0  0  0  0  0  0  0  0  0  0  0
   37.9130   26.5500   33.0960 O   0  0  0  0  0  0  0  0  0  0  0  0
   36.7200   29.3760   30.9190 C   0  0  0  0  0  0  0  0  0  0  0  0
   37.4400   28.2390   31.2980 C   0  0  0  0  0  0  0  0  0  0  0  0
   38.2760   27.6540   30.3390 C   0  0  0  0  0  0  0  0  0  0  0  0
   38.3610   28.2030   29.0780 N   0  0  0  0  0  0  0  0  0  0  0  0
   37.6310   29.3130   28.7760 C   0  0  0  0  0  0  0  0  0  0  0  0
   36.8250   29.8830   29.6890 N   0  0  0  0  0  0  0  0  0  0  0  0
   39.5380   22.0070   34.8070 C   0  0  0  0  0  0  0  0  0  0  0  0
   39.3830   22.1730   33.2880 C   0  0  0  0  0  0  0  0  0  0  0  0
   38.4860   21.1710   32.7790 C   0  0  0  0  0  0  0  0  0  0  0  0
   38.5670   20.0320   32.0530 C   0  0  0  0  0  0  0  0  0  0  0  0
   37.4790   19.2870   31.7360 C   0  0  0  0  0  0  0  0  0  0  0  0
   36.2410   19.7980   32.2270 C   0  0  0  0  0  0  0  0  0  0  0  0
   36.6910   21.3230   33.1210 S   0  0  0  0  0  0  0  0  0  0  0  0
   34.9150   19.2910   32.0910 C   0  0  0  0  0  0  0  0  0  0  0  0
   34.0080   20.1430   31.9580 O   0  0  0  0  0  0  0  0  0  0  0  0
   34.6660   17.9440   32.1070 O   0  0  0  0  0  0  0  0  0  0  0  0
   37.3841   26.2203   37.0228 H   0  0  0  0  0  0  0  0  0  0  0  0
   38.0909   24.3512   38.4750 H   0  0  0  0  0  0  0  0  0  0  0  0
   36.0316   29.1757   33.5739 H   0  0  0  0  0  0  0  0  0  0  0  0
   36.3190   27.5615   35.7539 H   0  0  0  0  0  0  0  0  0  0  0  0
   36.0547   29.8616   31.6481 H   0  0  0  0  0  0  0  0  0  0  0  0
   38.8632   26.7588   30.5916 H   0  0  0  0  0  0  0  0  0  0  0  0
   37.7021   29.7500   27.7690 H   0  0  0  0  0  0  0  0  0  0  0  0
   40.6052   21.9432   35.0659 H   0  0  0  0  0  0  0  0  0  0  0  0
   39.0357   21.0860   35.1378 H   0  0  0  0  0  0  0  0  0  0  0  0
   38.9774   23.1718   33.0690 H   0  0  0  0  0  0  0  0  0  0  0  0
   40.3659   22.0594   32.8074 H   0  0  0  0  0  0  0  0  0  0  0  0
   39.5555   19.6967   31.7058 H   0  0  0  0  0  0  0  0  0  0  0  0
   37.5460   18.3609   31.1462 H   0  0  0  0  0  0  0  0  0  0  0  0
   33.7387   17.6109   32.0112 H   0  0  0  0  0  0  0  0  0  0  0  0
  1  2  2  0
  2  3  1  0
  4  3  2  0
  5  4  1  0
  6  1  1  0
  6  5  2  0
  7 11  1  0
  7  8  2  0
  8  9  1  0
 10  9  2  0
 10  1  1  0
 11 10  1  0
 12 13  2  0
 13  7  1  0
 14 13  1  0
 15 14  2  0
 16 15  1  0
 16 17  2  0
 17 12  1  0
 18  5  1  0
 19 18  1  0
 20 24  1  0
 20 19  1  0
 21 20  2  0
 22 21  1  0
 22 23  2  0
 23 24  1  0
 25 27  1  0
 25 23  1  0
 26 25  2  0
  2 28  1  0
  3 29  1  0
  8 30  1  0
  9 31  1  0
 12 32  1  0
 14 33  1  0
 16 34  1  0
 18 35  1  0
 18 36  1  0
 19 37  1  0
 19 38  1  0
 21 39  1  0
 22 40  1  0
 27 41  1  0
M  ISO  8  28  14  29  14  30  14  31  14  32  14  33  14  34  14  35   8
M  ISO  6  36   8  37   8  38   8  39  14  40  14  41   3
M  END
>  <minimizedAffinity>  (1) 
-5.57491207

>  <minimizedRMSD>  (1) 
1.03520334

$$$$
