
     RDKit          3D

 41 44  0  0  0  0  0  0  0  0999 V2000
   37.8510   25.3890   34.8420 C   0  0  0  0  0  0  0  0  0  0  0  0
   37.8730   25.3930   36.2200 C   0  0  0  0  0  0  0  0  0  0  0  0
   38.2560   24.3010   36.9620 C   0  0  0  0  0  0  0  0  0  0  0  0
   38.6220   23.1910   36.3080 N   0  0  0  0  0  0  0  0  0  0  0  0
   38.6020   23.1850   34.9530 C   0  0  0  0  0  0  0  0  0  0  0  0
   38.2300   24.2420   34.2150 N   0  0  0  0  0  0  0  0  0  0  0  0
   37.2490   27.9150   32.4150 C   0  0  0  0  0  0  0  0  0  0  0  0
   36.5160   28.4590   33.4910 C   0  0  0  0  0  0  0  0  0  0  0  0
   36.6570   27.5550   34.5560 C   0  0  0  0  0  0  0  0  0  0  0  0
   37.4470   26.5460   34.0720 C   0  0  0  0  0  0  0  0  0  0  0  0
   37.7700   26.7850   32.8370 O   0  0  0  0  0  0  0  0  0  0  0  0
   36.7980   29.8640   30.9040 C   0  0  0  0  0  0  0  0  0  0  0  0
   37.3240   28.5920   31.1380 C   0  0  0  0  0  0  0  0  0  0  0  0
   37.9580   27.9390   30.0760 C   0  0  0  0  0  0  0  0  0  0  0  0
   38.0300   28.5840   28.8540 N   0  0  0  0  0  0  0  0  0  0  0  0
   37.5020   29.8100   28.6960 C   0  0  0  0  0  0  0  0  0  0  0  0
   36.8960   30.4420   29.7000 N   0  0  0  0  0  0  0  0  0  0  0  0
   39.0000   21.9730   34.2030 C   0  0  0  0  0  0  0  0  0  0  0  0
   39.6830   22.4210   32.9150 C   0  0  0  0  0  0  0  0  0  0  0  0
   39.1470   21.6960   31.7860 C   0  0  0  0  0  0  0  0  0  0  0  0
   39.4330   21.4840   30.4820 C   0  0  0  0  0  0  0  0  0  0  0  0
   38.6760   20.7070   29.6810 C   0  0  0  0  0  0  0  0  0  0  0  0
   37.5340   20.1120   30.3100 C   0  0  0  0  0  0  0  0  0  0  0  0
   37.6170   20.7120   32.0300 S   0  0  0  0  0  0  0  0  0  0  0  0
   36.5390   19.2390   29.7290 C   0  0  0  0  0  0  0  0  0  0  0  0
   37.5712   26.3092   36.7487 H   0  0  0  0  0  0  0  0  0  0  0  0
   38.2617   24.3378   38.0614 H   0  0  0  0  0  0  0  0  0  0  0  0
   35.9485   29.4013   33.4947 H   0  0  0  0  0  0  0  0  0  0  0  0
   36.2251   27.6391   35.5642 H   0  0  0  0  0  0  0  0  0  0  0  0
   36.2948   30.4002   31.7221 H   0  0  0  0  0  0  0  0  0  0  0  0
   38.3894   26.9359   30.2092 H   0  0  0  0  0  0  0  0  0  0  0  0
   37.5719   30.3028   27.7151 H   0  0  0  0  0  0  0  0  0  0  0  0
   39.6969   21.3725   34.8061 H   0  0  0  0  0  0  0  0  0  0  0  0
   38.1176   21.3573   33.9743 H   0  0  0  0  0  0  0  0  0  0  0  0
   39.5123   23.4978   32.7691 H   0  0  0  0  0  0  0  0  0  0  0  0
   40.7613   22.2179   32.9920 H   0  0  0  0  0  0  0  0  0  0  0  0
   40.3239   21.9674   30.0547 H   0  0  0  0  0  0  0  0  0  0  0  0
   38.9177   20.5417   28.6207 H   0  0  0  0  0  0  0  0  0  0  0  0
   35.9733   18.7427   30.5313 H   0  0  0  0  0  0  0  0  0  0  0  0
   35.8509   19.8301   29.1068 H   0  0  0  0  0  0  0  0  0  0  0  0
   37.0356   18.4799   29.1068 H   0  0  0  0  0  0  0  0  0  0  0  0
  1  2  2  0
  2  3  1  0
  4  3  2  0
  5  4  1  0
  6  1  1  0
  6  5  2  0
  7 11  1  0
  7  8  2  0
  8  9  1  0
 10  9  2  0
 10  1  1  0
 11 10  1  0
 12 13  2  0
 13  7  1  0
 14 13  1  0
 15 14  2  0
 16 15  1  0
 16 17  2  0
 17 12  1  0
 18  5  1  0
 19 18  1  0
 20 24  1  0
 20 19  1  0
 21 20  2  0
 22 23  2  0
 22 21  1  0
 23 24  1  0
 25 23  1  0
  2 26  1  0
  3 27  1  0
  8 28  1  0
  9 29  1  0
 12 30  1  0
 14 31  1  0
 16 32  1  0
 18 33  1  0
 18 34  1  0
 19 35  1  0
 19 36  1  0
 21 37  1  0
 22 38  1  0
 25 39  1  0
 25 40  1  0
 25 41  1  0
M  ISO  8  26  14  27  14  28  14  29  14  30  14  31  14  32  14  33   8
M  ISO  8  34   8  35   8  36   8  37  14  38  14  39   8  40   8  41   8
M  END
>  <minimizedAffinity>  (1) 
-4.66871357

>  <minimizedRMSD>  (1) 
1.55350065

$$$$
