
     RDKit          3D

 40 43  0  0  0  0  0  0  0  0999 V2000
   37.9900   25.3410   35.1630 C   0  0  0  0  0  0  0  0  0  0  0  0
   37.8470   25.3780   36.5280 C   0  0  0  0  0  0  0  0  0  0  0  0
   38.2410   24.3380   37.3490 C   0  0  0  0  0  0  0  0  0  0  0  0
   38.7890   23.2480   36.7670 N   0  0  0  0  0  0  0  0  0  0  0  0
   38.9280   23.2180   35.4240 C   0  0  0  0  0  0  0  0  0  0  0  0
   38.5450   24.2270   34.6150 N   0  0  0  0  0  0  0  0  0  0  0  0
   37.3620   27.6930   32.5690 C   0  0  0  0  0  0  0  0  0  0  0  0
   36.6010   28.2850   33.5950 C   0  0  0  0  0  0  0  0  0  0  0  0
   36.7460   27.4550   34.7210 C   0  0  0  0  0  0  0  0  0  0  0  0
   37.5760   26.4300   34.3080 C   0  0  0  0  0  0  0  0  0  0  0  0
   37.9070   26.6010   33.0710 O   0  0  0  0  0  0  0  0  0  0  0  0
   36.7540   29.4490   30.8880 C   0  0  0  0  0  0  0  0  0  0  0  0
   37.4350   28.2890   31.2690 C   0  0  0  0  0  0  0  0  0  0  0  0
   38.2360   27.6770   30.2970 C   0  0  0  0  0  0  0  0  0  0  0  0
   38.3220   28.2330   29.0300 N   0  0  0  0  0  0  0  0  0  0  0  0
   37.6360   29.3510   28.7420 C   0  0  0  0  0  0  0  0  0  0  0  0
   36.8560   29.9610   29.6550 N   0  0  0  0  0  0  0  0  0  0  0  0
   39.5210   22.0400   34.7740 C   0  0  0  0  0  0  0  0  0  0  0  0
   39.3490   22.2000   33.2450 C   0  0  0  0  0  0  0  0  0  0  0  0
   38.4860   21.1610   32.7460 C   0  0  0  0  0  0  0  0  0  0  0  0
   38.5860   20.0250   32.0200 C   0  0  0  0  0  0  0  0  0  0  0  0
   37.5350   19.2420   31.7130 C   0  0  0  0  0  0  0  0  0  0  0  0
   36.2780   19.7030   32.2190 C   0  0  0  0  0  0  0  0  0  0  0  0
   36.6910   21.2380   33.1060 S   0  0  0  0  0  0  0  0  0  0  0  0
   34.9620   19.1690   32.1140 C   0  0  0  0  0  0  0  0  0  0  0  0
   34.0430   20.0110   31.9640 O   0  0  0  0  0  0  0  0  0  0  0  0
   37.4004   26.2722   36.9873 H   0  0  0  0  0  0  0  0  0  0  0  0
   38.1128   24.3955   38.4400 H   0  0  0  0  0  0  0  0  0  0  0  0
   36.0112   29.2112   33.5291 H   0  0  0  0  0  0  0  0  0  0  0  0
   36.2961   27.5920   35.7154 H   0  0  0  0  0  0  0  0  0  0  0  0
   36.1141   29.9572   31.6245 H   0  0  0  0  0  0  0  0  0  0  0  0
   38.7940   26.7600   30.5375 H   0  0  0  0  0  0  0  0  0  0  0  0
   37.7133   29.7805   27.7323 H   0  0  0  0  0  0  0  0  0  0  0  0
   40.5901   21.9741   35.0245 H   0  0  0  0  0  0  0  0  0  0  0  0
   39.0239   21.1219   35.1203 H   0  0  0  0  0  0  0  0  0  0  0  0
   38.9038   23.1820   33.0272 H   0  0  0  0  0  0  0  0  0  0  0  0
   40.3317   22.1254   32.7565 H   0  0  0  0  0  0  0  0  0  0  0  0
   39.5810   19.7239   31.6603 H   0  0  0  0  0  0  0  0  0  0  0  0
   37.6343   18.3208   31.1202 H   0  0  0  0  0  0  0  0  0  0  0  0
   34.7635   18.0881   32.1613 H   0  0  0  0  0  0  0  0  0  0  0  0
  1  2  2  0
  2  3  1  0
  4  3  2  0
  5  4  1  0
  6  1  1  0
  6  5  2  0
  7 11  1  0
  7  8  2  0
  8  9  1  0
 10  9  2  0
 10  1  1  0
 11 10  1  0
 12 13  2  0
 13  7  1  0
 14 13  1  0
 15 14  2  0
 16 15  1  0
 16 17  2  0
 17 12  1  0
 18  5  1  0
 19 18  1  0
 20 24  1  0
 20 19  1  0
 21 20  2  0
 22 21  1  0
 22 23  2  0
 23 24  1  0
 25 23  1  0
 26 25  2  0
  2 27  1  0
  3 28  1  0
  8 29  1  0
  9 30  1  0
 12 31  1  0
 14 32  1  0
 16 33  1  0
 18 34  1  0
 18 35  1  0
 19 36  1  0
 19 37  1  0
 21 38  1  0
 22 39  1  0
 25 40  1  0
M  ISO  8  27  14  28  14  29  14  30  14  31  14  32  14  33  14  34   8
M  ISO  6  35   8  36   8  37   8  38  14  39  14  40   6
M  END
>  <minimizedAffinity>  (1) 
-5.01368761

>  <minimizedRMSD>  (1) 
1.01527476

$$$$
