
     RDKit          3D

 50 53  0  0  0  0  0  0  0  0999 V2000
   38.0880   25.3350   35.4210 C   0  0  0  0  0  0  0  0  0  0  0  0
   37.7520   25.3780   36.7550 C   0  0  0  0  0  0  0  0  0  0  0  0
   38.1430   24.4040   37.6490 C   0  0  0  0  0  0  0  0  0  0  0  0
   38.8770   23.3800   37.1930 N   0  0  0  0  0  0  0  0  0  0  0  0
   39.2060   23.3390   35.8810 C   0  0  0  0  0  0  0  0  0  0  0  0
   38.8350   24.2770   34.9970 N   0  0  0  0  0  0  0  0  0  0  0  0
   37.4980   27.4850   32.6610 C   0  0  0  0  0  0  0  0  0  0  0  0
   36.6970   28.1330   33.6280 C   0  0  0  0  0  0  0  0  0  0  0  0
   36.8250   27.3880   34.8040 C   0  0  0  0  0  0  0  0  0  0  0  0
   37.6780   26.3570   34.4820 C   0  0  0  0  0  0  0  0  0  0  0  0
   38.0430   26.4460   33.2420 O   0  0  0  0  0  0  0  0  0  0  0  0
   36.8150   29.0450   30.8110 C   0  0  0  0  0  0  0  0  0  0  0  0
   37.5970   27.9920   31.3150 C   0  0  0  0  0  0  0  0  0  0  0  0
   38.5230   27.4150   30.4450 C   0  0  0  0  0  0  0  0  0  0  0  0
   38.6280   27.8920   29.1530 N   0  0  0  0  0  0  0  0  0  0  0  0
   37.8500   28.9010   28.7310 C   0  0  0  0  0  0  0  0  0  0  0  0
   36.9510   29.4710   29.5560 N   0  0  0  0  0  0  0  0  0  0  0  0
   40.0100   22.2280   35.3560 C   0  0  0  0  0  0  0  0  0  0  0  0
   40.1840   22.4400   33.8370 C   0  0  0  0  0  0  0  0  0  0  0  0
   39.3940   21.4730   33.1200 C   0  0  0  0  0  0  0  0  0  0  0  0
   39.6070   20.3820   32.3500 C   0  0  0  0  0  0  0  0  0  0  0  0
   38.5770   19.6630   31.8090 C   0  0  0  0  0  0  0  0  0  0  0  0
   37.2670   20.1510   32.1180 C   0  0  0  0  0  0  0  0  0  0  0  0
   37.5630   21.6110   33.1640 S   0  0  0  0  0  0  0  0  0  0  0  0
   36.0200   19.5960   31.6850 C   0  0  0  0  0  0  0  0  0  0  0  0
   36.1720   19.0890   30.2880 C   0  0  0  0  0  0  0  0  0  0  0  0
   34.9200   20.6200   31.7490 C   0  0  0  0  0  0  0  0  0  0  0  0
   35.6580   18.4400   32.6010 C   0  0  0  0  0  0  0  0  0  0  0  0
   37.1486   26.2215   37.1218 H   0  0  0  0  0  0  0  0  0  0  0  0
   37.8595   24.4660   38.7100 H   0  0  0  0  0  0  0  0  0  0  0  0
   36.0937   29.0415   33.4843 H   0  0  0  0  0  0  0  0  0  0  0  0
   36.3477   27.5834   35.7756 H   0  0  0  0  0  0  0  0  0  0  0  0
   36.0750   29.5277   31.4663 H   0  0  0  0  0  0  0  0  0  0  0  0
   39.1635   26.5878   30.7850 H   0  0  0  0  0  0  0  0  0  0  0  0
   37.9479   29.2670   27.6983 H   0  0  0  0  0  0  0  0  0  0  0  0
   40.9946   22.2157   35.8462 H   0  0  0  0  0  0  0  0  0  0  0  0
   39.5096   21.2684   35.5527 H   0  0  0  0  0  0  0  0  0  0  0  0
   39.8531   23.4542   33.5688 H   0  0  0  0  0  0  0  0  0  0  0  0
   41.2439   22.3155   33.5701 H   0  0  0  0  0  0  0  0  0  0  0  0
   40.6410   20.0628   32.1526 H   0  0  0  0  0  0  0  0  0  0  0  0
   38.7430   18.7745   31.1821 H   0  0  0  0  0  0  0  0  0  0  0  0
   36.4878   18.0356   30.3126 H   0  0  0  0  0  0  0  0  0  0  0  0
   35.2097   19.1711   29.7614 H   0  0  0  0  0  0  0  0  0  0  0  0
   36.9304   19.6870   29.7614 H   0  0  0  0  0  0  0  0  0  0  0  0
   34.6842   20.8395   32.8008 H   0  0  0  0  0  0  0  0  0  0  0  0
   35.2477   21.5420   31.2465 H   0  0  0  0  0  0  0  0  0  0  0  0
   34.0237   20.2273   31.2465 H   0  0  0  0  0  0  0  0  0  0  0  0
   35.7575   18.7578   33.6494 H   0  0  0  0  0  0  0  0  0  0  0  0
   34.6200   18.1308   32.4085 H   0  0  0  0  0  0  0  0  0  0  0  0
   36.3342   17.5940   32.4085 H   0  0  0  0  0  0  0  0  0  0  0  0
  1  2  2  0
  2  3  1  0
  4  3  2  0
  5  4  1  0
  6  1  1  0
  6  5  2  0
  7 11  1  0
  7  8  2  0
  8  9  1  0
 10  9  2  0
 10  1  1  0
 11 10  1  0
 12 13  2  0
 13  7  1  0
 14 13  1  0
 15 14  2  0
 16 15  1  0
 16 17  2  0
 17 12  1  0
 18  5  1  0
 19 18  1  0
 20 24  1  0
 20 19  1  0
 21 20  2  0
 22 23  2  0
 22 21  1  0
 23 24  1  0
 25 27  1  0
 25 23  1  0
 25 28  1  0
 26 25  1  0
  2 29  1  0
  3 30  1  0
  8 31  1  0
  9 32  1  0
 12 33  1  0
 14 34  1  0
 16 35  1  0
 18 36  1  0
 18 37  1  0
 19 38  1  0
 19 39  1  0
 21 40  1  0
 22 41  1  0
 26 42  1  0
 26 43  1  0
 26 44  1  0
 27 45  1  0
 27 46  1  0
 27 47  1  0
 28 48  1  0
 28 49  1  0
 28 50  1  0
M  ISO  8  29  14  30  14  31  14  32  14  33  14  34  14  35  14  36   8
M  ISO  8  37   8  38   8  39   8  40  14  41  14  42   8  43   8  44   8
M  ISO  6  45   8  46   8  47   8  48   8  49   8  50   8
M  END
>  <minimizedAffinity>  (1) 
-5.37023592

>  <minimizedRMSD>  (1) 
1.70452499

$$$$
