
     RDKit          3D

 26 27  0  0  0  0  0  0  0  0999 V2000
   37.8910   22.0180   34.9260 C   0  0  0  0  0  0  0  0  0  0  0  0
   36.6560   21.3960   34.8180 C   0  0  0  0  0  0  0  0  0  0  0  0
   36.4380   21.0810   33.4940 C   0  0  0  0  0  0  0  0  0  0  0  0
   37.5570   21.5290   32.8600 C   0  0  0  0  0  0  0  0  0  0  0  0
   38.3990   22.0800   33.7440 O   0  0  0  0  0  0  0  0  0  0  0  0
   38.4050   22.4730   36.2140 C   0  0  0  0  0  0  0  0  0  0  0  0
   39.7260   22.3250   36.6320 C   0  0  0  0  0  0  0  0  0  0  0  0
   40.1080   22.7930   37.8770 C   0  0  0  0  0  0  0  0  0  0  0  0
   39.1460   23.3960   38.6590 N   0  0  0  0  0  0  0  0  0  0  0  0
   37.8820   23.5250   38.2330 C   0  0  0  0  0  0  0  0  0  0  0  0
   37.5040   23.0720   37.0250 N   0  0  0  0  0  0  0  0  0  0  0  0
   35.2690   20.4100   32.8700 C   0  0  0  0  0  0  0  0  0  0  0  0
   35.0470   20.8940   31.4690 C   0  0  0  0  0  0  0  0  0  0  0  0
   35.4400   18.9090   32.9590 C   0  0  0  0  0  0  0  0  0  0  0  0
   35.9663   21.1889   35.6495 H   0  0  0  0  0  0  0  0  0  0  0  0
   37.7424   21.4498   31.7786 H   0  0  0  0  0  0  0  0  0  0  0  0
   40.4620   21.8383   35.9752 H   0  0  0  0  0  0  0  0  0  0  0  0
   41.1442   22.6874   38.2307 H   0  0  0  0  0  0  0  0  0  0  0  0
   37.1399   24.0106   38.8838 H   0  0  0  0  0  0  0  0  0  0  0  0
   34.3558   20.6738   33.4236 H   0  0  0  0  0  0  0  0  0  0  0  0
   34.5885   21.8936   31.4947 H   0  0  0  0  0  0  0  0  0  0  0  0
   36.0111   20.9463   30.9420 H   0  0  0  0  0  0  0  0  0  0  0  0
   34.3784   20.1974   30.9420 H   0  0  0  0  0  0  0  0  0  0  0  0
   35.4745   18.6059   34.0159 H   0  0  0  0  0  0  0  0  0  0  0  0
   34.5925   18.4134   32.4629 H   0  0  0  0  0  0  0  0  0  0  0  0
   36.3773   18.6167   32.4629 H   0  0  0  0  0  0  0  0  0  0  0  0
  1  6  1  0
  2  1  2  0
  3  2  1  0
  4  3  2  0
  4  5  1  0
  5  1  1  0
  6  7  2  0
  6 11  1  0
  7  8  1  0
  8  9  2  0
 10  9  1  0
 11 10  2  0
 12 14  1  0
 12  3  1  0
 13 12  1  0
  2 15  1  0
  4 16  1  0
  7 17  1  0
  8 18  1  0
 10 19  1  0
 12 20  1  0
 13 21  1  0
 13 22  1  0
 13 23  1  0
 14 24  1  0
 14 25  1  0
 14 26  1  0
M  ISO  8  15  14  16  14  17  14  18  14  19  14  20   8  21   8  22   8
M  ISO  4  23   8  24   8  25   8  26   8
M  END
>  <minimizedAffinity>  (1) 
-4.2636857

>  <minimizedRMSD>  (1) 
1.4981091

$$$$
