
     RDKit          3D

 20 21  0  0  0  0  0  0  0  0999 V2000
   37.6080   22.2870   34.6860 C   0  0  0  0  0  0  0  0  0  0  0  0
   36.7570   21.1790   34.5330 C   0  0  0  0  0  0  0  0  0  0  0  0
   36.3520   21.1700   33.2030 C   0  0  0  0  0  0  0  0  0  0  0  0
   36.9570   22.2390   32.6330 C   0  0  0  0  0  0  0  0  0  0  0  0
   37.6810   22.8610   33.5450 O   0  0  0  0  0  0  0  0  0  0  0  0
   38.2070   22.5780   35.9830 C   0  0  0  0  0  0  0  0  0  0  0  0
   39.5570   22.3190   36.2880 C   0  0  0  0  0  0  0  0  0  0  0  0
   39.9950   22.6460   37.5670 C   0  0  0  0  0  0  0  0  0  0  0  0
   39.1180   23.1950   38.4580 N   0  0  0  0  0  0  0  0  0  0  0  0
   37.8370   23.4290   38.1340 C   0  0  0  0  0  0  0  0  0  0  0  0
   37.4010   23.1210   36.9110 N   0  0  0  0  0  0  0  0  0  0  0  0
   35.4290   20.1320   32.6390 C   0  0  0  0  0  0  0  0  0  0  0  0
   34.2130   20.7360   32.3790 F   0  0  0  0  0  0  0  0  0  0  0  0
   35.9120   19.6870   31.4040 F   0  0  0  0  0  0  0  0  0  0  0  0
   35.3140   19.0980   33.5350 F   0  0  0  0  0  0  0  0  0  0  0  0
   36.4678   20.4595   35.3132 H   0  0  0  0  0  0  0  0  0  0  0  0
   36.8607   22.5406   31.5795 H   0  0  0  0  0  0  0  0  0  0  0  0
   40.2372   21.8763   35.5454 H   0  0  0  0  0  0  0  0  0  0  0  0
   41.0399   22.4637   37.8585 H   0  0  0  0  0  0  0  0  0  0  0  0
   37.1511   23.8716   38.8714 H   0  0  0  0  0  0  0  0  0  0  0  0
  1  6  1  0
  2  1  2  0
  3  2  1  0
  4  3  2  0
  4  5  1  0
  5  1  1  0
  6  7  2  0
  6 11  1  0
  7  8  1  0
  8  9  2  0
 10  9  1  0
 11 10  2  0
 12  3  1  0
 12 15  1  0
 13 12  1  0
 14 12  1  0
  2 16  1  0
  4 17  1  0
  7 18  1  0
  8 19  1  0
 10 20  1  0
M  ISO  5  16  14  17  14  18  14  19  14  20  14
M  END
>  <minimizedAffinity>  (1) 
-4.47933531

>  <minimizedRMSD>  (1) 
1.13961983

$$$$
