
     RDKit          3D

 20 21  0  0  0  0  0  0  0  0999 V2000
   38.0560   24.4640   34.8880 C   0  0  0  0  0  0  0  0  0  0  0  0
   38.6150   24.5320   36.1560 C   0  0  0  0  0  0  0  0  0  0  0  0
   38.9920   23.2540   36.5240 C   0  0  0  0  0  0  0  0  0  0  0  0
   38.6440   22.4830   35.4650 C   0  0  0  0  0  0  0  0  0  0  0  0
   38.0880   23.2230   34.4990 O   0  0  0  0  0  0  0  0  0  0  0  0
   37.5550   25.6530   34.2080 C   0  0  0  0  0  0  0  0  0  0  0  0
   37.3970   25.7790   32.8260 C   0  0  0  0  0  0  0  0  0  0  0  0
   36.9080   26.9670   32.3110 C   0  0  0  0  0  0  0  0  0  0  0  0
   36.6000   27.9700   33.1760 N   0  0  0  0  0  0  0  0  0  0  0  0
   36.7580   27.8350   34.5190 C   0  0  0  0  0  0  0  0  0  0  0  0
   37.2320   26.6860   35.0380 N   0  0  0  0  0  0  0  0  0  0  0  0
   39.6160   22.7670   37.7380 C   0  0  0  0  0  0  0  0  0  0  0  0
   40.7760   22.3230   37.7840 O   0  0  0  0  0  0  0  0  0  0  0  0
   38.9500   22.7600   38.9720 O   0  0  0  0  0  0  0  0  0  0  0  0
   38.7367   25.4422   36.7616 H   0  0  0  0  0  0  0  0  0  0  0  0
   38.7980   21.3953   35.4075 H   0  0  0  0  0  0  0  0  0  0  0  0
   37.6575   24.9460   32.1565 H   0  0  0  0  0  0  0  0  0  0  0  0
   36.7717   27.0968   31.2272 H   0  0  0  0  0  0  0  0  0  0  0  0
   36.4971   28.6695   35.1865 H   0  0  0  0  0  0  0  0  0  0  0  0
   39.4090   22.4194   39.7803 H   0  0  0  0  0  0  0  0  0  0  0  0
  1  2  2  0
  2  3  1  0
  3 12  1  0
  4  3  2  0
  5  1  1  0
  5  4  1  0
  6  1  1  0
  6 11  1  0
  7  6  2  0
  8  7  1  0
  8  9  2  0
  9 10  1  0
 10 11  2  0
 12 13  2  0
 12 14  1  0
  2 15  1  0
  4 16  1  0
  7 17  1  0
  8 18  1  0
 10 19  1  0
 14 20  1  0
M  ISO  6  15  14  16  14  17  14  18  14  19  14  20   3
M  END
>  <minimizedAffinity>  (1) 
-4.34650278

>  <minimizedRMSD>  (1) 
5.77648926

$$$$
