
     RDKit          3D

 24 26  0  0  0  0  0  0  0  0999 V2000
   37.1130   24.8240   32.8710 C   0  0  0  0  0  0  0  0  0  0  0  0
   37.2330   23.4340   32.9100 C   0  0  0  0  0  0  0  0  0  0  0  0
   36.3980   22.9120   31.9280 C   0  0  0  0  0  0  0  0  0  0  0  0
   35.8190   24.0060   31.3480 C   0  0  0  0  0  0  0  0  0  0  0  0
   36.2680   25.1010   31.9320 O   0  0  0  0  0  0  0  0  0  0  0  0
   37.8670   25.6750   33.7850 C   0  0  0  0  0  0  0  0  0  0  0  0
   39.2490   25.5620   33.9750 C   0  0  0  0  0  0  0  0  0  0  0  0
   39.8470   26.4460   34.8850 C   0  0  0  0  0  0  0  0  0  0  0  0
   39.0580   27.3610   35.5310 N   0  0  0  0  0  0  0  0  0  0  0  0
   37.7360   27.4330   35.3170 C   0  0  0  0  0  0  0  0  0  0  0  0
   37.1320   26.5990   34.4510 N   0  0  0  0  0  0  0  0  0  0  0  0
   36.1640   21.5100   31.5670 C   0  0  0  0  0  0  0  0  0  0  0  0
   35.1410   20.7260   32.1110 C   0  0  0  0  0  0  0  0  0  0  0  0
   35.3070   19.5200   31.4920 N   0  0  0  0  0  0  0  0  0  0  0  0
   36.3440   19.5730   30.6440 C   0  0  0  0  0  0  0  0  0  0  0  0
   36.8920   20.8010   30.6730 N   0  0  0  0  0  0  0  0  0  0  0  0
   37.8722   22.8561   33.5936 H   0  0  0  0  0  0  0  0  0  0  0  0
   35.0920   23.9780   30.5230 H   0  0  0  0  0  0  0  0  0  0  0  0
   39.8419   24.8107   33.4328 H   0  0  0  0  0  0  0  0  0  0  0  0
   40.9294   26.4054   35.0765 H   0  0  0  0  0  0  0  0  0  0  0  0
   37.1383   28.1829   35.8559 H   0  0  0  0  0  0  0  0  0  0  0  0
   34.3852   21.0119   32.8573 H   0  0  0  0  0  0  0  0  0  0  0  0
   36.6939   18.7382   30.0189 H   0  0  0  0  0  0  0  0  0  0  0  0
   37.6997   21.1335   30.1271 H   0  0  0  0  0  0  0  0  0  0  0  0
  1  2  2  0
  1  6  1  0
  3  2  1  0
  4  3  2  0
  4  5  1  0
  5  1  1  0
  6  7  2  0
  6 11  1  0
  7  8  1  0
  8  9  2  0
 10  9  1  0
 11 10  2  0
 12  3  1  0
 12 13  2  0
 14 13  1  0
 15 16  1  0
 15 14  2  0
 16 12  1  0
  2 17  1  0
  4 18  1  0
  7 19  1  0
  8 20  1  0
 10 21  1  0
 13 22  1  0
 15 23  1  0
 16 24  1  0
M  ISO  8  17  14  18  14  19  14  20  14  21  14  22  14  23  14  24   9
M  END
>  <minimizedAffinity>  (1) 
-3.95838594

>  <minimizedRMSD>  (1) 
4.00923967

$$$$
