
     RDKit          3D

 37 39  0  0  1  0  0  0  0  0999 V2000
   38.7750   23.7000   36.0190 C   0  0  1  0  0  0  0  0  0  0  0  0
   37.8450   22.7540   36.7010 C   0  0  0  0  0  0  0  0  0  0  0  0
   37.8010   23.2730   38.1180 C   0  0  0  0  0  0  0  0  0  0  0  0
   37.7620   24.7670   37.9440 C   0  0  0  0  0  0  0  0  0  0  0  0
   38.4720   25.0430   36.6560 C   0  0  2  0  0  0  0  0  0  0  0  0
   37.5980   25.7260   35.6890 N   0  0  0  0  0  0  0  0  0  0  0  0
   37.6470   27.1340   35.4850 C   0  0  0  0  0  0  0  0  0  0  0  0
   38.5280   27.8490   36.1320 N   0  0  0  0  0  0  0  0  0  0  0  0
   36.7660   27.8090   34.5930 N   0  0  0  0  0  0  0  0  0  0  0  0
   39.2010   27.4540   36.7930 H   0  0  0  0  0  0  0  0  0  0  0  0
   41.1860   23.7940   35.4760 C   0  0  0  0  0  0  0  0  0  0  0  0
   42.3750   23.2050   35.8610 C   0  0  0  0  0  0  0  0  0  0  0  0
   42.0150   22.3160   36.8410 N   0  0  0  0  0  0  0  0  0  0  0  0
   40.6860   22.4150   36.9860 C   0  0  0  0  0  0  0  0  0  0  0  0
   40.1450   23.3140   36.1620 N   0  0  0  0  0  0  0  0  0  0  0  0
   41.0440   24.8320   34.4350 C   0  0  0  0  0  0  0  0  0  0  0  0
   41.3650   26.1690   34.7550 C   0  0  0  0  0  0  0  0  0  0  0  0
   41.2120   27.1140   33.7310 C   0  0  0  0  0  0  0  0  0  0  0  0
   40.7730   26.6970   32.5150 N   0  0  0  0  0  0  0  0  0  0  0  0
   40.4830   25.4200   32.2660 C   0  0  0  0  0  0  0  0  0  0  0  0
   40.6080   24.4520   33.2090 N   0  0  0  0  0  0  0  0  0  0  0  0
   38.6250   23.7209   34.9295 H   0  0  0  0  0  0  0  0  0  0  0  0
   36.8467   22.7814   36.2399 H   0  0  0  0  0  0  0  0  0  0  0  0
   38.1724   21.7059   36.6360 H   0  0  0  0  0  0  0  0  0  0  0  0
   36.9018   22.9144   38.6403 H   0  0  0  0  0  0  0  0  0  0  0  0
   38.6538   22.9345   38.7248 H   0  0  0  0  0  0  0  0  0  0  0  0
   36.7215   25.1201   37.8918 H   0  0  0  0  0  0  0  0  0  0  0  0
   38.2370   25.2868   38.7891 H   0  0  0  0  0  0  0  0  0  0  0  0
   39.3561   25.6594   36.8762 H   0  0  0  0  0  0  0  0  0  0  0  0
   36.9285   25.1667   35.1415 H   0  0  0  0  0  0  0  0  0  0  0  0
   36.8354   28.8298   34.4749 H   0  0  0  0  0  0  0  0  0  0  0  0
   36.0593   27.2764   34.0659 H   0  0  0  0  0  0  0  0  0  0  0  0
   43.3835   23.4043   35.4695 H   0  0  0  0  0  0  0  0  0  0  0  0
   40.1049   21.8199   37.7059 H   0  0  0  0  0  0  0  0  0  0  0  0
   41.7173   26.4547   35.7571 H   0  0  0  0  0  0  0  0  0  0  0  0
   41.4434   28.1746   33.9090 H   0  0  0  0  0  0  0  0  0  0  0  0
   40.1304   25.1413   31.2620 H   0  0  0  0  0  0  0  0  0  0  0  0
  1 15  1  0
  1  5  1  0
  1  2  1  0
  2  3  1  0
  4  3  1  0
  5  4  1  0
  6  5  1  0
  7  6  1  0
  7  8  2  0
  8 10  1  0
  9  7  1  0
 11 12  2  0
 11 15  1  0
 12 13  1  0
 13 14  2  0
 15 14  1  0
 16 17  2  0
 16 11  1  0
 18 17  1  0
 19 18  2  0
 20 19  1  0
 20 21  2  0
 21 16  1  0
  1 22  1  6
  2 23  1  0
  2 24  1  0
  3 25  1  0
  3 26  1  0
  4 27  1  0
  4 28  1  0
  5 29  1  1
  6 30  1  0
  9 31  1  0
  9 32  1  0
 12 33  1  0
 14 34  1  0
 17 35  1  0
 18 36  1  0
 20 37  1  0
M  ISO  8  22  13  23  13  24  13  25  13  26  13  27  13  28  13  29  13
M  ISO  5  33  14  34  14  35  14  36  14  37  14
M  END
>  <minimizedAffinity>  (1) 
-4.88481855

>  <minimizedRMSD>  (1) 
3.82152772

$$$$
