
     RDKit          3D

 30 32  0  0  0  0  0  0  0  0999 V2000
   38.7290   23.9040   34.3640 C   0  0  0  0  0  0  0  0  0  0  0  0
   39.4220   24.8630   33.6120 C   0  0  0  0  0  0  0  0  0  0  0  0
   38.6510   25.2140   32.5250 C   0  0  0  0  0  0  0  0  0  0  0  0
   37.5190   24.4480   32.6660 C   0  0  0  0  0  0  0  0  0  0  0  0
   37.6190   23.7010   33.7580 O   0  0  0  0  0  0  0  0  0  0  0  0
   39.3020   23.3460   35.5750 C   0  0  0  0  0  0  0  0  0  0  0  0
   38.8150   23.6110   36.8580 C   0  0  0  0  0  0  0  0  0  0  0  0
   39.4570   23.0090   37.9400 C   0  0  0  0  0  0  0  0  0  0  0  0
   40.5330   22.1890   37.6980 N   0  0  0  0  0  0  0  0  0  0  0  0
   40.9730   21.9580   36.4500 C   0  0  0  0  0  0  0  0  0  0  0  0
   40.3730   22.5240   35.3870 N   0  0  0  0  0  0  0  0  0  0  0  0
   38.8980   26.1350   31.4720 N   0  0  0  0  0  0  0  0  0  0  0  0
   40.0790   26.0080   30.6390 C   0  0  0  0  0  0  0  0  0  0  0  0
   39.9200   26.7970   29.3580 C   0  0  0  0  0  0  0  0  0  0  0  0
   39.4810   28.0910   29.6790 O   0  0  0  0  0  0  0  0  0  0  0  0
   38.1790   28.0920   30.1450 C   0  0  0  0  0  0  0  0  0  0  0  0
   37.9250   27.1710   31.2960 C   0  0  0  0  0  0  0  0  0  0  0  0
   40.4165   25.2682   33.8502 H   0  0  0  0  0  0  0  0  0  0  0  0
   36.6605   24.4533   31.9782 H   0  0  0  0  0  0  0  0  0  0  0  0
   37.9510   24.2747   37.0099 H   0  0  0  0  0  0  0  0  0  0  0  0
   39.1086   23.1872   38.9680 H   0  0  0  0  0  0  0  0  0  0  0  0
   41.8374   21.2957   36.2947 H   0  0  0  0  0  0  0  0  0  0  0  0
   40.9518   26.3876   31.1904 H   0  0  0  0  0  0  0  0  0  0  0  0
   40.2187   24.9470   30.3847 H   0  0  0  0  0  0  0  0  0  0  0  0
   39.1800   26.3051   28.7096 H   0  0  0  0  0  0  0  0  0  0  0  0
   40.8820   26.8481   28.8270 H   0  0  0  0  0  0  0  0  0  0  0  0
   37.9302   29.1150   30.4637 H   0  0  0  0  0  0  0  0  0  0  0  0
   37.5525   27.7319   29.3156 H   0  0  0  0  0  0  0  0  0  0  0  0
   37.8994   27.7741   32.2156 H   0  0  0  0  0  0  0  0  0  0  0  0
   36.9737   26.6636   31.0778 H   0  0  0  0  0  0  0  0  0  0  0  0
  1  6  1  0
  2  1  2  0
  3  4  2  0
  3  2  1  0
  4  5  1  0
  5  1  1  0
  6  7  2  0
  7  8  1  0
  9  8  2  0
 10  9  1  0
 11  6  1  0
 11 10  2  0
 12  3  1  0
 13 12  1  0
 14 15  1  0
 14 13  1  0
 15 16  1  0
 16 17  1  0
 17 12  1  0
  2 18  1  0
  4 19  1  0
  7 20  1  0
  8 21  1  0
 10 22  1  0
 13 23  1  0
 13 24  1  0
 14 25  1  0
 14 26  1  0
 16 27  1  0
 16 28  1  0
 17 29  1  0
 17 30  1  0
M  ISO  8  18  14  19  14  20  14  21  14  22  14  23  13  24  13  25  13
M  ISO  5  26  13  27  13  28  13  29  13  30  13
M  END
>  <minimizedAffinity>  (1) 
-3.4733727

>  <minimizedRMSD>  (1) 
6.85158014

$$$$
