
     RDKit          3D

 19 20  0  0  0  0  0  0  0  0999 V2000
   37.6290   22.1370   34.7870 C   0  0  0  0  0  0  0  0  0  0  0  0
   36.5930   21.1880   34.7300 C   0  0  0  0  0  0  0  0  0  0  0  0
   36.2380   21.0450   33.3970 C   0  0  0  0  0  0  0  0  0  0  0  0
   37.0710   21.9060   32.7240 C   0  0  0  0  0  0  0  0  0  0  0  0
   37.8660   22.5220   33.5840 O   0  0  0  0  0  0  0  0  0  0  0  0
   38.2270   22.5100   36.0740 C   0  0  0  0  0  0  0  0  0  0  0  0
   39.5830   22.3120   36.3670 C   0  0  0  0  0  0  0  0  0  0  0  0
   40.0230   22.7150   37.6340 C   0  0  0  0  0  0  0  0  0  0  0  0
   39.1210   23.2760   38.5110 N   0  0  0  0  0  0  0  0  0  0  0  0
   37.8280   23.4430   38.1740 C   0  0  0  0  0  0  0  0  0  0  0  0
   37.3650   23.0710   36.9710 N   0  0  0  0  0  0  0  0  0  0  0  0
   35.1930   20.1570   32.8460 C   0  0  0  0  0  0  0  0  0  0  0  0
   35.3950   18.9520   33.0810 O   0  0  0  0  0  0  0  0  0  0  0  0
   36.1469   20.6575   35.5841 H   0  0  0  0  0  0  0  0  0  0  0  0
   37.0762   22.0599   31.6348 H   0  0  0  0  0  0  0  0  0  0  0  0
   40.2699   21.8610   35.6358 H   0  0  0  0  0  0  0  0  0  0  0  0
   41.0758   22.5852   37.9252 H   0  0  0  0  0  0  0  0  0  0  0  0
   37.1364   23.8942   38.9008 H   0  0  0  0  0  0  0  0  0  0  0  0
   34.3223   20.5252   32.2835 H   0  0  0  0  0  0  0  0  0  0  0  0
  1  6  1  0
  2  1  2  0
  3  2  1  0
  4  3  2  0
  4  5  1  0
  5  1  1  0
  6  7  2  0
  6 11  1  0
  7  8  1  0
  8  9  2  0
 10  9  1  0
 11 10  2  0
 12 13  2  0
 12  3  1  0
  2 14  1  0
  4 15  1  0
  7 16  1  0
  8 17  1  0
 10 18  1  0
 12 19  1  0
M  ISO  6  14  14  15  14  16  14  17  14  18  14  19   6
M  END
>  <minimizedAffinity>  (1) 
-3.78165269

>  <minimizedRMSD>  (1) 
0.72357738

$$$$
