
     RDKit          3D

 39 41  0  0  0  0  0  0  0  0999 V2000
   38.0850   24.1760   34.7630 C   0  0  0  0  0  0  0  0  0  0  0  0
   37.9110   23.2120   33.7740 C   0  0  0  0  0  0  0  0  0  0  0  0
   37.5500   23.8460   32.6050 C   0  0  0  0  0  0  0  0  0  0  0  0
   37.5200   25.1800   32.9380 C   0  0  0  0  0  0  0  0  0  0  0  0
   37.8430   25.3350   34.2280 O   0  0  0  0  0  0  0  0  0  0  0  0
   38.4720   23.8210   36.1280 C   0  0  0  0  0  0  0  0  0  0  0  0
   39.5890   23.0800   36.4670 C   0  0  0  0  0  0  0  0  0  0  0  0
   39.8610   22.8040   37.7860 C   0  0  0  0  0  0  0  0  0  0  0  0
   39.0100   23.2750   38.7280 N   0  0  0  0  0  0  0  0  0  0  0  0
   37.9130   24.0040   38.3890 C   0  0  0  0  0  0  0  0  0  0  0  0
   37.6490   24.2740   37.0890 N   0  0  0  0  0  0  0  0  0  0  0  0
   37.2600   23.2260   31.2860 C   0  0  0  0  0  0  0  0  0  0  0  0
   37.4680   21.7060   31.3180 C   0  0  0  0  0  0  0  0  0  0  0  0
   36.1750   21.0240   30.9260 C   0  0  0  0  0  0  0  0  0  0  0  0
   35.0960   21.2070   31.9500 C   0  0  0  0  0  0  0  0  0  0  0  0
   34.4310   19.8680   32.1740 C   0  0  0  0  0  0  0  0  0  0  0  0
   35.4770   18.9380   32.7520 C   0  0  0  0  0  0  0  0  0  0  0  0
   36.5550   18.6790   31.7230 C   0  0  0  0  0  0  0  0  0  0  0  0
   36.4410   19.6060   30.5380 C   0  0  0  0  0  0  0  0  0  0  0  0
   38.0399   22.1273   33.9037 H   0  0  0  0  0  0  0  0  0  0  0  0
   37.2681   25.9981   32.2471 H   0  0  0  0  0  0  0  0  0  0  0  0
   40.2618   22.7103   35.6792 H   0  0  0  0  0  0  0  0  0  0  0  0
   40.7466   22.2160   38.0687 H   0  0  0  0  0  0  0  0  0  0  0  0
   37.2379   24.3755   39.1740 H   0  0  0  0  0  0  0  0  0  0  0  0
   37.9309   23.6622   30.5313 H   0  0  0  0  0  0  0  0  0  0  0  0
   36.2070   23.4239   31.0370 H   0  0  0  0  0  0  0  0  0  0  0  0
   38.2617   21.4273   30.6092 H   0  0  0  0  0  0  0  0  0  0  0  0
   37.7619   21.3921   32.3305 H   0  0  0  0  0  0  0  0  0  0  0  0
   35.7657   21.5171   30.0319 H   0  0  0  0  0  0  0  0  0  0  0  0
   35.5334   21.5686   32.8923 H   0  0  0  0  0  0  0  0  0  0  0  0
   34.3593   21.9453   31.6004 H   0  0  0  0  0  0  0  0  0  0  0  0
   33.5932   19.9767   32.8785 H   0  0  0  0  0  0  0  0  0  0  0  0
   34.0324   19.4679   31.2300 H   0  0  0  0  0  0  0  0  0  0  0  0
   35.9259   19.4015   33.6428 H   0  0  0  0  0  0  0  0  0  0  0  0
   35.0029   17.9851   33.0300 H   0  0  0  0  0  0  0  0  0  0  0  0
   37.5381   18.8248   32.1944 H   0  0  0  0  0  0  0  0  0  0  0  0
   36.4365   17.6475   31.3596 H   0  0  0  0  0  0  0  0  0  0  0  0
   35.6163   19.2574   29.8990 H   0  0  0  0  0  0  0  0  0  0  0  0
   37.4068   19.5858   30.0119 H   0  0  0  0  0  0  0  0  0  0  0  0
  1  6  1  0
  2  1  2  0
  3  4  2  0
  3  2  1  0
  4  5  1  0
  5  1  1  0
  6  7  2  0
  6 11  1  0
  7  8  1  0
  8  9  2  0
 10  9  1  0
 11 10  2  0
 12 13  1  0
 12  3  1  0
 14 13  1  0
 14 15  1  0
 15 16  1  0
 16 17  1  0
 18 17  1  0
 19 14  1  0
 19 18  1  0
  2 20  1  0
  4 21  1  0
  7 22  1  0
  8 23  1  0
 10 24  1  0
 12 25  1  0
 12 26  1  0
 13 27  1  0
 13 28  1  0
 14 29  1  0
 15 30  1  0
 15 31  1  0
 16 32  1  0
 16 33  1  0
 17 34  1  0
 17 35  1  0
 18 36  1  0
 18 37  1  0
 19 38  1  0
 19 39  1  0
M  ISO  8  20  14  21  14  22  14  23  14  24  14  25   8  26   8  27   8
M  ISO  8  28   8  29  13  30  13  31  13  32  13  33  13  34  13  35  13
M  ISO  4  36  13  37  13  38  13  39  13
M  END
>  <minimizedAffinity>  (1) 
-5.17129946

>  <minimizedRMSD>  (1) 
2.9207325

$$$$
