
     RDKit          3D

 37 40  0  0  1  0  0  0  0  0999 V2000
   38.1590   25.8080   33.9950 C   0  0  1  0  0  0  0  0  0  0  0  0
   39.5200   26.4060   34.0710 C   0  0  0  0  0  0  0  0  0  0  0  0
   39.4050   27.4060   35.1900 C   0  0  0  0  0  0  0  0  0  0  0  0
   38.5260   26.7190   36.1980 C   0  0  0  0  0  0  0  0  0  0  0  0
   37.6580   25.7980   35.4260 C   0  0  2  0  0  0  0  0  0  0  0  0
   37.0770   26.4290   31.8290 C   0  0  0  0  0  0  0  0  0  0  0  0
   36.1880   27.3570   31.3280 C   0  0  0  0  0  0  0  0  0  0  0  0
   35.8480   28.1250   32.3960 N   0  0  0  0  0  0  0  0  0  0  0  0
   36.5130   27.6530   33.4520 C   0  0  0  0  0  0  0  0  0  0  0  0
   37.2910   26.5950   33.1420 N   0  0  0  0  0  0  0  0  0  0  0  0
   37.7320   25.3700   31.0560 C   0  0  0  0  0  0  0  0  0  0  0  0
   37.2300   24.0560   31.1140 C   0  0  0  0  0  0  0  0  0  0  0  0
   37.9080   23.0820   30.3450 C   0  0  0  0  0  0  0  0  0  0  0  0
   38.9710   23.4560   29.6180 N   0  0  0  0  0  0  0  0  0  0  0  0
   39.4150   24.7240   29.5960 C   0  0  0  0  0  0  0  0  0  0  0  0
   38.8080   25.7020   30.3110 N   0  0  0  0  0  0  0  0  0  0  0  0
   37.7670   24.3950   35.9150 C   0  0  0  0  0  0  0  0  0  0  0  0
   38.1240   23.3050   35.1130 C   0  0  0  0  0  0  0  0  0  0  0  0
   38.1110   22.1790   35.9410 C   0  0  0  0  0  0  0  0  0  0  0  0
   37.7580   22.5980   37.1820 N   0  0  0  0  0  0  0  0  0  0  0  0
   37.5590   23.9070   37.1510 N   0  0  0  0  0  0  0  0  0  0  0  0
   38.1752   24.7987   33.5579 H   0  0  0  0  0  0  0  0  0  0  0  0
   40.2733   25.6394   34.3052 H   0  0  0  0  0  0  0  0  0  0  0  0
   39.8406   26.8611   33.1222 H   0  0  0  0  0  0  0  0  0  0  0  0
   40.3930   27.6287   35.6192 H   0  0  0  0  0  0  0  0  0  0  0  0
   38.9954   28.3710   34.8569 H   0  0  0  0  0  0  0  0  0  0  0  0
   39.1382   26.1543   36.9166 H   0  0  0  0  0  0  0  0  0  0  0  0
   37.9316   27.4440   36.7734 H   0  0  0  0  0  0  0  0  0  0  0  0
   36.6139   26.1293   35.5261 H   0  0  0  0  0  0  0  0  0  0  0  0
   35.8324   27.4540   30.2916 H   0  0  0  0  0  0  0  0  0  0  0  0
   36.4356   28.0791   34.4632 H   0  0  0  0  0  0  0  0  0  0  0  0
   36.3536   23.7996   31.7273 H   0  0  0  0  0  0  0  0  0  0  0  0
   37.5692   22.0355   30.3432 H   0  0  0  0  0  0  0  0  0  0  0  0
   40.2930   24.9743   28.9824 H   0  0  0  0  0  0  0  0  0  0  0  0
   38.3673   23.3296   34.0405 H   0  0  0  0  0  0  0  0  0  0  0  0
   38.3435   21.1462   35.6422 H   0  0  0  0  0  0  0  0  0  0  0  0
   37.6607   21.9965   38.0125 H   0  0  0  0  0  0  0  0  0  0  0  0
  1  2  1  0
  1  5  1  0
  2  3  1  0
  3  4  1  0
  5 17  1  0
  5  4  1  0
  6 10  1  0
  7  6  2  0
  7  8  1  0
  8  9  2  0
 10  9  1  0
 10  1  1  0
 11 12  2  0
 11  6  1  0
 13 12  1  0
 14 13  2  0
 15 14  1  0
 15 16  2  0
 16 11  1  0
 17 21  2  0
 18 17  1  0
 18 19  2  0
 19 20  1  0
 21 20  1  0
  1 22  1  6
  2 23  1  0
  2 24  1  0
  3 25  1  0
  3 26  1  0
  4 27  1  0
  4 28  1  0
  5 29  1  6
  7 30  1  0
  9 31  1  0
 12 32  1  0
 13 33  1  0
 15 34  1  0
 18 35  1  0
 19 36  1  0
 20 37  1  0
M  ISO  8  22  13  23  13  24  13  25  13  26  13  27  13  28  13  29  13
M  ISO  8  30  14  31  14  32  14  33  14  34  14  35  14  36  14  37   9
M  END
>  <minimizedAffinity>  (1) 
-4.84763479

>  <minimizedRMSD>  (1) 
4.44598246

$$$$
