
     RDKit          3D

 23 24  0  0  0  0  0  0  0  0999 V2000
   37.6270   22.1090   34.7500 C   0  0  0  0  0  0  0  0  0  0  0  0
   36.5490   21.2430   34.6700 C   0  0  0  0  0  0  0  0  0  0  0  0
   36.1920   21.0820   33.3550 C   0  0  0  0  0  0  0  0  0  0  0  0
   37.0880   21.8720   32.6750 C   0  0  0  0  0  0  0  0  0  0  0  0
   37.9240   22.4660   33.5380 O   0  0  0  0  0  0  0  0  0  0  0  0
   38.2290   22.4740   36.0230 C   0  0  0  0  0  0  0  0  0  0  0  0
   39.5710   22.2870   36.3450 C   0  0  0  0  0  0  0  0  0  0  0  0
   40.0270   22.6760   37.5920 C   0  0  0  0  0  0  0  0  0  0  0  0
   39.1440   23.2310   38.4610 N   0  0  0  0  0  0  0  0  0  0  0  0
   37.8390   23.4080   38.1330 C   0  0  0  0  0  0  0  0  0  0  0  0
   37.3840   23.0330   36.9220 N   0  0  0  0  0  0  0  0  0  0  0  0
   35.1070   20.2600   32.7630 C   0  0  0  0  0  0  0  0  0  0  0  0
   35.4170   18.7660   32.8330 C   0  0  0  0  0  0  0  0  0  0  0  0
   36.0562   20.7599   35.5266 H   0  0  0  0  0  0  0  0  0  0  0  0
   37.1150   21.9982   31.5826 H   0  0  0  0  0  0  0  0  0  0  0  0
   40.2603   21.8353   35.6164 H   0  0  0  0  0  0  0  0  0  0  0  0
   41.0816   22.5386   37.8730 H   0  0  0  0  0  0  0  0  0  0  0  0
   37.1489   23.8603   38.8604 H   0  0  0  0  0  0  0  0  0  0  0  0
   34.9790   20.5470   31.7088 H   0  0  0  0  0  0  0  0  0  0  0  0
   34.1886   20.4436   33.3400 H   0  0  0  0  0  0  0  0  0  0  0  0
   35.4818   18.4539   33.8858 H   0  0  0  0  0  0  0  0  0  0  0  0
   34.6168   18.2016   32.3318 H   0  0  0  0  0  0  0  0  0  0  0  0
   36.3757   18.5666   32.3318 H   0  0  0  0  0  0  0  0  0  0  0  0
  1  6  1  0
  2  1  2  0
  3  2  1  0
  4  3  2  0
  4  5  1  0
  5  1  1  0
  6  7  2  0
  6 11  1  0
  7  8  1  0
  8  9  2  0
 10  9  1  0
 11 10  2  0
 12 13  1  0
 12  3  1  0
  2 14  1  0
  4 15  1  0
  7 16  1  0
  8 17  1  0
 10 18  1  0
 12 19  1  0
 12 20  1  0
 13 21  1  0
 13 22  1  0
 13 23  1  0
M  ISO  8  14  14  15  14  16  14  17  14  18  14  19   8  20   8  21   8
M  ISO  2  22   8  23   8
M  END
>  <minimizedAffinity>  (1) 
-4.0777359

>  <minimizedRMSD>  (1) 
0.703711569

$$$$
