
     RDKit          3D

 33 35  0  0  0  0  0  0  0  0999 V2000
   38.0580   24.2540   34.7850 C   0  0  0  0  0  0  0  0  0  0  0  0
   37.8620   23.3070   33.7820 C   0  0  0  0  0  0  0  0  0  0  0  0
   37.4730   23.9350   32.6270 C   0  0  0  0  0  0  0  0  0  0  0  0
   37.4480   25.2700   32.9890 C   0  0  0  0  0  0  0  0  0  0  0  0
   37.7990   25.4140   34.2700 O   0  0  0  0  0  0  0  0  0  0  0  0
   38.4740   23.8770   36.1190 C   0  0  0  0  0  0  0  0  0  0  0  0
   39.5810   23.0700   36.4000 C   0  0  0  0  0  0  0  0  0  0  0  0
   39.9000   22.7660   37.7120 C   0  0  0  0  0  0  0  0  0  0  0  0
   39.1020   23.2780   38.6880 N   0  0  0  0  0  0  0  0  0  0  0  0
   38.0370   24.0560   38.4060 C   0  0  0  0  0  0  0  0  0  0  0  0
   37.7100   24.3640   37.1330 N   0  0  0  0  0  0  0  0  0  0  0  0
   37.1480   23.3850   31.3000 C   0  0  0  0  0  0  0  0  0  0  0  0
   35.6990   22.8710   31.2450 C   0  0  0  0  0  0  0  0  0  0  0  0
   35.7040   21.3980   31.4440 C   0  0  0  0  0  0  0  0  0  0  0  0
   34.8270   20.7250   32.2680 C   0  0  0  0  0  0  0  0  0  0  0  0
   34.9490   19.3370   32.3580 C   0  0  0  0  0  0  0  0  0  0  0  0
   35.9170   18.6420   31.6460 C   0  0  0  0  0  0  0  0  0  0  0  0
   36.7800   19.3460   30.8310 C   0  0  0  0  0  0  0  0  0  0  0  0
   36.6890   20.7370   30.7150 C   0  0  0  0  0  0  0  0  0  0  0  0
   37.9985   22.2218   33.8989 H   0  0  0  0  0  0  0  0  0  0  0  0
   37.1771   26.0971   32.3163 H   0  0  0  0  0  0  0  0  0  0  0  0
   40.1980   22.6770   35.5785 H   0  0  0  0  0  0  0  0  0  0  0  0
   40.7664   22.1340   37.9567 H   0  0  0  0  0  0  0  0  0  0  0  0
   37.4224   24.4475   39.2300 H   0  0  0  0  0  0  0  0  0  0  0  0
   37.2769   24.1738   30.5443 H   0  0  0  0  0  0  0  0  0  0  0  0
   37.8230   22.5396   31.1008 H   0  0  0  0  0  0  0  0  0  0  0  0
   35.1070   23.3491   32.0393 H   0  0  0  0  0  0  0  0  0  0  0  0
   35.2535   23.1142   30.2691 H   0  0  0  0  0  0  0  0  0  0  0  0
   34.0554   21.2647   32.8367 H   0  0  0  0  0  0  0  0  0  0  0  0
   34.2602   18.7798   33.0100 H   0  0  0  0  0  0  0  0  0  0  0  0
   35.9949   17.5480   31.7300 H   0  0  0  0  0  0  0  0  0  0  0  0
   37.5515   18.8048   30.2637 H   0  0  0  0  0  0  0  0  0  0  0  0
   37.3784   21.2947   30.0641 H   0  0  0  0  0  0  0  0  0  0  0  0
  1  6  1  0
  2  1  2  0
  3  4  2  0
  3  2  1  0
  4  5  1  0
  5  1  1  0
  6  7  2  0
  6 11  1  0
  7  8  1  0
  8  9  2  0
 10  9  1  0
 11 10  2  0
 12  3  1  0
 13 12  1  0
 13 14  1  0
 14 15  2  0
 15 16  1  0
 17 16  2  0
 18 17  1  0
 19 18  2  0
 19 14  1  0
  2 20  1  0
  4 21  1  0
  7 22  1  0
  8 23  1  0
 10 24  1  0
 12 25  1  0
 12 26  1  0
 13 27  1  0
 13 28  1  0
 15 29  1  0
 16 30  1  0
 17 31  1  0
 18 32  1  0
 19 33  1  0
M  ISO  8  20  14  21  14  22  14  23  14  24  14  25   8  26   8  27   8
M  ISO  6  28   8  29  14  30  14  31  14  32  14  33  14
M  END
>  <minimizedAffinity>  (1) 
-5.212852

>  <minimizedRMSD>  (1) 
2.80135036

$$$$
