
     RDKit          3D

 30 32  0  0  0  0  0  0  0  0999 V2000
   37.6850   22.2940   34.7600 C   0  0  0  0  0  0  0  0  0  0  0  0
   36.6570   21.3610   34.6360 C   0  0  0  0  0  0  0  0  0  0  0  0
   36.2470   21.3090   33.3220 C   0  0  0  0  0  0  0  0  0  0  0  0
   37.0560   22.2290   32.6900 C   0  0  0  0  0  0  0  0  0  0  0  0
   37.8960   22.7920   33.5760 O   0  0  0  0  0  0  0  0  0  0  0  0
   38.3220   22.5700   36.0270 C   0  0  0  0  0  0  0  0  0  0  0  0
   39.6410   22.3070   36.3410 C   0  0  0  0  0  0  0  0  0  0  0  0
   40.1480   22.6120   37.5860 C   0  0  0  0  0  0  0  0  0  0  0  0
   39.3080   23.1730   38.4790 N   0  0  0  0  0  0  0  0  0  0  0  0
   38.0180   23.4330   38.1810 C   0  0  0  0  0  0  0  0  0  0  0  0
   37.5160   23.1390   36.9690 N   0  0  0  0  0  0  0  0  0  0  0  0
   35.1900   20.4740   32.7080 C   0  0  0  0  0  0  0  0  0  0  0  0
   35.4050   18.9840   33.0170 C   0  0  0  0  0  0  0  0  0  0  0  0
   35.9690   18.3720   31.7710 C   0  0  0  0  0  0  0  0  0  0  0  0
   36.4970   17.1160   31.5870 C   0  0  0  0  0  0  0  0  0  0  0  0
   36.8520   17.1210   30.2380 C   0  0  0  0  0  0  0  0  0  0  0  0
   36.5560   18.2950   29.6590 N   0  0  0  0  0  0  0  0  0  0  0  0
   36.0100   19.0690   30.6070 N   0  0  0  0  0  0  0  0  0  0  0  0
   36.2391   20.7609   35.4577 H   0  0  0  0  0  0  0  0  0  0  0  0
   37.0196   22.4678   31.6168 H   0  0  0  0  0  0  0  0  0  0  0  0
   40.2965   21.8474   35.5866 H   0  0  0  0  0  0  0  0  0  0  0  0
   41.1979   22.4056   37.8412 H   0  0  0  0  0  0  0  0  0  0  0  0
   37.3679   23.8920   38.9404 H   0  0  0  0  0  0  0  0  0  0  0  0
   35.2064   20.6198   31.6178 H   0  0  0  0  0  0  0  0  0  0  0  0
   34.2197   20.7788   33.1271 H   0  0  0  0  0  0  0  0  0  0  0  0
   36.1112   18.8665   33.8522 H   0  0  0  0  0  0  0  0  0  0  0  0
   34.4632   18.4970   33.3101 H   0  0  0  0  0  0  0  0  0  0  0  0
   36.6114   16.3062   32.3227 H   0  0  0  0  0  0  0  0  0  0  0  0
   37.3154   16.2712   29.7155 H   0  0  0  0  0  0  0  0  0  0  0  0
   36.7175   18.5519   28.6747 H   0  0  0  0  0  0  0  0  0  0  0  0
  1  6  1  0
  2  1  2  0
  3  2  1  0
  4  3  2  0
  4  5  1  0
  5  1  1  0
  6  7  2  0
  6 11  1  0
  7  8  1  0
  8  9  2  0
 10  9  1  0
 11 10  2  0
 12 13  1  0
 12  3  1  0
 14 13  1  0
 15 14  1  0
 16 15  2  0
 17 16  1  0
 17 18  1  0
 18 14  2  0
  2 19  1  0
  4 20  1  0
  7 21  1  0
  8 22  1  0
 10 23  1  0
 12 24  1  0
 12 25  1  0
 13 26  1  0
 13 27  1  0
 15 28  1  0
 16 29  1  0
 17 30  1  0
M  ISO  8  19  14  20  14  21  14  22  14  23  14  24   8  25   8  26   8
M  ISO  4  27   8  28  14  29  14  30   9
M  END
>  <minimizedAffinity>  (1) 
-4.64187479

>  <minimizedRMSD>  (1) 
0.971432388

$$$$
