
     RDKit          3D

 33 35  0  0  0  0  0  0  0  0999 V2000
   38.7540   22.3090   34.4260 C   0  0  0  0  0  0  0  0  0  0  0  0
   37.6930   22.7220   33.6520 C   0  0  0  0  0  0  0  0  0  0  0  0
   37.8480   22.2910   32.3680 C   0  0  0  0  0  0  0  0  0  0  0  0
   39.0450   21.6000   32.4040 C   0  0  0  0  0  0  0  0  0  0  0  0
   39.5480   21.6360   33.6420 O   0  0  0  0  0  0  0  0  0  0  0  0
   38.8680   22.6190   35.8470 C   0  0  0  0  0  0  0  0  0  0  0  0
   40.0230   22.4430   36.5980 C   0  0  0  0  0  0  0  0  0  0  0  0
   39.9840   22.7820   37.9440 C   0  0  0  0  0  0  0  0  0  0  0  0
   38.8360   23.2710   38.4770 N   0  0  0  0  0  0  0  0  0  0  0  0
   37.7250   23.4310   37.7110 C   0  0  0  0  0  0  0  0  0  0  0  0
   37.7260   23.1120   36.4060 N   0  0  0  0  0  0  0  0  0  0  0  0
   36.9680   22.4940   31.2040 C   0  0  0  0  0  0  0  0  0  0  0  0
   35.5850   21.8570   31.3970 C   0  0  0  0  0  0  0  0  0  0  0  0
   35.7660   20.3750   31.4590 C   0  0  0  0  0  0  0  0  0  0  0  0
   36.4110   19.6230   30.5100 C   0  0  0  0  0  0  0  0  0  0  0  0
   36.5200   18.2490   30.6720 C   0  0  0  0  0  0  0  0  0  0  0  0
   35.9860   17.6160   31.7830 C   0  0  0  0  0  0  0  0  0  0  0  0
   35.3280   18.3350   32.7660 C   0  0  0  0  0  0  0  0  0  0  0  0
   35.2520   19.6990   32.5470 C   0  0  0  0  0  0  0  0  0  0  0  0
   36.8417   23.3151   34.0175 H   0  0  0  0  0  0  0  0  0  0  0  0
   39.5124   21.0971   31.5446 H   0  0  0  0  0  0  0  0  0  0  0  0
   40.9414   22.0468   36.1401 H   0  0  0  0  0  0  0  0  0  0  0  0
   40.8771   22.6551   38.5735 H   0  0  0  0  0  0  0  0  0  0  0  0
   36.8073   23.8294   38.1683 H   0  0  0  0  0  0  0  0  0  0  0  0
   37.4433   22.0449   30.3194 H   0  0  0  0  0  0  0  0  0  0  0  0
   36.8234   23.5772   31.0781 H   0  0  0  0  0  0  0  0  0  0  0  0
   35.1348   22.2179   32.3335 H   0  0  0  0  0  0  0  0  0  0  0  0
   34.9194   22.1270   30.5639 H   0  0  0  0  0  0  0  0  0  0  0  0
   36.8413   20.1086   29.6217 H   0  0  0  0  0  0  0  0  0  0  0  0
   37.0384   17.6531   29.9064 H   0  0  0  0  0  0  0  0  0  0  0  0
   36.0865   16.5254   31.8854 H   0  0  0  0  0  0  0  0  0  0  0  0
   34.8965   17.8562   33.6574 H   0  0  0  0  0  0  0  0  0  0  0  0
   34.7347   20.2995   33.3097 H   0  0  0  0  0  0  0  0  0  0  0  0
  1  6  1  0
  2  1  2  0
  3  4  2  0
  3  2  1  0
  4  5  1  0
  5  1  1  0
  6 11  1  0
  6  7  2  0
  7  8  1  0
  8  9  2  0
 10  9  1  0
 11 10  2  0
 12 13  1  0
 12  3  1  0
 13 14  1  0
 14 19  2  0
 15 16  2  0
 15 14  1  0
 16 17  1  0
 17 18  2  0
 19 18  1  0
  2 20  1  0
  4 21  1  0
  7 22  1  0
  8 23  1  0
 10 24  1  0
 12 25  1  0
 12 26  1  0
 13 27  1  0
 13 28  1  0
 15 29  1  0
 16 30  1  0
 17 31  1  0
 18 32  1  0
 19 33  1  0
M  ISO  8  20  14  21  14  22  14  23  14  24  14  25   8  26   8  27   8
M  ISO  6  28   8  29  14  30  14  31  14  32  14  33  14
M  END
>  <minimizedAffinity>  (1) 
-4.96625614

>  <minimizedRMSD>  (1) 
2.47709084

$$$$
