
     RDKit          3D

 29 31  0  0  0  0  0  0  0  0999 V2000
   37.6480   22.1890   34.7710 C   0  0  0  0  0  0  0  0  0  0  0  0
   36.5710   21.3070   34.6820 C   0  0  0  0  0  0  0  0  0  0  0  0
   36.2050   21.1550   33.3790 C   0  0  0  0  0  0  0  0  0  0  0  0
   37.0940   21.9720   32.7040 C   0  0  0  0  0  0  0  0  0  0  0  0
   37.9320   22.5660   33.5730 O   0  0  0  0  0  0  0  0  0  0  0  0
   38.2380   22.5280   36.0660 C   0  0  0  0  0  0  0  0  0  0  0  0
   39.5900   22.3140   36.3720 C   0  0  0  0  0  0  0  0  0  0  0  0
   40.0240   22.6760   37.6350 C   0  0  0  0  0  0  0  0  0  0  0  0
   39.1480   23.2140   38.5110 N   0  0  0  0  0  0  0  0  0  0  0  0
   37.8500   23.4090   38.1900 C   0  0  0  0  0  0  0  0  0  0  0  0
   37.3810   23.0700   36.9670 N   0  0  0  0  0  0  0  0  0  0  0  0
   35.1370   20.3410   32.7580 C   0  0  0  0  0  0  0  0  0  0  0  0
   35.4780   18.8440   32.8180 C   0  0  0  0  0  0  0  0  0  0  0  0
   36.0920   18.4930   31.5610 N   0  0  0  0  0  0  0  0  0  0  0  0
   36.7120   17.3120   31.3020 C   0  0  0  0  0  0  0  0  0  0  0  0
   37.1540   17.3720   30.0150 N   0  0  0  0  0  0  0  0  0  0  0  0
   36.7910   18.5860   29.5280 C   0  0  0  0  0  0  0  0  0  0  0  0
   36.1330   19.2770   30.4880 N   0  0  0  0  0  0  0  0  0  0  0  0
   36.0894   20.8088   35.5363 H   0  0  0  0  0  0  0  0  0  0  0  0
   37.1131   22.1154   31.6136 H   0  0  0  0  0  0  0  0  0  0  0  0
   40.2793   21.8750   35.6357 H   0  0  0  0  0  0  0  0  0  0  0  0
   41.0749   22.5267   37.9235 H   0  0  0  0  0  0  0  0  0  0  0  0
   37.1667   23.8485   38.9316 H   0  0  0  0  0  0  0  0  0  0  0  0
   35.0217   20.6415   31.7061 H   0  0  0  0  0  0  0  0  0  0  0  0
   34.2019   20.5092   33.3124 H   0  0  0  0  0  0  0  0  0  0  0  0
   36.1766   18.6500   33.6453 H   0  0  0  0  0  0  0  0  0  0  0  0
   34.5716   18.2448   32.9893 H   0  0  0  0  0  0  0  0  0  0  0  0
   36.8337   16.4691   31.9982 H   0  0  0  0  0  0  0  0  0  0  0  0
   36.9992   18.9513   28.5115 H   0  0  0  0  0  0  0  0  0  0  0  0
  1  6  1  0
  2  1  2  0
  3  2  1  0
  4  3  2  0
  4  5  1  0
  5  1  1  0
  6  7  2  0
  6 11  1  0
  7  8  1  0
  8  9  2  0
 10  9  1  0
 11 10  2  0
 12 13  1  0
 12  3  1  0
 14 13  1  0
 15 14  1  0
 16 15  2  0
 17 16  1  0
 17 18  2  0
 18 14  1  0
  2 19  1  0
  4 20  1  0
  7 21  1  0
  8 22  1  0
 10 23  1  0
 12 24  1  0
 12 25  1  0
 13 26  1  0
 13 27  1  0
 15 28  1  0
 17 29  1  0
M  ISO  8  19  14  20  14  21  14  22  14  23  14  24   8  25   8  26   8
M  ISO  3  27   8  28  14  29  14
M  END
>  <minimizedAffinity>  (1) 
-4.4018302

>  <minimizedRMSD>  (1) 
1.86370885

$$$$
