
     RDKit          3D

 30 32  0  0  0  0  0  0  0  0999 V2000
   37.6330   22.2000   34.7870 C   0  0  0  0  0  0  0  0  0  0  0  0
   36.5920   21.3070   34.6820 C   0  0  0  0  0  0  0  0  0  0  0  0
   36.1970   21.2030   33.3800 C   0  0  0  0  0  0  0  0  0  0  0  0
   37.0490   22.0710   32.7210 C   0  0  0  0  0  0  0  0  0  0  0  0
   37.8830   22.6410   33.5930 O   0  0  0  0  0  0  0  0  0  0  0  0
   38.2670   22.5210   36.0540 C   0  0  0  0  0  0  0  0  0  0  0  0
   39.5940   22.3010   36.3750 C   0  0  0  0  0  0  0  0  0  0  0  0
   40.0640   22.6580   37.6230 C   0  0  0  0  0  0  0  0  0  0  0  0
   39.2020   23.2210   38.5110 N   0  0  0  0  0  0  0  0  0  0  0  0
   37.8930   23.4350   38.1850 C   0  0  0  0  0  0  0  0  0  0  0  0
   37.4390   23.0890   36.9760 N   0  0  0  0  0  0  0  0  0  0  0  0
   35.1200   20.3720   32.7740 C   0  0  0  0  0  0  0  0  0  0  0  0
   35.5010   18.8890   32.7630 C   0  0  0  0  0  0  0  0  0  0  0  0
   36.0700   18.4900   31.5200 N   0  0  0  0  0  0  0  0  0  0  0  0
   36.2890   19.2300   30.4170 C   0  0  0  0  0  0  0  0  0  0  0  0
   36.8660   18.4390   29.4260 C   0  0  0  0  0  0  0  0  0  0  0  0
   36.9880   17.2140   29.9610 N   0  0  0  0  0  0  0  0  0  0  0  0
   36.5130   17.2350   31.2160 C   0  0  0  0  0  0  0  0  0  0  0  0
   36.1441   20.7578   35.5233 H   0  0  0  0  0  0  0  0  0  0  0  0
   37.0403   22.2630   31.6379 H   0  0  0  0  0  0  0  0  0  0  0  0
   40.2719   21.8436   35.6393 H   0  0  0  0  0  0  0  0  0  0  0  0
   41.1168   22.4900   37.8940 H   0  0  0  0  0  0  0  0  0  0  0  0
   37.2118   23.8923   38.9177 H   0  0  0  0  0  0  0  0  0  0  0  0
   34.1968   20.5004   33.3581 H   0  0  0  0  0  0  0  0  0  0  0  0
   34.9717   20.7000   31.7346 H   0  0  0  0  0  0  0  0  0  0  0  0
   36.2331   18.7052   33.5632 H   0  0  0  0  0  0  0  0  0  0  0  0
   34.5832   18.3029   32.9184 H   0  0  0  0  0  0  0  0  0  0  0  0
   36.0485   20.2984   30.3138 H   0  0  0  0  0  0  0  0  0  0  0  0
   37.1608   18.7534   28.4139 H   0  0  0  0  0  0  0  0  0  0  0  0
   36.4849   16.3715   31.8968 H   0  0  0  0  0  0  0  0  0  0  0  0
  1  6  1  0
  2  1  2  0
  3  2  1  0
  4  3  2  0
  4  5  1  0
  5  1  1  0
  6  7  2  0
  6 11  1  0
  7  8  1  0
  8  9  2  0
 10  9  1  0
 11 10  2  0
 12  3  1  0
 13 12  1  0
 14 13  1  0
 15 14  1  0
 16 17  1  0
 16 15  2  0
 17 18  2  0
 18 14  1  0
  2 19  1  0
  4 20  1  0
  7 21  1  0
  8 22  1  0
 10 23  1  0
 12 24  1  0
 12 25  1  0
 13 26  1  0
 13 27  1  0
 15 28  1  0
 16 29  1  0
 18 30  1  0
M  ISO  8  19  14  20  14  21  14  22  14  23  14  24   8  25   8  26   8
M  ISO  4  27   8  28  14  29  14  30  14
M  END
>  <minimizedAffinity>  (1) 
-4.38977337

>  <minimizedRMSD>  (1) 
0.821957886

$$$$
