
     RDKit          3D

 31 33  0  0  0  0  0  0  0  0999 V2000
   37.9370   23.1560   34.2810 C   0  0  0  0  0  0  0  0  0  0  0  0
   37.2910   22.0810   33.6780 C   0  0  0  0  0  0  0  0  0  0  0  0
   36.7820   22.4850   32.4690 C   0  0  0  0  0  0  0  0  0  0  0  0
   37.1440   23.8040   32.3880 C   0  0  0  0  0  0  0  0  0  0  0  0
   37.8310   24.1650   33.4890 O   0  0  0  0  0  0  0  0  0  0  0  0
   38.5780   23.0230   35.5830 C   0  0  0  0  0  0  0  0  0  0  0  0
   39.8060   22.3790   35.7830 C   0  0  0  0  0  0  0  0  0  0  0  0
   40.3270   22.3080   37.0630 C   0  0  0  0  0  0  0  0  0  0  0  0
   39.6220   22.8700   38.0810 N   0  0  0  0  0  0  0  0  0  0  0  0
   38.4300   23.4910   37.8600 C   0  0  0  0  0  0  0  0  0  0  0  0
   37.9180   23.5630   36.6220 N   0  0  0  0  0  0  0  0  0  0  0  0
   36.0190   21.7190   31.4610 C   0  0  0  0  0  0  0  0  0  0  0  0
   34.9850   20.7920   32.1080 C   0  0  0  0  0  0  0  0  0  0  0  0
   35.4850   19.4020   31.8170 C   0  0  0  0  0  0  0  0  0  0  0  0
   36.2980   19.2120   30.6970 C   0  0  0  0  0  0  0  0  0  0  0  0
   36.7410   17.9120   30.4610 C   0  0  0  0  0  0  0  0  0  0  0  0
   36.4250   16.8650   31.2460 N   0  0  0  0  0  0  0  0  0  0  0  0
   35.6360   17.1040   32.3140 C   0  0  0  0  0  0  0  0  0  0  0  0
   35.1600   18.3480   32.6160 N   0  0  0  0  0  0  0  0  0  0  0  0
   37.2025   21.0699   34.1021 H   0  0  0  0  0  0  0  0  0  0  0  0
   36.9079   24.4713   31.5460 H   0  0  0  0  0  0  0  0  0  0  0  0
   40.3483   21.9361   34.9346 H   0  0  0  0  0  0  0  0  0  0  0  0
   41.2887   21.8088   37.2525 H   0  0  0  0  0  0  0  0  0  0  0  0
   37.8827   23.9371   38.7035 H   0  0  0  0  0  0  0  0  0  0  0  0
   36.7206   21.1115   30.8705 H   0  0  0  0  0  0  0  0  0  0  0  0
   35.4811   22.4366   30.8240 H   0  0  0  0  0  0  0  0  0  0  0  0
   34.9323   20.9664   33.1928 H   0  0  0  0  0  0  0  0  0  0  0  0
   33.9711   20.9607   31.7162 H   0  0  0  0  0  0  0  0  0  0  0  0
   36.5744   20.0460   30.0351 H   0  0  0  0  0  0  0  0  0  0  0  0
   37.3833   17.7317   29.5864 H   0  0  0  0  0  0  0  0  0  0  0  0
   35.3650   16.2624   32.9684 H   0  0  0  0  0  0  0  0  0  0  0  0
  1  6  1  0
  2  1  2  0
  3  2  1  0
  4  3  2  0
  4  5  1  0
  5  1  1  0
  6  7  2  0
  6 11  1  0
  7  8  1  0
  8  9  2  0
 10  9  1  0
 11 10  2  0
 12 13  1  0
 12  3  1  0
 14 13  1  0
 14 19  1  0
 15 14  2  0
 16 15  1  0
 16 17  2  0
 17 18  1  0
 18 19  2  0
  2 20  1  0
  4 21  1  0
  7 22  1  0
  8 23  1  0
 10 24  1  0
 12 25  1  0
 12 26  1  0
 13 27  1  0
 13 28  1  0
 15 29  1  0
 16 30  1  0
 18 31  1  0
M  ISO  8  20  14  21  14  22  14  23  14  24  14  25   8  26   8  27   8
M  ISO  4  28   8  29  14  30  14  31  14
M  END
>  <minimizedAffinity>  (1) 
-4.63896036

>  <minimizedRMSD>  (1) 
2.21695495

$$$$
