
     RDKit          3D

 25 26  0  0  0  0  0  0  0  0999 V2000
   37.6230   22.1630   34.7760 C   0  0  0  0  0  0  0  0  0  0  0  0
   36.5950   21.2560   34.6660 C   0  0  0  0  0  0  0  0  0  0  0  0
   36.2190   21.1460   33.3500 C   0  0  0  0  0  0  0  0  0  0  0  0
   37.0610   22.0200   32.6890 C   0  0  0  0  0  0  0  0  0  0  0  0
   37.8810   22.6040   33.5730 O   0  0  0  0  0  0  0  0  0  0  0  0
   38.2460   22.5050   36.0400 C   0  0  0  0  0  0  0  0  0  0  0  0
   39.5750   22.3080   36.3660 C   0  0  0  0  0  0  0  0  0  0  0  0
   40.0220   22.6900   37.6220 C   0  0  0  0  0  0  0  0  0  0  0  0
   39.1510   23.2400   38.4930 N   0  0  0  0  0  0  0  0  0  0  0  0
   37.8370   23.4300   38.1620 C   0  0  0  0  0  0  0  0  0  0  0  0
   37.4020   23.0630   36.9520 N   0  0  0  0  0  0  0  0  0  0  0  0
   35.1640   20.3020   32.7450 C   0  0  0  0  0  0  0  0  0  0  0  0
   35.4760   18.8050   32.8950 C   0  0  0  0  0  0  0  0  0  0  0  0
   34.6070   18.1330   31.9330 N   0  0  0  0  0  0  0  0  0  0  0  0
   36.1435   20.7037   35.5034 H   0  0  0  0  0  0  0  0  0  0  0  0
   37.0584   22.2072   31.6050 H   0  0  0  0  0  0  0  0  0  0  0  0
   40.2670   21.8554   35.6406 H   0  0  0  0  0  0  0  0  0  0  0  0
   41.0752   22.5461   37.9049 H   0  0  0  0  0  0  0  0  0  0  0  0
   37.1432   23.8816   38.8864 H   0  0  0  0  0  0  0  0  0  0  0  0
   35.0845   20.5438   31.6749 H   0  0  0  0  0  0  0  0  0  0  0  0
   34.2186   20.5086   33.2680 H   0  0  0  0  0  0  0  0  0  0  0  0
   36.5330   18.6065   32.6640 H   0  0  0  0  0  0  0  0  0  0  0  0
   35.3031   18.4505   33.9219 H   0  0  0  0  0  0  0  0  0  0  0  0
   33.8966   17.5836   32.4374 H   0  0  0  0  0  0  0  0  0  0  0  0
   34.1413   18.8360   31.3415 H   0  0  0  0  0  0  0  0  0  0  0  0
  1  6  1  0
  2  1  2  0
  3  2  1  0
  4  3  2  0
  4  5  1  0
  5  1  1  0
  6  7  2  0
  6 11  1  0
  7  8  1  0
  8  9  2  0
 10  9  1  0
 11 10  2  0
 12 13  1  0
 12  3  1  0
 14 13  1  0
  2 15  1  0
  4 16  1  0
  7 17  1  0
  8 18  1  0
 10 19  1  0
 12 20  1  0
 12 21  1  0
 13 22  1  0
 13 23  1  0
 14 24  1  0
 14 25  1  0
M  ISO  8  15  14  16  14  17  14  18  14  19  14  20   8  21   8  22   8
M  ISO  3  23   8  24   5  25   5
M  END
>  <minimizedAffinity>  (1) 
-4.36147118

>  <minimizedRMSD>  (1) 
0.143984854

$$$$
