
     RDKit          3D

 24 25  0  0  0  0  0  0  0  0999 V2000
   37.7720   22.0270   34.6710 C   0  0  0  0  0  0  0  0  0  0  0  0
   36.5350   21.3900   34.5880 C   0  0  0  0  0  0  0  0  0  0  0  0
   36.2510   21.1360   33.2640 C   0  0  0  0  0  0  0  0  0  0  0  0
   37.3460   21.6390   32.5860 C   0  0  0  0  0  0  0  0  0  0  0  0
   38.2160   22.1540   33.4650 O   0  0  0  0  0  0  0  0  0  0  0  0
   38.3290   22.4170   35.9480 C   0  0  0  0  0  0  0  0  0  0  0  0
   39.6690   22.2280   36.3090 C   0  0  0  0  0  0  0  0  0  0  0  0
   40.0880   22.6440   37.5670 C   0  0  0  0  0  0  0  0  0  0  0  0
   39.1830   23.2150   38.3950 N   0  0  0  0  0  0  0  0  0  0  0  0
   37.8930   23.3870   38.0260 C   0  0  0  0  0  0  0  0  0  0  0  0
   37.4680   22.9930   36.8200 N   0  0  0  0  0  0  0  0  0  0  0  0
   35.0720   20.4850   32.6510 C   0  0  0  0  0  0  0  0  0  0  0  0
   35.4680   19.4270   31.6300 C   0  0  0  0  0  0  0  0  0  0  0  0
   35.5470   17.7840   32.4130 S   0  0  0  0  0  0  0  0  0  0  0  0
   35.8902   21.1320   35.4411 H   0  0  0  0  0  0  0  0  0  0  0  0
   37.4817   21.6194   31.4946 H   0  0  0  0  0  0  0  0  0  0  0  0
   40.3767   21.7589   35.6096 H   0  0  0  0  0  0  0  0  0  0  0  0
   41.1333   22.5119   37.8829 H   0  0  0  0  0  0  0  0  0  0  0  0
   37.1853   23.8561   38.7254 H   0  0  0  0  0  0  0  0  0  0  0  0
   34.4780   20.0076   33.4443 H   0  0  0  0  0  0  0  0  0  0  0  0
   34.4911   21.2593   32.1285 H   0  0  0  0  0  0  0  0  0  0  0  0
   36.4547   19.6773   31.2132 H   0  0  0  0  0  0  0  0  0  0  0  0
   34.7135   19.4042   30.8299 H   0  0  0  0  0  0  0  0  0  0  0  0
   35.5401   17.9267   33.7755 H   0  0  0  0  0  0  0  0  0  0  0  0
  1  6  1  0
  2  1  2  0
  3  2  1  0
  4  3  2  0
  4  5  1  0
  5  1  1  0
  6  7  2  0
  6 11  1  0
  7  8  1  0
  8  9  2  0
 10  9  1  0
 11 10  2  0
 12  3  1  0
 13 14  1  0
 13 12  1  0
  2 15  1  0
  4 16  1  0
  7 17  1  0
  8 18  1  0
 10 19  1  0
 12 20  1  0
 12 21  1  0
 13 22  1  0
 13 23  1  0
 14 24  1  0
M  ISO  8  15  14  16  14  17  14  18  14  19  14  20   8  21   8  22   8
M  ISO  2  23   8  24  11
M  END
>  <minimizedAffinity>  (1) 
-3.90783334

>  <minimizedRMSD>  (1) 
0.727215707

$$$$
