
     RDKit          3D

 36 39  0  0  1  0  0  0  0  0999 V2000
   37.5990   25.1080   33.2090 C   0  0  1  0  0  0  0  0  0  0  0  0
   36.6260   25.9410   32.4360 C   0  0  0  0  0  0  0  0  0  0  0  0
   37.0960   25.8080   31.0110 C   0  0  0  0  0  0  0  0  0  0  0  0
   37.4900   24.3730   30.9030 C   0  0  0  0  0  0  0  0  0  0  0  0
   37.9180   23.9600   32.2840 C   0  0  2  0  0  0  0  0  0  0  0  0
   39.4910   25.7600   34.6820 C   0  0  0  0  0  0  0  0  0  0  0  0
   40.5560   26.6380   34.7040 C   0  0  0  0  0  0  0  0  0  0  0  0
   40.4700   27.3130   33.5240 N   0  0  0  0  0  0  0  0  0  0  0  0
   39.3990   26.8330   32.8660 C   0  0  0  0  0  0  0  0  0  0  0  0
   38.7790   25.8740   33.5610 N   0  0  0  0  0  0  0  0  0  0  0  0
   39.1550   24.8020   35.7520 C   0  0  0  0  0  0  0  0  0  0  0  0
   39.9050   23.6170   35.8760 C   0  0  0  0  0  0  0  0  0  0  0  0
   39.5390   22.7400   36.9140 C   0  0  0  0  0  0  0  0  0  0  0  0
   38.5070   23.0760   37.7230 N   0  0  0  0  0  0  0  0  0  0  0  0
   37.8230   24.2240   37.5600 C   0  0  0  0  0  0  0  0  0  0  0  0
   38.1290   25.1020   36.5830 N   0  0  0  0  0  0  0  0  0  0  0  0
   37.1160   22.8090   32.7110 N   0  0  0  0  0  0  0  0  0  0  0  0
   37.3290   21.9980   33.7630 C   0  0  0  0  0  0  0  0  0  0  0  0
   36.3510   21.0500   33.8090 N   0  0  0  0  0  0  0  0  0  0  0  0
   35.5290   21.2930   32.7600 C   0  0  0  0  0  0  0  0  0  0  0  0
   36.0280   22.3750   32.1120 N   0  0  0  0  0  0  0  0  0  0  0  0
   37.1933   24.7573   34.1694 H   0  0  0  0  0  0  0  0  0  0  0  0
   35.6023   25.5548   32.5491 H   0  0  0  0  0  0  0  0  0  0  0  0
   36.5927   26.9858   32.7784 H   0  0  0  0  0  0  0  0  0  0  0  0
   36.2857   26.0467   30.3065 H   0  0  0  0  0  0  0  0  0  0  0  0
   37.9186   26.4962   30.7666 H   0  0  0  0  0  0  0  0  0  0  0  0
   36.6359   23.7655   30.5691 H   0  0  0  0  0  0  0  0  0  0  0  0
   38.2969   24.2291   30.1694 H   0  0  0  0  0  0  0  0  0  0  0  0
   38.9874   23.7028   32.2984 H   0  0  0  0  0  0  0  0  0  0  0  0
   41.3070   26.7644   35.4978 H   0  0  0  0  0  0  0  0  0  0  0  0
   39.0732   27.1866   31.8766 H   0  0  0  0  0  0  0  0  0  0  0  0
   40.7372   23.3876   35.1942 H   0  0  0  0  0  0  0  0  0  0  0  0
   40.0831   21.7961   37.0656 H   0  0  0  0  0  0  0  0  0  0  0  0
   36.9913   24.4523   38.2427 H   0  0  0  0  0  0  0  0  0  0  0  0
   38.1627   22.0863   34.4751 H   0  0  0  0  0  0  0  0  0  0  0  0
   34.6294   20.7223   32.4862 H   0  0  0  0  0  0  0  0  0  0  0  0
  1 10  1  0
  2  1  1  0
  3  2  1  0
  4  3  1  0
  4  5  1  0
  5 17  1  0
  5  1  1  0
  6  7  2  0
  6 11  1  0
  8  7  1  0
  9  8  2  0
  9 10  1  0
 10  6  1  0
 11 12  2  0
 11 16  1  0
 12 13  1  0
 13 14  2  0
 15 14  1  0
 16 15  2  0
 17 18  1  0
 18 19  2  0
 20 19  1  0
 21 17  1  0
 21 20  2  0
  1 22  1  1
  2 23  1  0
  2 24  1  0
  3 25  1  0
  3 26  1  0
  4 27  1  0
  4 28  1  0
  5 29  1  6
  7 30  1  0
  9 31  1  0
 12 32  1  0
 13 33  1  0
 15 34  1  0
 18 35  1  0
 20 36  1  0
M  ISO  8  22  13  23  13  24  13  25  13  26  13  27  13  28  13  29  13
M  ISO  7  30  14  31  14  32  14  33  14  34  14  35  14  36  14
M  END
>  <minimizedAffinity>  (1) 
-4.81635141

>  <minimizedRMSD>  (1) 
5.92798662

$$$$
