
     RDKit          3D

 41 44  0  0  0  0  0  0  0  0999 V2000
   35.1070   20.3390   32.7380 C   0  0  0  0  0  0  0  0  0  0  0  0
   37.6240   22.1610   34.7590 C   0  0  0  0  0  0  0  0  0  0  0  0
   36.5560   21.2840   34.6630 C   0  0  0  0  0  0  0  0  0  0  0  0
   36.1700   21.1420   33.3570 C   0  0  0  0  0  0  0  0  0  0  0  0
   37.0570   21.9750   32.6800 C   0  0  0  0  0  0  0  0  0  0  0  0
   37.8980   22.5580   33.5450 O   0  0  0  0  0  0  0  0  0  0  0  0
   38.2380   22.5000   36.0250 C   0  0  0  0  0  0  0  0  0  0  0  0
   39.5700   22.2890   36.3380 C   0  0  0  0  0  0  0  0  0  0  0  0
   40.0530   22.6510   37.5800 C   0  0  0  0  0  0  0  0  0  0  0  0
   39.2000   23.2060   38.4580 N   0  0  0  0  0  0  0  0  0  0  0  0
   37.8990   23.4090   38.1450 C   0  0  0  0  0  0  0  0  0  0  0  0
   37.3930   23.0630   36.9320 N   0  0  0  0  0  0  0  0  0  0  0  0
   35.4540   18.8540   32.7300 C   0  0  0  0  0  0  0  0  0  0  0  0
   36.3580   18.5080   31.6320 C   0  0  0  0  0  0  0  0  0  0  0  0
   37.4160   17.6940   31.6320 N   0  0  0  0  0  0  0  0  0  0  0  0
   37.9780   17.6380   30.4500 O   0  0  0  0  0  0  0  0  0  0  0  0
   37.3080   18.4140   29.6260 C   0  0  0  0  0  0  0  0  0  0  0  0
   36.3080   18.9480   30.3670 N   0  0  0  0  0  0  0  0  0  0  0  0
   37.3760   18.7980   28.2580 N   0  0  0  0  0  0  0  0  0  0  0  0
   36.2740   18.5170   27.5040 C   0  0  0  0  0  0  0  0  0  0  0  0
   36.2800   18.8650   26.1680 C   0  0  0  0  0  0  0  0  0  0  0  0
   35.0780   18.5570   25.3540 C   0  0  0  0  0  0  0  0  0  0  0  0
   37.3940   19.4800   25.6510 C   0  0  0  0  0  0  0  0  0  0  0  0
   37.4220   19.8080   24.4290 O   0  0  0  0  0  0  0  0  0  0  0  0
   38.4420   19.7280   26.4370 N   0  0  0  0  0  0  0  0  0  0  0  0
   38.4540   19.3970   27.7380 C   0  0  0  0  0  0  0  0  0  0  0  0
   39.4420   19.6250   28.5050 O   0  0  0  0  0  0  0  0  0  0  0  0
   34.1750   20.4843   33.3040 H   0  0  0  0  0  0  0  0  0  0  0  0
   34.9906   20.6696   31.6953 H   0  0  0  0  0  0  0  0  0  0  0  0
   36.0845   20.7736   35.5158 H   0  0  0  0  0  0  0  0  0  0  0  0
   37.0660   22.1319   31.5913 H   0  0  0  0  0  0  0  0  0  0  0  0
   40.2435   21.8330   35.5974 H   0  0  0  0  0  0  0  0  0  0  0  0
   41.1086   22.4893   37.8440 H   0  0  0  0  0  0  0  0  0  0  0  0
   37.2335   23.8661   38.8921 H   0  0  0  0  0  0  0  0  0  0  0  0
   35.9389   18.5975   33.6835 H   0  0  0  0  0  0  0  0  0  0  0  0
   34.5209   18.2878   32.5931 H   0  0  0  0  0  0  0  0  0  0  0  0
   35.3988   18.0233   27.9515 H   0  0  0  0  0  0  0  0  0  0  0  0
   34.2300   18.3397   26.0200 H   0  0  0  0  0  0  0  0  0  0  0  0
   34.8336   19.4215   24.7193 H   0  0  0  0  0  0  0  0  0  0  0  0
   35.2795   17.6815   24.7193 H   0  0  0  0  0  0  0  0  0  0  0  0
   39.2697   20.1888   26.0327 H   0  0  0  0  0  0  0  0  0  0  0  0
  1  4  1  0
  2  7  1  0
  3  2  2  0
  4  3  1  0
  5  4  2  0
  5  6  1  0
  6  2  1  0
  7  8  2  0
  7 12  1  0
  8  9  1  0
  9 10  2  0
 11 10  1  0
 12 11  2  0
 13  1  1  0
 14 13  1  0
 15 14  2  0
 16 15  1  0
 17 18  2  0
 17 16  1  0
 18 14  1  0
 19 17  1  0
 20 19  1  0
 21 20  2  0
 22 21  1  0
 23 21  1  0
 23 25  1  0
 24 23  2  0
 25 26  1  0
 26 19  1  0
 26 27  2  0
  1 28  1  0
  1 29  1  0
  3 30  1  0
  5 31  1  0
  8 32  1  0
  9 33  1  0
 11 34  1  0
 13 35  1  0
 13 36  1  0
 20 37  1  0
 22 38  1  0
 22 39  1  0
 22 40  1  0
 25 41  1  0
M  ISO  8  28   8  29   8  30  14  31  14  32  14  33  14  34  14  35   8
M  ISO  6  36   8  37  14  38   8  39   8  40   8  41   9
M  END
>  <minimizedAffinity>  (1) 
-5.76700068

>  <minimizedRMSD>  (1) 
0.932270944

$$$$
