
     RDKit          3D

 41 45  0  0  0  0  0  0  0  0999 V2000
   35.4670   18.8780   32.6590 C   0  0  0  0  0  0  0  0  0  0  0  0
   36.0500   18.3710   31.4110 C   0  0  0  0  0  0  0  0  0  0  0  0
   36.3630   17.1000   31.1060 N   0  0  0  0  0  0  0  0  0  0  0  0
   36.8640   17.0160   29.9010 O   0  0  0  0  0  0  0  0  0  0  0  0
   36.9000   18.2220   29.3690 C   0  0  0  0  0  0  0  0  0  0  0  0
   36.3900   19.0650   30.3170 N   0  0  0  0  0  0  0  0  0  0  0  0
   37.3180   18.7900   28.1310 N   0  0  0  0  0  0  0  0  0  0  0  0
   38.4380   19.5250   27.9540 C   0  0  0  0  0  0  0  0  0  0  0  0
   38.5010   19.8920   26.6460 N   0  0  0  0  0  0  0  0  0  0  0  0
   37.4140   19.3700   26.0480 C   0  0  0  0  0  0  0  0  0  0  0  0
   36.9130   19.3820   24.7600 C   0  0  0  0  0  0  0  0  0  0  0  0
   35.7620   18.7580   24.4120 N   0  0  0  0  0  0  0  0  0  0  0  0
   35.0520   18.0820   25.3630 C   0  0  0  0  0  0  0  0  0  0  0  0
   35.5070   18.0460   26.6290 N   0  0  0  0  0  0  0  0  0  0  0  0
   36.6430   18.6680   26.9500 C   0  0  0  0  0  0  0  0  0  0  0  0
   37.6450   20.0840   23.7620 N   0  0  0  0  0  0  0  0  0  0  0  0
   35.1990   20.3820   32.5710 C   0  0  0  0  0  0  0  0  0  0  0  0
   37.6910   22.1450   34.6630 C   0  0  0  0  0  0  0  0  0  0  0  0
   36.5980   21.3130   34.5390 C   0  0  0  0  0  0  0  0  0  0  0  0
   36.2690   21.1570   33.2270 C   0  0  0  0  0  0  0  0  0  0  0  0
   37.2180   21.9370   32.5740 C   0  0  0  0  0  0  0  0  0  0  0  0
   38.0370   22.5010   33.4640 O   0  0  0  0  0  0  0  0  0  0  0  0
   38.2610   22.4880   35.9510 C   0  0  0  0  0  0  0  0  0  0  0  0
   39.5890   22.2750   36.3030 C   0  0  0  0  0  0  0  0  0  0  0  0
   40.0270   22.6450   37.5690 C   0  0  0  0  0  0  0  0  0  0  0  0
   39.1430   23.2010   38.4170 N   0  0  0  0  0  0  0  0  0  0  0  0
   37.8550   23.4030   38.0620 C   0  0  0  0  0  0  0  0  0  0  0  0
   37.4090   23.0520   36.8360 N   0  0  0  0  0  0  0  0  0  0  0  0
   34.5187   18.3548   32.8510 H   0  0  0  0  0  0  0  0  0  0  0  0
   36.1806   18.6976   33.4764 H   0  0  0  0  0  0  0  0  0  0  0  0
   39.1714   19.7819   28.7326 H   0  0  0  0  0  0  0  0  0  0  0  0
   34.1153   17.5708   25.0961 H   0  0  0  0  0  0  0  0  0  0  0  0
   37.2980   20.1116   22.7926 H   0  0  0  0  0  0  0  0  0  0  0  0
   38.5219   20.5646   24.0090 H   0  0  0  0  0  0  0  0  0  0  0  0
   35.1426   20.6744   31.5121 H   0  0  0  0  0  0  0  0  0  0  0  0
   34.2505   20.5960   33.0853 H   0  0  0  0  0  0  0  0  0  0  0  0
   36.0677   20.8426   35.3801 H   0  0  0  0  0  0  0  0  0  0  0  0
   37.2837   22.0694   31.4840 H   0  0  0  0  0  0  0  0  0  0  0  0
   40.2867   21.8178   35.5860 H   0  0  0  0  0  0  0  0  0  0  0  0
   41.0729   22.4868   37.8708 H   0  0  0  0  0  0  0  0  0  0  0  0
   37.1596   23.8598   38.7816 H   0  0  0  0  0  0  0  0  0  0  0  0
  2  1  1  0
  3  2  2  0
  4  3  1  0
  5  4  1  0
  5  6  2  0
  6  2  1  0
  7  5  1  0
  8  7  1  0
  9  8  2  0
 10  9  1  0
 10 15  2  0
 11 10  1  0
 12 11  2  0
 12 13  1  0
 13 14  2  0
 14 15  1  0
 15  7  1  0
 16 11  1  0
 17  1  1  0
 17 20  1  0
 18 23  1  0
 19 18  2  0
 20 19  1  0
 21 20  2  0
 21 22  1  0
 22 18  1  0
 23 24  2  0
 23 28  1  0
 24 25  1  0
 25 26  2  0
 27 26  1  0
 28 27  2  0
  1 29  1  0
  1 30  1  0
  8 31  1  0
 13 32  1  0
 16 33  1  0
 16 34  1  0
 17 35  1  0
 17 36  1  0
 19 37  1  0
 21 38  1  0
 24 39  1  0
 25 40  1  0
 27 41  1  0
M  ISO  8  29   8  30   8  31  14  32  14  35   8  36   8  37  14  38  14
M  ISO  3  39  14  40  14  41  14
M  END
>  <minimizedAffinity>  (1) 
-5.78851366

>  <minimizedRMSD>  (1) 
0.504645348

$$$$
