
     RDKit          3D

 42 46  0  0  0  0  0  0  0  0999 V2000
   35.5390   18.8630   32.5940 C   0  0  0  0  0  0  0  0  0  0  0  0
   36.0890   18.3620   31.3230 C   0  0  0  0  0  0  0  0  0  0  0  0
   36.2520   17.0970   30.9110 N   0  0  0  0  0  0  0  0  0  0  0  0
   36.7710   17.0540   29.7240 O   0  0  0  0  0  0  0  0  0  0  0  0
   36.9800   18.2870   29.2930 C   0  0  0  0  0  0  0  0  0  0  0  0
   36.5500   19.0880   30.2990 N   0  0  0  0  0  0  0  0  0  0  0  0
   37.5020   18.9140   28.1260 N   0  0  0  0  0  0  0  0  0  0  0  0
   38.6350   19.6240   27.8630 C   0  0  0  0  0  0  0  0  0  0  0  0
   38.5900   19.9710   26.5640 N   0  0  0  0  0  0  0  0  0  0  0  0
   37.4660   19.4980   26.0170 C   0  0  0  0  0  0  0  0  0  0  0  0
   37.0420   19.6340   24.7120 C   0  0  0  0  0  0  0  0  0  0  0  0
   37.7020   20.2580   23.8230 O   0  0  0  0  0  0  0  0  0  0  0  0
   35.8830   19.0890   24.3520 N   0  0  0  0  0  0  0  0  0  0  0  0
   35.1780   18.4200   25.3030 C   0  0  0  0  0  0  0  0  0  0  0  0
   33.9080   17.7730   25.0770 N   0  0  0  0  0  0  0  0  0  0  0  0
   35.5990   18.2940   26.5700 N   0  0  0  0  0  0  0  0  0  0  0  0
   36.7790   18.8330   26.9910 C   0  0  0  0  0  0  0  0  0  0  0  0
   35.2390   20.3680   32.5170 C   0  0  0  0  0  0  0  0  0  0  0  0
   37.6850   22.1520   34.6490 C   0  0  0  0  0  0  0  0  0  0  0  0
   36.6240   21.2940   34.4960 C   0  0  0  0  0  0  0  0  0  0  0  0
   36.2880   21.1600   33.1840 C   0  0  0  0  0  0  0  0  0  0  0  0
   37.2080   21.9890   32.5460 C   0  0  0  0  0  0  0  0  0  0  0  0
   38.0150   22.5560   33.4470 O   0  0  0  0  0  0  0  0  0  0  0  0
   38.2610   22.4870   35.9370 C   0  0  0  0  0  0  0  0  0  0  0  0
   39.5850   22.2800   36.2970 C   0  0  0  0  0  0  0  0  0  0  0  0
   40.0100   22.6470   37.5650 C   0  0  0  0  0  0  0  0  0  0  0  0
   39.1120   23.1940   38.4030 N   0  0  0  0  0  0  0  0  0  0  0  0
   37.8290   23.3930   38.0470 C   0  0  0  0  0  0  0  0  0  0  0  0
   37.3870   23.0440   36.8160 N   0  0  0  0  0  0  0  0  0  0  0  0
   34.6076   18.3229   32.8192 H   0  0  0  0  0  0  0  0  0  0  0  0
   36.2854   18.6975   33.3849 H   0  0  0  0  0  0  0  0  0  0  0  0
   39.4350   19.8674   28.5777 H   0  0  0  0  0  0  0  0  0  0  0  0
   35.5321   19.1709   23.3871 H   0  0  0  0  0  0  0  0  0  0  0  0
   33.4340   17.2847   25.8502 H   0  0  0  0  0  0  0  0  0  0  0  0
   33.4756   17.7995   24.1425 H   0  0  0  0  0  0  0  0  0  0  0  0
   35.1815   20.6679   31.4602 H   0  0  0  0  0  0  0  0  0  0  0  0
   34.2839   20.5574   33.0288 H   0  0  0  0  0  0  0  0  0  0  0  0
   36.1129   20.7823   35.3248 H   0  0  0  0  0  0  0  0  0  0  0  0
   37.2620   22.1527   31.4596 H   0  0  0  0  0  0  0  0  0  0  0  0
   40.2906   21.8292   35.5836 H   0  0  0  0  0  0  0  0  0  0  0  0
   41.0538   22.4947   37.8769 H   0  0  0  0  0  0  0  0  0  0  0  0
   37.1303   23.8453   38.7662 H   0  0  0  0  0  0  0  0  0  0  0  0
  2  1  1  0
  3  2  2  0
  4  3  1  0
  5  4  1  0
  5  6  2  0
  6  2  1  0
  7  5  1  0
  8  7  1  0
  9  8  2  0
 10  9  1  0
 10 17  2  0
 11 10  1  0
 12 11  2  0
 13 11  1  0
 13 14  1  0
 14 16  2  0
 15 14  1  0
 16 17  1  0
 17  7  1  0
 18  1  1  0
 18 21  1  0
 19 24  1  0
 20 19  2  0
 21 20  1  0
 22 21  2  0
 22 23  1  0
 23 19  1  0
 24 25  2  0
 24 29  1  0
 25 26  1  0
 26 27  2  0
 28 27  1  0
 29 28  2  0
  1 30  1  0
  1 31  1  0
  8 32  1  0
 13 33  1  0
 15 34  1  0
 15 35  1  0
 18 36  1  0
 18 37  1  0
 20 38  1  0
 22 39  1  0
 25 40  1  0
 26 41  1  0
 28 42  1  0
M  ISO  8  30   8  31   8  32  14  33   9  36   8  37   8  38  14  39  14
M  ISO  3  40  14  41  14  42  14
M  END
>  <minimizedAffinity>  (1) 
-6.281075

>  <minimizedRMSD>  (1) 
0.532831252

$$$$
