
     RDKit          3D

 38 41  0  0  0  0  0  0  0  0999 V2000
   35.1420   20.3040   32.7760 C   0  0  0  0  0  0  0  0  0  0  0  0
   37.6280   22.1560   34.7890 C   0  0  0  0  0  0  0  0  0  0  0  0
   36.5780   21.2620   34.7030 C   0  0  0  0  0  0  0  0  0  0  0  0
   36.2050   21.1310   33.3870 C   0  0  0  0  0  0  0  0  0  0  0  0
   37.0660   21.9720   32.7160 C   0  0  0  0  0  0  0  0  0  0  0  0
   37.8940   22.5600   33.5840 O   0  0  0  0  0  0  0  0  0  0  0  0
   38.2490   22.5080   36.0560 C   0  0  0  0  0  0  0  0  0  0  0  0
   39.5780   22.3080   36.3760 C   0  0  0  0  0  0  0  0  0  0  0  0
   40.0510   22.6870   37.6190 C   0  0  0  0  0  0  0  0  0  0  0  0
   39.1820   23.2490   38.4900 N   0  0  0  0  0  0  0  0  0  0  0  0
   37.8890   23.4400   38.1670 C   0  0  0  0  0  0  0  0  0  0  0  0
   37.4100   23.0780   36.9630 N   0  0  0  0  0  0  0  0  0  0  0  0
   35.5160   18.8220   32.7620 C   0  0  0  0  0  0  0  0  0  0  0  0
   36.0910   18.4270   31.4700 C   0  0  0  0  0  0  0  0  0  0  0  0
   36.6260   17.2380   31.1270 N   0  0  0  0  0  0  0  0  0  0  0  0
   37.0340   17.2680   29.8880 O   0  0  0  0  0  0  0  0  0  0  0  0
   36.7890   18.4540   29.3750 C   0  0  0  0  0  0  0  0  0  0  0  0
   36.2020   19.1880   30.3500 N   0  0  0  0  0  0  0  0  0  0  0  0
   37.1180   18.8350   28.0060 C   0  0  0  0  0  0  0  0  0  0  0  0
   36.1530   18.6130   27.0460 C   0  0  0  0  0  0  0  0  0  0  0  0
   36.4120   18.9590   25.7190 C   0  0  0  0  0  0  0  0  0  0  0  0
   37.6500   19.5090   25.4700 C   0  0  0  0  0  0  0  0  0  0  0  0
   38.6360   19.7430   26.4100 C   0  0  0  0  0  0  0  0  0  0  0  0
   38.3440   19.3920   27.7020 C   0  0  0  0  0  0  0  0  0  0  0  0
   34.2146   20.4321   33.3534 H   0  0  0  0  0  0  0  0  0  0  0  0
   35.0072   20.6333   31.7351 H   0  0  0  0  0  0  0  0  0  0  0  0
   36.1147   20.7387   35.5524 H   0  0  0  0  0  0  0  0  0  0  0  0
   37.0708   22.1349   31.6281 H   0  0  0  0  0  0  0  0  0  0  0  0
   40.2583   21.8484   35.6439 H   0  0  0  0  0  0  0  0  0  0  0  0
   41.1057   22.5355   37.8921 H   0  0  0  0  0  0  0  0  0  0  0  0
   37.2116   23.9006   38.9012 H   0  0  0  0  0  0  0  0  0  0  0  0
   36.2538   18.6315   33.5554 H   0  0  0  0  0  0  0  0  0  0  0  0
   34.6023   18.2327   32.9291 H   0  0  0  0  0  0  0  0  0  0  0  0
   35.1868   18.1667   27.3241 H   0  0  0  0  0  0  0  0  0  0  0  0
   35.6722   18.8020   24.9202 H   0  0  0  0  0  0  0  0  0  0  0  0
   37.8742   19.7870   24.4296 H   0  0  0  0  0  0  0  0  0  0  0  0
   39.6040   20.1875   26.1354 H   0  0  0  0  0  0  0  0  0  0  0  0
   39.0867   19.5541   28.4971 H   0  0  0  0  0  0  0  0  0  0  0  0
  1  4  1  0
  2  7  1  0
  3  2  2  0
  4  3  1  0
  5  4  2  0
  5  6  1  0
  6  2  1  0
  7  8  2  0
  7 12  1  0
  8  9  1  0
  9 10  2  0
 11 10  1  0
 12 11  2  0
 13  1  1  0
 14 13  1  0
 15 14  2  0
 16 15  1  0
 17 16  1  0
 17 18  2  0
 18 14  1  0
 19 17  1  0
 20 19  2  0
 21 20  1  0
 22 21  2  0
 22 23  1  0
 23 24  2  0
 24 19  1  0
  1 25  1  0
  1 26  1  0
  3 27  1  0
  5 28  1  0
  8 29  1  0
  9 30  1  0
 11 31  1  0
 13 32  1  0
 13 33  1  0
 20 34  1  0
 21 35  1  0
 22 36  1  0
 23 37  1  0
 24 38  1  0
M  ISO  8  25   8  26   8  27  14  28  14  29  14  30  14  31  14  32   8
M  ISO  6  33   8  34  14  35  14  36  14  37  14  38  14
M  END
>  <minimizedAffinity>  (1) 
-5.34040308

>  <minimizedRMSD>  (1) 
0.756217599

$$$$
