
     RDKit          3D

 38 41  0  0  0  0  0  0  0  0999 V2000
   35.1400   20.3440   32.7370 C   0  0  0  0  0  0  0  0  0  0  0  0
   37.6380   22.1760   34.7660 C   0  0  0  0  0  0  0  0  0  0  0  0
   36.5770   21.2900   34.6700 C   0  0  0  0  0  0  0  0  0  0  0  0
   36.2110   21.1660   33.3530 C   0  0  0  0  0  0  0  0  0  0  0  0
   37.0860   22.0000   32.6970 C   0  0  0  0  0  0  0  0  0  0  0  0
   37.9190   22.5840   33.5670 O   0  0  0  0  0  0  0  0  0  0  0  0
   38.2480   22.5150   36.0360 C   0  0  0  0  0  0  0  0  0  0  0  0
   39.5650   22.3130   36.3680 C   0  0  0  0  0  0  0  0  0  0  0  0
   40.0470   22.6740   37.6120 C   0  0  0  0  0  0  0  0  0  0  0  0
   39.1790   23.2310   38.4890 N   0  0  0  0  0  0  0  0  0  0  0  0
   37.8810   23.4280   38.1590 C   0  0  0  0  0  0  0  0  0  0  0  0
   37.4170   23.0770   36.9510 N   0  0  0  0  0  0  0  0  0  0  0  0
   35.4930   18.8580   32.7500 C   0  0  0  0  0  0  0  0  0  0  0  0
   36.1040   18.4260   31.4910 C   0  0  0  0  0  0  0  0  0  0  0  0
   36.6970   17.2570   31.2150 N   0  0  0  0  0  0  0  0  0  0  0  0
   37.1280   17.2350   29.9750 O   0  0  0  0  0  0  0  0  0  0  0  0
   36.8360   18.3810   29.3990 C   0  0  0  0  0  0  0  0  0  0  0  0
   36.1930   19.1370   30.3380 N   0  0  0  0  0  0  0  0  0  0  0  0
   37.1100   18.8070   28.0580 N   0  0  0  0  0  0  0  0  0  0  0  0
   36.1830   18.5670   27.1120 C   0  0  0  0  0  0  0  0  0  0  0  0
   36.4480   18.9790   25.8100 C   0  0  0  0  0  0  0  0  0  0  0  0
   37.6640   19.6050   25.6380 C   0  0  0  0  0  0  0  0  0  0  0  0
   37.9350   19.9950   24.4520 O   0  0  0  0  0  0  0  0  0  0  0  0
   38.6040   19.8540   26.5690 N   0  0  0  0  0  0  0  0  0  0  0  0
   38.2810   19.4250   27.8210 C   0  0  0  0  0  0  0  0  0  0  0  0
   39.1190   19.6280   28.7410 O   0  0  0  0  0  0  0  0  0  0  0  0
   34.9963   20.6675   31.6955 H   0  0  0  0  0  0  0  0  0  0  0  0
   34.2195   20.4838   33.3228 H   0  0  0  0  0  0  0  0  0  0  0  0
   36.1033   20.7688   35.5150 H   0  0  0  0  0  0  0  0  0  0  0  0
   37.0994   22.1642   31.6094 H   0  0  0  0  0  0  0  0  0  0  0  0
   40.2458   21.8576   35.6337 H   0  0  0  0  0  0  0  0  0  0  0  0
   41.1016   22.5139   37.8808 H   0  0  0  0  0  0  0  0  0  0  0  0
   37.1977   23.8821   38.8917 H   0  0  0  0  0  0  0  0  0  0  0  0
   36.2003   18.6686   33.5709 H   0  0  0  0  0  0  0  0  0  0  0  0
   34.5612   18.2896   32.8870 H   0  0  0  0  0  0  0  0  0  0  0  0
   35.2403   18.0583   27.3620 H   0  0  0  0  0  0  0  0  0  0  0  0
   35.7420   18.8178   24.9820 H   0  0  0  0  0  0  0  0  0  0  0  0
   39.4922   20.3287   26.3530 H   0  0  0  0  0  0  0  0  0  0  0  0
  1 13  1  0
  1  4  1  0
  2  7  1  0
  3  2  2  0
  4  3  1  0
  5  4  2  0
  5  6  1  0
  6  2  1  0
  7  8  2  0
  7 12  1  0
  8  9  1  0
  9 10  2  0
 11 10  1  0
 12 11  2  0
 14 13  1  0
 15 14  2  0
 16 15  1  0
 17 16  1  0
 17 18  2  0
 18 14  1  0
 19 17  1  0
 20 19  1  0
 21 20  2  0
 22 21  1  0
 22 24  1  0
 23 22  2  0
 24 25  1  0
 25 19  1  0
 25 26  2  0
  1 27  1  0
  1 28  1  0
  3 29  1  0
  5 30  1  0
  8 31  1  0
  9 32  1  0
 11 33  1  0
 13 34  1  0
 13 35  1  0
 20 36  1  0
 21 37  1  0
 24 38  1  0
M  ISO  8  27   8  28   8  29  14  30  14  31  14  32  14  33  14  34   8
M  ISO  4  35   8  36  14  37  14  38   9
M  END
>  <minimizedAffinity>  (1) 
-5.5308218

>  <minimizedRMSD>  (1) 
0.319980741

$$$$
