
     RDKit          3D

 39 43  0  0  0  0  0  0  0  0999 V2000
   35.1500   20.3150   32.6680 C   0  0  0  0  0  0  0  0  0  0  0  0
   37.6240   22.1540   34.7160 C   0  0  0  0  0  0  0  0  0  0  0  0
   36.5740   21.2660   34.6020 C   0  0  0  0  0  0  0  0  0  0  0  0
   36.2040   21.1340   33.2950 C   0  0  0  0  0  0  0  0  0  0  0  0
   37.0870   21.9890   32.6400 C   0  0  0  0  0  0  0  0  0  0  0  0
   37.9060   22.5680   33.5230 O   0  0  0  0  0  0  0  0  0  0  0  0
   38.2270   22.4900   36.0010 C   0  0  0  0  0  0  0  0  0  0  0  0
   39.5460   22.3010   36.3320 C   0  0  0  0  0  0  0  0  0  0  0  0
   40.0180   22.6560   37.5840 C   0  0  0  0  0  0  0  0  0  0  0  0
   39.1250   23.1930   38.4530 N   0  0  0  0  0  0  0  0  0  0  0  0
   37.8260   23.3800   38.1280 C   0  0  0  0  0  0  0  0  0  0  0  0
   37.3730   23.0320   36.9070 N   0  0  0  0  0  0  0  0  0  0  0  0
   35.5390   18.8210   32.6790 C   0  0  0  0  0  0  0  0  0  0  0  0
   36.0930   18.4010   31.3940 C   0  0  0  0  0  0  0  0  0  0  0  0
   36.4110   17.1610   31.0010 N   0  0  0  0  0  0  0  0  0  0  0  0
   36.8810   17.1730   29.7810 O   0  0  0  0  0  0  0  0  0  0  0  0
   36.8880   18.4100   29.3340 C   0  0  0  0  0  0  0  0  0  0  0  0
   36.3960   19.1920   30.3330 N   0  0  0  0  0  0  0  0  0  0  0  0
   37.3160   18.8810   28.0610 N   0  0  0  0  0  0  0  0  0  0  0  0
   38.4370   19.5760   27.7960 C   0  0  0  0  0  0  0  0  0  0  0  0
   38.4660   19.8230   26.4740 N   0  0  0  0  0  0  0  0  0  0  0  0
   37.3890   19.3010   25.9060 C   0  0  0  0  0  0  0  0  0  0  0  0
   36.8640   19.2240   24.6130 C   0  0  0  0  0  0  0  0  0  0  0  0
   35.6920   18.5950   24.3420 N   0  0  0  0  0  0  0  0  0  0  0  0
   35.0200   18.0300   25.3390 C   0  0  0  0  0  0  0  0  0  0  0  0
   35.4920   18.0830   26.6020 N   0  0  0  0  0  0  0  0  0  0  0  0
   36.6560   18.7020   26.9020 C   0  0  0  0  0  0  0  0  0  0  0  0
   35.0087   20.6434   31.6277 H   0  0  0  0  0  0  0  0  0  0  0  0
   34.2182   20.4415   33.2387 H   0  0  0  0  0  0  0  0  0  0  0  0
   36.1023   20.7394   35.4447 H   0  0  0  0  0  0  0  0  0  0  0  0
   37.1073   22.1624   31.5539 H   0  0  0  0  0  0  0  0  0  0  0  0
   40.2348   21.8630   35.5947 H   0  0  0  0  0  0  0  0  0  0  0  0
   41.0720   22.5090   37.8624 H   0  0  0  0  0  0  0  0  0  0  0  0
   37.1354   23.8183   38.8635 H   0  0  0  0  0  0  0  0  0  0  0  0
   36.2911   18.6535   33.4641 H   0  0  0  0  0  0  0  0  0  0  0  0
   34.6316   18.2302   32.8725 H   0  0  0  0  0  0  0  0  0  0  0  0
   39.1951   19.8870   28.5299 H   0  0  0  0  0  0  0  0  0  0  0  0
   37.4201   19.6895   23.7859 H   0  0  0  0  0  0  0  0  0  0  0  0
   34.0704   17.5144   25.1331 H   0  0  0  0  0  0  0  0  0  0  0  0
  1 13  1  0
  1  4  1  0
  2  7  1  0
  3  2  2  0
  4  3  1  0
  5  4  2  0
  5  6  1  0
  6  2  1  0
  7  8  2  0
  7 12  1  0
  8  9  1  0
  9 10  2  0
 11 10  1  0
 12 11  2  0
 14 13  1  0
 15 14  2  0
 16 15  1  0
 17 16  1  0
 17 18  2  0
 18 14  1  0
 19 17  1  0
 20 19  1  0
 21 20  2  0
 22 21  1  0
 22 27  2  0
 23 22  1  0
 24 23  2  0
 24 25  1  0
 25 26  2  0
 26 27  1  0
 27 19  1  0
  1 28  1  0
  1 29  1  0
  3 30  1  0
  5 31  1  0
  8 32  1  0
  9 33  1  0
 11 34  1  0
 13 35  1  0
 13 36  1  0
 20 37  1  0
 23 38  1  0
 25 39  1  0
M  ISO  8  28   8  29   8  30  14  31  14  32  14  33  14  34  14  35   8
M  ISO  4  36   8  37  14  38  14  39  14
M  END
>  <minimizedAffinity>  (1) 
-5.71032524

>  <minimizedRMSD>  (1) 
0.264568806

$$$$
