
     RDKit          3D

 37 40  0  0  0  0  0  0  0  0999 V2000
   35.1320   20.3120   32.7610 C   0  0  0  0  0  0  0  0  0  0  0  0
   37.6250   22.1520   34.7920 C   0  0  0  0  0  0  0  0  0  0  0  0
   36.5790   21.2680   34.6900 C   0  0  0  0  0  0  0  0  0  0  0  0
   36.1920   21.1290   33.3870 C   0  0  0  0  0  0  0  0  0  0  0  0
   37.0580   21.9740   32.7170 C   0  0  0  0  0  0  0  0  0  0  0  0
   37.8950   22.5660   33.5730 O   0  0  0  0  0  0  0  0  0  0  0  0
   38.2470   22.5010   36.0450 C   0  0  0  0  0  0  0  0  0  0  0  0
   39.5700   22.3020   36.3630 C   0  0  0  0  0  0  0  0  0  0  0  0
   40.0530   22.6800   37.6080 C   0  0  0  0  0  0  0  0  0  0  0  0
   39.1880   23.2430   38.4810 N   0  0  0  0  0  0  0  0  0  0  0  0
   37.8870   23.4380   38.1680 C   0  0  0  0  0  0  0  0  0  0  0  0
   37.4020   23.0740   36.9560 N   0  0  0  0  0  0  0  0  0  0  0  0
   35.5200   18.8290   32.7480 C   0  0  0  0  0  0  0  0  0  0  0  0
   36.0900   18.4440   31.4520 C   0  0  0  0  0  0  0  0  0  0  0  0
   36.6070   17.2440   31.1170 N   0  0  0  0  0  0  0  0  0  0  0  0
   37.0190   17.2700   29.8780 O   0  0  0  0  0  0  0  0  0  0  0  0
   36.7950   18.4650   29.3600 C   0  0  0  0  0  0  0  0  0  0  0  0
   36.2120   19.2050   30.3430 N   0  0  0  0  0  0  0  0  0  0  0  0
   37.1290   18.8540   27.9970 C   0  0  0  0  0  0  0  0  0  0  0  0
   36.1760   18.6080   27.0310 C   0  0  0  0  0  0  0  0  0  0  0  0
   36.4410   18.9580   25.7150 C   0  0  0  0  0  0  0  0  0  0  0  0
   37.6800   19.5360   25.5040 C   0  0  0  0  0  0  0  0  0  0  0  0
   38.6570   19.7920   26.4650 C   0  0  0  0  0  0  0  0  0  0  0  0
   38.3060   19.4180   27.7110 N   0  0  0  0  0  0  0  0  0  0  0  0
   34.1989   20.4351   33.3304 H   0  0  0  0  0  0  0  0  0  0  0  0
   34.9959   20.6487   31.7227 H   0  0  0  0  0  0  0  0  0  0  0  0
   36.1167   20.7443   35.5397 H   0  0  0  0  0  0  0  0  0  0  0  0
   37.0575   22.1361   31.6290 H   0  0  0  0  0  0  0  0  0  0  0  0
   40.2474   21.8419   35.6285 H   0  0  0  0  0  0  0  0  0  0  0  0
   41.1086   22.5260   37.8764 H   0  0  0  0  0  0  0  0  0  0  0  0
   37.2138   23.8979   38.9065 H   0  0  0  0  0  0  0  0  0  0  0  0
   36.2644   18.6454   33.5368 H   0  0  0  0  0  0  0  0  0  0  0  0
   34.6148   18.2292   32.9238 H   0  0  0  0  0  0  0  0  0  0  0  0
   35.2177   18.1401   27.3006 H   0  0  0  0  0  0  0  0  0  0  0  0
   35.7206   18.7888   24.9011 H   0  0  0  0  0  0  0  0  0  0  0  0
   37.9194   19.8237   24.4696 H   0  0  0  0  0  0  0  0  0  0  0  0
   39.6254   20.2566   26.2279 H   0  0  0  0  0  0  0  0  0  0  0  0
  1  4  1  0
  2  7  1  0
  3  2  2  0
  4  3  1  0
  5  4  2  0
  5  6  1  0
  6  2  1  0
  7  8  2  0
  7 12  1  0
  8  9  1  0
  9 10  2  0
 11 10  1  0
 12 11  2  0
 13  1  1  0
 14 13  1  0
 15 14  2  0
 16 15  1  0
 17 16  1  0
 17 18  2  0
 18 14  1  0
 19 17  1  0
 20 19  2  0
 21 20  1  0
 22 21  2  0
 22 23  1  0
 23 24  2  0
 24 19  1  0
  1 25  1  0
  1 26  1  0
  3 27  1  0
  5 28  1  0
  8 29  1  0
  9 30  1  0
 11 31  1  0
 13 32  1  0
 13 33  1  0
 20 34  1  0
 21 35  1  0
 22 36  1  0
 23 37  1  0
M  ISO  8  25   8  26   8  27  14  28  14  29  14  30  14  31  14  32   8
M  ISO  5  33   8  34  14  35  14  36  14  37  14
M  END
>  <minimizedAffinity>  (1) 
-5.22797775

>  <minimizedRMSD>  (1) 
0.191764548

$$$$
