
     RDKit          3D

 36 39  0  0  0  0  0  0  0  0999 V2000
   35.1250   20.3490   32.7850 C   0  0  0  0  0  0  0  0  0  0  0  0
   37.6470   22.1610   34.7990 C   0  0  0  0  0  0  0  0  0  0  0  0
   36.5800   21.2930   34.6980 C   0  0  0  0  0  0  0  0  0  0  0  0
   36.1980   21.1530   33.3940 C   0  0  0  0  0  0  0  0  0  0  0  0
   37.0860   21.9790   32.7240 C   0  0  0  0  0  0  0  0  0  0  0  0
   37.9270   22.5580   33.5820 O   0  0  0  0  0  0  0  0  0  0  0  0
   38.2710   22.5060   36.0590 C   0  0  0  0  0  0  0  0  0  0  0  0
   39.6070   22.2900   36.3630 C   0  0  0  0  0  0  0  0  0  0  0  0
   40.0920   22.6630   37.6060 C   0  0  0  0  0  0  0  0  0  0  0  0
   39.2340   23.2350   38.4920 N   0  0  0  0  0  0  0  0  0  0  0  0
   37.9420   23.4340   38.1720 C   0  0  0  0  0  0  0  0  0  0  0  0
   37.4530   23.0770   36.9680 N   0  0  0  0  0  0  0  0  0  0  0  0
   35.4710   18.8570   32.8100 C   0  0  0  0  0  0  0  0  0  0  0  0
   36.0470   18.4260   31.5340 C   0  0  0  0  0  0  0  0  0  0  0  0
   36.5570   17.2100   31.2260 N   0  0  0  0  0  0  0  0  0  0  0  0
   36.9770   17.1990   29.9960 O   0  0  0  0  0  0  0  0  0  0  0  0
   36.7720   18.3820   29.4360 C   0  0  0  0  0  0  0  0  0  0  0  0
   36.1890   19.1440   30.4050 N   0  0  0  0  0  0  0  0  0  0  0  0
   37.0920   18.8030   28.0760 C   0  0  0  0  0  0  0  0  0  0  0  0
   38.3180   19.3430   27.7460 C   0  0  0  0  0  0  0  0  0  0  0  0
   38.4750   19.6960   26.4160 C   0  0  0  0  0  0  0  0  0  0  0  0
   37.5310   19.5430   25.4720 N   0  0  0  0  0  0  0  0  0  0  0  0
   36.3510   19.0110   25.8440 C   0  0  0  0  0  0  0  0  0  0  0  0
   36.1440   18.6480   27.1350 N   0  0  0  0  0  0  0  0  0  0  0  0
   34.9854   20.6679   31.7415 H   0  0  0  0  0  0  0  0  0  0  0  0
   34.2021   20.5031   33.3634 H   0  0  0  0  0  0  0  0  0  0  0  0
   36.1031   20.7844   35.5488 H   0  0  0  0  0  0  0  0  0  0  0  0
   37.0960   22.1355   31.6352 H   0  0  0  0  0  0  0  0  0  0  0  0
   40.2760   21.8263   35.6231 H   0  0  0  0  0  0  0  0  0  0  0  0
   41.1473   22.5000   37.8701 H   0  0  0  0  0  0  0  0  0  0  0  0
   37.2705   23.8982   38.9093 H   0  0  0  0  0  0  0  0  0  0  0  0
   36.1988   18.6707   33.6135 H   0  0  0  0  0  0  0  0  0  0  0  0
   34.5463   18.2876   32.9851 H   0  0  0  0  0  0  0  0  0  0  0  0
   39.1168   19.4837   28.4890 H   0  0  0  0  0  0  0  0  0  0  0  0
   39.4382   20.1313   26.1116 H   0  0  0  0  0  0  0  0  0  0  0  0
   35.5533   18.8704   25.0997 H   0  0  0  0  0  0  0  0  0  0  0  0
  1 13  1  0
  1  4  1  0
  2  7  1  0
  3  2  2  0
  4  3  1  0
  5  4  2  0
  5  6  1  0
  6  2  1  0
  7  8  2  0
  7 12  1  0
  8  9  1  0
  9 10  2  0
 11 10  1  0
 12 11  2  0
 14 13  1  0
 15 14  2  0
 16 15  1  0
 17 16  1  0
 17 18  2  0
 18 14  1  0
 19 17  1  0
 20 19  2  0
 21 20  1  0
 22 23  1  0
 22 21  2  0
 23 24  2  0
 24 19  1  0
  1 25  1  0
  1 26  1  0
  3 27  1  0
  5 28  1  0
  8 29  1  0
  9 30  1  0
 11 31  1  0
 13 32  1  0
 13 33  1  0
 20 34  1  0
 21 35  1  0
 23 36  1  0
M  ISO  8  25   8  26   8  27  14  28  14  29  14  30  14  31  14  32   8
M  ISO  4  33   8  34  14  35  14  36  14
M  END
>  <minimizedAffinity>  (1) 
-5.16095877

>  <minimizedRMSD>  (1) 
0.280856043

$$$$
