
     RDKit          3D

 40 43  0  0  0  0  0  0  0  0999 V2000
   35.1340   20.3460   32.8330 C   0  0  0  0  0  0  0  0  0  0  0  0
   37.6610   22.1540   34.8210 C   0  0  0  0  0  0  0  0  0  0  0  0
   36.6030   21.2810   34.7300 C   0  0  0  0  0  0  0  0  0  0  0  0
   36.2100   21.1560   33.4280 C   0  0  0  0  0  0  0  0  0  0  0  0
   37.0830   21.9930   32.7450 C   0  0  0  0  0  0  0  0  0  0  0  0
   37.9280   22.5680   33.5990 O   0  0  0  0  0  0  0  0  0  0  0  0
   38.3040   22.4990   36.0710 C   0  0  0  0  0  0  0  0  0  0  0  0
   39.6400   22.2740   36.3700 C   0  0  0  0  0  0  0  0  0  0  0  0
   40.1380   22.6490   37.6040 C   0  0  0  0  0  0  0  0  0  0  0  0
   39.3080   23.2240   38.4860 N   0  0  0  0  0  0  0  0  0  0  0  0
   37.9980   23.4410   38.1850 C   0  0  0  0  0  0  0  0  0  0  0  0
   37.4780   23.0870   36.9880 N   0  0  0  0  0  0  0  0  0  0  0  0
   35.4660   18.8550   32.8480 C   0  0  0  0  0  0  0  0  0  0  0  0
   36.0450   18.4140   31.5700 C   0  0  0  0  0  0  0  0  0  0  0  0
   36.5650   17.2070   31.2590 N   0  0  0  0  0  0  0  0  0  0  0  0
   36.9830   17.1900   30.0250 O   0  0  0  0  0  0  0  0  0  0  0  0
   36.7570   18.3770   29.4840 C   0  0  0  0  0  0  0  0  0  0  0  0
   36.1750   19.1460   30.4330 N   0  0  0  0  0  0  0  0  0  0  0  0
   37.0610   18.7850   28.1550 N   0  0  0  0  0  0  0  0  0  0  0  0
   36.2740   18.7160   26.9380 C   0  0  0  0  0  0  0  0  0  0  0  0
   37.3080   18.1090   25.9830 C   0  0  0  0  0  0  0  0  0  0  0  0
   38.6600   18.5500   26.5280 C   0  0  0  0  0  0  0  0  0  0  0  0
   38.3120   19.3920   27.7400 C   0  0  0  0  0  0  0  0  0  0  0  0
   34.9830   20.6659   31.7914 H   0  0  0  0  0  0  0  0  0  0  0  0
   34.2236   20.4977   33.4314 H   0  0  0  0  0  0  0  0  0  0  0  0
   36.1407   20.7595   35.5811 H   0  0  0  0  0  0  0  0  0  0  0  0
   37.0773   22.1571   31.6573 H   0  0  0  0  0  0  0  0  0  0  0  0
   40.2999   21.7995   35.6288 H   0  0  0  0  0  0  0  0  0  0  0  0
   41.1948   22.4789   37.8573 H   0  0  0  0  0  0  0  0  0  0  0  0
   37.3468   23.9158   38.9337 H   0  0  0  0  0  0  0  0  0  0  0  0
   36.1889   18.6588   33.6535 H   0  0  0  0  0  0  0  0  0  0  0  0
   34.5322   18.2973   33.0121 H   0  0  0  0  0  0  0  0  0  0  0  0
   35.3961   18.0638   27.0565 H   0  0  0  0  0  0  0  0  0  0  0  0
   35.8473   19.6748   26.6085 H   0  0  0  0  0  0  0  0  0  0  0  0
   37.1606   18.4900   24.9617 H   0  0  0  0  0  0  0  0  0  0  0  0
   37.2239   17.0136   25.9274 H   0  0  0  0  0  0  0  0  0  0  0  0
   39.2670   17.6797   26.8181 H   0  0  0  0  0  0  0  0  0  0  0  0
   39.2549   19.1028   25.7860 H   0  0  0  0  0  0  0  0  0  0  0  0
   39.0800   19.3082   28.5230 H   0  0  0  0  0  0  0  0  0  0  0  0
   38.2446   20.4708   27.5360 H   0  0  0  0  0  0  0  0  0  0  0  0
  1 13  1  0
  1  4  1  0
  2  7  1  0
  3  2  2  0
  4  3  1  0
  5  4  2  0
  5  6  1  0
  6  2  1  0
  7  8  2  0
  7 12  1  0
  8  9  1  0
  9 10  2  0
 11 10  1  0
 12 11  2  0
 14 13  1  0
 15 14  2  0
 16 15  1  0
 17 16  1  0
 17 18  2  0
 18 14  1  0
 19 17  1  0
 20 19  1  0
 21 22  1  0
 21 20  1  0
 22 23  1  0
 23 19  1  0
  1 24  1  0
  1 25  1  0
  3 26  1  0
  5 27  1  0
  8 28  1  0
  9 29  1  0
 11 30  1  0
 13 31  1  0
 13 32  1  0
 20 33  1  0
 20 34  1  0
 21 35  1  0
 21 36  1  0
 22 37  1  0
 22 38  1  0
 23 39  1  0
 23 40  1  0
M  ISO  8  24   8  25   8  26  14  27  14  28  14  29  14  30  14  31   8
M  ISO  8  32   8  33  13  34  13  35  13  36  13  37  13  38  13  39  13
M  ISO  1  40  13
M  END
>  <minimizedAffinity>  (1) 
-5.12056112

>  <minimizedRMSD>  (1) 
0.273839355

$$$$
