
     RDKit          3D

 34 37  0  0  0  0  0  0  0  0999 V2000
   35.1530   20.3430   32.8200 C   0  0  0  0  0  0  0  0  0  0  0  0
   37.6600   22.1830   34.8250 C   0  0  0  0  0  0  0  0  0  0  0  0
   36.6220   21.2890   34.7280 C   0  0  0  0  0  0  0  0  0  0  0  0
   36.2120   21.1650   33.4280 C   0  0  0  0  0  0  0  0  0  0  0  0
   37.0620   22.0350   32.7530 C   0  0  0  0  0  0  0  0  0  0  0  0
   37.9090   22.6230   33.6100 O   0  0  0  0  0  0  0  0  0  0  0  0
   38.3000   22.5180   36.0800 C   0  0  0  0  0  0  0  0  0  0  0  0
   39.6390   22.2850   36.3790 C   0  0  0  0  0  0  0  0  0  0  0  0
   40.1370   22.6510   37.6160 C   0  0  0  0  0  0  0  0  0  0  0  0
   39.2970   23.2260   38.4980 N   0  0  0  0  0  0  0  0  0  0  0  0
   38.0010   23.4480   38.2020 C   0  0  0  0  0  0  0  0  0  0  0  0
   37.4890   23.0990   36.9960 N   0  0  0  0  0  0  0  0  0  0  0  0
   35.5070   18.8600   32.8540 C   0  0  0  0  0  0  0  0  0  0  0  0
   36.0510   18.4050   31.5620 C   0  0  0  0  0  0  0  0  0  0  0  0
   36.5690   17.1890   31.2720 N   0  0  0  0  0  0  0  0  0  0  0  0
   36.9470   17.1760   30.0100 O   0  0  0  0  0  0  0  0  0  0  0  0
   36.6960   18.3420   29.4570 C   0  0  0  0  0  0  0  0  0  0  0  0
   36.1360   19.1210   30.4120 N   0  0  0  0  0  0  0  0  0  0  0  0
   36.9740   18.7240   28.0540 C   0  0  0  0  0  0  0  0  0  0  0  0
   38.2460   19.1840   27.7440 C   0  0  0  0  0  0  0  0  0  0  0  0
   38.1580   19.5350   25.9550 S   0  0  0  0  0  0  0  0  0  0  0  0
   36.3390   18.9770   25.9280 C   0  0  0  0  0  0  0  0  0  0  0  0
   36.1550   18.6880   27.0210 N   0  0  0  0  0  0  0  0  0  0  0  0
   35.0158   20.6537   31.7738 H   0  0  0  0  0  0  0  0  0  0  0  0
   34.2281   20.4901   33.3970 H   0  0  0  0  0  0  0  0  0  0  0  0
   36.1810   20.7474   35.5778 H   0  0  0  0  0  0  0  0  0  0  0  0
   37.0420   22.2153   31.6681 H   0  0  0  0  0  0  0  0  0  0  0  0
   40.2976   21.8123   35.6355 H   0  0  0  0  0  0  0  0  0  0  0  0
   41.1923   22.4770   37.8731 H   0  0  0  0  0  0  0  0  0  0  0  0
   37.3481   23.9200   38.9510 H   0  0  0  0  0  0  0  0  0  0  0  0
   36.2592   18.6899   33.6384 H   0  0  0  0  0  0  0  0  0  0  0  0
   34.5890   18.2906   33.0618 H   0  0  0  0  0  0  0  0  0  0  0  0
   39.1060   19.3081   28.4185 H   0  0  0  0  0  0  0  0  0  0  0  0
   35.6413   18.9411   25.0784 H   0  0  0  0  0  0  0  0  0  0  0  0
  1 13  1  0
  1  4  1  0
  2  7  1  0
  3  2  2  0
  4  3  1  0
  5  4  2  0
  5  6  1  0
  6  2  1  0
  7  8  2  0
  7 12  1  0
  8  9  1  0
  9 10  2  0
 11 10  1  0
 12 11  2  0
 14 13  1  0
 15 14  2  0
 16 15  1  0
 17 16  1  0
 17 18  2  0
 18 14  1  0
 19 17  1  0
 20 19  2  0
 21 20  1  0
 22 21  1  0
 22 23  2  0
 23 19  1  0
  1 24  1  0
  1 25  1  0
  3 26  1  0
  5 27  1  0
  8 28  1  0
  9 29  1  0
 11 30  1  0
 13 31  1  0
 13 32  1  0
 20 33  1  0
 22 34  1  0
M  ISO  8  24   8  25   8  26  14  27  14  28  14  29  14  30  14  31   8
M  ISO  3  32   8  33  14  34  14
M  END
>  <minimizedAffinity>  (1) 
-4.98710585

>  <minimizedRMSD>  (1) 
0.324604481

$$$$
