
     RDKit          3D

 37 39  0  0  0  0  0  0  0  0999 V2000
   37.6630   22.1520   34.7980 C   0  0  0  0  0  0  0  0  0  0  0  0
   36.5750   21.3010   34.7160 C   0  0  0  0  0  0  0  0  0  0  0  0
   36.1970   21.1690   33.4020 C   0  0  0  0  0  0  0  0  0  0  0  0
   37.0920   21.9650   32.7310 C   0  0  0  0  0  0  0  0  0  0  0  0
   37.9580   22.5410   33.5830 O   0  0  0  0  0  0  0  0  0  0  0  0
   38.2990   22.4950   36.0590 C   0  0  0  0  0  0  0  0  0  0  0  0
   39.6280   22.2740   36.3630 C   0  0  0  0  0  0  0  0  0  0  0  0
   40.1230   22.6450   37.6040 C   0  0  0  0  0  0  0  0  0  0  0  0
   39.2800   23.2150   38.4820 N   0  0  0  0  0  0  0  0  0  0  0  0
   37.9750   23.4290   38.1760 C   0  0  0  0  0  0  0  0  0  0  0  0
   37.4710   23.0740   36.9660 N   0  0  0  0  0  0  0  0  0  0  0  0
   35.1100   20.3850   32.7980 C   0  0  0  0  0  0  0  0  0  0  0  0
   35.4350   18.8770   32.8100 C   0  0  0  0  0  0  0  0  0  0  0  0
   36.0330   18.4620   31.5350 C   0  0  0  0  0  0  0  0  0  0  0  0
   36.5000   17.2500   31.2150 N   0  0  0  0  0  0  0  0  0  0  0  0
   36.9600   17.2490   29.9930 O   0  0  0  0  0  0  0  0  0  0  0  0
   36.8080   18.4540   29.4760 C   0  0  0  0  0  0  0  0  0  0  0  0
   36.2310   19.2210   30.4270 N   0  0  0  0  0  0  0  0  0  0  0  0
   37.2010   18.8810   28.1070 C   0  0  0  0  0  0  0  0  0  0  0  0
   38.5780   18.3690   27.7320 C   0  0  0  0  0  0  0  0  0  0  0  0
   36.2320   18.3690   27.0700 C   0  0  0  0  0  0  0  0  0  0  0  0
   36.0885   20.8071   35.5701 H   0  0  0  0  0  0  0  0  0  0  0  0
   37.0996   22.1120   31.6409 H   0  0  0  0  0  0  0  0  0  0  0  0
   40.2923   21.8048   35.6224 H   0  0  0  0  0  0  0  0  0  0  0  0
   41.1787   22.4771   37.8633 H   0  0  0  0  0  0  0  0  0  0  0  0
   37.3147   23.8978   38.9205 H   0  0  0  0  0  0  0  0  0  0  0  0
   34.9667   20.7127   31.7578 H   0  0  0  0  0  0  0  0  0  0  0  0
   34.1949   20.5483   33.3862 H   0  0  0  0  0  0  0  0  0  0  0  0
   36.1428   18.6672   33.6255 H   0  0  0  0  0  0  0  0  0  0  0  0
   34.5006   18.3163   32.9600 H   0  0  0  0  0  0  0  0  0  0  0  0
   37.1991   19.9809   28.1229 H   0  0  0  0  0  0  0  0  0  0  0  0
   39.1514   18.1558   28.6462 H   0  0  0  0  0  0  0  0  0  0  0  0
   38.4778   17.4480   27.1389 H   0  0  0  0  0  0  0  0  0  0  0  0
   39.1038   19.1317   27.1389 H   0  0  0  0  0  0  0  0  0  0  0  0
   35.3663   17.9116   27.5713 H   0  0  0  0  0  0  0  0  0  0  0  0
   35.8920   19.2052   26.4413 H   0  0  0  0  0  0  0  0  0  0  0  0
   36.7312   17.6170   26.4413 H   0  0  0  0  0  0  0  0  0  0  0  0
  1  6  1  0
  2  1  2  0
  3  2  1  0
  4  3  2  0
  4  5  1  0
  5  1  1  0
  6  7  2  0
  6 11  1  0
  7  8  1  0
  8  9  2  0
 10  9  1  0
 11 10  2  0
 12 13  1  0
 12  3  1  0
 14 13  1  0
 15 14  2  0
 16 15  1  0
 17 16  1  0
 17 18  2  0
 18 14  1  0
 19 17  1  0
 20 19  1  0
 21 19  1  0
  2 22  1  0
  4 23  1  0
  7 24  1  0
  8 25  1  0
 10 26  1  0
 12 27  1  0
 12 28  1  0
 13 29  1  0
 13 30  1  0
 19 31  1  0
 20 32  1  0
 20 33  1  0
 20 34  1  0
 21 35  1  0
 21 36  1  0
 21 37  1  0
M  ISO  8  22  14  23  14  24  14  25  14  26  14  27   8  28   8  29   8
M  ISO  8  30   8  31   8  32   8  33   8  34   8  35   8  36   8  37   8
M  END
>  <minimizedAffinity>  (1) 
-4.82233858

>  <minimizedRMSD>  (1) 
0.181743816

$$$$
