
     RDKit          3D

 40 42  0  0  0  0  0  0  0  0999 V2000
   37.6280   22.1420   34.7510 C   0  0  0  0  0  0  0  0  0  0  0  0
   36.5660   21.2580   34.6530 C   0  0  0  0  0  0  0  0  0  0  0  0
   36.1980   21.1240   33.3400 C   0  0  0  0  0  0  0  0  0  0  0  0
   37.0860   21.9640   32.6720 C   0  0  0  0  0  0  0  0  0  0  0  0
   37.9140   22.5450   33.5400 O   0  0  0  0  0  0  0  0  0  0  0  0
   38.2400   22.4880   36.0210 C   0  0  0  0  0  0  0  0  0  0  0  0
   39.5660   22.2970   36.3480 C   0  0  0  0  0  0  0  0  0  0  0  0
   40.0230   22.6700   37.5970 C   0  0  0  0  0  0  0  0  0  0  0  0
   39.1410   23.2180   38.4620 N   0  0  0  0  0  0  0  0  0  0  0  0
   37.8350   23.4060   38.1390 C   0  0  0  0  0  0  0  0  0  0  0  0
   37.3860   23.0440   36.9290 N   0  0  0  0  0  0  0  0  0  0  0  0
   35.1370   20.3150   32.7050 C   0  0  0  0  0  0  0  0  0  0  0  0
   35.4160   18.8180   32.8860 C   0  0  0  0  0  0  0  0  0  0  0  0
   36.0070   18.2400   31.6840 C   0  0  0  0  0  0  0  0  0  0  0  0
   36.2560   16.9460   31.4220 N   0  0  0  0  0  0  0  0  0  0  0  0
   36.7900   16.7990   30.2500 O   0  0  0  0  0  0  0  0  0  0  0  0
   36.9230   17.9950   29.6740 C   0  0  0  0  0  0  0  0  0  0  0  0
   36.4290   18.8760   30.5830 N   0  0  0  0  0  0  0  0  0  0  0  0
   37.4630   18.4240   28.3510 C   0  0  0  0  0  0  0  0  0  0  0  0
   38.3530   17.3050   27.8250 C   0  0  0  0  0  0  0  0  0  0  0  0
   38.3420   19.6540   28.5060 C   0  0  0  0  0  0  0  0  0  0  0  0
   36.3630   18.6530   27.3650 C   0  0  0  0  0  0  0  0  0  0  0  0
   36.0905   20.7422   35.5003 H   0  0  0  0  0  0  0  0  0  0  0  0
   37.1017   22.1248   31.5839 H   0  0  0  0  0  0  0  0  0  0  0  0
   40.2564   21.8498   35.6177 H   0  0  0  0  0  0  0  0  0  0  0  0
   41.0761   22.5250   37.8799 H   0  0  0  0  0  0  0  0  0  0  0  0
   37.1464   23.8550   38.8699 H   0  0  0  0  0  0  0  0  0  0  0  0
   35.0993   20.5481   31.6306 H   0  0  0  0  0  0  0  0  0  0  0  0
   34.1753   20.5559   33.1815 H   0  0  0  0  0  0  0  0  0  0  0  0
   36.1109   18.6822   33.7279 H   0  0  0  0  0  0  0  0  0  0  0  0
   34.4614   18.3082   33.0833 H   0  0  0  0  0  0  0  0  0  0  0  0
   38.7901   16.7554   28.6717 H   0  0  0  0  0  0  0  0  0  0  0  0
   37.7528   16.6167   27.2117 H   0  0  0  0  0  0  0  0  0  0  0  0
   39.1587   17.7349   27.2117 H   0  0  0  0  0  0  0  0  0  0  0  0
   38.4926   19.8647   29.5751 H   0  0  0  0  0  0  0  0  0  0  0  0
   39.3156   19.4716   28.0276 H   0  0  0  0  0  0  0  0  0  0  0  0
   37.8541   20.5160   28.0276 H   0  0  0  0  0  0  0  0  0  0  0  0
   35.4235   18.8486   27.9027 H   0  0  0  0  0  0  0  0  0  0  0  0
   36.6111   19.5188   26.7334 H   0  0  0  0  0  0  0  0  0  0  0  0
   36.2450   17.7602   26.7334 H   0  0  0  0  0  0  0  0  0  0  0  0
  1  6  1  0
  2  1  2  0
  3  2  1  0
  4  3  2  0
  4  5  1  0
  5  1  1  0
  6  7  2  0
  6 11  1  0
  7  8  1  0
  8  9  2  0
 10  9  1  0
 11 10  2  0
 12 13  1  0
 12  3  1  0
 14 13  1  0
 15 14  2  0
 16 15  1  0
 17 16  1  0
 17 18  2  0
 18 14  1  0
 19 21  1  0
 19 17  1  0
 20 19  1  0
 22 19  1  0
  2 23  1  0
  4 24  1  0
  7 25  1  0
  8 26  1  0
 10 27  1  0
 12 28  1  0
 12 29  1  0
 13 30  1  0
 13 31  1  0
 20 32  1  0
 20 33  1  0
 20 34  1  0
 21 35  1  0
 21 36  1  0
 21 37  1  0
 22 38  1  0
 22 39  1  0
 22 40  1  0
M  ISO  8  23  14  24  14  25  14  26  14  27  14  28   8  29   8  30   8
M  ISO  8  31   8  32   8  33   8  34   8  35   8  36   8  37   8  38   8
M  ISO  2  39   8  40   8
M  END
>  <minimizedAffinity>  (1) 
-4.8196106

>  <minimizedRMSD>  (1) 
0.576818407

$$$$
