
     RDKit          3D

 31 33  0  0  0  0  0  0  0  0999 V2000
   37.6580   22.1680   34.8370 C   0  0  0  0  0  0  0  0  0  0  0  0
   36.6050   21.2810   34.7540 C   0  0  0  0  0  0  0  0  0  0  0  0
   36.1960   21.1540   33.4600 C   0  0  0  0  0  0  0  0  0  0  0  0
   37.0540   22.0060   32.7760 C   0  0  0  0  0  0  0  0  0  0  0  0
   37.9070   22.5890   33.6250 O   0  0  0  0  0  0  0  0  0  0  0  0
   38.3100   22.5100   36.0920 C   0  0  0  0  0  0  0  0  0  0  0  0
   39.6440   22.2790   36.3790 C   0  0  0  0  0  0  0  0  0  0  0  0
   40.1400   22.6540   37.6150 C   0  0  0  0  0  0  0  0  0  0  0  0
   39.2980   23.2360   38.5070 N   0  0  0  0  0  0  0  0  0  0  0  0
   37.9990   23.4510   38.2030 C   0  0  0  0  0  0  0  0  0  0  0  0
   37.5040   23.0930   37.0090 N   0  0  0  0  0  0  0  0  0  0  0  0
   35.1240   20.3430   32.8490 C   0  0  0  0  0  0  0  0  0  0  0  0
   35.4850   18.8590   32.8470 C   0  0  0  0  0  0  0  0  0  0  0  0
   36.0440   18.4400   31.5530 C   0  0  0  0  0  0  0  0  0  0  0  0
   36.5380   17.2350   31.2140 N   0  0  0  0  0  0  0  0  0  0  0  0
   36.9460   17.2410   29.9670 O   0  0  0  0  0  0  0  0  0  0  0  0
   36.7320   18.4350   29.4600 C   0  0  0  0  0  0  0  0  0  0  0  0
   36.1710   19.1950   30.4310 N   0  0  0  0  0  0  0  0  0  0  0  0
   37.0420   18.8650   28.1010 C   0  0  0  0  0  0  0  0  0  0  0  0
   38.1530   19.4060   27.8730 O   0  0  0  0  0  0  0  0  0  0  0  0
   36.1350   18.6830   27.0830 O   0  0  0  0  0  0  0  0  0  0  0  0
   36.1593   20.7520   35.6093 H   0  0  0  0  0  0  0  0  0  0  0  0
   37.0345   22.1769   31.6895 H   0  0  0  0  0  0  0  0  0  0  0  0
   40.3006   21.8041   35.6351 H   0  0  0  0  0  0  0  0  0  0  0  0
   41.1964   22.4838   37.8701 H   0  0  0  0  0  0  0  0  0  0  0  0
   37.3392   23.9256   38.9442 H   0  0  0  0  0  0  0  0  0  0  0  0
   34.1959   20.4854   33.4220 H   0  0  0  0  0  0  0  0  0  0  0  0
   34.9916   20.6700   31.8071 H   0  0  0  0  0  0  0  0  0  0  0  0
   36.2293   18.6715   33.6350 H   0  0  0  0  0  0  0  0  0  0  0  0
   34.5668   18.2811   33.0286 H   0  0  0  0  0  0  0  0  0  0  0  0
   36.3560   18.9787   26.1644 H   0  0  0  0  0  0  0  0  0  0  0  0
  1  6  1  0
  2  1  2  0
  3  2  1  0
  4  3  2  0
  4  5  1  0
  5  1  1  0
  6  7  2  0
  6 11  1  0
  7  8  1  0
  8  9  2  0
 10  9  1  0
 11 10  2  0
 12  3  1  0
 13 12  1  0
 14 13  1  0
 15 14  2  0
 16 15  1  0
 17 16  1  0
 17 18  2  0
 18 14  1  0
 19 17  1  0
 20 19  2  0
 21 19  1  0
  2 22  1  0
  4 23  1  0
  7 24  1  0
  8 25  1  0
 10 26  1  0
 12 27  1  0
 12 28  1  0
 13 29  1  0
 13 30  1  0
 21 31  1  0
M  ISO  8  22  14  23  14  24  14  25  14  26  14  27   8  28   8  29   8
M  ISO  2  30   8  31   3
M  END
>  <minimizedAffinity>  (1) 
-4.75038528

>  <minimizedRMSD>  (1) 
0.19686155

$$$$
