
     RDKit          3D

 30 32  0  0  0  0  0  0  0  0999 V2000
   37.6680   22.1590   34.8080 C   0  0  0  0  0  0  0  0  0  0  0  0
   36.5910   21.2890   34.7420 C   0  0  0  0  0  0  0  0  0  0  0  0
   36.1990   21.1480   33.4390 C   0  0  0  0  0  0  0  0  0  0  0  0
   37.0860   21.9660   32.7520 C   0  0  0  0  0  0  0  0  0  0  0  0
   37.9410   22.5470   33.5990 O   0  0  0  0  0  0  0  0  0  0  0  0
   38.3020   22.5030   36.0700 C   0  0  0  0  0  0  0  0  0  0  0  0
   39.6350   22.2820   36.3790 C   0  0  0  0  0  0  0  0  0  0  0  0
   40.1270   22.6530   37.6150 C   0  0  0  0  0  0  0  0  0  0  0  0
   39.2860   23.2230   38.4890 N   0  0  0  0  0  0  0  0  0  0  0  0
   37.9820   23.4410   38.1930 C   0  0  0  0  0  0  0  0  0  0  0  0
   37.4970   23.0830   36.9910 N   0  0  0  0  0  0  0  0  0  0  0  0
   35.1240   20.3530   32.8380 C   0  0  0  0  0  0  0  0  0  0  0  0
   35.4570   18.8550   32.8550 C   0  0  0  0  0  0  0  0  0  0  0  0
   36.0340   18.4160   31.5820 C   0  0  0  0  0  0  0  0  0  0  0  0
   36.5230   17.2030   31.2680 N   0  0  0  0  0  0  0  0  0  0  0  0
   36.9520   17.2010   30.0260 O   0  0  0  0  0  0  0  0  0  0  0  0
   36.7610   18.3900   29.4980 C   0  0  0  0  0  0  0  0  0  0  0  0
   36.1900   19.1570   30.4550 N   0  0  0  0  0  0  0  0  0  0  0  0
   37.1010   18.7960   28.1460 C   0  0  0  0  0  0  0  0  0  0  0  0
   36.2280   18.8190   27.2570 O   0  0  0  0  0  0  0  0  0  0  0  0
   36.1240   20.7895   35.6036 H   0  0  0  0  0  0  0  0  0  0  0  0
   37.0851   22.1151   31.6622 H   0  0  0  0  0  0  0  0  0  0  0  0
   40.3005   21.8115   35.6403 H   0  0  0  0  0  0  0  0  0  0  0  0
   41.1824   22.4849   37.8755 H   0  0  0  0  0  0  0  0  0  0  0  0
   37.3203   23.9107   38.9357 H   0  0  0  0  0  0  0  0  0  0  0  0
   34.9801   20.6756   31.7963 H   0  0  0  0  0  0  0  0  0  0  0  0
   34.2077   20.5101   33.4260 H   0  0  0  0  0  0  0  0  0  0  0  0
   36.1797   18.6591   33.6608 H   0  0  0  0  0  0  0  0  0  0  0  0
   34.5235   18.2970   33.0201 H   0  0  0  0  0  0  0  0  0  0  0  0
   38.1347   19.0848   27.9052 H   0  0  0  0  0  0  0  0  0  0  0  0
  1  6  1  0
  2  1  2  0
  3  2  1  0
  4  3  2  0
  4  5  1  0
  5  1  1  0
  6  7  2  0
  6 11  1  0
  7  8  1  0
  8  9  2  0
 10  9  1  0
 11 10  2  0
 12 13  1  0
 12  3  1  0
 14 13  1  0
 15 14  2  0
 16 15  1  0
 17 16  1  0
 17 18  2  0
 18 14  1  0
 19 17  1  0
 20 19  2  0
  2 21  1  0
  4 22  1  0
  7 23  1  0
  8 24  1  0
 10 25  1  0
 12 26  1  0
 12 27  1  0
 13 28  1  0
 13 29  1  0
 19 30  1  0
M  ISO  8  21  14  22  14  23  14  24  14  25  14  26   8  27   8  28   8
M  ISO  2  29   8  30   6
M  END
>  <minimizedAffinity>  (1) 
-4.65383196

>  <minimizedRMSD>  (1) 
0.429906815

$$$$
