
     RDKit          3D

 29 31  0  0  0  0  0  0  0  0999 V2000
   37.6590   22.1880   34.7960 C   0  0  0  0  0  0  0  0  0  0  0  0
   36.6020   21.3030   34.7210 C   0  0  0  0  0  0  0  0  0  0  0  0
   36.1900   21.1750   33.4140 C   0  0  0  0  0  0  0  0  0  0  0  0
   37.0590   22.0230   32.7420 C   0  0  0  0  0  0  0  0  0  0  0  0
   37.9060   22.6000   33.5930 O   0  0  0  0  0  0  0  0  0  0  0  0
   38.2960   22.5150   36.0600 C   0  0  0  0  0  0  0  0  0  0  0  0
   39.6280   22.2790   36.3620 C   0  0  0  0  0  0  0  0  0  0  0  0
   40.1330   22.6320   37.6000 C   0  0  0  0  0  0  0  0  0  0  0  0
   39.2960   23.2000   38.4790 N   0  0  0  0  0  0  0  0  0  0  0  0
   38.0020   23.4300   38.1910 C   0  0  0  0  0  0  0  0  0  0  0  0
   37.4730   23.0980   36.9840 N   0  0  0  0  0  0  0  0  0  0  0  0
   35.1200   20.3660   32.8180 C   0  0  0  0  0  0  0  0  0  0  0  0
   35.4860   18.8870   32.7660 C   0  0  0  0  0  0  0  0  0  0  0  0
   36.0580   18.5300   31.4530 C   0  0  0  0  0  0  0  0  0  0  0  0
   36.5260   17.3350   31.0490 N   0  0  0  0  0  0  0  0  0  0  0  0
   36.9530   17.3990   29.8250 O   0  0  0  0  0  0  0  0  0  0  0  0
   36.7870   18.6210   29.3690 C   0  0  0  0  0  0  0  0  0  0  0  0
   36.2300   19.3340   30.3760 N   0  0  0  0  0  0  0  0  0  0  0  0
   37.1510   19.0070   28.0780 O   0  0  0  0  0  0  0  0  0  0  0  0
   36.1555   20.7782   35.5784 H   0  0  0  0  0  0  0  0  0  0  0  0
   37.0497   22.1951   31.6556 H   0  0  0  0  0  0  0  0  0  0  0  0
   40.2851   21.8097   35.6150 H   0  0  0  0  0  0  0  0  0  0  0  0
   41.1878   22.4523   37.8551 H   0  0  0  0  0  0  0  0  0  0  0  0
   37.3574   23.8975   38.9499 H   0  0  0  0  0  0  0  0  0  0  0  0
   34.2070   20.4853   33.4198 H   0  0  0  0  0  0  0  0  0  0  0  0
   34.9639   20.7146   31.7864 H   0  0  0  0  0  0  0  0  0  0  0  0
   36.2256   18.6715   33.5513 H   0  0  0  0  0  0  0  0  0  0  0  0
   34.5730   18.2941   32.9237 H   0  0  0  0  0  0  0  0  0  0  0  0
   37.0057   19.9401   27.7809 H   0  0  0  0  0  0  0  0  0  0  0  0
  1  6  1  0
  2  1  2  0
  3  2  1  0
  4  3  2  0
  4  5  1  0
  5  1  1  0
  6  7  2  0
  6 11  1  0
  7  8  1  0
  8  9  2  0
 10  9  1  0
 11 10  2  0
 12  3  1  0
 13 12  1  0
 14 13  1  0
 15 14  2  0
 16 15  1  0
 17 16  1  0
 17 18  2  0
 18 14  1  0
 19 17  1  0
  2 20  1  0
  4 21  1  0
  7 22  1  0
  8 23  1  0
 10 24  1  0
 12 25  1  0
 12 26  1  0
 13 27  1  0
 13 28  1  0
 19 29  1  0
M  ISO  8  20  14  21  14  22  14  23  14  24  14  25   8  26   8  27   8
M  ISO  2  28   8  29   3
M  END
>  <minimizedAffinity>  (1) 
-4.66836691

>  <minimizedRMSD>  (1) 
0.0419316292

$$$$
