
     RDKit          3D

 36 39  0  0  1  0  0  0  0  0999 V2000
   39.2570   24.0070   35.3070 C   0  0  1  0  0  0  0  0  0  0  0  0
   38.4970   24.5010   36.4950 C   0  0  0  0  0  0  0  0  0  0  0  0
   38.5520   23.3420   37.4540 C   0  0  0  0  0  0  0  0  0  0  0  0
   39.9600   22.8630   37.3060 C   0  0  0  0  0  0  0  0  0  0  0  0
   40.3530   23.1480   35.8870 C   0  0  2  0  0  0  0  0  0  0  0  0
   37.8010   23.7360   33.3100 C   0  0  0  0  0  0  0  0  0  0  0  0
   37.0680   22.7520   32.6660 C   0  0  0  0  0  0  0  0  0  0  0  0
   37.2610   21.6340   33.4260 N   0  0  0  0  0  0  0  0  0  0  0  0
   38.0650   21.9790   34.4460 C   0  0  0  0  0  0  0  0  0  0  0  0
   38.4150   23.2760   34.3980 N   0  0  0  0  0  0  0  0  0  0  0  0
   37.9130   25.1320   32.8740 C   0  0  0  0  0  0  0  0  0  0  0  0
   38.9210   25.5120   31.9770 C   0  0  0  0  0  0  0  0  0  0  0  0
   38.9560   26.8680   31.6100 C   0  0  0  0  0  0  0  0  0  0  0  0
   38.0440   27.7230   32.1240 N   0  0  0  0  0  0  0  0  0  0  0  0
   37.1010   27.3120   32.9790 C   0  0  0  0  0  0  0  0  0  0  0  0
   37.0040   26.0190   33.3780 N   0  0  0  0  0  0  0  0  0  0  0  0
   41.6960   23.8350   35.7990 C   0  0  0  0  0  0  0  0  0  0  0  0
   42.0220   24.9310   34.9980 C   0  0  0  0  0  0  0  0  0  0  0  0
   43.7110   25.1940   35.3920 S   0  0  0  0  0  0  0  0  0  0  0  0
   43.7760   23.7700   36.6100 C   0  0  0  0  0  0  0  0  0  0  0  0
   42.5700   23.2630   36.5980 N   0  0  0  0  0  0  0  0  0  0  0  0
   39.6625   24.8316   34.7024 H   0  0  0  0  0  0  0  0  0  0  0  0
   38.9773   25.3916   36.9265 H   0  0  0  0  0  0  0  0  0  0  0  0
   37.4689   24.8057   36.2496 H   0  0  0  0  0  0  0  0  0  0  0  0
   38.3502   23.6694   38.4846 H   0  0  0  0  0  0  0  0  0  0  0  0
   37.8014   22.5654   37.2453 H   0  0  0  0  0  0  0  0  0  0  0  0
   40.6211   23.4024   38.0003 H   0  0  0  0  0  0  0  0  0  0  0  0
   40.0447   21.7909   37.5373 H   0  0  0  0  0  0  0  0  0  0  0  0
   40.4651   22.2112   35.3215 H   0  0  0  0  0  0  0  0  0  0  0  0
   36.4668   22.8494   31.7500 H   0  0  0  0  0  0  0  0  0  0  0  0
   38.3978   21.2815   35.2288 H   0  0  0  0  0  0  0  0  0  0  0  0
   39.6468   24.7865   31.5810 H   0  0  0  0  0  0  0  0  0  0  0  0
   39.7212   27.2316   30.9084 H   0  0  0  0  0  0  0  0  0  0  0  0
   36.3813   28.0457   33.3711 H   0  0  0  0  0  0  0  0  0  0  0  0
   41.3823   25.4881   34.2977 H   0  0  0  0  0  0  0  0  0  0  0  0
   44.6387   23.4345   37.2042 H   0  0  0  0  0  0  0  0  0  0  0  0
  1  5  1  0
  1  2  1  0
  2  3  1  0
  4  3  1  0
  5  4  1  0
  6 10  1  0
  7  6  2  0
  7  8  1  0
  8  9  2  0
 10  9  1  0
 10  1  1  0
 11  6  1  0
 11 16  1  0
 12 11  2  0
 13 12  1  0
 13 14  2  0
 14 15  1  0
 15 16  2  0
 17  5  1  0
 17 21  1  0
 18 19  1  0
 18 17  2  0
 19 20  1  0
 21 20  2  0
  1 22  1  6
  2 23  1  0
  2 24  1  0
  3 25  1  0
  3 26  1  0
  4 27  1  0
  4 28  1  0
  5 29  1  6
  7 30  1  0
  9 31  1  0
 12 32  1  0
 13 33  1  0
 15 34  1  0
 18 35  1  0
 20 36  1  0
M  ISO  8  22  13  23  13  24  13  25  13  26  13  27  13  28  13  29  13
M  ISO  7  30  14  31  14  32  14  33  14  34  14  35  14  36  14
M  END
>  <minimizedAffinity>  (1) 
-4.67203236

>  <minimizedRMSD>  (1) 
1.19677889

$$$$
