
     RDKit          3D

 46 51  0  0  0  0  0  0  0  0999 V2000
   35.5370   18.8910   32.8420 C   0  0  0  0  0  0  0  0  0  0  0  0
   36.2800   18.4910   31.6350 C   0  0  0  0  0  0  0  0  0  0  0  0
   37.4190   17.7710   31.5770 N   0  0  0  0  0  0  0  0  0  0  0  0
   37.7820   17.6160   30.3260 O   0  0  0  0  0  0  0  0  0  0  0  0
   36.9220   18.2110   29.5380 C   0  0  0  0  0  0  0  0  0  0  0  0
   35.9740   18.7640   30.3490 N   0  0  0  0  0  0  0  0  0  0  0  0
   36.9480   18.2810   28.0860 C   0  0  0  0  0  0  0  0  0  0  0  0
   36.3380   17.3930   27.2260 C   0  0  0  0  0  0  0  0  0  0  0  0
   36.6360   17.8650   25.9470 C   0  0  0  0  0  0  0  0  0  0  0  0
   37.3780   18.9670   26.0490 N   0  0  0  0  0  0  0  0  0  0  0  0
   37.5480   19.1910   27.3350 N   0  0  0  0  0  0  0  0  0  0  0  0
   36.1670   21.1060   22.1780 N   0  0  0  0  0  0  0  0  0  0  0  0
   35.0690   20.7260   22.8750 C   0  0  0  0  0  0  0  0  0  0  0  0
   35.5070   20.1070   23.9960 N   0  0  0  0  0  0  0  0  0  0  0  0
   36.8460   20.0990   24.0000 C   0  0  0  0  0  0  0  0  0  0  0  0
   37.7940   19.6120   24.8740 C   0  0  0  0  0  0  0  0  0  0  0  0
   39.1120   19.7820   24.5560 N   0  0  0  0  0  0  0  0  0  0  0  0
   39.4850   20.4140   23.4050 C   0  0  0  0  0  0  0  0  0  0  0  0
   38.5850   20.9040   22.5230 N   0  0  0  0  0  0  0  0  0  0  0  0
   37.2810   20.7380   22.8360 C   0  0  0  0  0  0  0  0  0  0  0  0
   35.1720   20.3830   32.7940 C   0  0  0  0  0  0  0  0  0  0  0  0
   37.6600   22.2130   34.8160 C   0  0  0  0  0  0  0  0  0  0  0  0
   36.6410   21.2980   34.7090 C   0  0  0  0  0  0  0  0  0  0  0  0
   36.2250   21.2100   33.4120 C   0  0  0  0  0  0  0  0  0  0  0  0
   37.0520   22.1260   32.7460 C   0  0  0  0  0  0  0  0  0  0  0  0
   37.8910   22.7020   33.6080 O   0  0  0  0  0  0  0  0  0  0  0  0
   38.3120   22.5280   36.0670 C   0  0  0  0  0  0  0  0  0  0  0  0
   39.6240   22.2910   36.3620 C   0  0  0  0  0  0  0  0  0  0  0  0
   40.1420   22.6410   37.6080 C   0  0  0  0  0  0  0  0  0  0  0  0
   39.3110   23.2130   38.4940 N   0  0  0  0  0  0  0  0  0  0  0  0
   38.0100   23.4480   38.1980 C   0  0  0  0  0  0  0  0  0  0  0  0
   37.4910   23.1140   36.9950 N   0  0  0  0  0  0  0  0  0  0  0  0
   34.6138   18.2967   32.9097 H   0  0  0  0  0  0  0  0  0  0  0  0
   36.1743   18.7139   33.7209 H   0  0  0  0  0  0  0  0  0  0  0  0
   35.7450   16.5051   27.4905 H   0  0  0  0  0  0  0  0  0  0  0  0
   36.3101   17.4010   25.0044 H   0  0  0  0  0  0  0  0  0  0  0  0
   36.1510   21.6037   21.2764 H   0  0  0  0  0  0  0  0  0  0  0  0
   34.0206   20.8896   22.5848 H   0  0  0  0  0  0  0  0  0  0  0  0
   40.5571   20.5288   23.1871 H   0  0  0  0  0  0  0  0  0  0  0  0
   35.0460   20.6879   31.7447 H   0  0  0  0  0  0  0  0  0  0  0  0
   34.2381   20.5313   33.3560 H   0  0  0  0  0  0  0  0  0  0  0  0
   36.2216   20.7207   35.5461 H   0  0  0  0  0  0  0  0  0  0  0  0
   37.0142   22.3389   31.6675 H   0  0  0  0  0  0  0  0  0  0  0  0
   40.2765   21.8208   35.6115 H   0  0  0  0  0  0  0  0  0  0  0  0
   41.1971   22.4546   37.8572 H   0  0  0  0  0  0  0  0  0  0  0  0
   37.3627   23.9202   38.9517 H   0  0  0  0  0  0  0  0  0  0  0  0
  2  1  1  0
  3  2  2  0
  4  3  1  0
  5  4  1  0
  5  6  2  0
  6  2  1  0
  7  5  1  0
  8  7  1  0
  9 10  1  0
  9  8  2  0
 10 11  1  0
 11  7  2  0
 12 20  1  0
 12 13  1  0
 13 14  2  0
 14 15  1  0
 15 16  2  0
 16 10  1  0
 17 16  1  0
 18 17  2  0
 19 20  2  0
 19 18  1  0
 20 15  1  0
 21  1  1  0
 21 24  1  0
 22 27  1  0
 23 22  2  0
 24 23  1  0
 25 24  2  0
 25 26  1  0
 26 22  1  0
 27 28  2  0
 27 32  1  0
 28 29  1  0
 29 30  2  0
 31 30  1  0
 32 31  2  0
  1 33  1  0
  1 34  1  0
  8 35  1  0
  9 36  1  0
 12 37  1  0
 13 38  1  0
 18 39  1  0
 21 40  1  0
 21 41  1  0
 23 42  1  0
 25 43  1  0
 28 44  1  0
 29 45  1  0
 31 46  1  0
M  ISO  8  33   8  34   8  35  14  36  14  37   9  38  14  39  14  40   8
M  ISO  6  41   8  42  14  43  14  44  14  45  14  46  14
M  END
>  <minimizedAffinity>  (1) 
-5.82355499

>  <minimizedRMSD>  (1) 
1.40837228

$$$$
