
     RDKit          3D

 45 49  0  0  0  0  0  0  0  0999 V2000
   35.5430   18.8080   32.8980 C   0  0  0  0  0  0  0  0  0  0  0  0
   36.1830   18.3910   31.6410 C   0  0  0  0  0  0  0  0  0  0  0  0
   37.0770   17.3920   31.4760 N   0  0  0  0  0  0  0  0  0  0  0  0
   37.4270   17.3150   30.2150 O   0  0  0  0  0  0  0  0  0  0  0  0
   36.7990   18.2300   29.5240 C   0  0  0  0  0  0  0  0  0  0  0  0
   36.0200   18.9090   30.4020 N   0  0  0  0  0  0  0  0  0  0  0  0
   36.8990   18.4900   28.0970 C   0  0  0  0  0  0  0  0  0  0  0  0
   36.2660   17.8140   27.1010 C   0  0  0  0  0  0  0  0  0  0  0  0
   36.6580   18.4080   25.9120 C   0  0  0  0  0  0  0  0  0  0  0  0
   37.4980   19.4050   26.1890 N   0  0  0  0  0  0  0  0  0  0  0  0
   37.6200   19.4280   27.4970 N   0  0  0  0  0  0  0  0  0  0  0  0
   38.0690   20.2040   25.1590 C   0  0  0  0  0  0  0  0  0  0  0  0
   38.9190   21.2900   25.3320 C   0  0  0  0  0  0  0  0  0  0  0  0
   39.3920   21.9650   24.2240 C   0  0  0  0  0  0  0  0  0  0  0  0
   39.0280   21.5690   22.9440 C   0  0  0  0  0  0  0  0  0  0  0  0
   38.1820   20.4880   22.7660 C   0  0  0  0  0  0  0  0  0  0  0  0
   37.6990   19.8010   23.8830 C   0  0  0  0  0  0  0  0  0  0  0  0
   35.1600   20.3020   32.8420 C   0  0  0  0  0  0  0  0  0  0  0  0
   37.6550   22.1750   34.8210 C   0  0  0  0  0  0  0  0  0  0  0  0
   36.6330   21.2590   34.7370 C   0  0  0  0  0  0  0  0  0  0  0  0
   36.2190   21.1470   33.4440 C   0  0  0  0  0  0  0  0  0  0  0  0
   37.0380   22.0330   32.7610 C   0  0  0  0  0  0  0  0  0  0  0  0
   37.8840   22.6310   33.6130 O   0  0  0  0  0  0  0  0  0  0  0  0
   38.3040   22.5120   36.0710 C   0  0  0  0  0  0  0  0  0  0  0  0
   39.6280   22.2870   36.3680 C   0  0  0  0  0  0  0  0  0  0  0  0
   40.1360   22.6560   37.6070 C   0  0  0  0  0  0  0  0  0  0  0  0
   39.3050   23.2270   38.4840 N   0  0  0  0  0  0  0  0  0  0  0  0
   38.0010   23.4500   38.1950 C   0  0  0  0  0  0  0  0  0  0  0  0
   37.4840   23.0990   36.9950 N   0  0  0  0  0  0  0  0  0  0  0  0
   34.6353   18.2077   33.0582 H   0  0  0  0  0  0  0  0  0  0  0  0
   36.2515   18.6539   33.7252 H   0  0  0  0  0  0  0  0  0  0  0  0
   35.5783   16.9633   27.2165 H   0  0  0  0  0  0  0  0  0  0  0  0
   36.3302   18.1066   24.9062 H   0  0  0  0  0  0  0  0  0  0  0  0
   39.2125   21.6091   26.3430 H   0  0  0  0  0  0  0  0  0  0  0  0
   40.0642   22.8255   24.3569 H   0  0  0  0  0  0  0  0  0  0  0  0
   39.4125   22.1152   22.0700 H   0  0  0  0  0  0  0  0  0  0  0  0
   37.8921   20.1721   21.7530 H   0  0  0  0  0  0  0  0  0  0  0  0
   37.0258   18.9411   23.7513 H   0  0  0  0  0  0  0  0  0  0  0  0
   35.0181   20.5975   31.7920 H   0  0  0  0  0  0  0  0  0  0  0  0
   34.2309   20.4463   33.4130 H   0  0  0  0  0  0  0  0  0  0  0  0
   36.2128   20.7005   35.5864 H   0  0  0  0  0  0  0  0  0  0  0  0
   36.9996   22.2186   31.6775 H   0  0  0  0  0  0  0  0  0  0  0  0
   40.2854   21.8143   35.6234 H   0  0  0  0  0  0  0  0  0  0  0  0
   41.1926   22.4831   37.8592 H   0  0  0  0  0  0  0  0  0  0  0  0
   37.3526   23.9235   38.9469 H   0  0  0  0  0  0  0  0  0  0  0  0
  2  1  1  0
  3  2  2  0
  4  3  1  0
  5  4  1  0
  5  6  2  0
  6  2  1  0
  7  5  1  0
  8  7  1  0
  9 10  1  0
  9  8  2  0
 10 11  1  0
 11  7  2  0
 12 13  2  0
 12 10  1  0
 14 13  1  0
 15 14  2  0
 16 15  1  0
 16 17  2  0
 17 12  1  0
 18  1  1  0
 18 21  1  0
 19 24  1  0
 20 19  2  0
 21 20  1  0
 22 21  2  0
 22 23  1  0
 23 19  1  0
 24 25  2  0
 24 29  1  0
 25 26  1  0
 26 27  2  0
 28 27  1  0
 29 28  2  0
  1 30  1  0
  1 31  1  0
  8 32  1  0
  9 33  1  0
 13 34  1  0
 14 35  1  0
 15 36  1  0
 16 37  1  0
 17 38  1  0
 18 39  1  0
 18 40  1  0
 20 41  1  0
 22 42  1  0
 25 43  1  0
 26 44  1  0
 28 45  1  0
M  ISO  8  30   8  31   8  32  14  33  14  34  14  35  14  36  14  37  14
M  ISO  8  38  14  39   8  40   8  41  14  42  14  43  14  44  14  45  14
M  END
>  <minimizedAffinity>  (1) 
-5.43222952

>  <minimizedRMSD>  (1) 
0.807133496

$$$$
