
     RDKit          3D

 42 46  0  0  0  0  0  0  0  0999 V2000
   35.4910   18.8250   32.8270 C   0  0  0  0  0  0  0  0  0  0  0  0
   36.1000   18.4070   31.5630 C   0  0  0  0  0  0  0  0  0  0  0  0
   36.7550   17.2570   31.3170 N   0  0  0  0  0  0  0  0  0  0  0  0
   37.1590   17.2360   30.0660 O   0  0  0  0  0  0  0  0  0  0  0  0
   36.7870   18.3550   29.4640 C   0  0  0  0  0  0  0  0  0  0  0  0
   36.1300   19.0810   30.3890 N   0  0  0  0  0  0  0  0  0  0  0  0
   37.0380   18.7250   28.0760 C   0  0  0  0  0  0  0  0  0  0  0  0
   36.2420   18.3870   27.0080 C   0  0  0  0  0  0  0  0  0  0  0  0
   36.8880   18.9620   25.9130 C   0  0  0  0  0  0  0  0  0  0  0  0
   37.9980   19.6020   26.3070 N   0  0  0  0  0  0  0  0  0  0  0  0
   38.0650   19.4430   27.6170 N   0  0  0  0  0  0  0  0  0  0  0  0
   38.9110   20.3040   25.4700 C   0  0  0  0  0  0  0  0  0  0  0  0
   38.7020   21.5200   24.8520 C   0  0  0  0  0  0  0  0  0  0  0  0
   39.8770   21.7920   24.1450 C   0  0  0  0  0  0  0  0  0  0  0  0
   40.7400   20.7590   24.3510 N   0  0  0  0  0  0  0  0  0  0  0  0
   40.1460   19.8860   25.1410 N   0  0  0  0  0  0  0  0  0  0  0  0
   35.1320   20.3240   32.7960 C   0  0  0  0  0  0  0  0  0  0  0  0
   37.6330   22.1580   34.8040 C   0  0  0  0  0  0  0  0  0  0  0  0
   36.5840   21.2730   34.7090 C   0  0  0  0  0  0  0  0  0  0  0  0
   36.2020   21.1470   33.4060 C   0  0  0  0  0  0  0  0  0  0  0  0
   37.0730   21.9970   32.7280 C   0  0  0  0  0  0  0  0  0  0  0  0
   37.9070   22.5780   33.5900 O   0  0  0  0  0  0  0  0  0  0  0  0
   38.2670   22.5060   36.0590 C   0  0  0  0  0  0  0  0  0  0  0  0
   39.5800   22.3040   36.3670 C   0  0  0  0  0  0  0  0  0  0  0  0
   40.0710   22.6830   37.6150 C   0  0  0  0  0  0  0  0  0  0  0  0
   39.2280   23.2420   38.4820 N   0  0  0  0  0  0  0  0  0  0  0  0
   37.9060   23.4480   38.1770 C   0  0  0  0  0  0  0  0  0  0  0  0
   37.4280   23.0800   36.9690 N   0  0  0  0  0  0  0  0  0  0  0  0
   34.5757   18.2390   32.9968 H   0  0  0  0  0  0  0  0  0  0  0  0
   36.2134   18.6535   33.6386 H   0  0  0  0  0  0  0  0  0  0  0  0
   35.3119   17.7997   27.0148 H   0  0  0  0  0  0  0  0  0  0  0  0
   36.5359   18.8990   24.8728 H   0  0  0  0  0  0  0  0  0  0  0  0
   37.7986   22.1454   24.9047 H   0  0  0  0  0  0  0  0  0  0  0  0
   40.0704   22.6836   23.5304 H   0  0  0  0  0  0  0  0  0  0  0  0
   41.6888   20.6745   23.9591 H   0  0  0  0  0  0  0  0  0  0  0  0
   34.9911   20.6371   31.7509 H   0  0  0  0  0  0  0  0  0  0  0  0
   34.2083   20.4716   33.3747 H   0  0  0  0  0  0  0  0  0  0  0  0
   36.1225   20.7460   35.5571 H   0  0  0  0  0  0  0  0  0  0  0  0
   37.0724   22.1641   31.6408 H   0  0  0  0  0  0  0  0  0  0  0  0
   40.2524   21.8414   35.6295 H   0  0  0  0  0  0  0  0  0  0  0  0
   41.1274   22.5247   37.8774 H   0  0  0  0  0  0  0  0  0  0  0  0
   37.2364   23.9124   38.9159 H   0  0  0  0  0  0  0  0  0  0  0  0
  2  1  1  0
  3  2  2  0
  4  3  1  0
  5  4  1  0
  5  6  2  0
  6  2  1  0
  7  5  1  0
  8  7  1  0
  9 10  1  0
  9  8  2  0
 10 11  1  0
 11  7  2  0
 12 10  1  0
 13 12  1  0
 14 15  1  0
 14 13  2  0
 15 16  1  0
 16 12  2  0
 17  1  1  0
 17 20  1  0
 18 23  1  0
 19 18  2  0
 20 19  1  0
 21 20  2  0
 21 22  1  0
 22 18  1  0
 23 24  2  0
 23 28  1  0
 24 25  1  0
 25 26  2  0
 27 26  1  0
 28 27  2  0
  1 29  1  0
  1 30  1  0
  8 31  1  0
  9 32  1  0
 13 33  1  0
 14 34  1  0
 15 35  1  0
 17 36  1  0
 17 37  1  0
 19 38  1  0
 21 39  1  0
 24 40  1  0
 25 41  1  0
 27 42  1  0
M  ISO  8  29   8  30   8  31  14  32  14  33  14  34  14  35   9  36   8
M  ISO  6  37   8  38  14  39  14  40  14  41  14  42  14
M  END
>  <minimizedAffinity>  (1) 
-5.43711233

>  <minimizedRMSD>  (1) 
0.251599312

$$$$
