
     RDKit          3D

 37 40  0  0  1  0  0  0  0  0999 V2000
   39.0740   23.9980   35.3810 C   0  0  1  0  0  0  0  0  0  0  0  0
   38.2660   24.6880   36.4380 C   0  0  0  0  0  0  0  0  0  0  0  0
   38.1120   23.6170   37.4930 C   0  0  0  0  0  0  0  0  0  0  0  0
   39.4790   22.9790   37.5160 C   0  0  0  0  0  0  0  0  0  0  0  0
   40.0070   23.0870   36.1370 C   0  0  2  0  0  0  0  0  0  0  0  0
   37.7190   23.7500   33.3260 C   0  0  0  0  0  0  0  0  0  0  0  0
   36.9600   22.7810   32.6750 C   0  0  0  0  0  0  0  0  0  0  0  0
   37.0440   21.6740   33.4810 N   0  0  0  0  0  0  0  0  0  0  0  0
   37.8150   22.0220   34.5250 C   0  0  0  0  0  0  0  0  0  0  0  0
   38.2410   23.2870   34.4550 N   0  0  0  0  0  0  0  0  0  0  0  0
   37.9330   25.1200   32.8470 C   0  0  0  0  0  0  0  0  0  0  0  0
   39.0440   25.4120   32.0420 C   0  0  0  0  0  0  0  0  0  0  0  0
   39.1550   26.7690   31.6340 C   0  0  0  0  0  0  0  0  0  0  0  0
   38.2340   27.6640   32.0220 N   0  0  0  0  0  0  0  0  0  0  0  0
   37.1920   27.3290   32.7920 C   0  0  0  0  0  0  0  0  0  0  0  0
   37.0150   26.0590   33.2220 N   0  0  0  0  0  0  0  0  0  0  0  0
   41.3830   23.5270   36.0620 N   0  0  0  0  0  0  0  0  0  0  0  0
   42.4760   23.0770   36.7250 C   0  0  0  0  0  0  0  0  0  0  0  0
   43.5970   23.7820   36.3510 C   0  0  0  0  0  0  0  0  0  0  0  0
   43.1880   24.6800   35.4440 N   0  0  0  0  0  0  0  0  0  0  0  0
   41.8870   24.5260   35.2770 C   0  0  0  0  0  0  0  0  0  0  0  0
   39.6320   24.7106   34.7559 H   0  0  0  0  0  0  0  0  0  0  0  0
   38.7998   25.5633   36.8367 H   0  0  0  0  0  0  0  0  0  0  0  0
   37.3057   25.0767   36.0681 H   0  0  0  0  0  0  0  0  0  0  0  0
   37.8619   24.0554   38.4704 H   0  0  0  0  0  0  0  0  0  0  0  0
   37.3006   22.9057   37.2792 H   0  0  0  0  0  0  0  0  0  0  0  0
   40.1366   23.5111   38.2191 H   0  0  0  0  0  0  0  0  0  0  0  0
   39.4272   21.9306   37.8450 H   0  0  0  0  0  0  0  0  0  0  0  0
   40.0363   22.0851   35.6838 H   0  0  0  0  0  0  0  0  0  0  0  0
   36.4142   22.8809   31.7252 H   0  0  0  0  0  0  0  0  0  0  0  0
   38.0685   21.3389   35.3491 H   0  0  0  0  0  0  0  0  0  0  0  0
   39.7765   24.6460   31.7477 H   0  0  0  0  0  0  0  0  0  0  0  0
   39.9963   27.0855   30.9999 H   0  0  0  0  0  0  0  0  0  0  0  0
   36.4648   28.1021   33.0810 H   0  0  0  0  0  0  0  0  0  0  0  0
   42.4681   22.2599   37.4614 H   0  0  0  0  0  0  0  0  0  0  0  0
   44.6225   23.6376   36.7218 H   0  0  0  0  0  0  0  0  0  0  0  0
   41.2802   25.1308   34.5871 H   0  0  0  0  0  0  0  0  0  0  0  0
  1  5  1  0
  1  2  1  0
  2  3  1  0
  3  4  1  0
  5  4  1  0
  6 10  1  0
  7  6  2  0
  7  8  1  0
  8  9  2  0
 10  9  1  0
 10  1  1  0
 11 16  1  0
 11  6  1  0
 12 11  2  0
 13 14  2  0
 13 12  1  0
 14 15  1  0
 15 16  2  0
 17  5  1  0
 17 18  1  0
 19 18  2  0
 20 19  1  0
 21 20  2  0
 21 17  1  0
  1 22  1  6
  2 23  1  0
  2 24  1  0
  3 25  1  0
  3 26  1  0
  4 27  1  0
  4 28  1  0
  5 29  1  6
  7 30  1  0
  9 31  1  0
 12 32  1  0
 13 33  1  0
 15 34  1  0
 18 35  1  0
 19 36  1  0
 21 37  1  0
M  ISO  8  22  13  23  13  24  13  25  13  26  13  27  13  28  13  29  13
M  ISO  8  30  14  31  14  32  14  33  14  34  14  35  14  36  14  37  14
M  END
>  <minimizedAffinity>  (1) 
-4.66181231

>  <minimizedRMSD>  (1) 
0.768191159

$$$$
