
     RDKit          3D

 47 51  0  0  1  0  0  0  0  0999 V2000
   35.5220   18.8410   32.7670 C   0  0  0  0  0  0  0  0  0  0  0  0
   36.1410   18.4310   31.5030 C   0  0  0  0  0  0  0  0  0  0  0  0
   36.8320   17.3110   31.2580 N   0  0  0  0  0  0  0  0  0  0  0  0
   37.2290   17.3030   30.0030 O   0  0  0  0  0  0  0  0  0  0  0  0
   36.8160   18.3980   29.4030 C   0  0  0  0  0  0  0  0  0  0  0  0
   36.1410   19.1020   30.3270 N   0  0  0  0  0  0  0  0  0  0  0  0
   37.0450   18.7720   28.0120 C   0  0  0  0  0  0  0  0  0  0  0  0
   36.1700   18.5660   26.9690 C   0  0  0  0  0  0  0  0  0  0  0  0
   36.8260   19.0850   25.8610 C   0  0  0  0  0  0  0  0  0  0  0  0
   38.0150   19.5730   26.2130 N   0  0  0  0  0  0  0  0  0  0  0  0
   38.1270   19.3740   27.5190 N   0  0  0  0  0  0  0  0  0  0  0  0
   39.1540   19.5590   24.0960 N   0  0  0  0  0  0  0  0  0  0  0  0
   39.8910   20.5040   23.3090 C   0  0  0  0  0  0  0  0  0  0  0  0
   39.5290   21.8800   23.7890 C   0  0  0  0  0  0  0  0  0  0  0  0
   38.6580   21.6080   25.0210 C   0  0  0  0  0  0  0  0  0  0  0  0
   39.0090   20.2000   25.3750 C   0  0  1  0  0  0  0  0  0  0  0  0
   35.1430   20.3380   32.7450 C   0  0  0  0  0  0  0  0  0  0  0  0
   37.6360   22.1610   34.7850 C   0  0  0  0  0  0  0  0  0  0  0  0
   36.6040   21.2870   34.6780 C   0  0  0  0  0  0  0  0  0  0  0  0
   36.2070   21.1570   33.3670 C   0  0  0  0  0  0  0  0  0  0  0  0
   37.0810   22.0210   32.6960 C   0  0  0  0  0  0  0  0  0  0  0  0
   37.9120   22.5970   33.5690 O   0  0  0  0  0  0  0  0  0  0  0  0
   38.2690   22.5030   36.0430 C   0  0  0  0  0  0  0  0  0  0  0  0
   39.5940   22.2910   36.3480 C   0  0  0  0  0  0  0  0  0  0  0  0
   40.0840   22.6650   37.5910 C   0  0  0  0  0  0  0  0  0  0  0  0
   39.2260   23.2290   38.4660 N   0  0  0  0  0  0  0  0  0  0  0  0
   37.9250   23.4320   38.1550 C   0  0  0  0  0  0  0  0  0  0  0  0
   37.4270   23.0750   36.9470 N   0  0  0  0  0  0  0  0  0  0  0  0
   34.6133   18.2434   32.9317 H   0  0  0  0  0  0  0  0  0  0  0  0
   36.2467   18.6776   33.5782 H   0  0  0  0  0  0  0  0  0  0  0  0
   35.1760   18.0964   27.0054 H   0  0  0  0  0  0  0  0  0  0  0  0
   36.4218   19.0924   24.8380 H   0  0  0  0  0  0  0  0  0  0  0  0
   39.6749   18.6752   24.1876 H   0  0  0  0  0  0  0  0  0  0  0  0
   39.6247   20.3956   22.2472 H   0  0  0  0  0  0  0  0  0  0  0  0
   40.9724   20.3319   23.4138 H   0  0  0  0  0  0  0  0  0  0  0  0
   40.4287   22.4514   24.0612 H   0  0  0  0  0  0  0  0  0  0  0  0
   39.0155   22.4808   23.0239 H   0  0  0  0  0  0  0  0  0  0  0  0
   38.9079   22.2963   25.8419 H   0  0  0  0  0  0  0  0  0  0  0  0
   37.5839   21.7535   24.8337 H   0  0  0  0  0  0  0  0  0  0  0  0
   39.9238   20.1305   25.9819 H   0  0  0  0  0  0  0  0  0  0  0  0
   35.0030   20.6596   31.7024 H   0  0  0  0  0  0  0  0  0  0  0  0
   34.2125   20.4753   33.3154 H   0  0  0  0  0  0  0  0  0  0  0  0
   36.1465   20.7543   35.5247 H   0  0  0  0  0  0  0  0  0  0  0  0
   37.0830   22.1991   31.6105 H   0  0  0  0  0  0  0  0  0  0  0  0
   40.2627   21.8264   35.6085 H   0  0  0  0  0  0  0  0  0  0  0  0
   41.1400   22.5064   37.8550 H   0  0  0  0  0  0  0  0  0  0  0  0
   37.2589   23.8959   38.8974 H   0  0  0  0  0  0  0  0  0  0  0  0
  2  1  1  0
  3  2  2  0
  4  3  1  0
  5  4  1  0
  5  6  2  0
  6  2  1  0
  7  5  1  0
  8  7  1  0
  9 10  1  0
  9  8  2  0
 10 11  1  0
 11  7  2  0
 12 16  1  0
 13 14  1  0
 13 12  1  0
 14 15  1  0
 16 15  1  0
 16 10  1  0
 17  1  1  0
 17 20  1  0
 18 23  1  0
 19 18  2  0
 20 19  1  0
 21 20  2  0
 21 22  1  0
 22 18  1  0
 23 24  2  0
 23 28  1  0
 24 25  1  0
 25 26  2  0
 27 26  1  0
 28 27  2  0
  1 29  1  0
  1 30  1  0
  8 31  1  0
  9 32  1  0
 12 33  1  0
 13 34  1  0
 13 35  1  0
 14 36  1  0
 14 37  1  0
 15 38  1  0
 15 39  1  0
 16 40  1  1
 17 41  1  0
 17 42  1  0
 19 43  1  0
 21 44  1  0
 24 45  1  0
 25 46  1  0
 27 47  1  0
M  ISO  8  29   8  30   8  31  14  32  14  33   5  34  13  35  13  36  13
M  ISO  8  37  13  38  13  39  13  40  13  41   8  42   8  43  14  44  14
M  ISO  3  45  14  46  14  47  14
M  END
>  <minimizedAffinity>  (1) 
-5.32470322

>  <minimizedRMSD>  (1) 
0.293944418

$$$$
