
     RDKit          3D

 48 52  0  0  0  0  0  0  0  0999 V2000
   35.4660   18.8730   32.7960 C   0  0  0  0  0  0  0  0  0  0  0  0
   36.0430   18.4290   31.5220 C   0  0  0  0  0  0  0  0  0  0  0  0
   36.5290   17.2100   31.2360 N   0  0  0  0  0  0  0  0  0  0  0  0
   36.9610   17.1870   29.9970 O   0  0  0  0  0  0  0  0  0  0  0  0
   36.7770   18.3630   29.4380 C   0  0  0  0  0  0  0  0  0  0  0  0
   36.2040   19.1400   30.3880 N   0  0  0  0  0  0  0  0  0  0  0  0
   37.1140   18.7680   28.0760 C   0  0  0  0  0  0  0  0  0  0  0  0
   36.2860   18.7140   26.9950 C   0  0  0  0  0  0  0  0  0  0  0  0
   37.0570   19.2040   25.9350 C   0  0  0  0  0  0  0  0  0  0  0  0
   38.2850   19.5300   26.3830 N   0  0  0  0  0  0  0  0  0  0  0  0
   38.2710   19.2520   27.6670 N   0  0  0  0  0  0  0  0  0  0  0  0
   39.4450   20.0730   25.7040 C   0  0  0  0  0  0  0  0  0  0  0  0
   40.3250   20.8690   26.6300 C   0  0  0  0  0  0  0  0  0  0  0  0
   39.7500   22.2630   26.6880 C   0  0  0  0  0  0  0  0  0  0  0  0
   39.0270   22.4420   25.3690 C   0  0  0  0  0  0  0  0  0  0  0  0
   39.0270   21.1020   24.6790 C   0  0  0  0  0  0  0  0  0  0  0  0
   35.1240   20.3800   32.7510 C   0  0  0  0  0  0  0  0  0  0  0  0
   37.6400   22.1680   34.7770 C   0  0  0  0  0  0  0  0  0  0  0  0
   36.5770   21.3090   34.6760 C   0  0  0  0  0  0  0  0  0  0  0  0
   36.2040   21.1810   33.3750 C   0  0  0  0  0  0  0  0  0  0  0  0
   37.1010   22.0110   32.6920 C   0  0  0  0  0  0  0  0  0  0  0  0
   37.9390   22.5800   33.5660 O   0  0  0  0  0  0  0  0  0  0  0  0
   38.2650   22.5080   36.0440 C   0  0  0  0  0  0  0  0  0  0  0  0
   39.5760   22.3060   36.3700 C   0  0  0  0  0  0  0  0  0  0  0  0
   40.0580   22.6730   37.6150 C   0  0  0  0  0  0  0  0  0  0  0  0
   39.2130   23.2250   38.4820 N   0  0  0  0  0  0  0  0  0  0  0  0
   37.9000   23.4290   38.1630 C   0  0  0  0  0  0  0  0  0  0  0  0
   37.4120   23.0790   36.9540 N   0  0  0  0  0  0  0  0  0  0  0  0
   34.5476   18.3010   32.9943 H   0  0  0  0  0  0  0  0  0  0  0  0
   36.2038   18.7036   33.5941 H   0  0  0  0  0  0  0  0  0  0  0  0
   35.2439   18.3634   26.9628 H   0  0  0  0  0  0  0  0  0  0  0  0
   36.7131   19.3072   24.8953 H   0  0  0  0  0  0  0  0  0  0  0  0
   39.9602   19.1987   25.2796 H   0  0  0  0  0  0  0  0  0  0  0  0
   40.3253   20.4176   27.6331 H   0  0  0  0  0  0  0  0  0  0  0  0
   41.3641   20.8857   26.2693 H   0  0  0  0  0  0  0  0  0  0  0  0
   39.0483   22.3574   27.5298 H   0  0  0  0  0  0  0  0  0  0  0  0
   40.5279   23.0256   26.8405 H   0  0  0  0  0  0  0  0  0  0  0  0
   37.9938   22.7749   25.5470 H   0  0  0  0  0  0  0  0  0  0  0  0
   39.5252   23.2019   24.7491 H   0  0  0  0  0  0  0  0  0  0  0  0
   38.0194   20.8716   24.3026 H   0  0  0  0  0  0  0  0  0  0  0  0
   39.7170   21.1033   23.8224 H   0  0  0  0  0  0  0  0  0  0  0  0
   35.0027   20.6916   31.7031 H   0  0  0  0  0  0  0  0  0  0  0  0
   34.1913   20.5479   33.3094 H   0  0  0  0  0  0  0  0  0  0  0  0
   36.0962   20.7981   35.5232 H   0  0  0  0  0  0  0  0  0  0  0  0
   37.1147   22.1708   31.6038 H   0  0  0  0  0  0  0  0  0  0  0  0
   40.2553   21.8474   35.6364 H   0  0  0  0  0  0  0  0  0  0  0  0
   41.1132   22.5122   37.8807 H   0  0  0  0  0  0  0  0  0  0  0  0
   37.2287   23.8866   38.9046 H   0  0  0  0  0  0  0  0  0  0  0  0
  2  1  1  0
  3  2  2  0
  4  3  1  0
  5  4  1  0
  5  6  2  0
  6  2  1  0
  7  5  1  0
  8  7  1  0
  9 10  1  0
  9  8  2  0
 10 11  1  0
 11  7  2  0
 12 10  1  0
 12 13  1  0
 13 14  1  0
 15 14  1  0
 16 15  1  0
 16 12  1  0
 17  1  1  0
 17 20  1  0
 18 23  1  0
 19 18  2  0
 20 19  1  0
 21 20  2  0
 21 22  1  0
 22 18  1  0
 23 24  2  0
 23 28  1  0
 24 25  1  0
 25 26  2  0
 27 26  1  0
 28 27  2  0
  1 29  1  0
  1 30  1  0
  8 31  1  0
  9 32  1  0
 12 33  1  0
 13 34  1  0
 13 35  1  0
 14 36  1  0
 14 37  1  0
 15 38  1  0
 15 39  1  0
 16 40  1  0
 16 41  1  0
 17 42  1  0
 17 43  1  0
 19 44  1  0
 21 45  1  0
 24 46  1  0
 25 47  1  0
 27 48  1  0
M  ISO  8  29   8  30   8  31  14  32  14  33  13  34  13  35  13  36  13
M  ISO  8  37  13  38  13  39  13  40  13  41  13  42   8  43   8  44  14
M  ISO  4  45  14  46  14  47  14  48  14
M  END
>  <minimizedAffinity>  (1) 
-5.41862679

>  <minimizedRMSD>  (1) 
0.174796

$$$$
