
     RDKit          3D

 50 54  0  0  0  0  0  0  0  0999 V2000
   35.5010   18.8300   32.8600 C   0  0  0  0  0  0  0  0  0  0  0  0
   36.1020   18.3710   31.6020 C   0  0  0  0  0  0  0  0  0  0  0  0
   36.7700   17.2360   31.3840 N   0  0  0  0  0  0  0  0  0  0  0  0
   37.1560   17.1790   30.1330 O   0  0  0  0  0  0  0  0  0  0  0  0
   36.7610   18.2510   29.5010 C   0  0  0  0  0  0  0  0  0  0  0  0
   36.1030   19.0010   30.4070 N   0  0  0  0  0  0  0  0  0  0  0  0
   36.9790   18.5850   28.1010 C   0  0  0  0  0  0  0  0  0  0  0  0
   36.2510   18.1050   27.0360 C   0  0  0  0  0  0  0  0  0  0  0  0
   36.8200   18.6960   25.9090 C   0  0  0  0  0  0  0  0  0  0  0  0
   37.8320   19.4860   26.2900 N   0  0  0  0  0  0  0  0  0  0  0  0
   37.9050   19.4010   27.5980 N   0  0  0  0  0  0  0  0  0  0  0  0
   39.6850   22.4610   23.9510 N   0  0  0  0  0  0  0  0  0  0  0  0
   39.3530   22.6880   25.3230 C   0  0  0  0  0  0  0  0  0  0  0  0
   39.3000   21.4240   26.1450 C   0  0  0  0  0  0  0  0  0  0  0  0
   38.6780   20.2770   25.4160 C   0  0  0  0  0  0  0  0  0  0  0  0
   37.9150   20.8100   24.2300 C   0  0  0  0  0  0  0  0  0  0  0  0
   38.9170   21.4510   23.2920 C   0  0  0  0  0  0  0  0  0  0  0  0
   35.1500   20.3260   32.7980 C   0  0  0  0  0  0  0  0  0  0  0  0
   37.6570   22.1670   34.7930 C   0  0  0  0  0  0  0  0  0  0  0  0
   36.6150   21.2750   34.7050 C   0  0  0  0  0  0  0  0  0  0  0  0
   36.2170   21.1520   33.4020 C   0  0  0  0  0  0  0  0  0  0  0  0
   37.0790   22.0150   32.7270 C   0  0  0  0  0  0  0  0  0  0  0  0
   37.9100   22.5920   33.5870 O   0  0  0  0  0  0  0  0  0  0  0  0
   38.2930   22.5070   36.0510 C   0  0  0  0  0  0  0  0  0  0  0  0
   39.6110   22.2870   36.3580 C   0  0  0  0  0  0  0  0  0  0  0  0
   40.1120   22.6570   37.6030 C   0  0  0  0  0  0  0  0  0  0  0  0
   39.2620   23.2290   38.4790 N   0  0  0  0  0  0  0  0  0  0  0  0
   37.9600   23.4440   38.1710 C   0  0  0  0  0  0  0  0  0  0  0  0
   37.4580   23.0920   36.9680 N   0  0  0  0  0  0  0  0  0  0  0  0
   34.5832   18.2541   33.0498 H   0  0  0  0  0  0  0  0  0  0  0  0
   36.2303   18.6776   33.6693 H   0  0  0  0  0  0  0  0  0  0  0  0
   35.4027   17.4055   27.0675 H   0  0  0  0  0  0  0  0  0  0  0  0
   36.4901   18.5385   24.8715 H   0  0  0  0  0  0  0  0  0  0  0  0
   39.5502   23.3457   23.4411 H   0  0  0  0  0  0  0  0  0  0  0  0
   40.1107   23.3557   25.7590 H   0  0  0  0  0  0  0  0  0  0  0  0
   38.3463   23.1308   25.3439 H   0  0  0  0  0  0  0  0  0  0  0  0
   40.3265   21.1454   26.4256 H   0  0  0  0  0  0  0  0  0  0  0  0
   38.6745   21.6312   27.0258 H   0  0  0  0  0  0  0  0  0  0  0  0
   39.4687   19.6005   25.0595 H   0  0  0  0  0  0  0  0  0  0  0  0
   37.3948   19.9871   23.7179 H   0  0  0  0  0  0  0  0  0  0  0  0
   37.1627   21.5448   24.5528 H   0  0  0  0  0  0  0  0  0  0  0  0
   38.3761   21.9069   22.4496 H   0  0  0  0  0  0  0  0  0  0  0  0
   39.6068   20.6697   22.9401 H   0  0  0  0  0  0  0  0  0  0  0  0
   35.0204   20.6207   31.7461 H   0  0  0  0  0  0  0  0  0  0  0  0
   34.2212   20.4891   33.3643 H   0  0  0  0  0  0  0  0  0  0  0  0
   36.1678   20.7398   35.5556 H   0  0  0  0  0  0  0  0  0  0  0  0
   37.0718   22.1920   31.6414 H   0  0  0  0  0  0  0  0  0  0  0  0
   40.2749   21.8164   35.6179 H   0  0  0  0  0  0  0  0  0  0  0  0
   41.1673   22.4881   37.8635 H   0  0  0  0  0  0  0  0  0  0  0  0
   37.2998   23.9140   38.9148 H   0  0  0  0  0  0  0  0  0  0  0  0
  2  1  1  0
  3  2  2  0
  4  3  1  0
  5  4  1  0
  5  6  2  0
  6  2  1  0
  7  5  1  0
  8  7  1  0
  9 10  1  0
  9  8  2  0
 10 11  1  0
 11  7  2  0
 12 13  1  0
 13 14  1  0
 15 14  1  0
 15 10  1  0
 16 15  1  0
 17 12  1  0
 17 16  1  0
 18  1  1  0
 18 21  1  0
 19 24  1  0
 20 19  2  0
 21 20  1  0
 22 21  2  0
 22 23  1  0
 23 19  1  0
 24 25  2  0
 24 29  1  0
 25 26  1  0
 26 27  2  0
 28 27  1  0
 29 28  2  0
  1 30  1  0
  1 31  1  0
  8 32  1  0
  9 33  1  0
 12 34  1  0
 13 35  1  0
 13 36  1  0
 14 37  1  0
 14 38  1  0
 15 39  1  0
 16 40  1  0
 16 41  1  0
 17 42  1  0
 17 43  1  0
 18 44  1  0
 18 45  1  0
 20 46  1  0
 22 47  1  0
 25 48  1  0
 26 49  1  0
 28 50  1  0
M  ISO  8  30   8  31   8  32  14  33  14  34   5  35  13  36  13  37  13
M  ISO  8  38  13  39  13  40  13  41  13  42  13  43  13  44   8  45   8
M  ISO  5  46  14  47  14  48  14  49  14  50  14
M  END
>  <minimizedAffinity>  (1) 
-5.52503157

>  <minimizedRMSD>  (1) 
0.558036923

$$$$
