
     RDKit          3D

 42 46  0  0  0  0  0  0  0  0999 V2000
   35.4710   18.8340   32.8600 C   0  0  0  0  0  0  0  0  0  0  0  0
   36.0810   18.3950   31.5930 C   0  0  0  0  0  0  0  0  0  0  0  0
   36.6870   17.2300   31.3420 N   0  0  0  0  0  0  0  0  0  0  0  0
   37.0990   17.2140   30.0930 O   0  0  0  0  0  0  0  0  0  0  0  0
   36.7860   18.3370   29.5030 C   0  0  0  0  0  0  0  0  0  0  0  0
   36.1450   19.0970   30.4280 N   0  0  0  0  0  0  0  0  0  0  0  0
   37.0620   18.7240   28.1210 C   0  0  0  0  0  0  0  0  0  0  0  0
   36.2860   18.4110   27.0270 C   0  0  0  0  0  0  0  0  0  0  0  0
   36.9540   18.9930   25.9540 C   0  0  0  0  0  0  0  0  0  0  0  0
   38.0560   19.6140   26.3820 N   0  0  0  0  0  0  0  0  0  0  0  0
   38.0990   19.4380   27.6860 N   0  0  0  0  0  0  0  0  0  0  0  0
   38.9760   20.3140   25.5730 C   0  0  0  0  0  0  0  0  0  0  0  0
   38.6780   21.5270   24.8380 C   0  0  0  0  0  0  0  0  0  0  0  0
   39.7210   22.0410   24.1140 C   0  0  0  0  0  0  0  0  0  0  0  0
   40.9450   21.4330   24.1050 C   0  0  0  0  0  0  0  0  0  0  0  0
   40.6750   19.9550   25.2230 S   0  0  0  0  0  0  0  0  0  0  0  0
   35.1230   20.3370   32.8230 C   0  0  0  0  0  0  0  0  0  0  0  0
   37.6600   22.1470   34.8010 C   0  0  0  0  0  0  0  0  0  0  0  0
   36.6060   21.2880   34.7200 C   0  0  0  0  0  0  0  0  0  0  0  0
   36.1980   21.1380   33.4250 C   0  0  0  0  0  0  0  0  0  0  0  0
   37.0850   21.9730   32.7310 C   0  0  0  0  0  0  0  0  0  0  0  0
   37.9310   22.5480   33.5900 O   0  0  0  0  0  0  0  0  0  0  0  0
   38.3020   22.4960   36.0610 C   0  0  0  0  0  0  0  0  0  0  0  0
   39.6140   22.2830   36.3670 C   0  0  0  0  0  0  0  0  0  0  0  0
   40.1170   22.6600   37.6120 C   0  0  0  0  0  0  0  0  0  0  0  0
   39.2690   23.2330   38.4850 N   0  0  0  0  0  0  0  0  0  0  0  0
   37.9710   23.4390   38.1710 C   0  0  0  0  0  0  0  0  0  0  0  0
   37.4770   23.0790   36.9770 N   0  0  0  0  0  0  0  0  0  0  0  0
   34.5506   18.2572   33.0335 H   0  0  0  0  0  0  0  0  0  0  0  0
   36.1947   18.6648   33.6710 H   0  0  0  0  0  0  0  0  0  0  0  0
   35.3507   17.8324   27.0062 H   0  0  0  0  0  0  0  0  0  0  0  0
   36.6226   18.9481   24.9061 H   0  0  0  0  0  0  0  0  0  0  0  0
   37.6855   22.0008   24.8600 H   0  0  0  0  0  0  0  0  0  0  0  0
   39.5707   22.9603   23.5289 H   0  0  0  0  0  0  0  0  0  0  0  0
   41.8596   21.7359   23.5741 H   0  0  0  0  0  0  0  0  0  0  0  0
   34.9835   20.6489   31.7774 H   0  0  0  0  0  0  0  0  0  0  0  0
   34.1994   20.4987   33.3981 H   0  0  0  0  0  0  0  0  0  0  0  0
   36.1452   20.7829   35.5817 H   0  0  0  0  0  0  0  0  0  0  0  0
   37.0843   22.1309   31.6424 H   0  0  0  0  0  0  0  0  0  0  0  0
   40.2787   21.8115   35.6282 H   0  0  0  0  0  0  0  0  0  0  0  0
   41.1730   22.4942   37.8717 H   0  0  0  0  0  0  0  0  0  0  0  0
   37.3062   23.9113   38.9092 H   0  0  0  0  0  0  0  0  0  0  0  0
  2  1  1  0
  3  2  2  0
  4  3  1  0
  5  4  1  0
  5  6  2  0
  6  2  1  0
  7  5  1  0
  8  7  1  0
  9 10  1  0
  9  8  2  0
 10 11  1  0
 11  7  2  0
 12 10  1  0
 13 12  2  0
 14 13  1  0
 15 14  2  0
 15 16  1  0
 16 12  1  0
 17  1  1  0
 17 20  1  0
 18 23  1  0
 19 18  2  0
 20 19  1  0
 21 20  2  0
 21 22  1  0
 22 18  1  0
 23 24  2  0
 23 28  1  0
 24 25  1  0
 25 26  2  0
 27 26  1  0
 28 27  2  0
  1 29  1  0
  1 30  1  0
  8 31  1  0
  9 32  1  0
 13 33  1  0
 14 34  1  0
 15 35  1  0
 17 36  1  0
 17 37  1  0
 19 38  1  0
 21 39  1  0
 24 40  1  0
 25 41  1  0
 27 42  1  0
M  ISO  8  29   8  30   8  31  14  32  14  33  14  34  14  35  14  36   8
M  ISO  6  37   8  38  14  39  14  40  14  41  14  42  14
M  END
>  <minimizedAffinity>  (1) 
-5.28579473

>  <minimizedRMSD>  (1) 
0.455338538

$$$$
