
     RDKit          3D

 38 41  0  0  0  0  0  0  0  0999 V2000
   35.1180   20.3850   32.7970 C   0  0  0  0  0  0  0  0  0  0  0  0
   37.6570   22.1510   34.8130 C   0  0  0  0  0  0  0  0  0  0  0  0
   36.6030   21.3010   34.7190 C   0  0  0  0  0  0  0  0  0  0  0  0
   36.2080   21.1830   33.4090 C   0  0  0  0  0  0  0  0  0  0  0  0
   37.1010   22.0210   32.7250 C   0  0  0  0  0  0  0  0  0  0  0  0
   37.9400   22.5740   33.5930 O   0  0  0  0  0  0  0  0  0  0  0  0
   38.3110   22.4910   36.0670 C   0  0  0  0  0  0  0  0  0  0  0  0
   39.6310   22.2710   36.3620 C   0  0  0  0  0  0  0  0  0  0  0  0
   40.1340   22.6460   37.6000 C   0  0  0  0  0  0  0  0  0  0  0  0
   39.2900   23.2210   38.4800 N   0  0  0  0  0  0  0  0  0  0  0  0
   37.9750   23.4370   38.1780 C   0  0  0  0  0  0  0  0  0  0  0  0
   37.4860   23.0750   36.9760 N   0  0  0  0  0  0  0  0  0  0  0  0
   35.4490   18.8840   32.8400 C   0  0  0  0  0  0  0  0  0  0  0  0
   36.0250   18.4360   31.5740 C   0  0  0  0  0  0  0  0  0  0  0  0
   36.5150   17.2190   31.2880 N   0  0  0  0  0  0  0  0  0  0  0  0
   36.9470   17.1900   30.0500 O   0  0  0  0  0  0  0  0  0  0  0  0
   36.7540   18.3750   29.4900 C   0  0  0  0  0  0  0  0  0  0  0  0
   36.1800   19.1490   30.4380 N   0  0  0  0  0  0  0  0  0  0  0  0
   37.0940   18.7630   28.1250 C   0  0  0  0  0  0  0  0  0  0  0  0
   36.3290   18.5670   27.0110 C   0  0  0  0  0  0  0  0  0  0  0  0
   37.0810   19.1050   25.9740 C   0  0  0  0  0  0  0  0  0  0  0  0
   38.2430   19.6020   26.4370 N   0  0  0  0  0  0  0  0  0  0  0  0
   38.2010   19.3710   27.7380 N   0  0  0  0  0  0  0  0  0  0  0  0
   39.3500   20.2520   25.7940 C   0  0  0  0  0  0  0  0  0  0  0  0
   34.9880   20.6957   31.7498 H   0  0  0  0  0  0  0  0  0  0  0  0
   34.1925   20.5581   33.3658 H   0  0  0  0  0  0  0  0  0  0  0  0
   36.1337   20.7824   35.5680 H   0  0  0  0  0  0  0  0  0  0  0  0
   37.1055   22.1933   31.6386 H   0  0  0  0  0  0  0  0  0  0  0  0
   40.2905   21.7983   35.6193 H   0  0  0  0  0  0  0  0  0  0  0  0
   41.1907   22.4789   37.8557 H   0  0  0  0  0  0  0  0  0  0  0  0
   37.3130   23.9084   38.9193 H   0  0  0  0  0  0  0  0  0  0  0  0
   36.1710   18.6983   33.6489 H   0  0  0  0  0  0  0  0  0  0  0  0
   34.5179   18.3258   33.0172 H   0  0  0  0  0  0  0  0  0  0  0  0
   35.3396   18.0903   26.9486 H   0  0  0  0  0  0  0  0  0  0  0  0
   36.7694   19.1224   24.9192 H   0  0  0  0  0  0  0  0  0  0  0  0
   40.0332   20.6532   26.5571 H   0  0  0  0  0  0  0  0  0  0  0  0
   39.8872   19.5259   25.1662 H   0  0  0  0  0  0  0  0  0  0  0  0
   38.9777   21.0749   25.1662 H   0  0  0  0  0  0  0  0  0  0  0  0
  1 13  1  0
  1  4  1  0
  2  7  1  0
  3  2  2  0
  4  3  1  0
  5  4  2  0
  5  6  1  0
  6  2  1  0
  7  8  2  0
  7 12  1  0
  8  9  1  0
  9 10  2  0
 11 10  1  0
 12 11  2  0
 14 13  1  0
 15 14  2  0
 16 15  1  0
 17 16  1  0
 17 18  2  0
 18 14  1  0
 19 17  1  0
 20 19  1  0
 21 22  1  0
 21 20  2  0
 22 23  1  0
 23 19  2  0
 24 22  1  0
  1 25  1  0
  1 26  1  0
  3 27  1  0
  5 28  1  0
  8 29  1  0
  9 30  1  0
 11 31  1  0
 13 32  1  0
 13 33  1  0
 20 34  1  0
 21 35  1  0
 24 36  1  0
 24 37  1  0
 24 38  1  0
M  ISO  8  25   8  26   8  27  14  28  14  29  14  30  14  31  14  32   8
M  ISO  6  33   8  34  14  35  14  36   8  37   8  38   8
M  END
>  <minimizedAffinity>  (1) 
-5.09490395

>  <minimizedRMSD>  (1) 
0.0127134901

$$$$
