
     RDKit          3D

 24 25  0  0  0  0  0  0  0  0999 V2000
   39.7700   22.7570   37.7550 C   0  0  0  0  0  0  0  0  0  0  0  0
   38.9340   23.4160   38.6550 C   0  0  0  0  0  0  0  0  0  0  0  0
   37.8240   24.1060   38.1560 C   0  0  0  0  0  0  0  0  0  0  0  0
   37.6160   24.0970   36.7950 N   0  0  0  0  0  0  0  0  0  0  0  0
   38.4520   23.4450   35.9570 C   0  0  0  0  0  0  0  0  0  0  0  0
   39.5210   22.7800   36.4370 N   0  0  0  0  0  0  0  0  0  0  0  0
   38.1540   23.4530   34.2020 S   0  0  0  0  0  0  0  0  0  0  0  0
   37.5160   21.8920   33.5760 C   0  0  0  0  0  0  0  0  0  0  0  0
   36.6720   21.2820   34.6780 C   0  0  0  0  0  0  0  0  0  0  0  0
   35.5350   20.5520   33.9880 C   0  0  0  0  0  0  0  0  0  0  0  0
   35.7590   20.7860   32.4950 C   0  0  0  0  0  0  0  0  0  0  0  0
   36.4510   22.1200   32.5000 C   0  0  0  0  0  0  0  0  0  0  0  0
   40.6470   22.2099   38.1312 H   0  0  0  0  0  0  0  0  0  0  0  0
   39.1427   23.3940   39.7348 H   0  0  0  0  0  0  0  0  0  0  0  0
   37.1382   24.6395   38.8305 H   0  0  0  0  0  0  0  0  0  0  0  0
   38.3749   21.3041   33.2200 H   0  0  0  0  0  0  0  0  0  0  0  0
   37.2724   20.5772   35.2719 H   0  0  0  0  0  0  0  0  0  0  0  0
   36.2937   22.0529   35.3655 H   0  0  0  0  0  0  0  0  0  0  0  0
   35.5692   19.4772   34.2197 H   0  0  0  0  0  0  0  0  0  0  0  0
   34.5510   20.9157   34.3189 H   0  0  0  0  0  0  0  0  0  0  0  0
   34.8057   20.8301   31.9479 H   0  0  0  0  0  0  0  0  0  0  0  0
   36.3287   19.9877   31.9969 H   0  0  0  0  0  0  0  0  0  0  0  0
   36.9048   22.3434   31.5232 H   0  0  0  0  0  0  0  0  0  0  0  0
   35.7865   22.9750   32.6934 H   0  0  0  0  0  0  0  0  0  0  0  0
  1  2  2  0
  3  2  1  0
  4  3  2  0
  5  6  2  0
  5  4  1  0
  6  1  1  0
  7  5  1  0
  8  7  1  0
  8  9  1  0
 10  9  1  0
 11 12  1  0
 11 10  1  0
 12  8  1  0
  1 13  1  0
  2 14  1  0
  3 15  1  0
  8 16  1  0
  9 17  1  0
  9 18  1  0
 10 19  1  0
 10 20  1  0
 11 21  1  0
 11 22  1  0
 12 23  1  0
 12 24  1  0
M  ISO  8  13  14  14  14  15  14  16  13  17  13  18  13  19  13  20  13
M  ISO  4  21  13  22  13  23  13  24  13
M  END
>  <minimizedAffinity>  (1) 
-3.7735219

>  <minimizedRMSD>  (1) 
1.55505896

$$$$
