
     RDKit          3D

 19 20  0  0  0  0  0  0  0  0999 V2000
   39.9950   22.6710   37.6350 C   0  0  0  0  0  0  0  0  0  0  0  0
   38.9330   23.2600   38.3300 C   0  0  0  0  0  0  0  0  0  0  0  0
   37.7170   23.4440   37.6670 C   0  0  0  0  0  0  0  0  0  0  0  0
   37.6200   23.0360   36.3580 N   0  0  0  0  0  0  0  0  0  0  0  0
   38.6570   22.4730   35.7160 C   0  0  0  0  0  0  0  0  0  0  0  0
   39.8230   22.2960   36.3470 N   0  0  0  0  0  0  0  0  0  0  0  0
   38.5060   21.9540   34.0210 S   0  0  0  0  0  0  0  0  0  0  0  0
   37.4810   23.0130   33.0410 C   0  0  0  0  0  0  0  0  0  0  0  0
   36.5110   22.4350   32.2490 C   0  0  0  0  0  0  0  0  0  0  0  0
   35.6510   23.1750   31.4410 C   0  0  0  0  0  0  0  0  0  0  0  0
   35.7840   24.4960   31.4440 N   0  0  0  0  0  0  0  0  0  0  0  0
   36.7250   25.0940   32.2100 C   0  0  0  0  0  0  0  0  0  0  0  0
   37.5660   24.3740   33.0000 N   0  0  0  0  0  0  0  0  0  0  0  0
   40.9633   22.5140   38.1328 H   0  0  0  0  0  0  0  0  0  0  0  0
   39.0531   23.5721   39.3779 H   0  0  0  0  0  0  0  0  0  0  0  0
   36.8591   23.9037   38.1795 H   0  0  0  0  0  0  0  0  0  0  0  0
   36.4120   21.3395   32.2558 H   0  0  0  0  0  0  0  0  0  0  0  0
   34.8876   22.6817   30.8215 H   0  0  0  0  0  0  0  0  0  0  0  0
   36.8122   26.1904   32.1935 H   0  0  0  0  0  0  0  0  0  0  0  0
  1  2  2  0
  3  2  1  0
  4  3  2  0
  5  6  2  0
  5  4  1  0
  6  1  1  0
  7  5  1  0
  8  7  1  0
  9  8  2  0
 10 11  2  0
 10  9  1  0
 11 12  1  0
 12 13  2  0
 13  8  1  0
  1 14  1  0
  2 15  1  0
  3 16  1  0
  9 17  1  0
 10 18  1  0
 12 19  1  0
M  ISO  6  14  14  15  14  16  14  17  14  18  14  19  14
M  END
>  <minimizedAffinity>  (1) 
-3.8601675

>  <minimizedRMSD>  (1) 
3.53035092

$$$$
