
     RDKit          3D

 20 21  0  0  0  0  0  0  0  0999 V2000
   39.7700   22.7590   37.8280 C   0  0  0  0  0  0  0  0  0  0  0  0
   38.7410   23.4300   38.5060 C   0  0  0  0  0  0  0  0  0  0  0  0
   37.7290   24.0320   37.7440 C   0  0  0  0  0  0  0  0  0  0  0  0
   37.8070   23.9280   36.3830 N   0  0  0  0  0  0  0  0  0  0  0  0
   38.8060   23.2790   35.7600 C   0  0  0  0  0  0  0  0  0  0  0  0
   39.7720   22.7050   36.4920 N   0  0  0  0  0  0  0  0  0  0  0  0
   38.8830   23.1600   33.9860 S   0  0  0  0  0  0  0  0  0  0  0  0
   37.3810   22.4880   33.2870 C   0  0  0  0  0  0  0  0  0  0  0  0
   36.7240   22.9080   32.1430 C   0  0  0  0  0  0  0  0  0  0  0  0
   35.5720   22.2410   31.7840 C   0  0  0  0  0  0  0  0  0  0  0  0
   35.0950   21.1940   32.5440 C   0  0  0  0  0  0  0  0  0  0  0  0
   35.7720   20.7980   33.6790 C   0  0  0  0  0  0  0  0  0  0  0  0
   36.8940   21.4620   34.0110 N   0  0  0  0  0  0  0  0  0  0  0  0
   40.5777   22.2758   38.3974 H   0  0  0  0  0  0  0  0  0  0  0  0
   38.7283   23.4825   39.6047 H   0  0  0  0  0  0  0  0  0  0  0  0
   36.8995   24.5703   38.2258 H   0  0  0  0  0  0  0  0  0  0  0  0
   37.1079   23.7450   31.5413 H   0  0  0  0  0  0  0  0  0  0  0  0
   35.0263   22.5481   30.8796 H   0  0  0  0  0  0  0  0  0  0  0  0
   34.1732   20.6737   32.2448 H   0  0  0  0  0  0  0  0  0  0  0  0
   35.4050   19.9635   34.2947 H   0  0  0  0  0  0  0  0  0  0  0  0
  1  2  2  0
  3  2  1  0
  4  3  2  0
  5  4  1  0
  5  6  2  0
  6  1  1  0
  7  5  1  0
  8  7  1  0
  8 13  1  0
  9  8  2  0
 10  9  1  0
 10 11  2  0
 11 12  1  0
 12 13  2  0
  1 14  1  0
  2 15  1  0
  3 16  1  0
  9 17  1  0
 10 18  1  0
 11 19  1  0
 12 20  1  0
M  ISO  7  14  14  15  14  16  14  17  14  18  14  19  14  20  14
M  END
>  <minimizedAffinity>  (1) 
-4.04787683

>  <minimizedRMSD>  (1) 
0.704500079

$$$$
