
     RDKit          3D

 23 24  0  0  1  0  0  0  0  0999 V2000
   39.8370   22.8890   37.5940 C   0  0  0  0  0  0  0  0  0  0  0  0
   38.9950   23.2450   38.6620 C   0  0  0  0  0  0  0  0  0  0  0  0
   37.8860   24.0730   38.3760 C   0  0  0  0  0  0  0  0  0  0  0  0
   37.6910   24.4830   37.0700 N   0  0  0  0  0  0  0  0  0  0  0  0
   38.5190   24.1170   36.0870 C   0  0  0  0  0  0  0  0  0  0  0  0
   39.5820   23.3280   36.3400 N   0  0  0  0  0  0  0  0  0  0  0  0
   38.2180   24.6850   34.4220 S   0  0  0  0  0  0  0  0  0  0  0  0
   38.3940   26.9550   32.9310 N   0  0  0  0  0  0  0  0  0  0  0  0
   37.1980   27.6230   33.3430 C   0  0  0  0  0  0  0  0  0  0  0  0
   37.1050   27.5430   34.8510 C   0  0  0  0  0  0  0  0  0  0  0  0
   38.5420   27.2270   35.2190 C   0  0  0  0  0  0  0  0  0  0  0  0
   38.9440   26.2890   34.0980 C   0  0  1  0  0  0  0  0  0  0  0  0
   40.7112   22.2476   37.7796 H   0  0  0  0  0  0  0  0  0  0  0  0
   39.1925   22.8914   39.6847 H   0  0  0  0  0  0  0  0  0  0  0  0
   37.1946   24.3838   39.1731 H   0  0  0  0  0  0  0  0  0  0  0  0
   38.1764   26.2624   32.2004 H   0  0  0  0  0  0  0  0  0  0  0  0
   37.2327   28.6763   33.0278 H   0  0  0  0  0  0  0  0  0  0  0  0
   36.3198   27.1462   32.8832 H   0  0  0  0  0  0  0  0  0  0  0  0
   36.7785   28.4992   35.2859 H   0  0  0  0  0  0  0  0  0  0  0  0
   36.3730   26.8093   35.2197 H   0  0  0  0  0  0  0  0  0  0  0  0
   39.1636   28.1345   35.2255 H   0  0  0  0  0  0  0  0  0  0  0  0
   38.6628   26.7996   36.2254 H   0  0  0  0  0  0  0  0  0  0  0  0
   40.0215   26.1027   33.9782 H   0  0  0  0  0  0  0  0  0  0  0  0
  1  2  2  0
  3  2  1  0
  4  3  2  0
  5  6  2  0
  5  4  1  0
  6  1  1  0
  7  5  1  0
  8  9  1  0
  8 12  1  0
  9 10  1  0
 10 11  1  0
 12  7  1  0
 12 11  1  0
  1 13  1  0
  2 14  1  0
  3 15  1  0
  8 16  1  0
  9 17  1  0
  9 18  1  0
 10 19  1  0
 10 20  1  0
 11 21  1  0
 11 22  1  0
 12 23  1  6
M  ISO  8  13  14  14  14  15  14  16   5  17  13  18  13  19  13  20  13
M  ISO  3  21  13  22  13  23  13
M  END
>  <minimizedAffinity>  (1) 
-3.76680899

>  <minimizedRMSD>  (1) 
2.91927981

$$$$
