
     RDKit          3D

 24 25  0  0  0  0  0  0  0  0999 V2000
   37.7700   26.0820   35.1220 S   0  0  0  0  0  0  0  0  0  0  0  0
   39.4940   22.9390   36.8490 C   0  0  0  0  0  0  0  0  0  0  0  0
   39.1010   23.0070   38.1880 C   0  0  0  0  0  0  0  0  0  0  0  0
   38.2710   24.0650   38.5720 C   0  0  0  0  0  0  0  0  0  0  0  0
   37.8850   24.9830   37.6140 N   0  0  0  0  0  0  0  0  0  0  0  0
   38.2890   24.8820   36.3220 C   0  0  0  0  0  0  0  0  0  0  0  0
   39.0800   23.8710   35.9610 N   0  0  0  0  0  0  0  0  0  0  0  0
   41.3830   27.3560   32.6720 C   0  0  0  0  0  0  0  0  0  0  0  0
   41.4410   27.1430   34.0240 C   0  0  0  0  0  0  0  0  0  0  0  0
   40.2910   26.7520   34.7160 C   0  0  0  0  0  0  0  0  0  0  0  0
   39.0880   26.5810   34.0250 C   0  0  0  0  0  0  0  0  0  0  0  0
   39.0330   26.7970   32.6640 C   0  0  0  0  0  0  0  0  0  0  0  0
   40.1760   27.1820   31.9980 C   0  0  0  0  0  0  0  0  0  0  0  0
   42.8220   27.8480   31.7910 S   0  0  0  0  0  0  0  0  0  0  0  0
   42.7480   29.2580   31.3260 O   0  0  0  0  0  0  0  0  0  0  0  0
   44.0190   27.6270   32.6830 O   0  0  0  0  0  0  0  0  0  0  0  0
   40.1465   22.1193   36.5139 H   0  0  0  0  0  0  0  0  0  0  0  0
   39.4336   22.2529   38.9165 H   0  0  0  0  0  0  0  0  0  0  0  0
   37.9328   24.1643   39.6140 H   0  0  0  0  0  0  0  0  0  0  0  0
   42.3898   27.2793   34.5636 H   0  0  0  0  0  0  0  0  0  0  0  0
   40.3327   26.5793   35.8016 H   0  0  0  0  0  0  0  0  0  0  0  0
   38.0881   26.6635   32.1169 H   0  0  0  0  0  0  0  0  0  0  0  0
   40.1349   27.3555   30.9125 H   0  0  0  0  0  0  0  0  0  0  0  0
   42.9317   27.0881   30.6564 H   0  0  0  0  0  0  0  0  0  0  0  0
  1  6  1  0
  2  3  2  0
  3  4  1  0
  5  4  2  0
  6  5  1  0
  7  6  2  0
  7  2  1  0
  8  9  2  0
  9 10  1  0
 11 10  2  0
 11  1  1  0
 12 11  1  0
 13 12  2  0
 13  8  1  0
 14  8  1  0
 14 16  2  0
 15 14  2  0
  2 17  1  0
  3 18  1  0
  4 19  1  0
  9 20  1  0
 10 21  1  0
 12 22  1  0
 13 23  1  0
 14 24  1  0
M  ISO  8  17  14  18  14  19  14  20  14  21  14  22  14  23  14  24  11
M  END
>  <minimizedAffinity>  (1) 
-3.93883562

>  <minimizedRMSD>  (1) 
1.71198297

$$$$
