
     RDKit          3D

 14 14  0  0  0  0  0  0  0  0999 V2000
   39.7120   22.8560   37.6260 C   0  0  0  0  0  0  0  0  0  0  0  0
   38.8350   23.2260   38.6450 C   0  0  0  0  0  0  0  0  0  0  0  0
   37.9410   24.2720   38.3930 C   0  0  0  0  0  0  0  0  0  0  0  0
   37.9870   24.8650   37.1550 N   0  0  0  0  0  0  0  0  0  0  0  0
   38.8530   24.4780   36.1890 C   0  0  0  0  0  0  0  0  0  0  0  0
   39.7070   23.4730   36.4410 N   0  0  0  0  0  0  0  0  0  0  0  0
   38.8770   25.2730   34.5990 S   0  0  0  0  0  0  0  0  0  0  0  0
   39.6740   26.9050   34.6430 C   0  0  0  0  0  0  0  0  0  0  0  0
   39.6450   27.5020   33.4140 F   0  0  0  0  0  0  0  0  0  0  0  0
   38.9370   27.6570   35.5600 F   0  0  0  0  0  0  0  0  0  0  0  0
   40.9580   26.7050   35.1260 F   0  0  0  0  0  0  0  0  0  0  0  0
   40.4247   22.0368   37.8020 H   0  0  0  0  0  0  0  0  0  0  0  0
   38.8458   22.7112   39.6171 H   0  0  0  0  0  0  0  0  0  0  0  0
   37.2266   24.6077   39.1591 H   0  0  0  0  0  0  0  0  0  0  0  0
  1  2  2  0
  3  2  1  0
  4  3  2  0
  5  6  2  0
  5  4  1  0
  6  1  1  0
  7  8  1  0
  7  5  1  0
  8 11  1  0
  8 10  1  0
  9  8  1  0
  1 12  1  0
  2 13  1  0
  3 14  1  0
M  ISO  3  12  14  13  14  14  14
M  END
>  <minimizedAffinity>  (1) 
-3.69109321

>  <minimizedRMSD>  (1) 
3.3119936

$$$$
