
     RDKit          3D

 21 22  0  0  0  0  0  0  0  0999 V2000
   39.7780   22.7510   37.7820 C   0  0  0  0  0  0  0  0  0  0  0  0
   38.7890   23.3990   38.5220 C   0  0  0  0  0  0  0  0  0  0  0  0
   37.7400   23.9990   37.8200 C   0  0  0  0  0  0  0  0  0  0  0  0
   37.7320   23.9240   36.4570 N   0  0  0  0  0  0  0  0  0  0  0  0
   38.7020   23.2910   35.7660 C   0  0  0  0  0  0  0  0  0  0  0  0
   39.7120   22.7140   36.4520 N   0  0  0  0  0  0  0  0  0  0  0  0
   38.6800   23.1990   33.9870 S   0  0  0  0  0  0  0  0  0  0  0  0
   37.2450   22.2560   33.4460 C   0  0  0  0  0  0  0  0  0  0  0  0
   36.6880   21.2440   34.1850 C   0  0  0  0  0  0  0  0  0  0  0  0
   35.5910   20.5220   33.7750 C   0  0  0  0  0  0  0  0  0  0  0  0
   35.0000   20.8170   32.5490 C   0  0  0  0  0  0  0  0  0  0  0  0
   35.5700   21.8430   31.8070 C   0  0  0  0  0  0  0  0  0  0  0  0
   36.6600   22.5540   32.2260 C   0  0  0  0  0  0  0  0  0  0  0  0
   40.6187   22.2669   38.3005 H   0  0  0  0  0  0  0  0  0  0  0  0
   38.8332   23.4365   39.6205 H   0  0  0  0  0  0  0  0  0  0  0  0
   36.9349   24.5225   38.3564 H   0  0  0  0  0  0  0  0  0  0  0  0
   37.1419   20.9967   35.1560 H   0  0  0  0  0  0  0  0  0  0  0  0
   35.1849   19.7200   34.4090 H   0  0  0  0  0  0  0  0  0  0  0  0
   34.1222   20.2628   32.1852 H   0  0  0  0  0  0  0  0  0  0  0  0
   35.1227   22.0961   30.8345 H   0  0  0  0  0  0  0  0  0  0  0  0
   37.0703   23.3584   31.5978 H   0  0  0  0  0  0  0  0  0  0  0  0
  1  2  2  0
  3  2  1  0
  4  3  2  0
  5  6  2  0
  5  4  1  0
  6  1  1  0
  7  5  1  0
  8  7  1  0
  8  9  2  0
 10  9  1  0
 11 10  2  0
 12 13  2  0
 12 11  1  0
 13  8  1  0
  1 14  1  0
  2 15  1  0
  3 16  1  0
  9 17  1  0
 10 18  1  0
 11 19  1  0
 12 20  1  0
 13 21  1  0
M  ISO  8  14  14  15  14  16  14  17  14  18  14  19  14  20  14  21  14
M  END
>  <minimizedAffinity>  (1) 
-4.19123936

>  <minimizedRMSD>  (1) 
3.55509233

$$$$
