
     RDKit          3D

 18 19  0  0  0  0  0  0  0  0999 V2000
   39.7780   22.8260   37.7810 C   0  0  0  0  0  0  0  0  0  0  0  0
   38.9040   23.3470   38.7390 C   0  0  0  0  0  0  0  0  0  0  0  0
   37.8830   24.2050   38.3090 C   0  0  0  0  0  0  0  0  0  0  0  0
   37.7880   24.4970   36.9610 N   0  0  0  0  0  0  0  0  0  0  0  0
   38.6500   23.9720   36.0720 C   0  0  0  0  0  0  0  0  0  0  0  0
   39.6240   23.1530   36.4880 N   0  0  0  0  0  0  0  0  0  0  0  0
   38.5190   24.3550   34.3370 S   0  0  0  0  0  0  0  0  0  0  0  0
   39.4610   25.8210   33.8890 C   0  0  0  0  0  0  0  0  0  0  0  0
   38.7090   27.1240   34.1200 C   0  0  0  0  0  0  0  0  0  0  0  0
   39.8650   26.7400   34.9740 C   0  0  0  0  0  0  0  0  0  0  0  0
   40.5902   22.1496   38.0856 H   0  0  0  0  0  0  0  0  0  0  0  0
   39.0147   23.0902   39.8029 H   0  0  0  0  0  0  0  0  0  0  0  0
   37.1721   24.6371   39.0287 H   0  0  0  0  0  0  0  0  0  0  0  0
   40.0031   25.3381   33.0626 H   0  0  0  0  0  0  0  0  0  0  0  0
   38.8027   27.9517   33.4016 H   0  0  0  0  0  0  0  0  0  0  0  0
   37.6602   27.4037   34.2985 H   0  0  0  0  0  0  0  0  0  0  0  0
   39.6966   26.4530   36.0224 H   0  0  0  0  0  0  0  0  0  0  0  0
   40.8095   27.2302   35.2526 H   0  0  0  0  0  0  0  0  0  0  0  0
  1  2  2  0
  3  2  1  0
  4  3  2  0
  5  6  2  0
  5  4  1  0
  6  1  1  0
  7  5  1  0
  8  9  1  0
  8  7  1  0
  8 10  1  0
  9 10  1  0
  1 11  1  0
  2 12  1  0
  3 13  1  0
  8 14  1  0
  9 15  1  0
  9 16  1  0
 10 17  1  0
 10 18  1  0
M  ISO  8  11  14  12  14  13  14  14  13  15  13  16  13  17  13  18  13
M  END
>  <minimizedAffinity>  (1) 
-3.24482584

>  <minimizedRMSD>  (1) 
2.17372727

$$$$
