
     RDKit          3D

 35 38  0  0  0  0  0  0  0  0999 V2000
   37.3860   22.2610   33.3580 C   0  0  0  0  0  0  0  0  0  0  0  0
   36.7570   21.2000   33.9330 C   0  0  0  0  0  0  0  0  0  0  0  0
   35.5800   20.6990   33.4490 C   0  0  0  0  0  0  0  0  0  0  0  0
   34.9750   21.2580   32.3390 C   0  0  0  0  0  0  0  0  0  0  0  0
   35.6290   22.3360   31.7670 C   0  0  0  0  0  0  0  0  0  0  0  0
   36.7980   22.8310   32.2520 C   0  0  0  0  0  0  0  0  0  0  0  0
   37.3530   23.9690   31.5320 C   0  0  0  0  0  0  0  0  0  0  0  0
   38.0160   23.7510   30.3500 C   0  0  0  0  0  0  0  0  0  0  0  0
   38.4160   24.9650   29.9120 N   0  0  0  0  0  0  0  0  0  0  0  0
   38.0490   25.9320   30.7410 C   0  0  0  0  0  0  0  0  0  0  0  0
   38.2010   27.3160   30.7630 C   0  0  0  0  0  0  0  0  0  0  0  0
   37.6690   28.0490   31.8260 C   0  0  0  0  0  0  0  0  0  0  0  0
   37.0080   27.3810   32.8250 C   0  0  0  0  0  0  0  0  0  0  0  0
   36.8290   25.9960   32.8480 C   0  0  0  0  0  0  0  0  0  0  0  0
   37.3640   25.3250   31.7920 C   0  0  0  0  0  0  0  0  0  0  0  0
   38.9400   22.9570   33.9630 S   0  0  0  0  0  0  0  0  0  0  0  0
   39.7920   22.7790   37.8530 C   0  0  0  0  0  0  0  0  0  0  0  0
   38.7260   23.4340   38.4820 C   0  0  0  0  0  0  0  0  0  0  0  0
   37.7150   23.9450   37.6790 C   0  0  0  0  0  0  0  0  0  0  0  0
   37.8080   23.7850   36.3220 N   0  0  0  0  0  0  0  0  0  0  0  0
   38.8390   23.1540   35.7370 C   0  0  0  0  0  0  0  0  0  0  0  0
   39.8150   22.6610   36.5280 N   0  0  0  0  0  0  0  0  0  0  0  0
   37.2108   20.7291   34.8175 H   0  0  0  0  0  0  0  0  0  0  0  0
   35.1088   19.8402   33.9495 H   0  0  0  0  0  0  0  0  0  0  0  0
   34.0292   20.8691   31.9338 H   0  0  0  0  0  0  0  0  0  0  0  0
   35.1830   22.8125   30.8815 H   0  0  0  0  0  0  0  0  0  0  0  0
   38.1873   22.7822   29.8580 H   0  0  0  0  0  0  0  0  0  0  0  0
   38.9420   25.1201   29.0401 H   0  0  0  0  0  0  0  0  0  0  0  0
   38.7359   27.8279   29.9495 H   0  0  0  0  0  0  0  0  0  0  0  0
   37.7782   29.1430   31.8615 H   0  0  0  0  0  0  0  0  0  0  0  0
   36.5947   27.9705   33.6567 H   0  0  0  0  0  0  0  0  0  0  0  0
   36.2939   25.4843   33.6615 H   0  0  0  0  0  0  0  0  0  0  0  0
   40.6120   22.3612   38.4556 H   0  0  0  0  0  0  0  0  0  0  0  0
   38.6907   23.5402   39.5763 H   0  0  0  0  0  0  0  0  0  0  0  0
   36.8559   24.4682   38.1242 H   0  0  0  0  0  0  0  0  0  0  0  0
  1  2  2  0
  1 16  1  0
  3  2  1  0
  4  3  2  0
  5  6  2  0
  5  4  1  0
  6  1  1  0
  7 15  1  0
  7  6  1  0
  8  7  2  0
  9  8  1  0
  9 10  1  0
 10 11  2  0
 10 15  1  0
 11 12  1  0
 12 13  2  0
 13 14  1  0
 15 14  2  0
 16 21  1  0
 17 18  2  0
 19 18  1  0
 20 19  2  0
 21 20  1  0
 21 22  2  0
 22 17  1  0
  2 23  1  0
  3 24  1  0
  4 25  1  0
  5 26  1  0
  8 27  1  0
  9 28  1  0
 11 29  1  0
 12 30  1  0
 13 31  1  0
 14 32  1  0
 17 33  1  0
 18 34  1  0
 19 35  1  0
M  ISO  8  23  14  24  14  25  14  26  14  27  14  28   9  29  14  30  14
M  ISO  5  31  14  32  14  33  14  34  14  35  14
M  END
>  <minimizedAffinity>  (1) 
-6.01371527

>  <minimizedRMSD>  (1) 
1.26321816

$$$$
