
     RDKit          3D

 35 38  0  0  0  0  0  0  0  0999 V2000
   37.4360   22.2090   33.2100 C   0  0  0  0  0  0  0  0  0  0  0  0
   36.6910   21.2490   33.8300 C   0  0  0  0  0  0  0  0  0  0  0  0
   35.4850   20.7860   33.3870 C   0  0  0  0  0  0  0  0  0  0  0  0
   34.9480   21.3190   32.2070 C   0  0  0  0  0  0  0  0  0  0  0  0
   35.7000   22.2920   31.5760 C   0  0  0  0  0  0  0  0  0  0  0  0
   36.9100   22.7350   32.0480 C   0  0  0  0  0  0  0  0  0  0  0  0
   37.6520   23.7700   31.3430 C   0  0  0  0  0  0  0  0  0  0  0  0
   38.4380   23.3230   30.3250 N   0  0  0  0  0  0  0  0  0  0  0  0
   39.1880   24.1880   29.5810 C   0  0  0  0  0  0  0  0  0  0  0  0
   39.1640   25.5190   29.8460 N   0  0  0  0  0  0  0  0  0  0  0  0
   38.4040   26.0110   30.8410 C   0  0  0  0  0  0  0  0  0  0  0  0
   38.3100   27.3280   31.1830 C   0  0  0  0  0  0  0  0  0  0  0  0
   37.5320   27.8030   32.1930 C   0  0  0  0  0  0  0  0  0  0  0  0
   36.7850   26.8890   32.9230 C   0  0  0  0  0  0  0  0  0  0  0  0
   36.8450   25.5480   32.6180 C   0  0  0  0  0  0  0  0  0  0  0  0
   37.6530   25.1260   31.5820 C   0  0  0  0  0  0  0  0  0  0  0  0
   39.0150   22.7870   33.8300 S   0  0  0  0  0  0  0  0  0  0  0  0
   39.8540   22.7080   37.7230 C   0  0  0  0  0  0  0  0  0  0  0  0
   38.8240   23.4090   38.3270 C   0  0  0  0  0  0  0  0  0  0  0  0
   37.8180   23.9360   37.5030 C   0  0  0  0  0  0  0  0  0  0  0  0
   37.8950   23.7370   36.1550 N   0  0  0  0  0  0  0  0  0  0  0  0
   38.9070   23.0530   35.5980 C   0  0  0  0  0  0  0  0  0  0  0  0
   39.8710   22.5490   36.4000 N   0  0  0  0  0  0  0  0  0  0  0  0
   37.0923   20.8147   34.7575 H   0  0  0  0  0  0  0  0  0  0  0  0
   34.9444   20.0083   33.9464 H   0  0  0  0  0  0  0  0  0  0  0  0
   33.9812   20.9814   31.8053 H   0  0  0  0  0  0  0  0  0  0  0  0
   35.3085   22.7339   30.6479 H   0  0  0  0  0  0  0  0  0  0  0  0
   39.8149   23.8042   28.7626 H   0  0  0  0  0  0  0  0  0  0  0  0
   38.9015   28.0531   30.6048 H   0  0  0  0  0  0  0  0  0  0  0  0
   37.4961   28.8779   32.4238 H   0  0  0  0  0  0  0  0  0  0  0  0
   36.1440   27.2367   33.7466 H   0  0  0  0  0  0  0  0  0  0  0  0
   36.2549   24.8202   33.1942 H   0  0  0  0  0  0  0  0  0  0  0  0
   40.6607   22.2811   38.3370 H   0  0  0  0  0  0  0  0  0  0  0  0
   38.7953   23.5483   39.4178 H   0  0  0  0  0  0  0  0  0  0  0  0
   36.9799   24.5010   37.9369 H   0  0  0  0  0  0  0  0  0  0  0  0
  1 17  1  0
  1  2  2  0
  3  2  1  0
  4  3  2  0
  5  6  2  0
  5  4  1  0
  6  1  1  0
  7 16  1  0
  7  6  1  0
  8  7  2  0
  9 10  2  0
  9  8  1  0
 10 11  1  0
 11 12  1  0
 11 16  2  0
 12 13  2  0
 13 14  1  0
 15 14  2  0
 16 15  1  0
 17 22  1  0
 18 19  2  0
 20 19  1  0
 21 20  2  0
 22 21  1  0
 22 23  2  0
 23 18  1  0
  2 24  1  0
  3 25  1  0
  4 26  1  0
  5 27  1  0
  9 28  1  0
 12 29  1  0
 13 30  1  0
 14 31  1  0
 15 32  1  0
 18 33  1  0
 19 34  1  0
 20 35  1  0
M  ISO  8  24  14  25  14  26  14  27  14  28  14  29  14  30  14  31  14
M  ISO  4  32  14  33  14  34  14  35  14
M  END
>  <minimizedAffinity>  (1) 
-5.82762432

>  <minimizedRMSD>  (1) 
0.73435688

$$$$
