
     RDKit          3D

 34 36  0  0  0  0  0  0  0  0999 V2000
   37.4370   22.6950   33.2690 C   0  0  0  0  0  0  0  0  0  0  0  0
   37.0650   21.4400   33.6560 C   0  0  0  0  0  0  0  0  0  0  0  0
   35.9670   20.7790   33.1360 C   0  0  0  0  0  0  0  0  0  0  0  0
   35.1890   21.4070   32.1680 C   0  0  0  0  0  0  0  0  0  0  0  0
   35.5880   22.6770   31.7950 C   0  0  0  0  0  0  0  0  0  0  0  0
   36.6710   23.3310   32.3080 C   0  0  0  0  0  0  0  0  0  0  0  0
   37.0210   24.6380   31.8750 N   0  0  0  0  0  0  0  0  0  0  0  0
   36.7200   25.8340   32.4070 C   0  0  0  0  0  0  0  0  0  0  0  0
   37.1800   26.9790   31.7970 C   0  0  0  0  0  0  0  0  0  0  0  0
   36.8190   28.2750   32.4280 C   0  0  0  0  0  0  0  0  0  0  0  0
   37.9480   26.9300   30.6460 C   0  0  0  0  0  0  0  0  0  0  0  0
   38.3540   28.0010   30.1120 O   0  0  0  0  0  0  0  0  0  0  0  0
   38.2270   25.7100   30.1440 N   0  0  0  0  0  0  0  0  0  0  0  0
   37.7760   24.5840   30.7410 C   0  0  0  0  0  0  0  0  0  0  0  0
   38.1370   23.5370   30.1300 O   0  0  0  0  0  0  0  0  0  0  0  0
   38.8680   23.5600   33.9460 S   0  0  0  0  0  0  0  0  0  0  0  0
   39.7550   22.7900   37.7420 C   0  0  0  0  0  0  0  0  0  0  0  0
   38.7520   23.3910   38.4870 C   0  0  0  0  0  0  0  0  0  0  0  0
   37.7580   24.0620   37.7880 C   0  0  0  0  0  0  0  0  0  0  0  0
   37.7970   24.1110   36.4240 N   0  0  0  0  0  0  0  0  0  0  0  0
   38.7950   23.5110   35.7350 C   0  0  0  0  0  0  0  0  0  0  0  0
   39.7580   22.8590   36.4210 N   0  0  0  0  0  0  0  0  0  0  0  0
   37.6689   20.9285   34.4200 H   0  0  0  0  0  0  0  0  0  0  0  0
   35.7113   19.7673   33.4840 H   0  0  0  0  0  0  0  0  0  0  0  0
   34.3073   20.9208   31.7251 H   0  0  0  0  0  0  0  0  0  0  0  0
   34.9910   23.1970   31.0313 H   0  0  0  0  0  0  0  0  0  0  0  0
   36.1118   25.8979   33.3213 H   0  0  0  0  0  0  0  0  0  0  0  0
   36.8481   28.1705   33.5226 H   0  0  0  0  0  0  0  0  0  0  0  0
   37.5360   29.0479   32.1142 H   0  0  0  0  0  0  0  0  0  0  0  0
   35.8056   28.5659   32.1142 H   0  0  0  0  0  0  0  0  0  0  0  0
   38.7953   25.6344   29.2883 H   0  0  0  0  0  0  0  0  0  0  0  0
   40.5610   22.2472   38.2575 H   0  0  0  0  0  0  0  0  0  0  0  0
   38.7442   23.3383   39.5857 H   0  0  0  0  0  0  0  0  0  0  0  0
   36.9390   24.5542   38.3329 H   0  0  0  0  0  0  0  0  0  0  0  0
  1  2  2  0
  1 16  1  0
  3  2  1  0
  4  3  2  0
  5  4  1  0
  5  6  2  0
  6  1  1  0
  7  6  1  0
  7  8  1  0
  9  8  2  0
  9 10  1  0
 11  9  1  0
 12 11  2  0
 13 11  1  0
 13 14  1  0
 14  7  1  0
 15 14  2  0
 16 21  1  0
 17 18  2  0
 19 18  1  0
 20 19  2  0
 21 22  2  0
 21 20  1  0
 22 17  1  0
  2 23  1  0
  3 24  1  0
  4 25  1  0
  5 26  1  0
  8 27  1  0
 10 28  1  0
 10 29  1  0
 10 30  1  0
 13 31  1  0
 17 32  1  0
 18 33  1  0
 19 34  1  0
M  ISO  8  23  14  24  14  25  14  26  14  27  14  28   8  29   8  30   8
M  ISO  4  31   9  32  14  33  14  34  14
M  END
>  <minimizedAffinity>  (1) 
-5.77408361

>  <minimizedRMSD>  (1) 
1.38804924

$$$$
