
     RDKit          3D

 42 44  0  0  1  0  0  0  0  0999 V2000
   37.8520   22.6660   32.9040 C   0  0  1  0  0  0  0  0  0  0  0  0
   39.1860   22.4810   32.2340 C   0  0  0  0  0  0  0  0  0  0  0  0
   39.5370   21.0540   32.5490 C   0  0  0  0  0  0  0  0  0  0  0  0
   38.2230   20.3350   32.3990 C   0  0  0  0  0  0  0  0  0  0  0  0
   37.1830   21.3320   32.7520 C   0  0  2  0  0  0  0  0  0  0  0  0
   38.2100   24.3050   34.7380 C   0  0  0  0  0  0  0  0  0  0  0  0
   38.3190   24.3260   36.1190 C   0  0  0  0  0  0  0  0  0  0  0  0
   38.1750   23.0250   36.4960 N   0  0  0  0  0  0  0  0  0  0  0  0
   37.9950   22.3090   35.3730 C   0  0  0  0  0  0  0  0  0  0  0  0
   38.0100   23.0630   34.2720 N   0  0  0  0  0  0  0  0  0  0  0  0
   38.2980   25.4750   33.8560 C   0  0  0  0  0  0  0  0  0  0  0  0
   37.1380   26.1490   33.4540 C   0  0  0  0  0  0  0  0  0  0  0  0
   37.3230   27.2650   32.6040 C   0  0  0  0  0  0  0  0  0  0  0  0
   38.5610   27.6160   32.2350 N   0  0  0  0  0  0  0  0  0  0  0  0
   39.6480   26.9420   32.6430 C   0  0  0  0  0  0  0  0  0  0  0  0
   39.5420   25.8660   33.4560 N   0  0  0  0  0  0  0  0  0  0  0  0
   36.0500   21.3420   31.7660 C   0  0  0  0  0  0  0  0  0  0  0  0
   35.6750   22.6890   31.2440 C   0  0  0  0  0  0  0  0  0  0  0  0
   34.8130   20.7140   32.4210 C   0  0  0  0  0  0  0  0  0  0  0  0
   36.3580   20.4560   30.5770 C   0  0  0  0  0  0  0  0  0  0  0  0
   37.2490   23.4705   32.4578 H   0  0  0  0  0  0  0  0  0  0  0  0
   39.9346   23.1717   32.6494 H   0  0  0  0  0  0  0  0  0  0  0  0
   39.1575   22.6887   31.1542 H   0  0  0  0  0  0  0  0  0  0  0  0
   40.2824   20.6654   31.8396 H   0  0  0  0  0  0  0  0  0  0  0  0
   39.9850   20.9301   33.5460 H   0  0  0  0  0  0  0  0  0  0  0  0
   38.0894   19.9905   31.3629 H   0  0  0  0  0  0  0  0  0  0  0  0
   38.1695   19.4443   33.0423 H   0  0  0  0  0  0  0  0  0  0  0  0
   36.7097   21.0623   33.7077 H   0  0  0  0  0  0  0  0  0  0  0  0
   38.4850   25.1992   36.7670 H   0  0  0  0  0  0  0  0  0  0  0  0
   37.8508   21.2185   35.3625 H   0  0  0  0  0  0  0  0  0  0  0  0
   36.1379   25.8284   33.7811 H   0  0  0  0  0  0  0  0  0  0  0  0
   36.4553   27.8403   32.2488 H   0  0  0  0  0  0  0  0  0  0  0  0
   40.6435   27.2708   32.3100 H   0  0  0  0  0  0  0  0  0  0  0  0
   35.4856   23.3694   32.0874 H   0  0  0  0  0  0  0  0  0  0  0  0
   36.4968   23.0861   30.6300 H   0  0  0  0  0  0  0  0  0  0  0  0
   34.7663   22.6043   30.6300 H   0  0  0  0  0  0  0  0  0  0  0  0
   34.9122   20.7643   33.5154 H   0  0  0  0  0  0  0  0  0  0  0  0
   33.9134   21.2645   32.1086 H   0  0  0  0  0  0  0  0  0  0  0  0
   34.7265   19.6628   32.1086 H   0  0  0  0  0  0  0  0  0  0  0  0
   36.6999   19.4724   30.9315 H   0  0  0  0  0  0  0  0  0  0  0  0
   35.4505   20.3311   29.9680 H   0  0  0  0  0  0  0  0  0  0  0  0
   37.1472   20.9209   29.9680 H   0  0  0  0  0  0  0  0  0  0  0  0
  1 10  1  0
  2  3  1  0
  2  1  1  0
  4  3  1  0
  4  5  1  0
  5  1  1  0
  6  7  2  0
  7  8  1  0
  9  8  2  0
 10  6  1  0
 10  9  1  0
 11  6  1  0
 12 11  2  0
 13 12  1  0
 14 13  2  0
 14 15  1  0
 15 16  2  0
 16 11  1  0
 17 19  1  0
 17  5  1  0
 18 17  1  0
 20 17  1  0
  1 21  1  6
  2 22  1  0
  2 23  1  0
  3 24  1  0
  3 25  1  0
  4 26  1  0
  4 27  1  0
  5 28  1  1
  7 29  1  0
  9 30  1  0
 12 31  1  0
 13 32  1  0
 15 33  1  0
 18 34  1  0
 18 35  1  0
 18 36  1  0
 19 37  1  0
 19 38  1  0
 19 39  1  0
 20 40  1  0
 20 41  1  0
 20 42  1  0
M  ISO  8  21  13  22  13  23  13  24  13  25  13  26  13  27  13  28  13
M  ISO  8  29  14  30  14  31  14  32  14  33  14  34   8  35   8  36   8
M  ISO  6  37   8  38   8  39   8  40   8  41   8  42   8
M  END
>  <minimizedAffinity>  (1) 
-4.36440277

>  <minimizedRMSD>  (1) 
4.97659206

$$$$
