
     RDKit          3D

 30 32  0  0  0  0  0  0  0  0999 V2000
   37.5920   23.0920   33.1430 C   0  0  0  0  0  0  0  0  0  0  0  0
   37.2710   21.7730   33.3640 C   0  0  0  0  0  0  0  0  0  0  0  0
   36.2060   21.1410   32.7550 C   0  0  0  0  0  0  0  0  0  0  0  0
   35.4060   21.8460   31.8750 C   0  0  0  0  0  0  0  0  0  0  0  0
   35.7380   23.1680   31.6630 C   0  0  0  0  0  0  0  0  0  0  0  0
   36.7840   23.8010   32.2560 C   0  0  0  0  0  0  0  0  0  0  0  0
   37.1390   25.1990   32.0320 C   0  0  0  0  0  0  0  0  0  0  0  0
   37.8550   25.6340   30.9420 C   0  0  0  0  0  0  0  0  0  0  0  0
   38.2060   26.9460   30.7010 C   0  0  0  0  0  0  0  0  0  0  0  0
   37.8290   27.9070   31.5980 C   0  0  0  0  0  0  0  0  0  0  0  0
   37.1110   27.4790   32.6950 C   0  0  0  0  0  0  0  0  0  0  0  0
   36.7960   26.1930   32.8790 N   0  0  0  0  0  0  0  0  0  0  0  0
   38.9850   23.9080   33.9410 S   0  0  0  0  0  0  0  0  0  0  0  0
   39.7820   22.8140   37.6680 C   0  0  0  0  0  0  0  0  0  0  0  0
   38.7570   23.3690   38.4340 C   0  0  0  0  0  0  0  0  0  0  0  0
   37.7790   24.1160   37.7650 C   0  0  0  0  0  0  0  0  0  0  0  0
   37.8700   24.2630   36.4100 N   0  0  0  0  0  0  0  0  0  0  0  0
   38.8770   23.7090   35.6990 C   0  0  0  0  0  0  0  0  0  0  0  0
   39.8070   22.9980   36.3530 N   0  0  0  0  0  0  0  0  0  0  0  0
   37.8941   21.1931   34.0607 H   0  0  0  0  0  0  0  0  0  0  0  0
   35.9949   20.0828   32.9684 H   0  0  0  0  0  0  0  0  0  0  0  0
   34.5488   21.3769   31.3699 H   0  0  0  0  0  0  0  0  0  0  0  0
   35.1143   23.7486   30.9674 H   0  0  0  0  0  0  0  0  0  0  0  0
   38.1717   24.8793   30.2071 H   0  0  0  0  0  0  0  0  0  0  0  0
   38.7798   27.2149   29.8019 H   0  0  0  0  0  0  0  0  0  0  0  0
   38.0852   28.9667   31.4521 H   0  0  0  0  0  0  0  0  0  0  0  0
   36.7875   28.2190   33.4418 H   0  0  0  0  0  0  0  0  0  0  0  0
   40.5716   22.2224   38.1543 H   0  0  0  0  0  0  0  0  0  0  0  0
   38.7181   23.2253   39.5239 H   0  0  0  0  0  0  0  0  0  0  0  0
   36.9503   24.5772   38.3223 H   0  0  0  0  0  0  0  0  0  0  0  0
  1  2  2  0
  1 13  1  0
  3  2  1  0
  4  3  2  0
  5  4  1  0
  5  6  2  0
  6  1  1  0
  7  6  1  0
  7 12  1  0
  8  7  2  0
  9  8  1  0
  9 10  2  0
 10 11  1  0
 11 12  2  0
 13 18  1  0
 14 15  2  0
 16 15  1  0
 17 16  2  0
 18 19  2  0
 18 17  1  0
 19 14  1  0
  2 20  1  0
  3 21  1  0
  4 22  1  0
  5 23  1  0
  8 24  1  0
  9 25  1  0
 10 26  1  0
 11 27  1  0
 14 28  1  0
 15 29  1  0
 16 30  1  0
M  ISO  8  20  14  21  14  22  14  23  14  24  14  25  14  26  14  27  14
M  ISO  3  28  14  29  14  30  14
M  END
>  <minimizedAffinity>  (1) 
-5.03073025

>  <minimizedRMSD>  (1) 
1.69726276

$$$$
