
     RDKit          3D

 28 30  0  0  0  0  0  0  0  0999 V2000
   37.3770   22.3720   33.3970 C   0  0  0  0  0  0  0  0  0  0  0  0
   36.8180   21.2460   33.9690 C   0  0  0  0  0  0  0  0  0  0  0  0
   35.6580   20.6580   33.4930 C   0  0  0  0  0  0  0  0  0  0  0  0
   35.0130   21.2040   32.3980 C   0  0  0  0  0  0  0  0  0  0  0  0
   35.5810   22.3280   31.8370 C   0  0  0  0  0  0  0  0  0  0  0  0
   36.7200   22.9030   32.3060 C   0  0  0  0  0  0  0  0  0  0  0  0
   37.2620   24.0640   31.6850 N   0  0  0  0  0  0  0  0  0  0  0  0
   38.1890   24.4030   30.7720 C   0  0  0  0  0  0  0  0  0  0  0  0
   38.1710   25.7970   30.6650 C   0  0  0  0  0  0  0  0  0  0  0  0
   37.2290   26.2800   31.5200 N   0  0  0  0  0  0  0  0  0  0  0  0
   36.6700   25.2030   32.1490 C   0  0  0  0  0  0  0  0  0  0  0  0
   38.8810   23.1360   34.0120 S   0  0  0  0  0  0  0  0  0  0  0  0
   39.7850   22.7830   37.8700 C   0  0  0  0  0  0  0  0  0  0  0  0
   38.7370   23.4280   38.5360 C   0  0  0  0  0  0  0  0  0  0  0  0
   37.7200   23.9880   37.7730 C   0  0  0  0  0  0  0  0  0  0  0  0
   37.7760   23.8930   36.4090 N   0  0  0  0  0  0  0  0  0  0  0  0
   38.8040   23.2620   35.7910 C   0  0  0  0  0  0  0  0  0  0  0  0
   39.7810   22.7240   36.5490 N   0  0  0  0  0  0  0  0  0  0  0  0
   37.3160   20.7966   34.8408 H   0  0  0  0  0  0  0  0  0  0  0  0
   35.2516   19.7611   33.9833 H   0  0  0  0  0  0  0  0  0  0  0  0
   34.0903   20.7622   31.9938 H   0  0  0  0  0  0  0  0  0  0  0  0
   35.0874   22.7827   30.9655 H   0  0  0  0  0  0  0  0  0  0  0  0
   38.8394   23.7133   30.2141 H   0  0  0  0  0  0  0  0  0  0  0  0
   38.8093   26.4003   30.0027 H   0  0  0  0  0  0  0  0  0  0  0  0
   35.8729   25.2470   32.9058 H   0  0  0  0  0  0  0  0  0  0  0  0
   40.6071   22.3278   38.4418 H   0  0  0  0  0  0  0  0  0  0  0  0
   38.7189   23.4900   39.6341 H   0  0  0  0  0  0  0  0  0  0  0  0
   36.8785   24.5024   38.2602 H   0  0  0  0  0  0  0  0  0  0  0  0
  1  2  2  0
  1 12  1  0
  3  2  1  0
  4  3  2  0
  5  6  2  0
  5  4  1  0
  6  1  1  0
  7 11  1  0
  7  6  1  0
  8  7  1  0
  9  8  2  0
  9 10  1  0
 10 11  2  0
 12 17  1  0
 13 14  2  0
 15 14  1  0
 16 15  2  0
 17 16  1  0
 17 18  2  0
 18 13  1  0
  2 19  1  0
  3 20  1  0
  4 21  1  0
  5 22  1  0
  8 23  1  0
  9 24  1  0
 11 25  1  0
 13 26  1  0
 14 27  1  0
 15 28  1  0
M  ISO  8  19  14  20  14  21  14  22  14  23  14  24  14  25  14  26  14
M  ISO  2  27  14  28  14
M  END
>  <minimizedAffinity>  (1) 
-4.80350924

>  <minimizedRMSD>  (1) 
0.48012495

$$$$
