
     RDKit          3D

 33 35  0  0  0  0  0  0  0  0999 V2000
   37.2950   22.4640   33.3660 C   0  0  0  0  0  0  0  0  0  0  0  0
   36.8290   21.3220   33.9440 C   0  0  0  0  0  0  0  0  0  0  0  0
   35.7250   20.6470   33.4800 C   0  0  0  0  0  0  0  0  0  0  0  0
   35.0280   21.1250   32.3720 C   0  0  0  0  0  0  0  0  0  0  0  0
   35.5180   22.2920   31.7930 C   0  0  0  0  0  0  0  0  0  0  0  0
   36.6240   22.9570   32.2680 C   0  0  0  0  0  0  0  0  0  0  0  0
   37.0910   24.1640   31.6310 N   0  0  0  0  0  0  0  0  0  0  0  0
   38.0070   24.2470   30.5330 C   0  0  0  0  0  0  0  0  0  0  0  0
   38.4780   25.6650   30.5350 C   0  0  0  0  0  0  0  0  0  0  0  0
   37.6890   26.4490   31.5280 C   0  0  0  0  0  0  0  0  0  0  0  0
   36.6690   25.4890   32.0440 C   0  0  0  0  0  0  0  0  0  0  0  0
   38.7400   23.3580   33.9600 S   0  0  0  0  0  0  0  0  0  0  0  0
   39.7880   22.7580   37.7560 C   0  0  0  0  0  0  0  0  0  0  0  0
   38.7850   23.3790   38.4990 C   0  0  0  0  0  0  0  0  0  0  0  0
   37.7430   24.0090   37.8020 C   0  0  0  0  0  0  0  0  0  0  0  0
   37.7610   23.9840   36.4370 N   0  0  0  0  0  0  0  0  0  0  0  0
   38.7400   23.3770   35.7520 C   0  0  0  0  0  0  0  0  0  0  0  0
   39.7450   22.7700   36.4210 N   0  0  0  0  0  0  0  0  0  0  0  0
   37.3595   20.9222   34.8208 H   0  0  0  0  0  0  0  0  0  0  0  0
   35.3912   19.7281   33.9841 H   0  0  0  0  0  0  0  0  0  0  0  0
   34.1404   20.6090   31.9772 H   0  0  0  0  0  0  0  0  0  0  0  0
   34.9966   22.7012   30.9151 H   0  0  0  0  0  0  0  0  0  0  0  0
   37.4999   24.0085   29.5865 H   0  0  0  0  0  0  0  0  0  0  0  0
   38.8383   23.5333   30.6310 H   0  0  0  0  0  0  0  0  0  0  0  0
   39.5437   25.6971   30.8057 H   0  0  0  0  0  0  0  0  0  0  0  0
   38.3412   26.0984   29.5333 H   0  0  0  0  0  0  0  0  0  0  0  0
   38.3356   26.8039   32.3441 H   0  0  0  0  0  0  0  0  0  0  0  0
   37.2304   27.3439   31.0822 H   0  0  0  0  0  0  0  0  0  0  0  0
   35.6815   25.7213   31.6186 H   0  0  0  0  0  0  0  0  0  0  0  0
   36.5866   25.5527   33.1391 H   0  0  0  0  0  0  0  0  0  0  0  0
   40.6193   22.2554   38.2720 H   0  0  0  0  0  0  0  0  0  0  0  0
   38.8098   23.3752   39.5987 H   0  0  0  0  0  0  0  0  0  0  0  0
   36.9288   24.5124   38.3438 H   0  0  0  0  0  0  0  0  0  0  0  0
  1  2  2  0
  1 12  1  0
  3  2  1  0
  4  3  2  0
  5  6  2  0
  5  4  1  0
  6  1  1  0
  7 11  1  0
  7  6  1  0
  8  9  1  0
  8  7  1  0
  9 10  1  0
 10 11  1  0
 12 17  1  0
 13 14  2  0
 15 14  1  0
 16 15  2  0
 17 18  2  0
 17 16  1  0
 18 13  1  0
  2 19  1  0
  3 20  1  0
  4 21  1  0
  5 22  1  0
  8 23  1  0
  8 24  1  0
  9 25  1  0
  9 26  1  0
 10 27  1  0
 10 28  1  0
 11 29  1  0
 11 30  1  0
 13 31  1  0
 14 32  1  0
 15 33  1  0
M  ISO  8  19  14  20  14  21  14  22  14  23  13  24  13  25  13  26  13
M  ISO  7  27  13  28  13  29  13  30  13  31  14  32  14  33  14
M  END
>  <minimizedAffinity>  (1) 
-4.86849594

>  <minimizedRMSD>  (1) 
0.773417592

$$$$
