
     RDKit          3D

 28 29  0  0  0  0  0  0  0  0999 V2000
   37.0950   22.3340   33.3660 C   0  0  0  0  0  0  0  0  0  0  0  0
   36.6570   21.3040   34.1400 C   0  0  0  0  0  0  0  0  0  0  0  0
   35.6430   20.4620   33.7600 C   0  0  0  0  0  0  0  0  0  0  0  0
   35.0140   20.6520   32.5220 C   0  0  0  0  0  0  0  0  0  0  0  0
   35.4850   21.7060   31.7670 C   0  0  0  0  0  0  0  0  0  0  0  0
   36.4920   22.5500   32.1310 C   0  0  0  0  0  0  0  0  0  0  0  0
   36.9700   23.6450   31.3630 N   0  0  0  0  0  0  0  0  0  0  0  0
   36.2700   24.8670   31.2920 C   0  0  0  0  0  0  0  0  0  0  0  0
   35.0170   24.8570   31.0160 N   0  0  0  0  0  0  0  0  0  0  0  0
   36.9500   26.1220   31.5090 N   0  0  0  0  0  0  0  0  0  0  0  0
   34.4390   24.0400   30.8350 H   0  0  0  0  0  0  0  0  0  0  0  0
   38.4430   23.4260   33.8890 S   0  0  0  0  0  0  0  0  0  0  0  0
   39.8390   22.7150   37.5320 C   0  0  0  0  0  0  0  0  0  0  0  0
   38.9070   23.3140   38.3950 C   0  0  0  0  0  0  0  0  0  0  0  0
   37.8030   23.9650   37.8180 C   0  0  0  0  0  0  0  0  0  0  0  0
   37.6980   23.9760   36.4550 N   0  0  0  0  0  0  0  0  0  0  0  0
   38.6010   23.3950   35.6570 C   0  0  0  0  0  0  0  0  0  0  0  0
   39.6500   22.7790   36.2190 N   0  0  0  0  0  0  0  0  0  0  0  0
   37.1383   21.1390   35.1153 H   0  0  0  0  0  0  0  0  0  0  0  0
   35.3256   19.6432   34.4224 H   0  0  0  0  0  0  0  0  0  0  0  0
   34.1971   20.0023   32.1747 H   0  0  0  0  0  0  0  0  0  0  0  0
   35.0089   21.8799   30.7907 H   0  0  0  0  0  0  0  0  0  0  0  0
   37.8533   23.5436   30.8430 H   0  0  0  0  0  0  0  0  0  0  0  0
   36.4267   27.0075   31.4542 H   0  0  0  0  0  0  0  0  0  0  0  0
   37.9584   26.1318   31.7186 H   0  0  0  0  0  0  0  0  0  0  0  0
   40.7190   22.1967   37.9405 H   0  0  0  0  0  0  0  0  0  0  0  0
   39.0367   23.2750   39.4866 H   0  0  0  0  0  0  0  0  0  0  0  0
   37.0435   24.4528   38.4466 H   0  0  0  0  0  0  0  0  0  0  0  0
  1 12  1  0
  1  2  2  0
  3  2  1  0
  4  3  2  0
  5  6  2  0
  5  4  1  0
  6  1  1  0
  7  6  1  0
  8  7  1  0
  8 10  1  0
  9  8  2  0
 11  9  1  0
 12 17  1  0
 13 14  2  0
 15 14  1  0
 16 15  2  0
 17 18  2  0
 17 16  1  0
 18 13  1  0
  2 19  1  0
  3 20  1  0
  4 21  1  0
  5 22  1  0
  7 23  1  0
 10 24  1  0
 10 25  1  0
 13 26  1  0
 14 27  1  0
 15 28  1  0
M  ISO  7  19  14  20  14  21  14  22  14  26  14  27  14  28  14
M  END
>  <minimizedAffinity>  (1) 
-4.86391497

>  <minimizedRMSD>  (1) 
0.339083344

$$$$
