
     RDKit          3D

 28 30  0  0  0  0  0  0  0  0999 V2000
   37.3280   22.2020   33.4010 C   0  0  0  0  0  0  0  0  0  0  0  0
   36.7050   21.1360   34.0140 C   0  0  0  0  0  0  0  0  0  0  0  0
   35.5360   20.5670   33.5750 C   0  0  0  0  0  0  0  0  0  0  0  0
   34.9220   21.0830   32.4370 C   0  0  0  0  0  0  0  0  0  0  0  0
   35.5480   22.1510   31.8230 C   0  0  0  0  0  0  0  0  0  0  0  0
   36.7050   22.7040   32.2700 C   0  0  0  0  0  0  0  0  0  0  0  0
   37.3100   23.8350   31.5670 C   0  0  0  0  0  0  0  0  0  0  0  0
   38.2050   23.7550   30.5220 C   0  0  0  0  0  0  0  0  0  0  0  0
   38.4560   25.0990   30.2330 C   0  0  0  0  0  0  0  0  0  0  0  0
   37.7240   25.8980   31.0900 C   0  0  0  0  0  0  0  0  0  0  0  0
   37.0430   25.0900   31.8820 O   0  0  0  0  0  0  0  0  0  0  0  0
   38.8580   22.9200   34.0070 S   0  0  0  0  0  0  0  0  0  0  0  0
   39.7630   22.7840   37.8620 C   0  0  0  0  0  0  0  0  0  0  0  0
   38.7200   23.4310   38.5050 C   0  0  0  0  0  0  0  0  0  0  0  0
   37.6850   23.9360   37.7110 C   0  0  0  0  0  0  0  0  0  0  0  0
   37.7550   23.7660   36.3600 N   0  0  0  0  0  0  0  0  0  0  0  0
   38.7770   23.1350   35.7620 C   0  0  0  0  0  0  0  0  0  0  0  0
   39.7690   22.6520   36.5280 N   0  0  0  0  0  0  0  0  0  0  0  0
   37.1758   20.7138   34.9141 H   0  0  0  0  0  0  0  0  0  0  0  0
   35.0913   19.7171   34.1134 H   0  0  0  0  0  0  0  0  0  0  0  0
   33.9844   20.6612   32.0458 H   0  0  0  0  0  0  0  0  0  0  0  0
   35.0831   22.5771   30.9217 H   0  0  0  0  0  0  0  0  0  0  0  0
   38.6181   22.8582   30.0371 H   0  0  0  0  0  0  0  0  0  0  0  0
   39.1316   25.4641   29.4454 H   0  0  0  0  0  0  0  0  0  0  0  0
   37.7109   26.9978   31.1090 H   0  0  0  0  0  0  0  0  0  0  0  0
   40.5954   22.3741   38.4528 H   0  0  0  0  0  0  0  0  0  0  0  0
   38.7064   23.5433   39.5992 H   0  0  0  0  0  0  0  0  0  0  0  0
   36.8320   24.4596   38.1673 H   0  0  0  0  0  0  0  0  0  0  0  0
  1 12  1  0
  1  2  2  0
  3  2  1  0
  4  3  2  0
  5  6  2  0
  5  4  1  0
  6  1  1  0
  7 11  1  0
  7  6  1  0
  8  7  2  0
  9  8  1  0
  9 10  2  0
 10 11  1  0
 12 17  1  0
 13 14  2  0
 15 14  1  0
 16 15  2  0
 17 16  1  0
 17 18  2  0
 18 13  1  0
  2 19  1  0
  3 20  1  0
  4 21  1  0
  5 22  1  0
  8 23  1  0
  9 24  1  0
 10 25  1  0
 13 26  1  0
 14 27  1  0
 15 28  1  0
M  ISO  8  19  14  20  14  21  14  22  14  23  14  24  14  25  14  26  14
M  ISO  2  27  14  28  14
M  END
>  <minimizedAffinity>  (1) 
-4.82158995

>  <minimizedRMSD>  (1) 
0.319326967

$$$$
