
     RDKit          3D

 27 29  0  0  0  0  0  0  0  0999 V2000
   37.3200   22.3630   33.3920 C   0  0  0  0  0  0  0  0  0  0  0  0
   36.8020   21.2380   33.9590 C   0  0  0  0  0  0  0  0  0  0  0  0
   35.6670   20.6320   33.4920 C   0  0  0  0  0  0  0  0  0  0  0  0
   35.0050   21.1660   32.4010 C   0  0  0  0  0  0  0  0  0  0  0  0
   35.5570   22.3210   31.8350 C   0  0  0  0  0  0  0  0  0  0  0  0
   36.6810   22.9300   32.2920 C   0  0  0  0  0  0  0  0  0  0  0  0
   37.2330   24.1340   31.6810 C   0  0  0  0  0  0  0  0  0  0  0  0
   36.7180   25.4680   32.0730 C   0  0  0  0  0  0  0  0  0  0  0  0
   37.7330   26.5830   31.0280 S   0  0  0  0  0  0  0  0  0  0  0  0
   38.6600   25.1200   30.2520 C   0  0  0  0  0  0  0  0  0  0  0  0
   38.1710   24.1900   30.7850 N   0  0  0  0  0  0  0  0  0  0  0  0
   38.8210   23.1660   34.0100 S   0  0  0  0  0  0  0  0  0  0  0  0
   39.7710   22.7690   37.8360 C   0  0  0  0  0  0  0  0  0  0  0  0
   38.7370   23.4150   38.5310 C   0  0  0  0  0  0  0  0  0  0  0  0
   37.7120   23.9920   37.7790 C   0  0  0  0  0  0  0  0  0  0  0  0
   37.7620   23.9030   36.4260 N   0  0  0  0  0  0  0  0  0  0  0  0
   38.7690   23.2750   35.7800 C   0  0  0  0  0  0  0  0  0  0  0  0
   39.7620   22.7160   36.4960 N   0  0  0  0  0  0  0  0  0  0  0  0
   37.3163   20.7991   34.8267 H   0  0  0  0  0  0  0  0  0  0  0  0
   35.2832   19.7249   33.9818 H   0  0  0  0  0  0  0  0  0  0  0  0
   34.0905   20.7059   31.9984 H   0  0  0  0  0  0  0  0  0  0  0  0
   35.0483   22.7629   30.9655 H   0  0  0  0  0  0  0  0  0  0  0  0
   35.9328   25.7225   32.8001 H   0  0  0  0  0  0  0  0  0  0  0  0
   39.4561   25.1363   29.4931 H   0  0  0  0  0  0  0  0  0  0  0  0
   40.5955   22.3023   38.3949 H   0  0  0  0  0  0  0  0  0  0  0  0
   38.7342   23.4650   39.6299 H   0  0  0  0  0  0  0  0  0  0  0  0
   36.8779   24.5100   38.2750 H   0  0  0  0  0  0  0  0  0  0  0  0
  1  2  2  0
  1 12  1  0
  3  2  1  0
  4  3  2  0
  5  6  2  0
  5  4  1  0
  6  1  1  0
  7  8  2  0
  7  6  1  0
  9  8  1  0
 10 11  2  0
 10  9  1  0
 11  7  1  0
 12 17  1  0
 13 14  2  0
 15 14  1  0
 16 15  2  0
 17 16  1  0
 17 18  2  0
 18 13  1  0
  2 19  1  0
  3 20  1  0
  4 21  1  0
  5 22  1  0
  8 23  1  0
 10 24  1  0
 13 25  1  0
 14 26  1  0
 15 27  1  0
M  ISO  8  19  14  20  14  21  14  22  14  23  14  24  14  25  14  26  14
M  ISO  1  27  14
M  END
>  <minimizedAffinity>  (1) 
-4.80243206

>  <minimizedRMSD>  (1) 
0.467795044

$$$$
