
     RDKit          3D

 24 25  0  0  0  0  0  0  0  0999 V2000
   37.1510   22.2960   33.3970 C   0  0  0  0  0  0  0  0  0  0  0  0
   36.6680   21.2590   34.1430 C   0  0  0  0  0  0  0  0  0  0  0  0
   35.6120   20.4650   33.7470 C   0  0  0  0  0  0  0  0  0  0  0  0
   34.9970   20.7150   32.5340 C   0  0  0  0  0  0  0  0  0  0  0  0
   35.4960   21.7650   31.7920 C   0  0  0  0  0  0  0  0  0  0  0  0
   36.5370   22.5420   32.1910 C   0  0  0  0  0  0  0  0  0  0  0  0
   37.0030   23.6500   31.3190 C   0  0  0  0  0  0  0  0  0  0  0  0
   38.5320   23.3290   33.9220 S   0  0  0  0  0  0  0  0  0  0  0  0
   39.7660   22.7450   37.6480 C   0  0  0  0  0  0  0  0  0  0  0  0
   38.8230   23.3600   38.4570 C   0  0  0  0  0  0  0  0  0  0  0  0
   37.7570   23.9840   37.8050 C   0  0  0  0  0  0  0  0  0  0  0  0
   37.6900   23.9630   36.4440 N   0  0  0  0  0  0  0  0  0  0  0  0
   38.6260   23.3530   35.6940 C   0  0  0  0  0  0  0  0  0  0  0  0
   39.6600   22.7490   36.3290 N   0  0  0  0  0  0  0  0  0  0  0  0
   37.1462   21.0458   35.1104 H   0  0  0  0  0  0  0  0  0  0  0  0
   35.2631   19.6425   34.3886 H   0  0  0  0  0  0  0  0  0  0  0  0
   34.1521   20.1069   32.1787 H   0  0  0  0  0  0  0  0  0  0  0  0
   35.0249   21.9859   30.8228 H   0  0  0  0  0  0  0  0  0  0  0  0
   37.3542   24.4849   31.9432 H   0  0  0  0  0  0  0  0  0  0  0  0
   37.8279   23.2947   30.6840 H   0  0  0  0  0  0  0  0  0  0  0  0
   36.1721   23.9911   30.6840 H   0  0  0  0  0  0  0  0  0  0  0  0
   40.6248   22.2405   38.1148 H   0  0  0  0  0  0  0  0  0  0  0  0
   38.9097   23.3567   39.5536 H   0  0  0  0  0  0  0  0  0  0  0  0
   36.9740   24.4908   38.3882 H   0  0  0  0  0  0  0  0  0  0  0  0
  1  8  1  0
  1  2  2  0
  3  2  1  0
  4  3  2  0
  5  6  2  0
  5  4  1  0
  6  1  1  0
  7  6  1  0
  8 13  1  0
  9 10  2  0
 11 10  1  0
 12 11  2  0
 13 14  2  0
 13 12  1  0
 14  9  1  0
  2 15  1  0
  3 16  1  0
  4 17  1  0
  5 18  1  0
  7 19  1  0
  7 20  1  0
  7 21  1  0
  9 22  1  0
 10 23  1  0
 11 24  1  0
M  ISO  8  15  14  16  14  17  14  18  14  19   8  20   8  21   8  22  14
M  ISO  2  23  14  24  14
M  END
>  <minimizedAffinity>  (1) 
-4.41346025

>  <minimizedRMSD>  (1) 
0.120336056

$$$$
