
     RDKit          3D

 23 24  0  0  0  0  0  0  0  0999 V2000
   37.1470   22.3150   33.3890 C   0  0  0  0  0  0  0  0  0  0  0  0
   36.6710   21.2720   34.1540 C   0  0  0  0  0  0  0  0  0  0  0  0
   35.6190   20.4740   33.7420 C   0  0  0  0  0  0  0  0  0  0  0  0
   35.0130   20.7180   32.5220 C   0  0  0  0  0  0  0  0  0  0  0  0
   35.5000   21.7650   31.7670 C   0  0  0  0  0  0  0  0  0  0  0  0
   36.5330   22.5560   32.1610 C   0  0  0  0  0  0  0  0  0  0  0  0
   36.9670   23.6400   31.2790 C   0  0  0  0  0  0  0  0  0  0  0  0
   36.1540   24.4760   30.8140 O   0  0  0  0  0  0  0  0  0  0  0  0
   38.5140   23.3690   33.9010 S   0  0  0  0  0  0  0  0  0  0  0  0
   39.7910   22.7370   37.6110 C   0  0  0  0  0  0  0  0  0  0  0  0
   38.8400   23.3510   38.4370 C   0  0  0  0  0  0  0  0  0  0  0  0
   37.7770   23.9750   37.8030 C   0  0  0  0  0  0  0  0  0  0  0  0
   37.7180   23.9570   36.4480 N   0  0  0  0  0  0  0  0  0  0  0  0
   38.6390   23.3640   35.6730 C   0  0  0  0  0  0  0  0  0  0  0  0
   39.6720   22.7570   36.2850 N   0  0  0  0  0  0  0  0  0  0  0  0
   37.1440   21.0671   35.1257 H   0  0  0  0  0  0  0  0  0  0  0  0
   35.2662   19.6504   34.3802 H   0  0  0  0  0  0  0  0  0  0  0  0
   34.1746   20.1004   32.1676 H   0  0  0  0  0  0  0  0  0  0  0  0
   35.0276   21.9705   30.7951 H   0  0  0  0  0  0  0  0  0  0  0  0
   38.0320   23.7244   31.0169 H   0  0  0  0  0  0  0  0  0  0  0  0
   40.6531   22.2283   38.0672 H   0  0  0  0  0  0  0  0  0  0  0  0
   38.9324   23.3384   39.5330 H   0  0  0  0  0  0  0  0  0  0  0  0
   36.9935   24.4770   38.3896 H   0  0  0  0  0  0  0  0  0  0  0  0
  1  9  1  0
  1  2  2  0
  3  2  1  0
  4  3  2  0
  5  6  2  0
  5  4  1  0
  6  1  1  0
  7  6  1  0
  8  7  2  0
  9 14  1  0
 10 11  2  0
 12 11  1  0
 13 12  2  0
 14 15  2  0
 14 13  1  0
 15 10  1  0
  2 16  1  0
  3 17  1  0
  4 18  1  0
  5 19  1  0
  7 20  1  0
 10 21  1  0
 11 22  1  0
 12 23  1  0
M  ISO  8  16  14  17  14  18  14  19  14  20   6  21  14  22  14  23  14
M  END
>  <minimizedAffinity>  (1) 
-4.43284893

>  <minimizedRMSD>  (1) 
0.548475087

$$$$
