
     RDKit          3D

 24 25  0  0  0  0  0  0  0  0999 V2000
   37.0900   22.5500   33.1910 C   0  0  0  0  0  0  0  0  0  0  0  0
   36.7850   21.3660   33.8360 C   0  0  0  0  0  0  0  0  0  0  0  0
   35.7880   20.5060   33.4280 C   0  0  0  0  0  0  0  0  0  0  0  0
   35.0390   20.8320   32.3120 C   0  0  0  0  0  0  0  0  0  0  0  0
   35.3390   22.0130   31.6660 C   0  0  0  0  0  0  0  0  0  0  0  0
   36.3260   22.8440   32.0860 C   0  0  0  0  0  0  0  0  0  0  0  0
   36.6160   24.0850   31.3780 C   0  0  0  0  0  0  0  0  0  0  0  0
   36.0520   25.1590   31.7740 O   0  0  0  0  0  0  0  0  0  0  0  0
   37.4690   24.1730   30.2940 O   0  0  0  0  0  0  0  0  0  0  0  0
   38.3940   23.6390   33.7540 S   0  0  0  0  0  0  0  0  0  0  0  0
   39.7910   22.6580   37.3360 C   0  0  0  0  0  0  0  0  0  0  0  0
   38.9330   23.3040   38.2400 C   0  0  0  0  0  0  0  0  0  0  0  0
   37.8920   24.0640   37.7190 C   0  0  0  0  0  0  0  0  0  0  0  0
   37.7520   24.1490   36.3630 N   0  0  0  0  0  0  0  0  0  0  0  0
   38.5910   23.5180   35.5140 C   0  0  0  0  0  0  0  0  0  0  0  0
   39.6070   22.7760   36.0200 N   0  0  0  0  0  0  0  0  0  0  0  0
   37.3716   21.0945   34.7260 H   0  0  0  0  0  0  0  0  0  0  0  0
   35.5913   19.5757   33.9810 H   0  0  0  0  0  0  0  0  0  0  0  0
   34.2340   20.1739   31.9530 H   0  0  0  0  0  0  0  0  0  0  0  0
   34.7557   22.2920   30.7761 H   0  0  0  0  0  0  0  0  0  0  0  0
   37.9258   23.3621   29.9565 H   0  0  0  0  0  0  0  0  0  0  0  0
   40.6236   22.0482   37.7167 H   0  0  0  0  0  0  0  0  0  0  0  0
   39.0797   23.2118   39.3263 H   0  0  0  0  0  0  0  0  0  0  0  0
   37.1930   24.5880   38.3874 H   0  0  0  0  0  0  0  0  0  0  0  0
  1 10  1  0
  1  2  2  0
  3  2  1  0
  4  3  2  0
  5  6  2  0
  5  4  1  0
  6  1  1  0
  7  8  2  0
  7  6  1  0
  9  7  1  0
 10 15  1  0
 11 12  2  0
 13 12  1  0
 14 13  2  0
 15 16  2  0
 15 14  1  0
 16 11  1  0
  2 17  1  0
  3 18  1  0
  4 19  1  0
  5 20  1  0
  9 21  1  0
 11 22  1  0
 12 23  1  0
 13 24  1  0
M  ISO  8  17  14  18  14  19  14  20  14  21   3  22  14  23  14  24  14
M  END
>  <minimizedAffinity>  (1) 
-4.65669203

>  <minimizedRMSD>  (1) 
0.629166842

$$$$
