
     RDKit          3D

 22 23  0  0  0  0  0  0  0  0999 V2000
   37.2550   22.2600   33.4450 C   0  0  0  0  0  0  0  0  0  0  0  0
   36.6850   21.2460   34.1870 C   0  0  0  0  0  0  0  0  0  0  0  0
   35.5900   20.5190   33.7770 C   0  0  0  0  0  0  0  0  0  0  0  0
   35.0110   20.8060   32.5560 C   0  0  0  0  0  0  0  0  0  0  0  0
   35.5790   21.8190   31.8130 C   0  0  0  0  0  0  0  0  0  0  0  0
   36.6640   22.5330   32.2270 C   0  0  0  0  0  0  0  0  0  0  0  0
   37.2120   23.5560   31.4430 O   0  0  0  0  0  0  0  0  0  0  0  0
   38.6810   23.1930   33.9970 S   0  0  0  0  0  0  0  0  0  0  0  0
   39.7710   22.7560   37.7860 C   0  0  0  0  0  0  0  0  0  0  0  0
   38.7860   23.4020   38.5230 C   0  0  0  0  0  0  0  0  0  0  0  0
   37.7450   23.9960   37.8200 C   0  0  0  0  0  0  0  0  0  0  0  0
   37.7340   23.9200   36.4580 N   0  0  0  0  0  0  0  0  0  0  0  0
   38.7010   23.2880   35.7660 C   0  0  0  0  0  0  0  0  0  0  0  0
   39.7080   22.7150   36.4590 N   0  0  0  0  0  0  0  0  0  0  0  0
   37.1314   21.0044   35.1629 H   0  0  0  0  0  0  0  0  0  0  0  0
   35.1815   19.7201   34.4133 H   0  0  0  0  0  0  0  0  0  0  0  0
   34.1343   20.2501   32.1921 H   0  0  0  0  0  0  0  0  0  0  0  0
   35.1343   22.0634   30.8370 H   0  0  0  0  0  0  0  0  0  0  0  0
   38.0005   24.0595   31.7669 H   0  0  0  0  0  0  0  0  0  0  0  0
   40.6116   22.2735   38.3062 H   0  0  0  0  0  0  0  0  0  0  0  0
   38.8287   23.4417   39.6215 H   0  0  0  0  0  0  0  0  0  0  0  0
   36.9399   24.5209   38.3550 H   0  0  0  0  0  0  0  0  0  0  0  0
  1  8  1  0
  1  2  2  0
  3  2  1  0
  4  3  2  0
  5  6  2  0
  5  4  1  0
  6  1  1  0
  7  6  1  0
  8 13  1  0
  9 10  2  0
 11 10  1  0
 12 11  2  0
 13 12  1  0
 13 14  2  0
 14  9  1  0
  2 15  1  0
  3 16  1  0
  4 17  1  0
  5 18  1  0
  7 19  1  0
  9 20  1  0
 10 21  1  0
 11 22  1  0
M  ISO  8  15  14  16  14  17  14  18  14  19   3  20  14  21  14  22  14
M  END
>  <minimizedAffinity>  (1) 
-4.32403421

>  <minimizedRMSD>  (1) 
0.0098850606

$$$$
