
     RDKit          3D

 32 34  0  0  1  0  0  0  0  0999 V2000
   37.8730   23.5610   33.5070 C   0  0  0  0  0  0  0  0  0  0  0  0
   37.0370   22.6810   32.8320 C   0  0  0  0  0  0  0  0  0  0  0  0
   36.9310   21.6100   33.6680 N   0  0  0  0  0  0  0  0  0  0  0  0
   37.6720   21.8790   34.7580 C   0  0  0  0  0  0  0  0  0  0  0  0
   38.2650   23.0780   34.6850 N   0  0  0  0  0  0  0  0  0  0  0  0
   39.1280   23.7220   35.6350 C   0  0  1  0  0  0  0  0  0  0  0  0
   38.4200   24.8220   36.3730 C   0  0  0  0  0  0  0  0  0  0  0  0
   37.7560   24.1020   37.5100 C   0  0  0  0  0  0  0  0  0  0  0  0
   38.7850   23.1190   37.9470 C   0  0  0  0  0  0  0  0  0  0  0  0
   39.5800   22.7770   36.7260 C   0  0  2  0  0  0  0  0  0  0  0  0
   40.9890   23.1230   36.9600 N   0  0  0  0  0  0  0  0  0  0  0  0
   38.2910   24.8740   33.0070 C   0  0  0  0  0  0  0  0  0  0  0  0
   39.5420   25.0020   32.3540 C   0  0  0  0  0  0  0  0  0  0  0  0
   39.8890   26.2790   31.8970 C   0  0  0  0  0  0  0  0  0  0  0  0
   39.0220   27.3030   32.1010 N   0  0  0  0  0  0  0  0  0  0  0  0
   37.8530   27.1300   32.7220 C   0  0  0  0  0  0  0  0  0  0  0  0
   37.4570   25.9240   33.1890 N   0  0  0  0  0  0  0  0  0  0  0  0
   36.5673   22.8175   31.8467 H   0  0  0  0  0  0  0  0  0  0  0  0
   37.7788   21.1931   35.6113 H   0  0  0  0  0  0  0  0  0  0  0  0
   39.9712   24.0936   35.0342 H   0  0  0  0  0  0  0  0  0  0  0  0
   39.1348   25.5711   36.7445 H   0  0  0  0  0  0  0  0  0  0  0  0
   37.7106   25.3772   35.7417 H   0  0  0  0  0  0  0  0  0  0  0  0
   37.5065   24.7983   38.3242 H   0  0  0  0  0  0  0  0  0  0  0  0
   36.8063   23.6282   37.2209 H   0  0  0  0  0  0  0  0  0  0  0  0
   39.4361   23.5639   38.7139 H   0  0  0  0  0  0  0  0  0  0  0  0
   38.3226   22.2238   38.3883 H   0  0  0  0  0  0  0  0  0  0  0  0
   39.4542   21.7127   36.4780 H   0  0  0  0  0  0  0  0  0  0  0  0
   41.1680   23.1670   37.9734 H   0  0  0  0  0  0  0  0  0  0  0  0
   41.5938   22.4055   36.5353 H   0  0  0  0  0  0  0  0  0  0  0  0
   40.2090   24.1388   32.2128 H   0  0  0  0  0  0  0  0  0  0  0  0
   40.8462   26.4492   31.3824 H   0  0  0  0  0  0  0  0  0  0  0  0
   37.1899   27.9970   32.8584 H   0  0  0  0  0  0  0  0  0  0  0  0
  1  5  1  0
  2  1  2  0
  2  3  1  0
  3  4  2  0
  5  4  1  0
  5  6  1  0
  6  7  1  0
  6 10  1  0
  7  8  1  0
  8  9  1  0
 10 11  1  0
 10  9  1  0
 12 17  1  0
 12  1  1  0
 13 12  2  0
 14 15  2  0
 14 13  1  0
 15 16  1  0
 16 17  2  0
  2 18  1  0
  4 19  1  0
  6 20  1  6
  7 21  1  0
  7 22  1  0
  8 23  1  0
  8 24  1  0
  9 25  1  0
  9 26  1  0
 10 27  1  6
 11 28  1  0
 11 29  1  0
 13 30  1  0
 14 31  1  0
 16 32  1  0
M  ISO  8  18  14  19  14  20  13  21  13  22  13  23  13  24  13  25  13
M  ISO  7  26  13  27  13  28   5  29   5  30  14  31  14  32  14
M  END
>  <minimizedAffinity>  (1) 
-4.05714893

>  <minimizedRMSD>  (1) 
0.431791246

$$$$
