
     RDKit          3D

 32 34  0  0  0  0  0  0  0  0999 V2000
   37.2460   22.2740   33.4930 C   0  0  0  0  0  0  0  0  0  0  0  0
   36.7550   21.1830   34.1420 C   0  0  0  0  0  0  0  0  0  0  0  0
   35.6450   20.4930   33.7210 C   0  0  0  0  0  0  0  0  0  0  0  0
   34.9690   20.9140   32.5700 C   0  0  0  0  0  0  0  0  0  0  0  0
   35.4780   22.0200   31.9220 C   0  0  0  0  0  0  0  0  0  0  0  0
   36.5770   22.6960   32.3460 C   0  0  0  0  0  0  0  0  0  0  0  0
   37.0990   23.8400   31.6730 N   0  0  0  0  0  0  0  0  0  0  0  0
   36.6400   25.0190   32.0790 C   0  0  0  0  0  0  0  0  0  0  0  0
   37.1350   26.1410   31.4380 C   0  0  0  0  0  0  0  0  0  0  0  0
   38.0570   25.9440   30.4400 C   0  0  0  0  0  0  0  0  0  0  0  0
   38.6050   27.0450   29.7440 N   0  0  0  0  0  0  0  0  0  0  0  0
   38.4790   24.7140   30.0800 N   0  0  0  0  0  0  0  0  0  0  0  0
   38.0010   23.6050   30.7000 C   0  0  0  0  0  0  0  0  0  0  0  0
   38.3660   22.4410   30.3970 O   0  0  0  0  0  0  0  0  0  0  0  0
   38.7060   23.1830   34.0470 S   0  0  0  0  0  0  0  0  0  0  0  0
   39.7750   22.7720   37.8450 C   0  0  0  0  0  0  0  0  0  0  0  0
   38.7710   23.4090   38.5700 C   0  0  0  0  0  0  0  0  0  0  0  0
   37.7260   23.9890   37.8640 C   0  0  0  0  0  0  0  0  0  0  0  0
   37.7220   23.9110   36.4980 N   0  0  0  0  0  0  0  0  0  0  0  0
   38.7070   23.2870   35.8250 C   0  0  0  0  0  0  0  0  0  0  0  0
   39.7210   22.7250   36.5070 N   0  0  0  0  0  0  0  0  0  0  0  0
   37.2730   20.8369   35.0486 H   0  0  0  0  0  0  0  0  0  0  0  0
   35.2901   19.6169   34.2835 H   0  0  0  0  0  0  0  0  0  0  0  0
   34.0759   20.3887   32.2005 H   0  0  0  0  0  0  0  0  0  0  0  0
   34.9670   22.3731   31.0141 H   0  0  0  0  0  0  0  0  0  0  0  0
   35.8996   25.0995   32.8885 H   0  0  0  0  0  0  0  0  0  0  0  0
   36.8026   27.1517   31.7173 H   0  0  0  0  0  0  0  0  0  0  0  0
   39.2963   26.8894   28.9964 H   0  0  0  0  0  0  0  0  0  0  0  0
   38.3132   28.0031   29.9843 H   0  0  0  0  0  0  0  0  0  0  0  0
   40.6182   22.3042   38.3744 H   0  0  0  0  0  0  0  0  0  0  0  0
   38.8050   23.4512   39.6687 H   0  0  0  0  0  0  0  0  0  0  0  0
   36.9123   24.5042   38.3954 H   0  0  0  0  0  0  0  0  0  0  0  0
  1 15  1  0
  1  2  2  0
  3  2  1  0
  4  3  2  0
  5  6  2  0
  5  4  1  0
  6  1  1  0
  7  8  1  0
  7  6  1  0
  9  8  2  0
 10  9  1  0
 11 10  1  0
 12 10  2  0
 12 13  1  0
 13  7  1  0
 14 13  2  0
 15 20  1  0
 16 17  2  0
 18 17  1  0
 19 18  2  0
 20 19  1  0
 20 21  2  0
 21 16  1  0
  2 22  1  0
  3 23  1  0
  4 24  1  0
  5 25  1  0
  8 26  1  0
  9 27  1  0
 11 28  1  0
 11 29  1  0
 16 30  1  0
 17 31  1  0
 18 32  1  0
M  ISO  8  22  14  23  14  24  14  25  14  26  14  27  14  30  14  31  14
M  ISO  1  32  14
M  END
>  <minimizedAffinity>  (1) 
-5.29573202

>  <minimizedRMSD>  (1) 
0.726153553

$$$$
