
     RDKit          3D

 35 37  0  0  0  0  0  0  0  0999 V2000
   37.4590   22.2720   33.2920 C   0  0  0  0  0  0  0  0  0  0  0  0
   36.8950   21.2640   34.0090 C   0  0  0  0  0  0  0  0  0  0  0  0
   35.6770   20.7180   33.6960 C   0  0  0  0  0  0  0  0  0  0  0  0
   34.9650   21.2030   32.5940 C   0  0  0  0  0  0  0  0  0  0  0  0
   35.5480   22.2250   31.8770 C   0  0  0  0  0  0  0  0  0  0  0  0
   36.7470   22.7610   32.1860 C   0  0  0  0  0  0  0  0  0  0  0  0
   37.3530   23.8220   31.4410 N   0  0  0  0  0  0  0  0  0  0  0  0
   37.0330   25.0480   31.8020 C   0  0  0  0  0  0  0  0  0  0  0  0
   37.6050   26.0890   31.0980 C   0  0  0  0  0  0  0  0  0  0  0  0
   38.4640   25.7510   30.0780 C   0  0  0  0  0  0  0  0  0  0  0  0
   39.0910   26.7620   29.3080 N   0  0  0  0  0  0  0  0  0  0  0  0
   38.7510   24.4670   29.7560 N   0  0  0  0  0  0  0  0  0  0  0  0
   38.1880   23.4420   30.4480 C   0  0  0  0  0  0  0  0  0  0  0  0
   38.4270   22.2460   30.1840 O   0  0  0  0  0  0  0  0  0  0  0  0
   39.0640   23.0010   33.6910 S   0  0  0  0  0  0  0  0  0  0  0  0
   40.5520   22.1130   37.2570 C   0  0  0  0  0  0  0  0  0  0  0  0
   39.7660   22.8080   38.1600 C   0  0  0  0  0  0  0  0  0  0  0  0
   38.7250   23.5920   37.6530 C   0  0  0  0  0  0  0  0  0  0  0  0
   38.5290   23.6390   36.3090 N   0  0  0  0  0  0  0  0  0  0  0  0
   39.3140   22.9470   35.4480 C   0  0  0  0  0  0  0  0  0  0  0  0
   40.3100   22.1980   35.9510 N   0  0  0  0  0  0  0  0  0  0  0  0
   37.8230   24.3760   38.5020 C   0  0  0  0  0  0  0  0  0  0  0  0
   37.4401   20.8689   34.8789 H   0  0  0  0  0  0  0  0  0  0  0  0
   35.2622   19.9034   34.3078 H   0  0  0  0  0  0  0  0  0  0  0  0
   33.9858   20.7880   32.3130 H   0  0  0  0  0  0  0  0  0  0  0  0
   35.0073   22.6251   31.0066 H   0  0  0  0  0  0  0  0  0  0  0  0
   36.3366   25.2352   32.6327 H   0  0  0  0  0  0  0  0  0  0  0  0
   37.3843   27.1388   31.3412 H   0  0  0  0  0  0  0  0  0  0  0  0
   39.7335   26.5045   28.5452 H   0  0  0  0  0  0  0  0  0  0  0  0
   38.9043   27.7544   29.5111 H   0  0  0  0  0  0  0  0  0  0  0  0
   41.3806   21.4875   37.6206 H   0  0  0  0  0  0  0  0  0  0  0  0
   39.9543   22.7455   39.2420 H   0  0  0  0  0  0  0  0  0  0  0  0
   38.0507   24.1781   39.5598 H   0  0  0  0  0  0  0  0  0  0  0  0
   37.9599   25.4470   38.2916 H   0  0  0  0  0  0  0  0  0  0  0  0
   36.7815   24.0912   38.2916 H   0  0  0  0  0  0  0  0  0  0  0  0
  1 15  1  0
  1  2  2  0
  3  2  1  0
  4  3  2  0
  5  6  2  0
  5  4  1  0
  6  1  1  0
  7  8  1  0
  7  6  1  0
  9  8  2  0
 10  9  1  0
 11 10  1  0
 12 10  2  0
 12 13  1  0
 13  7  1  0
 14 13  2  0
 15 20  1  0
 16 17  2  0
 18 17  1  0
 18 22  1  0
 19 18  2  0
 20 21  2  0
 20 19  1  0
 21 16  1  0
  2 23  1  0
  3 24  1  0
  4 25  1  0
  5 26  1  0
  8 27  1  0
  9 28  1  0
 11 29  1  0
 11 30  1  0
 16 31  1  0
 17 32  1  0
 22 33  1  0
 22 34  1  0
 22 35  1  0
M  ISO  8  23  14  24  14  25  14  26  14  27  14  28  14  31  14  32  14
M  ISO  3  33   8  34   8  35   8
M  END
>  <minimizedAffinity>  (1) 
-5.32227516

>  <minimizedRMSD>  (1) 
0.694538534

$$$$
