
     RDKit          3D

 35 37  0  0  0  0  0  0  0  0999 V2000
   37.6610   22.3800   33.0530 C   0  0  0  0  0  0  0  0  0  0  0  0
   37.1290   21.3280   33.7290 C   0  0  0  0  0  0  0  0  0  0  0  0
   35.8800   20.8140   33.4690 C   0  0  0  0  0  0  0  0  0  0  0  0
   35.0990   21.3880   32.4610 C   0  0  0  0  0  0  0  0  0  0  0  0
   35.6480   22.4540   31.7840 C   0  0  0  0  0  0  0  0  0  0  0  0
   36.8900   22.9600   32.0470 C   0  0  0  0  0  0  0  0  0  0  0  0
   37.4520   24.0610   31.3420 N   0  0  0  0  0  0  0  0  0  0  0  0
   37.1300   25.2680   31.7770 C   0  0  0  0  0  0  0  0  0  0  0  0
   37.6580   26.3540   31.1160 C   0  0  0  0  0  0  0  0  0  0  0  0
   38.4840   26.0830   30.0470 C   0  0  0  0  0  0  0  0  0  0  0  0
   39.0720   27.1390   29.3070 N   0  0  0  0  0  0  0  0  0  0  0  0
   38.7780   24.8330   29.6480 N   0  0  0  0  0  0  0  0  0  0  0  0
   38.2570   23.7600   30.3010 C   0  0  0  0  0  0  0  0  0  0  0  0
   38.4980   22.5690   29.9700 O   0  0  0  0  0  0  0  0  0  0  0  0
   39.2980   23.0530   33.3950 S   0  0  0  0  0  0  0  0  0  0  0  0
   41.2220   22.2570   36.7700 C   0  0  0  0  0  0  0  0  0  0  0  0
   40.3130   22.5730   37.7890 C   0  0  0  0  0  0  0  0  0  0  0  0
   39.0780   23.0440   37.4020 C   0  0  0  0  0  0  0  0  0  0  0  0
   38.7680   23.1900   36.0870 N   0  0  0  0  0  0  0  0  0  0  0  0
   39.6680   22.8750   35.1230 C   0  0  0  0  0  0  0  0  0  0  0  0
   40.8870   22.4110   35.4810 N   0  0  0  0  0  0  0  0  0  0  0  0
   38.1180   23.3790   38.4480 C   0  0  0  0  0  0  0  0  0  0  0  0
   38.0440   24.5870   38.7910 O   0  0  0  0  0  0  0  0  0  0  0  0
   37.3100   22.4260   39.0540 O   0  0  0  0  0  0  0  0  0  0  0  0
   37.7285   20.8633   34.5256 H   0  0  0  0  0  0  0  0  0  0  0  0
   35.4992   19.9599   34.0482 H   0  0  0  0  0  0  0  0  0  0  0  0
   34.0955   21.0067   32.2208 H   0  0  0  0  0  0  0  0  0  0  0  0
   35.0537   22.9246   30.9869 H   0  0  0  0  0  0  0  0  0  0  0  0
   36.4610   25.3999   32.6402 H   0  0  0  0  0  0  0  0  0  0  0  0
   37.4321   27.3851   31.4254 H   0  0  0  0  0  0  0  0  0  0  0  0
   39.6883   26.9279   28.5092 H   0  0  0  0  0  0  0  0  0  0  0  0
   38.8830   28.1176   29.5670 H   0  0  0  0  0  0  0  0  0  0  0  0
   42.2214   21.8784   37.0308 H   0  0  0  0  0  0  0  0  0  0  0  0
   40.5743   22.4503   38.8504 H   0  0  0  0  0  0  0  0  0  0  0  0
   36.6711   22.6957   39.7605 H   0  0  0  0  0  0  0  0  0  0  0  0
  1 15  1  0
  1  2  2  0
  3  2  1  0
  4  3  2  0
  5  6  2  0
  5  4  1  0
  6  1  1  0
  7  8  1  0
  7  6  1  0
  9  8  2  0
 10  9  1  0
 11 10  1  0
 12 10  2  0
 12 13  1  0
 13  7  1  0
 14 13  2  0
 15 20  1  0
 16 17  2  0
 18 17  1  0
 18 22  1  0
 19 18  2  0
 20 21  2  0
 20 19  1  0
 21 16  1  0
 22 23  2  0
 22 24  1  0
  2 25  1  0
  3 26  1  0
  4 27  1  0
  5 28  1  0
  8 29  1  0
  9 30  1  0
 11 31  1  0
 11 32  1  0
 16 33  1  0
 17 34  1  0
 24 35  1  0
M  ISO  8  25  14  26  14  27  14  28  14  29  14  30  14  33  14  34  14
M  ISO  1  35   3
M  END
>  <minimizedAffinity>  (1) 
-5.6092267

>  <minimizedRMSD>  (1) 
1.2864548

$$$$
