
     RDKit          3D

 41 43  0  0  0  0  0  0  0  0999 V2000
   37.7530   22.6130   32.9950 C   0  0  0  0  0  0  0  0  0  0  0  0
   37.3810   21.3570   33.3850 C   0  0  0  0  0  0  0  0  0  0  0  0
   36.1760   20.7900   33.0750 C   0  0  0  0  0  0  0  0  0  0  0  0
   35.2490   21.5240   32.3110 C   0  0  0  0  0  0  0  0  0  0  0  0
   35.6330   22.7920   31.9200 C   0  0  0  0  0  0  0  0  0  0  0  0
   36.8300   23.3290   32.2400 C   0  0  0  0  0  0  0  0  0  0  0  0
   37.2250   24.6480   31.8340 N   0  0  0  0  0  0  0  0  0  0  0  0
   36.8760   25.6410   32.6420 C   0  0  0  0  0  0  0  0  0  0  0  0
   37.2540   26.9130   32.2560 C   0  0  0  0  0  0  0  0  0  0  0  0
   37.9530   27.0510   31.0810 C   0  0  0  0  0  0  0  0  0  0  0  0
   38.3560   28.3300   30.6520 N   0  0  0  0  0  0  0  0  0  0  0  0
   38.2690   25.9970   30.3160 N   0  0  0  0  0  0  0  0  0  0  0  0
   37.9090   24.7370   30.6730 C   0  0  0  0  0  0  0  0  0  0  0  0
   38.1860   23.7180   29.9820 O   0  0  0  0  0  0  0  0  0  0  0  0
   39.3500   23.3600   33.4070 S   0  0  0  0  0  0  0  0  0  0  0  0
   41.2660   21.8840   36.5490 C   0  0  0  0  0  0  0  0  0  0  0  0
   40.4990   22.2700   37.6460 C   0  0  0  0  0  0  0  0  0  0  0  0
   39.3560   23.0070   37.4100 C   0  0  0  0  0  0  0  0  0  0  0  0
   39.0130   23.3340   36.1260 N   0  0  0  0  0  0  0  0  0  0  0  0
   39.7770   22.9460   35.0830 C   0  0  0  0  0  0  0  0  0  0  0  0
   40.8880   22.2270   35.3190 N   0  0  0  0  0  0  0  0  0  0  0  0
   38.4630   23.4720   38.4950 C   0  0  0  0  0  0  0  0  0  0  0  0
   37.2610   22.6080   38.7180 C   0  0  0  0  0  0  0  0  0  0  0  0
   38.0920   24.9040   38.1490 C   0  0  0  0  0  0  0  0  0  0  0  0
   38.0922   20.7682   33.9829 H   0  0  0  0  0  0  0  0  0  0  0  0
   35.9340   19.7733   33.4182 H   0  0  0  0  0  0  0  0  0  0  0  0
   34.2676   21.1084   32.0389 H   0  0  0  0  0  0  0  0  0  0  0  0
   34.9319   23.3915   31.3208 H   0  0  0  0  0  0  0  0  0  0  0  0
   36.3149   25.4611   33.5709 H   0  0  0  0  0  0  0  0  0  0  0  0
   37.0027   27.7894   32.8714 H   0  0  0  0  0  0  0  0  0  0  0  0
   38.8801   28.4365   29.7717 H   0  0  0  0  0  0  0  0  0  0  0  0
   38.1268   29.1591   31.2185 H   0  0  0  0  0  0  0  0  0  0  0  0
   42.1836   21.2961   36.6987 H   0  0  0  0  0  0  0  0  0  0  0  0
   40.7953   21.9958   38.6692 H   0  0  0  0  0  0  0  0  0  0  0  0
   38.9899   23.4111   39.4587 H   0  0  0  0  0  0  0  0  0  0  0  0
   37.0920   22.4865   39.7981 H   0  0  0  0  0  0  0  0  0  0  0  0
   36.3797   23.0806   38.2599 H   0  0  0  0  0  0  0  0  0  0  0  0
   37.4281   21.6220   38.2599 H   0  0  0  0  0  0  0  0  0  0  0  0
   37.9432   25.4783   39.0753 H   0  0  0  0  0  0  0  0  0  0  0  0
   38.9015   25.3605   37.5606 H   0  0  0  0  0  0  0  0  0  0  0  0
   37.1626   24.9100   37.5606 H   0  0  0  0  0  0  0  0  0  0  0  0
  1  2  2  0
  1 15  1  0
  3  2  1  0
  4  3  2  0
  5  6  2  0
  5  4  1  0
  6  1  1  0
  7  6  1  0
  7  8  1  0
  9  8  2  0
 10  9  1  0
 11 10  1  0
 12 13  1  0
 12 10  2  0
 13  7  1  0
 14 13  2  0
 15 20  1  0
 16 17  2  0
 18 17  1  0
 18 22  1  0
 19 18  2  0
 20 21  2  0
 20 19  1  0
 21 16  1  0
 22 23  1  0
 24 22  1  0
  2 25  1  0
  3 26  1  0
  4 27  1  0
  5 28  1  0
  8 29  1  0
  9 30  1  0
 11 31  1  0
 11 32  1  0
 16 33  1  0
 17 34  1  0
 22 35  1  0
 23 36  1  0
 23 37  1  0
 23 38  1  0
 24 39  1  0
 24 40  1  0
 24 41  1  0
M  ISO  8  25  14  26  14  27  14  28  14  29  14  30  14  33  14  34  14
M  ISO  7  35   8  36   8  37   8  38   8  39   8  40   8  41   8
M  END
>  <minimizedAffinity>  (1) 
-5.18183613

>  <minimizedRMSD>  (1) 
1.50390017

$$$$
