
     RDKit          3D

 33 35  0  0  0  0  0  0  0  0999 V2000
   37.5800   22.1880   33.1090 C   0  0  0  0  0  0  0  0  0  0  0  0
   36.9820   21.2070   33.8450 C   0  0  0  0  0  0  0  0  0  0  0  0
   35.7150   20.7360   33.5840 C   0  0  0  0  0  0  0  0  0  0  0  0
   34.9900   21.2760   32.5180 C   0  0  0  0  0  0  0  0  0  0  0  0
   35.6120   22.2680   31.7850 C   0  0  0  0  0  0  0  0  0  0  0  0
   36.8620   22.7240   32.0510 C   0  0  0  0  0  0  0  0  0  0  0  0
   37.5000   23.7480   31.2900 N   0  0  0  0  0  0  0  0  0  0  0  0
   37.2390   25.0020   31.6620 C   0  0  0  0  0  0  0  0  0  0  0  0
   37.8480   26.0080   30.9360 C   0  0  0  0  0  0  0  0  0  0  0  0
   38.6640   25.6400   29.9030 C   0  0  0  0  0  0  0  0  0  0  0  0
   39.3220   26.6190   29.1170 N   0  0  0  0  0  0  0  0  0  0  0  0
   38.8850   24.3410   29.5810 N   0  0  0  0  0  0  0  0  0  0  0  0
   38.2920   23.3460   30.2870 C   0  0  0  0  0  0  0  0  0  0  0  0
   38.4680   22.1370   30.0230 O   0  0  0  0  0  0  0  0  0  0  0  0
   39.2490   22.8000   33.4600 S   0  0  0  0  0  0  0  0  0  0  0  0
   40.8670   21.9940   36.9810 C   0  0  0  0  0  0  0  0  0  0  0  0
   40.0680   22.6500   37.9040 C   0  0  0  0  0  0  0  0  0  0  0  0
   38.9890   23.3690   37.4300 C   0  0  0  0  0  0  0  0  0  0  0  0
   38.7410   23.4140   36.0820 N   0  0  0  0  0  0  0  0  0  0  0  0
   39.5450   22.7600   35.2080 C   0  0  0  0  0  0  0  0  0  0  0  0
   40.5920   22.0620   35.6730 N   0  0  0  0  0  0  0  0  0  0  0  0
   37.9650   24.2080   38.6040 S   0  0  0  0  0  0  0  0  0  0  0  0
   37.5391   20.7714   34.6876 H   0  0  0  0  0  0  0  0  0  0  0  0
   35.2777   19.9427   34.2081 H   0  0  0  0  0  0  0  0  0  0  0  0
   33.9750   20.9285   32.2749 H   0  0  0  0  0  0  0  0  0  0  0  0
   35.0647   22.7120   30.9405 H   0  0  0  0  0  0  0  0  0  0  0  0
   36.5706   25.2249   32.5067 H   0  0  0  0  0  0  0  0  0  0  0  0
   37.6819   27.0675   31.1808 H   0  0  0  0  0  0  0  0  0  0  0  0
   39.9346   26.3300   28.3410 H   0  0  0  0  0  0  0  0  0  0  0  0
   39.1876   27.6194   29.3218 H   0  0  0  0  0  0  0  0  0  0  0  0
   41.7345   21.4125   37.3264 H   0  0  0  0  0  0  0  0  0  0  0  0
   40.2868   22.5994   38.9808 H   0  0  0  0  0  0  0  0  0  0  0  0
   38.3636   23.8814   39.8734 H   0  0  0  0  0  0  0  0  0  0  0  0
  1 15  1  0
  1  2  2  0
  3  2  1  0
  4  3  2  0
  5  6  2  0
  5  4  1  0
  6  1  1  0
  7  8  1  0
  7  6  1  0
  9  8  2  0
 10  9  1  0
 11 10  1  0
 12 10  2  0
 12 13  1  0
 13  7  1  0
 14 13  2  0
 15 20  1  0
 16 17  2  0
 18 17  1  0
 18 22  1  0
 19 18  2  0
 20 21  2  0
 20 19  1  0
 21 16  1  0
  2 23  1  0
  3 24  1  0
  4 25  1  0
  5 26  1  0
  8 27  1  0
  9 28  1  0
 11 29  1  0
 11 30  1  0
 16 31  1  0
 17 32  1  0
 22 33  1  0
M  ISO  8  23  14  24  14  25  14  26  14  27  14  28  14  31  14  32  14
M  ISO  1  33  11
M  END
>  <minimizedAffinity>  (1) 
-5.00092793

>  <minimizedRMSD>  (1) 
0.97743237

$$$$
