
     RDKit          3D

 46 49  0  0  0  0  0  0  0  0999 V2000
   37.8710   21.5860   32.2720 C   0  0  0  0  0  0  0  0  0  0  0  0
   37.1700   20.5640   32.8210 C   0  0  0  0  0  0  0  0  0  0  0  0
   35.8420   20.3450   32.5520 C   0  0  0  0  0  0  0  0  0  0  0  0
   35.1630   21.1900   31.6830 C   0  0  0  0  0  0  0  0  0  0  0  0
   35.9030   22.2290   31.1320 C   0  0  0  0  0  0  0  0  0  0  0  0
   37.2050   22.4400   31.4000 C   0  0  0  0  0  0  0  0  0  0  0  0
   37.9680   23.5110   30.8330 N   0  0  0  0  0  0  0  0  0  0  0  0
   37.8440   24.6960   31.4240 C   0  0  0  0  0  0  0  0  0  0  0  0
   38.5790   25.7350   30.8790 C   0  0  0  0  0  0  0  0  0  0  0  0
   39.3580   25.4720   29.7990 C   0  0  0  0  0  0  0  0  0  0  0  0
   40.1240   26.5060   29.2120 N   0  0  0  0  0  0  0  0  0  0  0  0
   39.4310   24.2360   29.2510 N   0  0  0  0  0  0  0  0  0  0  0  0
   38.7240   23.2080   29.7650 C   0  0  0  0  0  0  0  0  0  0  0  0
   38.7660   22.0470   29.2850 O   0  0  0  0  0  0  0  0  0  0  0  0
   39.6320   21.8690   32.6340 S   0  0  0  0  0  0  0  0  0  0  0  0
   41.0670   22.2290   36.3020 C   0  0  0  0  0  0  0  0  0  0  0  0
   40.1850   23.0720   36.9540 C   0  0  0  0  0  0  0  0  0  0  0  0
   39.1120   23.5470   36.2420 C   0  0  0  0  0  0  0  0  0  0  0  0
   38.9420   23.1850   34.9350 N   0  0  0  0  0  0  0  0  0  0  0  0
   39.8210   22.3600   34.3250 C   0  0  0  0  0  0  0  0  0  0  0  0
   40.8720   21.8930   35.0170 N   0  0  0  0  0  0  0  0  0  0  0  0
   37.9740   24.6320   37.0750 S   0  0  0  0  0  0  0  0  0  0  0  0
   38.1140   26.2320   36.2300 C   0  0  0  0  0  0  0  0  0  0  0  0
   37.2890   26.3040   34.9650 C   0  0  0  0  0  0  0  0  0  0  0  0
   38.0960   27.3400   34.1850 C   0  0  0  0  0  0  0  0  0  0  0  0
   39.4860   26.7750   34.2900 C   0  0  0  0  0  0  0  0  0  0  0  0
   39.5570   26.3570   35.7420 C   0  0  0  0  0  0  0  0  0  0  0  0
   37.6872   19.8813   33.5112 H   0  0  0  0  0  0  0  0  0  0  0  0
   35.3161   19.5018   33.0237 H   0  0  0  0  0  0  0  0  0  0  0  0
   34.0991   21.0446   31.4445 H   0  0  0  0  0  0  0  0  0  0  0  0
   35.3969   22.9169   30.4387 H   0  0  0  0  0  0  0  0  0  0  0  0
   37.1928   24.8426   32.2983 H   0  0  0  0  0  0  0  0  0  0  0  0
   38.5329   26.7462   31.3095 H   0  0  0  0  0  0  0  0  0  0  0  0
   40.7153   26.3071   28.3924 H   0  0  0  0  0  0  0  0  0  0  0  0
   40.0905   27.4579   29.6041 H   0  0  0  0  0  0  0  0  0  0  0  0
   41.9378   21.8296   36.8425 H   0  0  0  0  0  0  0  0  0  0  0  0
   40.3383   23.3520   38.0067 H   0  0  0  0  0  0  0  0  0  0  0  0
   37.7838   27.0051   36.9395 H   0  0  0  0  0  0  0  0  0  0  0  0
   37.2544   25.3359   34.4439 H   0  0  0  0  0  0  0  0  0  0  0  0
   36.2292   26.5576   35.1152 H   0  0  0  0  0  0  0  0  0  0  0  0
   38.0299   28.3346   34.6501 H   0  0  0  0  0  0  0  0  0  0  0  0
   37.7504   27.4941   33.1521 H   0  0  0  0  0  0  0  0  0  0  0  0
   39.6166   25.9120   33.6205 H   0  0  0  0  0  0  0  0  0  0  0  0
   40.2730   27.4859   33.9980 H   0  0  0  0  0  0  0  0  0  0  0  0
   40.0741   25.3905   35.8341 H   0  0  0  0  0  0  0  0  0  0  0  0
   40.1164   27.0915   36.3400 H   0  0  0  0  0  0  0  0  0  0  0  0
  1 15  1  0
  1  2  2  0
  3  2  1  0
  4  3  2  0
  5  6  2  0
  5  4  1  0
  6  1  1  0
  7  6  1  0
  7  8  1  0
  9  8  2  0
 10  9  1  0
 11 10  1  0
 12 13  1  0
 12 10  2  0
 13  7  1  0
 14 13  2  0
 15 20  1  0
 16 17  2  0
 18 17  1  0
 18 22  1  0
 19 18  2  0
 20 19  1  0
 20 21  2  0
 21 16  1  0
 23 22  1  0
 24 23  1  0
 25 26  1  0
 25 24  1  0
 26 27  1  0
 27 23  1  0
  2 28  1  0
  3 29  1  0
  4 30  1  0
  5 31  1  0
  8 32  1  0
  9 33  1  0
 11 34  1  0
 11 35  1  0
 16 36  1  0
 17 37  1  0
 23 38  1  0
 24 39  1  0
 24 40  1  0
 25 41  1  0
 25 42  1  0
 26 43  1  0
 26 44  1  0
 27 45  1  0
 27 46  1  0
M  ISO  8  28  14  29  14  30  14  31  14  32  14  33  14  36  14  37  14
M  ISO  8  38  13  39  13  40  13  41  13  42  13  43  13  44  13  45  13
M  ISO  1  46  13
M  END
>  <minimizedAffinity>  (1) 
-4.75189924

>  <minimizedRMSD>  (1) 
1.78770983

$$$$
