
     RDKit          3D

 40 43  0  0  0  0  0  0  0  0999 V2000
   36.7680   21.7390   33.3000 C   0  0  0  0  0  0  0  0  0  0  0  0
   36.2610   20.5860   33.8150 C   0  0  0  0  0  0  0  0  0  0  0  0
   35.3360   19.8000   33.1580 C   0  0  0  0  0  0  0  0  0  0  0  0
   34.8810   20.1930   31.8890 C   0  0  0  0  0  0  0  0  0  0  0  0
   35.4110   21.3690   31.3860 C   0  0  0  0  0  0  0  0  0  0  0  0
   36.3200   22.1330   32.0420 C   0  0  0  0  0  0  0  0  0  0  0  0
   36.8560   23.3420   31.5110 N   0  0  0  0  0  0  0  0  0  0  0  0
   36.2860   24.4720   31.9240 C   0  0  0  0  0  0  0  0  0  0  0  0
   36.7820   25.6590   31.4280 C   0  0  0  0  0  0  0  0  0  0  0  0
   37.8240   25.5670   30.5510 C   0  0  0  0  0  0  0  0  0  0  0  0
   38.4060   26.7360   29.9840 N   0  0  0  0  0  0  0  0  0  0  0  0
   38.3670   24.3790   30.1650 N   0  0  0  0  0  0  0  0  0  0  0  0
   37.8770   23.2160   30.6530 C   0  0  0  0  0  0  0  0  0  0  0  0
   38.3410   22.1060   30.3300 O   0  0  0  0  0  0  0  0  0  0  0  0
   37.9790   22.7570   34.1730 S   0  0  0  0  0  0  0  0  0  0  0  0
   41.0550   20.6490   32.8570 C   0  0  0  0  0  0  0  0  0  0  0  0
   42.0590   20.8600   33.7740 C   0  0  0  0  0  0  0  0  0  0  0  0
   41.7860   21.6850   34.8470 C   0  0  0  0  0  0  0  0  0  0  0  0
   40.5530   22.2550   34.9610 N   0  0  0  0  0  0  0  0  0  0  0  0
   39.5810   22.0270   34.0390 C   0  0  0  0  0  0  0  0  0  0  0  0
   39.8500   21.2250   32.9970 N   0  0  0  0  0  0  0  0  0  0  0  0
   43.0730   21.9610   36.0250 S   0  0  0  0  0  0  0  0  0  0  0  0
   43.1470   23.6220   36.6770 C   0  0  0  0  0  0  0  0  0  0  0  0
   43.5870   24.7660   35.8150 C   0  0  0  0  0  0  0  0  0  0  0  0
   44.5910   24.1840   36.7320 C   0  0  0  0  0  0  0  0  0  0  0  0
   36.6068   20.2631   34.8080 H   0  0  0  0  0  0  0  0  0  0  0  0
   34.9597   18.8768   33.6229 H   0  0  0  0  0  0  0  0  0  0  0  0
   34.1450   19.6000   31.3263 H   0  0  0  0  0  0  0  0  0  0  0  0
   35.0745   21.7043   30.3939 H   0  0  0  0  0  0  0  0  0  0  0  0
   35.4481   24.4591   32.6365 H   0  0  0  0  0  0  0  0  0  0  0  0
   36.3596   26.6306   31.7239 H   0  0  0  0  0  0  0  0  0  0  0  0
   39.1919   26.6516   29.3235 H   0  0  0  0  0  0  0  0  0  0  0  0
   38.0412   27.6662   30.2342 H   0  0  0  0  0  0  0  0  0  0  0  0
   41.2431   19.9957   31.9923 H   0  0  0  0  0  0  0  0  0  0  0  0
   43.0454   20.3876   33.6563 H   0  0  0  0  0  0  0  0  0  0  0  0
   42.2806   23.4786   37.3394 H   0  0  0  0  0  0  0  0  0  0  0  0
   43.6932   24.6179   34.7302 H   0  0  0  0  0  0  0  0  0  0  0  0
   43.2069   25.7850   35.6501 H   0  0  0  0  0  0  0  0  0  0  0  0
   44.9296   24.7510   37.6117 H   0  0  0  0  0  0  0  0  0  0  0  0
   45.6001   23.7605   36.6202 H   0  0  0  0  0  0  0  0  0  0  0  0
  1  2  2  0
  1 15  1  0
  3  2  1  0
  4  3  2  0
  5  4  1  0
  5  6  2  0
  6  1  1  0
  7  8  1  0
  7  6  1  0
  9  8  2  0
 10  9  1  0
 11 10  1  0
 12 10  2  0
 12 13  1  0
 13  7  1  0
 14 13  2  0
 16 21  2  0
 16 17  1  0
 17 18  2  0
 18 19  1  0
 18 22  1  0
 20 15  1  0
 20 19  2  0
 21 20  1  0
 22 23  1  0
 23 25  1  0
 24 23  1  0
 24 25  1  0
  2 26  1  0
  3 27  1  0
  4 28  1  0
  5 29  1  0
  8 30  1  0
  9 31  1  0
 11 32  1  0
 11 33  1  0
 16 34  1  0
 17 35  1  0
 23 36  1  0
 24 37  1  0
 24 38  1  0
 25 39  1  0
 25 40  1  0
M  ISO  8  26  14  27  14  28  14  29  14  30  14  31  14  34  14  35  14
M  ISO  5  36  13  37  13  38  13  39  13  40  13
M  END
>  <minimizedAffinity>  (1) 
-4.61730194

>  <minimizedRMSD>  (1) 
3.43275833

$$$$
