
     RDKit          3D

 33 35  0  0  1  0  0  0  0  0999 V2000
   40.0950   23.0810   35.2170 C   0  0  2  0  0  0  0  0  0  0  0  0
   38.5110   24.6600   36.3870 C   0  0  0  0  0  0  0  0  0  0  0  0
   39.4100   23.5630   36.3860 C   0  0  0  0  0  0  0  0  0  0  0  0
   39.5650   22.8940   37.5890 C   0  0  0  0  0  0  0  0  0  0  0  0
   38.8590   23.3060   38.7100 N   0  0  0  0  0  0  0  0  0  0  0  0
   38.0170   24.3600   38.6410 C   0  0  0  0  0  0  0  0  0  0  0  0
   37.8380   25.0420   37.4810 N   0  0  0  0  0  0  0  0  0  0  0  0
   40.4460   21.7890   37.7730 N   0  0  0  0  0  0  0  0  0  0  0  0
   41.3370   24.0210   35.0310 C   0  0  0  0  0  0  0  0  0  0  0  0
   39.2920   23.1100   33.9870 C   0  0  0  0  0  0  0  0  0  0  0  0
   37.8980   21.9610   34.0970 S   0  0  0  0  0  0  0  0  0  0  0  0
   35.5350   18.8610   31.1360 N   0  0  0  0  0  0  0  0  0  0  0  0
   34.8000   19.3860   32.1400 C   0  0  0  0  0  0  0  0  0  0  0  0
   35.5930   20.2000   32.8440 N   0  0  0  0  0  0  0  0  0  0  0  0
   36.8510   20.2290   32.3250 C   0  0  0  0  0  0  0  0  0  0  0  0
   38.0310   20.8950   32.6670 C   0  0  0  0  0  0  0  0  0  0  0  0
   39.1280   20.6670   31.8860 N   0  0  0  0  0  0  0  0  0  0  0  0
   39.0640   19.8300   30.8310 C   0  0  0  0  0  0  0  0  0  0  0  0
   37.9140   19.1850   30.5050 N   0  0  0  0  0  0  0  0  0  0  0  0
   36.7790   19.3670   31.2410 C   0  0  0  0  0  0  0  0  0  0  0  0
   40.3513   22.0231   35.3754 H   0  0  0  0  0  0  0  0  0  0  0  0
   38.3601   25.2197   35.4521 H   0  0  0  0  0  0  0  0  0  0  0  0
   37.4665   24.6713   39.5410 H   0  0  0  0  0  0  0  0  0  0  0  0
   40.5158   21.3339   38.6943 H   0  0  0  0  0  0  0  0  0  0  0  0
   41.0129   21.4455   36.9846 H   0  0  0  0  0  0  0  0  0  0  0  0
   41.7254   24.3149   36.0173 H   0  0  0  0  0  0  0  0  0  0  0  0
   42.1203   23.4875   34.4726 H   0  0  0  0  0  0  0  0  0  0  0  0
   41.0363   24.9198   34.4726 H   0  0  0  0  0  0  0  0  0  0  0  0
   39.9273   22.8247   33.1356 H   0  0  0  0  0  0  0  0  0  0  0  0
   38.8980   24.1277   33.8490 H   0  0  0  0  0  0  0  0  0  0  0  0
   35.2052   18.1963   30.4217 H   0  0  0  0  0  0  0  0  0  0  0  0
   33.7385   19.1805   32.3423 H   0  0  0  0  0  0  0  0  0  0  0  0
   39.9639   19.6657   30.2201 H   0  0  0  0  0  0  0  0  0  0  0  0
  1  3  1  0
  2  7  2  0
  3  2  1  0
  3  4  2  0
  4  8  1  0
  4  5  1  0
  6  5  2  0
  7  6  1  0
  9  1  1  0
 10 11  1  0
 10  1  1  0
 12 20  1  0
 12 13  1  0
 13 14  2  0
 15 16  2  0
 15 14  1  0
 16 11  1  0
 17 16  1  0
 18 17  2  0
 19 18  1  0
 19 20  2  0
 20 15  1  0
  1 21  1  1
  2 22  1  0
  6 23  1  0
  8 24  1  0
  8 25  1  0
  9 26  1  0
  9 27  1  0
  9 28  1  0
 10 29  1  0
 10 30  1  0
 12 31  1  0
 13 32  1  0
 18 33  1  0
M  ISO  8  21   8  22  14  23  14  26   8  27   8  28   8  29   8  30   8
M  ISO  3  31   9  32  14  33  14
M  END
>  <minimizedAffinity>  (1) 
-4.81910324

>  <minimizedRMSD>  (1) 
2.40704441

$$$$
