
     RDKit          3D

 30 31  0  0  1  0  0  0  0  0999 V2000
   39.8470   23.0020   35.2680 C   0  0  2  0  0  0  0  0  0  0  0  0
   38.4040   24.6630   36.4550 C   0  0  0  0  0  0  0  0  0  0  0  0
   39.2790   23.5470   36.4590 C   0  0  0  0  0  0  0  0  0  0  0  0
   39.5120   22.9320   37.6750 C   0  0  0  0  0  0  0  0  0  0  0  0
   38.8870   23.4300   38.8140 N   0  0  0  0  0  0  0  0  0  0  0  0
   38.0610   24.4970   38.7500 C   0  0  0  0  0  0  0  0  0  0  0  0
   37.8160   25.1210   37.5690 N   0  0  0  0  0  0  0  0  0  0  0  0
   40.3820   21.8330   37.8590 N   0  0  0  0  0  0  0  0  0  0  0  0
   40.9350   24.0250   34.7860 C   0  0  0  0  0  0  0  0  0  0  0  0
   38.8990   22.7470   34.1740 C   0  0  0  0  0  0  0  0  0  0  0  0
   37.4960   21.7830   34.7520 S   0  0  0  0  0  0  0  0  0  0  0  0
   36.7140   21.0700   33.3130 C   0  0  0  0  0  0  0  0  0  0  0  0
   35.4840   20.4200   33.3110 C   0  0  0  0  0  0  0  0  0  0  0  0
   35.0050   19.9180   32.1210 C   0  0  0  0  0  0  0  0  0  0  0  0
   35.6880   20.0380   30.9670 N   0  0  0  0  0  0  0  0  0  0  0  0
   36.8750   20.6670   30.9680 C   0  0  0  0  0  0  0  0  0  0  0  0
   37.3710   21.1700   32.1240 N   0  0  0  0  0  0  0  0  0  0  0  0
   40.2502   22.0097   35.5185 H   0  0  0  0  0  0  0  0  0  0  0  0
   38.2001   25.1721   35.5015 H   0  0  0  0  0  0  0  0  0  0  0  0
   37.5798   24.8658   39.6679 H   0  0  0  0  0  0  0  0  0  0  0  0
   40.5060   21.4257   38.7969 H   0  0  0  0  0  0  0  0  0  0  0  0
   40.8918   21.4395   37.0552 H   0  0  0  0  0  0  0  0  0  0  0  0
   41.4213   24.4822   35.6603 H   0  0  0  0  0  0  0  0  0  0  0  0
   41.6884   23.5006   34.1799 H   0  0  0  0  0  0  0  0  0  0  0  0
   40.4579   24.8093   34.1799 H   0  0  0  0  0  0  0  0  0  0  0  0
   39.4123   22.1923   33.3747 H   0  0  0  0  0  0  0  0  0  0  0  0
   38.5304   23.7122   33.7964 H   0  0  0  0  0  0  0  0  0  0  0  0
   34.9060   20.3092   34.2403 H   0  0  0  0  0  0  0  0  0  0  0  0
   34.0333   19.4025   32.1134 H   0  0  0  0  0  0  0  0  0  0  0  0
   37.4431   20.7734   30.0321 H   0  0  0  0  0  0  0  0  0  0  0  0
  1  3  1  0
  2  3  2  0
  2  7  1  0
  3  4  1  0
  4  8  1  0
  4  5  2  0
  6  5  1  0
  7  6  2  0
  9  1  1  0
 10 11  1  0
 10  1  1  0
 12 11  1  0
 13 12  2  0
 14 13  1  0
 15 16  1  0
 15 14  2  0
 16 17  2  0
 17 12  1  0
  1 18  1  1
  2 19  1  0
  6 20  1  0
  8 21  1  0
  8 22  1  0
  9 23  1  0
  9 24  1  0
  9 25  1  0
 10 26  1  0
 10 27  1  0
 13 28  1  0
 14 29  1  0
 16 30  1  0
M  ISO  8  18   8  19  14  20  14  23   8  24   8  25   8  26   8  27   8
M  ISO  3  28  14  29  14  30  14
M  END
>  <minimizedAffinity>  (1) 
-4.48274899

>  <minimizedRMSD>  (1) 
2.96935678

$$$$
