
     RDKit          3D

 36 38  0  0  1  0  0  0  0  0999 V2000
   40.4550   23.1610   35.2090 C   0  0  2  0  0  0  0  0  0  0  0  0
   38.7340   24.6640   36.2240 C   0  0  0  0  0  0  0  0  0  0  0  0
   39.6390   23.5760   36.3040 C   0  0  0  0  0  0  0  0  0  0  0  0
   39.6540   22.8590   37.4860 C   0  0  0  0  0  0  0  0  0  0  0  0
   38.7950   23.2380   38.5130 N   0  0  0  0  0  0  0  0  0  0  0  0
   37.9540   24.2880   38.3740 C   0  0  0  0  0  0  0  0  0  0  0  0
   37.9190   25.0100   37.2240 N   0  0  0  0  0  0  0  0  0  0  0  0
   40.4960   21.7590   37.7410 N   0  0  0  0  0  0  0  0  0  0  0  0
   41.6550   24.1670   35.1360 C   0  0  0  0  0  0  0  0  0  0  0  0
   39.7880   23.1000   33.9010 C   0  0  0  0  0  0  0  0  0  0  0  0
   38.3790   21.9700   33.9470 S   0  0  0  0  0  0  0  0  0  0  0  0
   37.1650   22.3780   32.7140 C   0  0  0  0  0  0  0  0  0  0  0  0
   36.3580   21.6260   31.8770 C   0  0  0  0  0  0  0  0  0  0  0  0
   35.5970   22.4310   31.1130 N   0  0  0  0  0  0  0  0  0  0  0  0
   35.8600   23.7250   31.4030 C   0  0  0  0  0  0  0  0  0  0  0  0
   35.3680   24.9230   30.9210 C   0  0  0  0  0  0  0  0  0  0  0  0
   35.8190   26.1310   31.4020 C   0  0  0  0  0  0  0  0  0  0  0  0
   36.7890   26.1160   32.3940 C   0  0  0  0  0  0  0  0  0  0  0  0
   37.2700   24.9090   32.8640 C   0  0  0  0  0  0  0  0  0  0  0  0
   36.8230   23.6890   32.3870 C   0  0  0  0  0  0  0  0  0  0  0  0
   40.7582   22.1222   35.4066 H   0  0  0  0  0  0  0  0  0  0  0  0
   38.7014   25.2511   35.2944 H   0  0  0  0  0  0  0  0  0  0  0  0
   37.2878   24.5616   39.2054 H   0  0  0  0  0  0  0  0  0  0  0  0
   40.4493   21.2741   38.6485 H   0  0  0  0  0  0  0  0  0  0  0  0
   41.1585   21.4395   37.0199 H   0  0  0  0  0  0  0  0  0  0  0  0
   41.9727   24.4333   36.1549 H   0  0  0  0  0  0  0  0  0  0  0  0
   42.4942   23.6985   34.6009 H   0  0  0  0  0  0  0  0  0  0  0  0
   41.3402   25.0751   34.6009 H   0  0  0  0  0  0  0  0  0  0  0  0
   40.5069   22.7485   33.1463 H   0  0  0  0  0  0  0  0  0  0  0  0
   39.4233   24.1058   33.6455 H   0  0  0  0  0  0  0  0  0  0  0  0
   36.3413   20.5267   31.8416 H   0  0  0  0  0  0  0  0  0  0  0  0
   34.9152   22.1090   30.4113 H   0  0  0  0  0  0  0  0  0  0  0  0
   34.5985   24.9108   30.1351 H   0  0  0  0  0  0  0  0  0  0  0  0
   35.4224   27.0799   31.0117 H   0  0  0  0  0  0  0  0  0  0  0  0
   37.1735   27.0613   32.8046 H   0  0  0  0  0  0  0  0  0  0  0  0
   38.0399   24.9180   33.6496 H   0  0  0  0  0  0  0  0  0  0  0  0
  1  3  1  0
  2  3  2  0
  2  7  1  0
  3  4  1  0
  4  8  1  0
  4  5  2  0
  6  5  1  0
  7  6  2  0
  9  1  1  0
 10 11  1  0
 10  1  1  0
 12 11  1  0
 13 12  2  0
 14 15  1  0
 14 13  1  0
 15 20  2  0
 16 17  2  0
 16 15  1  0
 17 18  1  0
 18 19  2  0
 20 12  1  0
 20 19  1  0
  1 21  1  1
  2 22  1  0
  6 23  1  0
  8 24  1  0
  8 25  1  0
  9 26  1  0
  9 27  1  0
  9 28  1  0
 10 29  1  0
 10 30  1  0
 13 31  1  0
 14 32  1  0
 16 33  1  0
 17 34  1  0
 18 35  1  0
 19 36  1  0
M  ISO  8  21   8  22  14  23  14  26   8  27   8  28   8  29   8  30   8
M  ISO  6  31  14  32   9  33  14  34  14  35  14  36  14
M  END
>  <minimizedAffinity>  (1) 
-5.34366655

>  <minimizedRMSD>  (1) 
0.961264908

$$$$
