
     RDKit          3D

 38 39  0  0  1  0  0  0  0  0999 V2000
   40.0800   23.1510   35.2820 C   0  0  2  0  0  0  0  0  0  0  0  0
   38.5460   24.7400   36.4530 C   0  0  0  0  0  0  0  0  0  0  0  0
   39.4210   23.6260   36.4540 C   0  0  0  0  0  0  0  0  0  0  0  0
   39.5640   22.9450   37.6500 C   0  0  0  0  0  0  0  0  0  0  0  0
   38.8540   23.3800   38.7630 N   0  0  0  0  0  0  0  0  0  0  0  0
   38.0320   24.4520   38.6940 C   0  0  0  0  0  0  0  0  0  0  0  0
   37.8740   25.1360   37.5430 N   0  0  0  0  0  0  0  0  0  0  0  0
   40.4210   21.8350   37.8400 N   0  0  0  0  0  0  0  0  0  0  0  0
   41.0810   24.2810   34.8440 C   0  0  0  0  0  0  0  0  0  0  0  0
   39.2000   22.8160   34.1570 C   0  0  0  0  0  0  0  0  0  0  0  0
   37.7530   21.9010   34.7480 S   0  0  0  0  0  0  0  0  0  0  0  0
   37.0100   21.1380   33.2550 C   0  0  0  0  0  0  0  0  0  0  0  0
   37.1040   22.0690   32.0790 C   0  0  0  0  0  0  0  0  0  0  0  0
   35.6870   22.2900   31.5370 C   0  0  0  0  0  0  0  0  0  0  0  0
   35.1240   20.9550   31.1160 C   0  0  0  0  0  0  0  0  0  0  0  0
   35.1610   19.9620   32.2390 C   0  0  0  0  0  0  0  0  0  0  0  0
   35.6050   20.6480   33.5170 C   0  0  0  0  0  0  0  0  0  0  0  0
   40.5705   22.2008   35.5400 H   0  0  0  0  0  0  0  0  0  0  0  0
   38.4124   25.3040   35.5181 H   0  0  0  0  0  0  0  0  0  0  0  0
   37.4831   24.7711   39.5923 H   0  0  0  0  0  0  0  0  0  0  0  0
   40.4750   21.3778   38.7614 H   0  0  0  0  0  0  0  0  0  0  0  0
   40.9908   21.4843   37.0569 H   0  0  0  0  0  0  0  0  0  0  0  0
   41.5061   24.7609   35.7378 H   0  0  0  0  0  0  0  0  0  0  0  0
   41.8910   23.8409   34.2438 H   0  0  0  0  0  0  0  0  0  0  0  0
   40.5464   25.0320   34.2438 H   0  0  0  0  0  0  0  0  0  0  0  0
   39.7523   22.1962   33.4353 H   0  0  0  0  0  0  0  0  0  0  0  0
   38.8648   23.7455   33.6735 H   0  0  0  0  0  0  0  0  0  0  0  0
   37.5927   20.2415   32.9966 H   0  0  0  0  0  0  0  0  0  0  0  0
   37.5365   23.0293   32.3965 H   0  0  0  0  0  0  0  0  0  0  0  0
   37.7488   21.6370   31.2995 H   0  0  0  0  0  0  0  0  0  0  0  0
   35.0536   22.7295   32.3216 H   0  0  0  0  0  0  0  0  0  0  0  0
   35.7140   22.9764   30.6779 H   0  0  0  0  0  0  0  0  0  0  0  0
   34.0808   21.0925   30.7952 H   0  0  0  0  0  0  0  0  0  0  0  0
   35.7401   20.5659   30.2920 H   0  0  0  0  0  0  0  0  0  0  0  0
   34.1571   19.5360   32.3830 H   0  0  0  0  0  0  0  0  0  0  0  0
   35.8720   19.1600   31.9914 H   0  0  0  0  0  0  0  0  0  0  0  0
   35.5977   19.9366   34.3560 H   0  0  0  0  0  0  0  0  0  0  0  0
   34.9318   21.4749   33.7873 H   0  0  0  0  0  0  0  0  0  0  0  0
  1  3  1  0
  2  3  2  0
  2  7  1  0
  3  4  1  0
  4  8  1  0
  4  5  2  0
  6  5  1  0
  7  6  2  0
  9  1  1  0
 10 11  1  0
 10  1  1  0
 12 17  1  0
 12 11  1  0
 13 12  1  0
 14 13  1  0
 15 14  1  0
 15 16  1  0
 16 17  1  0
  1 18  1  1
  2 19  1  0
  6 20  1  0
  8 21  1  0
  8 22  1  0
  9 23  1  0
  9 24  1  0
  9 25  1  0
 10 26  1  0
 10 27  1  0
 12 28  1  0
 13 29  1  0
 13 30  1  0
 14 31  1  0
 14 32  1  0
 15 33  1  0
 15 34  1  0
 16 35  1  0
 16 36  1  0
 17 37  1  0
 17 38  1  0
M  ISO  8  18   8  19  14  20  14  23   8  24   8  25   8  26   8  27   8
M  ISO  8  28  13  29  13  30  13  31  13  32  13  33  13  34  13  35  13
M  ISO  3  36  13  37  13  38  13
M  END
>  <minimizedAffinity>  (1) 
-4.77385616

>  <minimizedRMSD>  (1) 
2.83622193

$$$$
