
     RDKit          3D

 29 30  0  0  1  0  0  0  0  0999 V2000
   39.8280   23.0140   35.2230 C   0  0  2  0  0  0  0  0  0  0  0  0
   38.3810   24.6740   36.4550 C   0  0  0  0  0  0  0  0  0  0  0  0
   39.2580   23.5620   36.4400 C   0  0  0  0  0  0  0  0  0  0  0  0
   39.5030   22.9400   37.6490 C   0  0  0  0  0  0  0  0  0  0  0  0
   38.8920   23.4210   38.7980 N   0  0  0  0  0  0  0  0  0  0  0  0
   38.0670   24.4820   38.7470 C   0  0  0  0  0  0  0  0  0  0  0  0
   37.8090   25.1110   37.5860 N   0  0  0  0  0  0  0  0  0  0  0  0
   40.3830   21.8290   37.8100 N   0  0  0  0  0  0  0  0  0  0  0  0
   40.9160   24.0330   34.7630 C   0  0  0  0  0  0  0  0  0  0  0  0
   38.8440   22.7850   34.1510 C   0  0  0  0  0  0  0  0  0  0  0  0
   37.5200   21.7130   34.7240 S   0  0  0  0  0  0  0  0  0  0  0  0
   36.4540   21.3670   33.3110 C   0  0  0  0  0  0  0  0  0  0  0  0
   35.4480   20.3970   33.3050 C   0  0  0  0  0  0  0  0  0  0  0  0
   34.8250   20.4000   32.0570 C   0  0  0  0  0  0  0  0  0  0  0  0
   35.4980   21.3860   31.3700 C   0  0  0  0  0  0  0  0  0  0  0  0
   36.4240   21.9270   32.1020 O   0  0  0  0  0  0  0  0  0  0  0  0
   40.2420   22.0167   35.4327 H   0  0  0  0  0  0  0  0  0  0  0  0
   38.1627   25.1945   35.5108 H   0  0  0  0  0  0  0  0  0  0  0  0
   37.5941   24.8425   39.6724 H   0  0  0  0  0  0  0  0  0  0  0  0
   40.5206   21.4118   38.7416 H   0  0  0  0  0  0  0  0  0  0  0  0
   40.8808   21.4440   36.9946 H   0  0  0  0  0  0  0  0  0  0  0  0
   41.3949   24.4815   35.6459 H   0  0  0  0  0  0  0  0  0  0  0  0
   41.6741   23.5125   34.1594 H   0  0  0  0  0  0  0  0  0  0  0  0
   40.4462   24.8235   34.1594 H   0  0  0  0  0  0  0  0  0  0  0  0
   39.3465   22.3122   33.2943 H   0  0  0  0  0  0  0  0  0  0  0  0
   38.4128   23.7523   33.8536 H   0  0  0  0  0  0  0  0  0  0  0  0
   35.1895   19.7384   34.1473 H   0  0  0  0  0  0  0  0  0  0  0  0
   33.9962   19.7675   31.7061 H   0  0  0  0  0  0  0  0  0  0  0  0
   35.2787   21.6782   30.3324 H   0  0  0  0  0  0  0  0  0  0  0  0
  1  3  1  0
  2  7  2  0
  3  2  1  0
  3  4  2  0
  4  8  1  0
  4  5  1  0
  6  5  2  0
  7  6  1  0
  9  1  1  0
 10 11  1  0
 10  1  1  0
 12 11  1  0
 13 12  2  0
 14 13  1  0
 15 14  2  0
 15 16  1  0
 16 12  1  0
  1 17  1  1
  2 18  1  0
  6 19  1  0
  8 20  1  0
  8 21  1  0
  9 22  1  0
  9 23  1  0
  9 24  1  0
 10 25  1  0
 10 26  1  0
 13 27  1  0
 14 28  1  0
 15 29  1  0
M  ISO  8  17   8  18  14  19  14  22   8  23   8  24   8  25   8  26   8
M  ISO  3  27  14  28  14  29  14
M  END
>  <minimizedAffinity>  (1) 
-4.49292088

>  <minimizedRMSD>  (1) 
2.9150846

$$$$
