
     RDKit          3D

 38 40  0  0  1  0  0  0  0  0999 V2000
   40.3620   23.1770   35.2630 C   0  0  2  0  0  0  0  0  0  0  0  0
   38.6410   24.6560   36.3220 C   0  0  0  0  0  0  0  0  0  0  0  0
   39.5690   23.5840   36.3790 C   0  0  0  0  0  0  0  0  0  0  0  0
   39.6370   22.8710   37.5630 C   0  0  0  0  0  0  0  0  0  0  0  0
   38.8070   23.2340   38.6180 N   0  0  0  0  0  0  0  0  0  0  0  0
   37.9410   24.2670   38.5040 C   0  0  0  0  0  0  0  0  0  0  0  0
   37.8530   24.9850   37.3540 N   0  0  0  0  0  0  0  0  0  0  0  0
   40.5100   21.7890   37.7950 N   0  0  0  0  0  0  0  0  0  0  0  0
   41.6350   24.0930   35.2640 C   0  0  0  0  0  0  0  0  0  0  0  0
   39.7020   23.2590   33.9520 C   0  0  0  0  0  0  0  0  0  0  0  0
   38.5770   21.8740   33.7010 S   0  0  0  0  0  0  0  0  0  0  0  0
   39.3160   20.7910   32.4790 C   0  0  0  0  0  0  0  0  0  0  0  0
   40.6270   20.3990   32.3490 C   0  0  0  0  0  0  0  0  0  0  0  0
   40.9830   19.5510   31.3350 C   0  0  0  0  0  0  0  0  0  0  0  0
   40.0940   19.0520   30.4140 C   0  0  0  0  0  0  0  0  0  0  0  0
   38.7760   19.4430   30.5410 C   0  0  0  0  0  0  0  0  0  0  0  0
   37.8990   18.9310   29.6080 C   0  0  0  0  0  0  0  0  0  0  0  0
   36.5710   19.2730   29.6700 C   0  0  0  0  0  0  0  0  0  0  0  0
   36.1300   20.1290   30.6710 C   0  0  0  0  0  0  0  0  0  0  0  0
   37.0460   20.6070   31.5690 C   0  0  0  0  0  0  0  0  0  0  0  0
   38.3900   20.2970   31.5550 C   0  0  0  0  0  0  0  0  0  0  0  0
   40.5846   22.1073   35.3900 H   0  0  0  0  0  0  0  0  0  0  0  0
   38.5657   25.2403   35.3930 H   0  0  0  0  0  0  0  0  0  0  0  0
   37.2975   24.5300   39.3565 H   0  0  0  0  0  0  0  0  0  0  0  0
   40.5021   21.3069   38.7052 H   0  0  0  0  0  0  0  0  0  0  0  0
   41.1559   21.4804   37.0544 H   0  0  0  0  0  0  0  0  0  0  0  0
   41.9321   24.3068   36.3013 H   0  0  0  0  0  0  0  0  0  0  0  0
   42.4575   23.5783   34.7457 H   0  0  0  0  0  0  0  0  0  0  0  0
   41.4083   25.0364   34.7457 H   0  0  0  0  0  0  0  0  0  0  0  0
   39.1327   24.1985   33.8950 H   0  0  0  0  0  0  0  0  0  0  0  0
   40.4751   23.2259   33.1702 H   0  0  0  0  0  0  0  0  0  0  0  0
   41.3861   20.7648   33.0560 H   0  0  0  0  0  0  0  0  0  0  0  0
   42.0386   19.2528   31.2531 H   0  0  0  0  0  0  0  0  0  0  0  0
   40.4175   18.3721   29.6121 H   0  0  0  0  0  0  0  0  0  0  0  0
   38.2608   18.2538   28.8203 H   0  0  0  0  0  0  0  0  0  0  0  0
   35.8609   18.8718   28.9319 H   0  0  0  0  0  0  0  0  0  0  0  0
   35.0703   20.4159   30.7405 H   0  0  0  0  0  0  0  0  0  0  0  0
   36.6853   21.2853   32.3563 H   0  0  0  0  0  0  0  0  0  0  0  0
  1  9  1  0
  1  3  1  0
  2  3  2  0
  2  7  1  0
  3  4  1  0
  4  8  1  0
  4  5  2  0
  6  5  1  0
  7  6  2  0
 10  1  1  0
 11 10  1  0
 12 11  1  0
 13 12  2  0
 14 13  1  0
 15 16  1  0
 15 14  2  0
 16 21  2  0
 17 18  2  0
 17 16  1  0
 18 19  1  0
 19 20  2  0
 21 20  1  0
 21 12  1  0
  1 22  1  1
  2 23  1  0
  6 24  1  0
  8 25  1  0
  8 26  1  0
  9 27  1  0
  9 28  1  0
  9 29  1  0
 10 30  1  0
 10 31  1  0
 13 32  1  0
 14 33  1  0
 15 34  1  0
 17 35  1  0
 18 36  1  0
 19 37  1  0
 20 38  1  0
M  ISO  8  22   8  23  14  24  14  27   8  28   8  29   8  30   8  31   8
M  ISO  7  32  14  33  14  34  14  35  14  36  14  37  14  38  14
M  END
>  <minimizedAffinity>  (1) 
-4.57650852

>  <minimizedRMSD>  (1) 
1.60650802

$$$$
