
     RDKit          3D

 29 30  0  0  1  0  0  0  0  0999 V2000
   40.2930   23.0740   35.2090 C   0  0  2  0  0  0  0  0  0  0  0  0
   38.6080   24.5790   36.2870 C   0  0  0  0  0  0  0  0  0  0  0  0
   39.5410   23.5110   36.3420 C   0  0  0  0  0  0  0  0  0  0  0  0
   39.6480   22.8360   37.5430 C   0  0  0  0  0  0  0  0  0  0  0  0
   38.8490   23.2280   38.6150 N   0  0  0  0  0  0  0  0  0  0  0  0
   37.9780   24.2550   38.4960 C   0  0  0  0  0  0  0  0  0  0  0  0
   37.8490   24.9390   37.3300 N   0  0  0  0  0  0  0  0  0  0  0  0
   40.5380   21.7700   37.7800 N   0  0  0  0  0  0  0  0  0  0  0  0
   41.6110   23.9220   35.2000 C   0  0  0  0  0  0  0  0  0  0  0  0
   39.6200   23.2070   33.9110 C   0  0  0  0  0  0  0  0  0  0  0  0
   39.0040   21.6030   33.3440 S   0  0  0  0  0  0  0  0  0  0  0  0
   37.2830   21.6940   32.8770 C   0  0  0  0  0  0  0  0  0  0  0  0
   36.0790   21.0590   33.2050 C   0  0  0  0  0  0  0  0  0  0  0  0
   35.1180   21.6300   32.4540 N   0  0  0  0  0  0  0  0  0  0  0  0
   35.6520   22.5850   31.6730 C   0  0  0  0  0  0  0  0  0  0  0  0
   36.9740   22.6270   31.9290 N   0  0  0  0  0  0  0  0  0  0  0  0
   40.4590   21.9923   35.3205 H   0  0  0  0  0  0  0  0  0  0  0  0
   38.5035   25.1366   35.3446 H   0  0  0  0  0  0  0  0  0  0  0  0
   37.3617   24.5422   39.3607 H   0  0  0  0  0  0  0  0  0  0  0  0
   40.5614   21.3142   38.7034 H   0  0  0  0  0  0  0  0  0  0  0  0
   41.1653   21.4464   37.0299 H   0  0  0  0  0  0  0  0  0  0  0  0
   41.9244   24.1236   36.2350 H   0  0  0  0  0  0  0  0  0  0  0  0
   42.4028   23.3635   34.6794 H   0  0  0  0  0  0  0  0  0  0  0  0
   41.4309   24.8741   34.6794 H   0  0  0  0  0  0  0  0  0  0  0  0
   38.7746   23.9035   34.0121 H   0  0  0  0  0  0  0  0  0  0  0  0
   40.3427   23.5891   33.1750 H   0  0  0  0  0  0  0  0  0  0  0  0
   35.9439   20.2486   33.9364 H   0  0  0  0  0  0  0  0  0  0  0  0
   35.1084   23.2172   30.9554 H   0  0  0  0  0  0  0  0  0  0  0  0
   37.6471   23.2640   31.4795 H   0  0  0  0  0  0  0  0  0  0  0  0
  1  3  1  0
  2  3  2  0
  2  7  1  0
  3  4  1  0
  4  8  1  0
  4  5  2  0
  6  5  1  0
  7  6  2  0
  9  1  1  0
 10  1  1  0
 11 10  1  0
 12 13  2  0
 12 11  1  0
 14 13  1  0
 15 16  1  0
 15 14  2  0
 16 12  1  0
  1 17  1  1
  2 18  1  0
  6 19  1  0
  8 20  1  0
  8 21  1  0
  9 22  1  0
  9 23  1  0
  9 24  1  0
 10 25  1  0
 10 26  1  0
 13 27  1  0
 15 28  1  0
 16 29  1  0
M  ISO  8  17   8  18  14  19  14  22   8  23   8  24   8  25   8  26   8
M  ISO  3  27  14  28  14  29   9
M  END
>  <minimizedAffinity>  (1) 
-4.269382

>  <minimizedRMSD>  (1) 
1.81504202

$$$$
