
     RDKit          3D

 27 28  0  0  1  0  0  0  0  0999 V2000
   40.3340   23.0440   35.2230 C   0  0  2  0  0  0  0  0  0  0  0  0
   38.6410   24.5670   36.2400 C   0  0  0  0  0  0  0  0  0  0  0  0
   39.5580   23.5040   36.3280 C   0  0  0  0  0  0  0  0  0  0  0  0
   39.6370   22.8450   37.5510 C   0  0  0  0  0  0  0  0  0  0  0  0
   38.8270   23.2550   38.6040 N   0  0  0  0  0  0  0  0  0  0  0  0
   37.9720   24.2790   38.4500 C   0  0  0  0  0  0  0  0  0  0  0  0
   37.8690   24.9370   37.2850 N   0  0  0  0  0  0  0  0  0  0  0  0
   40.4990   21.7620   37.8190 N   0  0  0  0  0  0  0  0  0  0  0  0
   41.6770   23.8670   35.2420 C   0  0  0  0  0  0  0  0  0  0  0  0
   39.6880   23.1680   33.9170 C   0  0  0  0  0  0  0  0  0  0  0  0
   38.4080   21.9380   33.6700 S   0  0  0  0  0  0  0  0  0  0  0  0
   37.1090   22.6800   32.6640 C   0  0  0  0  0  0  0  0  0  0  0  0
   35.9380   22.4070   32.0700 N   0  0  0  0  0  0  0  0  0  0  0  0
   35.4470   23.5250   31.5670 O   0  0  0  0  0  0  0  0  0  0  0  0
   36.2520   24.5410   31.8000 C   0  0  0  0  0  0  0  0  0  0  0  0
   37.3050   24.0130   32.4910 N   0  0  0  0  0  0  0  0  0  0  0  0
   40.4890   21.9620   35.3468 H   0  0  0  0  0  0  0  0  0  0  0  0
   38.5496   25.1143   35.2902 H   0  0  0  0  0  0  0  0  0  0  0  0
   37.3418   24.5853   39.2980 H   0  0  0  0  0  0  0  0  0  0  0  0
   40.5013   21.3241   38.7513 H   0  0  0  0  0  0  0  0  0  0  0  0
   41.1265   21.4087   37.0825 H   0  0  0  0  0  0  0  0  0  0  0  0
   41.9789   24.0520   36.2834 H   0  0  0  0  0  0  0  0  0  0  0  0
   42.4642   23.2960   34.7279 H   0  0  0  0  0  0  0  0  0  0  0  0
   41.5257   24.8276   34.7279 H   0  0  0  0  0  0  0  0  0  0  0  0
   39.2368   24.1682   33.8393 H   0  0  0  0  0  0  0  0  0  0  0  0
   40.4568   23.0123   33.1458 H   0  0  0  0  0  0  0  0  0  0  0  0
   36.1072   25.5899   31.5020 H   0  0  0  0  0  0  0  0  0  0  0  0
  1  9  1  0
  1  3  1  0
  2  3  2  0
  2  7  1  0
  3  4  1  0
  4  8  1  0
  4  5  2  0
  6  5  1  0
  7  6  2  0
 10  1  1  0
 11 10  1  0
 12 11  1  0
 13 12  2  0
 14 15  1  0
 14 13  1  0
 15 16  2  0
 16 12  1  0
  1 17  1  1
  2 18  1  0
  6 19  1  0
  8 20  1  0
  8 21  1  0
  9 22  1  0
  9 23  1  0
  9 24  1  0
 10 25  1  0
 10 26  1  0
 15 27  1  0
M  ISO  8  17   8  18  14  19  14  22   8  23   8  24   8  25   8  26   8
M  ISO  1  27  14
M  END
>  <minimizedAffinity>  (1) 
-4.30387592

>  <minimizedRMSD>  (1) 
0.379353911

$$$$
