
     RDKit          3D

 31 31  0  0  1  0  0  0  0  0999 V2000
   39.9410   23.0890   35.2020 C   0  0  2  0  0  0  0  0  0  0  0  0
   38.4150   24.6580   36.4200 C   0  0  0  0  0  0  0  0  0  0  0  0
   39.3040   23.5760   36.3890 C   0  0  0  0  0  0  0  0  0  0  0  0
   39.5340   22.9160   37.5990 C   0  0  0  0  0  0  0  0  0  0  0  0
   38.9000   23.3720   38.7450 N   0  0  0  0  0  0  0  0  0  0  0  0
   38.0560   24.4150   38.7030 C   0  0  0  0  0  0  0  0  0  0  0  0
   37.8140   25.0630   37.5460 N   0  0  0  0  0  0  0  0  0  0  0  0
   40.4020   21.8040   37.7560 N   0  0  0  0  0  0  0  0  0  0  0  0
   41.0900   24.0400   34.8460 C   0  0  0  0  0  0  0  0  0  0  0  0
   39.0180   22.9210   34.0450 C   0  0  0  0  0  0  0  0  0  0  0  0
   37.6330   21.8560   34.4310 S   0  0  0  0  0  0  0  0  0  0  0  0
   36.7100   21.2340   33.0530 C   0  0  0  0  0  0  0  0  0  0  0  0
   35.5600   20.3900   33.5930 C   0  0  0  0  0  0  0  0  0  0  0  0
   36.1240   22.2400   32.1270 C   0  0  0  0  0  0  0  0  0  0  0  0
   40.3169   22.0778   35.4171 H   0  0  0  0  0  0  0  0  0  0  0  0
   38.2025   25.1953   35.4840 H   0  0  0  0  0  0  0  0  0  0  0  0
   37.5552   24.7453   39.6250 H   0  0  0  0  0  0  0  0  0  0  0  0
   40.5201   21.3697   38.6824 H   0  0  0  0  0  0  0  0  0  0  0  0
   40.9138   21.4314   36.9435 H   0  0  0  0  0  0  0  0  0  0  0  0
   41.5502   24.4209   35.7696 H   0  0  0  0  0  0  0  0  0  0  0  0
   41.8447   23.4987   34.2565 H   0  0  0  0  0  0  0  0  0  0  0  0
   40.6993   24.8825   34.2565 H   0  0  0  0  0  0  0  0  0  0  0  0
   39.5784   22.4826   33.2061 H   0  0  0  0  0  0  0  0  0  0  0  0
   38.6184   23.9127   33.7863 H   0  0  0  0  0  0  0  0  0  0  0  0
   37.4462   20.6772   32.4546 H   0  0  0  0  0  0  0  0  0  0  0  0
   35.5796   20.4044   34.6927 H   0  0  0  0  0  0  0  0  0  0  0  0
   34.6041   20.8026   33.2379 H   0  0  0  0  0  0  0  0  0  0  0  0
   35.6669   19.3544   33.2379 H   0  0  0  0  0  0  0  0  0  0  0  0
   35.6546   23.0458   32.7104 H   0  0  0  0  0  0  0  0  0  0  0  0
   36.9181   22.6611   31.4929 H   0  0  0  0  0  0  0  0  0  0  0  0
   35.3660   21.7570   31.4929 H   0  0  0  0  0  0  0  0  0  0  0  0
  1  3  1  0
  2  7  2  0
  3  2  1  0
  3  4  2  0
  4  8  1  0
  4  5  1  0
  6  5  2  0
  7  6  1  0
  9  1  1  0
 10 11  1  0
 10  1  1  0
 12 13  1  0
 12 11  1  0
 14 12  1  0
  1 15  1  1
  2 16  1  0
  6 17  1  0
  8 18  1  0
  8 19  1  0
  9 20  1  0
  9 21  1  0
  9 22  1  0
 10 23  1  0
 10 24  1  0
 12 25  1  0
 13 26  1  0
 13 27  1  0
 13 28  1  0
 14 29  1  0
 14 30  1  0
 14 31  1  0
M  ISO  8  15   8  16  14  17  14  20   8  21   8  22   8  23   8  24   8
M  ISO  7  25   8  26   8  27   8  28   8  29   8  30   8  31   8
M  END
>  <minimizedAffinity>  (1) 
-4.06129885

>  <minimizedRMSD>  (1) 
1.6033355

$$$$
