
     RDKit          3D

 36 38  0  0  1  0  0  0  0  0999 V2000
   40.4360   26.4690   34.7030 C   0  0  2  0  0  0  0  0  0  0  0  0
   38.8010   27.0240   32.8900 C   0  0  0  0  0  0  0  0  0  0  0  0
   39.1750   26.9920   34.2660 C   0  0  0  0  0  0  0  0  0  0  0  0
   38.2450   27.4470   35.1670 C   0  0  0  0  0  0  0  0  0  0  0  0
   37.0270   27.8990   34.7130 N   0  0  0  0  0  0  0  0  0  0  0  0
   36.7110   27.9100   33.3900 C   0  0  0  0  0  0  0  0  0  0  0  0
   37.6090   27.4690   32.4680 N   0  0  0  0  0  0  0  0  0  0  0  0
   38.4780   27.4980   36.5660 N   0  0  0  0  0  0  0  0  0  0  0  0
   41.5440   27.2890   33.9160 C   0  0  0  0  0  0  0  0  0  0  0  0
   40.6380   25.0420   34.5000 C   0  0  0  0  0  0  0  0  0  0  0  0
   39.4120   24.0620   35.3590 S   0  0  0  0  0  0  0  0  0  0  0  0
   36.9900   23.0390   32.4610 N   0  0  0  0  0  0  0  0  0  0  0  0
   37.8250   23.8750   33.0770 N   0  0  0  0  0  0  0  0  0  0  0  0
   38.2730   23.3000   34.2180 C   0  0  0  0  0  0  0  0  0  0  0  0
   37.6550   22.0630   34.2510 C   0  0  0  0  0  0  0  0  0  0  0  0
   36.8460   21.8920   33.1490 C   0  0  0  0  0  0  0  0  0  0  0  0
   36.0340   20.7390   32.8160 C   0  0  0  0  0  0  0  0  0  0  0  0
   34.8420   20.7660   32.1410 C   0  0  0  0  0  0  0  0  0  0  0  0
   34.3840   19.4610   32.0250 C   0  0  0  0  0  0  0  0  0  0  0  0
   35.3470   18.6980   32.6520 C   0  0  0  0  0  0  0  0  0  0  0  0
   36.2900   19.4960   33.0970 O   0  0  0  0  0  0  0  0  0  0  0  0
   40.4859   26.5840   35.7958 H   0  0  0  0  0  0  0  0  0  0  0  0
   39.5235   26.6673   32.1411 H   0  0  0  0  0  0  0  0  0  0  0  0
   35.7263   28.2766   33.0646 H   0  0  0  0  0  0  0  0  0  0  0  0
   37.7442   27.8490   37.1979 H   0  0  0  0  0  0  0  0  0  0  0  0
   39.3809   27.1840   36.9495 H   0  0  0  0  0  0  0  0  0  0  0  0
   42.2133   27.7843   34.6348 H   0  0  0  0  0  0  0  0  0  0  0  0
   42.1276   26.6035   33.2839 H   0  0  0  0  0  0  0  0  0  0  0  0
   41.0590   28.0474   33.2839 H   0  0  0  0  0  0  0  0  0  0  0  0
   40.5760   24.8242   33.4236 H   0  0  0  0  0  0  0  0  0  0  0  0
   41.6269   24.7783   34.9033 H   0  0  0  0  0  0  0  0  0  0  0  0
   36.5149   23.2450   31.5706 H   0  0  0  0  0  0  0  0  0  0  0  0
   37.7909   21.3175   35.0483 H   0  0  0  0  0  0  0  0  0  0  0  0
   34.3364   21.6647   31.7580 H   0  0  0  0  0  0  0  0  0  0  0  0
   33.4595   19.1129   31.5411 H   0  0  0  0  0  0  0  0  0  0  0  0
   35.3281   17.6036   32.7610 H   0  0  0  0  0  0  0  0  0  0  0  0
  2  3  2  0
  3  1  1  0
  3  4  1  0
  4  8  1  0
  5  4  2  0
  6  5  1  0
  7  2  1  0
  7  6  2  0
  9  1  1  0
 10  1  1  0
 10 11  1  0
 12 13  1  0
 12 16  1  0
 13 14  2  0
 14 15  1  0
 14 11  1  0
 16 15  2  0
 17 21  1  0
 17 16  1  0
 18 17  2  0
 19 18  1  0
 19 20  2  0
 20 21  1  0
  1 22  1  1
  2 23  1  0
  6 24  1  0
  8 25  1  0
  8 26  1  0
  9 27  1  0
  9 28  1  0
  9 29  1  0
 10 30  1  0
 10 31  1  0
 12 32  1  0
 15 33  1  0
 18 34  1  0
 19 35  1  0
 20 36  1  0
M  ISO  8  22   8  23  14  24  14  27   8  28   8  29   8  30   8  31   8
M  ISO  5  32   9  33  14  34  14  35  14  36  14
M  END
>  <minimizedAffinity>  (1) 
-5.0268898

>  <minimizedRMSD>  (1) 
4.32532072

$$$$
