
     RDKit          3D

 37 39  0  0  1  0  0  0  0  0999 V2000
   37.3310   25.8830   34.3450 C   0  0  0  0  0  0  0  0  0  0  0  0
   38.5580   25.8890   35.1290 C   0  0  2  0  0  0  0  0  0  0  0  0
   37.9120   25.1860   37.4420 C   0  0  0  0  0  0  0  0  0  0  0  0
   38.6110   24.9600   36.2200 C   0  0  0  0  0  0  0  0  0  0  0  0
   39.3090   23.7820   36.1240 C   0  0  0  0  0  0  0  0  0  0  0  0
   39.3080   22.8940   37.1730 N   0  0  0  0  0  0  0  0  0  0  0  0
   38.6230   23.1550   38.3220 C   0  0  0  0  0  0  0  0  0  0  0  0
   37.9190   24.3120   38.4590 N   0  0  0  0  0  0  0  0  0  0  0  0
   40.0690   23.4250   34.9740 N   0  0  0  0  0  0  0  0  0  0  0  0
   38.7990   27.3220   35.7600 C   0  0  0  0  0  0  0  0  0  0  0  0
   37.6380   25.5310   32.6190 S   0  0  0  0  0  0  0  0  0  0  0  0
   35.5360   22.6020   31.0960 N   0  0  0  0  0  0  0  0  0  0  0  0
   35.8560   23.8860   31.2490 N   0  0  0  0  0  0  0  0  0  0  0  0
   36.8850   23.9950   32.1200 C   0  0  0  0  0  0  0  0  0  0  0  0
   37.1560   22.7040   32.4770 C   0  0  0  0  0  0  0  0  0  0  0  0
   36.3180   21.8110   31.8440 C   0  0  0  0  0  0  0  0  0  0  0  0
   36.3230   20.3600   31.9860 C   0  0  0  0  0  0  0  0  0  0  0  0
   35.2420   19.7530   32.6160 C   0  0  0  0  0  0  0  0  0  0  0  0
   35.3250   18.3920   32.7080 C   0  0  0  0  0  0  0  0  0  0  0  0
   36.3460   17.6500   32.2430 N   0  0  0  0  0  0  0  0  0  0  0  0
   37.3830   18.2810   31.6330 C   0  0  0  0  0  0  0  0  0  0  0  0
   37.3380   19.6090   31.5240 N   0  0  0  0  0  0  0  0  0  0  0  0
   36.6555   25.1146   34.7491 H   0  0  0  0  0  0  0  0  0  0  0  0
   36.8812   26.8846   34.4119 H   0  0  0  0  0  0  0  0  0  0  0  0
   39.3260   25.5922   34.3996 H   0  0  0  0  0  0  0  0  0  0  0  0
   37.3412   26.1194   37.5556 H   0  0  0  0  0  0  0  0  0  0  0  0
   38.6391   22.4252   39.1449 H   0  0  0  0  0  0  0  0  0  0  0  0
   40.5762   22.5288   34.9497 H   0  0  0  0  0  0  0  0  0  0  0  0
   40.1116   24.0629   34.1664 H   0  0  0  0  0  0  0  0  0  0  0  0
   38.7863   27.2463   36.8573 H   0  0  0  0  0  0  0  0  0  0  0  0
   39.7747   27.7084   35.4304 H   0  0  0  0  0  0  0  0  0  0  0  0
   38.0033   28.0063   35.4304 H   0  0  0  0  0  0  0  0  0  0  0  0
   34.7835   22.2605   30.4812 H   0  0  0  0  0  0  0  0  0  0  0  0
   37.9469   22.4127   33.1838 H   0  0  0  0  0  0  0  0  0  0  0  0
   34.3876   20.3233   33.0092 H   0  0  0  0  0  0  0  0  0  0  0  0
   34.4945   17.8637   33.1992 H   0  0  0  0  0  0  0  0  0  0  0  0
   38.2375   17.7111   31.2393 H   0  0  0  0  0  0  0  0  0  0  0  0
  1  2  1  0
  2 10  1  0
  2  4  1  0
  3  8  2  0
  4  3  1  0
  5  4  2  0
  5  6  1  0
  6  7  2  0
  7  8  1  0
  9  5  1  0
 11  1  1  0
 12 13  1  0
 12 16  1  0
 13 14  2  0
 14 15  1  0
 14 11  1  0
 16 17  1  0
 16 15  2  0
 17 18  2  0
 18 19  1  0
 20 19  2  0
 21 20  1  0
 22 21  2  0
 22 17  1  0
  1 23  1  0
  1 24  1  0
  2 25  1  6
  3 26  1  0
  7 27  1  0
  9 28  1  0
  9 29  1  0
 10 30  1  0
 10 31  1  0
 10 32  1  0
 12 33  1  0
 15 34  1  0
 18 35  1  0
 19 36  1  0
 21 37  1  0
M  ISO  8  23   8  24   8  25   8  26  14  27  14  30   8  31   8  32   8
M  ISO  5  33   9  34  14  35  14  36  14  37  14
M  END
>  <minimizedAffinity>  (1) 
-5.04296827

>  <minimizedRMSD>  (1) 
3.66128802

$$$$
