
     RDKit          3D

 39 41  0  0  1  0  0  0  0  0999 V2000
   40.4750   23.0750   33.9290 C   0  0  0  0  0  0  0  0  0  0  0  0
   40.9000   23.0740   35.3260 C   0  0  2  0  0  0  0  0  0  0  0  0
   38.9650   24.4960   36.0300 C   0  0  0  0  0  0  0  0  0  0  0  0
   39.8960   23.4600   36.2860 C   0  0  0  0  0  0  0  0  0  0  0  0
   39.7770   22.7870   37.4740 C   0  0  0  0  0  0  0  0  0  0  0  0
   38.7650   23.1470   38.3590 N   0  0  0  0  0  0  0  0  0  0  0  0
   37.9050   24.1370   38.0720 C   0  0  0  0  0  0  0  0  0  0  0  0
   38.0030   24.8110   36.9130 N   0  0  0  0  0  0  0  0  0  0  0  0
   40.6380   21.7530   37.8900 N   0  0  0  0  0  0  0  0  0  0  0  0
   42.1070   24.0770   35.5280 C   0  0  0  0  0  0  0  0  0  0  0  0
   40.7470   21.5040   33.1270 S   0  0  0  0  0  0  0  0  0  0  0  0
   37.6920   21.3610   30.6890 N   0  0  0  0  0  0  0  0  0  0  0  0
   38.3780   21.8520   31.7100 N   0  0  0  0  0  0  0  0  0  0  0  0
   39.5220   21.1840   31.8870 C   0  0  0  0  0  0  0  0  0  0  0  0
   39.4940   20.2390   30.8980 C   0  0  0  0  0  0  0  0  0  0  0  0
   38.3580   20.3240   30.1270 C   0  0  0  0  0  0  0  0  0  0  0  0
   37.8970   19.5800   29.0080 N   0  0  0  0  0  0  0  0  0  0  0  0
   38.3810   19.5440   27.7470 C   0  0  0  0  0  0  0  0  0  0  0  0
   37.7800   18.7420   26.8090 C   0  0  0  0  0  0  0  0  0  0  0  0
   36.6880   17.9450   27.0660 C   0  0  0  0  0  0  0  0  0  0  0  0
   36.1560   17.2170   26.1860 O   0  0  0  0  0  0  0  0  0  0  0  0
   36.2220   18.0010   28.3450 N   0  0  0  0  0  0  0  0  0  0  0  0
   36.8100   18.7800   29.2420 C   0  0  0  0  0  0  0  0  0  0  0  0
   36.2830   18.7470   30.4080 O   0  0  0  0  0  0  0  0  0  0  0  0
   39.4012   23.3103   33.8877 H   0  0  0  0  0  0  0  0  0  0  0  0
   41.0764   23.8281   33.3986 H   0  0  0  0  0  0  0  0  0  0  0  0
   41.1617   22.0226   35.5161 H   0  0  0  0  0  0  0  0  0  0  0  0
   39.0312   25.0561   35.0856 H   0  0  0  0  0  0  0  0  0  0  0  0
   37.1143   24.3987   38.7905 H   0  0  0  0  0  0  0  0  0  0  0  0
   40.4872   21.2914   38.7983 H   0  0  0  0  0  0  0  0  0  0  0  0
   41.4185   21.4584   37.2859 H   0  0  0  0  0  0  0  0  0  0  0  0
   42.2849   24.2248   36.6034 H   0  0  0  0  0  0  0  0  0  0  0  0
   43.0116   23.6610   35.0605 H   0  0  0  0  0  0  0  0  0  0  0  0
   41.8636   25.0425   35.0605 H   0  0  0  0  0  0  0  0  0  0  0  0
   36.7806   21.7174   30.3677 H   0  0  0  0  0  0  0  0  0  0  0  0
   40.2892   19.4960   30.7377 H   0  0  0  0  0  0  0  0  0  0  0  0
   39.2536   20.1552   27.4730 H   0  0  0  0  0  0  0  0  0  0  0  0
   38.1962   18.7360   25.7908 H   0  0  0  0  0  0  0  0  0  0  0  0
   35.4065   17.4337   28.6171 H   0  0  0  0  0  0  0  0  0  0  0  0
  1  2  1  0
  2 10  1  0
  2  4  1  0
  3  4  2  0
  3  8  1  0
  4  5  1  0
  5  9  1  0
  5  6  2  0
  7  6  1  0
  8  7  2  0
 11  1  1  0
 12 13  1  0
 13 14  2  0
 14 11  1  0
 15 14  1  0
 16 12  1  0
 16 15  2  0
 17 23  1  0
 17 16  1  0
 18 17  1  0
 19 20  1  0
 19 18  2  0
 20 22  1  0
 21 20  2  0
 22 23  1  0
 23 24  2  0
  1 25  1  0
  1 26  1  0
  2 27  1  1
  3 28  1  0
  7 29  1  0
  9 30  1  0
  9 31  1  0
 10 32  1  0
 10 33  1  0
 10 34  1  0
 12 35  1  0
 15 36  1  0
 18 37  1  0
 19 38  1  0
 22 39  1  0
M  ISO  8  25   8  26   8  27   8  28  14  29  14  32   8  33   8  34   8
M  ISO  5  35   9  36  14  37  14  38  14  39   9
M  END
>  <minimizedAffinity>  (1) 
-4.66724873

>  <minimizedRMSD>  (1) 
3.58829403

$$$$
