
     RDKit          3D

 32 33  0  0  1  0  0  0  0  0999 V2000
   39.9920   23.0040   35.2130 C   0  0  2  0  0  0  0  0  0  0  0  0
   38.4610   24.5970   36.3890 C   0  0  0  0  0  0  0  0  0  0  0  0
   39.3570   23.4910   36.4060 C   0  0  0  0  0  0  0  0  0  0  0  0
   39.5650   22.8730   37.6140 C   0  0  0  0  0  0  0  0  0  0  0  0
   38.9060   23.3450   38.7310 N   0  0  0  0  0  0  0  0  0  0  0  0
   38.0550   24.4070   38.6710 C   0  0  0  0  0  0  0  0  0  0  0  0
   37.8310   25.0390   37.4860 N   0  0  0  0  0  0  0  0  0  0  0  0
   40.4390   21.7750   37.7970 N   0  0  0  0  0  0  0  0  0  0  0  0
   41.2160   23.9720   34.9380 C   0  0  0  0  0  0  0  0  0  0  0  0
   39.1420   22.9230   34.0330 C   0  0  0  0  0  0  0  0  0  0  0  0
   37.7170   21.8740   34.3070 S   0  0  0  0  0  0  0  0  0  0  0  0
   35.6430   21.2730   31.0410 N   0  0  0  0  0  0  0  0  0  0  0  0
   35.9150   21.9100   32.1800 N   0  0  0  0  0  0  0  0  0  0  0  0
   36.9930   21.3500   32.7670 C   0  0  0  0  0  0  0  0  0  0  0  0
   37.3560   20.3290   31.9040 C   0  0  0  0  0  0  0  0  0  0  0  0
   36.5130   20.2720   30.8160 C   0  0  0  0  0  0  0  0  0  0  0  0
   36.5970   19.3120   29.6960 C   0  0  0  0  0  0  0  0  0  0  0  0
   40.2876   21.9597   35.3919 H   0  0  0  0  0  0  0  0  0  0  0  0
   38.2778   25.1111   35.4339 H   0  0  0  0  0  0  0  0  0  0  0  0
   37.5473   24.7550   39.5826 H   0  0  0  0  0  0  0  0  0  0  0  0
   40.5506   21.3558   38.7312 H   0  0  0  0  0  0  0  0  0  0  0  0
   40.9634   21.3951   36.9960 H   0  0  0  0  0  0  0  0  0  0  0  0
   41.6404   24.3076   35.8957 H   0  0  0  0  0  0  0  0  0  0  0  0
   41.9858   23.4357   34.3637 H   0  0  0  0  0  0  0  0  0  0  0  0
   40.8715   24.8446   34.3637 H   0  0  0  0  0  0  0  0  0  0  0  0
   39.7301   22.5131   33.1986 H   0  0  0  0  0  0  0  0  0  0  0  0
   38.7803   23.9361   33.8034 H   0  0  0  0  0  0  0  0  0  0  0  0
   34.8645   21.5167   30.4122 H   0  0  0  0  0  0  0  0  0  0  0  0
   38.2072   19.6515   32.0665 H   0  0  0  0  0  0  0  0  0  0  0  0
   36.6864   18.2906   30.0945 H   0  0  0  0  0  0  0  0  0  0  0  0
   35.6889   19.3870   29.0798 H   0  0  0  0  0  0  0  0  0  0  0  0
   37.4783   19.5436   29.0798 H   0  0  0  0  0  0  0  0  0  0  0  0
  1  3  1  0
  2  3  2  0
  2  7  1  0
  3  4  1  0
  4  8  1  0
  4  5  2  0
  6  5  1  0
  7  6  2  0
  9  1  1  0
 10 11  1  0
 10  1  1  0
 12 13  1  0
 13 14  2  0
 14 11  1  0
 15 14  1  0
 16 12  1  0
 16 15  2  0
 17 16  1  0
  1 18  1  1
  2 19  1  0
  6 20  1  0
  8 21  1  0
  8 22  1  0
  9 23  1  0
  9 24  1  0
  9 25  1  0
 10 26  1  0
 10 27  1  0
 12 28  1  0
 15 29  1  0
 17 30  1  0
 17 31  1  0
 17 32  1  0
M  ISO  8  18   8  19  14  20  14  23   8  24   8  25   8  26   8  27   8
M  ISO  5  28   9  29  14  30   8  31   8  32   8
M  END
>  <minimizedAffinity>  (1) 
-4.51217985

>  <minimizedRMSD>  (1) 
1.18723035

$$$$
