
     RDKit          3D

 48 50  0  0  1  0  0  0  0  0999 V2000
   35.5360   23.0370   31.6870 N   0  0  0  0  0  0  0  0  0  0  0  0
   36.2990   22.1450   32.3210 N   0  0  0  0  0  0  0  0  0  0  0  0
   37.4100   22.7430   32.7940 C   0  0  0  0  0  0  0  0  0  0  0  0
   37.2770   24.0530   32.4120 C   0  0  0  0  0  0  0  0  0  0  0  0
   36.1130   24.2560   31.7180 C   0  0  0  0  0  0  0  0  0  0  0  0
   35.6350   25.5090   31.1530 C   0  0  0  0  0  0  0  0  0  0  0  0
   36.7010   26.5470   30.9900 C   0  0  0  0  0  0  0  0  0  0  0  0
   36.1780   27.8910   31.1240 N   0  0  0  0  0  0  0  0  0  0  0  0
   35.3750   28.1700   32.1910 C   0  0  0  0  0  0  0  0  0  0  0  0
   34.7830   29.3990   32.4860 C   0  0  0  0  0  0  0  0  0  0  0  0
   33.9390   29.5320   33.6850 C   0  0  0  0  0  0  0  0  0  0  0  0
   35.0750   30.4010   31.5670 C   0  0  0  0  0  0  0  0  0  0  0  0
   34.5620   31.5250   31.7930 O   0  0  0  0  0  0  0  0  0  0  0  0
   35.8630   30.1370   30.5130 N   0  0  0  0  0  0  0  0  0  0  0  0
   36.3990   28.9220   30.2960 C   0  0  0  0  0  0  0  0  0  0  0  0
   37.1390   28.6910   29.3020 O   0  0  0  0  0  0  0  0  0  0  0  0
   38.7120   21.9210   33.7080 S   0  0  0  0  0  0  0  0  0  0  0  0
   40.1350   22.9700   33.9080 C   0  0  0  0  0  0  0  0  0  0  0  0
   40.6400   22.9570   35.2580 C   0  0  2  0  0  0  0  0  0  0  0  0
   38.8870   24.5230   36.0840 C   0  0  0  0  0  0  0  0  0  0  0  0
   39.7830   23.4170   36.2980 C   0  0  0  0  0  0  0  0  0  0  0  0
   39.7020   22.8150   37.5130 C   0  0  0  0  0  0  0  0  0  0  0  0
   38.8090   23.2470   38.4710 N   0  0  0  0  0  0  0  0  0  0  0  0
   37.9780   24.3060   38.2090 C   0  0  0  0  0  0  0  0  0  0  0  0
   38.0140   24.9550   37.0050 N   0  0  0  0  0  0  0  0  0  0  0  0
   40.5550   21.7240   37.8670 N   0  0  0  0  0  0  0  0  0  0  0  0
   41.9480   23.8960   35.3610 C   0  0  0  0  0  0  0  0  0  0  0  0
   34.6339   22.8249   31.2374 H   0  0  0  0  0  0  0  0  0  0  0  0
   38.0115   24.8411   32.6344 H   0  0  0  0  0  0  0  0  0  0  0  0
   35.2013   25.2998   30.1640 H   0  0  0  0  0  0  0  0  0  0  0  0
   34.8976   25.9171   31.8599 H   0  0  0  0  0  0  0  0  0  0  0  0
   37.1511   26.4394   29.9921 H   0  0  0  0  0  0  0  0  0  0  0  0
   37.4474   26.3934   31.7833 H   0  0  0  0  0  0  0  0  0  0  0  0
   35.1740   27.3436   32.8886 H   0  0  0  0  0  0  0  0  0  0  0  0
   34.5631   29.4337   34.5855 H   0  0  0  0  0  0  0  0  0  0  0  0
   33.4515   30.5181   33.6827 H   0  0  0  0  0  0  0  0  0  0  0  0
   33.1719   28.7437   33.6827 H   0  0  0  0  0  0  0  0  0  0  0  0
   36.0653   30.8939   29.8443 H   0  0  0  0  0  0  0  0  0  0  0  0
   40.9286   22.6223   33.2303 H   0  0  0  0  0  0  0  0  0  0  0  0
   39.8287   24.0002   33.6737 H   0  0  0  0  0  0  0  0  0  0  0  0
   40.8063   21.8826   35.4254 H   0  0  0  0  0  0  0  0  0  0  0  0
   38.9204   25.0408   35.1141 H   0  0  0  0  0  0  0  0  0  0  0  0
   37.2693   24.6399   38.9812 H   0  0  0  0  0  0  0  0  0  0  0  0
   40.4722   21.2858   38.7955 H   0  0  0  0  0  0  0  0  0  0  0  0
   41.2524   21.3761   37.1936 H   0  0  0  0  0  0  0  0  0  0  0  0
   42.1915   24.0708   36.4194 H   0  0  0  0  0  0  0  0  0  0  0  0
   42.7959   23.3991   34.8669 H   0  0  0  0  0  0  0  0  0  0  0  0
   41.7484   24.8583   34.8669 H   0  0  0  0  0  0  0  0  0  0  0  0
  1  5  1  0
  1  2  1  0
  2  3  2  0
  3 17  1  0
  4  3  1  0
  5  4  2  0
  6  5  1  0
  7  8  1  0
  7  6  1  0
  8  9  1  0
  9 10  2  0
 10 11  1  0
 12 13  2  0
 12 10  1  0
 14 12  1  0
 15 14  1  0
 15  8  1  0
 16 15  2  0
 17 18  1  0
 18 19  1  0
 19 27  1  0
 19 21  1  0
 20 21  2  0
 20 25  1  0
 21 22  1  0
 22 26  1  0
 22 23  2  0
 24 23  1  0
 25 24  2  0
  1 28  1  0
  4 29  1  0
  6 30  1  0
  6 31  1  0
  7 32  1  0
  7 33  1  0
  9 34  1  0
 11 35  1  0
 11 36  1  0
 11 37  1  0
 14 38  1  0
 18 39  1  0
 18 40  1  0
 19 41  1  1
 20 42  1  0
 24 43  1  0
 26 44  1  0
 26 45  1  0
 27 46  1  0
 27 47  1  0
 27 48  1  0
M  ISO  8  28   9  29  14  30   8  31   8  32   8  33   8  34  14  35   8
M  ISO  8  36   8  37   8  38   9  39   8  40   8  41   8  42  14  43  14
M  ISO  3  46   8  47   8  48   8
M  END
>  <minimizedAffinity>  (1) 
-5.83246565

>  <minimizedRMSD>  (1) 
1.37278986

$$$$
