
     RDKit          3D

 44 46  0  0  1  0  0  0  0  0999 V2000
   38.7230   21.9750   33.6280 S   0  0  0  0  0  0  0  0  0  0  0  0
   35.5070   23.0350   31.6500 N   0  0  0  0  0  0  0  0  0  0  0  0
   36.2940   22.1510   32.2710 N   0  0  0  0  0  0  0  0  0  0  0  0
   37.3980   22.7670   32.7360 C   0  0  0  0  0  0  0  0  0  0  0  0
   37.2380   24.0800   32.3620 C   0  0  0  0  0  0  0  0  0  0  0  0
   36.0550   24.2680   31.6790 C   0  0  0  0  0  0  0  0  0  0  0  0
   35.5590   25.5210   31.1380 C   0  0  0  0  0  0  0  0  0  0  0  0
   36.6110   26.5380   30.8910 C   0  0  0  0  0  0  0  0  0  0  0  0
   36.3040   27.8450   31.4720 C   0  0  0  0  0  0  0  0  0  0  0  0
   36.2420   27.8300   32.8650 C   0  0  0  0  0  0  0  0  0  0  0  0
   35.9610   28.9940   33.5680 C   0  0  0  0  0  0  0  0  0  0  0  0
   35.7510   30.1410   32.8060 C   0  0  0  0  0  0  0  0  0  0  0  0
   35.8160   30.1450   31.4140 C   0  0  0  0  0  0  0  0  0  0  0  0
   36.0950   28.9750   30.7830 N   0  0  0  0  0  0  0  0  0  0  0  0
   40.0940   23.0780   33.8980 C   0  0  0  0  0  0  0  0  0  0  0  0
   40.6020   23.0070   35.2430 C   0  0  2  0  0  0  0  0  0  0  0  0
   38.8500   24.5640   36.1140 C   0  0  0  0  0  0  0  0  0  0  0  0
   39.7500   23.4570   36.2980 C   0  0  0  0  0  0  0  0  0  0  0  0
   39.6730   22.8400   37.5050 C   0  0  0  0  0  0  0  0  0  0  0  0
   38.7950   23.2470   38.4790 N   0  0  0  0  0  0  0  0  0  0  0  0
   37.9600   24.3100   38.2450 C   0  0  0  0  0  0  0  0  0  0  0  0
   37.9840   24.9790   37.0500 N   0  0  0  0  0  0  0  0  0  0  0  0
   40.5370   21.7380   37.8330 N   0  0  0  0  0  0  0  0  0  0  0  0
   41.9230   23.9260   35.3820 C   0  0  0  0  0  0  0  0  0  0  0  0
   34.6047   22.8062   31.2091 H   0  0  0  0  0  0  0  0  0  0  0  0
   37.9617   24.8792   32.5799 H   0  0  0  0  0  0  0  0  0  0  0  0
   35.0543   25.3086   30.1840 H   0  0  0  0  0  0  0  0  0  0  0  0
   34.8822   25.9449   31.8944 H   0  0  0  0  0  0  0  0  0  0  0  0
   37.5545   26.1762   31.3257 H   0  0  0  0  0  0  0  0  0  0  0  0
   36.6804   26.6752   29.8018 H   0  0  0  0  0  0  0  0  0  0  0  0
   36.4167   26.8907   33.4101 H   0  0  0  0  0  0  0  0  0  0  0  0
   35.9072   29.0095   34.6666 H   0  0  0  0  0  0  0  0  0  0  0  0
   35.5242   31.0838   33.3252 H   0  0  0  0  0  0  0  0  0  0  0  0
   35.6462   31.0694   30.8425 H   0  0  0  0  0  0  0  0  0  0  0  0
   40.9027   22.8128   33.2010 H   0  0  0  0  0  0  0  0  0  0  0  0
   39.7355   24.1043   33.7299 H   0  0  0  0  0  0  0  0  0  0  0  0
   40.7543   21.9251   35.3704 H   0  0  0  0  0  0  0  0  0  0  0  0
   38.8734   25.0992   35.1533 H   0  0  0  0  0  0  0  0  0  0  0  0
   37.2595   24.6305   39.0302 H   0  0  0  0  0  0  0  0  0  0  0  0
   40.4638   21.2825   38.7539 H   0  0  0  0  0  0  0  0  0  0  0  0
   41.2290   21.4042   37.1470 H   0  0  0  0  0  0  0  0  0  0  0  0
   42.1496   24.0836   36.4468 H   0  0  0  0  0  0  0  0  0  0  0  0
   42.7724   23.4228   34.8969 H   0  0  0  0  0  0  0  0  0  0  0  0
   41.7466   24.8974   34.8969 H   0  0  0  0  0  0  0  0  0  0  0  0
  1 15  1  0
  2  6  1  0
  2  3  1  0
  3  4  2  0
  4  1  1  0
  5  4  1  0
  6  5  2  0
  7  6  1  0
  8  7  1  0
  8  9  1  0
  9 10  2  0
 10 11  1  0
 12 11  2  0
 13 12  1  0
 14 13  2  0
 14  9  1  0
 15 16  1  0
 16 24  1  0
 16 18  1  0
 17 18  2  0
 17 22  1  0
 18 19  1  0
 19 23  1  0
 19 20  2  0
 21 20  1  0
 22 21  2  0
  2 25  1  0
  5 26  1  0
  7 27  1  0
  7 28  1  0
  8 29  1  0
  8 30  1  0
 10 31  1  0
 11 32  1  0
 12 33  1  0
 13 34  1  0
 15 35  1  0
 15 36  1  0
 16 37  1  1
 17 38  1  0
 21 39  1  0
 23 40  1  0
 23 41  1  0
 24 42  1  0
 24 43  1  0
 24 44  1  0
M  ISO  8  25   9  26  14  27   8  28   8  29   8  30   8  31  14  32  14
M  ISO  8  33  14  34  14  35   8  36   8  37   8  38  14  39  14  42   8
M  ISO  2  43   8  44   8
M  END
>  <minimizedAffinity>  (1) 
-5.38730907

>  <minimizedRMSD>  (1) 
1.43853712

$$$$
