
     RDKit          3D

 42 44  0  0  1  0  0  0  0  0999 V2000
   38.6490   22.2150   33.5660 S   0  0  0  0  0  0  0  0  0  0  0  0
   35.4920   23.3800   31.5530 N   0  0  0  0  0  0  0  0  0  0  0  0
   36.2570   22.4710   32.1520 N   0  0  0  0  0  0  0  0  0  0  0  0
   37.3510   23.0600   32.6730 C   0  0  0  0  0  0  0  0  0  0  0  0
   37.2050   24.3840   32.3550 C   0  0  0  0  0  0  0  0  0  0  0  0
   36.0420   24.6080   31.6500 C   0  0  0  0  0  0  0  0  0  0  0  0
   35.5610   25.8830   31.1480 C   0  0  0  0  0  0  0  0  0  0  0  0
   36.0810   27.0690   31.8770 C   0  0  0  0  0  0  0  0  0  0  0  0
   36.3080   28.2480   31.0240 C   0  0  0  0  0  0  0  0  0  0  0  0
   37.2700   28.1390   30.0260 C   0  0  0  0  0  0  0  0  0  0  0  0
   37.3020   29.3630   29.3630 C   0  0  0  0  0  0  0  0  0  0  0  0
   36.3870   30.1490   29.9590 N   0  0  0  0  0  0  0  0  0  0  0  0
   35.7970   29.4890   30.9450 N   0  0  0  0  0  0  0  0  0  0  0  0
   40.0230   23.2940   33.9060 C   0  0  0  0  0  0  0  0  0  0  0  0
   40.5300   23.1310   35.2450 C   0  0  2  0  0  0  0  0  0  0  0  0
   38.7990   24.6490   36.1980 C   0  0  0  0  0  0  0  0  0  0  0  0
   39.6990   23.5340   36.3280 C   0  0  0  0  0  0  0  0  0  0  0  0
   39.6370   22.8690   37.5090 C   0  0  0  0  0  0  0  0  0  0  0  0
   38.7700   23.2350   38.5150 N   0  0  0  0  0  0  0  0  0  0  0  0
   37.9360   24.3080   38.3280 C   0  0  0  0  0  0  0  0  0  0  0  0
   37.9450   25.0270   37.1610 N   0  0  0  0  0  0  0  0  0  0  0  0
   40.5070   21.7570   37.7840 N   0  0  0  0  0  0  0  0  0  0  0  0
   41.8790   24.0050   35.4270 C   0  0  0  0  0  0  0  0  0  0  0  0
   34.6008   23.1740   31.0795 H   0  0  0  0  0  0  0  0  0  0  0  0
   37.9250   25.1696   32.6278 H   0  0  0  0  0  0  0  0  0  0  0  0
   35.8586   25.9709   30.0927 H   0  0  0  0  0  0  0  0  0  0  0  0
   34.4701   25.8830   31.2892 H   0  0  0  0  0  0  0  0  0  0  0  0
   35.3540   27.3414   32.6563 H   0  0  0  0  0  0  0  0  0  0  0  0
   37.0598   26.7833   32.2897 H   0  0  0  0  0  0  0  0  0  0  0  0
   37.8869   27.2560   29.8032 H   0  0  0  0  0  0  0  0  0  0  0  0
   37.9496   29.6346   28.5163 H   0  0  0  0  0  0  0  0  0  0  0  0
   36.1763   31.1203   29.6888 H   0  0  0  0  0  0  0  0  0  0  0  0
   40.8308   23.0730   33.1928 H   0  0  0  0  0  0  0  0  0  0  0  0
   39.6690   24.3306   33.8048 H   0  0  0  0  0  0  0  0  0  0  0  0
   40.6486   22.0393   35.3100 H   0  0  0  0  0  0  0  0  0  0  0  0
   38.8119   25.2219   35.2591 H   0  0  0  0  0  0  0  0  0  0  0  0
   37.2444   24.5980   39.1327 H   0  0  0  0  0  0  0  0  0  0  0  0
   40.4444   21.2651   38.6868 H   0  0  0  0  0  0  0  0  0  0  0  0
   41.1926   21.4526   37.0781 H   0  0  0  0  0  0  0  0  0  0  0  0
   42.0868   24.1397   36.4988 H   0  0  0  0  0  0  0  0  0  0  0  0
   42.7221   23.4811   34.9530 H   0  0  0  0  0  0  0  0  0  0  0  0
   41.7454   24.9886   34.9530 H   0  0  0  0  0  0  0  0  0  0  0  0
  1 14  1  0
  2  6  1  0
  2  3  1  0
  3  4  2  0
  4  1  1  0
  5  4  1  0
  6  5  2  0
  7  6  1  0
  7  8  1  0
  9  8  1  0
 10  9  1  0
 11 12  1  0
 11 10  2  0
 12 13  1  0
 13  9  2  0
 14 15  1  0
 15 23  1  0
 15 17  1  0
 16 17  2  0
 16 21  1  0
 17 18  1  0
 18 22  1  0
 18 19  2  0
 20 19  1  0
 21 20  2  0
  2 24  1  0
  5 25  1  0
  7 26  1  0
  7 27  1  0
  8 28  1  0
  8 29  1  0
 10 30  1  0
 11 31  1  0
 12 32  1  0
 14 33  1  0
 14 34  1  0
 15 35  1  1
 16 36  1  0
 20 37  1  0
 22 38  1  0
 22 39  1  0
 23 40  1  0
 23 41  1  0
 23 42  1  0
M  ISO  8  24   9  25  14  26   8  27   8  28   8  29   8  30  14  31  14
M  ISO  8  32   9  33   8  34   8  35   8  36  14  37  14  40   8  41   8
M  ISO  1  42   8
M  END
>  <minimizedAffinity>  (1) 
-5.19680882

>  <minimizedRMSD>  (1) 
1.63152003

$$$$
