
     RDKit          3D

 43 45  0  0  1  0  0  0  0  0999 V2000
   38.7190   21.9550   33.6550 S   0  0  0  0  0  0  0  0  0  0  0  0
   35.5220   23.0440   31.6670 N   0  0  0  0  0  0  0  0  0  0  0  0
   36.2910   22.1600   32.2910 N   0  0  0  0  0  0  0  0  0  0  0  0
   37.4040   22.7650   32.7520 C   0  0  0  0  0  0  0  0  0  0  0  0
   37.2640   24.0800   32.3680 C   0  0  0  0  0  0  0  0  0  0  0  0
   36.0830   24.2720   31.6840 C   0  0  0  0  0  0  0  0  0  0  0  0
   35.5990   25.5220   31.1290 C   0  0  0  0  0  0  0  0  0  0  0  0
   36.6380   26.5720   30.9750 C   0  0  0  0  0  0  0  0  0  0  0  0
   36.0920   27.9210   31.2490 C   0  0  0  0  0  0  0  0  0  0  0  0
   36.4910   29.0260   30.5090 C   0  0  0  0  0  0  0  0  0  0  0  0
   35.9760   30.2820   30.7720 C   0  0  0  0  0  0  0  0  0  0  0  0
   35.0770   30.4240   31.7620 N   0  0  0  0  0  0  0  0  0  0  0  0
   34.6820   29.3600   32.4870 C   0  0  0  0  0  0  0  0  0  0  0  0
   35.1880   28.1310   32.2260 N   0  0  0  0  0  0  0  0  0  0  0  0
   40.1090   23.0340   33.9010 C   0  0  0  0  0  0  0  0  0  0  0  0
   40.6170   22.9820   35.2510 C   0  0  2  0  0  0  0  0  0  0  0  0
   38.8710   24.5470   36.0990 C   0  0  0  0  0  0  0  0  0  0  0  0
   39.7660   23.4410   36.2940 C   0  0  0  0  0  0  0  0  0  0  0  0
   39.6860   22.8260   37.5090 C   0  0  0  0  0  0  0  0  0  0  0  0
   38.8040   23.2410   38.4780 N   0  0  0  0  0  0  0  0  0  0  0  0
   37.9720   24.3050   38.2310 C   0  0  0  0  0  0  0  0  0  0  0  0
   38.0020   24.9670   37.0310 N   0  0  0  0  0  0  0  0  0  0  0  0
   40.5500   21.7290   37.8490 N   0  0  0  0  0  0  0  0  0  0  0  0
   41.9380   23.8980   35.3720 C   0  0  0  0  0  0  0  0  0  0  0  0
   34.6170   22.8224   31.2279 H   0  0  0  0  0  0  0  0  0  0  0  0
   37.9975   24.8721   32.5792 H   0  0  0  0  0  0  0  0  0  0  0  0
   35.1710   25.3144   30.1372 H   0  0  0  0  0  0  0  0  0  0  0  0
   34.8606   25.9156   31.8430 H   0  0  0  0  0  0  0  0  0  0  0  0
   37.4584   26.3688   31.6790 H   0  0  0  0  0  0  0  0  0  0  0  0
   36.9987   26.5505   29.9360 H   0  0  0  0  0  0  0  0  0  0  0  0
   37.2276   28.9004   29.7017 H   0  0  0  0  0  0  0  0  0  0  0  0
   36.2969   31.1520   30.1803 H   0  0  0  0  0  0  0  0  0  0  0  0
   33.9458   29.4895   33.2940 H   0  0  0  0  0  0  0  0  0  0  0  0
   40.9121   22.7377   33.2102 H   0  0  0  0  0  0  0  0  0  0  0  0
   39.7709   24.0633   33.7105 H   0  0  0  0  0  0  0  0  0  0  0  0
   40.7694   21.9027   35.3988 H   0  0  0  0  0  0  0  0  0  0  0  0
   38.8994   25.0773   35.1357 H   0  0  0  0  0  0  0  0  0  0  0  0
   37.2683   24.6323   39.0106 H   0  0  0  0  0  0  0  0  0  0  0  0
   40.4723   21.2793   38.7724 H   0  0  0  0  0  0  0  0  0  0  0  0
   41.2469   21.3925   37.1693 H   0  0  0  0  0  0  0  0  0  0  0  0
   42.1745   24.0620   36.4337 H   0  0  0  0  0  0  0  0  0  0  0  0
   42.7822   23.3905   34.8824 H   0  0  0  0  0  0  0  0  0  0  0  0
   41.7587   24.8666   34.8824 H   0  0  0  0  0  0  0  0  0  0  0  0
  1 15  1  0
  2  6  1  0
  2  3  1  0
  3  4  2  0
  4  1  1  0
  5  4  1  0
  6  5  2  0
  7  6  1  0
  8  7  1  0
  8  9  1  0
  9 14  2  0
 10 11  2  0
 10  9  1  0
 11 12  1  0
 12 13  2  0
 14 13  1  0
 15 16  1  0
 16 24  1  0
 16 18  1  0
 17 18  2  0
 17 22  1  0
 18 19  1  0
 19 23  1  0
 19 20  2  0
 21 20  1  0
 22 21  2  0
  2 25  1  0
  5 26  1  0
  7 27  1  0
  7 28  1  0
  8 29  1  0
  8 30  1  0
 10 31  1  0
 11 32  1  0
 13 33  1  0
 15 34  1  0
 15 35  1  0
 16 36  1  1
 17 37  1  0
 21 38  1  0
 23 39  1  0
 23 40  1  0
 24 41  1  0
 24 42  1  0
 24 43  1  0
M  ISO  8  25   9  26  14  27   8  28   8  29   8  30   8  31  14  32  14
M  ISO  8  33  14  34   8  35   8  36   8  37  14  38  14  41   8  42   8
M  ISO  1  43   8
M  END
>  <minimizedAffinity>  (1) 
-5.2901082

>  <minimizedRMSD>  (1) 
1.12828743

$$$$
