
     RDKit          3D

 45 47  0  0  1  0  0  0  0  0999 V2000
   35.5130   23.0800   31.6490 N   0  0  0  0  0  0  0  0  0  0  0  0
   36.2950   22.1920   32.2700 N   0  0  0  0  0  0  0  0  0  0  0  0
   37.4030   22.8010   32.7350 C   0  0  0  0  0  0  0  0  0  0  0  0
   37.2610   24.1200   32.3650 C   0  0  0  0  0  0  0  0  0  0  0  0
   36.0730   24.3090   31.6790 C   0  0  0  0  0  0  0  0  0  0  0  0
   35.5830   25.5620   31.1330 C   0  0  0  0  0  0  0  0  0  0  0  0
   36.6370   26.6020   30.9620 C   0  0  0  0  0  0  0  0  0  0  0  0
   36.3270   27.8820   31.6010 C   0  0  0  0  0  0  0  0  0  0  0  0
   36.1550   27.9000   32.9850 C   0  0  0  0  0  0  0  0  0  0  0  0
   35.8610   29.1200   33.5850 C   0  0  0  0  0  0  0  0  0  0  0  0
   35.7260   30.3160   32.9150 C   0  0  0  0  0  0  0  0  0  0  0  0
   35.9040   30.2570   31.5500 C   0  0  0  0  0  0  0  0  0  0  0  0
   36.1950   29.0840   30.8960 C   0  0  0  0  0  0  0  0  0  0  0  0
   38.7240   21.9940   33.6260 S   0  0  0  0  0  0  0  0  0  0  0  0
   40.1010   23.0880   33.8990 C   0  0  0  0  0  0  0  0  0  0  0  0
   40.6070   23.0040   35.2460 C   0  0  2  0  0  0  0  0  0  0  0  0
   38.8550   24.5620   36.1180 C   0  0  0  0  0  0  0  0  0  0  0  0
   39.7550   23.4540   36.3010 C   0  0  0  0  0  0  0  0  0  0  0  0
   39.6790   22.8350   37.5070 C   0  0  0  0  0  0  0  0  0  0  0  0
   38.7930   23.2470   38.4830 N   0  0  0  0  0  0  0  0  0  0  0  0
   37.9600   24.3110   38.2440 C   0  0  0  0  0  0  0  0  0  0  0  0
   37.9880   24.9760   37.0550 N   0  0  0  0  0  0  0  0  0  0  0  0
   40.5410   21.7340   37.8350 N   0  0  0  0  0  0  0  0  0  0  0  0
   41.9310   23.9190   35.3920 C   0  0  0  0  0  0  0  0  0  0  0  0
   34.6087   22.8582   31.2086 H   0  0  0  0  0  0  0  0  0  0  0  0
   37.9904   24.9137   32.5841 H   0  0  0  0  0  0  0  0  0  0  0  0
   35.1346   25.3589   30.1493 H   0  0  0  0  0  0  0  0  0  0  0  0
   34.8560   25.9614   31.8554 H   0  0  0  0  0  0  0  0  0  0  0  0
   37.5731   26.2186   31.3941 H   0  0  0  0  0  0  0  0  0  0  0  0
   36.7146   26.7985   29.8825 H   0  0  0  0  0  0  0  0  0  0  0  0
   36.2487   26.9807   33.5817 H   0  0  0  0  0  0  0  0  0  0  0  0
   35.7262   29.1305   34.6767 H   0  0  0  0  0  0  0  0  0  0  0  0
   35.4915   31.2563   33.4355 H   0  0  0  0  0  0  0  0  0  0  0  0
   35.8098   31.1822   30.9626 H   0  0  0  0  0  0  0  0  0  0  0  0
   36.3260   29.0897   29.8038 H   0  0  0  0  0  0  0  0  0  0  0  0
   40.9081   22.8220   33.2006 H   0  0  0  0  0  0  0  0  0  0  0  0
   39.7508   24.1177   33.7344 H   0  0  0  0  0  0  0  0  0  0  0  0
   40.7547   21.9208   35.3680 H   0  0  0  0  0  0  0  0  0  0  0  0
   38.8790   25.0986   35.1581 H   0  0  0  0  0  0  0  0  0  0  0  0
   37.2570   24.6329   39.0264 H   0  0  0  0  0  0  0  0  0  0  0  0
   40.4668   21.2784   38.7558 H   0  0  0  0  0  0  0  0  0  0  0  0
   41.2333   21.4000   37.1494 H   0  0  0  0  0  0  0  0  0  0  0  0
   42.1543   24.0733   36.4580 H   0  0  0  0  0  0  0  0  0  0  0  0
   42.7806   23.4144   34.9087 H   0  0  0  0  0  0  0  0  0  0  0  0
   41.7593   24.8921   34.9087 H   0  0  0  0  0  0  0  0  0  0  0  0
  1  5  1  0
  1  2  1  0
  2  3  2  0
  3 14  1  0
  4  3  1  0
  5  4  2  0
  6  5  1  0
  7  6  1  0
  7  8  1  0
  8  9  2  0
  9 10  1  0
 11 10  2  0
 12 11  1  0
 13 12  2  0
 13  8  1  0
 14 15  1  0
 15 16  1  0
 16 24  1  0
 16 18  1  0
 17 18  2  0
 17 22  1  0
 18 19  1  0
 19 23  1  0
 19 20  2  0
 21 20  1  0
 22 21  2  0
  1 25  1  0
  4 26  1  0
  6 27  1  0
  6 28  1  0
  7 29  1  0
  7 30  1  0
  9 31  1  0
 10 32  1  0
 11 33  1  0
 12 34  1  0
 13 35  1  0
 15 36  1  0
 15 37  1  0
 16 38  1  1
 17 39  1  0
 21 40  1  0
 23 41  1  0
 23 42  1  0
 24 43  1  0
 24 44  1  0
 24 45  1  0
M  ISO  8  25   9  26  14  27   8  28   8  29   8  30   8  31  14  32  14
M  ISO  8  33  14  34  14  35  14  36   8  37   8  38   8  39  14  40  14
M  ISO  3  43   8  44   8  45   8
M  END
>  <minimizedAffinity>  (1) 
-5.47605419

>  <minimizedRMSD>  (1) 
1.5057354

$$$$
