
     RDKit          3D

 41 43  0  0  1  0  0  0  0  0999 V2000
   39.9610   22.9670   33.8980 C   0  0  0  0  0  0  0  0  0  0  0  0
   40.5020   22.9180   35.2340 C   0  0  2  0  0  0  0  0  0  0  0  0
   38.7860   24.4970   36.1110 C   0  0  0  0  0  0  0  0  0  0  0  0
   39.6920   23.3980   36.3020 C   0  0  0  0  0  0  0  0  0  0  0  0
   39.6650   22.8110   37.5310 C   0  0  0  0  0  0  0  0  0  0  0  0
   38.8140   23.2570   38.5160 N   0  0  0  0  0  0  0  0  0  0  0  0
   37.9670   24.3110   38.2810 C   0  0  0  0  0  0  0  0  0  0  0  0
   37.9540   24.9380   37.0650 N   0  0  0  0  0  0  0  0  0  0  0  0
   40.5380   21.7270   37.8630 N   0  0  0  0  0  0  0  0  0  0  0  0
   41.8480   23.8080   35.3160 C   0  0  0  0  0  0  0  0  0  0  0  0
   38.5590   21.8930   33.6900 S   0  0  0  0  0  0  0  0  0  0  0  0
   35.5210   22.8560   31.4050 N   0  0  0  0  0  0  0  0  0  0  0  0
   36.2880   21.9990   32.0710 N   0  0  0  0  0  0  0  0  0  0  0  0
   37.2910   22.6570   32.6830 C   0  0  0  0  0  0  0  0  0  0  0  0
   37.0890   23.9670   32.3480 C   0  0  0  0  0  0  0  0  0  0  0  0
   35.9780   24.1060   31.5450 C   0  0  0  0  0  0  0  0  0  0  0  0
   35.4640   25.3750   31.0050 C   0  0  0  0  0  0  0  0  0  0  0  0
   35.9690   26.5920   31.6820 C   0  0  0  0  0  0  0  0  0  0  0  0
   36.9970   27.3010   30.8760 C   0  0  0  0  0  0  0  0  0  0  0  0
   38.4000   27.0720   30.9550 C   0  0  0  0  0  0  0  0  0  0  0  0
   39.0760   28.2740   29.6820 S   0  0  0  0  0  0  0  0  0  0  0  0
   37.3070   28.8470   29.2980 C   0  0  0  0  0  0  0  0  0  0  0  0
   36.6400   28.2160   30.0000 N   0  0  0  0  0  0  0  0  0  0  0  0
   39.6494   23.9995   33.6814 H   0  0  0  0  0  0  0  0  0  0  0  0
   40.7468   22.6278   33.2070 H   0  0  0  0  0  0  0  0  0  0  0  0
   40.6323   21.8357   35.3813 H   0  0  0  0  0  0  0  0  0  0  0  0
   38.7747   25.0013   35.1335 H   0  0  0  0  0  0  0  0  0  0  0  0
   37.2918   24.6551   39.0783 H   0  0  0  0  0  0  0  0  0  0  0  0
   40.4969   21.3011   38.7999 H   0  0  0  0  0  0  0  0  0  0  0  0
   41.2075   21.3726   37.1651 H   0  0  0  0  0  0  0  0  0  0  0  0
   42.1096   23.9809   36.3704 H   0  0  0  0  0  0  0  0  0  0  0  0
   42.6708   23.2753   34.8167 H   0  0  0  0  0  0  0  0  0  0  0  0
   41.6800   24.7737   34.8167 H   0  0  0  0  0  0  0  0  0  0  0  0
   34.6894   22.5942   30.8566 H   0  0  0  0  0  0  0  0  0  0  0  0
   37.7286   24.7996   32.6760 H   0  0  0  0  0  0  0  0  0  0  0  0
   35.7453   25.4332   29.9432 H   0  0  0  0  0  0  0  0  0  0  0  0
   34.3762   25.3609   31.1676 H   0  0  0  0  0  0  0  0  0  0  0  0
   35.1248   27.2748   31.8581 H   0  0  0  0  0  0  0  0  0  0  0  0
   36.4383   26.2809   32.6270 H   0  0  0  0  0  0  0  0  0  0  0  0
   38.9486   26.3689   31.5989 H   0  0  0  0  0  0  0  0  0  0  0  0
   36.9885   29.6084   28.5708 H   0  0  0  0  0  0  0  0  0  0  0  0
  1  2  1  0
  2 10  1  0
  2  4  1  0
  3  4  2  0
  3  8  1  0
  4  5  1  0
  5  9  1  0
  5  6  2  0
  7  6  1  0
  8  7  2  0
 11  1  1  0
 12 16  1  0
 12 13  1  0
 13 14  2  0
 14 11  1  0
 15 14  1  0
 16 15  2  0
 17 16  1  0
 17 18  1  0
 19 20  2  0
 19 18  1  0
 21 20  1  0
 22 21  1  0
 22 23  2  0
 23 19  1  0
  1 24  1  0
  1 25  1  0
  2 26  1  1
  3 27  1  0
  7 28  1  0
  9 29  1  0
  9 30  1  0
 10 31  1  0
 10 32  1  0
 10 33  1  0
 12 34  1  0
 15 35  1  0
 17 36  1  0
 17 37  1  0
 18 38  1  0
 18 39  1  0
 20 40  1  0
 22 41  1  0
M  ISO  8  24   8  25   8  26   8  27  14  28  14  31   8  32   8  33   8
M  ISO  8  34   9  35  14  36   8  37   8  38   8  39   8  40  14  41  14
M  END
>  <minimizedAffinity>  (1) 
-5.14396191

>  <minimizedRMSD>  (1) 
1.00512123

$$$$
