
     RDKit          3D

 47 49  0  0  1  0  0  0  0  0999 V2000
   40.1300   22.9030   33.8870 C   0  0  0  0  0  0  0  0  0  0  0  0
   40.6160   22.8500   35.2410 C   0  0  2  0  0  0  0  0  0  0  0  0
   38.8910   24.4700   36.0300 C   0  0  0  0  0  0  0  0  0  0  0  0
   39.7740   23.3620   36.2710 C   0  0  0  0  0  0  0  0  0  0  0  0
   39.6910   22.7940   37.5060 C   0  0  0  0  0  0  0  0  0  0  0  0
   38.8120   23.2620   38.4550 N   0  0  0  0  0  0  0  0  0  0  0  0
   37.9880   24.3260   38.1740 C   0  0  0  0  0  0  0  0  0  0  0  0
   38.0270   24.9360   36.9480 N   0  0  0  0  0  0  0  0  0  0  0  0
   40.5380   21.7010   37.8880 N   0  0  0  0  0  0  0  0  0  0  0  0
   41.9680   23.7260   35.3640 C   0  0  0  0  0  0  0  0  0  0  0  0
   38.6690   21.9090   33.6600 S   0  0  0  0  0  0  0  0  0  0  0  0
   35.5420   23.1580   31.6550 N   0  0  0  0  0  0  0  0  0  0  0  0
   36.2850   22.2320   32.2460 N   0  0  0  0  0  0  0  0  0  0  0  0
   37.3910   22.7970   32.7720 C   0  0  0  0  0  0  0  0  0  0  0  0
   37.2830   24.1330   32.4690 C   0  0  0  0  0  0  0  0  0  0  0  0
   36.1260   24.3770   31.7680 C   0  0  0  0  0  0  0  0  0  0  0  0
   35.6910   25.6950   31.2750 C   0  0  0  0  0  0  0  0  0  0  0  0
   36.7840   26.5760   30.8220 C   0  0  0  0  0  0  0  0  0  0  0  0
   36.8060   27.7700   31.6510 N   0  0  0  0  0  0  0  0  0  0  0  0
   35.4830   28.0680   32.1720 C   0  0  0  0  0  0  0  0  0  0  0  0
   35.7410   28.6530   33.5600 C   0  0  0  0  0  0  0  0  0  0  0  0
   36.8720   27.7730   34.0460 C   0  0  0  0  0  0  0  0  0  0  0  0
   37.6920   27.6090   32.7870 C   0  0  0  0  0  0  0  0  0  0  0  0
   39.8911   23.9471   33.6365 H   0  0  0  0  0  0  0  0  0  0  0  0
   40.9163   22.5046   33.2290 H   0  0  0  0  0  0  0  0  0  0  0  0
   40.7216   21.7674   35.4047 H   0  0  0  0  0  0  0  0  0  0  0  0
   38.9239   24.9607   35.0461 H   0  0  0  0  0  0  0  0  0  0  0  0
   37.2900   24.6914   38.9417 H   0  0  0  0  0  0  0  0  0  0  0  0
   40.4549   21.2894   38.8285 H   0  0  0  0  0  0  0  0  0  0  0  0
   41.2292   21.3279   37.2218 H   0  0  0  0  0  0  0  0  0  0  0  0
   42.2086   23.8819   36.4260 H   0  0  0  0  0  0  0  0  0  0  0  0
   42.7963   23.1925   34.8749 H   0  0  0  0  0  0  0  0  0  0  0  0
   41.8196   24.7000   34.8749 H   0  0  0  0  0  0  0  0  0  0  0  0
   34.6475   22.9770   31.1775 H   0  0  0  0  0  0  0  0  0  0  0  0
   38.0199   24.9004   32.7485 H   0  0  0  0  0  0  0  0  0  0  0  0
   35.0067   25.5353   30.4287 H   0  0  0  0  0  0  0  0  0  0  0  0
   35.2154   26.2034   32.1267 H   0  0  0  0  0  0  0  0  0  0  0  0
   37.7445   26.0474   30.9116 H   0  0  0  0  0  0  0  0  0  0  0  0
   36.6224   26.8571   29.7709 H   0  0  0  0  0  0  0  0  0  0  0  0
   34.9685   28.7994   31.5313 H   0  0  0  0  0  0  0  0  0  0  0  0
   34.8370   27.1783   32.2066 H   0  0  0  0  0  0  0  0  0  0  0  0
   36.0477   29.7078   33.5020 H   0  0  0  0  0  0  0  0  0  0  0  0
   34.8594   28.6586   34.2179 H   0  0  0  0  0  0  0  0  0  0  0  0
   37.4511   28.2659   34.8408 H   0  0  0  0  0  0  0  0  0  0  0  0
   36.5405   26.8232   34.4910 H   0  0  0  0  0  0  0  0  0  0  0  0
   38.1477   26.6080   32.7661 H   0  0  0  0  0  0  0  0  0  0  0  0
   38.4957   28.3593   32.7541 H   0  0  0  0  0  0  0  0  0  0  0  0
  1  2  1  0
  2 10  1  0
  2  4  1  0
  3  4  2  0
  3  8  1  0
  4  5  1  0
  5  9  1  0
  5  6  2  0
  7  6  1  0
  8  7  2  0
 11  1  1  0
 12 16  1  0
 12 13  1  0
 13 14  2  0
 14 11  1  0
 15 14  1  0
 16 15  2  0
 17 16  1  0
 18 17  1  0
 18 19  1  0
 19 20  1  0
 19 23  1  0
 20 21  1  0
 21 22  1  0
 23 22  1  0
  1 24  1  0
  1 25  1  0
  2 26  1  1
  3 27  1  0
  7 28  1  0
  9 29  1  0
  9 30  1  0
 10 31  1  0
 10 32  1  0
 10 33  1  0
 12 34  1  0
 15 35  1  0
 17 36  1  0
 17 37  1  0
 18 38  1  0
 18 39  1  0
 20 40  1  0
 20 41  1  0
 21 42  1  0
 21 43  1  0
 22 44  1  0
 22 45  1  0
 23 46  1  0
 23 47  1  0
M  ISO  8  24   8  25   8  26   8  27  14  28  14  31   8  32   8  33   8
M  ISO  8  34   9  35  14  36   8  37   8  38   8  39   8  40  13  41  13
M  ISO  6  42  13  43  13  44  13  45  13  46  13  47  13
M  END
>  <minimizedAffinity>  (1) 
-5.15556908

>  <minimizedRMSD>  (1) 
1.59543002

$$$$
