
     RDKit          3D

 36 37  0  0  1  0  0  0  0  0999 V2000
   40.0020   23.0890   33.9030 C   0  0  0  0  0  0  0  0  0  0  0  0
   40.5480   23.0040   35.2360 C   0  0  2  0  0  0  0  0  0  0  0  0
   38.7830   24.5300   36.1530 C   0  0  0  0  0  0  0  0  0  0  0  0
   39.7130   23.4420   36.3140 C   0  0  0  0  0  0  0  0  0  0  0  0
   39.6910   22.8100   37.5250 C   0  0  0  0  0  0  0  0  0  0  0  0
   38.8160   23.2060   38.5230 N   0  0  0  0  0  0  0  0  0  0  0  0
   37.9510   24.2490   38.3120 C   0  0  0  0  0  0  0  0  0  0  0  0
   37.9340   24.9170   37.1190 N   0  0  0  0  0  0  0  0  0  0  0  0
   40.5830   21.7380   37.8290 N   0  0  0  0  0  0  0  0  0  0  0  0
   41.8600   23.9320   35.3540 C   0  0  0  0  0  0  0  0  0  0  0  0
   38.7570   21.8540   33.6050 S   0  0  0  0  0  0  0  0  0  0  0  0
   35.4940   22.5990   31.5560 N   0  0  0  0  0  0  0  0  0  0  0  0
   36.3580   21.7860   32.1830 N   0  0  0  0  0  0  0  0  0  0  0  0
   37.3770   22.5150   32.6850 C   0  0  0  0  0  0  0  0  0  0  0  0
   37.0810   23.8030   32.3270 C   0  0  0  0  0  0  0  0  0  0  0  0
   35.8980   23.8750   31.6170 C   0  0  0  0  0  0  0  0  0  0  0  0
   35.2900   25.0840   31.0910 C   0  0  0  0  0  0  0  0  0  0  0  0
   36.2010   26.2410   30.9370 C   0  0  0  0  0  0  0  0  0  0  0  0
   35.8030   27.6800   31.9230 S   0  0  0  0  0  0  0  0  0  0  0  0
   39.5532   24.0840   33.7671 H   0  0  0  0  0  0  0  0  0  0  0  0
   40.8230   22.9186   33.1910 H   0  0  0  0  0  0  0  0  0  0  0  0
   40.7172   21.9229   35.3485 H   0  0  0  0  0  0  0  0  0  0  0  0
   38.7674   25.0690   35.1942 H   0  0  0  0  0  0  0  0  0  0  0  0
   37.2614   24.5524   39.1135 H   0  0  0  0  0  0  0  0  0  0  0  0
   40.5430   21.2805   38.7509 H   0  0  0  0  0  0  0  0  0  0  0  0
   41.2667   21.4219   37.1264 H   0  0  0  0  0  0  0  0  0  0  0  0
   42.0965   24.0993   36.4152 H   0  0  0  0  0  0  0  0  0  0  0  0
   42.7082   23.4318   34.8637 H   0  0  0  0  0  0  0  0  0  0  0  0
   41.6709   24.8984   34.8637 H   0  0  0  0  0  0  0  0  0  0  0  0
   34.6322   22.2832   31.0886 H   0  0  0  0  0  0  0  0  0  0  0  0
   37.7075   24.6727   32.5741 H   0  0  0  0  0  0  0  0  0  0  0  0
   34.8701   24.8493   30.1017 H   0  0  0  0  0  0  0  0  0  0  0  0
   34.5363   25.3897   31.8316 H   0  0  0  0  0  0  0  0  0  0  0  0
   37.2139   25.9124   31.2126 H   0  0  0  0  0  0  0  0  0  0  0  0
   36.1048   26.5604   29.8888 H   0  0  0  0  0  0  0  0  0  0  0  0
   35.8912   27.3612   33.2525 H   0  0  0  0  0  0  0  0  0  0  0  0
  1  2  1  0
  2 10  1  0
  2  4  1  0
  3  4  2  0
  3  8  1  0
  4  5  1  0
  5  9  1  0
  5  6  2  0
  7  6  1  0
  8  7  2  0
 11  1  1  0
 12 16  1  0
 12 13  1  0
 13 14  2  0
 14 11  1  0
 15 14  1  0
 16 15  2  0
 17 16  1  0
 18 17  1  0
 18 19  1  0
  1 20  1  0
  1 21  1  0
  2 22  1  1
  3 23  1  0
  7 24  1  0
  9 25  1  0
  9 26  1  0
 10 27  1  0
 10 28  1  0
 10 29  1  0
 12 30  1  0
 15 31  1  0
 17 32  1  0
 17 33  1  0
 18 34  1  0
 18 35  1  0
 19 36  1  0
M  ISO  8  20   8  21   8  22   8  23  14  24  14  27   8  28   8  29   8
M  ISO  7  30   9  31  14  32   8  33   8  34   8  35   8  36  11
M  END
>  <minimizedAffinity>  (1) 
-4.68166018

>  <minimizedRMSD>  (1) 
0.403682679

$$$$
