
     RDKit          3D

 49 51  0  0  1  0  0  0  0  0999 V2000
   38.6210   22.2770   33.5740 S   0  0  0  0  0  0  0  0  0  0  0  0
   35.5100   23.5150   31.5290 N   0  0  0  0  0  0  0  0  0  0  0  0
   36.2600   22.5850   32.1190 N   0  0  0  0  0  0  0  0  0  0  0  0
   37.3470   23.1540   32.6770 C   0  0  0  0  0  0  0  0  0  0  0  0
   37.2090   24.4800   32.3890 C   0  0  0  0  0  0  0  0  0  0  0  0
   36.0620   24.7290   31.6690 C   0  0  0  0  0  0  0  0  0  0  0  0
   35.6010   26.0440   31.2020 C   0  0  0  0  0  0  0  0  0  0  0  0
   36.1670   27.1920   31.9540 C   0  0  0  0  0  0  0  0  0  0  0  0
   35.4950   28.4240   31.6250 N   0  0  0  0  0  0  0  0  0  0  0  0
   36.3820   29.4690   31.2250 C   0  0  0  0  0  0  0  0  0  0  0  0
   36.1070   30.8240   31.7680 C   0  0  0  0  0  0  0  0  0  0  0  0
   35.8840   30.7340   33.1930 N   0  0  0  0  0  0  0  0  0  0  0  0
   34.7760   29.8880   33.5000 C   0  0  0  0  0  0  0  0  0  0  0  0
   34.4770   28.7980   32.5430 C   0  0  0  0  0  0  0  0  0  0  0  0
   40.0200   23.3230   33.9160 C   0  0  0  0  0  0  0  0  0  0  0  0
   40.5230   23.1450   35.2570 C   0  0  2  0  0  0  0  0  0  0  0  0
   38.7930   24.6510   36.2200 C   0  0  0  0  0  0  0  0  0  0  0  0
   39.6920   23.5420   36.3430 C   0  0  0  0  0  0  0  0  0  0  0  0
   39.6450   22.8560   37.5260 C   0  0  0  0  0  0  0  0  0  0  0  0
   38.7710   23.2320   38.5250 N   0  0  0  0  0  0  0  0  0  0  0  0
   37.9360   24.2960   38.3540 C   0  0  0  0  0  0  0  0  0  0  0  0
   37.9420   25.0190   37.1900 N   0  0  0  0  0  0  0  0  0  0  0  0
   40.5110   21.7530   37.7810 N   0  0  0  0  0  0  0  0  0  0  0  0
   41.8790   24.0030   35.4490 C   0  0  0  0  0  0  0  0  0  0  0  0
   34.6270   23.3271   31.0332 H   0  0  0  0  0  0  0  0  0  0  0  0
   37.9264   25.2558   32.6946 H   0  0  0  0  0  0  0  0  0  0  0  0
   35.8830   26.1523   30.1443 H   0  0  0  0  0  0  0  0  0  0  0  0
   34.5126   26.0703   31.3590 H   0  0  0  0  0  0  0  0  0  0  0  0
   36.0570   27.0020   33.0319 H   0  0  0  0  0  0  0  0  0  0  0  0
   37.2274   27.2942   31.6798 H   0  0  0  0  0  0  0  0  0  0  0  0
   37.3965   29.1835   31.5402 H   0  0  0  0  0  0  0  0  0  0  0  0
   36.2468   29.5614   30.1373 H   0  0  0  0  0  0  0  0  0  0  0  0
   36.9682   31.4796   31.5720 H   0  0  0  0  0  0  0  0  0  0  0  0
   35.2123   31.2401   31.2817 H   0  0  0  0  0  0  0  0  0  0  0  0
   36.7298   30.3523   33.6401 H   0  0  0  0  0  0  0  0  0  0  0  0
   34.9726   29.4258   34.4786 H   0  0  0  0  0  0  0  0  0  0  0  0
   33.8957   30.5468   33.4668 H   0  0  0  0  0  0  0  0  0  0  0  0
   33.6022   29.1099   31.9535 H   0  0  0  0  0  0  0  0  0  0  0  0
   34.3322   27.9082   33.1733 H   0  0  0  0  0  0  0  0  0  0  0  0
   40.8227   23.0844   33.2027 H   0  0  0  0  0  0  0  0  0  0  0  0
   39.6909   24.3679   33.8163 H   0  0  0  0  0  0  0  0  0  0  0  0
   40.6320   22.0518   35.3128 H   0  0  0  0  0  0  0  0  0  0  0  0
   38.8009   25.2292   35.2842 H   0  0  0  0  0  0  0  0  0  0  0  0
   37.2466   24.5786   39.1632 H   0  0  0  0  0  0  0  0  0  0  0  0
   40.4565   21.2524   38.6795 H   0  0  0  0  0  0  0  0  0  0  0  0
   41.1913   21.4565   37.0667 H   0  0  0  0  0  0  0  0  0  0  0  0
   42.0825   24.1318   36.5223 H   0  0  0  0  0  0  0  0  0  0  0  0
   42.7190   23.4716   34.9777 H   0  0  0  0  0  0  0  0  0  0  0  0
   41.7585   24.9896   34.9777 H   0  0  0  0  0  0  0  0  0  0  0  0
  1 15  1  0
  2  6  1  0
  2  3  1  0
  3  4  2  0
  4  1  1  0
  5  4  1  0
  6  5  2  0
  7  6  1  0
  7  8  1  0
  9  8  1  0
  9 14  1  0
 10  9  1  0
 10 11  1  0
 11 12  1  0
 12 13  1  0
 14 13  1  0
 15 16  1  0
 16 24  1  0
 16 18  1  0
 17 18  2  0
 17 22  1  0
 18 19  1  0
 19 23  1  0
 19 20  2  0
 21 20  1  0
 22 21  2  0
  2 25  1  0
  5 26  1  0
  7 27  1  0
  7 28  1  0
  8 29  1  0
  8 30  1  0
 10 31  1  0
 10 32  1  0
 11 33  1  0
 11 34  1  0
 12 35  1  0
 13 36  1  0
 13 37  1  0
 14 38  1  0
 14 39  1  0
 15 40  1  0
 15 41  1  0
 16 42  1  1
 17 43  1  0
 21 44  1  0
 23 45  1  0
 23 46  1  0
 24 47  1  0
 24 48  1  0
 24 49  1  0
M  ISO  8  25   9  26  14  27   8  28   8  29   8  30   8  31  13  32  13
M  ISO  8  33  13  34  13  35   5  36  13  37  13  38  13  39  13  40   8
M  ISO  7  41   8  42   8  43  14  44  14  47   8  48   8  49   8
M  END
>  <minimizedAffinity>  (1) 
-5.01363468

>  <minimizedRMSD>  (1) 
1.06273973

$$$$
