
     RDKit          3D

 37 38  0  0  1  0  0  0  0  0999 V2000
   39.8870   23.1290   33.8780 C   0  0  0  0  0  0  0  0  0  0  0  0
   40.4440   23.0320   35.2060 C   0  0  2  0  0  0  0  0  0  0  0  0
   38.7150   24.5410   36.1630 C   0  0  0  0  0  0  0  0  0  0  0  0
   39.6390   23.4540   36.3020 C   0  0  0  0  0  0  0  0  0  0  0  0
   39.6420   22.8320   37.5090 C   0  0  0  0  0  0  0  0  0  0  0  0
   38.8020   23.2300   38.5270 N   0  0  0  0  0  0  0  0  0  0  0  0
   37.9390   24.2770   38.3320 C   0  0  0  0  0  0  0  0  0  0  0  0
   37.8920   24.9410   37.1430 N   0  0  0  0  0  0  0  0  0  0  0  0
   40.5410   21.7470   37.7890 N   0  0  0  0  0  0  0  0  0  0  0  0
   41.7790   23.9320   35.3000 C   0  0  0  0  0  0  0  0  0  0  0  0
   38.6840   21.8580   33.5530 S   0  0  0  0  0  0  0  0  0  0  0  0
   35.4390   22.4780   31.4490 N   0  0  0  0  0  0  0  0  0  0  0  0
   36.3180   21.7030   32.0910 N   0  0  0  0  0  0  0  0  0  0  0  0
   37.2990   22.4660   32.6150 C   0  0  0  0  0  0  0  0  0  0  0  0
   36.9680   23.7520   32.2530 C   0  0  0  0  0  0  0  0  0  0  0  0
   35.8040   23.7750   31.5210 C   0  0  0  0  0  0  0  0  0  0  0  0
   35.1460   24.9430   30.9660 C   0  0  0  0  0  0  0  0  0  0  0  0
   35.8070   26.2400   31.3270 C   0  0  0  0  0  0  0  0  0  0  0  0
   36.1790   27.0080   30.1540 N   0  0  0  0  0  0  0  0  0  0  0  0
   39.4024   24.1105   33.7689 H   0  0  0  0  0  0  0  0  0  0  0  0
   40.7100   23.0040   33.1589 H   0  0  0  0  0  0  0  0  0  0  0  0
   40.5894   21.9471   35.3144 H   0  0  0  0  0  0  0  0  0  0  0  0
   38.6792   25.0750   35.2020 H   0  0  0  0  0  0  0  0  0  0  0  0
   37.2723   24.5868   39.1502 H   0  0  0  0  0  0  0  0  0  0  0  0
   40.5252   21.2902   38.7121 H   0  0  0  0  0  0  0  0  0  0  0  0
   41.2013   21.4258   37.0667 H   0  0  0  0  0  0  0  0  0  0  0  0
   42.0324   24.1028   36.3567 H   0  0  0  0  0  0  0  0  0  0  0  0
   42.6096   23.4088   34.8037 H   0  0  0  0  0  0  0  0  0  0  0  0
   41.6055   24.8982   34.8037 H   0  0  0  0  0  0  0  0  0  0  0  0
   34.5978   22.1326   30.9653 H   0  0  0  0  0  0  0  0  0  0  0  0
   37.5567   24.6436   32.5146 H   0  0  0  0  0  0  0  0  0  0  0  0
   34.1107   24.9666   31.3369 H   0  0  0  0  0  0  0  0  0  0  0  0
   35.1996   24.8504   29.8712 H   0  0  0  0  0  0  0  0  0  0  0  0
   35.1104   26.8360   31.9349 H   0  0  0  0  0  0  0  0  0  0  0  0
   36.7259   26.0079   31.8853 H   0  0  0  0  0  0  0  0  0  0  0  0
   36.6094   27.8965   30.4477 H   0  0  0  0  0  0  0  0  0  0  0  0
   36.8528   26.4698   29.5907 H   0  0  0  0  0  0  0  0  0  0  0  0
  1  2  1  0
  2 10  1  0
  2  4  1  0
  3  4  2  0
  3  8  1  0
  4  5  1  0
  5  9  1  0
  5  6  2  0
  7  6  1  0
  8  7  2  0
 11  1  1  0
 12 16  1  0
 12 13  1  0
 13 14  2  0
 14 11  1  0
 15 14  1  0
 16 15  2  0
 17 18  1  0
 17 16  1  0
 19 18  1  0
  1 20  1  0
  1 21  1  0
  2 22  1  1
  3 23  1  0
  7 24  1  0
  9 25  1  0
  9 26  1  0
 10 27  1  0
 10 28  1  0
 10 29  1  0
 12 30  1  0
 15 31  1  0
 17 32  1  0
 17 33  1  0
 18 34  1  0
 18 35  1  0
 19 36  1  0
 19 37  1  0
M  ISO  8  20   8  21   8  22   8  23  14  24  14  27   8  28   8  29   8
M  ISO  8  30   9  31  14  32   8  33   8  34   8  35   8  36   5  37   5
M  END
>  <minimizedAffinity>  (1) 
-5.04800558

>  <minimizedRMSD>  (1) 
0.349951476

$$$$
