
     RDKit          3D

 26 28  0  0  0  0  0  0  0  0999 V2000
   39.6040   23.0560   37.0940 C   0  0  0  0  0  0  0  0  0  0  0  0
   38.5150   23.3060   37.9280 C   0  0  0  0  0  0  0  0  0  0  0  0
   37.5710   24.2400   37.5040 C   0  0  0  0  0  0  0  0  0  0  0  0
   37.7740   24.8470   36.3050 N   0  0  0  0  0  0  0  0  0  0  0  0
   38.8260   24.5870   35.5270 C   0  0  0  0  0  0  0  0  0  0  0  0
   39.7460   23.6870   35.9240 N   0  0  0  0  0  0  0  0  0  0  0  0
   38.9560   25.2860   34.2640 C   0  0  0  0  0  0  0  0  0  0  0  0
   39.9030   25.0280   33.3020 C   0  0  0  0  0  0  0  0  0  0  0  0
   39.7780   25.8260   32.2490 N   0  0  0  0  0  0  0  0  0  0  0  0
   38.7180   26.6370   32.5210 C   0  0  0  0  0  0  0  0  0  0  0  0
   38.1450   27.6610   31.7630 C   0  0  0  0  0  0  0  0  0  0  0  0
   37.0600   28.3280   32.2920 C   0  0  0  0  0  0  0  0  0  0  0  0
   36.5420   28.0060   33.5340 C   0  0  0  0  0  0  0  0  0  0  0  0
   37.1000   26.9950   34.2920 C   0  0  0  0  0  0  0  0  0  0  0  0
   38.1930   26.3190   33.7670 C   0  0  0  0  0  0  0  0  0  0  0  0
   38.4630   22.5800   39.1470 N   0  0  0  0  0  0  0  0  0  0  0  0
   40.3631   22.3234   37.4056 H   0  0  0  0  0  0  0  0  0  0  0  0
   36.6909   24.4779   38.1195 H   0  0  0  0  0  0  0  0  0  0  0  0
   40.6752   24.2501   33.3942 H   0  0  0  0  0  0  0  0  0  0  0  0
   40.3622   25.8310   31.4007 H   0  0  0  0  0  0  0  0  0  0  0  0
   38.5470   27.9272   30.7743 H   0  0  0  0  0  0  0  0  0  0  0  0
   36.5940   29.1376   31.7111 H   0  0  0  0  0  0  0  0  0  0  0  0
   35.6757   28.5616   33.9223 H   0  0  0  0  0  0  0  0  0  0  0  0
   36.6916   26.7340   35.2795 H   0  0  0  0  0  0  0  0  0  0  0  0
   37.6802   22.7260   39.8004 H   0  0  0  0  0  0  0  0  0  0  0  0
   39.2080   21.9073   39.3780 H   0  0  0  0  0  0  0  0  0  0  0  0
  1  2  2  0
  2 16  1  0
  3  2  1  0
  4  3  2  0
  5  6  2  0
  5  4  1  0
  6  1  1  0
  7  5  1  0
  8  7  2  0
  9 10  1  0
  9  8  1  0
 10 15  2  0
 11 12  2  0
 11 10  1  0
 12 13  1  0
 13 14  2  0
 15  7  1  0
 15 14  1  0
  1 17  1  0
  3 18  1  0
  8 19  1  0
  9 20  1  0
 11 21  1  0
 12 22  1  0
 13 23  1  0
 14 24  1  0
 16 25  1  0
 16 26  1  0
M  ISO  8  17  14  18  14  19  14  20   9  21  14  22  14  23  14  24  14
M  END
>  <minimizedAffinity>  (1) 
-4.73648882

>  <minimizedRMSD>  (1) 
3.88988233

$$$$
