
     RDKit          3D

 22 23  0  0  0  0  0  0  0  0999 V2000
   40.0990   23.5140   36.0540 C   0  0  0  0  0  0  0  0  0  0  0  0
   39.4580   23.1830   37.2500 C   0  0  0  0  0  0  0  0  0  0  0  0
   38.2710   23.8610   37.5310 C   0  0  0  0  0  0  0  0  0  0  0  0
   37.8260   24.7840   36.6350 N   0  0  0  0  0  0  0  0  0  0  0  0
   38.4720   25.0680   35.5040 C   0  0  0  0  0  0  0  0  0  0  0  0
   39.6250   24.4320   35.1970 N   0  0  0  0  0  0  0  0  0  0  0  0
   37.9560   26.0660   34.5730 C   0  0  0  0  0  0  0  0  0  0  0  0
   37.0740   27.0320   34.9790 C   0  0  0  0  0  0  0  0  0  0  0  0
   36.5960   27.9640   34.0900 C   0  0  0  0  0  0  0  0  0  0  0  0
   36.9830   27.9710   32.7490 C   0  0  0  0  0  0  0  0  0  0  0  0
   37.8820   26.9900   32.3220 C   0  0  0  0  0  0  0  0  0  0  0  0
   38.3460   26.0600   33.2500 C   0  0  0  0  0  0  0  0  0  0  0  0
   40.0770   22.1920   38.0570 N   0  0  0  0  0  0  0  0  0  0  0  0
   41.0371   22.9977   35.8023 H   0  0  0  0  0  0  0  0  0  0  0  0
   37.7089   23.6546   38.4537 H   0  0  0  0  0  0  0  0  0  0  0  0
   36.7448   27.0619   36.0282 H   0  0  0  0  0  0  0  0  0  0  0  0
   35.8877   28.7269   34.4454 H   0  0  0  0  0  0  0  0  0  0  0  0
   36.5925   28.7253   32.0500 H   0  0  0  0  0  0  0  0  0  0  0  0
   38.2165   26.9528   31.2747 H   0  0  0  0  0  0  0  0  0  0  0  0
   39.0535   25.2881   32.9131 H   0  0  0  0  0  0  0  0  0  0  0  0
   39.6456   21.9110   38.9491 H   0  0  0  0  0  0  0  0  0  0  0  0
   40.9574   21.7542   37.7503 H   0  0  0  0  0  0  0  0  0  0  0  0
  1  2  2  0
  2  3  1  0
  2 13  1  0
  4  3  2  0
  5  4  1  0
  6  5  2  0
  6  1  1  0
  7  8  2  0
  7  5  1  0
  9  8  1  0
 10  9  2  0
 11 10  1  0
 11 12  2  0
 12  7  1  0
  1 14  1  0
  3 15  1  0
  8 16  1  0
  9 17  1  0
 10 18  1  0
 11 19  1  0
 12 20  1  0
 13 21  1  0
 13 22  1  0
M  ISO  7  14  14  15  14  16  14  17  14  18  14  19  14  20  14
M  END
>  <minimizedAffinity>  (1) 
-4.34819746

>  <minimizedRMSD>  (1) 
4.59254408

$$$$
