
     RDKit          3D

 23 24  0  0  0  0  0  0  0  0999 V2000
   39.6780   23.2780   36.4910 C   0  0  0  0  0  0  0  0  0  0  0  0
   38.7930   23.4250   37.5610 C   0  0  0  0  0  0  0  0  0  0  0  0
   37.7890   24.3890   37.4330 C   0  0  0  0  0  0  0  0  0  0  0  0
   37.7430   25.1120   36.2870 N   0  0  0  0  0  0  0  0  0  0  0  0
   38.6210   24.9380   35.2730 C   0  0  0  0  0  0  0  0  0  0  0  0
   39.5940   24.0120   35.3820 N   0  0  0  0  0  0  0  0  0  0  0  0
   38.4870   25.7500   34.1080 N   0  0  0  0  0  0  0  0  0  0  0  0
   39.3360   25.4950   33.0890 C   0  0  0  0  0  0  0  0  0  0  0  0
   39.2780   26.2330   31.9210 C   0  0  0  0  0  0  0  0  0  0  0  0
   38.3190   27.2250   31.8610 C   0  0  0  0  0  0  0  0  0  0  0  0
   38.2900   27.9640   30.6430 N   0  0  0  0  0  0  0  0  0  0  0  0
   37.4870   27.4490   32.9050 N   0  0  0  0  0  0  0  0  0  0  0  0
   37.5660   26.7110   34.0390 C   0  0  0  0  0  0  0  0  0  0  0  0
   36.7810   26.9310   35.0040 O   0  0  0  0  0  0  0  0  0  0  0  0
   39.0030   22.5690   38.6860 N   0  0  0  0  0  0  0  0  0  0  0  0
   40.4770   22.5257   36.5666 H   0  0  0  0  0  0  0  0  0  0  0  0
   37.0581   24.5560   38.2379 H   0  0  0  0  0  0  0  0  0  0  0  0
   40.0812   24.6921   33.1892 H   0  0  0  0  0  0  0  0  0  0  0  0
   39.9618   26.0395   31.0813 H   0  0  0  0  0  0  0  0  0  0  0  0
   37.6042   28.7220   30.5167 H   0  0  0  0  0  0  0  0  0  0  0  0
   38.9549   27.7402   29.8888 H   0  0  0  0  0  0  0  0  0  0  0  0
   38.3811   22.6325   39.5046 H   0  0  0  0  0  0  0  0  0  0  0  0
   39.7762   21.8886   38.6782 H   0  0  0  0  0  0  0  0  0  0  0  0
  1  2  2  0
  2 15  1  0
  3  2  1  0
  4  3  2  0
  5  6  2  0
  5  4  1  0
  6  1  1  0
  7  5  1  0
  8  7  1  0
  9  8  2  0
 10  9  1  0
 10 12  2  0
 11 10  1  0
 12 13  1  0
 13  7  1  0
 13 14  2  0
  1 16  1  0
  3 17  1  0
  8 18  1  0
  9 19  1  0
 11 20  1  0
 11 21  1  0
 15 22  1  0
 15 23  1  0
M  ISO  4  16  14  17  14  18  14  19  14
M  END
>  <minimizedAffinity>  (1) 
-4.42296982

>  <minimizedRMSD>  (1) 
4.40047932

$$$$
