
     RDKit          3D

 19 20  0  0  0  0  0  0  0  0999 V2000
   39.4900   22.9640   37.2100 C   0  0  0  0  0  0  0  0  0  0  0  0
   38.5080   23.3820   38.1160 C   0  0  0  0  0  0  0  0  0  0  0  0
   37.8190   24.5610   37.8320 C   0  0  0  0  0  0  0  0  0  0  0  0
   38.1500   25.2240   36.6920 N   0  0  0  0  0  0  0  0  0  0  0  0
   39.0930   24.8070   35.8390 C   0  0  0  0  0  0  0  0  0  0  0  0
   39.7820   23.6570   36.0940 N   0  0  0  0  0  0  0  0  0  0  0  0
   39.3950   25.5740   34.6320 C   0  0  0  0  0  0  0  0  0  0  0  0
   40.2300   26.6940   34.6860 C   0  0  0  0  0  0  0  0  0  0  0  0
   40.3050   27.1740   33.3970 C   0  0  0  0  0  0  0  0  0  0  0  0
   39.5170   26.3290   32.6200 C   0  0  0  0  0  0  0  0  0  0  0  0
   38.9990   25.4000   33.3840 O   0  0  0  0  0  0  0  0  0  0  0  0
   38.3170   22.5460   39.2440 N   0  0  0  0  0  0  0  0  0  0  0  0
   40.0427   22.0359   37.4178 H   0  0  0  0  0  0  0  0  0  0  0  0
   37.0365   24.9405   38.5056 H   0  0  0  0  0  0  0  0  0  0  0  0
   40.7260   27.1077   35.5764 H   0  0  0  0  0  0  0  0  0  0  0  0
   40.8736   28.0497   33.0508 H   0  0  0  0  0  0  0  0  0  0  0  0
   39.3552   26.4263   31.5363 H   0  0  0  0  0  0  0  0  0  0  0  0
   37.6111   22.7909   39.9529 H   0  0  0  0  0  0  0  0  0  0  0  0
   38.8841   21.6934   39.3550 H   0  0  0  0  0  0  0  0  0  0  0  0
  1  2  2  0
  2 12  1  0
  3  2  1  0
  4  3  2  0
  5  6  2  0
  5  4  1  0
  6  1  1  0
  7  8  2  0
  7  5  1  0
  9  8  1  0
 10 11  1  0
 10  9  2  0
 11  7  1  0
  1 13  1  0
  3 14  1  0
  8 15  1  0
  9 16  1  0
 10 17  1  0
 12 18  1  0
 12 19  1  0
M  ISO  5  13  14  14  14  15  14  16  14  17  14
M  END
>  <minimizedAffinity>  (1) 
-3.82500434

>  <minimizedRMSD>  (1) 
3.71941113

$$$$
