
     RDKit          3D

 13 13  0  0  0  0  0  0  0  0999 V2000
   39.9510   22.6550   37.5450 C   0  0  0  0  0  0  0  0  0  0  0  0
   38.8640   23.2500   38.1830 C   0  0  0  0  0  0  0  0  0  0  0  0
   37.6430   23.3070   37.4760 C   0  0  0  0  0  0  0  0  0  0  0  0
   37.6420   22.7760   36.2420 N   0  0  0  0  0  0  0  0  0  0  0  0
   38.6970   22.2110   35.6500 C   0  0  0  0  0  0  0  0  0  0  0  0
   39.8960   22.1360   36.3020 N   0  0  0  0  0  0  0  0  0  0  0  0
   39.0990   23.7410   39.4880 N   0  0  0  0  0  0  0  0  0  0  0  0
   38.3960   21.7510   34.3760 O   0  0  0  0  0  0  0  0  0  0  0  0
   40.9075   22.6061   38.0861 H   0  0  0  0  0  0  0  0  0  0  0  0
   36.7413   23.7617   37.9121 H   0  0  0  0  0  0  0  0  0  0  0  0
   38.3366   24.1919   40.0137 H   0  0  0  0  0  0  0  0  0  0  0  0
   40.0326   23.6478   39.9130 H   0  0  0  0  0  0  0  0  0  0  0  0
   39.0952   21.3107   33.8307 H   0  0  0  0  0  0  0  0  0  0  0  0
  1  2  2  0
  2  7  1  0
  3  2  1  0
  4  3  2  0
  5  4  1  0
  5  6  2  0
  6  1  1  0
  8  5  1  0
  1  9  1  0
  3 10  1  0
  7 11  1  0
  7 12  1  0
  8 13  1  0
M  ISO  3   9  14  10  14  13   3
M  END
>  <minimizedAffinity>  (1) 
-2.90445399

>  <minimizedRMSD>  (1) 
0.0957132578

$$$$
