
     RDKit          3D

 18 19  0  0  0  0  0  0  0  0999 V2000
   39.4840   22.9750   37.1740 C   0  0  0  0  0  0  0  0  0  0  0  0
   38.5170   23.3800   38.0990 C   0  0  0  0  0  0  0  0  0  0  0  0
   37.8180   24.5650   37.8190 C   0  0  0  0  0  0  0  0  0  0  0  0
   38.1350   25.2150   36.6850 N   0  0  0  0  0  0  0  0  0  0  0  0
   39.0670   24.8120   35.8090 C   0  0  0  0  0  0  0  0  0  0  0  0
   39.7610   23.6610   36.0610 N   0  0  0  0  0  0  0  0  0  0  0  0
   39.3240   25.6050   34.6090 C   0  0  0  0  0  0  0  0  0  0  0  0
   38.5640   25.4810   33.4720 C   0  0  0  0  0  0  0  0  0  0  0  0
   39.2960   26.6870   32.2720 S   0  0  0  0  0  0  0  0  0  0  0  0
   40.5700   27.1690   33.5990 C   0  0  0  0  0  0  0  0  0  0  0  0
   40.2960   26.4760   34.5550 N   0  0  0  0  0  0  0  0  0  0  0  0
   38.3340   22.5490   39.2370 N   0  0  0  0  0  0  0  0  0  0  0  0
   40.0429   22.0484   37.3716 H   0  0  0  0  0  0  0  0  0  0  0  0
   37.0425   24.9464   38.4995 H   0  0  0  0  0  0  0  0  0  0  0  0
   37.7068   24.8111   33.3093 H   0  0  0  0  0  0  0  0  0  0  0  0
   41.3769   27.9121   33.5172 H   0  0  0  0  0  0  0  0  0  0  0  0
   37.6348   22.7996   39.9506 H   0  0  0  0  0  0  0  0  0  0  0  0
   38.9005   21.6960   39.3483 H   0  0  0  0  0  0  0  0  0  0  0  0
  1  2  2  0
  2 12  1  0
  3  2  1  0
  4  3  2  0
  5  6  2  0
  5  4  1  0
  6  1  1  0
  7  5  1  0
  8  7  2  0
  9  8  1  0
  9 10  1  0
 10 11  2  0
 11  7  1  0
  1 13  1  0
  3 14  1  0
  8 15  1  0
 10 16  1  0
 12 17  1  0
 12 18  1  0
M  ISO  4  13  14  14  14  15  14  16  14
M  END
>  <minimizedAffinity>  (1) 
-3.59839535

>  <minimizedRMSD>  (1) 
3.65269566

$$$$
