
     RDKit          3D

 19 19  0  0  0  0  0  0  0  0999 V2000
   39.9190   22.7080   37.3170 C   0  0  0  0  0  0  0  0  0  0  0  0
   38.8510   23.2140   38.0670 C   0  0  0  0  0  0  0  0  0  0  0  0
   37.5880   23.2150   37.4400 C   0  0  0  0  0  0  0  0  0  0  0  0
   37.5150   22.7320   36.1800 N   0  0  0  0  0  0  0  0  0  0  0  0
   38.5580   22.2570   35.4930 C   0  0  0  0  0  0  0  0  0  0  0  0
   39.7760   22.2440   36.0700 N   0  0  0  0  0  0  0  0  0  0  0  0
   38.3950   21.7650   34.1660 N   0  0  0  0  0  0  0  0  0  0  0  0
   37.0920   21.4790   33.6760 C   0  0  0  0  0  0  0  0  0  0  0  0
   36.1700   21.0970   34.5270 N   0  0  0  0  0  0  0  0  0  0  0  0
   36.8310   21.6180   32.2770 N   0  0  0  0  0  0  0  0  0  0  0  0
   35.2310   20.9000   34.1220 H   0  0  0  0  0  0  0  0  0  0  0  0
   39.1240   23.6780   39.3810 N   0  0  0  0  0  0  0  0  0  0  0  0
   40.9200   22.6910   37.7727 H   0  0  0  0  0  0  0  0  0  0  0  0
   36.6948   23.5950   37.9576 H   0  0  0  0  0  0  0  0  0  0  0  0
   39.2179   21.6172   33.5644 H   0  0  0  0  0  0  0  0  0  0  0  0
   35.8921   21.4147   31.9056 H   0  0  0  0  0  0  0  0  0  0  0  0
   37.5819   21.9215   31.6407 H   0  0  0  0  0  0  0  0  0  0  0  0
   38.3625   24.0570   39.9619 H   0  0  0  0  0  0  0  0  0  0  0  0
   40.0835   23.6356   39.7532 H   0  0  0  0  0  0  0  0  0  0  0  0
  1  2  2  0
  2 12  1  0
  3  2  1  0
  4  3  2  0
  5  6  2  0
  5  4  1  0
  6  1  1  0
  7  5  1  0
  8  7  1  0
  8  9  2  0
 10  8  1  0
 11  9  1  0
  1 13  1  0
  3 14  1  0
  7 15  1  0
 10 16  1  0
 10 17  1  0
 12 18  1  0
 12 19  1  0
M  ISO  2  13  14  14  14
M  END
>  <minimizedAffinity>  (1) 
-3.5157671

>  <minimizedRMSD>  (1) 
0.322452515

$$$$
