
     RDKit          3D

 15 15  0  0  0  0  0  0  0  0999 V2000
   39.9930   22.6320   37.5190 C   0  0  0  0  0  0  0  0  0  0  0  0
   38.8980   23.2820   38.0990 C   0  0  0  0  0  0  0  0  0  0  0  0
   37.7770   23.4740   37.2750 C   0  0  0  0  0  0  0  0  0  0  0  0
   37.8310   23.0290   36.0050 N   0  0  0  0  0  0  0  0  0  0  0  0
   38.9020   22.4120   35.4930 C   0  0  0  0  0  0  0  0  0  0  0  0
   40.0200   22.1990   36.2550 N   0  0  0  0  0  0  0  0  0  0  0  0
   39.0360   23.6760   39.4570 N   0  0  0  0  0  0  0  0  0  0  0  0
   38.9650   21.9180   34.0890 C   0  0  0  0  0  0  0  0  0  0  0  0
   40.8853   22.4675   38.1409 H   0  0  0  0  0  0  0  0  0  0  0  0
   36.8762   23.9760   37.6579 H   0  0  0  0  0  0  0  0  0  0  0  0
   38.2613   24.1583   39.9346 H   0  0  0  0  0  0  0  0  0  0  0  0
   39.9108   23.4794   39.9639 H   0  0  0  0  0  0  0  0  0  0  0  0
   39.1042   20.8268   34.0901 H   0  0  0  0  0  0  0  0  0  0  0  0
   38.0278   22.1676   33.5701 H   0  0  0  0  0  0  0  0  0  0  0  0
   39.8096   22.3948   33.5701 H   0  0  0  0  0  0  0  0  0  0  0  0
  1  2  2  0
  2  7  1  0
  3  2  1  0
  4  3  2  0
  5  4  1  0
  5  6  2  0
  6  1  1  0
  8  5  1  0
  1  9  1  0
  3 10  1  0
  7 11  1  0
  7 12  1  0
  8 13  1  0
  8 14  1  0
  8 15  1  0
M  ISO  5   9  14  10  14  13   8  14   8  15   8
M  END
>  <minimizedAffinity>  (1) 
-2.81149197

>  <minimizedRMSD>  (1) 
0.242549643

$$$$
