
     RDKit          3D

 13 13  0  0  0  0  0  0  0  0999 V2000
   40.0100   22.6190   37.5260 C   0  0  0  0  0  0  0  0  0  0  0  0
   38.9060   23.2770   38.1000 C   0  0  0  0  0  0  0  0  0  0  0  0
   37.7930   23.4660   37.2530 C   0  0  0  0  0  0  0  0  0  0  0  0
   37.8880   23.0060   35.9920 N   0  0  0  0  0  0  0  0  0  0  0  0
   38.9520   22.3860   35.4790 C   0  0  0  0  0  0  0  0  0  0  0  0
   40.0460   22.1850   36.2670 N   0  0  0  0  0  0  0  0  0  0  0  0
   39.0340   23.6720   39.4490 N   0  0  0  0  0  0  0  0  0  0  0  0
   38.8210   21.8710   33.7680 S   0  0  0  0  0  0  0  0  0  0  0  0
   40.8969   22.4531   38.1552 H   0  0  0  0  0  0  0  0  0  0  0  0
   36.8828   23.9700   37.6100 H   0  0  0  0  0  0  0  0  0  0  0  0
   38.2568   24.1573   39.9195 H   0  0  0  0  0  0  0  0  0  0  0  0
   39.9046   23.4749   39.9629 H   0  0  0  0  0  0  0  0  0  0  0  0
   38.4835   20.5443   33.7150 H   0  0  0  0  0  0  0  0  0  0  0  0
  1  2  2  0
  2  7  1  0
  3  2  1  0
  4  3  2  0
  5  4  1  0
  5  6  2  0
  6  1  1  0
  8  5  1  0
  1  9  1  0
  3 10  1  0
  7 11  1  0
  7 12  1  0
  8 13  1  0
M  ISO  3   9  14  10  14  13  11
M  END
>  <minimizedAffinity>  (1) 
-2.81087756

>  <minimizedRMSD>  (1) 
0.258436978

$$$$
