
     RDKit          3D

 54 57  0  0  1  0  0  0  0  0999 V2000
   36.1230   29.0360   32.8220 C   0  0  0  0  0  0  0  0  0  0  0  0
   36.5530   27.8440   32.2960 C   0  0  0  0  0  0  0  0  0  0  0  0
   36.9930   26.8640   33.1820 C   0  0  0  0  0  0  0  0  0  0  0  0
   36.9960   27.0830   34.5260 C   0  0  0  0  0  0  0  0  0  0  0  0
   36.5670   28.2740   35.0520 C   0  0  0  0  0  0  0  0  0  0  0  0
   36.1290   29.2550   34.1990 C   0  0  0  0  0  0  0  0  0  0  0  0
   37.4960   25.9300   35.2980 C   0  0  0  0  0  0  0  0  0  0  0  0
   38.8880   25.5530   34.9890 C   0  0  2  0  0  0  0  0  0  0  0  0
   41.1340   22.9880   36.3440 C   0  0  0  0  0  0  0  0  0  0  0  0
   40.4240   22.4960   37.4770 C   0  0  0  0  0  0  0  0  0  0  0  0
   39.1690   23.0580   37.7630 C   0  0  0  0  0  0  0  0  0  0  0  0
   38.7270   24.0430   36.9200 N   0  0  0  0  0  0  0  0  0  0  0  0
   39.4380   24.4840   35.8490 C   0  0  0  0  0  0  0  0  0  0  0  0
   40.6320   23.9710   35.5490 N   0  0  0  0  0  0  0  0  0  0  0  0
   39.7930   26.8020   35.1620 C   0  0  0  0  0  0  0  0  0  0  0  0
   35.5620   30.2920   31.7370 S   0  0  0  0  0  0  0  0  0  0  0  0
   35.9360   29.8680   30.3270 O   0  0  0  0  0  0  0  0  0  0  0  0
   36.2590   31.5990   32.0060 O   0  0  0  0  0  0  0  0  0  0  0  0
   33.8470   30.5100   31.8660 C   0  0  0  0  0  0  0  0  0  0  0  0
   32.8870   29.9380   32.5990 N   0  0  0  0  0  0  0  0  0  0  0  0
   31.7260   30.4650   32.3260 O   0  0  0  0  0  0  0  0  0  0  0  0
   31.8830   31.3940   31.4120 C   0  0  0  0  0  0  0  0  0  0  0  0
   33.1750   31.4260   31.1290 N   0  0  0  0  0  0  0  0  0  0  0  0
   30.7790   32.1810   30.8810 C   0  0  0  0  0  0  0  0  0  0  0  0
   30.3370   33.1250   31.6150 O   0  0  0  0  0  0  0  0  0  0  0  0
   30.2140   31.9040   29.5840 N   0  0  0  0  0  0  0  0  0  0  0  0
   30.7990   31.9060   28.2760 C   0  0  0  0  0  0  0  0  0  0  0  0
   30.2140   32.9960   27.3770 C   0  0  0  0  0  0  0  0  0  0  0  0
   28.7780   33.2670   27.7140 C   0  0  0  0  0  0  0  0  0  0  0  0
   28.1770   31.9680   28.2190 C   0  0  0  0  0  0  0  0  0  0  0  0
   28.8070   31.5540   29.5330 C   0  0  0  0  0  0  0  0  0  0  0  0
   36.5503   27.6683   31.2101 H   0  0  0  0  0  0  0  0  0  0  0  0
   37.3436   25.8978   32.7901 H   0  0  0  0  0  0  0  0  0  0  0  0
   36.5739   28.4402   36.1394 H   0  0  0  0  0  0  0  0  0  0  0  0
   35.7814   30.2174   34.6026 H   0  0  0  0  0  0  0  0  0  0  0  0
   37.4354   26.1788   36.3678 H   0  0  0  0  0  0  0  0  0  0  0  0
   36.8675   25.0698   35.0240 H   0  0  0  0  0  0  0  0  0  0  0  0
   38.8750   25.1682   33.9586 H   0  0  0  0  0  0  0  0  0  0  0  0
   42.1185   22.5597   36.1047 H   0  0  0  0  0  0  0  0  0  0  0  0
   40.8459   21.7002   38.1085 H   0  0  0  0  0  0  0  0  0  0  0  0
   38.5699   22.7232   38.6226 H   0  0  0  0  0  0  0  0  0  0  0  0
   39.9390   27.0035   36.2335 H   0  0  0  0  0  0  0  0  0  0  0  0
   40.7680   26.6169   34.6876 H   0  0  0  0  0  0  0  0  0  0  0  0
   39.3134   27.6709   34.6876 H   0  0  0  0  0  0  0  0  0  0  0  0
   31.8820   32.0723   28.3737 H   0  0  0  0  0  0  0  0  0  0  0  0
   30.5807   30.9339   27.8097 H   0  0  0  0  0  0  0  0  0  0  0  0
   30.2807   32.6699   26.3286 H   0  0  0  0  0  0  0  0  0  0  0  0
   30.7882   33.9210   27.5339 H   0  0  0  0  0  0  0  0  0  0  0  0
   28.7144   34.0392   28.4948 H   0  0  0  0  0  0  0  0  0  0  0  0
   28.2332   33.6288   26.8295 H   0  0  0  0  0  0  0  0  0  0  0  0
   27.0955   32.1050   28.3658 H   0  0  0  0  0  0  0  0  0  0  0  0
   28.3678   31.1806   27.4750 H   0  0  0  0  0  0  0  0  0  0  0  0
   28.2827   32.0618   30.3560 H   0  0  0  0  0  0  0  0  0  0  0  0
   28.7205   30.4615   29.6271 H   0  0  0  0  0  0  0  0  0  0  0  0
  1  6  1  0
  2  1  2  0
  2  3  1  0
  3  4  2  0
  4  5  1  0
  4  7  1  0
  6  5  2  0
  8 15  1  0
  8  7  1  0
  8 13  1  0
  9 10  2  0
 10 11  1  0
 12 11  2  0
 13 12  1  0
 14 13  2  0
 14  9  1  0
 16 19  1  0
 16 18  2  0
 16  1  1  0
 17 16  2  0
 19 20  2  0
 21 20  1  0
 22 21  1  0
 23 22  2  0
 23 19  1  0
 24 22  1  0
 24 25  2  0
 26 24  1  0
 27 26  1  0
 28 29  1  0
 28 27  1  0
 29 30  1  0
 30 31  1  0
 31 26  1  0
  2 32  1  0
  3 33  1  0
  5 34  1  0
  6 35  1  0
  7 36  1  0
  7 37  1  0
  8 38  1  6
  9 39  1  0
 10 40  1  0
 11 41  1  0
 15 42  1  0
 15 43  1  0
 15 44  1  0
 27 45  1  0
 27 46  1  0
 28 47  1  0
 28 48  1  0
 29 49  1  0
 29 50  1  0
 30 51  1  0
 30 52  1  0
 31 53  1  0
 31 54  1  0
M  ISO  8  32  14  33  14  34  14  35  14  36   8  37   8  38   8  39  14
M  ISO  8  40  14  41  14  42   8  43   8  44   8  45  13  46  13  47  13
M  ISO  7  48  13  49  13  50  13  51  13  52  13  53  13  54  13
M  END
>  <minimizedAffinity>  (1) 
-5.91497469

>  <minimizedRMSD>  (1) 
2.26573706

$$$$
