
     RDKit          3D

 38 40  0  0  0  0  0  0  0  0999 V2000
   39.3000   25.6140   34.6170 C   0  0  0  0  0  0  0  0  0  0  0  0
   39.4710   22.9440   37.1430 C   0  0  0  0  0  0  0  0  0  0  0  0
   38.5350   23.3480   38.1050 C   0  0  0  0  0  0  0  0  0  0  0  0
   37.8500   24.5420   37.8720 C   0  0  0  0  0  0  0  0  0  0  0  0
   38.1500   25.2190   36.7230 N   0  0  0  0  0  0  0  0  0  0  0  0
   39.0530   24.7940   35.8310 C   0  0  0  0  0  0  0  0  0  0  0  0
   39.7270   23.6350   36.0440 N   0  0  0  0  0  0  0  0  0  0  0  0
   38.3250   22.5470   39.2620 N   0  0  0  0  0  0  0  0  0  0  0  0
   39.5370   27.0620   34.9850 C   0  0  0  0  0  0  0  0  0  0  0  0
   40.4800   25.0610   33.8370 C   0  0  0  0  0  0  0  0  0  0  0  0
   38.0690   25.5030   33.7320 C   0  0  0  0  0  0  0  0  0  0  0  0
   37.3460   26.7890   33.5880 C   0  0  0  0  0  0  0  0  0  0  0  0
   36.6150   27.4110   34.5400 N   0  0  0  0  0  0  0  0  0  0  0  0
   35.9910   28.5670   34.3410 C   0  0  0  0  0  0  0  0  0  0  0  0
   36.0580   29.1910   33.1530 N   0  0  0  0  0  0  0  0  0  0  0  0
   36.7800   28.6050   32.1690 C   0  0  0  0  0  0  0  0  0  0  0  0
   36.8460   29.2590   30.9340 C   0  0  0  0  0  0  0  0  0  0  0  0
   37.5910   28.6500   29.9230 C   0  0  0  0  0  0  0  0  0  0  0  0
   38.2550   27.4480   30.0880 C   0  0  0  0  0  0  0  0  0  0  0  0
   38.1610   26.8390   31.3240 C   0  0  0  0  0  0  0  0  0  0  0  0
   37.4350   27.4030   32.3580 C   0  0  0  0  0  0  0  0  0  0  0  0
   40.0202   22.0056   37.3100 H   0  0  0  0  0  0  0  0  0  0  0  0
   37.1010   24.9217   38.5825 H   0  0  0  0  0  0  0  0  0  0  0  0
   37.6386   22.8385   39.9725 H   0  0  0  0  0  0  0  0  0  0  0  0
   38.8594   21.6757   39.3891 H   0  0  0  0  0  0  0  0  0  0  0  0
   39.5537   27.1640   36.0801 H   0  0  0  0  0  0  0  0  0  0  0  0
   40.5012   27.3924   34.5712 H   0  0  0  0  0  0  0  0  0  0  0  0
   38.7285   27.6825   34.5712 H   0  0  0  0  0  0  0  0  0  0  0  0
   41.2472   24.7015   34.5386 H   0  0  0  0  0  0  0  0  0  0  0  0
   40.1426   24.2272   33.2038 H   0  0  0  0  0  0  0  0  0  0  0  0
   40.9049   25.8538   33.2038 H   0  0  0  0  0  0  0  0  0  0  0  0
   38.3833   25.1631   32.7342 H   0  0  0  0  0  0  0  0  0  0  0  0
   37.3818   24.7889   34.2093 H   0  0  0  0  0  0  0  0  0  0  0  0
   35.4119   29.0191   35.1597 H   0  0  0  0  0  0  0  0  0  0  0  0
   36.3306   30.2162   30.7662 H   0  0  0  0  0  0  0  0  0  0  0  0
   37.6532   29.1512   28.9458 H   0  0  0  0  0  0  0  0  0  0  0  0
   38.8338   26.9960   29.2690 H   0  0  0  0  0  0  0  0  0  0  0  0
   38.6763   25.8815   31.4906 H   0  0  0  0  0  0  0  0  0  0  0  0
  1  9  1  0
  1  6  1  0
  2  3  2  0
  3  8  1  0
  4  3  1  0
  5  4  2  0
  6  7  2  0
  6  5  1  0
  7  2  1  0
 10  1  1  0
 11  1  1  0
 12 11  1  0
 12 13  2  0
 14 13  1  0
 15 14  2  0
 16 21  2  0
 16 15  1  0
 17 16  1  0
 18 19  1  0
 18 17  2  0
 19 20  2  0
 20 21  1  0
 21 12  1  0
  2 22  1  0
  4 23  1  0
  8 24  1  0
  8 25  1  0
  9 26  1  0
  9 27  1  0
  9 28  1  0
 10 29  1  0
 10 30  1  0
 10 31  1  0
 11 32  1  0
 11 33  1  0
 14 34  1  0
 17 35  1  0
 18 36  1  0
 19 37  1  0
 20 38  1  0
M  ISO  8  22  14  23  14  26   8  27   8  28   8  29   8  30   8  31   8
M  ISO  7  32   8  33   8  34  14  35  14  36  14  37  14  38  14
M  END
>  <minimizedAffinity>  (1) 
-5.52066565

>  <minimizedRMSD>  (1) 
1.91158271

$$$$
