
     RDKit          3D

 24 24  0  0  0  0  0  0  0  0999 V2000
   40.7380   23.3480   36.0620 C   0  0  0  0  0  0  0  0  0  0  0  0
   39.9750   22.8190   37.1110 C   0  0  0  0  0  0  0  0  0  0  0  0
   38.7800   23.4700   37.4100 C   0  0  0  0  0  0  0  0  0  0  0  0
   38.4460   24.5600   36.6680 N   0  0  0  0  0  0  0  0  0  0  0  0
   39.2080   25.0360   35.6670 C   0  0  0  0  0  0  0  0  0  0  0  0
   40.3790   24.4170   35.3570 N   0  0  0  0  0  0  0  0  0  0  0  0
   38.7500   26.2350   34.9180 C   0  0  0  0  0  0  0  0  0  0  0  0
   39.8780   26.8220   34.1020 C   0  0  0  0  0  0  0  0  0  0  0  0
   37.5740   25.8580   34.0170 C   0  0  0  0  0  0  0  0  0  0  0  0
   38.2310   27.2340   35.9250 C   0  0  0  0  0  0  0  0  0  0  0  0
   40.4810   21.6670   37.7800 N   0  0  0  0  0  0  0  0  0  0  0  0
   41.6862   22.8519   35.8074 H   0  0  0  0  0  0  0  0  0  0  0  0
   38.1272   23.1137   38.2205 H   0  0  0  0  0  0  0  0  0  0  0  0
   40.6486   27.2230   34.7768 H   0  0  0  0  0  0  0  0  0  0  0  0
   40.3179   26.0385   33.4676 H   0  0  0  0  0  0  0  0  0  0  0  0
   39.4887   27.6319   33.4676 H   0  0  0  0  0  0  0  0  0  0  0  0
   36.7099   25.5810   34.6387 H   0  0  0  0  0  0  0  0  0  0  0  0
   37.3088   26.7161   33.3820 H   0  0  0  0  0  0  0  0  0  0  0  0
   37.8571   25.0056   33.3820 H   0  0  0  0  0  0  0  0  0  0  0  0
   38.4238   26.8629   36.9424 H   0  0  0  0  0  0  0  0  0  0  0  0
   38.7426   28.1974   35.7830 H   0  0  0  0  0  0  0  0  0  0  0  0
   37.1486   27.3692   35.7830 H   0  0  0  0  0  0  0  0  0  0  0  0
   39.9500   21.2477   38.5566 H   0  0  0  0  0  0  0  0  0  0  0  0
   41.3778   21.2537   37.4870 H   0  0  0  0  0  0  0  0  0  0  0  0
  1  2  2  0
  2  3  1  0
  2 11  1  0
  4  3  2  0
  5  4  1  0
  6  5  2  0
  6  1  1  0
  7  5  1  0
  7 10  1  0
  8  7  1  0
  9  7  1  0
  1 12  1  0
  3 13  1  0
  8 14  1  0
  8 15  1  0
  8 16  1  0
  9 17  1  0
  9 18  1  0
  9 19  1  0
 10 20  1  0
 10 21  1  0
 10 22  1  0
 11 23  1  0
 11 24  1  0
M  ISO  8  12  14  13  14  14   8  15   8  16   8  17   8  18   8  19   8
M  ISO  3  20   8  21   8  22   8
M  END
>  <minimizedAffinity>  (1) 
-3.9461751

>  <minimizedRMSD>  (1) 
3.68769288

$$$$
