
     RDKit          3D

 38 40  0  0  0  0  0  0  0  0999 V2000
   39.3340   25.6300   33.9450 C   0  0  0  0  0  0  0  0  0  0  0  0
   41.0650   23.1490   36.0400 C   0  0  0  0  0  0  0  0  0  0  0  0
   40.0900   22.7890   36.9870 C   0  0  0  0  0  0  0  0  0  0  0  0
   38.8580   23.4120   36.8790 C   0  0  0  0  0  0  0  0  0  0  0  0
   38.6760   24.3140   35.8830 N   0  0  0  0  0  0  0  0  0  0  0  0
   39.6260   24.6350   34.9970 C   0  0  0  0  0  0  0  0  0  0  0  0
   40.8560   24.0410   35.0700 N   0  0  0  0  0  0  0  0  0  0  0  0
   40.4470   21.8230   37.9690 N   0  0  0  0  0  0  0  0  0  0  0  0
   39.6600   27.0260   34.3910 C   0  0  0  0  0  0  0  0  0  0  0  0
   40.1240   25.2850   32.6730 C   0  0  0  0  0  0  0  0  0  0  0  0
   37.8720   25.5130   33.5970 C   0  0  0  0  0  0  0  0  0  0  0  0
   37.1900   26.7890   33.6270 N   0  0  0  0  0  0  0  0  0  0  0  0
   36.7360   27.4260   34.7280 C   0  0  0  0  0  0  0  0  0  0  0  0
   36.1650   28.5830   34.3020 N   0  0  0  0  0  0  0  0  0  0  0  0
   36.2640   28.6620   32.9600 C   0  0  0  0  0  0  0  0  0  0  0  0
   35.8170   29.6700   32.1060 C   0  0  0  0  0  0  0  0  0  0  0  0
   35.2280   30.6960   32.5220 O   0  0  0  0  0  0  0  0  0  0  0  0
   36.0250   29.5410   30.7680 N   0  0  0  0  0  0  0  0  0  0  0  0
   36.6630   28.4190   30.3810 C   0  0  0  0  0  0  0  0  0  0  0  0
   36.9660   28.1190   29.0040 N   0  0  0  0  0  0  0  0  0  0  0  0
   37.1120   27.4170   31.1910 N   0  0  0  0  0  0  0  0  0  0  0  0
   36.9120   27.5280   32.5340 C   0  0  0  0  0  0  0  0  0  0  0  0
   42.0531   22.6695   36.1022 H   0  0  0  0  0  0  0  0  0  0  0  0
   38.0463   23.1807   37.5844 H   0  0  0  0  0  0  0  0  0  0  0  0
   39.7603   21.5332   38.6799 H   0  0  0  0  0  0  0  0  0  0  0  0
   41.3921   21.4136   37.9689 H   0  0  0  0  0  0  0  0  0  0  0  0
   39.6696   27.0669   35.4902 H   0  0  0  0  0  0  0  0  0  0  0  0
   40.6493   27.3127   34.0048 H   0  0  0  0  0  0  0  0  0  0  0  0
   38.9000   27.7212   34.0048 H   0  0  0  0  0  0  0  0  0  0  0  0
   41.0993   24.8591   32.9513 H   0  0  0  0  0  0  0  0  0  0  0  0
   39.5597   24.5514   32.0786 H   0  0  0  0  0  0  0  0  0  0  0  0
   40.2786   26.1975   32.0786 H   0  0  0  0  0  0  0  0  0  0  0  0
   37.3903   24.8388   34.3204 H   0  0  0  0  0  0  0  0  0  0  0  0
   37.8035   25.1221   32.5711 H   0  0  0  0  0  0  0  0  0  0  0  0
   36.8135   27.0760   35.7680 H   0  0  0  0  0  0  0  0  0  0  0  0
   35.7147   30.2552   30.0938 H   0  0  0  0  0  0  0  0  0  0  0  0
   37.4563   27.2458   28.7630 H   0  0  0  0  0  0  0  0  0  0  0  0
   36.6922   28.7778   28.2611 H   0  0  0  0  0  0  0  0  0  0  0  0
  1  9  1  0
  1  6  1  0
  2  3  2  0
  3  8  1  0
  4  3  1  0
  5  4  2  0
  6  7  2  0
  6  5  1  0
  7  2  1  0
 10  1  1  0
 11 12  1  0
 11  1  1  0
 12 13  1  0
 14 13  2  0
 15 14  1  0
 16 17  2  0
 16 15  1  0
 18 16  1  0
 19 18  1  0
 19 21  2  0
 20 19  1  0
 21 22  1  0
 22 15  2  0
 22 12  1  0
  2 23  1  0
  4 24  1  0
  8 25  1  0
  8 26  1  0
  9 27  1  0
  9 28  1  0
  9 29  1  0
 10 30  1  0
 10 31  1  0
 10 32  1  0
 11 33  1  0
 11 34  1  0
 13 35  1  0
 18 36  1  0
 20 37  1  0
 20 38  1  0
M  ISO  8  23  14  24  14  27   8  28   8  29   8  30   8  31   8  32   8
M  ISO  4  33   8  34   8  35  14  36   9
M  END
>  <minimizedAffinity>  (1) 
-5.71481276

>  <minimizedRMSD>  (1) 
1.63118529

$$$$
