
     RDKit          3D

 31 32  0  0  0  0  0  0  0  0999 V2000
   39.1040   25.8400   34.6150 C   0  0  0  0  0  0  0  0  0  0  0  0
   41.1060   23.1220   36.1150 C   0  0  0  0  0  0  0  0  0  0  0  0
   40.2590   22.5940   37.0970 C   0  0  0  0  0  0  0  0  0  0  0  0
   39.0130   23.1870   37.2240 C   0  0  0  0  0  0  0  0  0  0  0  0
   38.6970   24.2240   36.4000 N   0  0  0  0  0  0  0  0  0  0  0  0
   39.5510   24.7010   35.4630 C   0  0  0  0  0  0  0  0  0  0  0  0
   40.7760   24.1420   35.3160 N   0  0  0  0  0  0  0  0  0  0  0  0
   40.7260   21.5100   37.8810 N   0  0  0  0  0  0  0  0  0  0  0  0
   39.4460   27.1430   35.2820 C   0  0  0  0  0  0  0  0  0  0  0  0
   39.7470   25.7450   33.2470 C   0  0  0  0  0  0  0  0  0  0  0  0
   37.6050   25.7090   34.4400 C   0  0  0  0  0  0  0  0  0  0  0  0
   36.9630   26.8520   33.8810 N   0  0  0  0  0  0  0  0  0  0  0  0
   36.6690   26.9230   32.5520 C   0  0  0  0  0  0  0  0  0  0  0  0
   36.0620   28.1140   32.2840 C   0  0  0  0  0  0  0  0  0  0  0  0
   35.9730   28.8000   33.4440 N   0  0  0  0  0  0  0  0  0  0  0  0
   36.5310   28.0050   34.4020 C   0  0  0  0  0  0  0  0  0  0  0  0
   42.1019   22.6709   35.9937 H   0  0  0  0  0  0  0  0  0  0  0  0
   38.2941   22.8275   37.9749 H   0  0  0  0  0  0  0  0  0  0  0  0
   40.1221   21.1038   38.6098 H   0  0  0  0  0  0  0  0  0  0  0  0
   41.6694   21.1283   37.7221 H   0  0  0  0  0  0  0  0  0  0  0  0
   39.4126   27.0157   36.3741 H   0  0  0  0  0  0  0  0  0  0  0  0
   40.4566   27.4554   34.9800 H   0  0  0  0  0  0  0  0  0  0  0  0
   38.7191   27.9114   34.9800 H   0  0  0  0  0  0  0  0  0  0  0  0
   40.8293   25.5851   33.3609 H   0  0  0  0  0  0  0  0  0  0  0  0
   39.3081   24.9020   32.6933 H   0  0  0  0  0  0  0  0  0  0  0  0
   39.5706   26.6790   32.6933 H   0  0  0  0  0  0  0  0  0  0  0  0
   37.4120   24.8514   33.7787 H   0  0  0  0  0  0  0  0  0  0  0  0
   37.1868   25.5838   35.4497 H   0  0  0  0  0  0  0  0  0  0  0  0
   36.8876   26.1405   31.8104 H   0  0  0  0  0  0  0  0  0  0  0  0
   35.7083   28.4550   31.2998 H   0  0  0  0  0  0  0  0  0  0  0  0
   36.6146   28.2771   35.4645 H   0  0  0  0  0  0  0  0  0  0  0  0
  1  9  1  0
  1  6  1  0
  2  3  2  0
  3  4  1  0
  3  8  1  0
  5  4  2  0
  6  5  1  0
  7  6  2  0
  7  2  1  0
 10  1  1  0
 11  1  1  0
 12 16  1  0
 12 11  1  0
 13 12  1  0
 14 13  2  0
 14 15  1  0
 15 16  2  0
  2 17  1  0
  4 18  1  0
  8 19  1  0
  8 20  1  0
  9 21  1  0
  9 22  1  0
  9 23  1  0
 10 24  1  0
 10 25  1  0
 10 26  1  0
 11 27  1  0
 11 28  1  0
 13 29  1  0
 14 30  1  0
 16 31  1  0
M  ISO  8  17  14  18  14  21   8  22   8  23   8  24   8  25   8  26   8
M  ISO  5  27   8  28   8  29  14  30  14  31  14
M  END
>  <minimizedAffinity>  (1) 
-4.36281633

>  <minimizedRMSD>  (1) 
1.67473865

$$$$
