
     RDKit          3D

 40 41  0  0  0  0  0  0  0  0999 V2000
   39.2240   25.6530   34.2760 C   0  0  0  0  0  0  0  0  0  0  0  0
   39.6850   23.0900   36.9190 C   0  0  0  0  0  0  0  0  0  0  0  0
   38.6870   23.3920   37.8400 C   0  0  0  0  0  0  0  0  0  0  0  0
   37.8510   24.4780   37.5390 C   0  0  0  0  0  0  0  0  0  0  0  0
   38.0710   25.1560   36.3820 N   0  0  0  0  0  0  0  0  0  0  0  0
   39.0430   24.8340   35.5240 C   0  0  0  0  0  0  0  0  0  0  0  0
   39.8690   23.7700   35.8070 N   0  0  0  0  0  0  0  0  0  0  0  0
   38.5830   22.6000   39.0170 N   0  0  0  0  0  0  0  0  0  0  0  0
   40.0570   26.8920   34.5860 C   0  0  0  0  0  0  0  0  0  0  0  0
   39.9500   24.8000   33.2530 C   0  0  0  0  0  0  0  0  0  0  0  0
   37.8720   26.0340   33.8020 C   0  0  0  0  0  0  0  0  0  0  0  0
   37.5420   27.4450   33.5090 C   0  0  0  0  0  0  0  0  0  0  0  0
   36.4800   27.8450   34.5520 C   0  0  0  0  0  0  0  0  0  0  0  0
   35.9510   29.2150   34.2980 C   0  0  0  0  0  0  0  0  0  0  0  0
   35.3140   29.2040   32.9020 C   0  0  0  0  0  0  0  0  0  0  0  0
   36.4880   29.0880   31.9540 C   0  0  0  0  0  0  0  0  0  0  0  0
   37.0070   27.6380   32.1340 C   0  0  0  0  0  0  0  0  0  0  0  0
   40.3528   22.2418   37.1303 H   0  0  0  0  0  0  0  0  0  0  0  0
   37.0397   24.7725   38.2210 H   0  0  0  0  0  0  0  0  0  0  0  0
   37.8518   22.8052   39.7129 H   0  0  0  0  0  0  0  0  0  0  0  0
   39.2389   21.8213   39.1734 H   0  0  0  0  0  0  0  0  0  0  0  0
   40.1397   27.0150   35.6760 H   0  0  0  0  0  0  0  0  0  0  0  0
   41.0615   26.7763   34.1528 H   0  0  0  0  0  0  0  0  0  0  0  0
   39.5708   27.7785   34.1528 H   0  0  0  0  0  0  0  0  0  0  0  0
   40.5788   24.0612   33.7715 H   0  0  0  0  0  0  0  0  0  0  0  0
   39.2149   24.2780   32.6228 H   0  0  0  0  0  0  0  0  0  0  0  0
   40.5828   25.4422   32.6228 H   0  0  0  0  0  0  0  0  0  0  0  0
   37.6950   25.4712   32.8736 H   0  0  0  0  0  0  0  0  0  0  0  0
   37.2366   25.8104   34.6716 H   0  0  0  0  0  0  0  0  0  0  0  0
   38.4485   28.0658   33.5630 H   0  0  0  0  0  0  0  0  0  0  0  0
   35.6478   27.1270   34.5077 H   0  0  0  0  0  0  0  0  0  0  0  0
   36.9528   27.8372   35.5452 H   0  0  0  0  0  0  0  0  0  0  0  0
   35.1958   29.4737   35.0548 H   0  0  0  0  0  0  0  0  0  0  0  0
   36.7572   29.9613   34.3534 H   0  0  0  0  0  0  0  0  0  0  0  0
   34.6367   28.3446   32.7899 H   0  0  0  0  0  0  0  0  0  0  0  0
   34.7074   30.1014   32.7106 H   0  0  0  0  0  0  0  0  0  0  0  0
   37.2709   29.8144   32.2174 H   0  0  0  0  0  0  0  0  0  0  0  0
   36.2010   29.2980   30.9131 H   0  0  0  0  0  0  0  0  0  0  0  0
   36.1794   26.9333   31.9649 H   0  0  0  0  0  0  0  0  0  0  0  0
   37.8135   27.4553   31.4086 H   0  0  0  0  0  0  0  0  0  0  0  0
  1  9  1  0
  1  6  1  0
  2  3  2  0
  3  8  1  0
  4  3  1  0
  5  4  2  0
  6  7  2  0
  6  5  1  0
  7  2  1  0
 10  1  1  0
 11  1  1  0
 12 11  1  0
 12 13  1  0
 14 13  1  0
 15 14  1  0
 16 17  1  0
 16 15  1  0
 17 12  1  0
  2 18  1  0
  4 19  1  0
  8 20  1  0
  8 21  1  0
  9 22  1  0
  9 23  1  0
  9 24  1  0
 10 25  1  0
 10 26  1  0
 10 27  1  0
 11 28  1  0
 11 29  1  0
 12 30  1  0
 13 31  1  0
 13 32  1  0
 14 33  1  0
 14 34  1  0
 15 35  1  0
 15 36  1  0
 16 37  1  0
 16 38  1  0
 17 39  1  0
 17 40  1  0
M  ISO  8  18  14  19  14  22   8  23   8  24   8  25   8  26   8  27   8
M  ISO  8  28   8  29   8  30  13  31  13  32  13  33  13  34  13  35  13
M  ISO  5  36  13  37  13  38  13  39  13  40  13
M  END
>  <minimizedAffinity>  (1) 
-4.93857718

>  <minimizedRMSD>  (1) 
1.73369265

$$$$
