
     RDKit          3D

 34 35  0  0  0  0  0  0  0  0999 V2000
   38.6240   26.0100   34.2200 C   0  0  0  0  0  0  0  0  0  0  0  0
   40.6290   23.4510   35.9700 C   0  0  0  0  0  0  0  0  0  0  0  0
   39.7790   23.0170   36.9820 C   0  0  0  0  0  0  0  0  0  0  0  0
   38.5180   23.6110   37.0550 C   0  0  0  0  0  0  0  0  0  0  0  0
   38.2070   24.5690   36.1350 N   0  0  0  0  0  0  0  0  0  0  0  0
   39.0620   24.9630   35.1650 C   0  0  0  0  0  0  0  0  0  0  0  0
   40.2990   24.3890   35.0840 N   0  0  0  0  0  0  0  0  0  0  0  0
   40.2300   22.0060   37.8820 N   0  0  0  0  0  0  0  0  0  0  0  0
   39.7430   27.0150   33.9950 C   0  0  0  0  0  0  0  0  0  0  0  0
   38.2330   25.3780   32.8910 C   0  0  0  0  0  0  0  0  0  0  0  0
   37.4180   26.6870   34.8010 C   0  0  0  0  0  0  0  0  0  0  0  0
   36.8640   27.7720   33.9760 C   0  0  0  0  0  0  0  0  0  0  0  0
   36.0940   28.8150   34.4490 C   0  0  0  0  0  0  0  0  0  0  0  0
   35.6300   29.7770   33.5760 C   0  0  0  0  0  0  0  0  0  0  0  0
   35.9300   29.7060   32.2250 C   0  0  0  0  0  0  0  0  0  0  0  0
   36.7070   28.6660   31.7120 C   0  0  0  0  0  0  0  0  0  0  0  0
   37.1560   27.7170   32.6160 C   0  0  0  0  0  0  0  0  0  0  0  0
   41.6274   22.9949   35.8976 H   0  0  0  0  0  0  0  0  0  0  0  0
   37.7967   23.3155   37.8311 H   0  0  0  0  0  0  0  0  0  0  0  0
   39.6116   21.6748   38.6362 H   0  0  0  0  0  0  0  0  0  0  0  0
   41.1740   21.6074   37.7776 H   0  0  0  0  0  0  0  0  0  0  0  0
   40.1269   27.3598   34.9664 H   0  0  0  0  0  0  0  0  0  0  0  0
   40.5559   26.5378   33.4279 H   0  0  0  0  0  0  0  0  0  0  0  0
   39.3556   27.8743   33.4279 H   0  0  0  0  0  0  0  0  0  0  0  0
   37.6626   24.4560   33.0771 H   0  0  0  0  0  0  0  0  0  0  0  0
   37.6132   26.0832   32.3179 H   0  0  0  0  0  0  0  0  0  0  0  0
   39.1408   25.1382   32.3179 H   0  0  0  0  0  0  0  0  0  0  0  0
   36.6337   25.9286   34.9410 H   0  0  0  0  0  0  0  0  0  0  0  0
   37.7459   27.1501   35.7433 H   0  0  0  0  0  0  0  0  0  0  0  0
   35.8508   28.8791   35.5199 H   0  0  0  0  0  0  0  0  0  0  0  0
   35.0166   30.6075   33.9555 H   0  0  0  0  0  0  0  0  0  0  0  0
   35.5493   30.4825   31.5452 H   0  0  0  0  0  0  0  0  0  0  0  0
   36.9511   28.6030   30.6413 H   0  0  0  0  0  0  0  0  0  0  0  0
   37.7698   26.8839   32.2429 H   0  0  0  0  0  0  0  0  0  0  0  0
  1 11  1  0
  1  6  1  0
  2  3  2  0
  3  4  1  0
  3  8  1  0
  5  4  2  0
  6  5  1  0
  7  6  2  0
  7  2  1  0
  9  1  1  0
 10  1  1  0
 12 13  2  0
 12 11  1  0
 14 13  1  0
 15 14  2  0
 16 15  1  0
 16 17  2  0
 17 12  1  0
  2 18  1  0
  4 19  1  0
  8 20  1  0
  8 21  1  0
  9 22  1  0
  9 23  1  0
  9 24  1  0
 10 25  1  0
 10 26  1  0
 10 27  1  0
 11 28  1  0
 11 29  1  0
 13 30  1  0
 14 31  1  0
 15 32  1  0
 16 33  1  0
 17 34  1  0
M  ISO  8  18  14  19  14  22   8  23   8  24   8  25   8  26   8  27   8
M  ISO  7  28   8  29   8  30  14  31  14  32  14  33  14  34  14
M  END
>  <minimizedAffinity>  (1) 
-4.91688061

>  <minimizedRMSD>  (1) 
1.40219617

$$$$
