
     RDKit          3D

 25 25  0  0  0  0  0  0  0  0999 V2000
   39.0060   26.5020   34.7490 C   0  0  0  0  0  0  0  0  0  0  0  0
   36.4530   26.7340   32.1050 C   0  0  0  0  0  0  0  0  0  0  0  0
   37.1430   27.3120   31.0310 C   0  0  0  0  0  0  0  0  0  0  0  0
   38.4910   27.6140   31.2380 C   0  0  0  0  0  0  0  0  0  0  0  0
   39.0300   27.3300   32.4540 N   0  0  0  0  0  0  0  0  0  0  0  0
   38.3190   26.7710   33.4620 C   0  0  0  0  0  0  0  0  0  0  0  0
   37.0140   26.4720   33.2740 N   0  0  0  0  0  0  0  0  0  0  0  0
   36.4620   27.5600   29.8060 N   0  0  0  0  0  0  0  0  0  0  0  0
   38.4380   27.3710   35.8350 C   0  0  0  0  0  0  0  0  0  0  0  0
   38.8760   25.0380   35.1170 C   0  0  0  0  0  0  0  0  0  0  0  0
   40.4740   26.8020   34.5560 C   0  0  0  0  0  0  0  0  0  0  0  0
   41.5240   25.3710   34.6630 S   0  0  0  0  0  0  0  0  0  0  0  0
   35.3901   26.4853   31.9690 H   0  0  0  0  0  0  0  0  0  0  0  0
   39.0985   28.0680   30.4413 H   0  0  0  0  0  0  0  0  0  0  0  0
   35.4658   27.3157   29.7120 H   0  0  0  0  0  0  0  0  0  0  0  0
   36.9654   27.9837   29.0136 H   0  0  0  0  0  0  0  0  0  0  0  0
   38.7095   26.9556   36.8167 H   0  0  0  0  0  0  0  0  0  0  0  0
   38.8461   28.3882   35.7417 H   0  0  0  0  0  0  0  0  0  0  0  0
   37.3425   27.4054   35.7417 H   0  0  0  0  0  0  0  0  0  0  0  0
   38.8668   24.9346   36.2121 H   0  0  0  0  0  0  0  0  0  0  0  0
   37.9388   24.6377   34.7030 H   0  0  0  0  0  0  0  0  0  0  0  0
   39.7280   24.4788   34.7030 H   0  0  0  0  0  0  0  0  0  0  0  0
   40.7855   27.5184   35.3304 H   0  0  0  0  0  0  0  0  0  0  0  0
   40.5859   27.2038   33.5381 H   0  0  0  0  0  0  0  0  0  0  0  0
   41.7477   25.0662   35.9798 H   0  0  0  0  0  0  0  0  0  0  0  0
  1 10  1  0
  1  9  1  0
  2  7  2  0
  3  4  2  0
  3  2  1  0
  4  5  1  0
  5  6  2  0
  6  1  1  0
  7  6  1  0
  8  3  1  0
 11 12  1  0
 11  1  1  0
  2 13  1  0
  4 14  1  0
  8 15  1  0
  8 16  1  0
  9 17  1  0
  9 18  1  0
  9 19  1  0
 10 20  1  0
 10 21  1  0
 10 22  1  0
 11 23  1  0
 11 24  1  0
 12 25  1  0
M  ISO  8  13  14  14  14  17   8  18   8  19   8  20   8  21   8  22   8
M  ISO  3  23   8  24   8  25  11
M  END
>  <minimizedAffinity>  (1) 
-3.50193238

>  <minimizedRMSD>  (1) 
5.619102

$$$$
