
     RDKit          3D

 51 56  0  0  1  0  0  0  0  0999 V2000
   37.8340   23.4500   33.1390 C   0  0  0  0  0  0  0  0  0  0  0  0
   36.9610   22.6120   32.4670 C   0  0  0  0  0  0  0  0  0  0  0  0
   36.6950   21.6050   33.3570 N   0  0  0  0  0  0  0  0  0  0  0  0
   37.3940   21.8770   34.4730 C   0  0  0  0  0  0  0  0  0  0  0  0
   38.1060   23.0030   34.3750 N   0  0  0  0  0  0  0  0  0  0  0  0
   38.9580   23.6050   35.3400 C   0  0  1  0  0  0  0  0  0  0  0  0
   38.3840   24.8230   35.9500 C   0  0  0  0  0  0  0  0  0  0  0  0
   37.5490   24.2740   37.0930 C   0  0  0  0  0  0  0  0  0  0  0  0
   38.4330   23.2280   37.6630 C   0  0  0  0  0  0  0  0  0  0  0  0
   39.2420   22.7070   36.5200 C   0  0  2  0  0  0  0  0  0  0  0  0
   40.7350   22.7910   36.8100 C   0  0  0  0  0  0  0  0  0  0  0  0
   41.5350   21.7110   36.0870 C   0  0  0  0  0  0  0  0  0  0  0  0
   41.4530   21.7670   37.5780 C   0  0  0  0  0  0  0  0  0  0  0  0
   38.4070   24.6780   32.5960 C   0  0  0  0  0  0  0  0  0  0  0  0
   39.7900   24.7710   32.4010 C   0  0  0  0  0  0  0  0  0  0  0  0
   40.2720   26.0000   31.8780 C   0  0  0  0  0  0  0  0  0  0  0  0
   39.3890   26.9850   31.6050 N   0  0  0  0  0  0  0  0  0  0  0  0
   38.0760   26.8470   31.8090 C   0  0  0  0  0  0  0  0  0  0  0  0
   37.5660   25.6980   32.3050 N   0  0  0  0  0  0  0  0  0  0  0  0
   37.1460   27.9350   31.5030 C   0  0  0  0  0  0  0  0  0  0  0  0
   36.8480   28.4660   30.2630 C   0  0  0  0  0  0  0  0  0  0  0  0
   35.9450   29.4610   30.3450 N   0  0  0  0  0  0  0  0  0  0  0  0
   35.6710   29.5590   31.6580 C   0  0  0  0  0  0  0  0  0  0  0  0
   34.7950   30.4400   32.2740 C   0  0  0  0  0  0  0  0  0  0  0  0
   34.6880   30.3420   33.6460 C   0  0  0  0  0  0  0  0  0  0  0  0
   35.3680   29.4540   34.4540 C   0  0  0  0  0  0  0  0  0  0  0  0
   36.2380   28.5880   33.7820 C   0  0  0  0  0  0  0  0  0  0  0  0
   36.3820   28.6460   32.4080 C   0  0  0  0  0  0  0  0  0  0  0  0
   36.5684   22.7286   31.4461 H   0  0  0  0  0  0  0  0  0  0  0  0
   37.3809   21.2407   35.3702 H   0  0  0  0  0  0  0  0  0  0  0  0
   39.8640   23.8253   34.7564 H   0  0  0  0  0  0  0  0  0  0  0  0
   39.1761   25.4886   36.3236 H   0  0  0  0  0  0  0  0  0  0  0  0
   37.8012   25.4288   35.2405 H   0  0  0  0  0  0  0  0  0  0  0  0
   37.3282   25.0554   37.8350 H   0  0  0  0  0  0  0  0  0  0  0  0
   36.5673   23.8929   36.7752 H   0  0  0  0  0  0  0  0  0  0  0  0
   39.0907   23.6602   38.4315 H   0  0  0  0  0  0  0  0  0  0  0  0
   37.8523   22.4274   38.1445 H   0  0  0  0  0  0  0  0  0  0  0  0
   38.9780   21.6550   36.3369 H   0  0  0  0  0  0  0  0  0  0  0  0
   40.7101   23.8856   36.9156 H   0  0  0  0  0  0  0  0  0  0  0  0
   41.0174   20.9146   35.5321 H   0  0  0  0  0  0  0  0  0  0  0  0
   42.3439   21.6947   35.3417 H   0  0  0  0  0  0  0  0  0  0  0  0
   42.3419   22.0480   38.1619 H   0  0  0  0  0  0  0  0  0  0  0  0
   41.1593   21.0473   38.3563 H   0  0  0  0  0  0  0  0  0  0  0  0
   40.4667   23.9373   32.6399 H   0  0  0  0  0  0  0  0  0  0  0  0
   41.3471   26.1475   31.6981 H   0  0  0  0  0  0  0  0  0  0  0  0
   37.2954   28.1172   29.3206 H   0  0  0  0  0  0  0  0  0  0  0  0
   35.5522   30.0213   29.5752 H   0  0  0  0  0  0  0  0  0  0  0  0
   34.2161   31.1779   31.6992 H   0  0  0  0  0  0  0  0  0  0  0  0
   33.9953   31.0374   34.1426 H   0  0  0  0  0  0  0  0  0  0  0  0
   35.2360   29.4286   35.5458 H   0  0  0  0  0  0  0  0  0  0  0  0
   36.8166   27.8493   34.3561 H   0  0  0  0  0  0  0  0  0  0  0  0
  1  5  1  0
  2  1  2  0
  2  3  1  0
  3  4  2  0
  5  4  1  0
  5  6  1  0
  6  7  1  0
  6 10  1  0
  7  8  1  0
  8  9  1  0
 10 11  1  0
 10  9  1  0
 11 13  1  0
 12 11  1  0
 12 13  1  0
 14  1  1  0
 15 14  2  0
 16 15  1  0
 17 18  1  0
 17 16  2  0
 18 19  2  0
 19 14  1  0
 20 18  1  0
 20 28  1  0
 21 22  1  0
 21 20  2  0
 22 23  1  0
 23 24  1  0
 23 28  2  0
 24 25  2  0
 25 26  1  0
 27 26  2  0
 28 27  1  0
  2 29  1  0
  4 30  1  0
  6 31  1  6
  7 32  1  0
  7 33  1  0
  8 34  1  0
  8 35  1  0
  9 36  1  0
  9 37  1  0
 10 38  1  6
 11 39  1  0
 12 40  1  0
 12 41  1  0
 13 42  1  0
 13 43  1  0
 15 44  1  0
 16 45  1  0
 21 46  1  0
 22 47  1  0
 24 48  1  0
 25 49  1  0
 26 50  1  0
 27 51  1  0
M  ISO  8  29  14  30  14  31  13  32  13  33  13  34  13  35  13  36  13
M  ISO  8  37  13  38  13  39  13  40  13  41  13  42  13  43  13  44  14
M  ISO  7  45  14  46  14  47   9  48  14  49  14  50  14  51  14
M  END
>  <minimizedAffinity>  (1) 
-6.32999182

>  <minimizedRMSD>  (1) 
1.21150041

$$$$
