
     RDKit          3D

 35 36  0  0  0  0  0  0  0  0999 V2000
   38.8060   25.5790   34.0740 C   0  0  0  0  0  0  0  0  0  0  0  0
   39.6860   23.1920   36.7500 C   0  0  0  0  0  0  0  0  0  0  0  0
   38.7100   23.4080   37.7170 C   0  0  0  0  0  0  0  0  0  0  0  0
   37.7640   24.3760   37.4280 C   0  0  0  0  0  0  0  0  0  0  0  0
   37.8410   25.0460   36.2420 N   0  0  0  0  0  0  0  0  0  0  0  0
   38.8060   24.8040   35.3320 C   0  0  0  0  0  0  0  0  0  0  0  0
   39.7510   23.8540   35.5940 N   0  0  0  0  0  0  0  0  0  0  0  0
   38.7650   22.6270   38.8950 N   0  0  0  0  0  0  0  0  0  0  0  0
   39.2050   27.0110   34.3310 C   0  0  0  0  0  0  0  0  0  0  0  0
   39.8070   24.9420   33.0930 C   0  0  0  0  0  0  0  0  0  0  0  0
   37.4450   25.4870   33.4720 C   0  0  0  0  0  0  0  0  0  0  0  0
   37.0670   26.5400   32.5850 N   0  0  0  0  0  0  0  0  0  0  0  0
   36.6010   27.6590   33.1930 C   0  0  0  0  0  0  0  0  0  0  0  0
   36.1910   28.7740   32.4640 C   0  0  0  0  0  0  0  0  0  0  0  0
   36.2770   28.7050   31.0720 C   0  0  0  0  0  0  0  0  0  0  0  0
   35.8510   29.8570   30.3900 N   0  0  0  0  0  0  0  0  0  0  0  0
   36.7410   27.5870   30.4850 N   0  0  0  0  0  0  0  0  0  0  0  0
   37.1200   26.5480   31.2400 C   0  0  0  0  0  0  0  0  0  0  0  0
   37.5570   25.4960   30.7080 O   0  0  0  0  0  0  0  0  0  0  0  0
   40.4515   22.4281   36.9510 H   0  0  0  0  0  0  0  0  0  0  0  0
   36.9609   24.6021   38.1448 H   0  0  0  0  0  0  0  0  0  0  0  0
   38.0593   22.7586   39.6336 H   0  0  0  0  0  0  0  0  0  0  0  0
   39.5108   21.9266   39.0142 H   0  0  0  0  0  0  0  0  0  0  0  0
   39.2546   27.1889   35.4154 H   0  0  0  0  0  0  0  0  0  0  0  0
   40.1909   27.2031   33.8825 H   0  0  0  0  0  0  0  0  0  0  0  0
   38.4605   27.6852   33.8825 H   0  0  0  0  0  0  0  0  0  0  0  0
   40.6029   24.4355   33.6586 H   0  0  0  0  0  0  0  0  0  0  0  0
   39.2845   24.2100   32.4597 H   0  0  0  0  0  0  0  0  0  0  0  0
   40.2488   25.7254   32.4597 H   0  0  0  0  0  0  0  0  0  0  0  0
   37.3911   24.5423   32.9110 H   0  0  0  0  0  0  0  0  0  0  0  0
   36.7471   25.5564   34.3195 H   0  0  0  0  0  0  0  0  0  0  0  0
   36.5451   27.6875   34.2912 H   0  0  0  0  0  0  0  0  0  0  0  0
   35.8131   29.6762   32.9673 H   0  0  0  0  0  0  0  0  0  0  0  0
   35.8824   29.8874   29.3609 H   0  0  0  0  0  0  0  0  0  0  0  0
   35.5073   30.6711   30.9191 H   0  0  0  0  0  0  0  0  0  0  0  0
  1  9  1  0
  1  6  1  0
  2  3  2  0
  3  8  1  0
  4  3  1  0
  5  4  2  0
  6  7  2  0
  6  5  1  0
  7  2  1  0
 10  1  1  0
 11  1  1  0
 12 13  1  0
 12 11  1  0
 14 13  2  0
 15 14  1  0
 16 15  1  0
 17 15  2  0
 17 18  1  0
 18 12  1  0
 19 18  2  0
  2 20  1  0
  4 21  1  0
  8 22  1  0
  8 23  1  0
  9 24  1  0
  9 25  1  0
  9 26  1  0
 10 27  1  0
 10 28  1  0
 10 29  1  0
 11 30  1  0
 11 31  1  0
 13 32  1  0
 14 33  1  0
 16 34  1  0
 16 35  1  0
M  ISO  8  20  14  21  14  24   8  25   8  26   8  27   8  28   8  29   8
M  ISO  4  30   8  31   8  32  14  33  14
M  END
>  <minimizedAffinity>  (1) 
-5.00991297

>  <minimizedRMSD>  (1) 
2.92612696

$$$$
