
     RDKit          3D

 44 46  0  0  0  0  0  0  0  0999 V2000
   37.4720   25.7060   33.6290 C   0  0  0  0  0  0  0  0  0  0  0  0
   37.0280   26.9620   33.1200 N   0  0  0  0  0  0  0  0  0  0  0  0
   36.4580   27.7990   34.0230 C   0  0  0  0  0  0  0  0  0  0  0  0
   35.9870   29.0490   33.6630 C   0  0  0  0  0  0  0  0  0  0  0  0
   36.1090   29.4390   32.3380 C   0  0  0  0  0  0  0  0  0  0  0  0
   35.6350   30.7070   31.9920 N   0  0  0  0  0  0  0  0  0  0  0  0
   36.6720   28.6060   31.4580 N   0  0  0  0  0  0  0  0  0  0  0  0
   37.1210   27.3940   31.8440 C   0  0  0  0  0  0  0  0  0  0  0  0
   37.6520   26.5990   31.0280 O   0  0  0  0  0  0  0  0  0  0  0  0
   35.3710   29.9620   34.6190 C   0  0  0  0  0  0  0  0  0  0  0  0
   36.0390   30.8310   35.4500 C   0  0  0  0  0  0  0  0  0  0  0  0
   35.4450   31.6740   36.3340 C   0  0  0  0  0  0  0  0  0  0  0  0
   34.0680   31.6870   36.4360 C   0  0  0  0  0  0  0  0  0  0  0  0
   33.4200   30.8140   35.6000 C   0  0  0  0  0  0  0  0  0  0  0  0
   34.0350   29.9910   34.7340 N   0  0  0  0  0  0  0  0  0  0  0  0
   38.8440   25.6790   34.2240 C   0  0  0  0  0  0  0  0  0  0  0  0
   39.5460   23.1080   36.7690 C   0  0  0  0  0  0  0  0  0  0  0  0
   38.6690   23.4180   37.7950 C   0  0  0  0  0  0  0  0  0  0  0  0
   37.8420   24.5180   37.5920 C   0  0  0  0  0  0  0  0  0  0  0  0
   37.9490   25.2030   36.4180 N   0  0  0  0  0  0  0  0  0  0  0  0
   38.8140   24.8670   35.4490 C   0  0  0  0  0  0  0  0  0  0  0  0
   39.6320   23.7900   35.6350 N   0  0  0  0  0  0  0  0  0  0  0  0
   38.6690   22.6130   38.9620 N   0  0  0  0  0  0  0  0  0  0  0  0
   39.3660   27.0660   34.5110 C   0  0  0  0  0  0  0  0  0  0  0  0
   39.7900   25.0150   33.2060 C   0  0  0  0  0  0  0  0  0  0  0  0
   37.4519   24.9827   32.8005 H   0  0  0  0  0  0  0  0  0  0  0  0
   36.7887   25.4674   34.4573 H   0  0  0  0  0  0  0  0  0  0  0  0
   36.3679   27.4747   35.0703 H   0  0  0  0  0  0  0  0  0  0  0  0
   35.7064   31.0355   31.0184 H   0  0  0  0  0  0  0  0  0  0  0  0
   35.2141   31.3132   32.7105 H   0  0  0  0  0  0  0  0  0  0  0  0
   37.1375   30.8443   35.3945 H   0  0  0  0  0  0  0  0  0  0  0  0
   36.0548   32.3397   36.9624 H   0  0  0  0  0  0  0  0  0  0  0  0
   33.5320   32.3468   37.1341 H   0  0  0  0  0  0  0  0  0  0  0  0
   32.3211   30.7856   35.6413 H   0  0  0  0  0  0  0  0  0  0  0  0
   40.2121   22.2429   36.9030 H   0  0  0  0  0  0  0  0  0  0  0  0
   37.1187   24.8279   38.3606 H   0  0  0  0  0  0  0  0  0  0  0  0
   38.0240   22.8278   39.7358 H   0  0  0  0  0  0  0  0  0  0  0  0
   39.3140   21.8134   39.0361 H   0  0  0  0  0  0  0  0  0  0  0  0
   39.4233   27.2184   35.5989 H   0  0  0  0  0  0  0  0  0  0  0  0
   40.3681   27.1788   34.0716 H   0  0  0  0  0  0  0  0  0  0  0  0
   38.6869   27.8115   34.0716 H   0  0  0  0  0  0  0  0  0  0  0  0
   40.5763   24.4631   33.7419 H   0  0  0  0  0  0  0  0  0  0  0  0
   39.2187   24.3187   32.5745 H   0  0  0  0  0  0  0  0  0  0  0  0
   40.2507   25.7890   32.5745 H   0  0  0  0  0  0  0  0  0  0  0  0
  1 16  1  0
  2  1  1  0
  2  3  1  0
  4  3  2  0
  4 10  1  0
  5  4  1  0
  6  5  1  0
  7  8  1  0
  7  5  2  0
  8  2  1  0
  9  8  2  0
 10 15  1  0
 10 11  2  0
 11 12  1  0
 12 13  2  0
 14 13  1  0
 15 14  2  0
 16 24  1  0
 16 21  1  0
 17 18  2  0
 18 23  1  0
 19 18  1  0
 20 19  2  0
 21 22  2  0
 21 20  1  0
 22 17  1  0
 25 16  1  0
  1 26  1  0
  1 27  1  0
  3 28  1  0
  6 29  1  0
  6 30  1  0
 11 31  1  0
 12 32  1  0
 13 33  1  0
 14 34  1  0
 17 35  1  0
 19 36  1  0
 23 37  1  0
 23 38  1  0
 24 39  1  0
 24 40  1  0
 24 41  1  0
 25 42  1  0
 25 43  1  0
 25 44  1  0
M  ISO  8  26   8  27   8  28  14  31  14  32  14  33  14  34  14  35  14
M  ISO  7  36  14  39   8  40   8  41   8  42   8  43   8  44   8
M  END
>  <minimizedAffinity>  (1) 
-6.27779102

>  <minimizedRMSD>  (1) 
1.3254683

$$$$
