
     RDKit          3D

 42 44  0  0  0  0  0  0  0  0999 V2000
   38.7960   25.7350   34.2060 C   0  0  0  0  0  0  0  0  0  0  0  0
   39.5450   23.1400   36.7180 C   0  0  0  0  0  0  0  0  0  0  0  0
   38.6770   23.4450   37.7670 C   0  0  0  0  0  0  0  0  0  0  0  0
   37.8510   24.5420   37.5840 C   0  0  0  0  0  0  0  0  0  0  0  0
   37.9260   25.2470   36.4230 N   0  0  0  0  0  0  0  0  0  0  0  0
   38.7880   24.9090   35.4290 C   0  0  0  0  0  0  0  0  0  0  0  0
   39.6180   23.8320   35.5770 N   0  0  0  0  0  0  0  0  0  0  0  0
   38.7190   22.6150   38.9100 N   0  0  0  0  0  0  0  0  0  0  0  0
   39.3860   27.0920   34.4730 C   0  0  0  0  0  0  0  0  0  0  0  0
   39.6530   25.0180   33.1330 C   0  0  0  0  0  0  0  0  0  0  0  0
   37.4000   25.8250   33.6820 C   0  0  0  0  0  0  0  0  0  0  0  0
   37.0000   27.0800   33.1380 N   0  0  0  0  0  0  0  0  0  0  0  0
   36.4680   27.9470   34.0280 C   0  0  0  0  0  0  0  0  0  0  0  0
   36.0320   29.2060   33.6530 C   0  0  0  0  0  0  0  0  0  0  0  0
   36.1520   29.5720   32.3280 C   0  0  0  0  0  0  0  0  0  0  0  0
   35.7070   30.8520   31.9530 N   0  0  0  0  0  0  0  0  0  0  0  0
   36.6800   28.7050   31.4530 N   0  0  0  0  0  0  0  0  0  0  0  0
   37.0930   27.4910   31.8530 C   0  0  0  0  0  0  0  0  0  0  0  0
   37.5910   26.6590   31.0620 O   0  0  0  0  0  0  0  0  0  0  0  0
   35.4680   30.0960   34.6530 C   0  0  0  0  0  0  0  0  0  0  0  0
   36.0330   30.9550   35.5080 C   0  0  0  0  0  0  0  0  0  0  0  0
   35.2710   31.6780   36.3510 C   0  0  0  0  0  0  0  0  0  0  0  0
   33.8930   31.4850   36.2810 C   0  0  0  0  0  0  0  0  0  0  0  0
   33.6780   30.1810   34.9180 S   0  0  0  0  0  0  0  0  0  0  0  0
   40.2124   22.2739   36.8379 H   0  0  0  0  0  0  0  0  0  0  0  0
   37.1414   24.8401   38.3699 H   0  0  0  0  0  0  0  0  0  0  0  0
   38.0951   22.8046   39.7073 H   0  0  0  0  0  0  0  0  0  0  0  0
   39.3735   21.8205   38.9457 H   0  0  0  0  0  0  0  0  0  0  0  0
   39.4564   27.2540   35.5587 H   0  0  0  0  0  0  0  0  0  0  0  0
   40.3903   27.1492   34.0278 H   0  0  0  0  0  0  0  0  0  0  0  0
   38.7429   27.8655   34.0278 H   0  0  0  0  0  0  0  0  0  0  0  0
   40.4068   24.3874   33.6271 H   0  0  0  0  0  0  0  0  0  0  0  0
   39.0041   24.3899   32.5050 H   0  0  0  0  0  0  0  0  0  0  0  0
   40.1567   25.7676   32.5050 H   0  0  0  0  0  0  0  0  0  0  0  0
   37.2918   25.0689   32.8904 H   0  0  0  0  0  0  0  0  0  0  0  0
   36.7522   25.6698   34.5574 H   0  0  0  0  0  0  0  0  0  0  0  0
   36.3789   27.6431   35.0814 H   0  0  0  0  0  0  0  0  0  0  0  0
   35.7822   31.1565   30.9719 H   0  0  0  0  0  0  0  0  0  0  0  0
   35.3058   31.4852   32.6594 H   0  0  0  0  0  0  0  0  0  0  0  0
   37.1267   31.0718   35.5229 H   0  0  0  0  0  0  0  0  0  0  0  0
   35.7165   32.3887   37.0626 H   0  0  0  0  0  0  0  0  0  0  0  0
   33.1099   31.9753   36.8780 H   0  0  0  0  0  0  0  0  0  0  0  0
  1  9  1  0
  1  6  1  0
  2  3  2  0
  3  8  1  0
  4  3  1  0
  5  4  2  0
  6  7  2  0
  6  5  1  0
  7  2  1  0
 10  1  1  0
 11  1  1  0
 12 11  1  0
 12 13  1  0
 14 13  2  0
 14 20  1  0
 15 14  1  0
 16 15  1  0
 17 18  1  0
 17 15  2  0
 18 12  1  0
 19 18  2  0
 20 24  1  0
 20 21  2  0
 21 22  1  0
 23 22  2  0
 24 23  1  0
  2 25  1  0
  4 26  1  0
  8 27  1  0
  8 28  1  0
  9 29  1  0
  9 30  1  0
  9 31  1  0
 10 32  1  0
 10 33  1  0
 10 34  1  0
 11 35  1  0
 11 36  1  0
 13 37  1  0
 16 38  1  0
 16 39  1  0
 21 40  1  0
 22 41  1  0
 23 42  1  0
M  ISO  8  25  14  26  14  29   8  30   8  31   8  32   8  33   8  34   8
M  ISO  6  35   8  36   8  37  14  40  14  41  14  42  14
M  END
>  <minimizedAffinity>  (1) 
-5.99221563

>  <minimizedRMSD>  (1) 
1.13939941

$$$$
