
     RDKit          3D

 45 47  0  0  0  0  0  0  0  0999 V2000
   37.4570   25.7280   33.6470 C   0  0  0  0  0  0  0  0  0  0  0  0
   37.0130   26.9830   33.1120 N   0  0  0  0  0  0  0  0  0  0  0  0
   36.4070   27.7990   33.9950 C   0  0  0  0  0  0  0  0  0  0  0  0
   35.9200   29.0500   33.6340 C   0  0  0  0  0  0  0  0  0  0  0  0
   36.0810   29.4490   32.2980 C   0  0  0  0  0  0  0  0  0  0  0  0
   35.5870   30.7090   31.9520 N   0  0  0  0  0  0  0  0  0  0  0  0
   36.6890   28.6210   31.4320 N   0  0  0  0  0  0  0  0  0  0  0  0
   37.1390   27.4250   31.8360 C   0  0  0  0  0  0  0  0  0  0  0  0
   37.7100   26.6380   31.0390 O   0  0  0  0  0  0  0  0  0  0  0  0
   35.2760   29.9210   34.5590 N   0  0  0  0  0  0  0  0  0  0  0  0
   36.0670   30.6780   35.3370 C   0  0  0  0  0  0  0  0  0  0  0  0
   35.5610   31.5560   36.2660 C   0  0  0  0  0  0  0  0  0  0  0  0
   34.1730   31.6600   36.4020 C   0  0  0  0  0  0  0  0  0  0  0  0
   33.7330   32.4650   37.2540 O   0  0  0  0  0  0  0  0  0  0  0  0
   33.4080   30.8900   35.6110 N   0  0  0  0  0  0  0  0  0  0  0  0
   33.9410   30.0420   34.7130 C   0  0  0  0  0  0  0  0  0  0  0  0
   33.2570   29.3090   33.9580 O   0  0  0  0  0  0  0  0  0  0  0  0
   38.8370   25.7000   34.2200 C   0  0  0  0  0  0  0  0  0  0  0  0
   39.5340   23.1260   36.7590 C   0  0  0  0  0  0  0  0  0  0  0  0
   38.6700   23.4310   37.7920 C   0  0  0  0  0  0  0  0  0  0  0  0
   37.8520   24.5340   37.5920 C   0  0  0  0  0  0  0  0  0  0  0  0
   37.9390   25.2340   36.4270 N   0  0  0  0  0  0  0  0  0  0  0  0
   38.8060   24.8860   35.4510 C   0  0  0  0  0  0  0  0  0  0  0  0
   39.6200   23.8100   35.6190 N   0  0  0  0  0  0  0  0  0  0  0  0
   38.6940   22.6110   38.9400 N   0  0  0  0  0  0  0  0  0  0  0  0
   39.3530   27.0940   34.5090 C   0  0  0  0  0  0  0  0  0  0  0  0
   39.7750   25.0350   33.1930 C   0  0  0  0  0  0  0  0  0  0  0  0
   37.4163   24.9856   32.8363 H   0  0  0  0  0  0  0  0  0  0  0  0
   36.7856   25.5172   34.4925 H   0  0  0  0  0  0  0  0  0  0  0  0
   36.2935   27.4646   35.0368 H   0  0  0  0  0  0  0  0  0  0  0  0
   35.6792   31.0505   30.9846 H   0  0  0  0  0  0  0  0  0  0  0  0
   35.1305   31.2966   32.6642 H   0  0  0  0  0  0  0  0  0  0  0  0
   37.1581   30.5924   35.2270 H   0  0  0  0  0  0  0  0  0  0  0  0
   36.2335   32.1638   36.8891 H   0  0  0  0  0  0  0  0  0  0  0  0
   32.3832   30.9506   35.6944 H   0  0  0  0  0  0  0  0  0  0  0  0
   40.1974   22.2579   36.8862 H   0  0  0  0  0  0  0  0  0  0  0  0
   37.1375   24.8411   38.3699 H   0  0  0  0  0  0  0  0  0  0  0  0
   38.0625   22.8107   39.7288 H   0  0  0  0  0  0  0  0  0  0  0  0
   39.3430   21.8127   38.9892 H   0  0  0  0  0  0  0  0  0  0  0  0
   39.4092   27.2459   35.5970 H   0  0  0  0  0  0  0  0  0  0  0  0
   40.3546   27.2126   34.0700 H   0  0  0  0  0  0  0  0  0  0  0  0
   38.6700   27.8361   34.0700 H   0  0  0  0  0  0  0  0  0  0  0  0
   40.5617   24.4773   33.7222 H   0  0  0  0  0  0  0  0  0  0  0  0
   39.1968   24.3439   32.5620 H   0  0  0  0  0  0  0  0  0  0  0  0
   40.2357   25.8093   32.5620 H   0  0  0  0  0  0  0  0  0  0  0  0
  1 18  1  0
  2  1  1  0
  2  3  1  0
  4  3  2  0
  4 10  1  0
  5  4  1  0
  6  5  1  0
  7  8  1  0
  7  5  2  0
  8  2  1  0
  9  8  2  0
 10 16  1  0
 10 11  1  0
 11 12  2  0
 12 13  1  0
 13 14  2  0
 15 13  1  0
 16 15  1  0
 17 16  2  0
 18 26  1  0
 18 23  1  0
 19 20  2  0
 20 25  1  0
 21 20  1  0
 22 21  2  0
 23 24  2  0
 23 22  1  0
 24 19  1  0
 27 18  1  0
  1 28  1  0
  1 29  1  0
  3 30  1  0
  6 31  1  0
  6 32  1  0
 11 33  1  0
 12 34  1  0
 15 35  1  0
 19 36  1  0
 21 37  1  0
 25 38  1  0
 25 39  1  0
 26 40  1  0
 26 41  1  0
 26 42  1  0
 27 43  1  0
 27 44  1  0
 27 45  1  0
M  ISO  8  28   8  29   8  30  14  33  14  34  14  35   9  36  14  37  14
M  ISO  6  40   8  41   8  42   8  43   8  44   8  45   8
M  END
>  <minimizedAffinity>  (1) 
-6.29910707

>  <minimizedRMSD>  (1) 
1.50276637

$$$$
