
     RDKit          3D

 50 52  0  0  0  0  0  0  0  0999 V2000
   37.3570   25.5290   33.5050 C   0  0  0  0  0  0  0  0  0  0  0  0
   36.9760   26.5880   32.6160 N   0  0  0  0  0  0  0  0  0  0  0  0
   36.6000   27.7510   33.2190 C   0  0  0  0  0  0  0  0  0  0  0  0
   36.2070   28.8580   32.4760 C   0  0  0  0  0  0  0  0  0  0  0  0
   36.2030   28.7570   31.0920 C   0  0  0  0  0  0  0  0  0  0  0  0
   35.7990   29.8990   30.4010 N   0  0  0  0  0  0  0  0  0  0  0  0
   36.5740   27.6110   30.5160 N   0  0  0  0  0  0  0  0  0  0  0  0
   36.9480   26.5600   31.2660 C   0  0  0  0  0  0  0  0  0  0  0  0
   37.2990   25.4770   30.7410 O   0  0  0  0  0  0  0  0  0  0  0  0
   35.8260   30.0450   33.1820 N   0  0  0  0  0  0  0  0  0  0  0  0
   35.3630   29.7920   34.5500 C   0  0  0  0  0  0  0  0  0  0  0  0
   35.7980   30.9710   35.4290 C   0  0  0  0  0  0  0  0  0  0  0  0
   34.8870   32.1250   35.0060 C   0  0  0  0  0  0  0  0  0  0  0  0
   34.5820   32.0370   33.5150 C   0  0  0  0  0  0  0  0  0  0  0  0
   35.8070   31.4590   32.8110 C   0  0  0  0  0  0  0  0  0  0  0  0
   38.7360   25.6070   34.0620 C   0  0  0  0  0  0  0  0  0  0  0  0
   39.6210   23.1360   36.6580 C   0  0  0  0  0  0  0  0  0  0  0  0
   38.7430   23.4200   37.6900 C   0  0  0  0  0  0  0  0  0  0  0  0
   37.8610   24.4580   37.4780 C   0  0  0  0  0  0  0  0  0  0  0  0
   37.8980   25.1310   36.2930 N   0  0  0  0  0  0  0  0  0  0  0  0
   38.7600   24.8280   35.3180 C   0  0  0  0  0  0  0  0  0  0  0  0
   39.6450   23.8010   35.5100 N   0  0  0  0  0  0  0  0  0  0  0  0
   38.8120   22.6410   38.8720 N   0  0  0  0  0  0  0  0  0  0  0  0
   39.1680   27.0290   34.3040 C   0  0  0  0  0  0  0  0  0  0  0  0
   39.7030   24.9690   33.0430 C   0  0  0  0  0  0  0  0  0  0  0  0
   37.2696   24.5804   32.9550 H   0  0  0  0  0  0  0  0  0  0  0  0
   36.6831   25.6121   34.3704 H   0  0  0  0  0  0  0  0  0  0  0  0
   36.6077   27.8149   34.3171 H   0  0  0  0  0  0  0  0  0  0  0  0
   35.7719   29.8953   29.3714 H   0  0  0  0  0  0  0  0  0  0  0  0
   35.5277   30.7461   30.9203 H   0  0  0  0  0  0  0  0  0  0  0  0
   34.2666   29.7035   34.5616 H   0  0  0  0  0  0  0  0  0  0  0  0
   35.7955   28.8548   34.9302 H   0  0  0  0  0  0  0  0  0  0  0  0
   35.6560   30.7345   36.4939 H   0  0  0  0  0  0  0  0  0  0  0  0
   36.8636   31.2135   35.3039 H   0  0  0  0  0  0  0  0  0  0  0  0
   33.9459   32.0714   35.5730 H   0  0  0  0  0  0  0  0  0  0  0  0
   35.3964   33.0779   35.2121 H   0  0  0  0  0  0  0  0  0  0  0  0
   33.7141   31.3815   33.3505 H   0  0  0  0  0  0  0  0  0  0  0  0
   34.3495   33.0350   33.1151 H   0  0  0  0  0  0  0  0  0  0  0  0
   36.7232   31.9611   33.1551 H   0  0  0  0  0  0  0  0  0  0  0  0
   35.7609   31.5991   31.7209 H   0  0  0  0  0  0  0  0  0  0  0  0
   40.3383   22.3137   36.7974 H   0  0  0  0  0  0  0  0  0  0  0  0
   37.1360   24.7399   38.2557 H   0  0  0  0  0  0  0  0  0  0  0  0
   38.1693   22.8331   39.6537 H   0  0  0  0  0  0  0  0  0  0  0  0
   39.5048   21.8827   38.9493 H   0  0  0  0  0  0  0  0  0  0  0  0
   39.2247   27.2158   35.3865 H   0  0  0  0  0  0  0  0  0  0  0  0
   40.1568   27.1939   33.8511 H   0  0  0  0  0  0  0  0  0  0  0  0
   38.4381   27.7161   33.8511 H   0  0  0  0  0  0  0  0  0  0  0  0
   40.5045   24.4402   33.5796 H   0  0  0  0  0  0  0  0  0  0  0  0
   39.1523   24.2563   32.4115 H   0  0  0  0  0  0  0  0  0  0  0  0
   40.1416   25.7557   32.4115 H   0  0  0  0  0  0  0  0  0  0  0  0
  1 16  1  0
  2  3  1  0
  2  1  1  0
  4 10  1  0
  4  3  2  0
  5  4  1  0
  6  5  1  0
  7  5  2  0
  7  8  1  0
  8  2  1  0
  9  8  2  0
 10 11  1  0
 11 12  1  0
 13 12  1  0
 14 13  1  0
 15 10  1  0
 15 14  1  0
 16 24  1  0
 16 21  1  0
 17 18  2  0
 18 23  1  0
 19 18  1  0
 20 19  2  0
 21 22  2  0
 21 20  1  0
 22 17  1  0
 25 16  1  0
  1 26  1  0
  1 27  1  0
  3 28  1  0
  6 29  1  0
  6 30  1  0
 11 31  1  0
 11 32  1  0
 12 33  1  0
 12 34  1  0
 13 35  1  0
 13 36  1  0
 14 37  1  0
 14 38  1  0
 15 39  1  0
 15 40  1  0
 17 41  1  0
 19 42  1  0
 23 43  1  0
 23 44  1  0
 24 45  1  0
 24 46  1  0
 24 47  1  0
 25 48  1  0
 25 49  1  0
 25 50  1  0
M  ISO  8  26   8  27   8  28  14  31  13  32  13  33  13  34  13  35  13
M  ISO  8  36  13  37  13  38  13  39  13  40  13  41  14  42  14  45   8
M  ISO  5  46   8  47   8  48   8  49   8  50   8
M  END
>  <minimizedAffinity>  (1) 
-5.98409081

>  <minimizedRMSD>  (1) 
0.239322335

$$$$
