
     RDKit          3D

 47 49  0  0  0  0  0  0  0  0999 V2000
   38.8980   25.6510   34.2260 C   0  0  0  0  0  0  0  0  0  0  0  0
   39.5440   23.0860   36.8000 C   0  0  0  0  0  0  0  0  0  0  0  0
   38.6530   23.4110   37.8100 C   0  0  0  0  0  0  0  0  0  0  0  0
   37.8390   24.5130   37.5880 C   0  0  0  0  0  0  0  0  0  0  0  0
   37.9610   25.2000   36.4160 N   0  0  0  0  0  0  0  0  0  0  0  0
   38.8460   24.8450   35.4560 C   0  0  0  0  0  0  0  0  0  0  0  0
   39.6460   23.7660   35.6660 N   0  0  0  0  0  0  0  0  0  0  0  0
   38.6330   22.6120   38.9780 N   0  0  0  0  0  0  0  0  0  0  0  0
   39.4340   27.0380   34.5050 C   0  0  0  0  0  0  0  0  0  0  0  0
   39.8400   24.9590   33.2170 C   0  0  0  0  0  0  0  0  0  0  0  0
   37.5390   25.6860   33.6180 C   0  0  0  0  0  0  0  0  0  0  0  0
   37.1120   26.9470   33.1000 N   0  0  0  0  0  0  0  0  0  0  0  0
   36.4780   27.7620   33.9890 C   0  0  0  0  0  0  0  0  0  0  0  0
   36.0120   29.0250   33.6010 C   0  0  0  0  0  0  0  0  0  0  0  0
   36.2120   29.4260   32.2850 C   0  0  0  0  0  0  0  0  0  0  0  0
   35.7160   30.6970   31.9890 N   0  0  0  0  0  0  0  0  0  0  0  0
   36.8360   28.6080   31.4320 N   0  0  0  0  0  0  0  0  0  0  0  0
   37.2700   27.4020   31.8410 C   0  0  0  0  0  0  0  0  0  0  0  0
   37.8580   26.6230   31.0490 O   0  0  0  0  0  0  0  0  0  0  0  0
   35.3600   29.8230   34.5820 N   0  0  0  0  0  0  0  0  0  0  0  0
   33.9220   29.8570   34.7930 C   0  0  0  0  0  0  0  0  0  0  0  0
   33.7040   30.9900   35.7710 C   0  0  0  0  0  0  0  0  0  0  0  0
   34.9810   31.8200   35.7230 C   0  0  0  0  0  0  0  0  0  0  0  0
   36.0180   30.7130   35.5060 C   0  0  0  0  0  0  0  0  0  0  0  0
   40.2023   22.2170   36.9466 H   0  0  0  0  0  0  0  0  0  0  0  0
   37.1064   24.8276   38.3459 H   0  0  0  0  0  0  0  0  0  0  0  0
   37.9794   22.8338   39.7425 H   0  0  0  0  0  0  0  0  0  0  0  0
   39.2720   21.8088   39.0635 H   0  0  0  0  0  0  0  0  0  0  0  0
   39.4950   27.1958   35.5919 H   0  0  0  0  0  0  0  0  0  0  0  0
   40.4361   27.1396   34.0630 H   0  0  0  0  0  0  0  0  0  0  0  0
   38.7606   27.7871   34.0630 H   0  0  0  0  0  0  0  0  0  0  0  0
   40.6098   24.3935   33.7625 H   0  0  0  0  0  0  0  0  0  0  0  0
   39.2589   24.2715   32.5849 H   0  0  0  0  0  0  0  0  0  0  0  0
   40.3223   25.7191   32.5849 H   0  0  0  0  0  0  0  0  0  0  0  0
   37.5224   24.9606   32.7912 H   0  0  0  0  0  0  0  0  0  0  0  0
   36.8436   25.4539   34.4381 H   0  0  0  0  0  0  0  0  0  0  0  0
   36.3301   27.4238   35.0252 H   0  0  0  0  0  0  0  0  0  0  0  0
   35.8173   31.0809   31.0386 H   0  0  0  0  0  0  0  0  0  0  0  0
   35.2488   31.2508   32.7210 H   0  0  0  0  0  0  0  0  0  0  0  0
   33.3958   30.0542   33.8474 H   0  0  0  0  0  0  0  0  0  0  0  0
   33.5343   28.8999   35.1718 H   0  0  0  0  0  0  0  0  0  0  0  0
   32.8386   31.5980   35.4684 H   0  0  0  0  0  0  0  0  0  0  0  0
   33.4959   30.6193   36.7855 H   0  0  0  0  0  0  0  0  0  0  0  0
   34.9697   32.5365   34.8885 H   0  0  0  0  0  0  0  0  0  0  0  0
   35.1559   32.4480   36.6090 H   0  0  0  0  0  0  0  0  0  0  0  0
   36.2507   30.1996   36.4506 H   0  0  0  0  0  0  0  0  0  0  0  0
   36.9805   31.0906   35.1306 H   0  0  0  0  0  0  0  0  0  0  0  0
  1  9  1  0
  1  6  1  0
  2  3  2  0
  3  8  1  0
  4  3  1  0
  5  4  2  0
  6  7  2  0
  6  5  1  0
  7  2  1  0
 10  1  1  0
 11  1  1  0
 12 11  1  0
 12 13  1  0
 14 13  2  0
 14 20  1  0
 15 14  1  0
 16 15  1  0
 17 18  1  0
 17 15  2  0
 18 12  1  0
 19 18  2  0
 20 21  1  0
 20 24  1  0
 21 22  1  0
 23 22  1  0
 24 23  1  0
  2 25  1  0
  4 26  1  0
  8 27  1  0
  8 28  1  0
  9 29  1  0
  9 30  1  0
  9 31  1  0
 10 32  1  0
 10 33  1  0
 10 34  1  0
 11 35  1  0
 11 36  1  0
 13 37  1  0
 16 38  1  0
 16 39  1  0
 21 40  1  0
 21 41  1  0
 22 42  1  0
 22 43  1  0
 23 44  1  0
 23 45  1  0
 24 46  1  0
 24 47  1  0
M  ISO  8  25  14  26  14  29   8  30   8  31   8  32   8  33   8  34   8
M  ISO  8  35   8  36   8  37  14  40  13  41  13  42  13  43  13  44  13
M  ISO  3  45  13  46  13  47  13
M  END
>  <minimizedAffinity>  (1) 
-5.63432932

>  <minimizedRMSD>  (1) 
1.16833472

$$$$
