
     RDKit          3D

 42 44  0  0  0  0  0  0  0  0999 V2000
   39.6330   25.3620   34.5170 C   0  0  0  0  0  0  0  0  0  0  0  0
   39.6400   22.9080   37.2670 C   0  0  0  0  0  0  0  0  0  0  0  0
   38.5760   23.3110   38.0760 C   0  0  0  0  0  0  0  0  0  0  0  0
   37.8780   24.4260   37.6500 C   0  0  0  0  0  0  0  0  0  0  0  0
   38.2540   25.0530   36.4990 N   0  0  0  0  0  0  0  0  0  0  0  0
   39.2970   24.6180   35.7510 C   0  0  0  0  0  0  0  0  0  0  0  0
   40.0050   23.5200   36.1440 N   0  0  0  0  0  0  0  0  0  0  0  0
   38.3020   22.5670   39.2360 N   0  0  0  0  0  0  0  0  0  0  0  0
   39.8400   26.8240   34.8030 C   0  0  0  0  0  0  0  0  0  0  0  0
   40.9280   24.7860   33.9250 C   0  0  0  0  0  0  0  0  0  0  0  0
   38.5280   25.1430   33.5350 C   0  0  0  0  0  0  0  0  0  0  0  0
   38.1170   26.2810   32.7720 N   0  0  0  0  0  0  0  0  0  0  0  0
   37.1350   27.0080   33.3470 C   0  0  0  0  0  0  0  0  0  0  0  0
   36.6180   28.1500   32.7350 C   0  0  0  0  0  0  0  0  0  0  0  0
   37.1380   28.5310   31.5070 C   0  0  0  0  0  0  0  0  0  0  0  0
   36.6030   29.6780   30.9160 N   0  0  0  0  0  0  0  0  0  0  0  0
   38.1110   27.7920   30.9620 N   0  0  0  0  0  0  0  0  0  0  0  0
   38.5750   26.7040   31.5870 C   0  0  0  0  0  0  0  0  0  0  0  0
   39.4920   26.0000   31.0800 O   0  0  0  0  0  0  0  0  0  0  0  0
   35.5570   28.9280   33.3630 C   0  0  0  0  0  0  0  0  0  0  0  0
   35.7100   29.6690   34.5180 C   0  0  0  0  0  0  0  0  0  0  0  0
   34.4610   30.2480   34.7690 C   0  0  0  0  0  0  0  0  0  0  0  0
   33.6280   29.8110   33.7330 C   0  0  0  0  0  0  0  0  0  0  0  0
   34.3310   29.0270   32.9230 O   0  0  0  0  0  0  0  0  0  0  0  0
   40.2156   22.0243   37.5796 H   0  0  0  0  0  0  0  0  0  0  0  0
   37.0265   24.8041   38.2348 H   0  0  0  0  0  0  0  0  0  0  0  0
   37.5231   22.8412   39.8517 H   0  0  0  0  0  0  0  0  0  0  0  0
   38.8801   21.7474   39.4707 H   0  0  0  0  0  0  0  0  0  0  0  0
   39.8628   26.9852   35.8909 H   0  0  0  0  0  0  0  0  0  0  0  0
   40.7936   27.1521   34.3636 H   0  0  0  0  0  0  0  0  0  0  0  0
   39.0150   27.4040   34.3636 H   0  0  0  0  0  0  0  0  0  0  0  0
   41.6024   24.4861   34.7406 H   0  0  0  0  0  0  0  0  0  0  0  0
   40.6895   23.9091   33.3052 H   0  0  0  0  0  0  0  0  0  0  0  0
   41.4195   25.5504   33.3052 H   0  0  0  0  0  0  0  0  0  0  0  0
   38.8583   24.3680   32.8277 H   0  0  0  0  0  0  0  0  0  0  0  0
   37.6518   24.8663   34.1398 H   0  0  0  0  0  0  0  0  0  0  0  0
   36.7332   26.6922   34.3211 H   0  0  0  0  0  0  0  0  0  0  0  0
   36.9570   30.0004   30.0041 H   0  0  0  0  0  0  0  0  0  0  0  0
   35.8545   30.2014   31.3921 H   0  0  0  0  0  0  0  0  0  0  0  0
   36.6254   29.7811   35.1175 H   0  0  0  0  0  0  0  0  0  0  0  0
   34.1905   30.9087   35.6059 H   0  0  0  0  0  0  0  0  0  0  0  0
   32.5668   30.0732   33.6097 H   0  0  0  0  0  0  0  0  0  0  0  0
  1  9  1  0
  1  6  1  0
  2  3  2  0
  3  8  1  0
  4  3  1  0
  5  4  2  0
  6  7  2  0
  6  5  1  0
  7  2  1  0
 10  1  1  0
 11  1  1  0
 12 13  1  0
 12 11  1  0
 14 13  2  0
 14 20  1  0
 15 14  1  0
 16 15  1  0
 17 15  2  0
 17 18  1  0
 18 12  1  0
 19 18  2  0
 20 21  2  0
 21 22  1  0
 23 22  2  0
 24 20  1  0
 24 23  1  0
  2 25  1  0
  4 26  1  0
  8 27  1  0
  8 28  1  0
  9 29  1  0
  9 30  1  0
  9 31  1  0
 10 32  1  0
 10 33  1  0
 10 34  1  0
 11 35  1  0
 11 36  1  0
 13 37  1  0
 16 38  1  0
 16 39  1  0
 21 40  1  0
 22 41  1  0
 23 42  1  0
M  ISO  8  25  14  26  14  29   8  30   8  31   8  32   8  33   8  34   8
M  ISO  6  35   8  36   8  37  14  40  14  41  14  42  14
M  END
>  <minimizedAffinity>  (1) 
-5.74965858

>  <minimizedRMSD>  (1) 
1.33127105

$$$$
