
     RDKit          3D

 48 50  0  0  0  0  0  0  0  0999 V2000
   38.6400   25.8480   34.2070 C   0  0  0  0  0  0  0  0  0  0  0  0
   39.5760   23.2310   36.6320 C   0  0  0  0  0  0  0  0  0  0  0  0
   38.7310   23.4670   37.7110 C   0  0  0  0  0  0  0  0  0  0  0  0
   37.8580   24.5240   37.5780 C   0  0  0  0  0  0  0  0  0  0  0  0
   37.8700   25.2580   36.4290 N   0  0  0  0  0  0  0  0  0  0  0  0
   38.7030   24.9970   35.4070 C   0  0  0  0  0  0  0  0  0  0  0  0
   39.5810   23.9550   35.5110 N   0  0  0  0  0  0  0  0  0  0  0  0
   38.8490   22.6120   38.8250 N   0  0  0  0  0  0  0  0  0  0  0  0
   39.1920   27.2320   34.4960 C   0  0  0  0  0  0  0  0  0  0  0  0
   39.4800   25.2090   33.0940 C   0  0  0  0  0  0  0  0  0  0  0  0
   37.2150   25.9070   33.7510 C   0  0  0  0  0  0  0  0  0  0  0  0
   36.8240   27.1010   33.0700 N   0  0  0  0  0  0  0  0  0  0  0  0
   36.3710   28.0970   33.8700 C   0  0  0  0  0  0  0  0  0  0  0  0
   35.9540   29.3310   33.3500 C   0  0  0  0  0  0  0  0  0  0  0  0
   36.0220   29.5000   31.9760 C   0  0  0  0  0  0  0  0  0  0  0  0
   35.6010   30.7430   31.5030 N   0  0  0  0  0  0  0  0  0  0  0  0
   36.4740   28.5060   31.1950 N   0  0  0  0  0  0  0  0  0  0  0  0
   36.8610   27.3420   31.7440 C   0  0  0  0  0  0  0  0  0  0  0  0
   37.2860   26.4020   31.0210 O   0  0  0  0  0  0  0  0  0  0  0  0
   35.4580   30.4140   34.2420 C   0  0  0  0  0  0  0  0  0  0  0  0
   34.0540   30.1130   34.7540 C   0  0  0  0  0  0  0  0  0  0  0  0
   33.8980   31.1010   35.8870 C   0  0  0  0  0  0  0  0  0  0  0  0
   35.3040   31.6080   36.2210 C   0  0  0  0  0  0  0  0  0  0  0  0
   36.2050   30.5860   35.5100 C   0  0  0  0  0  0  0  0  0  0  0  0
   40.2857   22.3940   36.7074 H   0  0  0  0  0  0  0  0  0  0  0  0
   37.1588   24.7733   38.3898 H   0  0  0  0  0  0  0  0  0  0  0  0
   38.2432   22.7500   39.6465 H   0  0  0  0  0  0  0  0  0  0  0  0
   39.5410   21.8491   38.8177 H   0  0  0  0  0  0  0  0  0  0  0  0
   39.2522   27.3829   35.5839 H   0  0  0  0  0  0  0  0  0  0  0  0
   40.1962   27.3253   34.0568 H   0  0  0  0  0  0  0  0  0  0  0  0
   38.5277   27.9908   34.0568 H   0  0  0  0  0  0  0  0  0  0  0  0
   40.2797   24.6006   33.5416 H   0  0  0  0  0  0  0  0  0  0  0  0
   38.8376   24.5692   32.4711 H   0  0  0  0  0  0  0  0  0  0  0  0
   39.9251   25.9989   32.4711 H   0  0  0  0  0  0  0  0  0  0  0  0
   37.0442   25.0600   33.0703 H   0  0  0  0  0  0  0  0  0  0  0  0
   36.6086   25.8767   34.6683 H   0  0  0  0  0  0  0  0  0  0  0  0
   36.3293   27.9330   34.9569 H   0  0  0  0  0  0  0  0  0  0  0  0
   35.6223   30.9438   30.4930 H   0  0  0  0  0  0  0  0  0  0  0  0
   35.2689   31.4599   32.1638 H   0  0  0  0  0  0  0  0  0  0  0  0
   35.5493   31.2986   33.5945 H   0  0  0  0  0  0  0  0  0  0  0  0
   33.3005   30.2843   33.9711 H   0  0  0  0  0  0  0  0  0  0  0  0
   33.9160   29.0665   35.0636 H   0  0  0  0  0  0  0  0  0  0  0  0
   33.2566   31.9384   35.5749 H   0  0  0  0  0  0  0  0  0  0  0  0
   33.4274   30.6300   36.7626 H   0  0  0  0  0  0  0  0  0  0  0  0
   35.4649   32.6220   35.8262 H   0  0  0  0  0  0  0  0  0  0  0  0
   35.4967   31.6851   37.3012 H   0  0  0  0  0  0  0  0  0  0  0  0
   36.2746   29.6434   36.0728 H   0  0  0  0  0  0  0  0  0  0  0  0
   37.2523   30.9000   35.3892 H   0  0  0  0  0  0  0  0  0  0  0  0
  1  9  1  0
  1  6  1  0
  2  3  2  0
  3  8  1  0
  4  3  1  0
  5  4  2  0
  6  7  2  0
  6  5  1  0
  7  2  1  0
 10  1  1  0
 11  1  1  0
 12 11  1  0
 12 13  1  0
 14 13  2  0
 14 20  1  0
 15 14  1  0
 16 15  1  0
 17 18  1  0
 17 15  2  0
 18 12  1  0
 19 18  2  0
 20 21  1  0
 20 24  1  0
 21 22  1  0
 22 23  1  0
 24 23  1  0
  2 25  1  0
  4 26  1  0
  8 27  1  0
  8 28  1  0
  9 29  1  0
  9 30  1  0
  9 31  1  0
 10 32  1  0
 10 33  1  0
 10 34  1  0
 11 35  1  0
 11 36  1  0
 13 37  1  0
 16 38  1  0
 16 39  1  0
 20 40  1  0
 21 41  1  0
 21 42  1  0
 22 43  1  0
 22 44  1  0
 23 45  1  0
 23 46  1  0
 24 47  1  0
 24 48  1  0
M  ISO  8  25  14  26  14  29   8  30   8  31   8  32   8  33   8  34   8
M  ISO  8  35   8  36   8  37  14  40  13  41  13  42  13  43  13  44  13
M  ISO  4  45  13  46  13  47  13  48  13
M  END
>  <minimizedAffinity>  (1) 
-5.90438747

>  <minimizedRMSD>  (1) 
0.869413376

$$$$
