
     RDKit          3D

 50 54  0  0  1  0  0  0  0  0999 V2000
   37.8400   23.5310   33.3800 C   0  0  0  0  0  0  0  0  0  0  0  0
   36.9760   22.7010   32.6870 C   0  0  0  0  0  0  0  0  0  0  0  0
   36.7940   21.6230   33.5160 N   0  0  0  0  0  0  0  0  0  0  0  0
   37.5260   21.8510   34.6190 C   0  0  0  0  0  0  0  0  0  0  0  0
   38.1830   23.0130   34.5730 N   0  0  0  0  0  0  0  0  0  0  0  0
   38.3330   24.8170   32.8990 C   0  0  0  0  0  0  0  0  0  0  0  0
   39.6810   24.9400   32.5120 C   0  0  0  0  0  0  0  0  0  0  0  0
   40.0710   26.2340   32.0690 C   0  0  0  0  0  0  0  0  0  0  0  0
   39.1630   27.2410   32.0450 N   0  0  0  0  0  0  0  0  0  0  0  0
   37.9010   27.0550   32.4270 C   0  0  0  0  0  0  0  0  0  0  0  0
   37.4550   25.8570   32.8580 N   0  0  0  0  0  0  0  0  0  0  0  0
   36.9840   28.1450   32.3850 N   0  0  0  0  0  0  0  0  0  0  0  0
   36.2010   28.4060   33.4710 C   0  0  0  0  0  0  0  0  0  0  0  0
   35.2990   29.4770   33.4270 C   0  0  0  0  0  0  0  0  0  0  0  0
   34.4250   29.8040   34.5800 C   0  0  0  0  0  0  0  0  0  0  0  0
   35.2770   30.1970   32.2670 C   0  0  0  0  0  0  0  0  0  0  0  0
   34.4750   31.1760   32.1850 O   0  0  0  0  0  0  0  0  0  0  0  0
   36.0290   29.9790   31.1690 N   0  0  0  0  0  0  0  0  0  0  0  0
   36.8820   28.9200   31.2870 C   0  0  0  0  0  0  0  0  0  0  0  0
   37.6020   28.6970   30.2610 O   0  0  0  0  0  0  0  0  0  0  0  0
   39.0480   23.5940   35.5390 C   0  0  1  0  0  0  0  0  0  0  0  0
   38.4790   24.8020   36.1800 C   0  0  0  0  0  0  0  0  0  0  0  0
   37.6600   24.2320   37.3220 C   0  0  0  0  0  0  0  0  0  0  0  0
   38.5380   23.1610   37.8590 C   0  0  0  0  0  0  0  0  0  0  0  0
   39.3410   22.6700   36.6970 C   0  0  2  0  0  0  0  0  0  0  0  0
   40.8340   22.7380   36.9770 C   0  0  0  0  0  0  0  0  0  0  0  0
   41.6370   21.7680   36.1140 C   0  0  0  0  0  0  0  0  0  0  0  0
   41.5750   21.6370   37.6040 C   0  0  0  0  0  0  0  0  0  0  0  0
   36.5340   22.8682   31.6937 H   0  0  0  0  0  0  0  0  0  0  0  0
   37.5787   21.1551   35.4693 H   0  0  0  0  0  0  0  0  0  0  0  0
   40.3835   24.0944   32.5496 H   0  0  0  0  0  0  0  0  0  0  0  0
   41.1066   26.4175   31.7466 H   0  0  0  0  0  0  0  0  0  0  0  0
   36.2771   27.7812   34.3731 H   0  0  0  0  0  0  0  0  0  0  0  0
   34.9640   29.6023   35.5175 H   0  0  0  0  0  0  0  0  0  0  0  0
   34.1462   30.8673   34.5388 H   0  0  0  0  0  0  0  0  0  0  0  0
   33.5167   29.1849   34.5388 H   0  0  0  0  0  0  0  0  0  0  0  0
   35.9655   30.5582   30.3197 H   0  0  0  0  0  0  0  0  0  0  0  0
   39.9494   23.8255   34.9526 H   0  0  0  0  0  0  0  0  0  0  0  0
   39.2750   25.4617   36.5558 H   0  0  0  0  0  0  0  0  0  0  0  0
   37.8864   25.4196   35.4891 H   0  0  0  0  0  0  0  0  0  0  0  0
   37.4585   24.9981   38.0852 H   0  0  0  0  0  0  0  0  0  0  0  0
   36.6718   23.8658   37.0069 H   0  0  0  0  0  0  0  0  0  0  0  0
   39.2005   23.5643   38.6391 H   0  0  0  0  0  0  0  0  0  0  0  0
   37.9528   22.3503   38.3175 H   0  0  0  0  0  0  0  0  0  0  0  0
   39.0743   21.6230   36.4903 H   0  0  0  0  0  0  0  0  0  0  0  0
   40.7973   23.8105   37.2187 H   0  0  0  0  0  0  0  0  0  0  0  0
   41.1215   21.0398   35.4706 H   0  0  0  0  0  0  0  0  0  0  0  0
   42.4352   21.8559   35.3623 H   0  0  0  0  0  0  0  0  0  0  0  0
   42.4682   21.8560   38.2074 H   0  0  0  0  0  0  0  0  0  0  0  0
   41.3011   20.8224   38.2906 H   0  0  0  0  0  0  0  0  0  0  0  0
  1  5  1  0
  2  1  2  0
  2  3  1  0
  3  4  2  0
  5  4  1  0
  5 21  1  0
  6  1  1  0
  7  6  2  0
  8  7  1  0
  9  8  2  0
  9 10  1  0
 10 11  2  0
 11  6  1  0
 12 10  1  0
 12 13  1  0
 14 13  2  0
 14 15  1  0
 16 14  1  0
 17 16  2  0
 18 19  1  0
 18 16  1  0
 19 12  1  0
 20 19  2  0
 21 22  1  0
 21 25  1  0
 22 23  1  0
 23 24  1  0
 25 26  1  0
 25 24  1  0
 26 28  1  0
 27 26  1  0
 27 28  1  0
  2 29  1  0
  4 30  1  0
  7 31  1  0
  8 32  1  0
 13 33  1  0
 15 34  1  0
 15 35  1  0
 15 36  1  0
 18 37  1  0
 21 38  1  6
 22 39  1  0
 22 40  1  0
 23 41  1  0
 23 42  1  0
 24 43  1  0
 24 44  1  0
 25 45  1  6
 26 46  1  0
 27 47  1  0
 27 48  1  0
 28 49  1  0
 28 50  1  0
M  ISO  8  29  14  30  14  31  14  32  14  33  14  34   8  35   8  36   8
M  ISO  8  37   9  38  13  39  13  40  13  41  13  42  13  43  13  44  13
M  ISO  6  45  13  46  13  47  13  48  13  49  13  50  13
M  END
>  <minimizedAffinity>  (1) 
-6.28006363

>  <minimizedRMSD>  (1) 
0.409849107

$$$$
