
     RDKit          3D

 38 39  0  0  0  0  0  0  0  0999 V2000
   38.8910   25.5320   34.0690 C   0  0  0  0  0  0  0  0  0  0  0  0
   39.6960   23.1590   36.7780 C   0  0  0  0  0  0  0  0  0  0  0  0
   38.6940   23.3940   37.7280 C   0  0  0  0  0  0  0  0  0  0  0  0
   37.7740   24.3620   37.4020 C   0  0  0  0  0  0  0  0  0  0  0  0
   37.8780   25.0220   36.2170 N   0  0  0  0  0  0  0  0  0  0  0  0
   38.8640   24.7620   35.3280 C   0  0  0  0  0  0  0  0  0  0  0  0
   39.7880   23.8120   35.6190 N   0  0  0  0  0  0  0  0  0  0  0  0
   38.7180   22.6270   38.9160 N   0  0  0  0  0  0  0  0  0  0  0  0
   39.2390   26.9810   34.3270 C   0  0  0  0  0  0  0  0  0  0  0  0
   39.9660   24.9220   33.1380 C   0  0  0  0  0  0  0  0  0  0  0  0
   37.5730   25.3790   33.3960 C   0  0  0  0  0  0  0  0  0  0  0  0
   37.1710   26.4450   32.5340 N   0  0  0  0  0  0  0  0  0  0  0  0
   36.5930   27.5040   33.1640 C   0  0  0  0  0  0  0  0  0  0  0  0
   36.1530   28.6110   32.4580 C   0  0  0  0  0  0  0  0  0  0  0  0
   36.3110   28.6250   31.0780 C   0  0  0  0  0  0  0  0  0  0  0  0
   35.8480   29.7730   30.4090 N   0  0  0  0  0  0  0  0  0  0  0  0
   36.8810   27.5750   30.4820 N   0  0  0  0  0  0  0  0  0  0  0  0
   37.2940   26.5210   31.2040 C   0  0  0  0  0  0  0  0  0  0  0  0
   37.8340   25.5240   30.6480 O   0  0  0  0  0  0  0  0  0  0  0  0
   35.5370   29.7270   33.1830 C   0  0  0  0  0  0  0  0  0  0  0  0
   35.8270   30.9410   33.0240 O   0  0  0  0  0  0  0  0  0  0  0  0
   34.5520   29.4600   34.1240 O   0  0  0  0  0  0  0  0  0  0  0  0
   40.4512   22.3909   37.0010 H   0  0  0  0  0  0  0  0  0  0  0  0
   36.9561   24.6022   38.0973 H   0  0  0  0  0  0  0  0  0  0  0  0
   37.9973   22.7721   39.6374 H   0  0  0  0  0  0  0  0  0  0  0  0
   39.4562   21.9233   39.0598 H   0  0  0  0  0  0  0  0  0  0  0  0
   39.2821   27.1603   35.4114 H   0  0  0  0  0  0  0  0  0  0  0  0
   40.2173   27.2086   33.8786 H   0  0  0  0  0  0  0  0  0  0  0  0
   38.4707   27.6281   33.8786 H   0  0  0  0  0  0  0  0  0  0  0  0
   40.7634   24.4695   33.7458 H   0  0  0  0  0  0  0  0  0  0  0  0
   39.5061   24.1503   32.5032 H   0  0  0  0  0  0  0  0  0  0  0  0
   40.3926   25.7126   32.5032 H   0  0  0  0  0  0  0  0  0  0  0  0
   37.6093   24.4585   32.7949 H   0  0  0  0  0  0  0  0  0  0  0  0
   36.8309   25.3648   34.2079 H   0  0  0  0  0  0  0  0  0  0  0  0
   36.4728   27.4800   34.2572 H   0  0  0  0  0  0  0  0  0  0  0  0
   35.9368   29.8434   29.3853 H   0  0  0  0  0  0  0  0  0  0  0  0
   35.4203   30.5429   30.9430 H   0  0  0  0  0  0  0  0  0  0  0  0
   34.1275   30.2036   34.6209 H   0  0  0  0  0  0  0  0  0  0  0  0
  1  9  1  0
  1  6  1  0
  2  3  2  0
  3  8  1  0
  4  3  1  0
  5  4  2  0
  6  7  2  0
  6  5  1  0
  7  2  1  0
 10  1  1  0
 11  1  1  0
 12 13  1  0
 12 11  1  0
 14 13  2  0
 14 20  1  0
 15 14  1  0
 16 15  1  0
 17 15  2  0
 17 18  1  0
 18 12  1  0
 19 18  2  0
 20 22  1  0
 21 20  2  0
  2 23  1  0
  4 24  1  0
  8 25  1  0
  8 26  1  0
  9 27  1  0
  9 28  1  0
  9 29  1  0
 10 30  1  0
 10 31  1  0
 10 32  1  0
 11 33  1  0
 11 34  1  0
 13 35  1  0
 16 36  1  0
 16 37  1  0
 22 38  1  0
M  ISO  8  23  14  24  14  27   8  28   8  29   8  30   8  31   8  32   8
M  ISO  4  33   8  34   8  35  14  38   3
M  END
>  <minimizedAffinity>  (1) 
-5.26715136

>  <minimizedRMSD>  (1) 
0.167569503

$$$$
