
     RDKit          3D

 41 42  0  0  0  0  0  0  0  0999 V2000
   38.8590   25.6110   34.1270 C   0  0  0  0  0  0  0  0  0  0  0  0
   39.6620   23.1650   36.7740 C   0  0  0  0  0  0  0  0  0  0  0  0
   38.7000   23.3980   37.7420 C   0  0  0  0  0  0  0  0  0  0  0  0
   37.7910   24.3920   37.4660 C   0  0  0  0  0  0  0  0  0  0  0  0
   37.8740   25.0820   36.2920 N   0  0  0  0  0  0  0  0  0  0  0  0
   38.8380   24.8130   35.3790 C   0  0  0  0  0  0  0  0  0  0  0  0
   39.7430   23.8350   35.6330 N   0  0  0  0  0  0  0  0  0  0  0  0
   38.7030   22.6250   38.9270 N   0  0  0  0  0  0  0  0  0  0  0  0
   39.1680   27.0540   34.4260 C   0  0  0  0  0  0  0  0  0  0  0  0
   39.9500   25.0480   33.2000 C   0  0  0  0  0  0  0  0  0  0  0  0
   37.5510   25.4350   33.4380 C   0  0  0  0  0  0  0  0  0  0  0  0
   37.1710   26.4910   32.5430 N   0  0  0  0  0  0  0  0  0  0  0  0
   36.6420   27.5920   33.1220 C   0  0  0  0  0  0  0  0  0  0  0  0
   36.2290   28.6950   32.3800 C   0  0  0  0  0  0  0  0  0  0  0  0
   36.3780   28.6400   31.0060 C   0  0  0  0  0  0  0  0  0  0  0  0
   35.9600   29.7600   30.2890 N   0  0  0  0  0  0  0  0  0  0  0  0
   36.9040   27.5440   30.4390 N   0  0  0  0  0  0  0  0  0  0  0  0
   37.2860   26.5040   31.2010 C   0  0  0  0  0  0  0  0  0  0  0  0
   37.7830   25.4670   30.6900 O   0  0  0  0  0  0  0  0  0  0  0  0
   35.6600   29.8540   33.1230 C   0  0  0  0  0  0  0  0  0  0  0  0
   35.7230   29.7060   34.6070 C   0  0  0  0  0  0  0  0  0  0  0  0
   40.4045   22.3757   36.9632 H   0  0  0  0  0  0  0  0  0  0  0  0
   36.9983   24.6304   38.1904 H   0  0  0  0  0  0  0  0  0  0  0  0
   37.9910   22.7916   39.6524 H   0  0  0  0  0  0  0  0  0  0  0  0
   39.4172   21.8956   39.0643 H   0  0  0  0  0  0  0  0  0  0  0  0
   39.2001   27.2040   35.5152 H   0  0  0  0  0  0  0  0  0  0  0  0
   40.1430   27.3180   33.9906 H   0  0  0  0  0  0  0  0  0  0  0  0
   38.3866   27.6942   33.9906 H   0  0  0  0  0  0  0  0  0  0  0  0
   40.7654   24.6272   33.8067 H   0  0  0  0  0  0  0  0  0  0  0  0
   39.5205   24.2590   32.5652 H   0  0  0  0  0  0  0  0  0  0  0  0
   40.3442   25.8552   32.5652 H   0  0  0  0  0  0  0  0  0  0  0  0
   37.5975   24.5013   32.8584 H   0  0  0  0  0  0  0  0  0  0  0  0
   36.7917   25.4292   34.2339 H   0  0  0  0  0  0  0  0  0  0  0  0
   36.5343   27.6172   34.2164 H   0  0  0  0  0  0  0  0  0  0  0  0
   36.0465   29.7763   29.2628 H   0  0  0  0  0  0  0  0  0  0  0  0
   35.5646   30.5712   30.7854 H   0  0  0  0  0  0  0  0  0  0  0  0
   36.2210   30.7569   32.8401 H   0  0  0  0  0  0  0  0  0  0  0  0
   34.5959   29.9182   32.8517 H   0  0  0  0  0  0  0  0  0  0  0  0
   35.3346   30.6183   35.0833 H   0  0  0  0  0  0  0  0  0  0  0  0
   35.1140   28.8435   34.9157 H   0  0  0  0  0  0  0  0  0  0  0  0
   36.7668   29.5471   34.9157 H   0  0  0  0  0  0  0  0  0  0  0  0
  1  9  1  0
  1  6  1  0
  2  3  2  0
  3  8  1  0
  4  3  1  0
  5  4  2  0
  6  7  2  0
  6  5  1  0
  7  2  1  0
 10  1  1  0
 11  1  1  0
 12 13  1  0
 12 11  1  0
 14 13  2  0
 14 20  1  0
 15 14  1  0
 16 15  1  0
 17 15  2  0
 17 18  1  0
 18 12  1  0
 19 18  2  0
 20 21  1  0
  2 22  1  0
  4 23  1  0
  8 24  1  0
  8 25  1  0
  9 26  1  0
  9 27  1  0
  9 28  1  0
 10 29  1  0
 10 30  1  0
 10 31  1  0
 11 32  1  0
 11 33  1  0
 13 34  1  0
 16 35  1  0
 16 36  1  0
 20 37  1  0
 20 38  1  0
 21 39  1  0
 21 40  1  0
 21 41  1  0
M  ISO  8  22  14  23  14  26   8  27   8  28   8  29   8  30   8  31   8
M  ISO  8  32   8  33   8  34  14  37   8  38   8  39   8  40   8  41   8
M  END
>  <minimizedAffinity>  (1) 
-5.32211494

>  <minimizedRMSD>  (1) 
0.127278835

$$$$
