
     RDKit          3D

 42 44  0  0  0  0  0  0  0  0999 V2000
   39.0230   25.6380   34.2570 C   0  0  0  0  0  0  0  0  0  0  0  0
   39.6280   23.1230   36.8910 C   0  0  0  0  0  0  0  0  0  0  0  0
   38.6510   23.4050   37.8420 C   0  0  0  0  0  0  0  0  0  0  0  0
   37.8110   24.4530   37.5500 C   0  0  0  0  0  0  0  0  0  0  0  0
   37.9630   25.1440   36.3890 N   0  0  0  0  0  0  0  0  0  0  0  0
   38.9230   24.8400   35.4920 C   0  0  0  0  0  0  0  0  0  0  0  0
   39.7780   23.7970   35.7560 N   0  0  0  0  0  0  0  0  0  0  0  0
   38.5980   22.6070   39.0110 N   0  0  0  0  0  0  0  0  0  0  0  0
   39.4900   27.0370   34.5580 C   0  0  0  0  0  0  0  0  0  0  0  0
   40.0230   24.9550   33.2970 C   0  0  0  0  0  0  0  0  0  0  0  0
   37.6930   25.6190   33.5770 C   0  0  0  0  0  0  0  0  0  0  0  0
   37.2640   26.8490   32.9870 N   0  0  0  0  0  0  0  0  0  0  0  0
   36.5660   27.6790   33.8110 C   0  0  0  0  0  0  0  0  0  0  0  0
   36.0910   28.9090   33.3630 C   0  0  0  0  0  0  0  0  0  0  0  0
   36.3440   29.2740   32.0480 C   0  0  0  0  0  0  0  0  0  0  0  0
   35.8480   30.5150   31.6450 N   0  0  0  0  0  0  0  0  0  0  0  0
   37.0340   28.4390   31.2540 N   0  0  0  0  0  0  0  0  0  0  0  0
   37.4750   27.2620   31.7240 C   0  0  0  0  0  0  0  0  0  0  0  0
   38.1210   26.4700   30.9940 O   0  0  0  0  0  0  0  0  0  0  0  0
   35.3630   29.7470   34.2690 N   0  0  0  0  0  0  0  0  0  0  0  0
   34.0210   29.5100   34.3400 C   0  0  0  0  0  0  0  0  0  0  0  0
   33.5550   30.4410   35.2740 C   0  0  0  0  0  0  0  0  0  0  0  0
   34.5770   31.1880   35.7270 N   0  0  0  0  0  0  0  0  0  0  0  0
   35.6860   30.7530   35.1020 C   0  0  0  0  0  0  0  0  0  0  0  0
   40.3185   22.2906   37.0918 H   0  0  0  0  0  0  0  0  0  0  0  0
   37.0153   24.7328   38.2561 H   0  0  0  0  0  0  0  0  0  0  0  0
   37.8851   22.7942   39.7305 H   0  0  0  0  0  0  0  0  0  0  0  0
   39.2724   21.8395   39.1416 H   0  0  0  0  0  0  0  0  0  0  0  0
   39.5381   27.1811   35.6475 H   0  0  0  0  0  0  0  0  0  0  0  0
   40.4885   27.1917   34.1232 H   0  0  0  0  0  0  0  0  0  0  0  0
   38.7847   27.7605   34.1232 H   0  0  0  0  0  0  0  0  0  0  0  0
   40.7923   24.4296   33.8819 H   0  0  0  0  0  0  0  0  0  0  0  0
   39.4877   24.2330   32.6629 H   0  0  0  0  0  0  0  0  0  0  0  0
   40.5008   25.7163   32.6629 H   0  0  0  0  0  0  0  0  0  0  0  0
   37.7352   24.8621   32.7800 H   0  0  0  0  0  0  0  0  0  0  0  0
   36.9618   25.4042   34.3702 H   0  0  0  0  0  0  0  0  0  0  0  0
   36.3739   27.3720   34.8497 H   0  0  0  0  0  0  0  0  0  0  0  0
   36.0027   30.8431   30.6810 H   0  0  0  0  0  0  0  0  0  0  0  0
   35.3273   31.1026   32.3116 H   0  0  0  0  0  0  0  0  0  0  0  0
   33.4382   28.7578   33.7881 H   0  0  0  0  0  0  0  0  0  0  0  0
   32.5070   30.5465   35.5911 H   0  0  0  0  0  0  0  0  0  0  0  0
   36.6986   31.1567   35.2490 H   0  0  0  0  0  0  0  0  0  0  0  0
  1  9  1  0
  1  6  1  0
  2  3  2  0
  3  8  1  0
  4  3  1  0
  5  4  2  0
  6  7  2  0
  6  5  1  0
  7  2  1  0
 10  1  1  0
 11  1  1  0
 12 11  1  0
 12 13  1  0
 14 13  2  0
 14 20  1  0
 15 14  1  0
 16 15  1  0
 17 18  1  0
 17 15  2  0
 18 12  1  0
 19 18  2  0
 20 21  1  0
 20 24  1  0
 21 22  2  0
 22 23  1  0
 24 23  2  0
  2 25  1  0
  4 26  1  0
  8 27  1  0
  8 28  1  0
  9 29  1  0
  9 30  1  0
  9 31  1  0
 10 32  1  0
 10 33  1  0
 10 34  1  0
 11 35  1  0
 11 36  1  0
 13 37  1  0
 16 38  1  0
 16 39  1  0
 21 40  1  0
 22 41  1  0
 24 42  1  0
M  ISO  8  25  14  26  14  29   8  30   8  31   8  32   8  33   8  34   8
M  ISO  6  35   8  36   8  37  14  40  14  41  14  42  14
M  END
>  <minimizedAffinity>  (1) 
-5.53503084

>  <minimizedRMSD>  (1) 
0.952813566

$$$$
