
     RDKit          3D

 42 44  0  0  0  0  0  0  0  0999 V2000
   37.9070   25.5360   33.7210 C   0  0  0  0  0  0  0  0  0  0  0  0
   37.4870   26.7290   33.0660 N   0  0  0  0  0  0  0  0  0  0  0  0
   36.6720   27.5310   33.8010 C   0  0  0  0  0  0  0  0  0  0  0  0
   36.1810   28.7250   33.3050 C   0  0  0  0  0  0  0  0  0  0  0  0
   36.5380   29.1030   32.0200 C   0  0  0  0  0  0  0  0  0  0  0  0
   36.0240   30.3140   31.5520 N   0  0  0  0  0  0  0  0  0  0  0  0
   37.3500   28.2920   31.3020 N   0  0  0  0  0  0  0  0  0  0  0  0
   37.7950   27.1530   31.8280 C   0  0  0  0  0  0  0  0  0  0  0  0
   38.5520   26.3910   31.1680 O   0  0  0  0  0  0  0  0  0  0  0  0
   35.3280   29.5510   34.0940 N   0  0  0  0  0  0  0  0  0  0  0  0
   34.0080   29.5600   34.0080 N   0  0  0  0  0  0  0  0  0  0  0  0
   33.4910   30.4470   34.8840 C   0  0  0  0  0  0  0  0  0  0  0  0
   34.6040   30.9960   35.5310 C   0  0  0  0  0  0  0  0  0  0  0  0
   35.7530   30.4240   35.0250 C   0  0  0  0  0  0  0  0  0  0  0  0
   39.1540   25.6330   34.5460 C   0  0  0  0  0  0  0  0  0  0  0  0
   39.4250   22.9790   37.0950 C   0  0  0  0  0  0  0  0  0  0  0  0
   38.5250   23.3710   38.0750 C   0  0  0  0  0  0  0  0  0  0  0  0
   37.8410   24.5430   37.8380 C   0  0  0  0  0  0  0  0  0  0  0  0
   38.0800   25.2340   36.6860 N   0  0  0  0  0  0  0  0  0  0  0  0
   38.9630   24.8190   35.7600 C   0  0  0  0  0  0  0  0  0  0  0  0
   39.6520   23.6580   35.9750 N   0  0  0  0  0  0  0  0  0  0  0  0
   38.3700   22.5630   39.2260 N   0  0  0  0  0  0  0  0  0  0  0  0
   39.4750   27.0650   34.9010 C   0  0  0  0  0  0  0  0  0  0  0  0
   40.3130   25.0340   33.7280 C   0  0  0  0  0  0  0  0  0  0  0  0
   38.0755   24.7714   32.9483 H   0  0  0  0  0  0  0  0  0  0  0  0
   37.1036   25.2949   34.4327 H   0  0  0  0  0  0  0  0  0  0  0  0
   36.3950   27.2215   34.8196 H   0  0  0  0  0  0  0  0  0  0  0  0
   36.2586   30.6410   30.6039 H   0  0  0  0  0  0  0  0  0  0  0  0
   35.4103   30.8803   32.1549 H   0  0  0  0  0  0  0  0  0  0  0  0
   32.4304   30.6855   35.0521 H   0  0  0  0  0  0  0  0  0  0  0  0
   34.5683   31.7628   36.3189 H   0  0  0  0  0  0  0  0  0  0  0  0
   36.7916   30.6359   35.3191 H   0  0  0  0  0  0  0  0  0  0  0  0
   39.9867   22.0468   37.2549 H   0  0  0  0  0  0  0  0  0  0  0  0
   37.1100   24.9178   38.5696 H   0  0  0  0  0  0  0  0  0  0  0  0
   37.7061   22.8392   39.9635 H   0  0  0  0  0  0  0  0  0  0  0  0
   38.9210   21.6986   39.3264 H   0  0  0  0  0  0  0  0  0  0  0  0
   39.4996   27.1748   35.9952 H   0  0  0  0  0  0  0  0  0  0  0  0
   40.4560   27.3353   34.4832 H   0  0  0  0  0  0  0  0  0  0  0  0
   38.7032   27.7282   34.4832 H   0  0  0  0  0  0  0  0  0  0  0  0
   41.0784   24.6384   34.4119 H   0  0  0  0  0  0  0  0  0  0  0  0
   39.9319   24.2200   33.0939 H   0  0  0  0  0  0  0  0  0  0  0  0
   40.7566   25.8157   33.0939 H   0  0  0  0  0  0  0  0  0  0  0  0
  1 15  1  0
  2  1  1  0
  2  3  1  0
  4  3  2  0
  4 10  1  0
  5  4  1  0
  6  5  1  0
  7  8  1  0
  7  5  2  0
  8  2  1  0
  9  8  2  0
 10 14  1  0
 11 10  1  0
 11 12  2  0
 12 13  1  0
 14 13  2  0
 15 23  1  0
 15 20  1  0
 16 17  2  0
 17 22  1  0
 18 17  1  0
 19 18  2  0
 20 21  2  0
 20 19  1  0
 21 16  1  0
 24 15  1  0
  1 25  1  0
  1 26  1  0
  3 27  1  0
  6 28  1  0
  6 29  1  0
 12 30  1  0
 13 31  1  0
 14 32  1  0
 16 33  1  0
 18 34  1  0
 22 35  1  0
 22 36  1  0
 23 37  1  0
 23 38  1  0
 23 39  1  0
 24 40  1  0
 24 41  1  0
 24 42  1  0
M  ISO  8  25   8  26   8  27  14  30  14  31  14  32  14  33  14  34  14
M  ISO  6  37   8  38   8  39   8  40   8  41   8  42   8
M  END
>  <minimizedAffinity>  (1) 
-5.59172964

>  <minimizedRMSD>  (1) 
1.04960942

$$$$
