
     RDKit          3D

 37 38  0  0  0  0  0  0  0  0999 V2000
   38.8890   25.5350   34.0780 C   0  0  0  0  0  0  0  0  0  0  0  0
   39.6980   23.1580   36.7770 C   0  0  0  0  0  0  0  0  0  0  0  0
   38.7140   23.3870   37.7180 C   0  0  0  0  0  0  0  0  0  0  0  0
   37.7800   24.3590   37.4100 C   0  0  0  0  0  0  0  0  0  0  0  0
   37.8850   25.0220   36.2210 N   0  0  0  0  0  0  0  0  0  0  0  0
   38.8610   24.7660   35.3360 C   0  0  0  0  0  0  0  0  0  0  0  0
   39.7970   23.8080   35.6160 N   0  0  0  0  0  0  0  0  0  0  0  0
   38.7210   22.6250   38.9160 N   0  0  0  0  0  0  0  0  0  0  0  0
   39.2260   26.9800   34.3310 C   0  0  0  0  0  0  0  0  0  0  0  0
   39.9560   24.9240   33.1440 C   0  0  0  0  0  0  0  0  0  0  0  0
   37.5580   25.3780   33.4070 C   0  0  0  0  0  0  0  0  0  0  0  0
   37.1600   26.4440   32.5500 N   0  0  0  0  0  0  0  0  0  0  0  0
   36.6010   27.5090   33.1690 C   0  0  0  0  0  0  0  0  0  0  0  0
   36.1630   28.6250   32.4770 C   0  0  0  0  0  0  0  0  0  0  0  0
   36.3100   28.6330   31.0990 C   0  0  0  0  0  0  0  0  0  0  0  0
   35.8560   29.7800   30.4190 N   0  0  0  0  0  0  0  0  0  0  0  0
   36.8680   27.5690   30.4770 N   0  0  0  0  0  0  0  0  0  0  0  0
   37.2680   26.5250   31.2140 C   0  0  0  0  0  0  0  0  0  0  0  0
   37.7920   25.5180   30.6540 O   0  0  0  0  0  0  0  0  0  0  0  0
   35.5690   29.7520   33.1660 C   0  0  0  0  0  0  0  0  0  0  0  0
   35.6170   29.7920   34.4220 O   0  0  0  0  0  0  0  0  0  0  0  0
   40.4511   22.3877   36.9994 H   0  0  0  0  0  0  0  0  0  0  0  0
   36.9658   24.5942   38.1113 H   0  0  0  0  0  0  0  0  0  0  0  0
   37.9953   22.7813   39.6300 H   0  0  0  0  0  0  0  0  0  0  0  0
   39.4518   21.9159   39.0711 H   0  0  0  0  0  0  0  0  0  0  0  0
   39.2685   27.1622   35.4150 H   0  0  0  0  0  0  0  0  0  0  0  0
   40.2026   27.2129   33.8815 H   0  0  0  0  0  0  0  0  0  0  0  0
   38.4532   27.6209   33.8815 H   0  0  0  0  0  0  0  0  0  0  0  0
   40.7538   24.4672   33.7481 H   0  0  0  0  0  0  0  0  0  0  0  0
   39.4909   24.1554   32.5093 H   0  0  0  0  0  0  0  0  0  0  0  0
   40.3835   25.7142   32.5093 H   0  0  0  0  0  0  0  0  0  0  0  0
   37.5910   24.4575   32.8057 H   0  0  0  0  0  0  0  0  0  0  0  0
   36.8171   25.3592   34.2198 H   0  0  0  0  0  0  0  0  0  0  0  0
   36.4904   27.4874   34.2632 H   0  0  0  0  0  0  0  0  0  0  0  0
   35.9411   29.8386   29.3942 H   0  0  0  0  0  0  0  0  0  0  0  0
   35.4389   30.5601   30.9466 H   0  0  0  0  0  0  0  0  0  0  0  0
   35.0835   30.5603   32.5995 H   0  0  0  0  0  0  0  0  0  0  0  0
  1  9  1  0
  1  6  1  0
  2  3  2  0
  3  8  1  0
  4  3  1  0
  5  4  2  0
  6  7  2  0
  6  5  1  0
  7  2  1  0
 10  1  1  0
 11  1  1  0
 12 13  1  0
 12 11  1  0
 14 20  1  0
 14 13  2  0
 15 14  1  0
 16 15  1  0
 17 15  2  0
 17 18  1  0
 18 12  1  0
 19 18  2  0
 20 21  2  0
  2 22  1  0
  4 23  1  0
  8 24  1  0
  8 25  1  0
  9 26  1  0
  9 27  1  0
  9 28  1  0
 10 29  1  0
 10 30  1  0
 10 31  1  0
 11 32  1  0
 11 33  1  0
 13 34  1  0
 16 35  1  0
 16 36  1  0
 20 37  1  0
M  ISO  8  22  14  23  14  26   8  27   8  28   8  29   8  30   8  31   8
M  ISO  4  32   8  33   8  34  14  37   6
M  END
>  <minimizedAffinity>  (1) 
-5.12623119

>  <minimizedRMSD>  (1) 
0.151827976

$$$$
