
     RDKit          3D

 36 37  0  0  0  0  0  0  0  0999 V2000
   38.7940   25.5640   34.0730 C   0  0  0  0  0  0  0  0  0  0  0  0
   39.7070   23.1820   36.7420 C   0  0  0  0  0  0  0  0  0  0  0  0
   38.7190   23.3930   37.7070 C   0  0  0  0  0  0  0  0  0  0  0  0
   37.7610   24.3530   37.4160 C   0  0  0  0  0  0  0  0  0  0  0  0
   37.8370   25.0180   36.2320 N   0  0  0  0  0  0  0  0  0  0  0  0
   38.7970   24.7890   35.3290 C   0  0  0  0  0  0  0  0  0  0  0  0
   39.7640   23.8450   35.5840 N   0  0  0  0  0  0  0  0  0  0  0  0
   38.7610   22.6290   38.8970 N   0  0  0  0  0  0  0  0  0  0  0  0
   39.1990   27.0030   34.3290 C   0  0  0  0  0  0  0  0  0  0  0  0
   39.8160   24.9500   33.0990 C   0  0  0  0  0  0  0  0  0  0  0  0
   37.4410   25.4650   33.4600 C   0  0  0  0  0  0  0  0  0  0  0  0
   37.0630   26.5250   32.5910 N   0  0  0  0  0  0  0  0  0  0  0  0
   36.5980   27.6480   33.2050 C   0  0  0  0  0  0  0  0  0  0  0  0
   36.1950   28.7590   32.4620 C   0  0  0  0  0  0  0  0  0  0  0  0
   36.2770   28.6980   31.0790 C   0  0  0  0  0  0  0  0  0  0  0  0
   35.8590   29.8430   30.3940 N   0  0  0  0  0  0  0  0  0  0  0  0
   36.7380   27.5860   30.4880 N   0  0  0  0  0  0  0  0  0  0  0  0
   37.1140   26.5420   31.2440 C   0  0  0  0  0  0  0  0  0  0  0  0
   37.5500   25.4870   30.7030 O   0  0  0  0  0  0  0  0  0  0  0  0
   35.7170   29.9060   33.1190 O   0  0  0  0  0  0  0  0  0  0  0  0
   40.4810   22.4279   36.9474 H   0  0  0  0  0  0  0  0  0  0  0  0
   36.9539   24.5726   38.1304 H   0  0  0  0  0  0  0  0  0  0  0  0
   38.0435   22.7667   39.6230 H   0  0  0  0  0  0  0  0  0  0  0  0
   39.5091   21.9350   39.0373 H   0  0  0  0  0  0  0  0  0  0  0  0
   39.2495   27.1824   35.4131 H   0  0  0  0  0  0  0  0  0  0  0  0
   40.1852   27.1918   33.8798 H   0  0  0  0  0  0  0  0  0  0  0  0
   38.4561   27.6785   33.8798 H   0  0  0  0  0  0  0  0  0  0  0  0
   40.6218   24.4659   33.6702 H   0  0  0  0  0  0  0  0  0  0  0  0
   39.3157   24.2028   32.4654 H   0  0  0  0  0  0  0  0  0  0  0  0
   40.2407   25.7426   32.4654 H   0  0  0  0  0  0  0  0  0  0  0  0
   37.4022   24.5291   32.8833 H   0  0  0  0  0  0  0  0  0  0  0  0
   36.7342   25.5101   34.3016 H   0  0  0  0  0  0  0  0  0  0  0  0
   36.5390   27.6802   34.3029 H   0  0  0  0  0  0  0  0  0  0  0  0
   35.8924   29.8684   29.3649 H   0  0  0  0  0  0  0  0  0  0  0  0
   35.5177   30.6611   30.9185 H   0  0  0  0  0  0  0  0  0  0  0  0
   35.4309   30.6945   32.5932 H   0  0  0  0  0  0  0  0  0  0  0  0
  1  9  1  0
  1  6  1  0
  2  3  2  0
  3  8  1  0
  4  3  1  0
  5  4  2  0
  6  7  2  0
  6  5  1  0
  7  2  1  0
 10  1  1  0
 11  1  1  0
 12 13  1  0
 12 11  1  0
 14 20  1  0
 14 13  2  0
 15 14  1  0
 16 15  1  0
 17 15  2  0
 17 18  1  0
 18 12  1  0
 19 18  2  0
  2 21  1  0
  4 22  1  0
  8 23  1  0
  8 24  1  0
  9 25  1  0
  9 26  1  0
  9 27  1  0
 10 28  1  0
 10 29  1  0
 10 30  1  0
 11 31  1  0
 11 32  1  0
 13 33  1  0
 16 34  1  0
 16 35  1  0
 20 36  1  0
M  ISO  8  21  14  22  14  25   8  26   8  27   8  28   8  29   8  30   8
M  ISO  4  31   8  32   8  33  14  36   3
M  END
>  <minimizedAffinity>  (1) 
-5.11885738

>  <minimizedRMSD>  (1) 
0.014877189

$$$$
