
     RDKit          3D

 36 37  0  0  0  0  0  0  0  0999 V2000
   38.8940   25.5520   34.0780 C   0  0  0  0  0  0  0  0  0  0  0  0
   39.6840   23.1680   36.7860 C   0  0  0  0  0  0  0  0  0  0  0  0
   38.7010   23.3990   37.7300 C   0  0  0  0  0  0  0  0  0  0  0  0
   37.7790   24.3760   37.4160 C   0  0  0  0  0  0  0  0  0  0  0  0
   37.8880   25.0370   36.2300 N   0  0  0  0  0  0  0  0  0  0  0  0
   38.8700   24.7780   35.3330 C   0  0  0  0  0  0  0  0  0  0  0  0
   39.7910   23.8180   35.6200 N   0  0  0  0  0  0  0  0  0  0  0  0
   38.7280   22.6260   38.9090 N   0  0  0  0  0  0  0  0  0  0  0  0
   39.2410   26.9870   34.3300 C   0  0  0  0  0  0  0  0  0  0  0  0
   39.9390   24.9170   33.1360 C   0  0  0  0  0  0  0  0  0  0  0  0
   37.5580   25.3950   33.4140 C   0  0  0  0  0  0  0  0  0  0  0  0
   37.1520   26.4650   32.5540 N   0  0  0  0  0  0  0  0  0  0  0  0
   36.5900   27.5290   33.1840 C   0  0  0  0  0  0  0  0  0  0  0  0
   36.1460   28.6440   32.4810 C   0  0  0  0  0  0  0  0  0  0  0  0
   36.2970   28.6350   31.0960 C   0  0  0  0  0  0  0  0  0  0  0  0
   35.8310   29.7890   30.4340 N   0  0  0  0  0  0  0  0  0  0  0  0
   36.8500   27.5840   30.4890 N   0  0  0  0  0  0  0  0  0  0  0  0
   37.2630   26.5290   31.2170 C   0  0  0  0  0  0  0  0  0  0  0  0
   37.7910   25.5220   30.6610 O   0  0  0  0  0  0  0  0  0  0  0  0
   35.4200   30.0110   33.3420 S   0  0  0  0  0  0  0  0  0  0  0  0
   40.4330   22.3938   37.0088 H   0  0  0  0  0  0  0  0  0  0  0  0
   36.9652   24.6184   38.1153 H   0  0  0  0  0  0  0  0  0  0  0  0
   38.0120   22.7695   39.6354 H   0  0  0  0  0  0  0  0  0  0  0  0
   39.4637   21.9178   39.0438 H   0  0  0  0  0  0  0  0  0  0  0  0
   39.2849   27.1687   35.4140 H   0  0  0  0  0  0  0  0  0  0  0  0
   40.2194   27.2120   33.8805 H   0  0  0  0  0  0  0  0  0  0  0  0
   38.4735   27.6342   33.8805 H   0  0  0  0  0  0  0  0  0  0  0  0
   40.7281   24.4375   33.7338 H   0  0  0  0  0  0  0  0  0  0  0  0
   39.4504   24.1629   32.5014 H   0  0  0  0  0  0  0  0  0  0  0  0
   40.3832   25.6980   32.5014 H   0  0  0  0  0  0  0  0  0  0  0  0
   37.5875   24.4739   32.8134 H   0  0  0  0  0  0  0  0  0  0  0  0
   36.8222   25.3779   34.2315 H   0  0  0  0  0  0  0  0  0  0  0  0
   36.4832   27.5084   34.2786 H   0  0  0  0  0  0  0  0  0  0  0  0
   35.9063   29.8607   29.4093 H   0  0  0  0  0  0  0  0  0  0  0  0
   35.4152   30.5605   30.9750 H   0  0  0  0  0  0  0  0  0  0  0  0
   35.5273   29.8089   34.6928 H   0  0  0  0  0  0  0  0  0  0  0  0
  1  9  1  0
  1  6  1  0
  2  3  2  0
  3  8  1  0
  4  3  1  0
  5  4  2  0
  6  7  2  0
  6  5  1  0
  7  2  1  0
 10  1  1  0
 11  1  1  0
 12 13  1  0
 12 11  1  0
 14 13  2  0
 14 20  1  0
 15 14  1  0
 16 15  1  0
 17 15  2  0
 17 18  1  0
 18 12  1  0
 19 18  2  0
  2 21  1  0
  4 22  1  0
  8 23  1  0
  8 24  1  0
  9 25  1  0
  9 26  1  0
  9 27  1  0
 10 28  1  0
 10 29  1  0
 10 30  1  0
 11 31  1  0
 11 32  1  0
 13 33  1  0
 16 34  1  0
 16 35  1  0
 20 36  1  0
M  ISO  8  21  14  22  14  25   8  26   8  27   8  28   8  29   8  30   8
M  ISO  4  31   8  32   8  33  14  36  11
M  END
>  <minimizedAffinity>  (1) 
-5.09890461

>  <minimizedRMSD>  (1) 
0.121653639

$$$$
