
     RDKit          3D

 48 53  0  0  1  0  0  0  0  0999 V2000
   37.8520   23.4820   33.2690 C   0  0  0  0  0  0  0  0  0  0  0  0
   36.9800   22.6510   32.5860 C   0  0  0  0  0  0  0  0  0  0  0  0
   36.7300   21.6250   33.4530 N   0  0  0  0  0  0  0  0  0  0  0  0
   37.4330   21.8750   34.5710 C   0  0  0  0  0  0  0  0  0  0  0  0
   38.1340   23.0080   34.4930 N   0  0  0  0  0  0  0  0  0  0  0  0
   38.4110   24.7270   32.7480 C   0  0  0  0  0  0  0  0  0  0  0  0
   39.7920   24.8630   32.6020 C   0  0  0  0  0  0  0  0  0  0  0  0
   40.2650   26.1010   32.1000 C   0  0  0  0  0  0  0  0  0  0  0  0
   39.3610   27.0640   31.7960 N   0  0  0  0  0  0  0  0  0  0  0  0
   38.0510   26.8860   31.9520 C   0  0  0  0  0  0  0  0  0  0  0  0
   37.5550   25.7220   32.4280 N   0  0  0  0  0  0  0  0  0  0  0  0
   37.1900   27.9660   31.6020 N   0  0  0  0  0  0  0  0  0  0  0  0
   36.9460   28.5380   30.4080 C   0  0  0  0  0  0  0  0  0  0  0  0
   36.0440   29.5460   30.5480 N   0  0  0  0  0  0  0  0  0  0  0  0
   35.7500   29.5630   31.8800 C   0  0  0  0  0  0  0  0  0  0  0  0
   34.8820   30.4030   32.5470 C   0  0  0  0  0  0  0  0  0  0  0  0
   34.7230   30.2620   33.8870 N   0  0  0  0  0  0  0  0  0  0  0  0
   35.4250   29.2920   34.5420 C   0  0  0  0  0  0  0  0  0  0  0  0
   36.2850   28.4540   33.8920 N   0  0  0  0  0  0  0  0  0  0  0  0
   36.4550   28.5850   32.5530 C   0  0  0  0  0  0  0  0  0  0  0  0
   38.9890   23.5990   35.4650 C   0  0  1  0  0  0  0  0  0  0  0  0
   38.4150   24.8060   36.0950 C   0  0  0  0  0  0  0  0  0  0  0  0
   37.5900   24.2360   37.2340 C   0  0  0  0  0  0  0  0  0  0  0  0
   38.4760   23.1800   37.7800 C   0  0  0  0  0  0  0  0  0  0  0  0
   39.2900   22.6790   36.6220 C   0  0  2  0  0  0  0  0  0  0  0  0
   40.7780   22.7670   36.9120 C   0  0  0  0  0  0  0  0  0  0  0  0
   41.5870   21.7540   36.1050 C   0  0  0  0  0  0  0  0  0  0  0  0
   41.5100   21.6940   37.5980 C   0  0  0  0  0  0  0  0  0  0  0  0
   36.5780   22.7867   31.5711 H   0  0  0  0  0  0  0  0  0  0  0  0
   37.4308   21.2180   35.4532 H   0  0  0  0  0  0  0  0  0  0  0  0
   40.4816   24.0471   32.8644 H   0  0  0  0  0  0  0  0  0  0  0  0
   41.3419   26.2765   31.9602 H   0  0  0  0  0  0  0  0  0  0  0  0
   37.4089   28.2342   29.4575 H   0  0  0  0  0  0  0  0  0  0  0  0
   34.3256   31.1776   31.9989 H   0  0  0  0  0  0  0  0  0  0  0  0
   35.2937   29.1818   35.6286 H   0  0  0  0  0  0  0  0  0  0  0  0
   39.8910   23.8369   34.8821 H   0  0  0  0  0  0  0  0  0  0  0  0
   39.2068   25.4692   36.4735 H   0  0  0  0  0  0  0  0  0  0  0  0
   37.8263   25.4208   35.3982 H   0  0  0  0  0  0  0  0  0  0  0  0
   37.3748   25.0042   37.9913 H   0  0  0  0  0  0  0  0  0  0  0  0
   36.6066   23.8598   36.9156 H   0  0  0  0  0  0  0  0  0  0  0  0
   39.1337   23.5975   38.5566 H   0  0  0  0  0  0  0  0  0  0  0  0
   37.8956   22.3688   38.2438 H   0  0  0  0  0  0  0  0  0  0  0  0
   39.0399   21.6276   36.4171 H   0  0  0  0  0  0  0  0  0  0  0  0
   40.7420   23.8502   37.1003 H   0  0  0  0  0  0  0  0  0  0  0  0
   41.0757   20.9972   35.4919 H   0  0  0  0  0  0  0  0  0  0  0  0
   42.3932   21.8039   35.3583 H   0  0  0  0  0  0  0  0  0  0  0  0
   42.3980   21.9389   38.1992 H   0  0  0  0  0  0  0  0  0  0  0  0
   41.2268   20.9136   38.3196 H   0  0  0  0  0  0  0  0  0  0  0  0
  1  5  1  0
  2  1  2  0
  2  3  1  0
  3  4  2  0
  5  4  1  0
  5 21  1  0
  6  1  1  0
  7  6  2  0
  8  7  1  0
  9 10  1  0
  9  8  2  0
 10 11  2  0
 11  6  1  0
 12 10  1  0
 12 20  1  0
 13 14  2  0
 13 12  1  0
 14 15  1  0
 15 16  1  0
 15 20  2  0
 16 17  2  0
 17 18  1  0
 19 18  2  0
 20 19  1  0
 21 22  1  0
 21 25  1  0
 22 23  1  0
 23 24  1  0
 25 26  1  0
 25 24  1  0
 26 28  1  0
 27 26  1  0
 27 28  1  0
  2 29  1  0
  4 30  1  0
  7 31  1  0
  8 32  1  0
 13 33  1  0
 16 34  1  0
 18 35  1  0
 21 36  1  6
 22 37  1  0
 22 38  1  0
 23 39  1  0
 23 40  1  0
 24 41  1  0
 24 42  1  0
 25 43  1  6
 26 44  1  0
 27 45  1  0
 27 46  1  0
 28 47  1  0
 28 48  1  0
M  ISO  8  29  14  30  14  31  14  32  14  33  14  34  14  35  14  36  13
M  ISO  8  37  13  38  13  39  13  40  13  41  13  42  13  43  13  44  13
M  ISO  4  45  13  46  13  47  13  48  13
M  END
>  <minimizedAffinity>  (1) 
-6.1518507

>  <minimizedRMSD>  (1) 
1.04261231

$$$$
