
     RDKit          3D

 55 58  0  0  1  0  0  0  0  0999 V2000
   38.6340   25.9580   34.7970 C   0  0  2  0  0  0  0  0  0  0  0  0
   38.7950   22.9820   36.9600 C   0  0  0  0  0  0  0  0  0  0  0  0
   38.3400   23.4340   38.1800 C   0  0  0  0  0  0  0  0  0  0  0  0
   37.9760   24.7650   38.2430 C   0  0  0  0  0  0  0  0  0  0  0  0
   38.0810   25.5470   37.1340 N   0  0  0  0  0  0  0  0  0  0  0  0
   38.5350   25.0680   35.9460 C   0  0  0  0  0  0  0  0  0  0  0  0
   38.8910   23.7560   35.8860 N   0  0  0  0  0  0  0  0  0  0  0  0
   38.2840   22.5320   39.2630 N   0  0  0  0  0  0  0  0  0  0  0  0
   39.0830   27.3320   35.2250 C   0  0  0  0  0  0  0  0  0  0  0  0
   37.2890   26.0290   34.1490 C   0  0  0  0  0  0  0  0  0  0  0  0
   36.9050   27.2680   33.5650 N   0  0  0  0  0  0  0  0  0  0  0  0
   36.2950   28.1370   34.4100 C   0  0  0  0  0  0  0  0  0  0  0  0
   35.8680   29.3870   33.9930 C   0  0  0  0  0  0  0  0  0  0  0  0
   36.0840   29.7340   32.6740 C   0  0  0  0  0  0  0  0  0  0  0  0
   35.6370   31.0210   32.2750 N   0  0  0  0  0  0  0  0  0  0  0  0
   36.6900   28.8630   31.8430 N   0  0  0  0  0  0  0  0  0  0  0  0
   37.0760   27.6770   32.3030 C   0  0  0  0  0  0  0  0  0  0  0  0
   37.6390   26.8570   31.5500 O   0  0  0  0  0  0  0  0  0  0  0  0
   35.2110   30.2920   34.9460 C   0  0  0  0  0  0  0  0  0  0  0  0
   35.9280   31.1900   35.6900 C   0  0  0  0  0  0  0  0  0  0  0  0
   35.3080   32.0370   36.5840 C   0  0  0  0  0  0  0  0  0  0  0  0
   33.9590   31.9370   36.6910 C   0  0  0  0  0  0  0  0  0  0  0  0
   33.1920   31.0590   35.9750 C   0  0  0  0  0  0  0  0  0  0  0  0
   33.8350   30.2120   35.0760 C   0  0  0  0  0  0  0  0  0  0  0  0
   39.6400   25.4140   33.7750 C   0  0  0  0  0  0  0  0  0  0  0  0
   41.0260   25.8390   33.9660 C   0  0  0  0  0  0  0  0  0  0  0  0
   41.5620   26.8730   33.1850 C   0  0  0  0  0  0  0  0  0  0  0  0
   42.8640   27.3080   33.2570 C   0  0  0  0  0  0  0  0  0  0  0  0
   43.7360   26.7190   34.1420 C   0  0  0  0  0  0  0  0  0  0  0  0
   43.2750   25.6980   34.9370 C   0  0  0  0  0  0  0  0  0  0  0  0
   41.9750   25.3150   34.8140 C   0  0  0  0  0  0  0  0  0  0  0  0
   39.0935   21.9269   36.8720 H   0  0  0  0  0  0  0  0  0  0  0  0
   37.6027   25.1913   39.1858 H   0  0  0  0  0  0  0  0  0  0  0  0
   37.9468   22.8514   40.1823 H   0  0  0  0  0  0  0  0  0  0  0  0
   38.5803   21.5539   39.1345 H   0  0  0  0  0  0  0  0  0  0  0  0
   39.1007   27.3863   36.3235 H   0  0  0  0  0  0  0  0  0  0  0  0
   40.0917   27.5271   34.8319 H   0  0  0  0  0  0  0  0  0  0  0  0
   38.3842   28.0851   34.8319 H   0  0  0  0  0  0  0  0  0  0  0  0
   37.2659   25.2691   33.3540 H   0  0  0  0  0  0  0  0  0  0  0  0
   36.5741   25.8733   34.9704 H   0  0  0  0  0  0  0  0  0  0  0  0
   36.1349   27.8401   35.4570 H   0  0  0  0  0  0  0  0  0  0  0  0
   35.7712   31.3344   31.3030 H   0  0  0  0  0  0  0  0  0  0  0  0
   35.1785   31.6414   32.9575 H   0  0  0  0  0  0  0  0  0  0  0  0
   37.0207   31.2368   35.5722 H   0  0  0  0  0  0  0  0  0  0  0  0
   35.8806   32.7605   37.1829 H   0  0  0  0  0  0  0  0  0  0  0  0
   33.4487   32.6057   37.3998 H   0  0  0  0  0  0  0  0  0  0  0  0
   32.1004   31.0232   36.1055 H   0  0  0  0  0  0  0  0  0  0  0  0
   33.2586   29.4905   34.4784 H   0  0  0  0  0  0  0  0  0  0  0  0
   39.6128   24.3155   33.8248 H   0  0  0  0  0  0  0  0  0  0  0  0
   39.3311   25.8224   32.8015 H   0  0  0  0  0  0  0  0  0  0  0  0
   40.8948   27.3701   32.4654 H   0  0  0  0  0  0  0  0  0  0  0  0
   43.2079   28.1264   32.6073 H   0  0  0  0  0  0  0  0  0  0  0  0
   44.7801   27.0580   34.2119 H   0  0  0  0  0  0  0  0  0  0  0  0
   43.9418   25.2011   35.6570 H   0  0  0  0  0  0  0  0  0  0  0  0
   41.6451   24.4932   35.4665 H   0  0  0  0  0  0  0  0  0  0  0  0
  1 25  1  6
  1  9  1  0
  1  6  1  0
  2  3  2  0
  3  4  1  0
  3  8  1  0
  5  4  2  0
  6  5  1  0
  7  6  2  0
  7  2  1  0
 10  1  1  0
 11 10  1  0
 11 12  1  0
 13 12  2  0
 13 19  1  0
 14 13  1  0
 15 14  1  0
 16 17  1  0
 16 14  2  0
 17 11  1  0
 18 17  2  0
 19 24  1  0
 19 20  2  0
 20 21  1  0
 21 22  2  0
 23 22  1  0
 24 23  2  0
 25 26  1  0
 26 31  2  0
 27 28  2  0
 27 26  1  0
 28 29  1  0
 29 30  2  0
 31 30  1  0
  2 32  1  0
  4 33  1  0
  8 34  1  0
  8 35  1  0
  9 36  1  0
  9 37  1  0
  9 38  1  0
 10 39  1  0
 10 40  1  0
 12 41  1  0
 15 42  1  0
 15 43  1  0
 20 44  1  0
 21 45  1  0
 22 46  1  0
 23 47  1  0
 24 48  1  0
 25 49  1  0
 25 50  1  0
 27 51  1  0
 28 52  1  0
 29 53  1  0
 30 54  1  0
 31 55  1  0
M  ISO  8  32  14  33  14  36   8  37   8  38   8  39   8  40   8  41  14
M  ISO  8  44  14  45  14  46  14  47  14  48  14  49   8  50   8  51  14
M  ISO  4  52  14  53  14  54  14  55  14
M  END
>  <minimizedAffinity>  (1) 
-6.85370636

>  <minimizedRMSD>  (1) 
0.820980847

$$$$
