
     RDKit          3D

 55 58  0  0  1  0  0  0  0  0999 V2000
   38.6400   25.9700   34.8070 C   0  0  2  0  0  0  0  0  0  0  0  0
   38.8480   23.0070   36.9930 C   0  0  0  0  0  0  0  0  0  0  0  0
   38.3420   23.4410   38.1970 C   0  0  0  0  0  0  0  0  0  0  0  0
   37.9340   24.7550   38.2340 C   0  0  0  0  0  0  0  0  0  0  0  0
   38.0410   25.5360   37.1380 N   0  0  0  0  0  0  0  0  0  0  0  0
   38.5450   25.0780   35.9630 C   0  0  0  0  0  0  0  0  0  0  0  0
   38.9490   23.7800   35.9190 N   0  0  0  0  0  0  0  0  0  0  0  0
   38.2890   22.5300   39.2710 N   0  0  0  0  0  0  0  0  0  0  0  0
   39.0810   27.3370   35.2230 C   0  0  0  0  0  0  0  0  0  0  0  0
   37.2810   26.0270   34.1720 C   0  0  0  0  0  0  0  0  0  0  0  0
   36.8920   27.2620   33.5830 N   0  0  0  0  0  0  0  0  0  0  0  0
   36.2890   28.1410   34.4220 C   0  0  0  0  0  0  0  0  0  0  0  0
   35.8560   29.3850   34.0000 C   0  0  0  0  0  0  0  0  0  0  0  0
   36.0560   29.7170   32.6790 C   0  0  0  0  0  0  0  0  0  0  0  0
   35.6010   31.0010   32.2770 N   0  0  0  0  0  0  0  0  0  0  0  0
   36.6540   28.8410   31.8490 N   0  0  0  0  0  0  0  0  0  0  0  0
   37.0490   27.6570   32.3170 C   0  0  0  0  0  0  0  0  0  0  0  0
   37.6030   26.8370   31.5610 O   0  0  0  0  0  0  0  0  0  0  0  0
   35.2050   30.2960   34.9520 C   0  0  0  0  0  0  0  0  0  0  0  0
   35.9290   31.1940   35.6880 C   0  0  0  0  0  0  0  0  0  0  0  0
   35.3080   32.0470   36.5830 C   0  0  0  0  0  0  0  0  0  0  0  0
   33.9580   31.9500   36.6930 C   0  0  0  0  0  0  0  0  0  0  0  0
   33.1880   31.0700   35.9810 C   0  0  0  0  0  0  0  0  0  0  0  0
   33.8250   30.2170   35.0840 C   0  0  0  0  0  0  0  0  0  0  0  0
   39.6260   25.4110   33.7820 C   0  0  0  0  0  0  0  0  0  0  0  0
   40.9580   26.0030   33.7630 C   0  0  0  0  0  0  0  0  0  0  0  0
   41.4510   27.0500   33.0200 C   0  0  0  0  0  0  0  0  0  0  0  0
   42.7120   27.5520   33.0100 C   0  0  0  0  0  0  0  0  0  0  0  0
   43.6490   26.9730   33.8330 C   0  0  0  0  0  0  0  0  0  0  0  0
   43.2550   25.9000   34.6360 C   0  0  0  0  0  0  0  0  0  0  0  0
   41.9480   25.4480   34.5850 C   0  0  0  0  0  0  0  0  0  0  0  0
   39.1869   21.9633   36.9168 H   0  0  0  0  0  0  0  0  0  0  0  0
   37.5178   25.1717   39.1631 H   0  0  0  0  0  0  0  0  0  0  0  0
   37.9147   22.8297   40.1826 H   0  0  0  0  0  0  0  0  0  0  0  0
   38.6245   21.5645   39.1443 H   0  0  0  0  0  0  0  0  0  0  0  0
   39.1006   27.3976   36.3212 H   0  0  0  0  0  0  0  0  0  0  0  0
   40.0882   27.5337   34.8269 H   0  0  0  0  0  0  0  0  0  0  0  0
   38.3787   28.0852   34.8269 H   0  0  0  0  0  0  0  0  0  0  0  0
   37.2511   25.2601   33.3840 H   0  0  0  0  0  0  0  0  0  0  0  0
   36.5735   25.8713   34.9998 H   0  0  0  0  0  0  0  0  0  0  0  0
   36.1393   27.8548   35.4735 H   0  0  0  0  0  0  0  0  0  0  0  0
   35.7218   31.3080   31.3013 H   0  0  0  0  0  0  0  0  0  0  0  0
   35.1502   31.6252   32.9612 H   0  0  0  0  0  0  0  0  0  0  0  0
   37.0213   31.2384   35.5663 H   0  0  0  0  0  0  0  0  0  0  0  0
   35.8823   32.7715   37.1790 H   0  0  0  0  0  0  0  0  0  0  0  0
   33.4501   32.6222   37.4002 H   0  0  0  0  0  0  0  0  0  0  0  0
   32.0965   31.0378   36.1140 H   0  0  0  0  0  0  0  0  0  0  0  0
   33.2459   29.4939   34.4909 H   0  0  0  0  0  0  0  0  0  0  0  0
   39.7421   24.3359   33.9834 H   0  0  0  0  0  0  0  0  0  0  0  0
   39.1896   25.6507   32.8011 H   0  0  0  0  0  0  0  0  0  0  0  0
   40.7324   27.5430   32.3488 H   0  0  0  0  0  0  0  0  0  0  0  0
   42.9773   28.3994   32.3608 H   0  0  0  0  0  0  0  0  0  0  0  0
   44.6836   27.3456   33.8585 H   0  0  0  0  0  0  0  0  0  0  0  0
   43.9808   25.4162   35.3062 H   0  0  0  0  0  0  0  0  0  0  0  0
   41.6691   24.6011   35.2292 H   0  0  0  0  0  0  0  0  0  0  0  0
  1 25  1  6
  1  9  1  0
  1  6  1  0
  2  3  2  0
  3  4  1  0
  3  8  1  0
  5  4  2  0
  6  5  1  0
  7  6  2  0
  7  2  1  0
 10  1  1  0
 11 10  1  0
 11 12  1  0
 13 12  2  0
 13 19  1  0
 14 13  1  0
 15 14  1  0
 16 17  1  0
 16 14  2  0
 17 11  1  0
 18 17  2  0
 19 24  1  0
 19 20  2  0
 20 21  1  0
 21 22  2  0
 23 22  1  0
 24 23  2  0
 26 25  1  0
 26 31  1  0
 27 26  2  0
 28 27  1  0
 28 29  2  0
 29 30  1  0
 31 30  2  0
  2 32  1  0
  4 33  1  0
  8 34  1  0
  8 35  1  0
  9 36  1  0
  9 37  1  0
  9 38  1  0
 10 39  1  0
 10 40  1  0
 12 41  1  0
 15 42  1  0
 15 43  1  0
 20 44  1  0
 21 45  1  0
 22 46  1  0
 23 47  1  0
 24 48  1  0
 25 49  1  0
 25 50  1  0
 27 51  1  0
 28 52  1  0
 29 53  1  0
 30 54  1  0
 31 55  1  0
M  ISO  8  32  14  33  14  36   8  37   8  38   8  39   8  40   8  41  14
M  ISO  8  44  14  45  14  46  14  47  14  48  14  49   8  50   8  51  14
M  ISO  4  52  14  53  14  54  14  55  14
M  END
>  <minimizedAffinity>  (1) 
-6.82686377

>  <minimizedRMSD>  (1) 
1.05401456

$$$$
