
     RDKit          3D

 61 64  0  0  1  0  0  0  0  0999 V2000
   37.3670   26.1250   34.2940 C   0  0  0  0  0  0  0  0  0  0  0  0
   36.8740   27.3160   33.6660 N   0  0  0  0  0  0  0  0  0  0  0  0
   36.2670   28.1940   34.4940 C   0  0  0  0  0  0  0  0  0  0  0  0
   35.7490   29.4010   34.0410 C   0  0  0  0  0  0  0  0  0  0  0  0
   35.8710   29.6880   32.6920 C   0  0  0  0  0  0  0  0  0  0  0  0
   35.3350   30.9280   32.2570 N   0  0  0  0  0  0  0  0  0  0  0  0
   36.4740   28.8100   31.8820 N   0  0  0  0  0  0  0  0  0  0  0  0
   36.9520   27.6670   32.3760 C   0  0  0  0  0  0  0  0  0  0  0  0
   37.5110   26.8460   31.6280 O   0  0  0  0  0  0  0  0  0  0  0  0
   35.1030   30.3250   34.9810 C   0  0  0  0  0  0  0  0  0  0  0  0
   35.8400   31.2460   35.6980 C   0  0  0  0  0  0  0  0  0  0  0  0
   35.2330   32.1150   36.5840 C   0  0  0  0  0  0  0  0  0  0  0  0
   33.8860   32.0130   36.7090 C   0  0  0  0  0  0  0  0  0  0  0  0
   33.1130   31.1170   36.0210 C   0  0  0  0  0  0  0  0  0  0  0  0
   33.7350   30.2410   35.1270 C   0  0  0  0  0  0  0  0  0  0  0  0
   38.6150   26.2840   35.1370 C   0  0  2  0  0  0  0  0  0  0  0  0
   38.7270   23.0880   37.0000 C   0  0  0  0  0  0  0  0  0  0  0  0
   38.2730   23.4070   38.2580 C   0  0  0  0  0  0  0  0  0  0  0  0
   37.9250   24.7160   38.4490 C   0  0  0  0  0  0  0  0  0  0  0  0
   38.0380   25.6110   37.4380 N   0  0  0  0  0  0  0  0  0  0  0  0
   38.4910   25.2650   36.2140 C   0  0  0  0  0  0  0  0  0  0  0  0
   38.8380   23.9640   36.0100 N   0  0  0  0  0  0  0  0  0  0  0  0
   38.2170   22.3780   39.2280 N   0  0  0  0  0  0  0  0  0  0  0  0
   38.6660   27.6420   35.7280 C   0  0  0  0  0  0  0  0  0  0  0  0
   39.7870   25.9270   34.2630 C   0  0  0  0  0  0  0  0  0  0  0  0
   41.0870   26.6510   34.4170 C   0  0  0  0  0  0  0  0  0  0  0  0
   41.5080   27.4210   33.2400 C   0  0  0  0  0  0  0  0  0  0  0  0
   42.9580   27.3280   32.8220 C   0  0  0  0  0  0  0  0  0  0  0  0
   43.5650   25.9680   33.0300 C   0  0  0  0  0  0  0  0  0  0  0  0
   43.4900   25.8320   34.5610 C   0  0  0  0  0  0  0  0  0  0  0  0
   42.0740   25.5840   34.8720 C   0  0  0  0  0  0  0  0  0  0  0  0
   37.5872   25.3940   33.5021 H   0  0  0  0  0  0  0  0  0  0  0  0
   36.5771   25.8103   34.9919 H   0  0  0  0  0  0  0  0  0  0  0  0
   36.1800   27.9452   35.5619 H   0  0  0  0  0  0  0  0  0  0  0  0
   35.3964   31.1957   31.2643 H   0  0  0  0  0  0  0  0  0  0  0  0
   34.8846   31.5602   32.9340 H   0  0  0  0  0  0  0  0  0  0  0  0
   36.9306   31.2888   35.5614 H   0  0  0  0  0  0  0  0  0  0  0  0
   35.8125   32.8523   37.1590 H   0  0  0  0  0  0  0  0  0  0  0  0
   33.3818   32.6952   37.4093 H   0  0  0  0  0  0  0  0  0  0  0  0
   32.0234   31.0870   36.1689 H   0  0  0  0  0  0  0  0  0  0  0  0
   33.1494   29.5054   34.5561 H   0  0  0  0  0  0  0  0  0  0  0  0
   39.0152   22.0449   36.8028 H   0  0  0  0  0  0  0  0  0  0  0  0
   37.5509   25.0443   39.4300 H   0  0  0  0  0  0  0  0  0  0  0  0
   37.8815   22.5850   40.1796 H   0  0  0  0  0  0  0  0  0  0  0  0
   38.5117   21.4221   38.9824 H   0  0  0  0  0  0  0  0  0  0  0  0
   38.6631   27.5647   36.8253 H   0  0  0  0  0  0  0  0  0  0  0  0
   39.5839   28.1510   35.3987 H   0  0  0  0  0  0  0  0  0  0  0  0
   37.7889   28.2184   35.3987 H   0  0  0  0  0  0  0  0  0  0  0  0
   39.9961   24.8606   34.4334 H   0  0  0  0  0  0  0  0  0  0  0  0
   39.4512   26.2244   33.2586 H   0  0  0  0  0  0  0  0  0  0  0  0
   41.0064   27.4592   35.1589 H   0  0  0  0  0  0  0  0  0  0  0  0
   40.8984   27.0812   32.3897 H   0  0  0  0  0  0  0  0  0  0  0  0
   41.3692   28.4726   33.5312 H   0  0  0  0  0  0  0  0  0  0  0  0
   43.5351   28.0584   33.4081 H   0  0  0  0  0  0  0  0  0  0  0  0
   42.9930   27.5320   31.7416 H   0  0  0  0  0  0  0  0  0  0  0  0
   42.9786   25.1847   32.5274 H   0  0  0  0  0  0  0  0  0  0  0  0
   44.5795   25.8610   32.6185 H   0  0  0  0  0  0  0  0  0  0  0  0
   44.1103   24.9898   34.9017 H   0  0  0  0  0  0  0  0  0  0  0  0
   43.8636   26.7347   35.0666 H   0  0  0  0  0  0  0  0  0  0  0  0
   41.9826   25.4865   35.9639 H   0  0  0  0  0  0  0  0  0  0  0  0
   41.8048   24.6767   34.3113 H   0  0  0  0  0  0  0  0  0  0  0  0
 16  1  1  6
  2  1  1  0
  2  3  1  0
  4  3  2  0
  4 10  1  0
  5  4  1  0
  6  5  1  0
  7  8  1  0
  7  5  2  0
  8  2  1  0
  9  8  2  0
 10 15  1  0
 10 11  2  0
 11 12  1  0
 12 13  2  0
 14 13  1  0
 15 14  2  0
 16 25  1  0
 16 24  1  0
 16 21  1  0
 17 18  2  0
 18 19  1  0
 18 23  1  0
 20 19  2  0
 21 20  1  0
 22 21  2  0
 22 17  1  0
 25 26  1  0
 26 31  1  0
 27 26  1  0
 28 29  1  0
 28 27  1  0
 29 30  1  0
 30 31  1  0
  1 32  1  0
  1 33  1  0
  3 34  1  0
  6 35  1  0
  6 36  1  0
 11 37  1  0
 12 38  1  0
 13 39  1  0
 14 40  1  0
 15 41  1  0
 17 42  1  0
 19 43  1  0
 23 44  1  0
 23 45  1  0
 24 46  1  0
 24 47  1  0
 24 48  1  0
 25 49  1  0
 25 50  1  0
 26 51  1  0
 27 52  1  0
 27 53  1  0
 28 54  1  0
 28 55  1  0
 29 56  1  0
 29 57  1  0
 30 58  1  0
 30 59  1  0
 31 60  1  0
 31 61  1  0
M  ISO  8  32   8  33   8  34  14  37  14  38  14  39  14  40  14  41  14
M  ISO  8  42  14  43  14  46   8  47   8  48   8  49   8  50   8  51  13
M  ISO  8  52  13  53  13  54  13  55  13  56  13  57  13  58  13  59  13
M  ISO  2  60  13  61  13
M  END
>  <minimizedAffinity>  (1) 
-6.97299385

>  <minimizedRMSD>  (1) 
1.16893852

$$$$
