
     RDKit          3D

 52 55  0  0  1  0  0  0  0  0999 V2000
   36.2290   28.8410   32.7680 C   0  0  0  0  0  0  0  0  0  0  0  0
   36.6720   27.6770   32.2180 C   0  0  0  0  0  0  0  0  0  0  0  0
   37.1280   26.6760   33.0770 C   0  0  0  0  0  0  0  0  0  0  0  0
   37.1270   26.8670   34.4330 C   0  0  0  0  0  0  0  0  0  0  0  0
   36.6860   28.0280   34.9850 C   0  0  0  0  0  0  0  0  0  0  0  0
   36.2320   29.0270   34.1570 C   0  0  0  0  0  0  0  0  0  0  0  0
   37.6470   25.6910   35.1670 C   0  0  0  0  0  0  0  0  0  0  0  0
   39.0660   25.3890   34.9000 C   0  0  2  0  0  0  0  0  0  0  0  0
   41.4270   22.9660   36.3080 C   0  0  0  0  0  0  0  0  0  0  0  0
   40.7190   22.4320   37.4340 C   0  0  0  0  0  0  0  0  0  0  0  0
   39.4260   22.9200   37.6880 C   0  0  0  0  0  0  0  0  0  0  0  0
   38.9290   23.8770   36.8400 N   0  0  0  0  0  0  0  0  0  0  0  0
   39.6390   24.3580   35.7810 C   0  0  0  0  0  0  0  0  0  0  0  0
   40.8840   23.9140   35.5040 N   0  0  0  0  0  0  0  0  0  0  0  0
   39.8970   26.6820   35.1080 C   0  0  0  0  0  0  0  0  0  0  0  0
   35.6500   30.1170   31.7180 S   0  0  0  0  0  0  0  0  0  0  0  0
   35.9750   29.7120   30.3000 O   0  0  0  0  0  0  0  0  0  0  0  0
   36.3620   31.4160   31.9920 O   0  0  0  0  0  0  0  0  0  0  0  0
   33.9370   30.3530   31.9050 C   0  0  0  0  0  0  0  0  0  0  0  0
   32.9980   29.7700   32.6440 N   0  0  0  0  0  0  0  0  0  0  0  0
   31.8370   30.3240   32.4200 O   0  0  0  0  0  0  0  0  0  0  0  0
   31.9850   31.2850   31.5290 C   0  0  0  0  0  0  0  0  0  0  0  0
   33.2670   31.3050   31.2120 N   0  0  0  0  0  0  0  0  0  0  0  0
   30.8480   32.0730   31.0890 C   0  0  0  0  0  0  0  0  0  0  0  0
   30.4110   33.0000   31.8130 O   0  0  0  0  0  0  0  0  0  0  0  0
   30.1470   31.8990   29.8750 N   0  0  0  0  0  0  0  0  0  0  0  0
   28.7350   31.5870   29.9670 C   0  0  0  0  0  0  0  0  0  0  0  0
   27.9170   32.3980   28.9830 C   0  0  0  0  0  0  0  0  0  0  0  0
   28.4280   32.2950   27.6890 O   0  0  0  0  0  0  0  0  0  0  0  0
   29.7050   32.8520   27.7020 C   0  0  0  0  0  0  0  0  0  0  0  0
   30.6550   31.9920   28.5210 C   0  0  0  0  0  0  0  0  0  0  0  0
   36.6706   27.5297   31.1279 H   0  0  0  0  0  0  0  0  0  0  0  0
   37.4916   25.7248   32.6609 H   0  0  0  0  0  0  0  0  0  0  0  0
   36.6923   28.1660   36.0763 H   0  0  0  0  0  0  0  0  0  0  0  0
   35.8706   29.9736   34.5852 H   0  0  0  0  0  0  0  0  0  0  0  0
   37.5313   25.8785   36.2447 H   0  0  0  0  0  0  0  0  0  0  0  0
   37.0688   24.8218   34.8205 H   0  0  0  0  0  0  0  0  0  0  0  0
   39.1077   25.0075   33.8691 H   0  0  0  0  0  0  0  0  0  0  0  0
   42.4398   22.5965   36.0896 H   0  0  0  0  0  0  0  0  0  0  0  0
   41.1731   21.6649   38.0785 H   0  0  0  0  0  0  0  0  0  0  0  0
   38.8333   22.5479   38.5367 H   0  0  0  0  0  0  0  0  0  0  0  0
   40.0183   26.8707   36.1849 H   0  0  0  0  0  0  0  0  0  0  0  0
   40.8866   26.5606   34.6433 H   0  0  0  0  0  0  0  0  0  0  0  0
   39.3755   27.5318   34.6433 H   0  0  0  0  0  0  0  0  0  0  0  0
   28.5916   30.5175   29.7537 H   0  0  0  0  0  0  0  0  0  0  0  0
   28.3943   31.8353   30.9830 H   0  0  0  0  0  0  0  0  0  0  0  0
   26.8809   32.0286   28.9890 H   0  0  0  0  0  0  0  0  0  0  0  0
   27.9569   33.4542   29.2877 H   0  0  0  0  0  0  0  0  0  0  0  0
   30.0794   32.9223   26.6701 H   0  0  0  0  0  0  0  0  0  0  0  0
   29.6512   33.8525   28.1559 H   0  0  0  0  0  0  0  0  0  0  0  0
   30.7181   30.9865   28.0794 H   0  0  0  0  0  0  0  0  0  0  0  0
   31.6582   32.4431   28.5272 H   0  0  0  0  0  0  0  0  0  0  0  0
  1  6  1  0
  2  1  2  0
  2  3  1  0
  3  4  2  0
  4  5  1  0
  4  7  1  0
  6  5  2  0
  8 15  1  0
  8  7  1  0
  8 13  1  0
  9 10  2  0
 10 11  1  0
 12 11  2  0
 13 12  1  0
 14 13  2  0
 14  9  1  0
 16 19  1  0
 16 18  2  0
 16  1  1  0
 17 16  2  0
 19 20  2  0
 21 20  1  0
 22 21  1  0
 23 22  2  0
 23 19  1  0
 24 22  1  0
 24 25  2  0
 26 27  1  0
 26 24  1  0
 28 27  1  0
 29 30  1  0
 29 28  1  0
 30 31  1  0
 31 26  1  0
  2 32  1  0
  3 33  1  0
  5 34  1  0
  6 35  1  0
  7 36  1  0
  7 37  1  0
  8 38  1  6
  9 39  1  0
 10 40  1  0
 11 41  1  0
 15 42  1  0
 15 43  1  0
 15 44  1  0
 27 45  1  0
 27 46  1  0
 28 47  1  0
 28 48  1  0
 30 49  1  0
 30 50  1  0
 31 51  1  0
 31 52  1  0
M  ISO  8  32  14  33  14  34  14  35  14  36   8  37   8  38   8  39  14
M  ISO  8  40  14  41  14  42   8  43   8  44   8  45  13  46  13  47  13
M  ISO  5  48  13  49  13  50  13  51  13  52  13
M  END
>  <minimizedAffinity>  (1) 
-5.73472404

>  <minimizedRMSD>  (1) 
2.33646727

$$$$
