
     RDKit          3D

 51 54  0  0  1  0  0  0  0  0999 V2000
   37.1690   25.9120   33.5510 C   0  0  0  0  0  0  0  0  0  0  0  0
   36.8250   27.2290   33.0860 N   0  0  0  0  0  0  0  0  0  0  0  0
   36.2650   28.0470   33.9990 C   0  0  0  0  0  0  0  0  0  0  0  0
   35.8860   29.3390   33.6800 C   0  0  0  0  0  0  0  0  0  0  0  0
   36.0940   29.7810   32.3900 C   0  0  0  0  0  0  0  0  0  0  0  0
   35.6900   31.1130   32.1080 N   0  0  0  0  0  0  0  0  0  0  0  0
   36.6490   28.9630   31.4980 N   0  0  0  0  0  0  0  0  0  0  0  0
   37.0010   27.7210   31.8480 C   0  0  0  0  0  0  0  0  0  0  0  0
   37.5250   26.9320   31.0260 O   0  0  0  0  0  0  0  0  0  0  0  0
   35.2750   30.1860   34.7240 C   0  0  0  0  0  0  0  0  0  0  0  0
   36.0250   31.0360   35.4920 C   0  0  0  0  0  0  0  0  0  0  0  0
   35.4240   31.8170   36.4620 C   0  0  0  0  0  0  0  0  0  0  0  0
   34.0770   31.7050   36.6140 C   0  0  0  0  0  0  0  0  0  0  0  0
   33.2830   30.8700   35.8730 C   0  0  0  0  0  0  0  0  0  0  0  0
   33.8920   30.0900   34.9010 C   0  0  0  0  0  0  0  0  0  0  0  0
   38.5960   25.6850   33.8760 C   0  0  2  0  0  0  0  0  0  0  0  0
   39.7270   23.5050   36.6360 C   0  0  0  0  0  0  0  0  0  0  0  0
   38.6560   23.5030   37.5200 C   0  0  0  0  0  0  0  0  0  0  0  0
   37.5750   24.2520   37.1420 C   0  0  0  0  0  0  0  0  0  0  0  0
   37.5910   24.9390   35.9680 N   0  0  0  0  0  0  0  0  0  0  0  0
   38.6560   24.9150   35.1310 C   0  0  0  0  0  0  0  0  0  0  0  0
   39.7530   24.1730   35.4830 N   0  0  0  0  0  0  0  0  0  0  0  0
   38.7730   22.7470   38.7030 N   0  0  0  0  0  0  0  0  0  0  0  0
   39.3640   26.9750   34.0070 C   0  0  0  0  0  0  0  0  0  0  0  0
   39.2380   24.8640   32.7540 C   0  0  0  0  0  0  0  0  0  0  0  0
   38.3280   23.7390   32.3720 C   0  0  0  0  0  0  0  0  0  0  0  0
   38.8810   22.4510   32.5460 C   0  0  0  0  0  0  0  0  0  0  0  0
   37.4880   21.3230   31.9800 S   0  0  0  0  0  0  0  0  0  0  0  0
   36.4230   22.8500   31.6170 C   0  0  0  0  0  0  0  0  0  0  0  0
   37.0920   23.7130   31.8980 N   0  0  0  0  0  0  0  0  0  0  0  0
   36.8852   25.1946   32.7670 H   0  0  0  0  0  0  0  0  0  0  0  0
   36.6272   25.7841   34.4997 H   0  0  0  0  0  0  0  0  0  0  0  0
   36.1053   27.6785   35.0230 H   0  0  0  0  0  0  0  0  0  0  0  0
   35.8191   31.5011   31.1627 H   0  0  0  0  0  0  0  0  0  0  0  0
   35.2679   31.6909   32.8488 H   0  0  0  0  0  0  0  0  0  0  0  0
   37.1122   31.0979   35.3364 H   0  0  0  0  0  0  0  0  0  0  0  0
   36.0134   32.5035   37.0876 H   0  0  0  0  0  0  0  0  0  0  0  0
   33.5933   32.3258   37.3826 H   0  0  0  0  0  0  0  0  0  0  0  0
   32.1974   30.8197   36.0433 H   0  0  0  0  0  0  0  0  0  0  0  0
   33.2955   29.4063   34.2790 H   0  0  0  0  0  0  0  0  0  0  0  0
   40.6150   22.9146   36.9060 H   0  0  0  0  0  0  0  0  0  0  0  0
   36.6881   24.2988   37.7911 H   0  0  0  0  0  0  0  0  0  0  0  0
   37.9962   22.7249   39.3790 H   0  0  0  0  0  0  0  0  0  0  0  0
   39.6353   22.2163   38.8919 H   0  0  0  0  0  0  0  0  0  0  0  0
   39.5047   27.2114   35.0720 H   0  0  0  0  0  0  0  0  0  0  0  0
   40.3457   26.8681   33.5223 H   0  0  0  0  0  0  0  0  0  0  0  0
   38.8022   27.7870   33.5223 H   0  0  0  0  0  0  0  0  0  0  0  0
   39.4092   25.5095   31.8799 H   0  0  0  0  0  0  0  0  0  0  0  0
   40.1977   24.4554   33.1033 H   0  0  0  0  0  0  0  0  0  0  0  0
   39.8785   22.1764   32.9197 H   0  0  0  0  0  0  0  0  0  0  0  0
   35.3958   22.8853   31.2251 H   0  0  0  0  0  0  0  0  0  0  0  0
 16  1  1  6
  2  1  1  0
  2  3  1  0
  4  3  2  0
  4 10  1  0
  5  4  1  0
  6  5  1  0
  7  8  1  0
  7  5  2  0
  8  2  1  0
  9  8  2  0
 10 15  1  0
 10 11  2  0
 11 12  1  0
 12 13  2  0
 14 13  1  0
 15 14  2  0
 16 25  1  0
 16 24  1  0
 16 21  1  0
 17 18  2  0
 18 23  1  0
 19 18  1  0
 20 19  2  0
 21 22  2  0
 21 20  1  0
 22 17  1  0
 26 27  2  0
 26 25  1  0
 28 27  1  0
 29 30  2  0
 29 28  1  0
 30 26  1  0
  1 31  1  0
  1 32  1  0
  3 33  1  0
  6 34  1  0
  6 35  1  0
 11 36  1  0
 12 37  1  0
 13 38  1  0
 14 39  1  0
 15 40  1  0
 17 41  1  0
 19 42  1  0
 23 43  1  0
 23 44  1  0
 24 45  1  0
 24 46  1  0
 24 47  1  0
 25 48  1  0
 25 49  1  0
 27 50  1  0
 29 51  1  0
M  ISO  8  31   8  32   8  33  14  36  14  37  14  38  14  39  14  40  14
M  ISO  8  41  14  42  14  45   8  46   8  47   8  48   8  49   8  50  14
M  ISO  1  51  14
M  END
>  <minimizedAffinity>  (1) 
-6.45328283

>  <minimizedRMSD>  (1) 
0.898173213

$$$$
