
     RDKit          3D

 52 55  0  0  1  0  0  0  0  0999 V2000
   38.4730   25.7100   33.7610 C   0  0  2  0  0  0  0  0  0  0  0  0
   39.7450   23.5340   36.4510 C   0  0  0  0  0  0  0  0  0  0  0  0
   38.7550   23.5710   37.4080 C   0  0  0  0  0  0  0  0  0  0  0  0
   37.6650   24.3490   37.1130 C   0  0  0  0  0  0  0  0  0  0  0  0
   37.6130   25.0230   35.9350 N   0  0  0  0  0  0  0  0  0  0  0  0
   38.6090   24.9640   35.0120 C   0  0  0  0  0  0  0  0  0  0  0  0
   39.6880   24.1960   35.3010 N   0  0  0  0  0  0  0  0  0  0  0  0
   38.9360   22.8200   38.5940 N   0  0  0  0  0  0  0  0  0  0  0  0
   39.3010   26.9830   33.8250 C   0  0  0  0  0  0  0  0  0  0  0  0
   37.0510   26.0210   33.5460 C   0  0  0  0  0  0  0  0  0  0  0  0
   36.7320   27.3440   33.0970 N   0  0  0  0  0  0  0  0  0  0  0  0
   36.1930   28.1620   34.0260 C   0  0  0  0  0  0  0  0  0  0  0  0
   35.8280   29.4620   33.7490 C   0  0  0  0  0  0  0  0  0  0  0  0
   36.0340   29.9170   32.4610 C   0  0  0  0  0  0  0  0  0  0  0  0
   35.6520   31.2620   32.1930 N   0  0  0  0  0  0  0  0  0  0  0  0
   36.5680   29.1050   31.5400 N   0  0  0  0  0  0  0  0  0  0  0  0
   36.9020   27.8560   31.8680 C   0  0  0  0  0  0  0  0  0  0  0  0
   37.4020   27.0760   31.0280 O   0  0  0  0  0  0  0  0  0  0  0  0
   35.2420   30.3000   34.8040 C   0  0  0  0  0  0  0  0  0  0  0  0
   36.0220   31.1460   35.5470 C   0  0  0  0  0  0  0  0  0  0  0  0
   35.4670   31.9320   36.5370 C   0  0  0  0  0  0  0  0  0  0  0  0
   34.1160   31.8190   36.7290 C   0  0  0  0  0  0  0  0  0  0  0  0
   33.2940   30.9870   36.0100 C   0  0  0  0  0  0  0  0  0  0  0  0
   33.8660   30.1970   35.0120 C   0  0  0  0  0  0  0  0  0  0  0  0
   39.0160   24.8730   32.5960 C   0  0  0  0  0  0  0  0  0  0  0  0
   38.1530   23.8020   32.1950 N   0  0  0  0  0  0  0  0  0  0  0  0
   37.8200   22.6990   32.8000 N   0  0  0  0  0  0  0  0  0  0  0  0
   37.0140   21.8990   32.1350 C   0  0  0  0  0  0  0  0  0  0  0  0
   36.7660   22.5160   30.9420 C   0  0  0  0  0  0  0  0  0  0  0  0
   37.4840   23.6840   31.0150 C   0  0  0  0  0  0  0  0  0  0  0  0
   40.6354   22.9199   36.6510 H   0  0  0  0  0  0  0  0  0  0  0  0
   36.8339   24.4271   37.8294 H   0  0  0  0  0  0  0  0  0  0  0  0
   38.2111   22.8302   39.3257 H   0  0  0  0  0  0  0  0  0  0  0  0
   39.7926   22.2633   38.7254 H   0  0  0  0  0  0  0  0  0  0  0  0
   39.4769   27.2535   34.8766 H   0  0  0  0  0  0  0  0  0  0  0  0
   40.2655   26.8187   33.3224 H   0  0  0  0  0  0  0  0  0  0  0  0
   38.7598   27.7981   33.3224 H   0  0  0  0  0  0  0  0  0  0  0  0
   36.6674   25.3148   32.7949 H   0  0  0  0  0  0  0  0  0  0  0  0
   36.5886   25.9393   34.5408 H   0  0  0  0  0  0  0  0  0  0  0  0
   36.0390   27.7757   35.0444 H   0  0  0  0  0  0  0  0  0  0  0  0
   35.7820   31.6562   31.2503 H   0  0  0  0  0  0  0  0  0  0  0  0
   35.2457   31.8409   32.9418 H   0  0  0  0  0  0  0  0  0  0  0  0
   37.1033   31.1998   35.3526 H   0  0  0  0  0  0  0  0  0  0  0  0
   36.0803   32.6158   37.1422 H   0  0  0  0  0  0  0  0  0  0  0  0
   33.6573   32.4380   37.5141 H   0  0  0  0  0  0  0  0  0  0  0  0
   32.2141   30.9443   36.2150 H   0  0  0  0  0  0  0  0  0  0  0  0
   33.2510   29.5139   34.4077 H   0  0  0  0  0  0  0  0  0  0  0  0
   39.1657   25.5381   31.7327 H   0  0  0  0  0  0  0  0  0  0  0  0
   39.9526   24.4131   32.9444 H   0  0  0  0  0  0  0  0  0  0  0  0
   36.6196   20.9290   32.4720 H   0  0  0  0  0  0  0  0  0  0  0  0
   36.1362   22.1594   30.1136 H   0  0  0  0  0  0  0  0  0  0  0  0
   37.5151   24.4368   30.2135 H   0  0  0  0  0  0  0  0  0  0  0  0
  1 25  1  6
  1  9  1  0
  1  6  1  0
  2  3  2  0
  3  8  1  0
  4  3  1  0
  5  4  2  0
  6  7  2  0
  6  5  1  0
  7  2  1  0
 10  1  1  0
 11 10  1  0
 11 12  1  0
 13 12  2  0
 13 19  1  0
 14 13  1  0
 15 14  1  0
 16 17  1  0
 16 14  2  0
 17 11  1  0
 18 17  2  0
 19 24  1  0
 19 20  2  0
 20 21  1  0
 21 22  2  0
 23 22  1  0
 24 23  2  0
 26 25  1  0
 26 27  1  0
 28 27  2  0
 29 30  2  0
 29 28  1  0
 30 26  1  0
  2 31  1  0
  4 32  1  0
  8 33  1  0
  8 34  1  0
  9 35  1  0
  9 36  1  0
  9 37  1  0
 10 38  1  0
 10 39  1  0
 12 40  1  0
 15 41  1  0
 15 42  1  0
 20 43  1  0
 21 44  1  0
 22 45  1  0
 23 46  1  0
 24 47  1  0
 25 48  1  0
 25 49  1  0
 28 50  1  0
 29 51  1  0
 30 52  1  0
M  ISO  8  31  14  32  14  35   8  36   8  37   8  38   8  39   8  40  14
M  ISO  8  43  14  44  14  45  14  46  14  47  14  48   8  49   8  50  14
M  ISO  2  51  14  52  14
M  END
>  <minimizedAffinity>  (1) 
-6.47250652

>  <minimizedRMSD>  (1) 
0.988044798

$$$$
