
     RDKit          3D

 53 56  0  0  1  0  0  0  0  0999 V2000
   38.5390   25.7050   33.6980 C   0  0  2  0  0  0  0  0  0  0  0  0
   39.7460   23.5210   36.4190 C   0  0  0  0  0  0  0  0  0  0  0  0
   38.7310   23.5540   37.3510 C   0  0  0  0  0  0  0  0  0  0  0  0
   37.6430   24.3280   37.0260 C   0  0  0  0  0  0  0  0  0  0  0  0
   37.6210   25.0010   35.8430 N   0  0  0  0  0  0  0  0  0  0  0  0
   38.6330   24.9430   34.9590 C   0  0  0  0  0  0  0  0  0  0  0  0
   39.7340   24.1790   35.2500 N   0  0  0  0  0  0  0  0  0  0  0  0
   38.8750   22.8250   38.5420 N   0  0  0  0  0  0  0  0  0  0  0  0
   39.3320   26.9850   33.8060 C   0  0  0  0  0  0  0  0  0  0  0  0
   37.1130   25.9870   33.4310 C   0  0  0  0  0  0  0  0  0  0  0  0
   36.7780   27.3080   32.9980 N   0  0  0  0  0  0  0  0  0  0  0  0
   36.2250   28.1090   33.9380 C   0  0  0  0  0  0  0  0  0  0  0  0
   35.8490   29.4090   33.6620 C   0  0  0  0  0  0  0  0  0  0  0  0
   36.0540   29.8820   32.3830 C   0  0  0  0  0  0  0  0  0  0  0  0
   35.6560   31.2260   32.1320 N   0  0  0  0  0  0  0  0  0  0  0  0
   36.6020   29.0820   31.4560 N   0  0  0  0  0  0  0  0  0  0  0  0
   36.9480   27.8330   31.7730 C   0  0  0  0  0  0  0  0  0  0  0  0
   37.4610   27.0650   30.9310 O   0  0  0  0  0  0  0  0  0  0  0  0
   35.2500   30.2350   34.7270 C   0  0  0  0  0  0  0  0  0  0  0  0
   36.0110   31.0830   35.4870 C   0  0  0  0  0  0  0  0  0  0  0  0
   35.4330   31.8490   36.4810 C   0  0  0  0  0  0  0  0  0  0  0  0
   34.0850   31.7150   36.6590 C   0  0  0  0  0  0  0  0  0  0  0  0
   33.2850   30.8820   35.9260 C   0  0  0  0  0  0  0  0  0  0  0  0
   33.8690   30.1110   34.9230 C   0  0  0  0  0  0  0  0  0  0  0  0
   39.1240   24.8810   32.5460 C   0  0  0  0  0  0  0  0  0  0  0  0
   38.2180   23.8070   32.0930 C   0  0  0  0  0  0  0  0  0  0  0  0
   38.8590   22.5840   32.2130 C   0  0  0  0  0  0  0  0  0  0  0  0
   38.2310   21.3870   31.8540 C   0  0  0  0  0  0  0  0  0  0  0  0
   36.9600   21.4640   31.3780 N   0  0  0  0  0  0  0  0  0  0  0  0
   36.3720   22.6920   31.2790 C   0  0  0  0  0  0  0  0  0  0  0  0
   36.9630   23.8490   31.6200 N   0  0  0  0  0  0  0  0  0  0  0  0
   40.6310   22.9102   36.6508 H   0  0  0  0  0  0  0  0  0  0  0  0
   36.7926   24.4035   37.7196 H   0  0  0  0  0  0  0  0  0  0  0  0
   38.1256   22.8394   39.2484 H   0  0  0  0  0  0  0  0  0  0  0  0
   39.7301   22.2758   38.7094 H   0  0  0  0  0  0  0  0  0  0  0  0
   39.4855   27.2328   34.8667 H   0  0  0  0  0  0  0  0  0  0  0  0
   40.3076   26.8544   33.3150 H   0  0  0  0  0  0  0  0  0  0  0  0
   38.7807   27.8004   33.3150 H   0  0  0  0  0  0  0  0  0  0  0  0
   36.7779   25.2880   32.6505 H   0  0  0  0  0  0  0  0  0  0  0  0
   36.6142   25.8728   34.4048 H   0  0  0  0  0  0  0  0  0  0  0  0
   36.0703   27.7129   34.9525 H   0  0  0  0  0  0  0  0  0  0  0  0
   35.7843   31.6347   31.1953 H   0  0  0  0  0  0  0  0  0  0  0  0
   35.2398   31.7894   32.8871 H   0  0  0  0  0  0  0  0  0  0  0  0
   37.0933   31.1549   35.3042 H   0  0  0  0  0  0  0  0  0  0  0  0
   36.0301   32.5347   37.1001 H   0  0  0  0  0  0  0  0  0  0  0  0
   33.6101   32.3188   37.4463 H   0  0  0  0  0  0  0  0  0  0  0  0
   32.2046   30.8221   36.1240 H   0  0  0  0  0  0  0  0  0  0  0  0
   33.2659   29.4284   34.3063 H   0  0  0  0  0  0  0  0  0  0  0  0
   39.3231   25.5535   31.6986 H   0  0  0  0  0  0  0  0  0  0  0  0
   40.0446   24.4044   32.9139 H   0  0  0  0  0  0  0  0  0  0  0  0
   39.8880   22.5540   32.6005 H   0  0  0  0  0  0  0  0  0  0  0  0
   38.7460   20.4200   31.9530 H   0  0  0  0  0  0  0  0  0  0  0  0
   35.3429   22.7371   30.8932 H   0  0  0  0  0  0  0  0  0  0  0  0
  1 25  1  6
  1  9  1  0
  1  6  1  0
  2  3  2  0
  3  8  1  0
  4  3  1  0
  5  4  2  0
  6  7  2  0
  6  5  1  0
  7  2  1  0
 10  1  1  0
 11 10  1  0
 11 12  1  0
 13 12  2  0
 13 19  1  0
 14 13  1  0
 15 14  1  0
 16 17  1  0
 16 14  2  0
 17 11  1  0
 18 17  2  0
 19 24  1  0
 19 20  2  0
 20 21  1  0
 21 22  2  0
 23 22  1  0
 24 23  2  0
 26 27  2  0
 26 25  1  0
 28 27  1  0
 29 28  2  0
 30 29  1  0
 30 31  2  0
 31 26  1  0
  2 32  1  0
  4 33  1  0
  8 34  1  0
  8 35  1  0
  9 36  1  0
  9 37  1  0
  9 38  1  0
 10 39  1  0
 10 40  1  0
 12 41  1  0
 15 42  1  0
 15 43  1  0
 20 44  1  0
 21 45  1  0
 22 46  1  0
 23 47  1  0
 24 48  1  0
 25 49  1  0
 25 50  1  0
 27 51  1  0
 28 52  1  0
 30 53  1  0
M  ISO  8  32  14  33  14  36   8  37   8  38   8  39   8  40   8  41  14
M  ISO  8  44  14  45  14  46  14  47  14  48  14  49   8  50   8  51  14
M  ISO  2  52  14  53  14
M  END
>  <minimizedAffinity>  (1) 
-6.57001543

>  <minimizedRMSD>  (1) 
1.11366498

$$$$
