
     RDKit          3D

 47 51  0  0  1  0  0  0  0  0999 V2000
   37.6680   23.5160   33.3010 C   0  0  0  0  0  0  0  0  0  0  0  0
   36.8240   22.6570   32.6200 C   0  0  0  0  0  0  0  0  0  0  0  0
   36.7290   21.5530   33.4270 N   0  0  0  0  0  0  0  0  0  0  0  0
   37.4900   21.7930   34.5080 C   0  0  0  0  0  0  0  0  0  0  0  0
   38.0840   22.9910   34.4660 N   0  0  0  0  0  0  0  0  0  0  0  0
   38.9530   23.5900   35.4170 C   0  0  1  0  0  0  0  0  0  0  0  0
   38.3600   24.7720   36.0830 C   0  0  0  0  0  0  0  0  0  0  0  0
   37.5860   24.1660   37.2360 C   0  0  0  0  0  0  0  0  0  0  0  0
   38.5220   23.1330   37.7450 C   0  0  0  0  0  0  0  0  0  0  0  0
   39.3100   22.6640   36.5540 C   0  0  2  0  0  0  0  0  0  0  0  0
   40.7980   22.7790   36.8060 C   0  0  0  0  0  0  0  0  0  0  0  0
   41.6060   21.7160   36.0720 C   0  0  0  0  0  0  0  0  0  0  0  0
   41.5450   21.7660   37.5640 C   0  0  0  0  0  0  0  0  0  0  0  0
   38.0750   24.8340   32.8360 C   0  0  0  0  0  0  0  0  0  0  0  0
   39.2850   24.9900   32.1480 C   0  0  0  0  0  0  0  0  0  0  0  0
   39.6210   26.3080   31.7430 C   0  0  0  0  0  0  0  0  0  0  0  0
   38.7760   27.3190   32.0360 N   0  0  0  0  0  0  0  0  0  0  0  0
   37.6320   27.1180   32.6960 C   0  0  0  0  0  0  0  0  0  0  0  0
   37.2550   25.8890   33.1080 N   0  0  0  0  0  0  0  0  0  0  0  0
   36.7610   28.2650   32.9810 C   0  0  0  0  0  0  0  0  0  0  0  0
   36.2250   28.4790   34.2250 C   0  0  0  0  0  0  0  0  0  0  0  0
   35.4160   29.5790   34.4100 C   0  0  0  0  0  0  0  0  0  0  0  0
   35.1450   30.4530   33.3780 C   0  0  0  0  0  0  0  0  0  0  0  0
   35.6790   30.2580   32.0990 C   0  0  0  0  0  0  0  0  0  0  0  0
   36.4930   29.1420   31.9320 C   0  0  0  0  0  0  0  0  0  0  0  0
   36.3375   22.8230   31.6475 H   0  0  0  0  0  0  0  0  0  0  0  0
   37.6115   21.0813   35.3379 H   0  0  0  0  0  0  0  0  0  0  0  0
   39.8318   23.8584   34.8122 H   0  0  0  0  0  0  0  0  0  0  0  0
   39.1426   25.4534   36.4479 H   0  0  0  0  0  0  0  0  0  0  0  0
   37.7323   25.3764   35.4117 H   0  0  0  0  0  0  0  0  0  0  0  0
   37.3677   24.9191   38.0074 H   0  0  0  0  0  0  0  0  0  0  0  0
   36.6060   23.7623   36.9416 H   0  0  0  0  0  0  0  0  0  0  0  0
   39.1936   23.5653   38.5013 H   0  0  0  0  0  0  0  0  0  0  0  0
   37.9830   22.3021   38.2237 H   0  0  0  0  0  0  0  0  0  0  0  0
   39.0763   21.6110   36.3380 H   0  0  0  0  0  0  0  0  0  0  0  0
   40.7564   23.8737   36.9050 H   0  0  0  0  0  0  0  0  0  0  0  0
   41.0949   20.9117   35.5225 H   0  0  0  0  0  0  0  0  0  0  0  0
   42.4047   21.7160   35.3157 H   0  0  0  0  0  0  0  0  0  0  0  0
   42.4368   22.0616   38.1360 H   0  0  0  0  0  0  0  0  0  0  0  0
   41.2755   21.0398   38.3450 H   0  0  0  0  0  0  0  0  0  0  0  0
   39.9416   24.1342   31.9325 H   0  0  0  0  0  0  0  0  0  0  0  0
   40.5565   26.5029   31.1982 H   0  0  0  0  0  0  0  0  0  0  0  0
   36.4358   27.7890   35.0553 H   0  0  0  0  0  0  0  0  0  0  0  0
   34.9771   29.7640   35.4015 H   0  0  0  0  0  0  0  0  0  0  0  0
   34.4958   31.3213   33.5640 H   0  0  0  0  0  0  0  0  0  0  0  0
   35.4666   30.9497   31.2705 H   0  0  0  0  0  0  0  0  0  0  0  0
   36.9371   28.9467   30.9448 H   0  0  0  0  0  0  0  0  0  0  0  0
  1  5  1  0
  2  1  2  0
  2  3  1  0
  3  4  2  0
  5  4  1  0
  5  6  1  0
  6  7  1  0
  6 10  1  0
  7  8  1  0
  8  9  1  0
 10 11  1  0
 10  9  1  0
 11 13  1  0
 12 11  1  0
 12 13  1  0
 14 19  1  0
 14  1  1  0
 15 14  2  0
 16 17  2  0
 16 15  1  0
 17 18  1  0
 18 20  1  0
 18 19  2  0
 20 21  2  0
 21 22  1  0
 23 22  2  0
 24 23  1  0
 25 24  2  0
 25 20  1  0
  2 26  1  0
  4 27  1  0
  6 28  1  6
  7 29  1  0
  7 30  1  0
  8 31  1  0
  8 32  1  0
  9 33  1  0
  9 34  1  0
 10 35  1  6
 11 36  1  0
 12 37  1  0
 12 38  1  0
 13 39  1  0
 13 40  1  0
 15 41  1  0
 16 42  1  0
 21 43  1  0
 22 44  1  0
 23 45  1  0
 24 46  1  0
 25 47  1  0
M  ISO  8  26  14  27  14  28  13  29  13  30  13  31  13  32  13  33  13
M  ISO  8  34  13  35  13  36  13  37  13  38  13  39  13  40  13  41  14
M  ISO  6  42  14  43  14  44  14  45  14  46  14  47  14
M  END
>  <minimizedAffinity>  (1) 
-5.84664583

>  <minimizedRMSD>  (1) 
0.346535653

$$$$
