
     RDKit          3D

 52 55  0  0  1  0  0  0  0  0999 V2000
   37.3010   25.9650   34.1370 C   0  0  0  0  0  0  0  0  0  0  0  0
   36.9220   27.2250   33.5570 N   0  0  0  0  0  0  0  0  0  0  0  0
   36.3150   28.0960   34.3840 C   0  0  0  0  0  0  0  0  0  0  0  0
   35.8920   29.3440   33.9680 C   0  0  0  0  0  0  0  0  0  0  0  0
   36.1130   29.6890   32.6490 C   0  0  0  0  0  0  0  0  0  0  0  0
   35.6680   30.9750   32.2480 N   0  0  0  0  0  0  0  0  0  0  0  0
   36.7190   28.8160   31.8260 N   0  0  0  0  0  0  0  0  0  0  0  0
   37.1060   27.6220   32.2890 C   0  0  0  0  0  0  0  0  0  0  0  0
   37.6680   26.8070   31.5320 O   0  0  0  0  0  0  0  0  0  0  0  0
   35.2340   30.2510   34.9180 C   0  0  0  0  0  0  0  0  0  0  0  0
   35.9560   31.1520   35.6580 C   0  0  0  0  0  0  0  0  0  0  0  0
   35.3380   32.0070   36.5500 C   0  0  0  0  0  0  0  0  0  0  0  0
   33.9870   31.9070   36.6530 C   0  0  0  0  0  0  0  0  0  0  0  0
   33.2190   31.0280   35.9380 C   0  0  0  0  0  0  0  0  0  0  0  0
   33.8620   30.1740   35.0440 C   0  0  0  0  0  0  0  0  0  0  0  0
   38.6700   25.9240   34.7630 C   0  0  2  0  0  0  0  0  0  0  0  0
   38.8490   22.9760   36.9900 C   0  0  0  0  0  0  0  0  0  0  0  0
   38.3500   23.4330   38.1870 C   0  0  0  0  0  0  0  0  0  0  0  0
   37.9550   24.7510   38.2140 C   0  0  0  0  0  0  0  0  0  0  0  0
   38.0670   25.5210   37.1060 N   0  0  0  0  0  0  0  0  0  0  0  0
   38.5640   25.0370   35.9420 C   0  0  0  0  0  0  0  0  0  0  0  0
   38.9560   23.7350   35.9060 N   0  0  0  0  0  0  0  0  0  0  0  0
   38.2810   22.5370   39.2780 N   0  0  0  0  0  0  0  0  0  0  0  0
   39.1400   27.2800   35.1610 C   0  0  0  0  0  0  0  0  0  0  0  0
   39.6500   25.3350   33.7480 C   0  0  0  0  0  0  0  0  0  0  0  0
   40.9080   26.0290   33.7040 C   0  0  0  0  0  0  0  0  0  0  0  0
   41.6360   27.1720   33.3040 C   0  0  0  0  0  0  0  0  0  0  0  0
   42.9510   27.3190   33.5960 C   0  0  0  0  0  0  0  0  0  0  0  0
   43.5450   26.1790   34.3670 C   0  0  0  0  0  0  0  0  0  0  0  0
   42.1040   25.0470   34.5620 S   0  0  0  0  0  0  0  0  0  0  0  0
   37.2683   25.2035   33.3438 H   0  0  0  0  0  0  0  0  0  0  0  0
   36.5894   25.7838   34.9560 H   0  0  0  0  0  0  0  0  0  0  0  0
   36.1492   27.8033   35.4313 H   0  0  0  0  0  0  0  0  0  0  0  0
   35.8054   31.2877   31.2763 H   0  0  0  0  0  0  0  0  0  0  0  0
   35.2075   31.5960   32.9286 H   0  0  0  0  0  0  0  0  0  0  0  0
   37.0487   31.1948   35.5390 H   0  0  0  0  0  0  0  0  0  0  0  0
   35.9108   32.7321   37.1467 H   0  0  0  0  0  0  0  0  0  0  0  0
   33.4756   32.5780   37.3589 H   0  0  0  0  0  0  0  0  0  0  0  0
   32.1268   30.9967   36.0653 H   0  0  0  0  0  0  0  0  0  0  0  0
   33.2855   29.4506   34.4487 H   0  0  0  0  0  0  0  0  0  0  0  0
   39.1764   21.9277   36.9273 H   0  0  0  0  0  0  0  0  0  0  0  0
   37.5463   25.1810   39.1403 H   0  0  0  0  0  0  0  0  0  0  0  0
   37.9109   22.8568   40.1844 H   0  0  0  0  0  0  0  0  0  0  0  0
   38.6009   21.5643   39.1666 H   0  0  0  0  0  0  0  0  0  0  0  0
   39.1649   27.3520   36.2584 H   0  0  0  0  0  0  0  0  0  0  0  0
   40.1497   27.4506   34.7593 H   0  0  0  0  0  0  0  0  0  0  0  0
   38.4525   28.0389   34.7593 H   0  0  0  0  0  0  0  0  0  0  0  0
   39.8397   24.2848   34.0146 H   0  0  0  0  0  0  0  0  0  0  0  0
   39.1885   25.4334   32.7543 H   0  0  0  0  0  0  0  0  0  0  0  0
   41.1213   27.9640   32.7403 H   0  0  0  0  0  0  0  0  0  0  0  0
   43.5339   28.2012   33.2926 H   0  0  0  0  0  0  0  0  0  0  0  0
   44.5772   26.0509   34.7249 H   0  0  0  0  0  0  0  0  0  0  0  0
 16  1  1  6
  2  1  1  0
  2  3  1  0
  4  3  2  0
  4 10  1  0
  5  4  1  0
  6  5  1  0
  7  8  1  0
  7  5  2  0
  8  2  1  0
  9  8  2  0
 10 15  1  0
 10 11  2  0
 11 12  1  0
 12 13  2  0
 14 13  1  0
 15 14  2  0
 16 25  1  0
 16 24  1  0
 16 21  1  0
 17 18  2  0
 18 19  1  0
 18 23  1  0
 20 19  2  0
 21 20  1  0
 22 21  2  0
 22 17  1  0
 26 25  1  0
 26 30  1  0
 27 28  1  0
 27 26  2  0
 28 29  2  0
 29 30  1  0
  1 31  1  0
  1 32  1  0
  3 33  1  0
  6 34  1  0
  6 35  1  0
 11 36  1  0
 12 37  1  0
 13 38  1  0
 14 39  1  0
 15 40  1  0
 17 41  1  0
 19 42  1  0
 23 43  1  0
 23 44  1  0
 24 45  1  0
 24 46  1  0
 24 47  1  0
 25 48  1  0
 25 49  1  0
 27 50  1  0
 28 51  1  0
 29 52  1  0
M  ISO  8  31   8  32   8  33  14  36  14  37  14  38  14  39  14  40  14
M  ISO  8  41  14  42  14  45   8  46   8  47   8  48   8  49   8  50  14
M  ISO  2  51  14  52  14
M  END
>  <minimizedAffinity>  (1) 
-6.6143198

>  <minimizedRMSD>  (1) 
0.92883867

$$$$
