
     RDKit          3D

 29 32  0  0  0  0  0  0  0  0999 V2000
   38.6950   24.7130   36.2520 C   0  0  0  0  0  0  0  0  0  0  0  0
   39.8200   23.9650   35.8880 C   0  0  0  0  0  0  0  0  0  0  0  0
   40.2590   22.9540   36.7270 C   0  0  0  0  0  0  0  0  0  0  0  0
   39.5650   22.7310   37.8860 N   0  0  0  0  0  0  0  0  0  0  0  0
   38.4850   23.4620   38.2190 C   0  0  0  0  0  0  0  0  0  0  0  0
   38.0620   24.4420   37.4010 N   0  0  0  0  0  0  0  0  0  0  0  0
   38.1370   25.7770   35.4870 N   0  0  0  0  0  0  0  0  0  0  0  0
   38.0520   27.0520   35.9060 C   0  0  0  0  0  0  0  0  0  0  0  0
   37.4640   27.7680   34.9070 N   0  0  0  0  0  0  0  0  0  0  0  0
   37.1970   26.9390   33.8960 C   0  0  0  0  0  0  0  0  0  0  0  0
   36.6280   27.0380   32.6420 C   0  0  0  0  0  0  0  0  0  0  0  0
   36.4710   26.0060   31.7880 N   0  0  0  0  0  0  0  0  0  0  0  0
   36.9010   24.7710   32.1750 C   0  0  0  0  0  0  0  0  0  0  0  0
   37.4600   24.6360   33.3890 N   0  0  0  0  0  0  0  0  0  0  0  0
   37.6110   25.6720   34.2320 C   0  0  0  0  0  0  0  0  0  0  0  0
   40.4370   24.3070   34.6620 N   0  0  0  0  0  0  0  0  0  0  0  0
   41.1410   25.4120   34.2590 C   0  0  0  0  0  0  0  0  0  0  0  0
   41.5240   25.2470   32.9700 N   0  0  0  0  0  0  0  0  0  0  0  0
   41.0500   24.0230   32.5690 C   0  0  0  0  0  0  0  0  0  0  0  0
   40.3890   23.4680   33.6250 N   0  0  0  0  0  0  0  0  0  0  0  0
   36.1680   28.3130   32.2030 N   0  0  0  0  0  0  0  0  0  0  0  0
   41.1399   22.3477   36.4695 H   0  0  0  0  0  0  0  0  0  0  0  0
   37.9496   23.2583   39.1581 H   0  0  0  0  0  0  0  0  0  0  0  0
   38.3937   27.4441   36.8753 H   0  0  0  0  0  0  0  0  0  0  0  0
   36.7924   23.9037   31.5071 H   0  0  0  0  0  0  0  0  0  0  0  0
   41.3599   26.2916   34.8822 H   0  0  0  0  0  0  0  0  0  0  0  0
   41.1799   23.5709   31.5746 H   0  0  0  0  0  0  0  0  0  0  0  0
   35.7398   28.4133   31.2716 H   0  0  0  0  0  0  0  0  0  0  0  0
   36.2637   29.1344   32.8170 H   0  0  0  0  0  0  0  0  0  0  0  0
  1  6  2  0
  2  1  1  0
  2  3  2  0
  3  4  1  0
  4  5  2  0
  6  5  1  0
  7  8  1  0
  7  1  1  0
  9  8  2  0
 10 15  2  0
 10  9  1  0
 11 10  1  0
 12 13  1  0
 12 11  2  0
 13 14  2  0
 14 15  1  0
 15  7  1  0
 16  2  1  0
 17 16  1  0
 18 17  2  0
 19 18  1  0
 19 20  2  0
 20 16  1  0
 21 11  1  0
  3 22  1  0
  5 23  1  0
  8 24  1  0
 13 25  1  0
 17 26  1  0
 19 27  1  0
 21 28  1  0
 21 29  1  0
M  ISO  6  22  14  23  14  24  14  25  14  26  14  27  14
M  END
>  <minimizedAffinity>  (1) 
-4.96632576

>  <minimizedRMSD>  (1) 
5.48929977

$$$$
