
     RDKit          3D

 29 31  0  0  0  0  0  0  0  0999 V2000
   40.1480   23.9430   35.2920 C   0  0  0  0  0  0  0  0  0  0  0  0
   40.1910   25.1300   34.5520 C   0  0  0  0  0  0  0  0  0  0  0  0
   41.4040   25.8110   34.4570 C   0  0  0  0  0  0  0  0  0  0  0  0
   42.4940   25.2970   35.0870 N   0  0  0  0  0  0  0  0  0  0  0  0
   42.4260   24.1590   35.7890 C   0  0  0  0  0  0  0  0  0  0  0  0
   41.2620   23.4870   35.8920 N   0  0  0  0  0  0  0  0  0  0  0  0
   38.9870   23.1340   35.4820 N   0  0  0  0  0  0  0  0  0  0  0  0
   38.4060   22.6120   34.3820 C   0  0  0  0  0  0  0  0  0  0  0  0
   37.2760   21.8170   34.4910 C   0  0  0  0  0  0  0  0  0  0  0  0
   36.5640   21.1940   33.3320 C   0  0  0  0  0  0  0  0  0  0  0  0
   36.7470   21.5620   35.7570 C   0  0  0  0  0  0  0  0  0  0  0  0
   35.7210   20.8400   35.8710 O   0  0  0  0  0  0  0  0  0  0  0  0
   37.3870   22.1210   36.8050 N   0  0  0  0  0  0  0  0  0  0  0  0
   38.4780   22.8900   36.7070 C   0  0  0  0  0  0  0  0  0  0  0  0
   39.0200   23.3760   37.7340 O   0  0  0  0  0  0  0  0  0  0  0  0
   38.9780   25.5460   33.9500 N   0  0  0  0  0  0  0  0  0  0  0  0
   37.8600   26.1430   34.4770 C   0  0  0  0  0  0  0  0  0  0  0  0
   36.9610   26.3420   33.4880 N   0  0  0  0  0  0  0  0  0  0  0  0
   37.5310   25.8640   32.3480 C   0  0  0  0  0  0  0  0  0  0  0  0
   38.7710   25.3800   32.6610 N   0  0  0  0  0  0  0  0  0  0  0  0
   41.4779   26.7465   33.8832 H   0  0  0  0  0  0  0  0  0  0  0  0
   43.3269   23.7694   36.2855 H   0  0  0  0  0  0  0  0  0  0  0  0
   38.8330   22.8192   33.3897 H   0  0  0  0  0  0  0  0  0  0  0  0
   35.7849   20.5123   33.7038 H   0  0  0  0  0  0  0  0  0  0  0  0
   36.1004   21.9818   32.7200 H   0  0  0  0  0  0  0  0  0  0  0  0
   37.2832   20.6299   32.7200 H   0  0  0  0  0  0  0  0  0  0  0  0
   37.0094   21.9434   37.7467 H   0  0  0  0  0  0  0  0  0  0  0  0
   37.7188   26.4153   35.5334 H   0  0  0  0  0  0  0  0  0  0  0  0
   37.0732   25.8666   31.3478 H   0  0  0  0  0  0  0  0  0  0  0  0
  1  7  1  0
  1  6  2  0
  2  1  1  0
  3  2  2  0
  3  4  1  0
  4  5  2  0
  5  6  1  0
  7 14  1  0
  8  9  2  0
  8  7  1  0
  9 11  1  0
 10  9  1  0
 11 12  2  0
 11 13  1  0
 14 13  1  0
 14 15  2  0
 16 17  1  0
 16  2  1  0
 18 17  2  0
 19 20  2  0
 19 18  1  0
 20 16  1  0
  3 21  1  0
  5 22  1  0
  8 23  1  0
 10 24  1  0
 10 25  1  0
 10 26  1  0
 13 27  1  0
 17 28  1  0
 19 29  1  0
M  ISO  8  21  14  22  14  23  14  24   8  25   8  26   8  27   9  28  14
M  ISO  1  29  14
M  END
>  <minimizedAffinity>  (1) 
-4.83252954

>  <minimizedRMSD>  (1) 
4.46950674

$$$$
