
     RDKit          3D

 47 49  0  0  1  0  0  0  0  0999 V2000
   37.5140   25.8460   33.7450 C   0  0  0  0  0  0  0  0  0  0  0  0
   37.0970   27.0930   33.2020 N   0  0  0  0  0  0  0  0  0  0  0  0
   36.4560   27.9230   34.0680 C   0  0  0  0  0  0  0  0  0  0  0  0
   35.9950   29.1680   33.6790 C   0  0  0  0  0  0  0  0  0  0  0  0
   36.2000   29.5600   32.3770 C   0  0  0  0  0  0  0  0  0  0  0  0
   35.7180   30.8360   32.0180 N   0  0  0  0  0  0  0  0  0  0  0  0
   36.8340   28.7330   31.5290 N   0  0  0  0  0  0  0  0  0  0  0  0
   37.2620   27.5380   31.9500 C   0  0  0  0  0  0  0  0  0  0  0  0
   37.8550   26.7470   31.1790 O   0  0  0  0  0  0  0  0  0  0  0  0
   35.3060   30.0240   34.6650 C   0  0  0  0  0  0  0  0  0  0  0  0
   35.9970   30.9140   35.4410 C   0  0  0  0  0  0  0  0  0  0  0  0
   35.3380   31.7090   36.3600 C   0  0  0  0  0  0  0  0  0  0  0  0
   33.9790   31.5550   36.4460 C   0  0  0  0  0  0  0  0  0  0  0  0
   33.2400   30.6780   35.6930 C   0  0  0  0  0  0  0  0  0  0  0  0
   33.9170   29.8850   34.7740 C   0  0  0  0  0  0  0  0  0  0  0  0
   38.8690   25.7770   34.3350 C   0  0  2  0  0  0  0  0  0  0  0  0
   39.4780   23.1200   36.8180 C   0  0  0  0  0  0  0  0  0  0  0  0
   38.6390   23.4320   37.8580 C   0  0  0  0  0  0  0  0  0  0  0  0
   37.8710   24.5570   37.6890 C   0  0  0  0  0  0  0  0  0  0  0  0
   37.9700   25.2840   36.5500 N   0  0  0  0  0  0  0  0  0  0  0  0
   38.8140   24.9420   35.5410 C   0  0  0  0  0  0  0  0  0  0  0  0
   39.5870   23.8270   35.6900 N   0  0  0  0  0  0  0  0  0  0  0  0
   38.6300   22.5940   38.9900 N   0  0  0  0  0  0  0  0  0  0  0  0
   39.3780   27.1580   34.6720 C   0  0  0  0  0  0  0  0  0  0  0  0
   39.8330   25.1490   33.3160 C   0  0  0  0  0  0  0  0  0  0  0  0
   39.0830   24.2060   32.4840 N   0  0  0  0  0  0  0  0  0  0  0  0
   37.4688   25.1025   32.9356 H   0  0  0  0  0  0  0  0  0  0  0  0
   36.8314   25.6652   34.5885 H   0  0  0  0  0  0  0  0  0  0  0  0
   36.2998   27.5953   35.1064 H   0  0  0  0  0  0  0  0  0  0  0  0
   35.8435   31.1820   31.0560 H   0  0  0  0  0  0  0  0  0  0  0  0
   35.2405   31.4218   32.7178 H   0  0  0  0  0  0  0  0  0  0  0  0
   37.0884   30.9978   35.3325 H   0  0  0  0  0  0  0  0  0  0  0  0
   35.8780   32.4299   36.9914 H   0  0  0  0  0  0  0  0  0  0  0  0
   33.4407   32.1811   37.1728 H   0  0  0  0  0  0  0  0  0  0  0  0
   32.1490   30.6050   35.8125 H   0  0  0  0  0  0  0  0  0  0  0  0
   33.3734   29.1639   34.1459 H   0  0  0  0  0  0  0  0  0  0  0  0
   40.1062   22.2229   36.9206 H   0  0  0  0  0  0  0  0  0  0  0  0
   37.1735   24.8691   38.4802 H   0  0  0  0  0  0  0  0  0  0  0  0
   38.0090   22.8071   39.7836 H   0  0  0  0  0  0  0  0  0  0  0  0
   39.2445   21.7681   39.0242 H   0  0  0  0  0  0  0  0  0  0  0  0
   39.4216   27.2762   35.7648 H   0  0  0  0  0  0  0  0  0  0  0  0
   40.3844   27.2914   34.2484 H   0  0  0  0  0  0  0  0  0  0  0  0
   38.6989   27.9126   34.2484 H   0  0  0  0  0  0  0  0  0  0  0  0
   40.2683   25.9366   32.6833 H   0  0  0  0  0  0  0  0  0  0  0  0
   40.6451   24.6242   33.8405 H   0  0  0  0  0  0  0  0  0  0  0  0
   38.5637   23.5530   33.0880 H   0  0  0  0  0  0  0  0  0  0  0  0
   38.4207   24.7243   31.8894 H   0  0  0  0  0  0  0  0  0  0  0  0
 16  1  1  6
  2  1  1  0
  2  3  1  0
  4  3  2  0
  4 10  1  0
  5  4  1  0
  6  5  1  0
  7  8  1  0
  7  5  2  0
  8  2  1  0
  9  8  2  0
 10 15  1  0
 10 11  2  0
 11 12  1  0
 12 13  2  0
 14 13  1  0
 15 14  2  0
 16 25  1  0
 16 24  1  0
 16 21  1  0
 17 18  2  0
 18 23  1  0
 19 18  1  0
 20 19  2  0
 21 22  2  0
 21 20  1  0
 22 17  1  0
 26 25  1  0
  1 27  1  0
  1 28  1  0
  3 29  1  0
  6 30  1  0
  6 31  1  0
 11 32  1  0
 12 33  1  0
 13 34  1  0
 14 35  1  0
 15 36  1  0
 17 37  1  0
 19 38  1  0
 23 39  1  0
 23 40  1  0
 24 41  1  0
 24 42  1  0
 24 43  1  0
 25 44  1  0
 25 45  1  0
 26 46  1  0
 26 47  1  0
M  ISO  8  27   8  28   8  29  14  32  14  33  14  34  14  35  14  36  14
M  ISO  8  37  14  38  14  41   8  42   8  43   8  44   8  45   8  46   5
M  ISO  1  47   5
M  END
>  <minimizedAffinity>  (1) 
-6.27647448

>  <minimizedRMSD>  (1) 
0.145273328

$$$$
