
     RDKit          3D

 27 29  0  0  0  0  0  0  0  0999 V2000
   40.3520   24.4700   35.4430 C   0  0  0  0  0  0  0  0  0  0  0  0
   40.3220   25.7530   34.8900 C   0  0  0  0  0  0  0  0  0  0  0  0
   41.5170   26.3590   34.5450 C   0  0  0  0  0  0  0  0  0  0  0  0
   42.6710   25.6710   34.7630 N   0  0  0  0  0  0  0  0  0  0  0  0
   42.6890   24.4430   35.2930 C   0  0  0  0  0  0  0  0  0  0  0  0
   41.5250   23.8410   35.6340 N   0  0  0  0  0  0  0  0  0  0  0  0
   39.2370   23.7140   35.8480 N   0  0  0  0  0  0  0  0  0  0  0  0
   38.6860   23.7700   37.0810 C   0  0  0  0  0  0  0  0  0  0  0  0
   37.6010   23.0200   37.4380 C   0  0  0  0  0  0  0  0  0  0  0  0
   37.0640   22.1730   36.4690 C   0  0  0  0  0  0  0  0  0  0  0  0
   35.9360   21.4060   36.8670 N   0  0  0  0  0  0  0  0  0  0  0  0
   37.5990   22.1080   35.2460 N   0  0  0  0  0  0  0  0  0  0  0  0
   38.6700   22.8690   34.9420 C   0  0  0  0  0  0  0  0  0  0  0  0
   39.1320   22.7590   33.7580 O   0  0  0  0  0  0  0  0  0  0  0  0
   39.0360   26.3360   34.7260 N   0  0  0  0  0  0  0  0  0  0  0  0
   38.2740   27.1260   35.5490 C   0  0  0  0  0  0  0  0  0  0  0  0
   37.1140   27.4300   34.9410 N   0  0  0  0  0  0  0  0  0  0  0  0
   37.1580   26.8130   33.7140 C   0  0  0  0  0  0  0  0  0  0  0  0
   38.3470   26.1460   33.6020 N   0  0  0  0  0  0  0  0  0  0  0  0
   41.5340   27.3679   34.1071 H   0  0  0  0  0  0  0  0  0  0  0  0
   43.6459   23.9241   35.4513 H   0  0  0  0  0  0  0  0  0  0  0  0
   39.1288   24.4464   37.8269 H   0  0  0  0  0  0  0  0  0  0  0  0
   37.1691   23.0818   38.4478 H   0  0  0  0  0  0  0  0  0  0  0  0
   35.4908   20.7602   36.1994 H   0  0  0  0  0  0  0  0  0  0  0  0
   35.5636   21.4958   37.8231 H   0  0  0  0  0  0  0  0  0  0  0  0
   38.5678   27.4604   36.5549 H   0  0  0  0  0  0  0  0  0  0  0  0
   36.3684   26.8494   32.9490 H   0  0  0  0  0  0  0  0  0  0  0  0
  1  6  1  0
  1  7  1  0
  2  1  2  0
  3  4  2  0
  3  2  1  0
  4  5  1  0
  5  6  2  0
  7  8  1  0
  8  9  2  0
 10 11  1  0
 10  9  1  0
 12 10  2  0
 13 12  1  0
 13  7  1  0
 14 13  2  0
 15  2  1  0
 15 16  1  0
 17 16  2  0
 18 17  1  0
 19 18  2  0
 19 15  1  0
  3 20  1  0
  5 21  1  0
  8 22  1  0
  9 23  1  0
 11 24  1  0
 11 25  1  0
 16 26  1  0
 18 27  1  0
M  ISO  6  20  14  21  14  22  14  23  14  26  14  27  14
M  END
>  <minimizedAffinity>  (1) 
-4.6386261

>  <minimizedRMSD>  (1) 
4.93671274

$$$$
