
     RDKit          3D

 26 28  0  0  0  0  0  0  0  0999 V2000
   39.9500   23.7440   35.6960 C   0  0  0  0  0  0  0  0  0  0  0  0
   40.0540   25.0320   35.1760 C   0  0  0  0  0  0  0  0  0  0  0  0
   41.3100   25.5790   34.9670 C   0  0  0  0  0  0  0  0  0  0  0  0
   42.3980   24.8220   35.2840 N   0  0  0  0  0  0  0  0  0  0  0  0
   42.2710   23.5730   35.7870 C   0  0  0  0  0  0  0  0  0  0  0  0
   41.0430   23.0400   35.9900 N   0  0  0  0  0  0  0  0  0  0  0  0
   38.7390   23.0470   35.9650 N   0  0  0  0  0  0  0  0  0  0  0  0
   38.2740   22.2730   34.9680 C   0  0  0  0  0  0  0  0  0  0  0  0
   37.1060   21.5660   35.1550 C   0  0  0  0  0  0  0  0  0  0  0  0
   36.4550   21.6780   36.3590 C   0  0  0  0  0  0  0  0  0  0  0  0
   35.3860   21.1080   36.7000 O   0  0  0  0  0  0  0  0  0  0  0  0
   36.9760   22.4710   37.3140 N   0  0  0  0  0  0  0  0  0  0  0  0
   38.1150   23.1780   37.1730 C   0  0  0  0  0  0  0  0  0  0  0  0
   38.5860   23.9130   38.0760 O   0  0  0  0  0  0  0  0  0  0  0  0
   38.8330   25.6980   34.8940 N   0  0  0  0  0  0  0  0  0  0  0  0
   38.0020   26.4890   35.6470 C   0  0  0  0  0  0  0  0  0  0  0  0
   36.9550   26.8810   34.9020 N   0  0  0  0  0  0  0  0  0  0  0  0
   37.1210   26.3360   33.6670 C   0  0  0  0  0  0  0  0  0  0  0  0
   38.2750   25.6240   33.7060 N   0  0  0  0  0  0  0  0  0  0  0  0
   41.4253   26.5935   34.5576 H   0  0  0  0  0  0  0  0  0  0  0  0
   43.1694   22.9875   36.0323 H   0  0  0  0  0  0  0  0  0  0  0  0
   38.8194   22.2052   34.0151 H   0  0  0  0  0  0  0  0  0  0  0  0
   36.7035   20.9253   34.3565 H   0  0  0  0  0  0  0  0  0  0  0  0
   36.4722   22.5420   38.2095 H   0  0  0  0  0  0  0  0  0  0  0  0
   38.1679   26.7606   36.6999 H   0  0  0  0  0  0  0  0  0  0  0  0
   36.4493   26.4504   32.8034 H   0  0  0  0  0  0  0  0  0  0  0  0
  1  7  1  0
  1  6  2  0
  2  1  1  0
  3  2  2  0
  3  4  1  0
  4  5  2  0
  5  6  1  0
  7 13  1  0
  8  9  2  0
  8  7  1  0
  9 10  1  0
 10 11  2  0
 10 12  1  0
 13 12  1  0
 13 14  2  0
 15  2  1  0
 15 16  1  0
 17 16  2  0
 18 19  2  0
 18 17  1  0
 19 15  1  0
  3 20  1  0
  5 21  1  0
  8 22  1  0
  9 23  1  0
 12 24  1  0
 16 25  1  0
 18 26  1  0
M  ISO  7  20  14  21  14  22  14  23  14  24   9  25  14  26  14
M  END
>  <minimizedAffinity>  (1) 
-4.83848381

>  <minimizedRMSD>  (1) 
4.2615242

$$$$
