
     RDKit          3D

 24 26  0  0  0  0  0  0  0  0999 V2000
   40.2080   24.8720   35.1340 C   0  0  0  0  0  0  0  0  0  0  0  0
   40.1100   26.1540   34.6300 C   0  0  0  0  0  0  0  0  0  0  0  0
   41.2650   26.8710   34.2510 C   0  0  0  0  0  0  0  0  0  0  0  0
   42.4640   26.2480   34.4020 N   0  0  0  0  0  0  0  0  0  0  0  0
   42.5530   25.0110   34.8870 C   0  0  0  0  0  0  0  0  0  0  0  0
   41.4550   24.3630   35.2350 N   0  0  0  0  0  0  0  0  0  0  0  0
   38.7970   26.6970   34.4970 N   0  0  0  0  0  0  0  0  0  0  0  0
   38.0150   27.4440   35.3490 C   0  0  0  0  0  0  0  0  0  0  0  0
   36.8350   27.6990   34.7130 N   0  0  0  0  0  0  0  0  0  0  0  0
   36.8940   27.1170   33.4910 C   0  0  0  0  0  0  0  0  0  0  0  0
   38.1000   26.5200   33.3990 N   0  0  0  0  0  0  0  0  0  0  0  0
   39.1540   23.9930   35.6090 C   0  0  0  0  0  0  0  0  0  0  0  0
   38.6360   24.1280   36.8630 C   0  0  0  0  0  0  0  0  0  0  0  0
   37.6480   23.3810   37.4550 C   0  0  0  0  0  0  0  0  0  0  0  0
   37.1280   22.3850   36.6830 N   0  0  0  0  0  0  0  0  0  0  0  0
   37.5940   22.1980   35.4400 C   0  0  0  0  0  0  0  0  0  0  0  0
   38.5460   22.9860   34.9940 N   0  0  0  0  0  0  0  0  0  0  0  0
   41.1979   27.8929   33.8495 H   0  0  0  0  0  0  0  0  0  0  0  0
   43.5363   24.5305   34.9975 H   0  0  0  0  0  0  0  0  0  0  0  0
   38.2917   27.7757   36.3606 H   0  0  0  0  0  0  0  0  0  0  0  0
   36.1085   27.1290   32.7210 H   0  0  0  0  0  0  0  0  0  0  0  0
   39.0626   24.9354   37.4763 H   0  0  0  0  0  0  0  0  0  0  0  0
   37.3002   23.5728   38.4808 H   0  0  0  0  0  0  0  0  0  0  0  0
   37.1862   21.3983   34.8042 H   0  0  0  0  0  0  0  0  0  0  0  0
  1  6  1  0
  1 12  1  0
  2  1  2  0
  3  4  2  0
  3  2  1  0
  4  5  1  0
  5  6  2  0
  7  2  1  0
  7  8  1  0
  9  8  2  0
 10  9  1  0
 11 10  2  0
 11  7  1  0
 12 13  2  0
 13 14  1  0
 15 14  2  0
 16 15  1  0
 17 16  2  0
 17 12  1  0
  3 18  1  0
  5 19  1  0
  8 20  1  0
 10 21  1  0
 13 22  1  0
 14 23  1  0
 16 24  1  0
M  ISO  7  18  14  19  14  20  14  21  14  22  14  23  14  24  14
M  END
>  <minimizedAffinity>  (1) 
-4.00139713

>  <minimizedRMSD>  (1) 
5.08166075

$$$$
