
     RDKit          3D

 22 24  0  0  0  0  0  0  0  0999 V2000
   40.4580   24.8790   35.1260 C   0  0  0  0  0  0  0  0  0  0  0  0
   40.3430   26.1760   34.6570 C   0  0  0  0  0  0  0  0  0  0  0  0
   41.4780   26.9040   34.2380 C   0  0  0  0  0  0  0  0  0  0  0  0
   42.6860   26.2860   34.3080 N   0  0  0  0  0  0  0  0  0  0  0  0
   42.7940   25.0370   34.7580 C   0  0  0  0  0  0  0  0  0  0  0  0
   41.7100   24.3890   35.1420 N   0  0  0  0  0  0  0  0  0  0  0  0
   39.0280   26.7250   34.6080 N   0  0  0  0  0  0  0  0  0  0  0  0
   38.2910   27.4260   35.5340 C   0  0  0  0  0  0  0  0  0  0  0  0
   37.0800   27.7130   34.9890 N   0  0  0  0  0  0  0  0  0  0  0  0
   37.0880   27.1790   33.7210 C   0  0  0  0  0  0  0  0  0  0  0  0
   38.2760   26.5980   33.5400 N   0  0  0  0  0  0  0  0  0  0  0  0
   39.3800   24.0050   35.6400 C   0  0  0  0  0  0  0  0  0  0  0  0
   38.8800   22.9510   34.7810 C   0  0  0  0  0  0  0  0  0  0  0  0
   37.6320   22.1570   35.7400 S   0  0  0  0  0  0  0  0  0  0  0  0
   37.8900   23.3130   37.2170 C   0  0  0  0  0  0  0  0  0  0  0  0
   38.7270   23.9490   36.7520 N   0  0  0  0  0  0  0  0  0  0  0  0
   41.3873   27.9358   33.8677 H   0  0  0  0  0  0  0  0  0  0  0  0
   43.7787   24.5494   34.8092 H   0  0  0  0  0  0  0  0  0  0  0  0
   38.6252   27.7065   36.5438 H   0  0  0  0  0  0  0  0  0  0  0  0
   36.2665   27.2228   32.9908 H   0  0  0  0  0  0  0  0  0  0  0  0
   39.2057   22.7022   33.7602 H   0  0  0  0  0  0  0  0  0  0  0  0
   37.3988   23.3605   38.2001 H   0  0  0  0  0  0  0  0  0  0  0  0
  1  6  1  0
  1 12  1  0
  2  1  2  0
  3  4  2  0
  3  2  1  0
  4  5  1  0
  5  6  2  0
  7  2  1  0
  7  8  1  0
  9  8  2  0
 10  9  1  0
 11 10  2  0
 11  7  1  0
 12 16  1  0
 13 12  2  0
 13 14  1  0
 14 15  1  0
 16 15  2  0
  3 17  1  0
  5 18  1  0
  8 19  1  0
 10 20  1  0
 13 21  1  0
 15 22  1  0
M  ISO  6  17  14  18  14  19  14  20  14  21  14  22  14
M  END
>  <minimizedAffinity>  (1) 
-3.70383

>  <minimizedRMSD>  (1) 
5.31594658

$$$$
