
     RDKit          3D

 23 25  0  0  0  0  0  0  0  0999 V2000
   38.8630   22.5840   35.6710 C   0  0  0  0  0  0  0  0  0  0  0  0
   39.2840   23.7540   35.1040 C   0  0  0  0  0  0  0  0  0  0  0  0
   40.6020   24.2480   35.3260 C   0  0  0  0  0  0  0  0  0  0  0  0
   41.4380   23.5190   36.1140 N   0  0  0  0  0  0  0  0  0  0  0  0
   40.9980   22.3540   36.6600 C   0  0  0  0  0  0  0  0  0  0  0  0
   39.7570   21.9290   36.4300 N   0  0  0  0  0  0  0  0  0  0  0  0
   38.4120   24.4000   34.1750 N   0  0  0  0  0  0  0  0  0  0  0  0
   37.5520   25.4610   34.3010 C   0  0  0  0  0  0  0  0  0  0  0  0
   36.9760   25.6800   33.0810 N   0  0  0  0  0  0  0  0  0  0  0  0
   37.4770   24.7670   32.2160 C   0  0  0  0  0  0  0  0  0  0  0  0
   38.3610   23.9810   32.8980 N   0  0  0  0  0  0  0  0  0  0  0  0
   37.6030   21.9060   35.6740 C   0  0  0  0  0  0  0  0  0  0  0  0
   36.8710   21.3560   34.6640 C   0  0  0  0  0  0  0  0  0  0  0  0
   35.6750   20.9270   35.0980 N   0  0  0  0  0  0  0  0  0  0  0  0
   35.5900   21.1930   36.4320 C   0  0  0  0  0  0  0  0  0  0  0  0
   36.7550   21.7660   36.6980 N   0  0  0  0  0  0  0  0  0  0  0  0
   40.9347   25.1933   34.8725 H   0  0  0  0  0  0  0  0  0  0  0  0
   41.6709   21.7592   37.2952 H   0  0  0  0  0  0  0  0  0  0  0  0
   37.3600   26.0337   35.2203 H   0  0  0  0  0  0  0  0  0  0  0  0
   37.2175   24.6746   31.1510 H   0  0  0  0  0  0  0  0  0  0  0  0
   37.2171   21.2739   33.6231 H   0  0  0  0  0  0  0  0  0  0  0  0
   34.7577   20.9833   37.1199 H   0  0  0  0  0  0  0  0  0  0  0  0
   36.9952   22.0875   37.6466 H   0  0  0  0  0  0  0  0  0  0  0  0
  1 12  1  0
  1  6  2  0
  2  3  2  0
  2  1  1  0
  3  4  1  0
  4  5  2  0
  6  5  1  0
  7  8  1  0
  7  2  1  0
  9  8  2  0
 10 11  2  0
 10  9  1  0
 11  7  1  0
 12 16  1  0
 13 14  1  0
 13 12  2  0
 14 15  2  0
 15 16  1  0
  3 17  1  0
  5 18  1  0
  8 19  1  0
 10 20  1  0
 13 21  1  0
 15 22  1  0
 16 23  1  0
M  ISO  7  17  14  18  14  19  14  20  14  21  14  22  14  23   9
M  END
>  <minimizedAffinity>  (1) 
-3.80187821

>  <minimizedRMSD>  (1) 
3.383008

$$$$
