
     RDKit          3D

 29 31  0  0  0  0  0  0  0  0999 V2000
   40.0180   23.3650   35.8980 C   0  0  0  0  0  0  0  0  0  0  0  0
   41.1510   24.0610   35.4990 C   0  0  0  0  0  0  0  0  0  0  0  0
   42.4160   23.6420   35.9350 C   0  0  0  0  0  0  0  0  0  0  0  0
   42.4410   22.5450   36.7440 N   0  0  0  0  0  0  0  0  0  0  0  0
   41.3400   21.8860   37.1170 C   0  0  0  0  0  0  0  0  0  0  0  0
   40.1260   22.3060   36.6870 N   0  0  0  0  0  0  0  0  0  0  0  0
   40.9530   25.1840   34.6490 N   0  0  0  0  0  0  0  0  0  0  0  0
   40.5830   26.4850   34.8880 C   0  0  0  0  0  0  0  0  0  0  0  0
   40.5370   27.1480   33.7090 N   0  0  0  0  0  0  0  0  0  0  0  0
   40.8820   26.2440   32.7320 C   0  0  0  0  0  0  0  0  0  0  0  0
   41.1250   25.0720   33.3430 N   0  0  0  0  0  0  0  0  0  0  0  0
   38.6200   23.6830   35.5230 C   0  0  0  0  0  0  0  0  0  0  0  0
   38.3000   23.0360   34.1960 C   0  0  0  0  0  0  0  0  0  0  0  0
   37.3650   21.8990   34.4520 C   0  0  0  0  0  0  0  0  0  0  0  0
   37.2000   21.7860   35.9620 C   0  0  0  0  0  0  0  0  0  0  0  0
   37.6210   23.1350   36.5070 C   0  0  0  0  0  0  0  0  0  0  0  0
   43.3360   24.1685   35.6410 H   0  0  0  0  0  0  0  0  0  0  0  0
   41.4192   21.0052   37.7712 H   0  0  0  0  0  0  0  0  0  0  0  0
   40.3607   26.9169   35.8750 H   0  0  0  0  0  0  0  0  0  0  0  0
   40.9469   26.4430   31.6521 H   0  0  0  0  0  0  0  0  0  0  0  0
   38.5460   24.7801   35.4923 H   0  0  0  0  0  0  0  0  0  0  0  0
   39.2238   22.6624   33.7301 H   0  0  0  0  0  0  0  0  0  0  0  0
   37.8374   23.7663   33.5157 H   0  0  0  0  0  0  0  0  0  0  0  0
   36.3915   22.0974   33.9799 H   0  0  0  0  0  0  0  0  0  0  0  0
   37.7615   20.9636   34.0304 H   0  0  0  0  0  0  0  0  0  0  0  0
   36.1521   21.5747   36.2212 H   0  0  0  0  0  0  0  0  0  0  0  0
   37.8010   20.9660   36.3820 H   0  0  0  0  0  0  0  0  0  0  0  0
   38.0837   23.0199   37.4983 H   0  0  0  0  0  0  0  0  0  0  0  0
   36.7601   23.8091   36.6269 H   0  0  0  0  0  0  0  0  0  0  0  0
  1  6  2  0
  2  1  1  0
  2  3  2  0
  3  4  1  0
  4  5  2  0
  6  5  1  0
  7  8  1  0
  7  2  1  0
  9  8  2  0
 10 11  2  0
 10  9  1  0
 11  7  1  0
 12  1  1  0
 12 16  1  0
 13 14  1  0
 13 12  1  0
 14 15  1  0
 15 16  1  0
  3 17  1  0
  5 18  1  0
  8 19  1  0
 10 20  1  0
 12 21  1  0
 13 22  1  0
 13 23  1  0
 14 24  1  0
 14 25  1  0
 15 26  1  0
 15 27  1  0
 16 28  1  0
 16 29  1  0
M  ISO  8  17  14  18  14  19  14  20  14  21  13  22  13  23  13  24  13
M  ISO  5  25  13  26  13  27  13  28  13  29  13
M  END
>  <minimizedAffinity>  (1) 
-3.48711729

>  <minimizedRMSD>  (1) 
4.57617426

$$$$
