
     RDKit          3D

 19 20  0  0  0  0  0  0  0  0999 V2000
   37.1710   22.1560   35.8300 C   0  0  0  0  0  0  0  0  0  0  0  0
   37.9400   22.6050   34.7640 C   0  0  0  0  0  0  0  0  0  0  0  0
   38.9500   23.5120   35.0250 C   0  0  0  0  0  0  0  0  0  0  0  0
   39.1340   23.9130   36.3160 N   0  0  0  0  0  0  0  0  0  0  0  0
   38.3780   23.4590   37.3170 C   0  0  0  0  0  0  0  0  0  0  0  0
   37.4010   22.5840   37.0690 N   0  0  0  0  0  0  0  0  0  0  0  0
   37.6280   22.0820   33.4910 N   0  0  0  0  0  0  0  0  0  0  0  0
   36.7400   22.4770   32.5170 C   0  0  0  0  0  0  0  0  0  0  0  0
   36.8250   21.6460   31.4650 N   0  0  0  0  0  0  0  0  0  0  0  0
   37.7810   20.7150   31.7890 C   0  0  0  0  0  0  0  0  0  0  0  0
   38.2660   20.9980   33.0390 N   0  0  0  0  0  0  0  0  0  0  0  0
   36.0580   21.2270   35.8100 C   0  0  0  0  0  0  0  0  0  0  0  0
   35.5730   20.5700   34.8820 O   0  0  0  0  0  0  0  0  0  0  0  0
   35.1240   20.6900   36.6640 O   0  0  0  0  0  0  0  0  0  0  0  0
   39.5866   23.8990   34.2157 H   0  0  0  0  0  0  0  0  0  0  0  0
   38.5595   23.8052   38.3452 H   0  0  0  0  0  0  0  0  0  0  0  0
   36.0636   23.3415   32.5888 H   0  0  0  0  0  0  0  0  0  0  0  0
   38.1042   19.8797   31.1504 H   0  0  0  0  0  0  0  0  0  0  0  0
   34.4571   20.0420   36.3241 H   0  0  0  0  0  0  0  0  0  0  0  0
  1  6  2  0
  2  3  2  0
  2  1  1  0
  3  4  1  0
  4  5  2  0
  6  5  1  0
  7  2  1  0
  8  7  1  0
  9 10  1  0
  9  8  2  0
 10 11  2  0
 11  7  1  0
 12  1  1  0
 12 14  1  0
 13 12  2  0
  3 15  1  0
  5 16  1  0
  8 17  1  0
 10 18  1  0
 14 19  1  0
M  ISO  5  15  14  16  14  17  14  18  14  19   3
M  END
>  <minimizedAffinity>  (1) 
-3.55479646

>  <minimizedRMSD>  (1) 
2.14392805

$$$$
