
     RDKit          3D

 17 18  0  0  0  0  0  0  0  0999 V2000
   38.1740   22.5070   36.4100 C   0  0  0  0  0  0  0  0  0  0  0  0
   38.4580   22.1790   35.0880 C   0  0  0  0  0  0  0  0  0  0  0  0
   39.7820   22.2220   34.6650 C   0  0  0  0  0  0  0  0  0  0  0  0
   40.7360   22.5870   35.5820 N   0  0  0  0  0  0  0  0  0  0  0  0
   40.4260   22.8950   36.8460 C   0  0  0  0  0  0  0  0  0  0  0  0
   39.1420   22.8570   37.2700 N   0  0  0  0  0  0  0  0  0  0  0  0
   37.3690   21.8240   34.2620 N   0  0  0  0  0  0  0  0  0  0  0  0
   36.9980   22.2120   33.0060 C   0  0  0  0  0  0  0  0  0  0  0  0
   35.8560   21.5660   32.6610 N   0  0  0  0  0  0  0  0  0  0  0  0
   35.5220   20.7680   33.7210 C   0  0  0  0  0  0  0  0  0  0  0  0
   36.4670   20.9560   34.6710 N   0  0  0  0  0  0  0  0  0  0  0  0
   36.8980   22.5050   36.9640 O   0  0  0  0  0  0  0  0  0  0  0  0
   40.0559   21.9717   33.6295 H   0  0  0  0  0  0  0  0  0  0  0  0
   41.2230   23.1820   37.5477 H   0  0  0  0  0  0  0  0  0  0  0  0
   37.5387   22.9329   32.3752 H   0  0  0  0  0  0  0  0  0  0  0  0
   34.6505   20.1002   33.7882 H   0  0  0  0  0  0  0  0  0  0  0  0
   36.1170   22.2599   36.4072 H   0  0  0  0  0  0  0  0  0  0  0  0
  1 12  1  0
  1  6  2  0
  2  1  1  0
  3  2  2  0
  3  4  1  0
  4  5  2  0
  5  6  1  0
  7 11  1  0
  7  2  1  0
  8  7  1  0
  9  8  2  0
  9 10  1  0
 10 11  2  0
  3 13  1  0
  5 14  1  0
  8 15  1  0
 10 16  1  0
 12 17  1  0
M  ISO  5  13  14  14  14  15  14  16  14  17   3
M  END
>  <minimizedAffinity>  (1) 
-3.08301234

>  <minimizedRMSD>  (1) 
1.28283608

$$$$
