
     RDKit          3D

 51 55  0  0  1  0  0  0  0  0999 V2000
   37.5790   23.6180   33.1460 C   0  0  0  0  0  0  0  0  0  0  0  0
   36.7600   22.7480   32.4440 C   0  0  0  0  0  0  0  0  0  0  0  0
   36.7260   21.6160   33.2120 N   0  0  0  0  0  0  0  0  0  0  0  0
   37.4920   21.8510   34.2900 C   0  0  0  0  0  0  0  0  0  0  0  0
   38.0330   23.0690   34.2850 N   0  0  0  0  0  0  0  0  0  0  0  0
   37.9230   24.9700   32.7230 C   0  0  0  0  0  0  0  0  0  0  0  0
   39.0880   25.1850   31.9720 C   0  0  0  0  0  0  0  0  0  0  0  0
   39.3650   26.5260   31.6040 C   0  0  0  0  0  0  0  0  0  0  0  0
   38.5040   27.5010   31.9940 N   0  0  0  0  0  0  0  0  0  0  0  0
   37.4140   27.2440   32.7040 C   0  0  0  0  0  0  0  0  0  0  0  0
   37.1010   25.9840   33.0810 N   0  0  0  0  0  0  0  0  0  0  0  0
   36.5350   28.2950   33.0940 N   0  0  0  0  0  0  0  0  0  0  0  0
   35.8750   29.1300   32.1090 C   0  0  0  0  0  0  0  0  0  0  0  0
   34.3980   29.0940   32.4830 C   0  0  0  0  0  0  0  0  0  0  0  0
   34.2630   29.8220   33.7130 N   0  0  0  0  0  0  0  0  0  0  0  0
   35.4580   29.8850   34.4960 C   0  0  0  0  0  0  0  0  0  0  0  0
   36.2580   28.5810   34.4850 C   0  0  0  0  0  0  0  0  0  0  0  0
   38.8920   23.6720   35.2450 C   0  0  1  0  0  0  0  0  0  0  0  0
   38.2690   24.8110   35.9530 C   0  0  0  0  0  0  0  0  0  0  0  0
   37.5300   24.1380   37.0940 C   0  0  0  0  0  0  0  0  0  0  0  0
   38.5080   23.1210   37.5590 C   0  0  0  0  0  0  0  0  0  0  0  0
   39.2920   22.7220   36.3500 C   0  0  2  0  0  0  0  0  0  0  0  0
   40.7890   22.8920   36.5820 C   0  0  0  0  0  0  0  0  0  0  0  0
   41.6050   21.7580   35.9690 C   0  0  0  0  0  0  0  0  0  0  0  0
   41.5600   21.9890   37.4470 C   0  0  0  0  0  0  0  0  0  0  0  0
   36.2516   22.9271   31.4851 H   0  0  0  0  0  0  0  0  0  0  0  0
   37.6555   21.1161   35.0920 H   0  0  0  0  0  0  0  0  0  0  0  0
   39.7519   24.3567   31.6837 H   0  0  0  0  0  0  0  0  0  0  0  0
   40.2602   26.7718   31.0139 H   0  0  0  0  0  0  0  0  0  0  0  0
   36.0270   28.7268   31.0969 H   0  0  0  0  0  0  0  0  0  0  0  0
   36.2739   30.1551   32.1042 H   0  0  0  0  0  0  0  0  0  0  0  0
   33.7961   29.5687   31.6941 H   0  0  0  0  0  0  0  0  0  0  0  0
   34.0451   28.0584   32.5969 H   0  0  0  0  0  0  0  0  0  0  0  0
   33.9743   30.7847   33.4876 H   0  0  0  0  0  0  0  0  0  0  0  0
   36.0947   30.6886   34.0974 H   0  0  0  0  0  0  0  0  0  0  0  0
   35.1560   30.0732   35.5369 H   0  0  0  0  0  0  0  0  0  0  0  0
   35.6686   27.7672   34.9325 H   0  0  0  0  0  0  0  0  0  0  0  0
   37.1851   28.6720   35.0701 H   0  0  0  0  0  0  0  0  0  0  0  0
   39.7528   23.9916   34.6393 H   0  0  0  0  0  0  0  0  0  0  0  0
   39.0322   25.5068   36.3317 H   0  0  0  0  0  0  0  0  0  0  0  0
   37.6145   25.4170   35.3092 H   0  0  0  0  0  0  0  0  0  0  0  0
   37.2942   24.8565   37.8929 H   0  0  0  0  0  0  0  0  0  0  0  0
   36.5619   23.7094   36.7956 H   0  0  0  0  0  0  0  0  0  0  0  0
   39.1737   23.5513   38.3217 H   0  0  0  0  0  0  0  0  0  0  0  0
   38.0045   22.2567   38.0166 H   0  0  0  0  0  0  0  0  0  0  0  0
   39.0900   21.6678   36.1097 H   0  0  0  0  0  0  0  0  0  0  0  0
   40.7310   23.9902   36.5560 H   0  0  0  0  0  0  0  0  0  0  0  0
   41.0997   20.8862   35.5278 H   0  0  0  0  0  0  0  0  0  0  0  0
   42.3944   21.6770   35.2073 H   0  0  0  0  0  0  0  0  0  0  0  0
   42.4537   22.3642   37.9671 H   0  0  0  0  0  0  0  0  0  0  0  0
   41.3104   21.3595   38.3138 H   0  0  0  0  0  0  0  0  0  0  0  0
  1  5  1  0
  2  1  2  0
  2  3  1  0
  3  4  2  0
  5  4  1  0
  5 18  1  0
  6 11  1  0
  6  1  1  0
  7  6  2  0
  8  7  1  0
  8  9  2  0
  9 10  1  0
 10 11  2  0
 10 12  1  0
 12 17  1  0
 13 14  1  0
 13 12  1  0
 14 15  1  0
 15 16  1  0
 17 16  1  0
 18 19  1  0
 18 22  1  0
 19 20  1  0
 20 21  1  0
 22 23  1  0
 22 21  1  0
 23 25  1  0
 24 23  1  0
 24 25  1  0
  2 26  1  0
  4 27  1  0
  7 28  1  0
  8 29  1  0
 13 30  1  0
 13 31  1  0
 14 32  1  0
 14 33  1  0
 15 34  1  0
 16 35  1  0
 16 36  1  0
 17 37  1  0
 17 38  1  0
 18 39  1  6
 19 40  1  0
 19 41  1  0
 20 42  1  0
 20 43  1  0
 21 44  1  0
 21 45  1  0
 22 46  1  6
 23 47  1  0
 24 48  1  0
 24 49  1  0
 25 50  1  0
 25 51  1  0
M  ISO  8  26  14  27  14  28  14  29  14  30  13  31  13  32  13  33  13
M  ISO  8  34   5  35  13  36  13  37  13  38  13  39  13  40  13  41  13
M  ISO  8  42  13  43  13  44  13  45  13  46  13  47  13  48  13  49  13
M  ISO  2  50  13  51  13
M  END
>  <minimizedAffinity>  (1) 
-5.65809679

>  <minimizedRMSD>  (1) 
0.51077342

$$$$
