
     RDKit          3D

 23 24  0  0  0  0  0  0  0  0999 V2000
   37.1040   21.7320   35.1230 C   0  0  0  0  0  0  0  0  0  0  0  0
   37.4900   22.0490   33.8300 C   0  0  0  0  0  0  0  0  0  0  0  0
   38.6220   22.8650   33.6160 C   0  0  0  0  0  0  0  0  0  0  0  0
   39.2990   23.3120   34.7140 N   0  0  0  0  0  0  0  0  0  0  0  0
   38.9120   22.9950   35.9460 C   0  0  0  0  0  0  0  0  0  0  0  0
   37.8510   22.2310   36.1360 N   0  0  0  0  0  0  0  0  0  0  0  0
   36.7240   21.5310   32.7760 N   0  0  0  0  0  0  0  0  0  0  0  0
   35.6280   21.9530   32.0880 C   0  0  0  0  0  0  0  0  0  0  0  0
   35.2960   21.0420   31.1490 N   0  0  0  0  0  0  0  0  0  0  0  0
   36.2070   20.0200   31.2490 C   0  0  0  0  0  0  0  0  0  0  0  0
   37.0400   20.3670   32.2440 N   0  0  0  0  0  0  0  0  0  0  0  0
   35.9650   20.9070   35.5690 C   0  0  0  0  0  0  0  0  0  0  0  0
   35.5620   21.3230   36.9590 C   0  0  0  0  0  0  0  0  0  0  0  0
   34.5480   20.5510   37.4840 O   0  0  0  0  0  0  0  0  0  0  0  0
   38.9473   23.1315   32.5996 H   0  0  0  0  0  0  0  0  0  0  0  0
   39.4780   23.3707   36.8112 H   0  0  0  0  0  0  0  0  0  0  0  0
   35.0924   22.8964   32.2702 H   0  0  0  0  0  0  0  0  0  0  0  0
   36.2467   19.1051   30.6396 H   0  0  0  0  0  0  0  0  0  0  0  0
   35.1173   21.0495   34.8827 H   0  0  0  0  0  0  0  0  0  0  0  0
   36.2576   19.8466   35.5725 H   0  0  0  0  0  0  0  0  0  0  0  0
   36.4399   21.2415   37.6167 H   0  0  0  0  0  0  0  0  0  0  0  0
   35.1877   22.3554   36.8958 H   0  0  0  0  0  0  0  0  0  0  0  0
   34.5881   20.5815   38.4727 H   0  0  0  0  0  0  0  0  0  0  0  0
  1 12  1  0
  1  6  2  0
  2  1  1  0
  3  2  2  0
  3  4  1  0
  4  5  2  0
  5  6  1  0
  7  2  1  0
  8  7  1  0
  9 10  1  0
  9  8  2  0
 10 11  2  0
 11  7  1  0
 12 13  1  0
 13 14  1  0
  3 15  1  0
  5 16  1  0
  8 17  1  0
 10 18  1  0
 12 19  1  0
 12 20  1  0
 13 21  1  0
 13 22  1  0
 14 23  1  0
M  ISO  8  15  14  16  14  17  14  18  14  19   8  20   8  21   8  22   8
M  ISO  1  23   3
M  END
>  <minimizedAffinity>  (1) 
-3.82052207

>  <minimizedRMSD>  (1) 
1.39035892

$$$$
