
     RDKit          3D

 46 50  0  0  1  0  0  0  0  0999 V2000
   37.6780   23.5030   33.2740 C   0  0  0  0  0  0  0  0  0  0  0  0
   36.8240   22.6460   32.6020 C   0  0  0  0  0  0  0  0  0  0  0  0
   36.6970   21.5630   33.4310 N   0  0  0  0  0  0  0  0  0  0  0  0
   37.4520   21.8150   34.5160 C   0  0  0  0  0  0  0  0  0  0  0  0
   38.0690   22.9940   34.4550 N   0  0  0  0  0  0  0  0  0  0  0  0
   38.9410   23.5980   35.4020 C   0  0  1  0  0  0  0  0  0  0  0  0
   38.3510   24.7800   36.0680 C   0  0  0  0  0  0  0  0  0  0  0  0
   37.5880   24.1710   37.2300 C   0  0  0  0  0  0  0  0  0  0  0  0
   38.5220   23.1340   37.7290 C   0  0  0  0  0  0  0  0  0  0  0  0
   39.3030   22.6730   36.5380 C   0  0  2  0  0  0  0  0  0  0  0  0
   40.8020   22.7990   36.7750 C   0  0  0  0  0  0  0  0  0  0  0  0
   41.5990   21.7180   36.0480 C   0  0  0  0  0  0  0  0  0  0  0  0
   41.5610   21.7970   37.5390 C   0  0  0  0  0  0  0  0  0  0  0  0
   38.1210   24.8100   32.7850 C   0  0  0  0  0  0  0  0  0  0  0  0
   39.3420   24.9220   32.1100 C   0  0  0  0  0  0  0  0  0  0  0  0
   39.6960   26.2300   31.6800 C   0  0  0  0  0  0  0  0  0  0  0  0
   38.8570   27.2630   31.9390 N   0  0  0  0  0  0  0  0  0  0  0  0
   37.7060   27.0920   32.5860 C   0  0  0  0  0  0  0  0  0  0  0  0
   37.3150   25.8750   33.0180 N   0  0  0  0  0  0  0  0  0  0  0  0
   36.8340   28.2330   32.8430 C   0  0  0  0  0  0  0  0  0  0  0  0
   36.2370   28.4200   34.0720 C   0  0  0  0  0  0  0  0  0  0  0  0
   35.3970   29.4810   34.3870 C   0  0  0  0  0  0  0  0  0  0  0  0
   35.2000   30.3620   33.3360 C   0  0  0  0  0  0  0  0  0  0  0  0
   35.7790   30.2060   32.0930 C   0  0  0  0  0  0  0  0  0  0  0  0
   36.5800   29.1430   31.8850 N   0  0  0  0  0  0  0  0  0  0  0  0
   36.3521   22.8003   31.6204 H   0  0  0  0  0  0  0  0  0  0  0  0
   37.5494   21.1208   35.3637 H   0  0  0  0  0  0  0  0  0  0  0  0
   39.8163   23.8687   34.7933 H   0  0  0  0  0  0  0  0  0  0  0  0
   39.1343   25.4649   36.4248 H   0  0  0  0  0  0  0  0  0  0  0  0
   37.7169   25.3823   35.4008 H   0  0  0  0  0  0  0  0  0  0  0  0
   37.3803   24.9232   38.0053 H   0  0  0  0  0  0  0  0  0  0  0  0
   36.6049   23.7697   36.9428 H   0  0  0  0  0  0  0  0  0  0  0  0
   39.1964   23.5599   38.4865 H   0  0  0  0  0  0  0  0  0  0  0  0
   37.9824   22.3011   38.2034 H   0  0  0  0  0  0  0  0  0  0  0  0
   39.0690   21.6186   36.3295 H   0  0  0  0  0  0  0  0  0  0  0  0
   40.7621   23.8951   36.8586 H   0  0  0  0  0  0  0  0  0  0  0  0
   41.0784   20.9041   35.5222 H   0  0  0  0  0  0  0  0  0  0  0  0
   42.3861   21.7019   35.2797 H   0  0  0  0  0  0  0  0  0  0  0  0
   42.4623   22.1016   38.0911 H   0  0  0  0  0  0  0  0  0  0  0  0
   41.3026   21.0856   38.3372 H   0  0  0  0  0  0  0  0  0  0  0  0
   39.9880   24.0514   31.9237 H   0  0  0  0  0  0  0  0  0  0  0  0
   40.6404   26.4021   31.1429 H   0  0  0  0  0  0  0  0  0  0  0  0
   36.4400   27.6774   34.8577 H   0  0  0  0  0  0  0  0  0  0  0  0
   34.9329   29.6092   35.3760 H   0  0  0  0  0  0  0  0  0  0  0  0
   34.5474   31.2320   33.5011 H   0  0  0  0  0  0  0  0  0  0  0  0
   35.5906   30.9336   31.2898 H   0  0  0  0  0  0  0  0  0  0  0  0
  1  5  1  0
  2  1  2  0
  2  3  1  0
  3  4  2  0
  5  4  1  0
  5  6  1  0
  6  7  1  0
  6 10  1  0
  7  8  1  0
  8  9  1  0
 10 11  1  0
 10  9  1  0
 11 13  1  0
 12 11  1  0
 12 13  1  0
 14 19  1  0
 14  1  1  0
 15 14  2  0
 16 17  2  0
 16 15  1  0
 17 18  1  0
 18 20  1  0
 18 19  2  0
 20 21  2  0
 21 22  1  0
 23 22  2  0
 24 23  1  0
 25 24  2  0
 25 20  1  0
  2 26  1  0
  4 27  1  0
  6 28  1  6
  7 29  1  0
  7 30  1  0
  8 31  1  0
  8 32  1  0
  9 33  1  0
  9 34  1  0
 10 35  1  6
 11 36  1  0
 12 37  1  0
 12 38  1  0
 13 39  1  0
 13 40  1  0
 15 41  1  0
 16 42  1  0
 21 43  1  0
 22 44  1  0
 23 45  1  0
 24 46  1  0
M  ISO  8  26  14  27  14  28  13  29  13  30  13  31  13  32  13  33  13
M  ISO  8  34  13  35  13  36  13  37  13  38  13  39  13  40  13  41  14
M  ISO  5  42  14  43  14  44  14  45  14  46  14
M  END
>  <minimizedAffinity>  (1) 
-5.63166761

>  <minimizedRMSD>  (1) 
0.278132766

$$$$
