
     RDKit          3D

 49 53  0  0  1  0  0  0  0  0999 V2000
   37.6220   23.6580   33.1310 C   0  0  0  0  0  0  0  0  0  0  0  0
   36.7990   22.8050   32.4190 C   0  0  0  0  0  0  0  0  0  0  0  0
   36.7270   21.6730   33.1880 N   0  0  0  0  0  0  0  0  0  0  0  0
   37.4820   21.8960   34.2790 C   0  0  0  0  0  0  0  0  0  0  0  0
   38.0460   23.1040   34.2780 N   0  0  0  0  0  0  0  0  0  0  0  0
   38.0050   25.0080   32.7110 C   0  0  0  0  0  0  0  0  0  0  0  0
   39.2210   25.2120   32.0540 C   0  0  0  0  0  0  0  0  0  0  0  0
   39.5210   26.5530   31.6900 C   0  0  0  0  0  0  0  0  0  0  0  0
   38.6400   27.5280   31.9880 N   0  0  0  0  0  0  0  0  0  0  0  0
   37.4850   27.2770   32.6210 C   0  0  0  0  0  0  0  0  0  0  0  0
   37.1510   26.0200   32.9890 N   0  0  0  0  0  0  0  0  0  0  0  0
   36.5460   28.2970   32.9420 N   0  0  0  0  0  0  0  0  0  0  0  0
   35.8360   29.2090   32.0530 C   0  0  0  0  0  0  0  0  0  0  0  0
   35.6830   30.4220   32.9480 C   0  0  0  0  0  0  0  0  0  0  0  0
   35.1590   29.7410   34.1940 C   0  0  0  0  0  0  0  0  0  0  0  0
   36.1360   28.5910   34.3230 C   0  0  0  0  0  0  0  0  0  0  0  0
   38.9010   23.6920   35.2510 C   0  0  1  0  0  0  0  0  0  0  0  0
   38.2810   24.8270   35.9670 C   0  0  0  0  0  0  0  0  0  0  0  0
   37.5330   24.1490   37.1000 C   0  0  0  0  0  0  0  0  0  0  0  0
   38.4970   23.1180   37.5570 C   0  0  0  0  0  0  0  0  0  0  0  0
   39.2890   22.7320   36.3510 C   0  0  2  0  0  0  0  0  0  0  0  0
   40.7850   22.8880   36.5910 C   0  0  0  0  0  0  0  0  0  0  0  0
   41.5990   21.7490   35.9810 C   0  0  0  0  0  0  0  0  0  0  0  0
   41.5460   21.9770   37.4570 C   0  0  0  0  0  0  0  0  0  0  0  0
   36.3110   22.9931   31.4513 H   0  0  0  0  0  0  0  0  0  0  0  0
   37.6192   21.1605   35.0854 H   0  0  0  0  0  0  0  0  0  0  0  0
   39.9074   24.3819   31.8310 H   0  0  0  0  0  0  0  0  0  0  0  0
   40.4611   26.7919   31.1713 H   0  0  0  0  0  0  0  0  0  0  0  0
   36.4279   29.4411   31.1553 H   0  0  0  0  0  0  0  0  0  0  0  0
   34.8884   28.8131   31.6589 H   0  0  0  0  0  0  0  0  0  0  0  0
   36.6448   30.9246   33.1276 H   0  0  0  0  0  0  0  0  0  0  0  0
   35.0465   31.2248   32.5476 H   0  0  0  0  0  0  0  0  0  0  0  0
   35.2015   30.4079   35.0678 H   0  0  0  0  0  0  0  0  0  0  0  0
   34.1035   29.4368   34.1363 H   0  0  0  0  0  0  0  0  0  0  0  0
   35.6484   27.7162   34.7780 H   0  0  0  0  0  0  0  0  0  0  0  0
   36.9913   28.8402   34.9683 H   0  0  0  0  0  0  0  0  0  0  0  0
   39.7667   24.0106   34.6518 H   0  0  0  0  0  0  0  0  0  0  0  0
   39.0464   25.5153   36.3548 H   0  0  0  0  0  0  0  0  0  0  0  0
   37.6318   25.4412   35.3257 H   0  0  0  0  0  0  0  0  0  0  0  0
   37.3029   24.8617   37.9057 H   0  0  0  0  0  0  0  0  0  0  0  0
   36.5617   23.7331   36.7942 H   0  0  0  0  0  0  0  0  0  0  0  0
   39.1587   23.5305   38.3329 H   0  0  0  0  0  0  0  0  0  0  0  0
   37.9818   22.2506   37.9954 H   0  0  0  0  0  0  0  0  0  0  0  0
   39.0832   21.6807   36.1011 H   0  0  0  0  0  0  0  0  0  0  0  0
   40.7335   23.9865   36.5668 H   0  0  0  0  0  0  0  0  0  0  0  0
   41.0914   20.8810   35.5349 H   0  0  0  0  0  0  0  0  0  0  0  0
   42.3930   21.6647   35.2243 H   0  0  0  0  0  0  0  0  0  0  0  0
   42.4390   22.3453   37.9833 H   0  0  0  0  0  0  0  0  0  0  0  0
   41.2872   21.3465   38.3204 H   0  0  0  0  0  0  0  0  0  0  0  0
  1  5  1  0
  2  1  2  0
  2  3  1  0
  3  4  2  0
  5  4  1  0
  5 17  1  0
  6 11  1  0
  6  1  1  0
  7  6  2  0
  8  9  2  0
  8  7  1  0
  9 10  1  0
 10 12  1  0
 10 11  2  0
 12 16  1  0
 13 12  1  0
 13 14  1  0
 14 15  1  0
 15 16  1  0
 17 18  1  0
 17 21  1  0
 18 19  1  0
 19 20  1  0
 21 22  1  0
 21 20  1  0
 22 24  1  0
 23 22  1  0
 23 24  1  0
  2 25  1  0
  4 26  1  0
  7 27  1  0
  8 28  1  0
 13 29  1  0
 13 30  1  0
 14 31  1  0
 14 32  1  0
 15 33  1  0
 15 34  1  0
 16 35  1  0
 16 36  1  0
 17 37  1  6
 18 38  1  0
 18 39  1  0
 19 40  1  0
 19 41  1  0
 20 42  1  0
 20 43  1  0
 21 44  1  6
 22 45  1  0
 23 46  1  0
 23 47  1  0
 24 48  1  0
 24 49  1  0
M  ISO  8  25  14  26  14  27  14  28  14  29  13  30  13  31  13  32  13
M  ISO  8  33  13  34  13  35  13  36  13  37  13  38  13  39  13  40  13
M  ISO  8  41  13  42  13  43  13  44  13  45  13  46  13  47  13  48  13
M  ISO  1  49  13
M  END
>  <minimizedAffinity>  (1) 
-5.62187147

>  <minimizedRMSD>  (1) 
0.367832989

$$$$
