
     RDKit          3D

 29 30  0  0  0  0  0  0  0  0999 V2000
   37.3490   22.9830   32.9750 C   0  0  0  0  0  0  0  0  0  0  0  0
   36.3120   22.7510   32.0850 C   0  0  0  0  0  0  0  0  0  0  0  0
   35.6800   23.8280   31.4460 C   0  0  0  0  0  0  0  0  0  0  0  0
   36.1220   25.0830   31.7330 N   0  0  0  0  0  0  0  0  0  0  0  0
   37.1170   25.2900   32.5880 C   0  0  0  0  0  0  0  0  0  0  0  0
   37.7020   24.2670   33.1830 N   0  0  0  0  0  0  0  0  0  0  0  0
   35.9380   21.4120   31.8640 N   0  0  0  0  0  0  0  0  0  0  0  0
   35.0360   20.5610   32.4250 C   0  0  0  0  0  0  0  0  0  0  0  0
   35.1020   19.3570   31.8020 N   0  0  0  0  0  0  0  0  0  0  0  0
   36.0640   19.4580   30.8370 C   0  0  0  0  0  0  0  0  0  0  0  0
   36.5380   20.7120   30.9120 N   0  0  0  0  0  0  0  0  0  0  0  0
   38.1420   21.9950   33.7470 C   0  0  0  0  0  0  0  0  0  0  0  0
   37.7680   22.1050   35.1960 C   0  0  0  0  0  0  0  0  0  0  0  0
   38.8420   22.0960   36.0490 O   0  0  0  0  0  0  0  0  0  0  0  0
   38.9650   23.4150   36.5380 C   0  0  0  0  0  0  0  0  0  0  0  0
   37.6410   23.8820   37.0410 C   0  0  0  0  0  0  0  0  0  0  0  0
   34.8551   23.6639   30.7370 H   0  0  0  0  0  0  0  0  0  0  0  0
   37.4541   26.3152   32.8007 H   0  0  0  0  0  0  0  0  0  0  0  0
   34.3584   20.8104   33.2549 H   0  0  0  0  0  0  0  0  0  0  0  0
   36.3854   18.6707   30.1393 H   0  0  0  0  0  0  0  0  0  0  0  0
   37.9231   20.9799   33.3842 H   0  0  0  0  0  0  0  0  0  0  0  0
   39.2162   22.1956   33.6208 H   0  0  0  0  0  0  0  0  0  0  0  0
   37.2181   23.0465   35.3413 H   0  0  0  0  0  0  0  0  0  0  0  0
   37.1609   21.2200   35.4373 H   0  0  0  0  0  0  0  0  0  0  0  0
   39.6974   23.4355   37.3585 H   0  0  0  0  0  0  0  0  0  0  0  0
   39.3048   24.0771   35.7280 H   0  0  0  0  0  0  0  0  0  0  0  0
   37.6454   23.8805   38.1410 H   0  0  0  0  0  0  0  0  0  0  0  0
   37.4493   24.9020   36.6765 H   0  0  0  0  0  0  0  0  0  0  0  0
   36.8518   23.2080   36.6765 H   0  0  0  0  0  0  0  0  0  0  0  0
  1  6  2  0
  1 12  1  0
  2  1  1  0
  3  4  1  0
  3  2  2  0
  4  5  2  0
  5  6  1  0
  7  2  1  0
  7  8  1  0
  9  8  2  0
 10 11  2  0
 10  9  1  0
 11  7  1  0
 12 13  1  0
 13 14  1  0
 14 15  1  0
 15 16  1  0
  3 17  1  0
  5 18  1  0
  8 19  1  0
 10 20  1  0
 12 21  1  0
 12 22  1  0
 13 23  1  0
 13 24  1  0
 15 25  1  0
 15 26  1  0
 16 27  1  0
 16 28  1  0
 16 29  1  0
M  ISO  8  17  14  18  14  19  14  20  14  21   8  22   8  23   8  24   8
M  ISO  5  25   8  26   8  27   8  28   8  29   8
M  END
>  <minimizedAffinity>  (1) 
-3.6423614

>  <minimizedRMSD>  (1) 
3.3474412

$$$$
