
     RDKit          3D

 30 32  0  0  0  0  0  0  0  0999 V2000
   38.0330   23.2410   33.7470 C   0  0  0  0  0  0  0  0  0  0  0  0
   38.1430   24.4560   34.3900 C   0  0  0  0  0  0  0  0  0  0  0  0
   38.3190   24.4810   35.7990 C   0  0  0  0  0  0  0  0  0  0  0  0
   38.3690   23.2870   36.4460 N   0  0  0  0  0  0  0  0  0  0  0  0
   38.2610   22.1330   35.8000 C   0  0  0  0  0  0  0  0  0  0  0  0
   38.0970   22.1150   34.4890 N   0  0  0  0  0  0  0  0  0  0  0  0
   38.0760   25.6170   33.6170 N   0  0  0  0  0  0  0  0  0  0  0  0
   37.0610   26.4420   33.2170 C   0  0  0  0  0  0  0  0  0  0  0  0
   37.5490   27.4430   32.4650 N   0  0  0  0  0  0  0  0  0  0  0  0
   38.9140   27.2470   32.3880 C   0  0  0  0  0  0  0  0  0  0  0  0
   39.1600   26.1360   33.0990 N   0  0  0  0  0  0  0  0  0  0  0  0
   37.8460   22.9850   32.2960 C   0  0  0  0  0  0  0  0  0  0  0  0
   36.3850   22.9210   31.9820 C   0  0  0  0  0  0  0  0  0  0  0  0
   35.9640   21.7300   31.4610 O   0  0  0  0  0  0  0  0  0  0  0  0
   35.0420   21.1140   32.3310 C   0  0  0  0  0  0  0  0  0  0  0  0
   34.6300   19.6990   32.0670 C   0  0  0  0  0  0  0  0  0  0  0  0
   35.5120   20.0290   33.2280 C   0  0  0  0  0  0  0  0  0  0  0  0
   38.4114   25.4309   36.3459 H   0  0  0  0  0  0  0  0  0  0  0  0
   38.3082   21.1866   36.3587 H   0  0  0  0  0  0  0  0  0  0  0  0
   36.0000   26.3059   33.4735 H   0  0  0  0  0  0  0  0  0  0  0  0
   39.6464   27.8712   31.8552 H   0  0  0  0  0  0  0  0  0  0  0  0
   38.3094   23.7982   31.7181 H   0  0  0  0  0  0  0  0  0  0  0  0
   38.3191   22.0282   32.0299 H   0  0  0  0  0  0  0  0  0  0  0  0
   35.8265   23.1047   32.9117 H   0  0  0  0  0  0  0  0  0  0  0  0
   36.2002   23.6808   31.2084 H   0  0  0  0  0  0  0  0  0  0  0  0
   34.5082   22.0648   32.4762 H   0  0  0  0  0  0  0  0  0  0  0  0
   33.5889   19.3870   32.2366 H   0  0  0  0  0  0  0  0  0  0  0  0
   34.6931   19.0146   31.2081 H   0  0  0  0  0  0  0  0  0  0  0  0
   36.5697   19.7272   33.2172 H   0  0  0  0  0  0  0  0  0  0  0  0
   35.4692   19.8452   34.3117 H   0  0  0  0  0  0  0  0  0  0  0  0
  1  2  1  0
  1  6  2  0
  2  3  2  0
  3  4  1  0
  5  4  2  0
  6  5  1  0
  7  2  1  0
  8  7  1  0
  9  8  2  0
 10  9  1  0
 10 11  2  0
 11  7  1  0
 12  1  1  0
 13 12  1  0
 14 13  1  0
 14 15  1  0
 15 17  1  0
 16 15  1  0
 16 17  1  0
  3 18  1  0
  5 19  1  0
  8 20  1  0
 10 21  1  0
 12 22  1  0
 12 23  1  0
 13 24  1  0
 13 25  1  0
 15 26  1  0
 16 27  1  0
 16 28  1  0
 17 29  1  0
 17 30  1  0
M  ISO  8  18  14  19  14  20  14  21  14  22   8  23   8  24   8  25   8
M  ISO  5  26  13  27  13  28  13  29  13  30  13
M  END
>  <minimizedAffinity>  (1) 
-3.7424252

>  <minimizedRMSD>  (1) 
5.13982201

$$$$
