
     RDKit          3D

 39 41  0  0  0  0  0  0  0  0999 V2000
   38.1650   22.5230   30.9100 C   0  0  0  0  0  0  0  0  0  0  0  0
   37.6960   21.2340   30.7220 C   0  0  0  0  0  0  0  0  0  0  0  0
   38.3390   20.3810   29.8110 C   0  0  0  0  0  0  0  0  0  0  0  0
   39.4210   20.8720   29.1390 N   0  0  0  0  0  0  0  0  0  0  0  0
   39.8550   22.1090   29.3310 C   0  0  0  0  0  0  0  0  0  0  0  0
   39.2400   22.8960   30.1900 N   0  0  0  0  0  0  0  0  0  0  0  0
   36.5740   20.8370   31.4710 N   0  0  0  0  0  0  0  0  0  0  0  0
   35.2190   20.9670   31.3260 C   0  0  0  0  0  0  0  0  0  0  0  0
   34.5980   20.3800   32.3710 N   0  0  0  0  0  0  0  0  0  0  0  0
   35.5730   19.8710   33.1910 C   0  0  0  0  0  0  0  0  0  0  0  0
   36.7300   20.1790   32.5920 N   0  0  0  0  0  0  0  0  0  0  0  0
   37.6480   23.5730   31.8050 C   0  0  0  0  0  0  0  0  0  0  0  0
   38.6030   24.7480   31.8060 C   0  0  0  0  0  0  0  0  0  0  0  0
   38.5940   25.4100   33.0210 O   0  0  0  0  0  0  0  0  0  0  0  0
   38.6770   26.7830   32.9060 C   0  0  0  0  0  0  0  0  0  0  0  0
   39.8830   27.2180   33.7130 C   0  0  0  0  0  0  0  0  0  0  0  0
   39.7420   26.7520   35.1450 C   0  0  0  0  0  0  0  0  0  0  0  0
   38.4930   27.3080   35.7680 C   0  0  0  0  0  0  0  0  0  0  0  0
   37.2770   27.0240   34.9430 C   0  0  0  0  0  0  0  0  0  0  0  0
   37.4720   27.4430   33.5000 C   0  0  0  0  0  0  0  0  0  0  0  0
   37.9835   19.3534   29.6446 H   0  0  0  0  0  0  0  0  0  0  0  0
   40.7283   22.4786   28.7735 H   0  0  0  0  0  0  0  0  0  0  0  0
   34.7148   21.4712   30.4884 H   0  0  0  0  0  0  0  0  0  0  0  0
   35.4340   19.3270   34.1369 H   0  0  0  0  0  0  0  0  0  0  0  0
   36.6602   23.9032   31.4512 H   0  0  0  0  0  0  0  0  0  0  0  0
   37.5561   23.1733   32.8257 H   0  0  0  0  0  0  0  0  0  0  0  0
   39.6207   24.3812   31.6068 H   0  0  0  0  0  0  0  0  0  0  0  0
   38.2807   25.4543   31.0267 H   0  0  0  0  0  0  0  0  0  0  0  0
   38.7494   27.0624   31.8445 H   0  0  0  0  0  0  0  0  0  0  0  0
   40.7919   26.7797   33.2750 H   0  0  0  0  0  0  0  0  0  0  0  0
   39.9527   28.3157   33.6954 H   0  0  0  0  0  0  0  0  0  0  0  0
   39.6955   25.6531   35.1634 H   0  0  0  0  0  0  0  0  0  0  0  0
   40.6102   27.1089   35.7184 H   0  0  0  0  0  0  0  0  0  0  0  0
   38.3608   26.8555   36.7619 H   0  0  0  0  0  0  0  0  0  0  0  0
   38.6069   28.3998   35.8381 H   0  0  0  0  0  0  0  0  0  0  0  0
   37.0672   25.9447   34.9761 H   0  0  0  0  0  0  0  0  0  0  0  0
   36.4371   27.6003   35.3582 H   0  0  0  0  0  0  0  0  0  0  0  0
   37.6023   28.5344   33.4572 H   0  0  0  0  0  0  0  0  0  0  0  0
   36.5861   27.1368   32.9242 H   0  0  0  0  0  0  0  0  0  0  0  0
  1 12  1  0
  2  1  1  0
  2  7  1  0
  3  2  2  0
  4  5  2  0
  4  3  1  0
  5  6  1  0
  6  1  2  0
  7 11  1  0
  8  7  1  0
  8  9  2  0
  9 10  1  0
 11 10  2  0
 12 13  1  0
 13 14  1  0
 15 14  1  0
 15 20  1  0
 15 16  1  0
 16 17  1  0
 17 18  1  0
 19 18  1  0
 20 19  1  0
  3 21  1  0
  5 22  1  0
  8 23  1  0
 10 24  1  0
 12 25  1  0
 12 26  1  0
 13 27  1  0
 13 28  1  0
 15 29  1  0
 16 30  1  0
 16 31  1  0
 17 32  1  0
 17 33  1  0
 18 34  1  0
 18 35  1  0
 19 36  1  0
 19 37  1  0
 20 38  1  0
 20 39  1  0
M  ISO  8  21  14  22  14  23  14  24  14  25   8  26   8  27   8  28   8
M  ISO  8  29  13  30  13  31  13  32  13  33  13  34  13  35  13  36  13
M  ISO  3  37  13  38  13  39  13
M  END
>  <minimizedAffinity>  (1) 
-3.99128056

>  <minimizedRMSD>  (1) 
6.02801657

$$$$
