
     RDKit          3D

 37 39  0  0  1  0  0  0  0  0999 V2000
   38.5210   22.4510   33.5150 C   0  0  0  0  0  0  0  0  0  0  0  0
   37.6710   23.4120   32.8620 C   0  0  0  0  0  0  0  0  0  0  0  0
   36.8130   23.2390   31.7930 C   0  0  0  0  0  0  0  0  0  0  0  0
   36.0730   24.3390   31.3160 C   0  0  0  0  0  0  0  0  0  0  0  0
   36.2400   25.5410   31.9400 N   0  0  0  0  0  0  0  0  0  0  0  0
   37.0690   25.6820   32.9620 C   0  0  0  0  0  0  0  0  0  0  0  0
   37.7630   24.6500   33.4080 N   0  0  0  0  0  0  0  0  0  0  0  0
   36.7310   21.9490   31.2230 N   0  0  0  0  0  0  0  0  0  0  0  0
   35.7590   21.0140   31.1100 C   0  0  0  0  0  0  0  0  0  0  0  0
   36.2270   19.9360   30.4580 N   0  0  0  0  0  0  0  0  0  0  0  0
   37.5250   20.2010   30.1550 C   0  0  0  0  0  0  0  0  0  0  0  0
   37.7820   21.4300   30.6380 N   0  0  0  0  0  0  0  0  0  0  0  0
   37.9730   21.9780   34.8440 C   0  0  1  0  0  0  0  0  0  0  0  0
   38.3610   22.5340   36.0630 C   0  0  0  0  0  0  0  0  0  0  0  0
   39.5990   22.2460   36.6570 C   0  0  0  0  0  0  0  0  0  0  0  0
   40.0510   22.7430   37.8630 C   0  0  0  0  0  0  0  0  0  0  0  0
   39.2380   23.5840   38.5450 C   0  0  0  0  0  0  0  0  0  0  0  0
   37.9980   23.9340   38.0510 C   0  0  0  0  0  0  0  0  0  0  0  0
   37.6280   23.4010   36.8570 C   0  0  0  0  0  0  0  0  0  0  0  0
   36.6060   21.8060   34.7510 O   0  0  0  0  0  0  0  0  0  0  0  0
   35.8200   20.7810   35.1370 C   0  0  0  0  0  0  0  0  0  0  0  0
   35.4250   20.6370   36.4910 N   0  0  0  0  0  0  0  0  0  0  0  0
   35.4950   20.0020   34.1530 O   0  0  0  0  0  0  0  0  0  0  0  0
   39.5043   22.9133   33.6866 H   0  0  0  0  0  0  0  0  0  0  0  0
   38.5875   21.5721   32.8568 H   0  0  0  0  0  0  0  0  0  0  0  0
   35.3820   24.2322   30.4668 H   0  0  0  0  0  0  0  0  0  0  0  0
   37.1809   26.6648   33.4432 H   0  0  0  0  0  0  0  0  0  0  0  0
   34.7345   21.1209   31.4959 H   0  0  0  0  0  0  0  0  0  0  0  0
   38.2257   19.5421   29.6213 H   0  0  0  0  0  0  0  0  0  0  0  0
   38.5331   21.0383   34.9587 H   0  0  0  0  0  0  0  0  0  0  0  0
   40.2690   21.5636   36.1135 H   0  0  0  0  0  0  0  0  0  0  0  0
   41.0396   22.4648   38.2571 H   0  0  0  0  0  0  0  0  0  0  0  0
   39.5716   23.9952   39.5092 H   0  0  0  0  0  0  0  0  0  0  0  0
   37.3352   24.6175   38.6020 H   0  0  0  0  0  0  0  0  0  0  0  0
   36.6363   23.6901   36.4789 H   0  0  0  0  0  0  0  0  0  0  0  0
   34.8242   19.8487   36.7711 H   0  0  0  0  0  0  0  0  0  0  0  0
   35.7389   21.3207   37.1945 H   0  0  0  0  0  0  0  0  0  0  0  0
  1 13  1  0
  2  7  2  0
  2  1  1  0
  3  2  1  0
  4  3  2  0
  4  5  1  0
  5  6  2  0
  6  7  1  0
  8  3  1  0
  9  8  1  0
 10  9  2  0
 11 10  1  0
 11 12  2  0
 12  8  1  0
 13 14  1  0
 14 15  2  0
 14 19  1  0
 15 16  1  0
 16 17  2  0
 18 17  1  0
 19 18  2  0
 20 13  1  0
 20 21  1  0
 21 22  1  0
 23 21  2  0
  1 24  1  0
  1 25  1  0
  4 26  1  0
  6 27  1  0
  9 28  1  0
 11 29  1  0
 13 30  1  1
 15 31  1  0
 16 32  1  0
 17 33  1  0
 18 34  1  0
 19 35  1  0
 22 36  1  0
 22 37  1  0
M  ISO  8  24   8  25   8  26  14  27  14  28  14  29  14  30   8  31  14
M  ISO  4  32  14  33  14  34  14  35  14
M  END
>  <minimizedAffinity>  (1) 
-5.37738276

>  <minimizedRMSD>  (1) 
1.37393272

$$$$
