
     RDKit          3D

 35 37  0  0  1  0  0  0  0  0999 V2000
   38.5700   22.4850   33.4840 C   0  0  0  0  0  0  0  0  0  0  0  0
   37.7070   23.4420   32.8360 C   0  0  0  0  0  0  0  0  0  0  0  0
   36.8580   23.2600   31.7620 C   0  0  0  0  0  0  0  0  0  0  0  0
   36.1030   24.3500   31.2880 C   0  0  0  0  0  0  0  0  0  0  0  0
   36.2450   25.5550   31.9210 N   0  0  0  0  0  0  0  0  0  0  0  0
   37.0720   25.6970   32.9540 C   0  0  0  0  0  0  0  0  0  0  0  0
   37.7710   24.6750   33.3880 N   0  0  0  0  0  0  0  0  0  0  0  0
   36.7990   21.9740   31.1820 N   0  0  0  0  0  0  0  0  0  0  0  0
   35.8470   21.0230   31.0500 C   0  0  0  0  0  0  0  0  0  0  0  0
   36.3290   19.9570   30.3960 N   0  0  0  0  0  0  0  0  0  0  0  0
   37.6360   20.2490   30.1060 C   0  0  0  0  0  0  0  0  0  0  0  0
   37.8650   21.4780   30.6030 N   0  0  0  0  0  0  0  0  0  0  0  0
   37.9800   21.9340   34.7720 C   0  0  1  0  0  0  0  0  0  0  0  0
   38.3450   22.4380   36.0220 C   0  0  0  0  0  0  0  0  0  0  0  0
   39.6380   22.2840   36.5500 C   0  0  0  0  0  0  0  0  0  0  0  0
   40.0790   22.7370   37.7720 C   0  0  0  0  0  0  0  0  0  0  0  0
   39.2070   23.3950   38.5510 N   0  0  0  0  0  0  0  0  0  0  0  0
   37.9580   23.5660   38.0840 C   0  0  0  0  0  0  0  0  0  0  0  0
   37.5560   23.1110   36.8870 N   0  0  0  0  0  0  0  0  0  0  0  0
   36.6200   21.7710   34.6390 O   0  0  0  0  0  0  0  0  0  0  0  0
   35.8270   20.7720   35.0770 C   0  0  0  0  0  0  0  0  0  0  0  0
   35.4640   20.6650   36.4500 N   0  0  0  0  0  0  0  0  0  0  0  0
   35.4530   19.9640   34.1380 O   0  0  0  0  0  0  0  0  0  0  0  0
   39.5260   22.9763   33.7178 H   0  0  0  0  0  0  0  0  0  0  0  0
   38.7027   21.6393   32.7933 H   0  0  0  0  0  0  0  0  0  0  0  0
   35.4191   24.2363   30.4340 H   0  0  0  0  0  0  0  0  0  0  0  0
   37.1700   26.6758   33.4463 H   0  0  0  0  0  0  0  0  0  0  0  0
   34.8177   21.1120   31.4277 H   0  0  0  0  0  0  0  0  0  0  0  0
   38.3537   19.6074   29.5738 H   0  0  0  0  0  0  0  0  0  0  0  0
   38.5160   20.9766   34.8492 H   0  0  0  0  0  0  0  0  0  0  0  0
   40.3688   21.7492   35.9256 H   0  0  0  0  0  0  0  0  0  0  0  0
   41.1147   22.5650   38.1003 H   0  0  0  0  0  0  0  0  0  0  0  0
   37.2321   24.1035   38.7118 H   0  0  0  0  0  0  0  0  0  0  0  0
   34.8572   19.8941   36.7637 H   0  0  0  0  0  0  0  0  0  0  0  0
   35.8083   21.3585   37.1293 H   0  0  0  0  0  0  0  0  0  0  0  0
  1 13  1  0
  2  7  2  0
  2  1  1  0
  3  2  1  0
  4  3  2  0
  4  5  1  0
  5  6  2  0
  6  7  1  0
  8  3  1  0
  9  8  1  0
 10  9  2  0
 11 10  1  0
 11 12  2  0
 12  8  1  0
 13 14  1  0
 14 15  2  0
 14 19  1  0
 15 16  1  0
 16 17  2  0
 18 17  1  0
 19 18  2  0
 20 13  1  0
 20 21  1  0
 21 22  1  0
 23 21  2  0
  1 24  1  0
  1 25  1  0
  4 26  1  0
  6 27  1  0
  9 28  1  0
 11 29  1  0
 13 30  1  1
 15 31  1  0
 16 32  1  0
 18 33  1  0
 22 34  1  0
 22 35  1  0
M  ISO  8  24   8  25   8  26  14  27  14  28  14  29  14  30   8  31  14
M  ISO  2  32  14  33  14
M  END
>  <minimizedAffinity>  (1) 
-5.1895833

>  <minimizedRMSD>  (1) 
1.60812843

$$$$
