
     RDKit          3D

 34 36  0  0  1  0  0  0  0  0999 V2000
   38.5760   22.4730   33.6810 C   0  0  0  0  0  0  0  0  0  0  0  0
   37.7590   23.4990   33.0720 C   0  0  0  0  0  0  0  0  0  0  0  0
   36.9070   23.3830   31.9930 C   0  0  0  0  0  0  0  0  0  0  0  0
   36.2020   24.5280   31.5530 C   0  0  0  0  0  0  0  0  0  0  0  0
   36.4000   25.7000   32.2220 N   0  0  0  0  0  0  0  0  0  0  0  0
   37.2280   25.7760   33.2560 C   0  0  0  0  0  0  0  0  0  0  0  0
   37.8850   24.7040   33.6630 N   0  0  0  0  0  0  0  0  0  0  0  0
   36.7840   22.1230   31.3720 N   0  0  0  0  0  0  0  0  0  0  0  0
   35.7840   21.2170   31.2350 C   0  0  0  0  0  0  0  0  0  0  0  0
   36.2080   20.1540   30.5380 N   0  0  0  0  0  0  0  0  0  0  0  0
   37.5190   20.3970   30.2270 C   0  0  0  0  0  0  0  0  0  0  0  0
   37.8120   21.6010   30.7560 N   0  0  0  0  0  0  0  0  0  0  0  0
   38.0030   21.9820   35.0040 C   0  0  1  0  0  0  0  0  0  0  0  0
   38.4450   22.5040   36.2190 C   0  0  0  0  0  0  0  0  0  0  0  0
   37.7660   23.3520   37.1070 C   0  0  0  0  0  0  0  0  0  0  0  0
   38.5320   23.6420   38.1860 C   0  0  0  0  0  0  0  0  0  0  0  0
   39.6860   22.9660   37.9530 C   0  0  0  0  0  0  0  0  0  0  0  0
   39.6040   22.3340   36.8360 O   0  0  0  0  0  0  0  0  0  0  0  0
   36.6320   21.8760   34.9140 O   0  0  0  0  0  0  0  0  0  0  0  0
   35.8250   20.8490   35.2650 C   0  0  0  0  0  0  0  0  0  0  0  0
   35.3830   20.6870   36.6080 N   0  0  0  0  0  0  0  0  0  0  0  0
   35.5220   20.0780   34.2720 O   0  0  0  0  0  0  0  0  0  0  0  0
   39.5807   22.8828   33.8618 H   0  0  0  0  0  0  0  0  0  0  0  0
   38.6074   21.6167   32.9913 H   0  0  0  0  0  0  0  0  0  0  0  0
   35.5142   24.4746   30.6962 H   0  0  0  0  0  0  0  0  0  0  0  0
   37.3681   26.7349   33.7764 H   0  0  0  0  0  0  0  0  0  0  0  0
   34.7681   21.3378   31.6391 H   0  0  0  0  0  0  0  0  0  0  0  0
   38.1963   19.7416   29.6598 H   0  0  0  0  0  0  0  0  0  0  0  0
   38.4824   20.9970   35.1034 H   0  0  0  0  0  0  0  0  0  0  0  0
   36.7458   23.7314   36.9479 H   0  0  0  0  0  0  0  0  0  0  0  0
   38.2785   24.2762   39.0483 H   0  0  0  0  0  0  0  0  0  0  0  0
   40.5606   22.9598   38.6201 H   0  0  0  0  0  0  0  0  0  0  0  0
   34.7686   19.8985   36.8564 H   0  0  0  0  0  0  0  0  0  0  0  0
   35.6775   21.3582   37.3316 H   0  0  0  0  0  0  0  0  0  0  0  0
  1 13  1  0
  2  7  2  0
  2  1  1  0
  3  2  1  0
  4  3  2  0
  4  5  1  0
  5  6  2  0
  6  7  1  0
  8  3  1  0
  9  8  1  0
 10  9  2  0
 11 10  1  0
 11 12  2  0
 12  8  1  0
 13 14  1  0
 14 18  1  0
 14 15  2  0
 15 16  1  0
 17 16  2  0
 18 17  1  0
 19 13  1  0
 19 20  1  0
 20 21  1  0
 22 20  2  0
  1 23  1  0
  1 24  1  0
  4 25  1  0
  6 26  1  0
  9 27  1  0
 11 28  1  0
 13 29  1  1
 15 30  1  0
 16 31  1  0
 17 32  1  0
 21 33  1  0
 21 34  1  0
M  ISO  8  23   8  24   8  25  14  26  14  27  14  28  14  29   8  30  14
M  ISO  2  31  14  32  14
M  END
>  <minimizedAffinity>  (1) 
-4.95562077

>  <minimizedRMSD>  (1) 
1.25842714

$$$$
