
     RDKit          3D

 33 35  0  0  1  0  0  0  0  0999 V2000
   38.5980   22.3700   33.6630 C   0  0  0  0  0  0  0  0  0  0  0  0
   37.7780   23.4030   33.0730 C   0  0  0  0  0  0  0  0  0  0  0  0
   36.8890   23.3150   32.0240 C   0  0  0  0  0  0  0  0  0  0  0  0
   36.1940   24.4690   31.6060 C   0  0  0  0  0  0  0  0  0  0  0  0
   36.4350   25.6360   32.2700 N   0  0  0  0  0  0  0  0  0  0  0  0
   37.2950   25.6980   33.2770 C   0  0  0  0  0  0  0  0  0  0  0  0
   37.9470   24.6140   33.6680 N   0  0  0  0  0  0  0  0  0  0  0  0
   36.7270   22.0520   31.4110 N   0  0  0  0  0  0  0  0  0  0  0  0
   35.7030   21.1670   31.3070 C   0  0  0  0  0  0  0  0  0  0  0  0
   36.0990   20.0950   30.5940 N   0  0  0  0  0  0  0  0  0  0  0  0
   37.3940   20.3130   30.2460 C   0  0  0  0  0  0  0  0  0  0  0  0
   37.7260   21.5120   30.7650 N   0  0  0  0  0  0  0  0  0  0  0  0
   38.0400   21.8860   35.0040 C   0  0  1  0  0  0  0  0  0  0  0  0
   38.5650   22.3820   36.1680 N   0  0  0  0  0  0  0  0  0  0  0  0
   38.0320   23.1840   37.1120 C   0  0  0  0  0  0  0  0  0  0  0  0
   38.9190   23.4020   38.0690 N   0  0  0  0  0  0  0  0  0  0  0  0
   40.0340   22.7440   37.7580 C   0  0  0  0  0  0  0  0  0  0  0  0
   39.8110   22.1280   36.6040 N   0  0  0  0  0  0  0  0  0  0  0  0
   36.6710   21.8590   34.9670 O   0  0  0  0  0  0  0  0  0  0  0  0
   35.8200   20.8710   35.3220 C   0  0  0  0  0  0  0  0  0  0  0  0
   35.3780   20.7180   36.6640 N   0  0  0  0  0  0  0  0  0  0  0  0
   35.4720   20.1200   34.3280 O   0  0  0  0  0  0  0  0  0  0  0  0
   39.6102   22.7694   33.8236 H   0  0  0  0  0  0  0  0  0  0  0  0
   38.6112   21.5133   32.9731 H   0  0  0  0  0  0  0  0  0  0  0  0
   35.4797   24.4292   30.7704 H   0  0  0  0  0  0  0  0  0  0  0  0
   37.4679   26.6553   33.7905 H   0  0  0  0  0  0  0  0  0  0  0  0
   34.7011   21.3045   31.7397 H   0  0  0  0  0  0  0  0  0  0  0  0
   38.0415   19.6453   29.6587 H   0  0  0  0  0  0  0  0  0  0  0  0
   38.4317   20.8614   35.0868 H   0  0  0  0  0  0  0  0  0  0  0  0
   37.0121   23.5955   37.0897 H   0  0  0  0  0  0  0  0  0  0  0  0
   40.9633   22.7163   38.3459 H   0  0  0  0  0  0  0  0  0  0  0  0
   34.7291   19.9565   36.9088 H   0  0  0  0  0  0  0  0  0  0  0  0
   35.7066   21.3686   37.3918 H   0  0  0  0  0  0  0  0  0  0  0  0
  1 13  1  0
  2  1  1  0
  2  7  2  0
  3  2  1  0
  4  3  2  0
  4  5  1  0
  5  6  2  0
  6  7  1  0
  8  3  1  0
  9  8  1  0
 10  9  2  0
 11 10  1  0
 11 12  2  0
 12  8  1  0
 13 14  1  0
 14 18  1  0
 14 15  1  0
 15 16  2  0
 17 16  1  0
 18 17  2  0
 19 13  1  0
 19 20  1  0
 20 21  1  0
 22 20  2  0
  1 23  1  0
  1 24  1  0
  4 25  1  0
  6 26  1  0
  9 27  1  0
 11 28  1  0
 13 29  1  1
 15 30  1  0
 17 31  1  0
 21 32  1  0
 21 33  1  0
M  ISO  8  23   8  24   8  25  14  26  14  27  14  28  14  29   8  30  14
M  ISO  1  31  14
M  END
>  <minimizedAffinity>  (1) 
-4.8710351

>  <minimizedRMSD>  (1) 
1.26501691

$$$$
