
     RDKit          3D

 38 41  0  0  1  0  0  0  0  0999 V2000
   38.7730   22.4430   33.2810 C   0  0  0  0  0  0  0  0  0  0  0  0
   37.8190   23.3880   32.7520 C   0  0  0  0  0  0  0  0  0  0  0  0
   36.8800   23.1960   31.7590 C   0  0  0  0  0  0  0  0  0  0  0  0
   36.0420   24.2650   31.3850 C   0  0  0  0  0  0  0  0  0  0  0  0
   36.1980   25.4590   32.0310 N   0  0  0  0  0  0  0  0  0  0  0  0
   37.1120   25.6150   32.9830 C   0  0  0  0  0  0  0  0  0  0  0  0
   37.8980   24.6110   33.3330 N   0  0  0  0  0  0  0  0  0  0  0  0
   36.8130   21.9190   31.1570 N   0  0  0  0  0  0  0  0  0  0  0  0
   35.8530   20.9690   31.0310 C   0  0  0  0  0  0  0  0  0  0  0  0
   36.3290   19.9150   30.3500 N   0  0  0  0  0  0  0  0  0  0  0  0
   37.6230   20.2100   30.0390 C   0  0  0  0  0  0  0  0  0  0  0  0
   37.8720   21.4370   30.5500 N   0  0  0  0  0  0  0  0  0  0  0  0
   38.2890   21.8000   34.5820 C   0  0  1  0  0  0  0  0  0  0  0  0
   38.9610   22.0910   35.7270 N   0  0  0  0  0  0  0  0  0  0  0  0
   40.1660   21.6300   36.1160 C   0  0  0  0  0  0  0  0  0  0  0  0
   40.5110   22.1270   37.2900 N   0  0  0  0  0  0  0  0  0  0  0  0
   39.5380   22.9340   37.7090 C   0  0  0  0  0  0  0  0  0  0  0  0
   39.2770   23.7420   38.8180 C   0  0  0  0  0  0  0  0  0  0  0  0
   38.1710   24.4740   38.9800 N   0  0  0  0  0  0  0  0  0  0  0  0
   37.2420   24.4210   37.9870 C   0  0  0  0  0  0  0  0  0  0  0  0
   37.4420   23.6560   36.8930 N   0  0  0  0  0  0  0  0  0  0  0  0
   38.5680   22.9110   36.7290 C   0  0  0  0  0  0  0  0  0  0  0  0
   36.9170   21.8760   34.6670 O   0  0  0  0  0  0  0  0  0  0  0  0
   36.0420   20.9350   35.1030 C   0  0  0  0  0  0  0  0  0  0  0  0
   35.7210   20.8100   36.4840 N   0  0  0  0  0  0  0  0  0  0  0  0
   35.5630   20.2110   34.1480 O   0  0  0  0  0  0  0  0  0  0  0  0
   39.7201   22.9673   33.4760 H   0  0  0  0  0  0  0  0  0  0  0  0
   38.9039   21.6431   32.5373 H   0  0  0  0  0  0  0  0  0  0  0  0
   35.2848   24.1422   30.5966 H   0  0  0  0  0  0  0  0  0  0  0  0
   37.2156   26.5885   33.4845 H   0  0  0  0  0  0  0  0  0  0  0  0
   34.8311   21.0507   31.4297 H   0  0  0  0  0  0  0  0  0  0  0  0
   38.3268   19.5744   29.4816 H   0  0  0  0  0  0  0  0  0  0  0  0
   38.5743   20.7409   34.4995 H   0  0  0  0  0  0  0  0  0  0  0  0
   40.7822   20.9307   35.5317 H   0  0  0  0  0  0  0  0  0  0  0  0
   40.0353   23.7783   39.6140 H   0  0  0  0  0  0  0  0  0  0  0  0
   36.3166   25.0089   38.0770 H   0  0  0  0  0  0  0  0  0  0  0  0
   35.0542   20.0890   36.7945 H   0  0  0  0  0  0  0  0  0  0  0  0
   36.1555   21.4406   37.1728 H   0  0  0  0  0  0  0  0  0  0  0  0
  1 13  1  0
  2  1  1  0
  2  7  2  0
  3  2  1  0
  4  3  2  0
  4  5  1  0
  5  6  2  0
  6  7  1  0
  8  3  1  0
  9  8  1  0
 10  9  2  0
 11 10  1  0
 11 12  2  0
 12  8  1  0
 13 23  1  0
 13 14  1  0
 14 15  1  0
 14 22  1  0
 15 16  2  0
 16 17  1  0
 17 18  2  0
 18 19  1  0
 20 19  2  0
 21 20  1  0
 22 21  2  0
 22 17  1  0
 23 24  1  0
 24 25  1  0
 26 24  2  0
  1 27  1  0
  1 28  1  0
  4 29  1  0
  6 30  1  0
  9 31  1  0
 11 32  1  0
 13 33  1  6
 15 34  1  0
 18 35  1  0
 20 36  1  0
 25 37  1  0
 25 38  1  0
M  ISO  8  27   8  28   8  29  14  30  14  31  14  32  14  33   8  34  14
M  ISO  2  35  14  36  14
M  END
>  <minimizedAffinity>  (1) 
-4.85754395

>  <minimizedRMSD>  (1) 
1.68707001

$$$$
