
     RDKit          3D

 41 43  0  0  1  0  0  0  0  0999 V2000
   38.5060   22.3580   33.6220 C   0  0  0  0  0  0  0  0  0  0  0  0
   37.6770   23.3800   33.0140 C   0  0  0  0  0  0  0  0  0  0  0  0
   36.7610   23.2490   31.9920 C   0  0  0  0  0  0  0  0  0  0  0  0
   36.0660   24.3950   31.5430 C   0  0  0  0  0  0  0  0  0  0  0  0
   36.3340   25.5890   32.1460 N   0  0  0  0  0  0  0  0  0  0  0  0
   37.2240   25.6790   33.1300 C   0  0  0  0  0  0  0  0  0  0  0  0
   37.8720   24.6110   33.5470 N   0  0  0  0  0  0  0  0  0  0  0  0
   36.5660   21.9660   31.4400 N   0  0  0  0  0  0  0  0  0  0  0  0
   35.5330   21.0820   31.4140 C   0  0  0  0  0  0  0  0  0  0  0  0
   35.8870   19.9790   30.7320 N   0  0  0  0  0  0  0  0  0  0  0  0
   37.1690   20.1740   30.3210 C   0  0  0  0  0  0  0  0  0  0  0  0
   37.5350   21.3920   30.7750 N   0  0  0  0  0  0  0  0  0  0  0  0
   38.0440   22.0220   35.0410 C   0  0  1  0  0  0  0  0  0  0  0  0
   38.6110   22.6410   36.0990 N   0  0  0  0  0  0  0  0  0  0  0  0
   39.6390   22.0450   36.8760 C   0  0  0  0  0  0  0  0  0  0  0  0
   40.1500   23.0520   37.9150 C   0  0  0  0  0  0  0  0  0  0  0  0
   39.1450   23.3520   38.9090 N   0  0  0  0  0  0  0  0  0  0  0  0
   37.8490   23.0800   38.3130 C   0  0  0  0  0  0  0  0  0  0  0  0
   37.8840   23.5890   36.8860 C   0  0  0  0  0  0  0  0  0  0  0  0
   36.6750   21.9570   35.0870 O   0  0  0  0  0  0  0  0  0  0  0  0
   35.8650   20.9420   35.4520 C   0  0  0  0  0  0  0  0  0  0  0  0
   35.4640   20.7610   36.8070 N   0  0  0  0  0  0  0  0  0  0  0  0
   35.5100   20.1860   34.4620 O   0  0  0  0  0  0  0  0  0  0  0  0
   39.5444   22.7188   33.6616 H   0  0  0  0  0  0  0  0  0  0  0  0
   38.4274   21.4461   33.0118 H   0  0  0  0  0  0  0  0  0  0  0  0
   35.3290   24.3259   30.7294 H   0  0  0  0  0  0  0  0  0  0  0  0
   37.4207   26.6540   33.5997 H   0  0  0  0  0  0  0  0  0  0  0  0
   34.5513   21.2456   31.8825 H   0  0  0  0  0  0  0  0  0  0  0  0
   37.7858   19.4771   29.7346 H   0  0  0  0  0  0  0  0  0  0  0  0
   38.4801   21.0273   35.2157 H   0  0  0  0  0  0  0  0  0  0  0  0
   39.2410   21.1582   37.3909 H   0  0  0  0  0  0  0  0  0  0  0  0
   40.4684   21.7478   36.2174 H   0  0  0  0  0  0  0  0  0  0  0  0
   41.0327   22.6291   38.4171 H   0  0  0  0  0  0  0  0  0  0  0  0
   40.4034   23.9856   37.3914 H   0  0  0  0  0  0  0  0  0  0  0  0
   39.2824   22.7577   39.7389 H   0  0  0  0  0  0  0  0  0  0  0  0
   37.6527   21.9977   38.3203 H   0  0  0  0  0  0  0  0  0  0  0  0
   37.0504   23.5792   38.8814 H   0  0  0  0  0  0  0  0  0  0  0  0
   38.3856   24.5673   36.8503 H   0  0  0  0  0  0  0  0  0  0  0  0
   36.8622   23.7075   36.4962 H   0  0  0  0  0  0  0  0  0  0  0  0
   34.8447   19.9780   37.0606 H   0  0  0  0  0  0  0  0  0  0  0  0
   35.7934   21.4131   37.5331 H   0  0  0  0  0  0  0  0  0  0  0  0
  1 13  1  0
  2  7  2  0
  2  1  1  0
  3  2  1  0
  4  3  2  0
  4  5  1  0
  5  6  2  0
  6  7  1  0
  8  3  1  0
  9  8  1  0
 10  9  2  0
 11 10  1  0
 11 12  2  0
 12  8  1  0
 13 20  1  0
 13 14  1  0
 14 15  1  0
 14 19  1  0
 15 16  1  0
 16 17  1  0
 18 17  1  0
 19 18  1  0
 20 21  1  0
 21 22  1  0
 23 21  2  0
  1 24  1  0
  1 25  1  0
  4 26  1  0
  6 27  1  0
  9 28  1  0
 11 29  1  0
 13 30  1  1
 15 31  1  0
 15 32  1  0
 16 33  1  0
 16 34  1  0
 17 35  1  0
 18 36  1  0
 18 37  1  0
 19 38  1  0
 19 39  1  0
 22 40  1  0
 22 41  1  0
M  ISO  8  24   8  25   8  26  14  27  14  28  14  29  14  30   8  31  13
M  ISO  8  32  13  33  13  34  13  35   5  36  13  37  13  38  13  39  13
M  END
>  <minimizedAffinity>  (1) 
-5.07533264

>  <minimizedRMSD>  (1) 
1.19968677

$$$$
