
     RDKit          3D

 41 44  0  0  1  0  0  0  0  0999 V2000
   38.7980   22.5370   33.3080 C   0  0  0  0  0  0  0  0  0  0  0  0
   37.8350   23.4770   32.7790 C   0  0  0  0  0  0  0  0  0  0  0  0
   36.9010   23.2650   31.7820 C   0  0  0  0  0  0  0  0  0  0  0  0
   36.0520   24.3300   31.4060 C   0  0  0  0  0  0  0  0  0  0  0  0
   36.1940   25.5250   32.0500 N   0  0  0  0  0  0  0  0  0  0  0  0
   37.1070   25.6900   33.0090 C   0  0  0  0  0  0  0  0  0  0  0  0
   37.8910   24.6930   33.3490 N   0  0  0  0  0  0  0  0  0  0  0  0
   36.8440   21.9900   31.1810 N   0  0  0  0  0  0  0  0  0  0  0  0
   35.8790   21.0460   31.0270 C   0  0  0  0  0  0  0  0  0  0  0  0
   36.3670   19.9870   30.3640 N   0  0  0  0  0  0  0  0  0  0  0  0
   37.6740   20.2720   30.0940 C   0  0  0  0  0  0  0  0  0  0  0  0
   37.9190   21.4990   30.6080 N   0  0  0  0  0  0  0  0  0  0  0  0
   38.3070   21.8550   34.5780 C   0  0  1  0  0  0  0  0  0  0  0  0
   38.9210   22.0970   35.8050 C   0  0  0  0  0  0  0  0  0  0  0  0
   40.0490   21.5430   36.4250 C   0  0  0  0  0  0  0  0  0  0  0  0
   40.3140   22.0710   37.6210 N   0  0  0  0  0  0  0  0  0  0  0  0
   39.3970   22.9930   37.8700 C   0  0  0  0  0  0  0  0  0  0  0  0
   39.1990   23.8320   38.9450 C   0  0  0  0  0  0  0  0  0  0  0  0
   38.1590   24.7270   38.9880 C   0  0  0  0  0  0  0  0  0  0  0  0
   37.3010   24.7800   37.9290 C   0  0  0  0  0  0  0  0  0  0  0  0
   37.5010   23.9460   36.8640 C   0  0  0  0  0  0  0  0  0  0  0  0
   38.5520   23.0240   36.7920 C   0  0  0  0  0  0  0  0  0  0  0  0
   36.9290   21.8950   34.6380 O   0  0  0  0  0  0  0  0  0  0  0  0
   36.0660   20.9350   35.0430 C   0  0  0  0  0  0  0  0  0  0  0  0
   35.7300   20.7860   36.4190 N   0  0  0  0  0  0  0  0  0  0  0  0
   35.6090   20.2130   34.0730 O   0  0  0  0  0  0  0  0  0  0  0  0
   39.7300   23.0758   33.5342 H   0  0  0  0  0  0  0  0  0  0  0  0
   38.9571   21.7571   32.5488 H   0  0  0  0  0  0  0  0  0  0  0  0
   35.2975   24.1997   30.6162 H   0  0  0  0  0  0  0  0  0  0  0  0
   37.2030   26.6619   33.5151 H   0  0  0  0  0  0  0  0  0  0  0  0
   34.8458   21.1371   31.3934 H   0  0  0  0  0  0  0  0  0  0  0  0
   38.3897   19.6285   29.5615 H   0  0  0  0  0  0  0  0  0  0  0  0
   38.6783   20.8294   34.4358 H   0  0  0  0  0  0  0  0  0  0  0  0
   40.6579   20.7485   35.9689 H   0  0  0  0  0  0  0  0  0  0  0  0
   41.0936   21.8081   38.2407 H   0  0  0  0  0  0  0  0  0  0  0  0
   39.8957   23.7831   39.7948 H   0  0  0  0  0  0  0  0  0  0  0  0
   38.0207   25.3868   39.8572 H   0  0  0  0  0  0  0  0  0  0  0  0
   36.4574   25.4859   37.9317 H   0  0  0  0  0  0  0  0  0  0  0  0
   36.7989   24.0025   36.0191 H   0  0  0  0  0  0  0  0  0  0  0  0
   35.0713   20.0502   36.7115 H   0  0  0  0  0  0  0  0  0  0  0  0
   36.1457   21.4141   37.1216 H   0  0  0  0  0  0  0  0  0  0  0  0
  1 13  1  0
  2  1  1  0
  2  7  2  0
  3  2  1  0
  4  3  2  0
  4  5  1  0
  5  6  2  0
  6  7  1  0
  8  3  1  0
  9  8  1  0
 10  9  2  0
 11 10  1  0
 11 12  2  0
 12  8  1  0
 13 23  1  0
 13 14  1  0
 14 15  2  0
 14 22  1  0
 15 16  1  0
 16 17  1  0
 17 18  2  0
 18 19  1  0
 20 19  2  0
 21 20  1  0
 22 21  2  0
 22 17  1  0
 23 24  1  0
 24 25  1  0
 26 24  2  0
  1 27  1  0
  1 28  1  0
  4 29  1  0
  6 30  1  0
  9 31  1  0
 11 32  1  0
 13 33  1  6
 15 34  1  0
 16 35  1  0
 18 36  1  0
 19 37  1  0
 20 38  1  0
 21 39  1  0
 25 40  1  0
 25 41  1  0
M  ISO  8  27   8  28   8  29  14  30  14  31  14  32  14  33   8  34  14
M  ISO  5  35   9  36  14  37  14  38  14  39  14
M  END
>  <minimizedAffinity>  (1) 
-5.14732027

>  <minimizedRMSD>  (1) 
1.61029601

$$$$
