
     RDKit          3D

 28 29  0  0  1  0  0  0  0  0999 V2000
   37.8390   23.3530   33.6720 C   0  0  0  0  0  0  0  0  0  0  0  0
   37.0290   23.4360   32.5570 C   0  0  0  0  0  0  0  0  0  0  0  0
   36.6010   24.7040   32.1070 C   0  0  0  0  0  0  0  0  0  0  0  0
   37.0150   25.7970   32.8050 N   0  0  0  0  0  0  0  0  0  0  0  0
   37.7890   25.7000   33.8680 C   0  0  0  0  0  0  0  0  0  0  0  0
   38.1930   24.5090   34.2920 N   0  0  0  0  0  0  0  0  0  0  0  0
   36.6780   22.2310   31.9130 N   0  0  0  0  0  0  0  0  0  0  0  0
   35.5780   21.4460   31.8880 C   0  0  0  0  0  0  0  0  0  0  0  0
   35.7800   20.3830   31.0900 N   0  0  0  0  0  0  0  0  0  0  0  0
   37.0450   20.5060   30.5990 C   0  0  0  0  0  0  0  0  0  0  0  0
   37.5430   21.6420   31.1290 N   0  0  0  0  0  0  0  0  0  0  0  0
   38.3970   22.1820   34.3020 C   0  0  0  0  0  0  0  0  0  0  0  0
   37.9880   22.0490   35.7620 C   0  0  1  0  0  0  0  0  0  0  0  0
   38.7760   22.9500   36.9870 S   0  0  0  0  0  0  0  0  0  0  0  0
   36.6160   22.0680   35.8690 O   0  0  0  0  0  0  0  0  0  0  0  0
   35.7460   21.0430   36.0510 C   0  0  0  0  0  0  0  0  0  0  0  0
   35.1730   20.7920   37.3260 N   0  0  0  0  0  0  0  0  0  0  0  0
   35.5140   20.3640   34.9720 O   0  0  0  0  0  0  0  0  0  0  0  0
   35.9550   24.8053   31.2225 H   0  0  0  0  0  0  0  0  0  0  0  0
   38.1006   26.6083   34.4046 H   0  0  0  0  0  0  0  0  0  0  0  0
   34.6494   21.6481   32.4419 H   0  0  0  0  0  0  0  0  0  0  0  0
   37.5566   19.8181   29.9098 H   0  0  0  0  0  0  0  0  0  0  0  0
   38.0516   21.2910   33.7572 H   0  0  0  0  0  0  0  0  0  0  0  0
   39.4923   22.2784   34.2714 H   0  0  0  0  0  0  0  0  0  0  0  0
   38.4080   21.0663   36.0225 H   0  0  0  0  0  0  0  0  0  0  0  0
   38.3779   22.4948   38.2163 H   0  0  0  0  0  0  0  0  0  0  0  0
   34.5139   20.0102   37.4495 H   0  0  0  0  0  0  0  0  0  0  0  0
   35.4165   21.3918   38.1272 H   0  0  0  0  0  0  0  0  0  0  0  0
  1  6  2  0
  1 12  1  0
  2  1  1  0
  3  2  2  0
  3  4  1  0
  4  5  2  0
  5  6  1  0
  7  2  1  0
  8  7  1  0
  9  8  2  0
 10  9  1  0
 10 11  2  0
 11  7  1  0
 12 13  1  0
 13 15  1  0
 13 14  1  0
 15 16  1  0
 16 17  1  0
 18 16  2  0
  3 19  1  0
  5 20  1  0
  8 21  1  0
 10 22  1  0
 12 23  1  0
 12 24  1  0
 13 25  1  1
 14 26  1  0
 17 27  1  0
 17 28  1  0
M  ISO  8  19  14  20  14  21  14  22  14  23   8  24   8  25   8  26  11
M  END
>  <minimizedAffinity>  (1) 
-4.05604219

>  <minimizedRMSD>  (1) 
0.510956466

$$$$
