
     RDKit          3D

 28 29  0  0  1  0  0  0  0  0999 V2000
   37.9640   23.3020   33.9690 C   0  0  0  0  0  0  0  0  0  0  0  0
   37.1910   23.5720   32.8610 C   0  0  0  0  0  0  0  0  0  0  0  0
   36.9810   24.9160   32.4770 C   0  0  0  0  0  0  0  0  0  0  0  0
   37.5600   25.8950   33.2300 N   0  0  0  0  0  0  0  0  0  0  0  0
   38.3010   25.6050   34.2920 C   0  0  0  0  0  0  0  0  0  0  0  0
   38.4980   24.3460   34.6530 N   0  0  0  0  0  0  0  0  0  0  0  0
   36.6450   22.4770   32.1600 N   0  0  0  0  0  0  0  0  0  0  0  0
   35.4390   21.8610   32.1330 C   0  0  0  0  0  0  0  0  0  0  0  0
   35.4450   20.8420   31.2660 N   0  0  0  0  0  0  0  0  0  0  0  0
   36.7070   20.8130   30.7240 C   0  0  0  0  0  0  0  0  0  0  0  0
   37.3860   21.8240   31.3030 N   0  0  0  0  0  0  0  0  0  0  0  0
   38.3170   22.0170   34.5320 C   0  0  0  0  0  0  0  0  0  0  0  0
   37.9250   21.9100   36.0060 C   0  0  1  0  0  0  0  0  0  0  0  0
   38.6100   22.5920   36.8650 O   0  0  0  0  0  0  0  0  0  0  0  0
   36.5650   21.9870   36.1450 O   0  0  0  0  0  0  0  0  0  0  0  0
   35.6530   20.9940   36.2450 C   0  0  0  0  0  0  0  0  0  0  0  0
   35.0270   20.6730   37.4850 N   0  0  0  0  0  0  0  0  0  0  0  0
   35.4220   20.3950   35.1250 O   0  0  0  0  0  0  0  0  0  0  0  0
   36.3691   25.1650   31.5975 H   0  0  0  0  0  0  0  0  0  0  0  0
   38.7557   26.4175   34.8777 H   0  0  0  0  0  0  0  0  0  0  0  0
   34.5721   22.1582   32.7414 H   0  0  0  0  0  0  0  0  0  0  0  0
   37.0868   20.1077   29.9701 H   0  0  0  0  0  0  0  0  0  0  0  0
   37.7980   21.2277   33.9684 H   0  0  0  0  0  0  0  0  0  0  0  0
   39.4089   21.9038   34.4618 H   0  0  0  0  0  0  0  0  0  0  0  0
   38.2443   20.9027   36.3115 H   0  0  0  0  0  0  0  0  0  0  0  0
   38.3454   22.3286   37.7819 H   0  0  0  0  0  0  0  0  0  0  0  0
   34.3356   19.9109   37.5308 H   0  0  0  0  0  0  0  0  0  0  0  0
   35.2661   21.2032   38.3351 H   0  0  0  0  0  0  0  0  0  0  0  0
  1 12  1  0
  1  6  2  0
  2  1  1  0
  3  2  2  0
  3  4  1  0
  4  5  2  0
  5  6  1  0
  7  2  1  0
  8  7  1  0
  9  8  2  0
 10  9  1  0
 10 11  2  0
 11  7  1  0
 12 13  1  0
 13 15  1  0
 13 14  1  0
 15 16  1  0
 16 17  1  0
 18 16  2  0
  3 19  1  0
  5 20  1  0
  8 21  1  0
 10 22  1  0
 12 23  1  0
 12 24  1  0
 13 25  1  1
 14 26  1  0
 17 27  1  0
 17 28  1  0
M  ISO  8  19  14  20  14  21  14  22  14  23   8  24   8  25   8  26   3
M  END
>  <minimizedAffinity>  (1) 
-4.23997068

>  <minimizedRMSD>  (1) 
0.232856423

$$$$
