
     RDKit          3D

 32 34  0  0  1  0  0  0  0  0999 V2000
   38.5420   22.5810   33.6820 C   0  0  0  0  0  0  0  0  0  0  0  0
   37.7530   23.6010   33.0340 C   0  0  0  0  0  0  0  0  0  0  0  0
   36.9470   23.4700   31.9170 C   0  0  0  0  0  0  0  0  0  0  0  0
   36.2560   24.6040   31.4350 C   0  0  0  0  0  0  0  0  0  0  0  0
   36.4210   25.7850   32.1000 N   0  0  0  0  0  0  0  0  0  0  0  0
   37.2050   25.8710   33.1720 C   0  0  0  0  0  0  0  0  0  0  0  0
   37.8390   24.8030   33.6050 N   0  0  0  0  0  0  0  0  0  0  0  0
   36.8490   22.1980   31.3090 N   0  0  0  0  0  0  0  0  0  0  0  0
   35.8570   21.2860   31.1570 C   0  0  0  0  0  0  0  0  0  0  0  0
   36.3200   20.2160   30.4830 N   0  0  0  0  0  0  0  0  0  0  0  0
   37.6340   20.4710   30.2110 C   0  0  0  0  0  0  0  0  0  0  0  0
   37.8970   21.6740   30.7300 N   0  0  0  0  0  0  0  0  0  0  0  0
   37.8610   22.0020   34.9110 C   0  0  1  0  0  0  0  0  0  0  0  0
   38.1010   22.5440   36.1750 C   0  0  0  0  0  0  0  0  0  0  0  0
   39.3960   22.4580   36.5570 N   0  0  0  0  0  0  0  0  0  0  0  0
   39.5530   22.9880   37.7280 O   0  0  0  0  0  0  0  0  0  0  0  0
   38.4190   23.4240   38.1440 C   0  0  0  0  0  0  0  0  0  0  0  0
   37.4980   23.1670   37.2080 N   0  0  0  0  0  0  0  0  0  0  0  0
   36.5290   21.7530   34.6360 O   0  0  0  0  0  0  0  0  0  0  0  0
   35.7340   20.7580   35.0940 C   0  0  0  0  0  0  0  0  0  0  0  0
   35.2400   20.7690   36.4270 N   0  0  0  0  0  0  0  0  0  0  0  0
   35.4940   19.8490   34.2070 O   0  0  0  0  0  0  0  0  0  0  0  0
   39.5030   23.0208   33.9871 H   0  0  0  0  0  0  0  0  0  0  0  0
   38.6790   21.7608   32.9619 H   0  0  0  0  0  0  0  0  0  0  0  0
   35.6049   24.5375   30.5509 H   0  0  0  0  0  0  0  0  0  0  0  0
   37.3224   26.8320   33.6942 H   0  0  0  0  0  0  0  0  0  0  0  0
   34.8283   21.4027   31.5286 H   0  0  0  0  0  0  0  0  0  0  0  0
   38.3355   19.8169   29.6724 H   0  0  0  0  0  0  0  0  0  0  0  0
   38.4087   21.0621   35.0741 H   0  0  0  0  0  0  0  0  0  0  0  0
   38.2358   23.9239   39.1066 H   0  0  0  0  0  0  0  0  0  0  0  0
   34.6361   20.0034   36.7587 H   0  0  0  0  0  0  0  0  0  0  0  0
   35.4860   21.5425   37.0610 H   0  0  0  0  0  0  0  0  0  0  0  0
  1 13  1  0
  2  7  2  0
  2  1  1  0
  3  2  1  0
  4  3  2  0
  4  5  1  0
  5  6  2  0
  6  7  1  0
  8  3  1  0
  9  8  1  0
 10  9  2  0
 11 10  1  0
 11 12  2  0
 12  8  1  0
 13 14  1  0
 14 15  2  0
 14 18  1  0
 15 16  1  0
 16 17  1  0
 18 17  2  0
 19 13  1  0
 19 20  1  0
 20 21  1  0
 22 20  2  0
  1 23  1  0
  1 24  1  0
  4 25  1  0
  6 26  1  0
  9 27  1  0
 11 28  1  0
 13 29  1  1
 17 30  1  0
 21 31  1  0
 21 32  1  0
M  ISO  8  23   8  24   8  25  14  26  14  27  14  28  14  29   8  30  14
M  END
>  <minimizedAffinity>  (1) 
-4.78330803

>  <minimizedRMSD>  (1) 
1.39657605

$$$$
