
     RDKit          3D

 43 47  0  0  1  0  0  0  0  0999 V2000
   38.9100   23.6720   35.2310 C   0  0  1  0  0  0  0  0  0  0  0  0
   38.2640   24.8020   35.9380 C   0  0  0  0  0  0  0  0  0  0  0  0
   37.5110   24.1170   37.0640 C   0  0  0  0  0  0  0  0  0  0  0  0
   38.4760   23.0940   37.5300 C   0  0  0  0  0  0  0  0  0  0  0  0
   39.2910   22.7160   36.3340 C   0  0  2  0  0  0  0  0  0  0  0  0
   40.7820   22.8910   36.5980 C   0  0  0  0  0  0  0  0  0  0  0  0
   41.6140   21.7650   35.9890 C   0  0  0  0  0  0  0  0  0  0  0  0
   41.5370   21.9790   37.4670 C   0  0  0  0  0  0  0  0  0  0  0  0
   37.5850   23.6560   33.1400 C   0  0  0  0  0  0  0  0  0  0  0  0
   36.8030   22.7820   32.4020 C   0  0  0  0  0  0  0  0  0  0  0  0
   36.8290   21.6130   33.1110 N   0  0  0  0  0  0  0  0  0  0  0  0
   37.5920   21.8310   34.1970 C   0  0  0  0  0  0  0  0  0  0  0  0
   38.0740   23.0730   34.2490 N   0  0  0  0  0  0  0  0  0  0  0  0
   37.8600   25.0440   32.7820 C   0  0  0  0  0  0  0  0  0  0  0  0
   39.0870   25.3750   32.1790 C   0  0  0  0  0  0  0  0  0  0  0  0
   39.2880   26.7460   31.8700 C   0  0  0  0  0  0  0  0  0  0  0  0
   38.3140   27.6330   32.1660 N   0  0  0  0  0  0  0  0  0  0  0  0
   37.1610   27.2630   32.7410 C   0  0  0  0  0  0  0  0  0  0  0  0
   36.9210   25.9710   33.0550 N   0  0  0  0  0  0  0  0  0  0  0  0
   36.1380   28.2070   33.0490 N   0  0  0  0  0  0  0  0  0  0  0  0
   35.9320   28.9120   34.1810 C   0  0  0  0  0  0  0  0  0  0  0  0
   34.8370   29.6730   33.9950 N   0  0  0  0  0  0  0  0  0  0  0  0
   34.3560   29.4490   32.7580 C   0  0  0  0  0  0  0  0  0  0  0  0
   35.1760   28.5310   32.1760 N   0  0  0  0  0  0  0  0  0  0  0  0
   39.7813   24.0019   34.6461 H   0  0  0  0  0  0  0  0  0  0  0  0
   39.0150   25.5018   36.3334 H   0  0  0  0  0  0  0  0  0  0  0  0
   37.6141   25.4051   35.2869 H   0  0  0  0  0  0  0  0  0  0  0  0
   37.2679   24.8276   37.8678 H   0  0  0  0  0  0  0  0  0  0  0  0
   36.5462   23.6935   36.7480 H   0  0  0  0  0  0  0  0  0  0  0  0
   39.1228   23.5098   38.3166 H   0  0  0  0  0  0  0  0  0  0  0  0
   37.9607   22.2210   37.9570 H   0  0  0  0  0  0  0  0  0  0  0  0
   39.1008   21.6628   36.0799 H   0  0  0  0  0  0  0  0  0  0  0  0
   40.7217   23.9893   36.5834 H   0  0  0  0  0  0  0  0  0  0  0  0
   41.1202   20.8972   35.5273 H   0  0  0  0  0  0  0  0  0  0  0  0
   42.4196   21.6943   35.2433 H   0  0  0  0  0  0  0  0  0  0  0  0
   42.4188   22.3498   38.0100 H   0  0  0  0  0  0  0  0  0  0  0  0
   41.2705   21.3386   38.3207 H   0  0  0  0  0  0  0  0  0  0  0  0
   36.2782   22.9836   31.4565 H   0  0  0  0  0  0  0  0  0  0  0  0
   37.7965   21.0662   34.9607 H   0  0  0  0  0  0  0  0  0  0  0  0
   39.8492   24.6131   31.9589 H   0  0  0  0  0  0  0  0  0  0  0  0
   40.2229   27.0805   31.3967 H   0  0  0  0  0  0  0  0  0  0  0  0
   36.5477   28.8721   35.0916 H   0  0  0  0  0  0  0  0  0  0  0  0
   33.4703   29.9177   32.3043 H   0  0  0  0  0  0  0  0  0  0  0  0
  1  2  1  0
  1  5  1  0
  2  3  1  0
  3  4  1  0
  5  6  1  0
  5  4  1  0
  6  8  1  0
  7  6  1  0
  7  8  1  0
  9 13  1  0
 10 11  1  0
 10  9  2  0
 11 12  2  0
 12 13  1  0
 13  1  1  0
 14 19  1  0
 14  9  1  0
 15 14  2  0
 16 17  2  0
 16 15  1  0
 17 18  1  0
 18 20  1  0
 18 19  2  0
 20 21  1  0
 22 21  2  0
 23 22  1  0
 24 23  2  0
 24 20  1  0
  1 25  1  6
  2 26  1  0
  2 27  1  0
  3 28  1  0
  3 29  1  0
  4 30  1  0
  4 31  1  0
  5 32  1  6
  6 33  1  0
  7 34  1  0
  7 35  1  0
  8 36  1  0
  8 37  1  0
 10 38  1  0
 12 39  1  0
 15 40  1  0
 16 41  1  0
 21 42  1  0
 23 43  1  0
M  ISO  8  25  13  26  13  27  13  28  13  29  13  30  13  31  13  32  13
M  ISO  8  33  13  34  13  35  13  36  13  37  13  38  14  39  14  40  14
M  ISO  3  41  14  42  14  43  14
M  END
>  <minimizedAffinity>  (1) 
-5.51758766

>  <minimizedRMSD>  (1) 
0.615676463

$$$$
