
     RDKit          3D

 40 43  0  0  1  0  0  0  0  0999 V2000
   38.3610   21.8000   34.7660 C   0  0  2  0  0  0  0  0  0  0  0  0
   39.3800   22.3870   35.4780 N   0  0  0  0  0  0  0  0  0  0  0  0
   39.3100   23.0910   36.6240 C   0  0  0  0  0  0  0  0  0  0  0  0
   40.5450   23.4730   36.9600 N   0  0  0  0  0  0  0  0  0  0  0  0
   41.4290   23.0360   36.0600 C   0  0  0  0  0  0  0  0  0  0  0  0
   42.7980   23.1500   35.9360 C   0  0  0  0  0  0  0  0  0  0  0  0
   43.3950   22.5700   34.8730 N   0  0  0  0  0  0  0  0  0  0  0  0
   42.6820   21.8900   33.9420 C   0  0  0  0  0  0  0  0  0  0  0  0
   41.3480   21.7930   34.0860 N   0  0  0  0  0  0  0  0  0  0  0  0
   40.6960   22.3570   35.1360 C   0  0  0  0  0  0  0  0  0  0  0  0
   43.5710   23.8580   36.8990 N   0  0  0  0  0  0  0  0  0  0  0  0
   38.3770   21.8540   33.2410 C   0  0  0  0  0  0  0  0  0  0  0  0
   37.4800   22.8520   32.7130 C   0  0  0  0  0  0  0  0  0  0  0  0
   36.3030   22.6890   32.0140 C   0  0  0  0  0  0  0  0  0  0  0  0
   35.5930   23.8280   31.5830 C   0  0  0  0  0  0  0  0  0  0  0  0
   36.1080   25.0560   31.8770 N   0  0  0  0  0  0  0  0  0  0  0  0
   37.2430   25.1890   32.5500 C   0  0  0  0  0  0  0  0  0  0  0  0
   37.9090   24.1200   32.9560 N   0  0  0  0  0  0  0  0  0  0  0  0
   35.8720   21.3700   31.7600 N   0  0  0  0  0  0  0  0  0  0  0  0
   34.8370   20.6020   32.1820 C   0  0  0  0  0  0  0  0  0  0  0  0
   34.9010   19.3850   31.6140 N   0  0  0  0  0  0  0  0  0  0  0  0
   36.0040   19.3900   30.8160 C   0  0  0  0  0  0  0  0  0  0  0  0
   36.5590   20.6140   30.9380 N   0  0  0  0  0  0  0  0  0  0  0  0
   37.1130   22.1030   35.2350 O   0  0  0  0  0  0  0  0  0  0  0  0
   36.2280   21.3410   35.9130 C   0  0  0  0  0  0  0  0  0  0  0  0
   36.0590   21.4660   37.3190 N   0  0  0  0  0  0  0  0  0  0  0  0
   35.5800   20.5220   35.1500 O   0  0  0  0  0  0  0  0  0  0  0  0
   38.6084   20.7495   34.9785 H   0  0  0  0  0  0  0  0  0  0  0  0
   38.3919   23.3136   37.1875 H   0  0  0  0  0  0  0  0  0  0  0  0
   43.1863   21.4248   33.0822 H   0  0  0  0  0  0  0  0  0  0  0  0
   44.5923   23.9308   36.7869 H   0  0  0  0  0  0  0  0  0  0  0  0
   43.1091   24.2975   37.7079 H   0  0  0  0  0  0  0  0  0  0  0  0
   39.3990   22.0867   32.9072 H   0  0  0  0  0  0  0  0  0  0  0  0
   38.0424   20.8744   32.8690 H   0  0  0  0  0  0  0  0  0  0  0  0
   34.6501   23.7290   31.0252 H   0  0  0  0  0  0  0  0  0  0  0  0
   37.6329   26.1934   32.7719 H   0  0  0  0  0  0  0  0  0  0  0  0
   34.0579   20.9276   32.8870 H   0  0  0  0  0  0  0  0  0  0  0  0
   36.3706   18.5599   30.1943 H   0  0  0  0  0  0  0  0  0  0  0  0
   35.3764   20.8716   37.8105 H   0  0  0  0  0  0  0  0  0  0  0  0
   36.6192   22.1510   37.8462 H   0  0  0  0  0  0  0  0  0  0  0  0
  1 24  1  0
  1  2  1  0
  2  3  1  0
  3  4  2  0
  5  4  1  0
  6  5  2  0
  6 11  1  0
  7  6  1  0
  8  9  1  0
  8  7  2  0
  9 10  2  0
 10  2  1  0
 10  5  1  0
 12  1  1  0
 13 18  1  0
 13 12  1  0
 14 13  2  0
 15 16  2  0
 15 14  1  0
 16 17  1  0
 17 18  2  0
 19 14  1  0
 19 20  1  0
 21 20  2  0
 22 23  2  0
 22 21  1  0
 23 19  1  0
 24 25  1  0
 25 26  1  0
 27 25  2  0
  1 28  1  6
  3 29  1  0
  8 30  1  0
 11 31  1  0
 11 32  1  0
 12 33  1  0
 12 34  1  0
 15 35  1  0
 17 36  1  0
 20 37  1  0
 22 38  1  0
 26 39  1  0
 26 40  1  0
M  ISO  8  28   8  29  14  30  14  33   8  34   8  35  14  36  14  37  14
M  ISO  1  38  14
M  END
>  <minimizedAffinity>  (1) 
-4.60402632

>  <minimizedRMSD>  (1) 
2.26086378

$$$$
