
     RDKit          3D

 34 36  0  0  1  0  0  0  0  0999 V2000
   38.6080   22.4940   33.7720 C   0  0  0  0  0  0  0  0  0  0  0  0
   37.8190   23.5480   33.1720 C   0  0  0  0  0  0  0  0  0  0  0  0
   36.9710   23.4810   32.0860 C   0  0  0  0  0  0  0  0  0  0  0  0
   36.2990   24.6460   31.6620 C   0  0  0  0  0  0  0  0  0  0  0  0
   36.5180   25.7980   32.3560 N   0  0  0  0  0  0  0  0  0  0  0  0
   37.3380   25.8380   33.3960 C   0  0  0  0  0  0  0  0  0  0  0  0
   37.9690   24.7460   33.7940 N   0  0  0  0  0  0  0  0  0  0  0  0
   36.8260   22.2310   31.4460 N   0  0  0  0  0  0  0  0  0  0  0  0
   35.8040   21.3550   31.2770 C   0  0  0  0  0  0  0  0  0  0  0  0
   36.2100   20.2910   30.5700 N   0  0  0  0  0  0  0  0  0  0  0  0
   37.5280   20.5030   30.2850 C   0  0  0  0  0  0  0  0  0  0  0  0
   37.8490   21.6910   30.8380 N   0  0  0  0  0  0  0  0  0  0  0  0
   37.9910   21.9820   35.0740 C   0  0  1  0  0  0  0  0  0  0  0  0
   38.3890   22.5140   36.2630 N   0  0  0  0  0  0  0  0  0  0  0  0
   37.7440   23.2840   37.1610 C   0  0  0  0  0  0  0  0  0  0  0  0
   38.5660   23.5660   38.2050 C   0  0  0  0  0  0  0  0  0  0  0  0
   39.7500   22.9720   37.9730 N   0  0  0  0  0  0  0  0  0  0  0  0
   39.6330   22.3390   36.7980 C   0  0  0  0  0  0  0  0  0  0  0  0
   36.6270   21.8640   34.9360 O   0  0  0  0  0  0  0  0  0  0  0  0
   35.8110   20.8450   35.2840 C   0  0  0  0  0  0  0  0  0  0  0  0
   35.3710   20.6730   36.6230 N   0  0  0  0  0  0  0  0  0  0  0  0
   35.4960   20.0890   34.2800 O   0  0  0  0  0  0  0  0  0  0  0  0
   39.6147   22.8826   33.9856 H   0  0  0  0  0  0  0  0  0  0  0  0
   38.6459   21.6542   33.0625 H   0  0  0  0  0  0  0  0  0  0  0  0
   35.6190   24.6254   30.7976 H   0  0  0  0  0  0  0  0  0  0  0  0
   37.4950   26.7857   33.9319 H   0  0  0  0  0  0  0  0  0  0  0  0
   34.7849   21.4978   31.6657 H   0  0  0  0  0  0  0  0  0  0  0  0
   38.1954   19.8378   29.7175 H   0  0  0  0  0  0  0  0  0  0  0  0
   38.4495   20.9896   35.1963 H   0  0  0  0  0  0  0  0  0  0  0  0
   36.7053   23.6327   37.0632 H   0  0  0  0  0  0  0  0  0  0  0  0
   38.3085   24.1733   39.0853 H   0  0  0  0  0  0  0  0  0  0  0  0
   40.4356   21.7538   36.3253 H   0  0  0  0  0  0  0  0  0  0  0  0
   34.7489   19.8882   36.8639 H   0  0  0  0  0  0  0  0  0  0  0  0
   35.6739   21.3330   37.3534 H   0  0  0  0  0  0  0  0  0  0  0  0
  1 13  1  0
  2  1  1  0
  2  7  2  0
  3  2  1  0
  4  3  2  0
  4  5  1  0
  5  6  2  0
  6  7  1  0
  8  3  1  0
  9  8  1  0
 10  9  2  0
 11 10  1  0
 11 12  2  0
 12  8  1  0
 13 14  1  0
 14 18  1  0
 14 15  1  0
 15 16  2  0
 17 16  1  0
 18 17  2  0
 19 13  1  0
 19 20  1  0
 20 21  1  0
 22 20  2  0
  1 23  1  0
  1 24  1  0
  4 25  1  0
  6 26  1  0
  9 27  1  0
 11 28  1  0
 13 29  1  1
 15 30  1  0
 16 31  1  0
 18 32  1  0
 21 33  1  0
 21 34  1  0
M  ISO  8  23   8  24   8  25  14  26  14  27  14  28  14  29   8  30  14
M  ISO  2  31  14  32  14
M  END
>  <minimizedAffinity>  (1) 
-4.83684492

>  <minimizedRMSD>  (1) 
1.17514002

$$$$
