
     RDKit          3D

 16 17  0  0  0  0  0  0  0  0999 V2000
   39.8770   22.6400   37.2000 C   0  0  0  0  0  0  0  0  0  0  0  0
   39.2180   23.2900   38.2600 C   0  0  0  0  0  0  0  0  0  0  0  0
   37.8220   23.4170   38.1770 C   0  0  0  0  0  0  0  0  0  0  0  0
   37.1910   22.9110   37.0890 N   0  0  0  0  0  0  0  0  0  0  0  0
   37.8530   22.2940   36.0910 C   0  0  0  0  0  0  0  0  0  0  0  0
   39.1980   22.1600   36.1500 N   0  0  0  0  0  0  0  0  0  0  0  0
   37.2120   21.7540   34.9400 N   0  0  0  0  0  0  0  0  0  0  0  0
   37.3930   21.7340   33.5990 C   0  0  0  0  0  0  0  0  0  0  0  0
   36.4030   21.0250   33.0300 N   0  0  0  0  0  0  0  0  0  0  0  0
   35.5950   20.5980   34.0220 C   0  0  0  0  0  0  0  0  0  0  0  0
   36.0950   21.0450   35.1670 N   0  0  0  0  0  0  0  0  0  0  0  0
   40.9703   22.5240   37.2344 H   0  0  0  0  0  0  0  0  0  0  0  0
   39.7761   23.6842   39.1221 H   0  0  0  0  0  0  0  0  0  0  0  0
   37.2537   23.9154   38.9761 H   0  0  0  0  0  0  0  0  0  0  0  0
   38.2193   22.2208   33.0602 H   0  0  0  0  0  0  0  0  0  0  0  0
   34.6863   19.9895   33.9034 H   0  0  0  0  0  0  0  0  0  0  0  0
  1  2  2  0
  3  2  1  0
  4  3  2  0
  5  6  2  0
  5  4  1  0
  6  1  1  0
  7 11  1  0
  7  5  1  0
  8  7  1  0
  9  8  2  0
  9 10  1  0
 10 11  2  0
  1 12  1  0
  2 13  1  0
  3 14  1  0
  8 15  1  0
 10 16  1  0
M  ISO  5  12  14  13  14  14  14  15  14  16  14
M  END
>  <minimizedAffinity>  (1) 
-3.76665449

>  <minimizedRMSD>  (1) 
1.24306703

$$$$
