
     RDKit          3D

 29 31  0  0  0  0  0  0  0  0999 V2000
   39.9900   22.8380   38.0140 C   0  0  0  0  0  0  0  0  0  0  0  0
   38.9450   23.4580   38.7480 C   0  0  0  0  0  0  0  0  0  0  0  0
   37.7370   23.7110   38.0980 C   0  0  0  0  0  0  0  0  0  0  0  0
   37.6200   23.3510   36.7980 N   0  0  0  0  0  0  0  0  0  0  0  0
   38.6150   22.7660   36.1200 C   0  0  0  0  0  0  0  0  0  0  0  0
   39.7990   22.5120   36.7310 N   0  0  0  0  0  0  0  0  0  0  0  0
   38.5230   22.3730   34.7480 N   0  0  0  0  0  0  0  0  0  0  0  0
   39.2720   22.4480   33.6230 C   0  0  0  0  0  0  0  0  0  0  0  0
   38.6080   21.8720   32.6170 N   0  0  0  0  0  0  0  0  0  0  0  0
   37.4330   21.4330   33.1160 C   0  0  0  0  0  0  0  0  0  0  0  0
   37.3810   21.7400   34.4170 N   0  0  0  0  0  0  0  0  0  0  0  0
   36.3800   20.7260   32.3260 C   0  0  0  0  0  0  0  0  0  0  0  0
   35.4400   19.9610   33.2360 C   0  0  0  0  0  0  0  0  0  0  0  0
   35.3830   18.5580   32.7310 C   0  0  0  0  0  0  0  0  0  0  0  0
   35.8160   18.6690   31.2970 C   0  0  0  0  0  0  0  0  0  0  0  0
   36.9290   19.7090   31.3790 C   0  0  0  0  0  0  0  0  0  0  0  0
   40.9543   22.6263   38.4991 H   0  0  0  0  0  0  0  0  0  0  0  0
   39.0845   23.7323   39.8041 H   0  0  0  0  0  0  0  0  0  0  0  0
   36.9009   24.1907   38.6280 H   0  0  0  0  0  0  0  0  0  0  0  0
   40.2678   22.9093   33.5490 H   0  0  0  0  0  0  0  0  0  0  0  0
   35.8718   21.5269   31.7690 H   0  0  0  0  0  0  0  0  0  0  0  0
   35.8199   19.9750   34.2682 H   0  0  0  0  0  0  0  0  0  0  0  0
   34.4391   20.4172   33.2365 H   0  0  0  0  0  0  0  0  0  0  0  0
   36.0687   17.9106   33.2973 H   0  0  0  0  0  0  0  0  0  0  0  0
   34.3839   18.1103   32.8377 H   0  0  0  0  0  0  0  0  0  0  0  0
   34.9916   19.0160   30.6567 H   0  0  0  0  0  0  0  0  0  0  0  0
   36.1349   17.7132   30.8557 H   0  0  0  0  0  0  0  0  0  0  0  0
   37.8554   19.2646   31.7716 H   0  0  0  0  0  0  0  0  0  0  0  0
   37.1954   20.1326   30.3994 H   0  0  0  0  0  0  0  0  0  0  0  0
  1  2  2  0
  3  2  1  0
  4  3  2  0
  5  6  2  0
  5  4  1  0
  6  1  1  0
  7  5  1  0
  8  7  1  0
  9 10  1  0
  9  8  2  0
 10 11  2  0
 11  7  1  0
 12 10  1  0
 12 13  1  0
 14 13  1  0
 15 16  1  0
 15 14  1  0
 16 12  1  0
  1 17  1  0
  2 18  1  0
  3 19  1  0
  8 20  1  0
 12 21  1  0
 13 22  1  0
 13 23  1  0
 14 24  1  0
 14 25  1  0
 15 26  1  0
 15 27  1  0
 16 28  1  0
 16 29  1  0
M  ISO  8  17  14  18  14  19  14  20  14  21  13  22  13  23  13  24  13
M  ISO  5  25  13  26  13  27  13  28  13  29  13
M  END
>  <minimizedAffinity>  (1) 
-4.76880312

>  <minimizedRMSD>  (1) 
1.91740119

$$$$
