
     RDKit          3D

 23 25  0  0  0  0  0  0  0  0999 V2000
   40.0020   22.6810   37.6200 C   0  0  0  0  0  0  0  0  0  0  0  0
   39.1670   23.3230   38.5390 C   0  0  0  0  0  0  0  0  0  0  0  0
   37.8190   23.5360   38.1680 C   0  0  0  0  0  0  0  0  0  0  0  0
   37.4170   23.1040   36.9390 N   0  0  0  0  0  0  0  0  0  0  0  0
   38.2540   22.4890   36.0820 C   0  0  0  0  0  0  0  0  0  0  0  0
   39.5420   22.2810   36.4280 N   0  0  0  0  0  0  0  0  0  0  0  0
   37.8470   22.0360   34.8030 N   0  0  0  0  0  0  0  0  0  0  0  0
   38.3370   22.0670   33.5300 C   0  0  0  0  0  0  0  0  0  0  0  0
   37.4570   21.4450   32.7160 N   0  0  0  0  0  0  0  0  0  0  0  0
   36.4300   21.0330   33.4820 C   0  0  0  0  0  0  0  0  0  0  0  0
   36.6860   21.3990   34.7250 N   0  0  0  0  0  0  0  0  0  0  0  0
   35.2420   20.3000   32.9570 C   0  0  0  0  0  0  0  0  0  0  0  0
   35.4040   18.7920   32.8870 C   0  0  0  0  0  0  0  0  0  0  0  0
   35.3340   19.6180   31.6340 C   0  0  0  0  0  0  0  0  0  0  0  0
   41.0554   22.5013   37.8807 H   0  0  0  0  0  0  0  0  0  0  0  0
   39.5457   23.6516   39.5181 H   0  0  0  0  0  0  0  0  0  0  0  0
   37.1158   24.0354   38.8507 H   0  0  0  0  0  0  0  0  0  0  0  0
   39.2889   22.5221   33.2190 H   0  0  0  0  0  0  0  0  0  0  0  0
   34.5245   21.0131   33.3892 H   0  0  0  0  0  0  0  0  0  0  0  0
   36.3530   18.3239   33.1876 H   0  0  0  0  0  0  0  0  0  0  0  0
   34.8545   17.9264   33.2856 H   0  0  0  0  0  0  0  0  0  0  0  0
   36.2325   19.7474   31.0128 H   0  0  0  0  0  0  0  0  0  0  0  0
   34.7074   19.5983   30.7302 H   0  0  0  0  0  0  0  0  0  0  0  0
  1  2  2  0
  3  2  1  0
  4  3  2  0
  5  6  2  0
  5  4  1  0
  6  1  1  0
  7  5  1  0
  8  7  1  0
  9 10  1  0
  9  8  2  0
 10 11  2  0
 11  7  1  0
 12 10  1  0
 13 12  1  0
 14 13  1  0
 14 12  1  0
  1 15  1  0
  2 16  1  0
  3 17  1  0
  8 18  1  0
 12 19  1  0
 13 20  1  0
 13 21  1  0
 14 22  1  0
 14 23  1  0
M  ISO  8  15  14  16  14  17  14  18  14  19  13  20  13  21  13  22  13
M  ISO  1  23  13
M  END
>  <minimizedAffinity>  (1) 
-4.60698557

>  <minimizedRMSD>  (1) 
1.00053084

$$$$
