
     RDKit          3D

 45 49  0  0  1  0  0  0  0  0999 V2000
   37.6790   23.5300   33.2840 C   0  0  0  0  0  0  0  0  0  0  0  0
   36.8320   22.6730   32.6010 C   0  0  0  0  0  0  0  0  0  0  0  0
   36.7290   21.5730   33.4130 N   0  0  0  0  0  0  0  0  0  0  0  0
   37.4850   21.8140   34.4940 C   0  0  0  0  0  0  0  0  0  0  0  0
   38.0850   23.0080   34.4530 N   0  0  0  0  0  0  0  0  0  0  0  0
   38.9530   23.6040   35.4060 C   0  0  1  0  0  0  0  0  0  0  0  0
   38.3620   24.7860   36.0730 C   0  0  0  0  0  0  0  0  0  0  0  0
   37.5850   24.1770   37.2240 C   0  0  0  0  0  0  0  0  0  0  0  0
   38.5120   23.1340   37.7310 C   0  0  0  0  0  0  0  0  0  0  0  0
   39.3000   22.6760   36.5460 C   0  0  2  0  0  0  0  0  0  0  0  0
   40.7980   22.7920   36.7940 C   0  0  0  0  0  0  0  0  0  0  0  0
   41.5910   21.7150   36.0480 C   0  0  0  0  0  0  0  0  0  0  0  0
   41.5560   21.7840   37.5460 C   0  0  0  0  0  0  0  0  0  0  0  0
   38.0950   24.8470   32.8190 C   0  0  0  0  0  0  0  0  0  0  0  0
   39.3110   24.9980   32.1510 C   0  0  0  0  0  0  0  0  0  0  0  0
   39.6510   26.3140   31.7420 C   0  0  0  0  0  0  0  0  0  0  0  0
   38.7980   27.3270   32.0150 N   0  0  0  0  0  0  0  0  0  0  0  0
   37.6460   27.1310   32.6590 C   0  0  0  0  0  0  0  0  0  0  0  0
   37.2650   25.9010   33.0720 N   0  0  0  0  0  0  0  0  0  0  0  0
   36.7640   28.2670   32.9270 C   0  0  0  0  0  0  0  0  0  0  0  0
   36.2030   28.4480   34.1770 C   0  0  0  0  0  0  0  0  0  0  0  0
   35.3860   29.5530   34.3210 C   0  0  0  0  0  0  0  0  0  0  0  0
   35.1250   30.4260   33.3310 N   0  0  0  0  0  0  0  0  0  0  0  0
   35.6930   30.2230   32.1070 C   0  0  0  0  0  0  0  0  0  0  0  0
   36.4910   29.1510   31.9500 N   0  0  0  0  0  0  0  0  0  0  0  0
   36.3501   22.8379   31.6260 H   0  0  0  0  0  0  0  0  0  0  0  0
   37.5994   21.1042   35.3266 H   0  0  0  0  0  0  0  0  0  0  0  0
   39.8338   23.8698   34.8031 H   0  0  0  0  0  0  0  0  0  0  0  0
   39.1454   25.4651   36.4406 H   0  0  0  0  0  0  0  0  0  0  0  0
   37.7370   25.3940   35.4025 H   0  0  0  0  0  0  0  0  0  0  0  0
   37.3712   24.9278   37.9990 H   0  0  0  0  0  0  0  0  0  0  0  0
   36.6038   23.7797   36.9252 H   0  0  0  0  0  0  0  0  0  0  0  0
   39.1809   23.5555   38.4958 H   0  0  0  0  0  0  0  0  0  0  0  0
   37.9665   22.3017   38.1997 H   0  0  0  0  0  0  0  0  0  0  0  0
   39.0605   21.6235   36.3341 H   0  0  0  0  0  0  0  0  0  0  0  0
   40.7604   23.8865   36.8969 H   0  0  0  0  0  0  0  0  0  0  0  0
   41.0668   20.9070   35.5166 H   0  0  0  0  0  0  0  0  0  0  0  0
   42.3745   21.7036   35.2760 H   0  0  0  0  0  0  0  0  0  0  0  0
   42.4593   22.0826   38.0981 H   0  0  0  0  0  0  0  0  0  0  0  0
   41.2979   21.0670   38.3392 H   0  0  0  0  0  0  0  0  0  0  0  0
   39.9718   24.1415   31.9518 H   0  0  0  0  0  0  0  0  0  0  0  0
   40.5947   26.5069   31.2107 H   0  0  0  0  0  0  0  0  0  0  0  0
   36.3955   27.7535   35.0081 H   0  0  0  0  0  0  0  0  0  0  0  0
   34.9218   29.7293   35.3025 H   0  0  0  0  0  0  0  0  0  0  0  0
   35.5041   30.9153   31.2733 H   0  0  0  0  0  0  0  0  0  0  0  0
  1  5  1  0
  2  1  2  0
  2  3  1  0
  3  4  2  0
  5  4  1  0
  5  6  1  0
  6  7  1  0
  6 10  1  0
  7  8  1  0
  8  9  1  0
 10 11  1  0
 10  9  1  0
 11 13  1  0
 12 11  1  0
 12 13  1  0
 14 19  1  0
 14  1  1  0
 15 14  2  0
 16 17  2  0
 16 15  1  0
 17 18  1  0
 18 20  1  0
 18 19  2  0
 20 21  2  0
 21 22  1  0
 23 22  2  0
 24 23  1  0
 25 24  2  0
 25 20  1  0
  2 26  1  0
  4 27  1  0
  6 28  1  6
  7 29  1  0
  7 30  1  0
  8 31  1  0
  8 32  1  0
  9 33  1  0
  9 34  1  0
 10 35  1  6
 11 36  1  0
 12 37  1  0
 12 38  1  0
 13 39  1  0
 13 40  1  0
 15 41  1  0
 16 42  1  0
 21 43  1  0
 22 44  1  0
 24 45  1  0
M  ISO  8  26  14  27  14  28  13  29  13  30  13  31  13  32  13  33  13
M  ISO  8  34  13  35  13  36  13  37  13  38  13  39  13  40  13  41  14
M  ISO  4  42  14  43  14  44  14  45  14
M  END
>  <minimizedAffinity>  (1) 
-5.50456142

>  <minimizedRMSD>  (1) 
0.313350171

$$$$
