
     RDKit          3D

 29 31  0  0  0  0  0  0  0  0999 V2000
   39.4180   22.8450   37.5850 C   0  0  0  0  0  0  0  0  0  0  0  0
   38.1160   23.1950   37.9800 C   0  0  0  0  0  0  0  0  0  0  0  0
   37.4670   24.2240   37.2570 C   0  0  0  0  0  0  0  0  0  0  0  0
   38.1430   24.7980   36.2380 N   0  0  0  0  0  0  0  0  0  0  0  0
   39.3910   24.4420   35.8820 C   0  0  0  0  0  0  0  0  0  0  0  0
   40.0160   23.4660   36.5630 N   0  0  0  0  0  0  0  0  0  0  0  0
   40.1060   25.0470   34.8070 N   0  0  0  0  0  0  0  0  0  0  0  0
   41.3520   25.5060   34.5790 C   0  0  0  0  0  0  0  0  0  0  0  0
   41.4110   25.9820   33.3150 N   0  0  0  0  0  0  0  0  0  0  0  0
   40.1970   25.8130   32.7750 C   0  0  0  0  0  0  0  0  0  0  0  0
   39.4250   25.2500   33.6830 N   0  0  0  0  0  0  0  0  0  0  0  0
   39.9040   26.2060   31.4470 N   0  0  0  0  0  0  0  0  0  0  0  0
   40.1070   25.2430   30.3560 C   0  0  0  0  0  0  0  0  0  0  0  0
   39.7230   25.8200   29.0360 C   0  0  0  0  0  0  0  0  0  0  0  0
   40.1910   27.0840   28.8030 O   0  0  0  0  0  0  0  0  0  0  0  0
   40.2250   27.9360   29.8750 C   0  0  0  0  0  0  0  0  0  0  0  0
   39.4090   27.5120   31.0600 C   0  0  0  0  0  0  0  0  0  0  0  0
   39.9528   22.0491   38.1240 H   0  0  0  0  0  0  0  0  0  0  0  0
   37.6193   22.6879   38.8203 H   0  0  0  0  0  0  0  0  0  0  0  0
   36.4473   24.5453   37.5159 H   0  0  0  0  0  0  0  0  0  0  0  0
   42.1823   25.4953   35.3005 H   0  0  0  0  0  0  0  0  0  0  0  0
   41.1687   24.9570   30.3253 H   0  0  0  0  0  0  0  0  0  0  0  0
   39.4695   24.3672   30.5472 H   0  0  0  0  0  0  0  0  0  0  0  0
   40.1139   25.1600   28.2476 H   0  0  0  0  0  0  0  0  0  0  0  0
   38.6254   25.8924   29.0379 H   0  0  0  0  0  0  0  0  0  0  0  0
   41.2716   28.0308   30.2001 H   0  0  0  0  0  0  0  0  0  0  0  0
   39.7833   28.8808   29.5253 H   0  0  0  0  0  0  0  0  0  0  0  0
   39.5358   28.2276   31.8857 H   0  0  0  0  0  0  0  0  0  0  0  0
   38.3369   27.4776   30.8161 H   0  0  0  0  0  0  0  0  0  0  0  0
  1  2  2  0
  3  2  1  0
  4  3  2  0
  5  4  1  0
  5  6  2  0
  6  1  1  0
  7  5  1  0
  8  7  1  0
  9  8  2  0
 10  9  1  0
 10 11  2  0
 11  7  1  0
 12 10  1  0
 13 12  1  0
 14 13  1  0
 15 14  1  0
 15 16  1  0
 16 17  1  0
 17 12  1  0
  1 18  1  0
  2 19  1  0
  3 20  1  0
  8 21  1  0
 13 22  1  0
 13 23  1  0
 14 24  1  0
 14 25  1  0
 16 26  1  0
 16 27  1  0
 17 28  1  0
 17 29  1  0
M  ISO  8  18  14  19  14  20  14  21  14  22  13  23  13  24  13  25  13
M  ISO  4  26  13  27  13  28  13  29  13
M  END
>  <minimizedAffinity>  (1) 
-3.58251214

>  <minimizedRMSD>  (1) 
7.16475725

$$$$
