
     RDKit          3D

 38 40  0  0  1  0  0  0  0  0999 V2000
   35.3070   20.4830   33.0550 C   0  0  1  0  0  0  0  0  0  0  0  0
   40.0450   22.6780   37.7940 C   0  0  0  0  0  0  0  0  0  0  0  0
   39.2160   23.3850   38.6580 C   0  0  0  0  0  0  0  0  0  0  0  0
   37.9210   23.6770   38.2350 C   0  0  0  0  0  0  0  0  0  0  0  0
   37.5350   23.2580   37.0030 N   0  0  0  0  0  0  0  0  0  0  0  0
   38.3600   22.5760   36.1880 C   0  0  0  0  0  0  0  0  0  0  0  0
   39.6270   22.2800   36.5810 N   0  0  0  0  0  0  0  0  0  0  0  0
   37.9950   22.1170   34.8910 N   0  0  0  0  0  0  0  0  0  0  0  0
   38.5260   22.0650   33.6530 C   0  0  0  0  0  0  0  0  0  0  0  0
   37.6470   21.4810   32.8190 N   0  0  0  0  0  0  0  0  0  0  0  0
   36.5490   21.1640   33.5620 C   0  0  0  0  0  0  0  0  0  0  0  0
   36.7710   21.5530   34.8070 N   0  0  0  0  0  0  0  0  0  0  0  0
   35.0010   20.9250   31.6480 C   0  0  0  0  0  0  0  0  0  0  0  0
   35.5550   18.9730   33.0220 C   0  0  0  0  0  0  0  0  0  0  0  0
   36.9650   17.9720   29.1690 C   0  0  0  0  0  0  0  0  0  0  0  0
   36.5770   19.2620   29.4530 C   0  0  0  0  0  0  0  0  0  0  0  0
   36.1230   19.5200   30.7410 C   0  0  0  0  0  0  0  0  0  0  0  0
   36.0620   18.5150   31.7100 C   0  0  0  0  0  0  0  0  0  0  0  0
   36.4550   17.2310   31.4110 C   0  0  0  0  0  0  0  0  0  0  0  0
   36.9050   16.9820   30.1250 C   0  0  0  0  0  0  0  0  0  0  0  0
   37.5380   17.6500   27.5420 S   0  0  0  0  0  0  0  0  0  0  0  0
   37.2000   16.2730   27.1120 O   0  0  0  0  0  0  0  0  0  0  0  0
   36.9860   18.6510   26.5720 O   0  0  0  0  0  0  0  0  0  0  0  0
   34.4673   20.7404   33.7173 H   0  0  0  0  0  0  0  0  0  0  0  0
   41.0703   22.4383   38.1123 H   0  0  0  0  0  0  0  0  0  0  0  0
   39.5728   23.7049   39.6481 H   0  0  0  0  0  0  0  0  0  0  0  0
   37.2284   24.2335   38.8836 H   0  0  0  0  0  0  0  0  0  0  0  0
   39.5204   22.4406   33.3698 H   0  0  0  0  0  0  0  0  0  0  0  0
   34.3751   21.8291   31.6756 H   0  0  0  0  0  0  0  0  0  0  0  0
   35.9407   21.1456   31.1204 H   0  0  0  0  0  0  0  0  0  0  0  0
   34.4638   20.1231   31.1204 H   0  0  0  0  0  0  0  0  0  0  0  0
   36.2951   18.7193   33.7952 H   0  0  0  0  0  0  0  0  0  0  0  0
   34.5938   18.4704   33.2050 H   0  0  0  0  0  0  0  0  0  0  0  0
   36.6243   20.0553   28.6924 H   0  0  0  0  0  0  0  0  0  0  0  0
   35.8041   20.5394   31.0038 H   0  0  0  0  0  0  0  0  0  0  0  0
   36.4134   16.4316   32.1654 H   0  0  0  0  0  0  0  0  0  0  0  0
   37.2240   15.9634   29.8591 H   0  0  0  0  0  0  0  0  0  0  0  0
   38.9030   17.7656   27.5568 H   0  0  0  0  0  0  0  0  0  0  0  0
  1 11  1  0
  2  3  2  0
  4  3  1  0
  5  4  2  0
  6  7  2  0
  6  5  1  0
  7  2  1  0
  8  6  1  0
  9  8  1  0
 10 11  1  0
 10  9  2  0
 11 12  2  0
 12  8  1  0
 13  1  1  0
 14  1  1  0
 15 16  2  0
 15 20  1  0
 16 17  1  0
 17 18  2  0
 18 14  1  0
 19 18  1  0
 20 19  2  0
 21 15  1  0
 22 21  2  0
 23 21  2  0
  1 24  1  1
  2 25  1  0
  3 26  1  0
  4 27  1  0
  9 28  1  0
 13 29  1  0
 13 30  1  0
 13 31  1  0
 14 32  1  0
 14 33  1  0
 16 34  1  0
 17 35  1  0
 19 36  1  0
 20 37  1  0
 21 38  1  0
M  ISO  8  24   8  25  14  26  14  27  14  28  14  29   8  30   8  31   8
M  ISO  7  32   8  33   8  34  14  35  14  36  14  37  14  38  11
M  END
>  <minimizedAffinity>  (1) 
-5.42847919

>  <minimizedRMSD>  (1) 
1.45599329

$$$$
