
     RDKit          3D

 27 28  0  0  1  0  0  0  0  0999 V2000
   40.0320   22.6490   37.7390 C   0  0  0  0  0  0  0  0  0  0  0  0
   39.2050   23.4000   38.5680 C   0  0  0  0  0  0  0  0  0  0  0  0
   37.9290   23.7050   38.1260 C   0  0  0  0  0  0  0  0  0  0  0  0
   37.5380   23.2580   36.8990 N   0  0  0  0  0  0  0  0  0  0  0  0
   38.3600   22.5340   36.1180 C   0  0  0  0  0  0  0  0  0  0  0  0
   39.6240   22.2210   36.5350 N   0  0  0  0  0  0  0  0  0  0  0  0
   38.0090   22.0390   34.8330 N   0  0  0  0  0  0  0  0  0  0  0  0
   38.5390   21.9370   33.5980 C   0  0  0  0  0  0  0  0  0  0  0  0
   37.6570   21.3320   32.7830 N   0  0  0  0  0  0  0  0  0  0  0  0
   36.5520   21.0510   33.5300 C   0  0  0  0  0  0  0  0  0  0  0  0
   36.7790   21.4830   34.7630 N   0  0  0  0  0  0  0  0  0  0  0  0
   35.3040   20.3670   33.0530 C   0  0  1  0  0  0  0  0  0  0  0  0
   34.9270   20.8560   31.6790 C   0  0  0  0  0  0  0  0  0  0  0  0
   35.5890   18.8690   32.9160 C   0  0  0  0  0  0  0  0  0  0  0  0
   34.6430   18.2440   32.0140 N   0  0  0  0  0  0  0  0  0  0  0  0
   41.0476   22.3995   38.0799 H   0  0  0  0  0  0  0  0  0  0  0  0
   39.5568   23.7436   39.5520 H   0  0  0  0  0  0  0  0  0  0  0  0
   37.2445   24.2961   38.7522 H   0  0  0  0  0  0  0  0  0  0  0  0
   39.5371   22.2930   33.3029 H   0  0  0  0  0  0  0  0  0  0  0  0
   34.4976   20.5752   33.7716 H   0  0  0  0  0  0  0  0  0  0  0  0
   34.2577   21.7242   31.7697 H   0  0  0  0  0  0  0  0  0  0  0  0
   35.8353   21.1488   31.1320 H   0  0  0  0  0  0  0  0  0  0  0  0
   34.4127   20.0521   31.1320 H   0  0  0  0  0  0  0  0  0  0  0  0
   36.6070   18.7304   32.5231 H   0  0  0  0  0  0  0  0  0  0  0  0
   35.4929   18.4005   33.9066 H   0  0  0  0  0  0  0  0  0  0  0  0
   33.9144   17.7626   32.5602 H   0  0  0  0  0  0  0  0  0  0  0  0
   34.2075   18.9642   31.4203 H   0  0  0  0  0  0  0  0  0  0  0  0
  1  2  2  0
  3  2  1  0
  4  3  2  0
  5  6  2  0
  5  4  1  0
  6  1  1  0
  7  5  1  0
  8  7  1  0
  9 10  1  0
  9  8  2  0
 10 11  2  0
 11  7  1  0
 12 10  1  0
 13 12  1  0
 14 12  1  0
 15 14  1  0
  1 16  1  0
  2 17  1  0
  3 18  1  0
  8 19  1  0
 12 20  1  1
 13 21  1  0
 13 22  1  0
 13 23  1  0
 14 24  1  0
 14 25  1  0
 15 26  1  0
 15 27  1  0
M  ISO  8  16  14  17  14  18  14  19  14  20   8  21   8  22   8  23   8
M  ISO  4  24   8  25   8  26   5  27   5
M  END
>  <minimizedAffinity>  (1) 
-4.8855238

>  <minimizedRMSD>  (1) 
0.137332201

$$$$
