
     RDKit          3D

 32 34  0  0  1  0  0  0  0  0999 V2000
   39.9880   22.7150   37.8310 C   0  0  0  0  0  0  0  0  0  0  0  0
   39.0720   23.3100   38.6900 C   0  0  0  0  0  0  0  0  0  0  0  0
   37.9100   23.8130   38.1300 C   0  0  0  0  0  0  0  0  0  0  0  0
   37.7080   23.7090   36.7820 N   0  0  0  0  0  0  0  0  0  0  0  0
   38.6200   23.1260   35.9840 C   0  0  0  0  0  0  0  0  0  0  0  0
   39.7590   22.6300   36.5110 N   0  0  0  0  0  0  0  0  0  0  0  0
   38.4610   22.9910   34.5810 N   0  0  0  0  0  0  0  0  0  0  0  0
   39.2050   23.1550   33.4620 C   0  0  0  0  0  0  0  0  0  0  0  0
   38.4490   22.8500   32.3900 N   0  0  0  0  0  0  0  0  0  0  0  0
   37.2160   22.4910   32.8500 C   0  0  0  0  0  0  0  0  0  0  0  0
   37.2420   22.5820   34.1760 N   0  0  0  0  0  0  0  0  0  0  0  0
   36.0670   22.0630   32.0130 C   0  0  1  0  0  0  0  0  0  0  0  0
   35.6180   23.1860   31.1150 C   0  0  0  0  0  0  0  0  0  0  0  0
   36.5030   20.9000   31.1170 C   0  0  0  0  0  0  0  0  0  0  0  0
   35.7590   19.6400   31.3690 C   0  0  0  0  0  0  0  0  0  0  0  0
   35.6100   19.0430   32.7120 C   0  0  0  0  0  0  0  0  0  0  0  0
   34.3880   19.7250   32.0460 C   0  0  0  0  0  0  0  0  0  0  0  0
   40.9220   22.3043   38.2420 H   0  0  0  0  0  0  0  0  0  0  0  0
   39.2624   23.3786   39.7712 H   0  0  0  0  0  0  0  0  0  0  0  0
   37.1529   24.2940   38.7667 H   0  0  0  0  0  0  0  0  0  0  0  0
   40.2544   23.4834   33.4331 H   0  0  0  0  0  0  0  0  0  0  0  0
   35.2446   21.7663   32.6806 H   0  0  0  0  0  0  0  0  0  0  0  0
   35.2792   24.0334   31.7291 H   0  0  0  0  0  0  0  0  0  0  0  0
   36.4574   23.5058   30.4801 H   0  0  0  0  0  0  0  0  0  0  0  0
   34.7895   22.8389   30.4801 H   0  0  0  0  0  0  0  0  0  0  0  0
   37.5730   20.7116   31.2889 H   0  0  0  0  0  0  0  0  0  0  0  0
   36.2900   21.1967   30.0794 H   0  0  0  0  0  0  0  0  0  0  0  0
   36.1550   19.2401   30.4239 H   0  0  0  0  0  0  0  0  0  0  0  0
   35.6300   17.9496   32.8309 H   0  0  0  0  0  0  0  0  0  0  0  0
   36.1326   19.1599   33.6728 H   0  0  0  0  0  0  0  0  0  0  0  0
   34.0119   20.6870   32.4243 H   0  0  0  0  0  0  0  0  0  0  0  0
   33.3581   19.4341   31.7915 H   0  0  0  0  0  0  0  0  0  0  0  0
  1  2  2  0
  3  2  1  0
  4  3  2  0
  5  6  2  0
  5  4  1  0
  6  1  1  0
  7  5  1  0
  8  7  1  0
  9 10  1  0
  9  8  2  0
 10 11  2  0
 11  7  1  0
 12 10  1  0
 13 12  1  0
 14 15  1  0
 14 12  1  0
 15 17  1  0
 15 16  1  0
 17 16  1  0
  1 18  1  0
  2 19  1  0
  3 20  1  0
  8 21  1  0
 12 22  1  1
 13 23  1  0
 13 24  1  0
 13 25  1  0
 14 26  1  0
 14 27  1  0
 15 28  1  0
 16 29  1  0
 16 30  1  0
 17 31  1  0
 17 32  1  0
M  ISO  8  18  14  19  14  20  14  21  14  22   8  23   8  24   8  25   8
M  ISO  7  26   8  27   8  28  13  29  13  30  13  31  13  32  13
M  END
>  <minimizedAffinity>  (1) 
-4.63399887

>  <minimizedRMSD>  (1) 
1.92570496

$$$$
