
     RDKit          3D

 32 34  0  0  1  0  0  0  0  0999 V2000
   35.3340   20.4020   33.0710 C   0  0  1  0  0  0  0  0  0  0  0  0
   40.0240   22.6910   37.7840 C   0  0  0  0  0  0  0  0  0  0  0  0
   39.1990   23.3970   38.6500 C   0  0  0  0  0  0  0  0  0  0  0  0
   37.8940   23.6780   38.2120 C   0  0  0  0  0  0  0  0  0  0  0  0
   37.5110   23.2550   36.9840 N   0  0  0  0  0  0  0  0  0  0  0  0
   38.3510   22.5690   36.1730 C   0  0  0  0  0  0  0  0  0  0  0  0
   39.6220   22.2820   36.5710 N   0  0  0  0  0  0  0  0  0  0  0  0
   37.9940   22.1050   34.8820 N   0  0  0  0  0  0  0  0  0  0  0  0
   38.5130   22.0700   33.6380 C   0  0  0  0  0  0  0  0  0  0  0  0
   37.6540   21.4670   32.8060 N   0  0  0  0  0  0  0  0  0  0  0  0
   36.5670   21.1150   33.5490 C   0  0  0  0  0  0  0  0  0  0  0  0
   36.7860   21.5060   34.7990 N   0  0  0  0  0  0  0  0  0  0  0  0
   34.9130   20.9460   31.7300 C   0  0  0  0  0  0  0  0  0  0  0  0
   35.6870   18.9310   32.8490 C   0  0  0  0  0  0  0  0  0  0  0  0
   36.1590   18.6600   31.5250 N   0  0  0  0  0  0  0  0  0  0  0  0
   36.6330   17.4890   31.0730 N   0  0  0  0  0  0  0  0  0  0  0  0
   36.9870   17.5860   29.7900 C   0  0  0  0  0  0  0  0  0  0  0  0
   36.7430   18.8730   29.3580 C   0  0  0  0  0  0  0  0  0  0  0  0
   36.2260   19.5150   30.4670 C   0  0  0  0  0  0  0  0  0  0  0  0
   34.5335   20.5332   33.8140 H   0  0  0  0  0  0  0  0  0  0  0  0
   41.0496   22.4575   38.1060 H   0  0  0  0  0  0  0  0  0  0  0  0
   39.5531   23.7230   39.6391 H   0  0  0  0  0  0  0  0  0  0  0  0
   37.1952   24.2323   38.8558 H   0  0  0  0  0  0  0  0  0  0  0  0
   39.4941   22.4756   33.3499 H   0  0  0  0  0  0  0  0  0  0  0  0
   34.2458   21.8081   31.8771 H   0  0  0  0  0  0  0  0  0  0  0  0
   35.8032   21.2632   31.1671 H   0  0  0  0  0  0  0  0  0  0  0  0
   34.3827   20.1638   31.1671 H   0  0  0  0  0  0  0  0  0  0  0  0
   36.4722   18.6475   33.5654 H   0  0  0  0  0  0  0  0  0  0  0  0
   34.7661   18.3473   32.9946 H   0  0  0  0  0  0  0  0  0  0  0  0
   37.4047   16.7732   29.1777 H   0  0  0  0  0  0  0  0  0  0  0  0
   36.9200   19.2933   28.3570 H   0  0  0  0  0  0  0  0  0  0  0  0
   35.9124   20.5691   30.4918 H   0  0  0  0  0  0  0  0  0  0  0  0
  1 11  1  0
  2  3  2  0
  4  3  1  0
  5  4  2  0
  6  7  2  0
  6  5  1  0
  7  2  1  0
  8  6  1  0
  9  8  1  0
 10 11  1  0
 10  9  2  0
 11 12  2  0
 12  8  1  0
 13  1  1  0
 14  1  1  0
 15 14  1  0
 16 15  1  0
 17 16  2  0
 18 17  1  0
 18 19  2  0
 19 15  1  0
  1 20  1  1
  2 21  1  0
  3 22  1  0
  4 23  1  0
  9 24  1  0
 13 25  1  0
 13 26  1  0
 13 27  1  0
 14 28  1  0
 14 29  1  0
 17 30  1  0
 18 31  1  0
 19 32  1  0
M  ISO  8  20   8  21  14  22  14  23  14  24  14  25   8  26   8  27   8
M  ISO  5  28   8  29   8  30  14  31  14  32  14
M  END
>  <minimizedAffinity>  (1) 
-4.96866035

>  <minimizedRMSD>  (1) 
0.698296905

$$$$
