
     RDKit          3D

 39 41  0  0  1  0  0  0  0  0999 V2000
   36.2620   21.8050   31.9810 C   0  0  1  0  0  0  0  0  0  0  0  0
   39.9590   22.7610   37.9160 C   0  0  0  0  0  0  0  0  0  0  0  0
   38.9780   23.3510   38.7140 C   0  0  0  0  0  0  0  0  0  0  0  0
   37.8240   23.7900   38.1010 C   0  0  0  0  0  0  0  0  0  0  0  0
   37.6800   23.6370   36.7520 N   0  0  0  0  0  0  0  0  0  0  0  0
   38.6500   23.0620   36.0110 C   0  0  0  0  0  0  0  0  0  0  0  0
   39.7800   22.6290   36.5910 N   0  0  0  0  0  0  0  0  0  0  0  0
   38.5430   22.8800   34.6020 N   0  0  0  0  0  0  0  0  0  0  0  0
   39.3090   23.0410   33.5080 C   0  0  0  0  0  0  0  0  0  0  0  0
   38.6000   22.6800   32.4250 N   0  0  0  0  0  0  0  0  0  0  0  0
   37.3580   22.2830   32.8580 C   0  0  0  0  0  0  0  0  0  0  0  0
   37.3650   22.4180   34.1730 N   0  0  0  0  0  0  0  0  0  0  0  0
   35.6050   22.9360   31.2610 C   0  0  0  0  0  0  0  0  0  0  0  0
   36.8370   20.8720   30.9340 C   0  0  0  0  0  0  0  0  0  0  0  0
   36.0730   19.6130   30.7610 C   0  0  1  0  0  0  0  0  0  0  0  0
   36.6570   18.4090   30.1410 C   0  0  0  0  0  0  0  0  0  0  0  0
   36.3030   18.4410   31.6400 C   0  0  2  0  0  0  0  0  0  0  0  0
   35.1430   17.5730   31.8950 N   0  0  0  0  0  0  0  0  0  0  0  0
   35.2320   16.1600   32.0230 C   0  0  0  0  0  0  0  0  0  0  0  0
   36.2930   15.6660   32.5570 N   0  0  0  0  0  0  0  0  0  0  0  0
   34.1970   15.2990   31.5850 N   0  0  0  0  0  0  0  0  0  0  0  0
   37.1090   16.1940   32.9120 H   0  0  0  0  0  0  0  0  0  0  0  0
   35.5209   21.2978   32.6163 H   0  0  0  0  0  0  0  0  0  0  0  0
   40.8900   22.3997   38.3773 H   0  0  0  0  0  0  0  0  0  0  0  0
   39.1212   23.4624   39.7989 H   0  0  0  0  0  0  0  0  0  0  0  0
   37.0255   24.2598   38.6940 H   0  0  0  0  0  0  0  0  0  0  0  0
   40.3459   23.4080   33.5010 H   0  0  0  0  0  0  0  0  0  0  0  0
   35.1924   23.6462   31.9927 H   0  0  0  0  0  0  0  0  0  0  0  0
   36.3459   23.4487   30.6299 H   0  0  0  0  0  0  0  0  0  0  0  0
   34.7926   22.5464   30.6299 H   0  0  0  0  0  0  0  0  0  0  0  0
   36.8528   21.4019   29.9702 H   0  0  0  0  0  0  0  0  0  0  0  0
   37.8423   20.5885   31.2790 H   0  0  0  0  0  0  0  0  0  0  0  0
   35.1974   20.2351   30.5237 H   0  0  0  0  0  0  0  0  0  0  0  0
   36.0609   17.8009   29.4448 H   0  0  0  0  0  0  0  0  0  0  0  0
   37.5602   18.1891   29.5528 H   0  0  0  0  0  0  0  0  0  0  0  0
   36.8016   18.3156   32.6125 H   0  0  0  0  0  0  0  0  0  0  0  0
   34.2161   18.0129   31.9857 H   0  0  0  0  0  0  0  0  0  0  0  0
   34.2949   14.2794   31.6933 H   0  0  0  0  0  0  0  0  0  0  0  0
   33.3461   15.6922   31.1580 H   0  0  0  0  0  0  0  0  0  0  0  0
  1 11  1  0
  2  3  2  0
  4  3  1  0
  5  4  2  0
  6  7  2  0
  6  5  1  0
  7  2  1  0
  8  6  1  0
  9  8  1  0
 10 11  1  0
 10  9  2  0
 11 12  2  0
 12  8  1  0
 13  1  1  0
 14  1  1  0
 15 14  1  0
 15 17  1  0
 16 15  1  0
 16 17  1  0
 17 18  1  0
 18 19  1  0
 19 20  2  0
 20 22  1  0
 21 19  1  0
  1 23  1  1
  2 24  1  0
  3 25  1  0
  4 26  1  0
  9 27  1  0
 13 28  1  0
 13 29  1  0
 13 30  1  0
 14 31  1  0
 14 32  1  0
 15 33  1  6
 16 34  1  0
 16 35  1  0
 17 36  1  1
 18 37  1  0
 21 38  1  0
 21 39  1  0
M  ISO  8  23   8  24  14  25  14  26  14  27  14  28   8  29   8  30   8
M  ISO  6  31   8  32   8  33  13  34  13  35  13  36  13
M  END
>  <minimizedAffinity>  (1) 
-5.32882166

>  <minimizedRMSD>  (1) 
1.17775583

$$$$
