
     RDKit          3D

 39 42  0  0  1  0  0  0  0  0999 V2000
   36.0920   21.2630   32.1060 C   0  0  1  0  0  0  0  0  0  0  0  0
   40.0100   22.5540   37.8250 C   0  0  0  0  0  0  0  0  0  0  0  0
   39.1610   23.3920   38.5270 C   0  0  0  0  0  0  0  0  0  0  0  0
   38.0570   23.9060   37.8480 C   0  0  0  0  0  0  0  0  0  0  0  0
   37.8670   23.5640   36.5450 N   0  0  0  0  0  0  0  0  0  0  0  0
   38.7200   22.7440   35.8990 C   0  0  0  0  0  0  0  0  0  0  0  0
   39.7920   22.2370   36.5360 N   0  0  0  0  0  0  0  0  0  0  0  0
   38.5520   22.3680   34.5460 N   0  0  0  0  0  0  0  0  0  0  0  0
   39.3100   22.2380   33.4420 C   0  0  0  0  0  0  0  0  0  0  0  0
   38.5450   21.8280   32.4200 N   0  0  0  0  0  0  0  0  0  0  0  0
   37.2780   21.6980   32.8960 C   0  0  0  0  0  0  0  0  0  0  0  0
   37.3210   22.0310   34.1760 N   0  0  0  0  0  0  0  0  0  0  0  0
   35.2400   22.4360   31.7220 C   0  0  0  0  0  0  0  0  0  0  0  0
   36.5700   20.6110   30.8250 C   0  0  0  0  0  0  0  0  0  0  0  0
   36.4020   19.1480   30.7750 C   0  0  1  0  0  0  0  0  0  0  0  0
   37.0330   18.3150   29.7140 C   0  0  0  0  0  0  0  0  0  0  0  0
   37.5170   18.2440   31.1580 C   0  0  2  0  0  0  0  0  0  0  0  0
   37.0370   16.9080   31.8250 C   0  0  0  0  0  0  0  0  0  0  0  0
   37.8890   15.9750   32.1570 C   0  0  0  0  0  0  0  0  0  0  0  0
   37.5870   14.8070   32.7290 C   0  0  0  0  0  0  0  0  0  0  0  0
   36.1650   14.6950   32.9430 C   0  0  0  0  0  0  0  0  0  0  0  0
   35.4800   16.3550   32.2580 S   0  0  0  0  0  0  0  0  0  0  0  0
   35.5047   20.5675   32.7235 H   0  0  0  0  0  0  0  0  0  0  0  0
   40.8891   22.1348   38.3363 H   0  0  0  0  0  0  0  0  0  0  0  0
   39.3502   23.6431   39.5811 H   0  0  0  0  0  0  0  0  0  0  0  0
   37.3506   24.5776   38.3579 H   0  0  0  0  0  0  0  0  0  0  0  0
   40.3904   22.4373   33.3864 H   0  0  0  0  0  0  0  0  0  0  0  0
   34.8757   22.9376   32.6306 H   0  0  0  0  0  0  0  0  0  0  0  0
   35.8364   23.1432   31.1269 H   0  0  0  0  0  0  0  0  0  0  0  0
   34.3830   22.0875   31.1269 H   0  0  0  0  0  0  0  0  0  0  0  0
   36.0068   21.0487   29.9876 H   0  0  0  0  0  0  0  0  0  0  0  0
   37.6521   20.8001   30.7670 H   0  0  0  0  0  0  0  0  0  0  0  0
   35.3650   19.2888   31.1137 H   0  0  0  0  0  0  0  0  0  0  0  0
   36.4822   17.4708   29.2736 H   0  0  0  0  0  0  0  0  0  0  0  0
   37.5029   18.5122   28.7391 H   0  0  0  0  0  0  0  0  0  0  0  0
   38.4664   18.3799   31.6967 H   0  0  0  0  0  0  0  0  0  0  0  0
   38.9510   16.1692   31.9463 H   0  0  0  0  0  0  0  0  0  0  0  0
   38.3225   14.0353   33.0001 H   0  0  0  0  0  0  0  0  0  0  0  0
   35.6065   13.8598   33.3908 H   0  0  0  0  0  0  0  0  0  0  0  0
  1 11  1  0
  2  3  2  0
  4  3  1  0
  5  4  2  0
  6  7  2  0
  6  5  1  0
  7  2  1  0
  8  6  1  0
  9  8  1  0
 10 11  1  0
 10  9  2  0
 11 12  2  0
 12  8  1  0
 13  1  1  0
 14  1  1  0
 15 14  1  0
 15 17  1  0
 16 15  1  0
 16 17  1  0
 17 18  1  0
 18 19  2  0
 18 22  1  0
 19 20  1  0
 20 21  2  0
 22 21  1  0
  1 23  1  1
  2 24  1  0
  3 25  1  0
  4 26  1  0
  9 27  1  0
 13 28  1  0
 13 29  1  0
 13 30  1  0
 14 31  1  0
 14 32  1  0
 15 33  1  1
 16 34  1  0
 16 35  1  0
 17 36  1  6
 19 37  1  0
 20 38  1  0
 21 39  1  0
M  ISO  8  23   8  24  14  25  14  26  14  27  14  28   8  29   8  30   8
M  ISO  8  31   8  32   8  33  13  34  13  35  13  36  13  37  14  38  14
M  ISO  1  39  14
M  END
>  <minimizedAffinity>  (1) 
-4.88102484

>  <minimizedRMSD>  (1) 
2.56717801

$$$$
