
     RDKit          3D

 41 43  0  0  1  0  0  0  0  0999 V2000
   36.2180   24.5690   32.0280 C   0  0  1  0  0  0  0  0  0  0  0  0
   41.3930   22.9140   36.5260 C   0  0  0  0  0  0  0  0  0  0  0  0
   40.6380   22.6050   37.6630 C   0  0  0  0  0  0  0  0  0  0  0  0
   39.2880   22.9550   37.6660 C   0  0  0  0  0  0  0  0  0  0  0  0
   38.7710   23.5780   36.5700 N   0  0  0  0  0  0  0  0  0  0  0  0
   39.5370   23.8590   35.4900 C   0  0  0  0  0  0  0  0  0  0  0  0
   40.8360   23.5270   35.4750 N   0  0  0  0  0  0  0  0  0  0  0  0
   39.0300   24.5070   34.3300 N   0  0  0  0  0  0  0  0  0  0  0  0
   39.4120   25.4850   33.4880 C   0  0  0  0  0  0  0  0  0  0  0  0
   38.4600   25.6430   32.5490 N   0  0  0  0  0  0  0  0  0  0  0  0
   37.4650   24.7360   32.8210 C   0  0  0  0  0  0  0  0  0  0  0  0
   37.8390   24.0660   33.9010 N   0  0  0  0  0  0  0  0  0  0  0  0
   35.9860   25.7340   31.1160 C   0  0  0  0  0  0  0  0  0  0  0  0
   36.3450   23.3370   31.1670 C   0  0  0  0  0  0  0  0  0  0  0  0
   35.7590   22.1160   31.7630 C   0  0  1  0  0  0  0  0  0  0  0  0
   35.2590   20.9890   30.9290 C   0  0  0  0  0  0  0  0  0  0  0  0
   36.5090   20.8320   31.8050 C   0  0  2  0  0  0  0  0  0  0  0  0
   36.2230   19.9730   33.0330 C   0  0  0  0  0  0  0  0  0  0  0  0
   35.3310   18.8350   32.6770 C   0  0  0  0  0  0  0  0  0  0  0  0
   35.6350   20.7540   34.1710 C   0  0  0  0  0  0  0  0  0  0  0  0
   35.3788   24.4887   32.7347 H   0  0  0  0  0  0  0  0  0  0  0  0
   42.4602   22.6491   36.4958 H   0  0  0  0  0  0  0  0  0  0  0  0
   41.0952   22.1016   38.5276 H   0  0  0  0  0  0  0  0  0  0  0  0
   38.6530   22.7325   38.5362 H   0  0  0  0  0  0  0  0  0  0  0  0
   40.3472   26.0601   33.5557 H   0  0  0  0  0  0  0  0  0  0  0  0
   35.8058   26.6386   31.7153 H   0  0  0  0  0  0  0  0  0  0  0  0
   36.8717   25.8849   30.4814 H   0  0  0  0  0  0  0  0  0  0  0  0
   35.1100   25.5341   30.4814 H   0  0  0  0  0  0  0  0  0  0  0  0
   37.4140   23.1527   30.9845 H   0  0  0  0  0  0  0  0  0  0  0  0
   35.7828   23.5383   30.2432 H   0  0  0  0  0  0  0  0  0  0  0  0
   35.2995   22.7635   32.5243 H   0  0  0  0  0  0  0  0  0  0  0  0
   34.3260   20.4727   31.1992 H   0  0  0  0  0  0  0  0  0  0  0  0
   35.0250   20.8455   29.8638 H   0  0  0  0  0  0  0  0  0  0  0  0
   37.5626   20.5505   31.6611 H   0  0  0  0  0  0  0  0  0  0  0  0
   37.1937   19.5871   33.3778 H   0  0  0  0  0  0  0  0  0  0  0  0
   34.9584   18.3597   33.5964 H   0  0  0  0  0  0  0  0  0  0  0  0
   34.4810   19.2064   32.0858 H   0  0  0  0  0  0  0  0  0  0  0  0
   35.8947   18.0983   32.0858 H   0  0  0  0  0  0  0  0  0  0  0  0
   35.9645   20.3164   35.1249 H   0  0  0  0  0  0  0  0  0  0  0  0
   35.9722   21.7993   34.1112 H   0  0  0  0  0  0  0  0  0  0  0  0
   34.5372   20.7189   34.1112 H   0  0  0  0  0  0  0  0  0  0  0  0
  1 11  1  0
  2  3  2  0
  3  4  1  0
  5  4  2  0
  6  5  1  0
  7  6  2  0
  7  2  1  0
  8  6  1  0
  9  8  1  0
 10 11  1  0
 10  9  2  0
 11 12  2  0
 12  8  1  0
 13  1  1  0
 14 15  1  0
 14  1  1  0
 15 17  1  0
 16 15  1  0
 16 17  1  0
 17 18  1  0
 18 20  1  0
 19 18  1  0
  1 21  1  1
  2 22  1  0
  3 23  1  0
  4 24  1  0
  9 25  1  0
 13 26  1  0
 13 27  1  0
 13 28  1  0
 14 29  1  0
 14 30  1  0
 15 31  1  1
 16 32  1  0
 16 33  1  0
 17 34  1  6
 18 35  1  0
 19 36  1  0
 19 37  1  0
 19 38  1  0
 20 39  1  0
 20 40  1  0
 20 41  1  0
M  ISO  8  21   8  22  14  23  14  24  14  25  14  26   8  27   8  28   8
M  ISO  8  29   8  30   8  31  13  32  13  33  13  34  13  35   8  36   8
M  ISO  5  37   8  38   8  39   8  40   8  41   8
M  END
>  <minimizedAffinity>  (1) 
-4.84484529

>  <minimizedRMSD>  (1) 
2.4680686

$$$$
