
     RDKit          3D

 43 47  0  0  1  0  0  0  0  0999 V2000
   36.3030   21.9060   31.9540 C   0  0  1  0  0  0  0  0  0  0  0  0
   39.8770   22.7670   37.9770 C   0  0  0  0  0  0  0  0  0  0  0  0
   38.9440   23.4980   38.7210 C   0  0  0  0  0  0  0  0  0  0  0  0
   37.8520   24.0290   38.0420 C   0  0  0  0  0  0  0  0  0  0  0  0
   37.7380   23.8150   36.7000 N   0  0  0  0  0  0  0  0  0  0  0  0
   38.6650   23.1010   36.0200 C   0  0  0  0  0  0  0  0  0  0  0  0
   39.7230   22.5830   36.6560 N   0  0  0  0  0  0  0  0  0  0  0  0
   38.5770   22.8620   34.6240 N   0  0  0  0  0  0  0  0  0  0  0  0
   39.3990   22.8890   33.5600 C   0  0  0  0  0  0  0  0  0  0  0  0
   38.7030   22.5530   32.4610 N   0  0  0  0  0  0  0  0  0  0  0  0
   37.4110   22.3090   32.8550 C   0  0  0  0  0  0  0  0  0  0  0  0
   37.3810   22.5070   34.1640 N   0  0  0  0  0  0  0  0  0  0  0  0
   35.4980   23.0940   31.5210 C   0  0  0  0  0  0  0  0  0  0  0  0
   36.8770   21.2640   30.7130 C   0  0  0  0  0  0  0  0  0  0  0  0
   36.6160   19.7970   30.6240 C   0  0  1  0  0  0  0  0  0  0  0  0
   37.4410   18.8870   29.7840 C   0  0  0  0  0  0  0  0  0  0  0  0
   37.4650   18.8220   31.3190 C   0  0  2  0  0  0  0  0  0  0  0  0
   36.7450   17.6500   31.8530 N   0  0  0  0  0  0  0  0  0  0  0  0
   35.4430   17.4560   32.1400 C   0  0  0  0  0  0  0  0  0  0  0  0
   35.2420   16.2250   32.6070 N   0  0  0  0  0  0  0  0  0  0  0  0
   36.4130   15.5870   32.6360 C   0  0  0  0  0  0  0  0  0  0  0  0
   36.6880   14.2970   33.0440 C   0  0  0  0  0  0  0  0  0  0  0  0
   37.9750   13.9050   32.9670 N   0  0  0  0  0  0  0  0  0  0  0  0
   38.9160   14.7620   32.5070 C   0  0  0  0  0  0  0  0  0  0  0  0
   38.6110   16.0110   32.1180 N   0  0  0  0  0  0  0  0  0  0  0  0
   37.3520   16.4730   32.1660 C   0  0  0  0  0  0  0  0  0  0  0  0
   35.6574   21.2062   32.5050 H   0  0  0  0  0  0  0  0  0  0  0  0
   40.7526   22.3352   38.4838 H   0  0  0  0  0  0  0  0  0  0  0  0
   39.0695   23.6473   39.8036 H   0  0  0  0  0  0  0  0  0  0  0  0
   37.0911   24.6133   38.5801 H   0  0  0  0  0  0  0  0  0  0  0  0
   40.4685   23.1449   33.5854 H   0  0  0  0  0  0  0  0  0  0  0  0
   35.1330   23.6326   32.4080 H   0  0  0  0  0  0  0  0  0  0  0  0
   36.1286   23.7644   30.9186 H   0  0  0  0  0  0  0  0  0  0  0  0
   34.6416   22.7568   30.9186 H   0  0  0  0  0  0  0  0  0  0  0  0
   36.4322   21.7504   29.8323 H   0  0  0  0  0  0  0  0  0  0  0  0
   37.9682   21.3955   30.7570 H   0  0  0  0  0  0  0  0  0  0  0  0
   35.5429   20.0374   30.6497 H   0  0  0  0  0  0  0  0  0  0  0  0
   36.9646   18.0846   29.2015 H   0  0  0  0  0  0  0  0  0  0  0  0
   38.1896   19.0104   28.9875 H   0  0  0  0  0  0  0  0  0  0  0  0
   38.2314   18.8841   32.1056 H   0  0  0  0  0  0  0  0  0  0  0  0
   34.6541   18.2109   32.0069 H   0  0  0  0  0  0  0  0  0  0  0  0
   35.8987   13.6251   33.4122 H   0  0  0  0  0  0  0  0  0  0  0  0
   39.9618   14.4257   32.4500 H   0  0  0  0  0  0  0  0  0  0  0  0
  1 11  1  0
  2  3  2  0
  4  3  1  0
  5  4  2  0
  6  7  2  0
  6  5  1  0
  7  2  1  0
  8  6  1  0
  9  8  1  0
 10 11  1  0
 10  9  2  0
 11 12  2  0
 12  8  1  0
 13  1  1  0
 14  1  1  0
 15 14  1  0
 15 17  1  0
 16 15  1  0
 16 17  1  0
 17 18  1  0
 18 19  1  0
 18 26  1  0
 19 20  2  0
 20 21  1  0
 21 22  2  0
 23 22  1  0
 24 23  2  0
 25 26  2  0
 25 24  1  0
 26 21  1  0
  1 27  1  1
  2 28  1  0
  3 29  1  0
  4 30  1  0
  9 31  1  0
 13 32  1  0
 13 33  1  0
 13 34  1  0
 14 35  1  0
 14 36  1  0
 15 37  1  6
 16 38  1  0
 16 39  1  0
 17 40  1  1
 19 41  1  0
 22 42  1  0
 24 43  1  0
M  ISO  8  27   8  28  14  29  14  30  14  31  14  32   8  33   8  34   8
M  ISO  8  35   8  36   8  37  13  38  13  39  13  40  13  41  14  42  14
M  ISO  1  43  14
M  END
>  <minimizedAffinity>  (1) 
-5.0837574

>  <minimizedRMSD>  (1) 
2.90474415

$$$$
