
     RDKit          3D

 39 42  0  0  1  0  0  0  0  0999 V2000
   36.3270   21.6880   31.9790 C   0  0  1  0  0  0  0  0  0  0  0  0
   39.9490   22.7770   37.9360 C   0  0  0  0  0  0  0  0  0  0  0  0
   38.9470   23.3560   38.7230 C   0  0  0  0  0  0  0  0  0  0  0  0
   37.7930   23.7630   38.0960 C   0  0  0  0  0  0  0  0  0  0  0  0
   37.6760   23.5860   36.7530 N   0  0  0  0  0  0  0  0  0  0  0  0
   38.6620   23.0230   36.0150 C   0  0  0  0  0  0  0  0  0  0  0  0
   39.7960   22.6180   36.6020 N   0  0  0  0  0  0  0  0  0  0  0  0
   38.5610   22.8290   34.6100 N   0  0  0  0  0  0  0  0  0  0  0  0
   39.3330   23.0030   33.5220 C   0  0  0  0  0  0  0  0  0  0  0  0
   38.6450   22.6220   32.4390 N   0  0  0  0  0  0  0  0  0  0  0  0
   37.4080   22.1970   32.8610 C   0  0  0  0  0  0  0  0  0  0  0  0
   37.4040   22.3400   34.1740 N   0  0  0  0  0  0  0  0  0  0  0  0
   35.4190   22.7970   31.5410 C   0  0  0  0  0  0  0  0  0  0  0  0
   36.9440   21.0950   30.7310 C   0  0  0  0  0  0  0  0  0  0  0  0
   36.8360   19.6160   30.6480 C   0  0  1  0  0  0  0  0  0  0  0  0
   37.8860   18.7610   30.0290 C   0  0  0  0  0  0  0  0  0  0  0  0
   37.6340   18.7450   31.5410 C   0  0  2  0  0  0  0  0  0  0  0  0
   36.9310   17.4760   31.9550 C   0  0  0  0  0  0  0  0  0  0  0  0
   35.5850   17.3630   32.2290 C   0  0  0  0  0  0  0  0  0  0  0  0
   35.2530   16.0830   32.5780 C   0  0  0  0  0  0  0  0  0  0  0  0
   36.4860   15.4320   32.4970 C   0  0  0  0  0  0  0  0  0  0  0  0
   37.4200   16.2510   32.1400 O   0  0  0  0  0  0  0  0  0  0  0  0
   35.7532   20.9398   32.5455 H   0  0  0  0  0  0  0  0  0  0  0  0
   40.8822   22.4437   38.4135 H   0  0  0  0  0  0  0  0  0  0  0  0
   39.0784   23.4814   39.8079 H   0  0  0  0  0  0  0  0  0  0  0  0
   36.9773   24.2245   38.6718 H   0  0  0  0  0  0  0  0  0  0  0  0
   40.3611   23.3942   33.5224 H   0  0  0  0  0  0  0  0  0  0  0  0
   35.0049   23.3028   32.4257 H   0  0  0  0  0  0  0  0  0  0  0  0
   35.9878   23.5200   30.9379 H   0  0  0  0  0  0  0  0  0  0  0  0
   34.5979   22.3821   30.9379 H   0  0  0  0  0  0  0  0  0  0  0  0
   36.4383   21.5284   29.8556 H   0  0  0  0  0  0  0  0  0  0  0  0
   38.0172   21.3345   30.7618 H   0  0  0  0  0  0  0  0  0  0  0  0
   35.7626   19.7519   30.4498 H   0  0  0  0  0  0  0  0  0  0  0  0
   37.6026   17.8961   29.4113 H   0  0  0  0  0  0  0  0  0  0  0  0
   38.7570   18.9329   29.3795 H   0  0  0  0  0  0  0  0  0  0  0  0
   38.2194   18.9139   32.4569 H   0  0  0  0  0  0  0  0  0  0  0  0
   34.8690   18.1962   32.1740 H   0  0  0  0  0  0  0  0  0  0  0  0
   34.2698   15.6726   32.8516 H   0  0  0  0  0  0  0  0  0  0  0  0
   36.6416   14.3639   32.7089 H   0  0  0  0  0  0  0  0  0  0  0  0
  1 11  1  0
  2  3  2  0
  4  3  1  0
  5  4  2  0
  6  7  2  0
  6  5  1  0
  7  2  1  0
  8  6  1  0
  9  8  1  0
 10 11  1  0
 10  9  2  0
 11 12  2  0
 12  8  1  0
 13  1  1  0
 14  1  1  0
 15 14  1  0
 15 17  1  0
 16 15  1  0
 16 17  1  0
 17 18  1  0
 18 22  1  0
 18 19  2  0
 19 20  1  0
 21 20  2  0
 22 21  1  0
  1 23  1  1
  2 24  1  0
  3 25  1  0
  4 26  1  0
  9 27  1  0
 13 28  1  0
 13 29  1  0
 13 30  1  0
 14 31  1  0
 14 32  1  0
 15 33  1  6
 16 34  1  0
 16 35  1  0
 17 36  1  1
 19 37  1  0
 20 38  1  0
 21 39  1  0
M  ISO  8  23   8  24  14  25  14  26  14  27  14  28   8  29   8  30   8
M  ISO  8  31   8  32   8  33  13  34  13  35  13  36  13  37  14  38  14
M  ISO  1  39  14
M  END
>  <minimizedAffinity>  (1) 
-4.90409994

>  <minimizedRMSD>  (1) 
2.27139497

$$$$
