
     RDKit          3D

 46 50  0  0  1  0  0  0  0  0999 V2000
   37.0510   20.6360   30.8470 C   0  0  0  0  0  0  0  0  0  0  0  0
   37.4160   19.1970   30.7410 C   0  0  1  0  0  0  0  0  0  0  0  0
   38.4810   18.5840   31.5650 C   0  0  0  0  0  0  0  0  0  0  0  0
   37.0070   18.2130   31.7490 C   0  0  2  0  0  0  0  0  0  0  0  0
   36.7780   16.8320   31.2750 N   0  0  0  0  0  0  0  0  0  0  0  0
   36.7230   15.7500   32.0380 C   0  0  0  0  0  0  0  0  0  0  0  0
   36.4970   14.6800   31.2350 N   0  0  0  0  0  0  0  0  0  0  0  0
   36.4090   15.0870   29.9590 C   0  0  0  0  0  0  0  0  0  0  0  0
   36.1920   14.4390   28.7430 C   0  0  0  0  0  0  0  0  0  0  0  0
   36.0330   13.1870   28.7620 O   0  0  0  0  0  0  0  0  0  0  0  0
   36.1520   15.1390   27.5710 N   0  0  0  0  0  0  0  0  0  0  0  0
   36.3320   16.4770   27.6480 C   0  0  0  0  0  0  0  0  0  0  0  0
   36.2850   17.1830   26.4020 N   0  0  0  0  0  0  0  0  0  0  0  0
   36.5450   17.1370   28.8160 N   0  0  0  0  0  0  0  0  0  0  0  0
   36.5880   16.4570   29.9960 C   0  0  0  0  0  0  0  0  0  0  0  0
   36.4420   21.0050   32.1870 C   0  0  1  0  0  0  0  0  0  0  0  0
   39.9520   22.8340   38.0270 C   0  0  0  0  0  0  0  0  0  0  0  0
   38.9210   23.4100   38.7740 C   0  0  0  0  0  0  0  0  0  0  0  0
   37.7400   23.6850   38.1090 C   0  0  0  0  0  0  0  0  0  0  0  0
   37.6170   23.3930   36.7770 N   0  0  0  0  0  0  0  0  0  0  0  0
   38.6470   22.8350   36.0990 C   0  0  0  0  0  0  0  0  0  0  0  0
   39.8000   22.5600   36.7250 N   0  0  0  0  0  0  0  0  0  0  0  0
   38.5800   22.5100   34.7180 N   0  0  0  0  0  0  0  0  0  0  0  0
   39.3560   22.6250   33.6210 C   0  0  0  0  0  0  0  0  0  0  0  0
   38.6970   22.1060   32.5760 N   0  0  0  0  0  0  0  0  0  0  0  0
   37.4810   21.6540   33.0280 C   0  0  0  0  0  0  0  0  0  0  0  0
   37.4530   21.9170   34.3210 N   0  0  0  0  0  0  0  0  0  0  0  0
   35.3060   21.9380   31.9110 C   0  0  0  0  0  0  0  0  0  0  0  0
   36.3229   20.8704   30.0565 H   0  0  0  0  0  0  0  0  0  0  0  0
   37.9798   21.2157   30.7412 H   0  0  0  0  0  0  0  0  0  0  0  0
   37.2547   19.2945   29.6573 H   0  0  0  0  0  0  0  0  0  0  0  0
   39.1826   17.8640   31.1185 H   0  0  0  0  0  0  0  0  0  0  0  0
   39.2867   18.9561   32.2149 H   0  0  0  0  0  0  0  0  0  0  0  0
   36.2440   18.2279   32.5412 H   0  0  0  0  0  0  0  0  0  0  0  0
   36.8401   15.7239   33.1314 H   0  0  0  0  0  0  0  0  0  0  0  0
   35.9919   14.6688   26.6687 H   0  0  0  0  0  0  0  0  0  0  0  0
   36.4140   18.2047   26.3838 H   0  0  0  0  0  0  0  0  0  0  0  0
   36.1223   16.6688   25.5245 H   0  0  0  0  0  0  0  0  0  0  0  0
   36.0734   20.1217   32.7291 H   0  0  0  0  0  0  0  0  0  0  0  0
   40.9081   22.6009   38.5185 H   0  0  0  0  0  0  0  0  0  0  0  0
   39.0434   23.6348   39.8438 H   0  0  0  0  0  0  0  0  0  0  0  0
   36.8977   24.1393   38.6513 H   0  0  0  0  0  0  0  0  0  0  0  0
   40.3614   23.0702   33.5894 H   0  0  0  0  0  0  0  0  0  0  0  0
   34.8796   22.2882   32.8626 H   0  0  0  0  0  0  0  0  0  0  0  0
   35.6715   22.8001   31.3337 H   0  0  0  0  0  0  0  0  0  0  0  0
   34.5314   21.4119   31.3337 H   0  0  0  0  0  0  0  0  0  0  0  0
  1 16  1  0
  2  1  1  0
  2  3  1  0
  2  4  1  0
  3  4  1  0
  5  4  1  0
  5  6  1  0
  7  6  2  0
  8 15  2  0
  8  7  1  0
  9 10  2  0
  9  8  1  0
 11 12  1  0
 11  9  1  0
 12 14  2  0
 13 12  1  0
 14 15  1  0
 15  5  1  0
 16 26  1  0
 17 18  2  0
 19 18  1  0
 20 19  2  0
 21 22  2  0
 21 20  1  0
 22 17  1  0
 23 21  1  0
 24 23  1  0
 25 26  1  0
 25 24  2  0
 26 27  2  0
 27 23  1  0
 28 16  1  0
  1 29  1  0
  1 30  1  0
  2 31  1  6
  3 32  1  0
  3 33  1  0
  4 34  1  1
  6 35  1  0
 11 36  1  0
 13 37  1  0
 13 38  1  0
 16 39  1  1
 17 40  1  0
 18 41  1  0
 19 42  1  0
 24 43  1  0
 28 44  1  0
 28 45  1  0
 28 46  1  0
M  ISO  8  29   8  30   8  31  13  32  13  33  13  34  13  35  14  36   9
M  ISO  8  39   8  40  14  41  14  42  14  43  14  44   8  45   8  46   8
M  END
>  <minimizedAffinity>  (1) 
-4.89498615

>  <minimizedRMSD>  (1) 
3.21334529

$$$$
