
     RDKit          3D

 38 40  0  0  1  0  0  0  0  0999 V2000
   36.2440   22.2010   31.9160 C   0  0  1  0  0  0  0  0  0  0  0  0
   39.9530   22.8160   37.8870 C   0  0  0  0  0  0  0  0  0  0  0  0
   38.9640   23.2990   38.7310 C   0  0  0  0  0  0  0  0  0  0  0  0
   37.7780   23.7470   38.1630 C   0  0  0  0  0  0  0  0  0  0  0  0
   37.6330   23.6940   36.8150 N   0  0  0  0  0  0  0  0  0  0  0  0
   38.6220   23.2150   36.0220 C   0  0  0  0  0  0  0  0  0  0  0  0
   39.7710   22.7800   36.5550 N   0  0  0  0  0  0  0  0  0  0  0  0
   38.5080   23.1370   34.6030 N   0  0  0  0  0  0  0  0  0  0  0  0
   39.2680   23.4060   33.5200 C   0  0  0  0  0  0  0  0  0  0  0  0
   38.5700   23.1110   32.4110 N   0  0  0  0  0  0  0  0  0  0  0  0
   37.3460   22.6470   32.8200 C   0  0  0  0  0  0  0  0  0  0  0  0
   37.3430   22.6760   34.1440 N   0  0  0  0  0  0  0  0  0  0  0  0
   35.5500   23.3700   31.2860 C   0  0  0  0  0  0  0  0  0  0  0  0
   36.8270   21.3720   30.8060 C   0  0  0  0  0  0  0  0  0  0  0  0
   36.2480   20.0170   30.6810 C   0  0  1  0  0  0  0  0  0  0  0  0
   36.7140   19.0440   29.6540 C   0  0  0  0  0  0  0  0  0  0  0  0
   36.9910   18.8120   31.1330 C   0  0  2  0  0  0  0  0  0  0  0  0
   36.1130   17.7190   31.7280 C   0  0  0  0  0  0  0  0  0  0  0  0
   35.2680   18.3620   32.8040 C   0  0  0  0  0  0  0  0  0  0  0  0
   35.5236   21.6277   32.5180 H   0  0  0  0  0  0  0  0  0  0  0  0
   40.9010   22.4568   38.3138 H   0  0  0  0  0  0  0  0  0  0  0  0
   39.1146   23.3266   39.8203 H   0  0  0  0  0  0  0  0  0  0  0  0
   36.9686   24.1388   38.7966 H   0  0  0  0  0  0  0  0  0  0  0  0
   40.2937   23.8029   33.5423 H   0  0  0  0  0  0  0  0  0  0  0  0
   35.1576   24.0310   32.0728 H   0  0  0  0  0  0  0  0  0  0  0  0
   36.2638   23.9271   30.6613 H   0  0  0  0  0  0  0  0  0  0  0  0
   34.7192   23.0101   30.6613 H   0  0  0  0  0  0  0  0  0  0  0  0
   36.6627   21.9043   29.8575 H   0  0  0  0  0  0  0  0  0  0  0  0
   37.8920   21.2354   31.0449 H   0  0  0  0  0  0  0  0  0  0  0  0
   35.2716   20.4611   30.9249 H   0  0  0  0  0  0  0  0  0  0  0  0
   35.9877   18.4118   29.1222 H   0  0  0  0  0  0  0  0  0  0  0  0
   37.3267   19.1012   28.7422 H   0  0  0  0  0  0  0  0  0  0  0  0
   37.8795   18.6386   31.7578 H   0  0  0  0  0  0  0  0  0  0  0  0
   35.4673   17.2881   30.9487 H   0  0  0  0  0  0  0  0  0  0  0  0
   36.7277   16.9082   32.1461 H   0  0  0  0  0  0  0  0  0  0  0  0
   35.6505   18.0709   33.7934 H   0  0  0  0  0  0  0  0  0  0  0  0
   35.3132   19.4562   32.7008 H   0  0  0  0  0  0  0  0  0  0  0  0
   34.2254   18.0267   32.7008 H   0  0  0  0  0  0  0  0  0  0  0  0
  1 11  1  0
  2  3  2  0
  4  3  1  0
  5  4  2  0
  6  7  2  0
  6  5  1  0
  7  2  1  0
  8  6  1  0
  9  8  1  0
 10 11  1  0
 10  9  2  0
 11 12  2  0
 12  8  1  0
 13  1  1  0
 14  1  1  0
 15 14  1  0
 15 17  1  0
 16 15  1  0
 16 17  1  0
 17 18  1  0
 18 19  1  0
  1 20  1  1
  2 21  1  0
  3 22  1  0
  4 23  1  0
  9 24  1  0
 13 25  1  0
 13 26  1  0
 13 27  1  0
 14 28  1  0
 14 29  1  0
 15 30  1  1
 16 31  1  0
 16 32  1  0
 17 33  1  6
 18 34  1  0
 18 35  1  0
 19 36  1  0
 19 37  1  0
 19 38  1  0
M  ISO  8  20   8  21  14  22  14  23  14  24  14  25   8  26   8  27   8
M  ISO  8  28   8  29   8  30  13  31  13  32  13  33  13  34   8  35   8
M  ISO  3  36   8  37   8  38   8
M  END
>  <minimizedAffinity>  (1) 
-4.78391647

>  <minimizedRMSD>  (1) 
1.48864257

$$$$
