
     RDKit          3D

 34 36  0  0  1  0  0  0  0  0999 V2000
   36.2060   21.9360   31.9280 C   0  0  1  0  0  0  0  0  0  0  0  0
   39.9470   22.7460   37.8510 C   0  0  0  0  0  0  0  0  0  0  0  0
   38.9820   23.3150   38.6880 C   0  0  0  0  0  0  0  0  0  0  0  0
   37.8130   23.7680   38.0880 C   0  0  0  0  0  0  0  0  0  0  0  0
   37.6490   23.6490   36.7340 N   0  0  0  0  0  0  0  0  0  0  0  0
   38.6190   23.0890   35.9720 C   0  0  0  0  0  0  0  0  0  0  0  0
   39.7520   22.6440   36.5310 N   0  0  0  0  0  0  0  0  0  0  0  0
   38.4940   22.9420   34.5650 N   0  0  0  0  0  0  0  0  0  0  0  0
   39.2610   23.1370   33.4710 C   0  0  0  0  0  0  0  0  0  0  0  0
   38.5480   22.8050   32.3820 N   0  0  0  0  0  0  0  0  0  0  0  0
   37.3100   22.3930   32.8100 C   0  0  0  0  0  0  0  0  0  0  0  0
   37.3120   22.4890   34.1360 N   0  0  0  0  0  0  0  0  0  0  0  0
   35.5300   23.0900   31.2550 C   0  0  0  0  0  0  0  0  0  0  0  0
   36.7730   21.0490   30.8430 C   0  0  0  0  0  0  0  0  0  0  0  0
   36.1820   19.6800   30.8140 C   0  0  1  0  0  0  0  0  0  0  0  0
   36.7800   18.5630   30.0370 C   0  0  0  0  0  0  0  0  0  0  0  0
   36.7910   18.5690   31.5650 C   0  0  2  0  0  0  0  0  0  0  0  0
   35.7820   17.5720   32.0990 C   0  0  0  0  0  0  0  0  0  0  0  0
   35.1360   18.1230   32.9810 O   0  0  0  0  0  0  0  0  0  0  0  0
   35.4779   21.3992   32.5539 H   0  0  0  0  0  0  0  0  0  0  0  0
   40.8862   22.3744   38.2868 H   0  0  0  0  0  0  0  0  0  0  0  0
   39.1411   23.4003   39.7731 H   0  0  0  0  0  0  0  0  0  0  0  0
   37.0201   24.2218   38.7006 H   0  0  0  0  0  0  0  0  0  0  0  0
   40.2972   23.5062   33.4714 H   0  0  0  0  0  0  0  0  0  0  0  0
   35.1288   23.7749   32.0166 H   0  0  0  0  0  0  0  0  0  0  0  0
   36.2572   23.6255   30.6270 H   0  0  0  0  0  0  0  0  0  0  0  0
   34.7073   22.7175   30.6270 H   0  0  0  0  0  0  0  0  0  0  0  0
   36.5860   21.5280   29.8706 H   0  0  0  0  0  0  0  0  0  0  0  0
   37.8459   20.9301   31.0547 H   0  0  0  0  0  0  0  0  0  0  0  0
   35.1923   20.1601   30.8086 H   0  0  0  0  0  0  0  0  0  0  0  0
   36.1342   17.8602   29.4902 H   0  0  0  0  0  0  0  0  0  0  0  0
   37.5383   18.4730   29.2452 H   0  0  0  0  0  0  0  0  0  0  0  0
   37.5425   18.5049   32.3657 H   0  0  0  0  0  0  0  0  0  0  0  0
   35.6528   16.5353   31.7545 H   0  0  0  0  0  0  0  0  0  0  0  0
  1 11  1  0
  2  3  2  0
  4  3  1  0
  5  4  2  0
  6  7  2  0
  6  5  1  0
  7  2  1  0
  8  6  1  0
  9  8  1  0
 10 11  1  0
 10  9  2  0
 11 12  2  0
 12  8  1  0
 13  1  1  0
 14  1  1  0
 15 14  1  0
 15 17  1  0
 16 15  1  0
 16 17  1  0
 17 18  1  0
 18 19  2  0
  1 20  1  1
  2 21  1  0
  3 22  1  0
  4 23  1  0
  9 24  1  0
 13 25  1  0
 13 26  1  0
 13 27  1  0
 14 28  1  0
 14 29  1  0
 15 30  1  1
 16 31  1  0
 16 32  1  0
 17 33  1  6
 18 34  1  0
M  ISO  8  20   8  21  14  22  14  23  14  24  14  25   8  26   8  27   8
M  ISO  7  28   8  29   8  30  13  31  13  32  13  33  13  34   6
M  END
>  <minimizedAffinity>  (1) 
-4.68950272

>  <minimizedRMSD>  (1) 
1.34914434

$$$$
