
     RDKit          3D

 46 49  0  0  1  0  0  0  0  0999 V2000
   36.5730   21.9060   31.8870 C   0  0  1  0  0  0  0  0  0  0  0  0
   39.9740   22.8950   37.9900 C   0  0  0  0  0  0  0  0  0  0  0  0
   38.9080   23.3180   38.7910 C   0  0  0  0  0  0  0  0  0  0  0  0
   37.7150   23.6650   38.1640 C   0  0  0  0  0  0  0  0  0  0  0  0
   37.6450   23.5770   36.8080 N   0  0  0  0  0  0  0  0  0  0  0  0
   38.6880   23.1660   36.0680 C   0  0  0  0  0  0  0  0  0  0  0  0
   39.8430   22.8280   36.6580 N   0  0  0  0  0  0  0  0  0  0  0  0
   38.6410   23.0610   34.6490 N   0  0  0  0  0  0  0  0  0  0  0  0
   39.4180   23.3780   33.5960 C   0  0  0  0  0  0  0  0  0  0  0  0
   38.7900   23.0110   32.4640 N   0  0  0  0  0  0  0  0  0  0  0  0
   37.5900   22.4500   32.8290 C   0  0  0  0  0  0  0  0  0  0  0  0
   37.5320   22.4960   34.1520 N   0  0  0  0  0  0  0  0  0  0  0  0
   35.6290   22.9720   31.4300 C   0  0  0  0  0  0  0  0  0  0  0  0
   37.2760   21.3690   30.6650 C   0  0  0  0  0  0  0  0  0  0  0  0
   37.3060   19.8940   30.5730 C   0  0  1  0  0  0  0  0  0  0  0  0
   36.1470   19.0450   30.9710 C   0  0  0  0  0  0  0  0  0  0  0  0
   36.5560   19.1730   29.5120 C   0  0  2  0  0  0  0  0  0  0  0  0
   37.2150   17.9500   29.0520 N   0  0  0  0  0  0  0  0  0  0  0  0
   36.4620   17.4700   27.9140 C   0  0  0  0  0  0  0  0  0  0  0  0
   36.4330   18.4710   26.7730 C   0  0  0  0  0  0  0  0  0  0  0  0
   37.6650   19.2300   26.7880 N   0  0  0  0  0  0  0  0  0  0  0  0
   38.7150   18.3040   27.2200 C   0  0  0  0  0  0  0  0  0  0  0  0
   38.6030   18.1970   28.7250 C   0  0  0  0  0  0  0  0  0  0  0  0
   36.0100   21.1205   32.4124 H   0  0  0  0  0  0  0  0  0  0  0  0
   40.9291   22.6146   38.4581 H   0  0  0  0  0  0  0  0  0  0  0  0
   39.0098   23.3747   39.8848 H   0  0  0  0  0  0  0  0  0  0  0  0
   36.8484   24.0027   38.7513 H   0  0  0  0  0  0  0  0  0  0  0  0
   40.4057   23.8589   33.6521 H   0  0  0  0  0  0  0  0  0  0  0  0
   35.1874   23.4706   32.3054 H   0  0  0  0  0  0  0  0  0  0  0  0
   36.1750   23.7102   30.8242 H   0  0  0  0  0  0  0  0  0  0  0  0
   34.8302   22.5193   30.8242 H   0  0  0  0  0  0  0  0  0  0  0  0
   36.7616   21.7583   29.7740 H   0  0  0  0  0  0  0  0  0  0  0  0
   38.3229   21.6991   30.7363 H   0  0  0  0  0  0  0  0  0  0  0  0
   38.3600   19.9400   30.8844 H   0  0  0  0  0  0  0  0  0  0  0  0
   36.3133   18.1009   31.5105 H   0  0  0  0  0  0  0  0  0  0  0  0
   35.2196   19.2034   31.5409 H   0  0  0  0  0  0  0  0  0  0  0  0
   36.0794   19.4750   28.5677 H   0  0  0  0  0  0  0  0  0  0  0  0
   36.9221   16.5379   27.5541 H   0  0  0  0  0  0  0  0  0  0  0  0
   35.4250   17.3078   28.2433 H   0  0  0  0  0  0  0  0  0  0  0  0
   35.5779   19.1513   26.8995 H   0  0  0  0  0  0  0  0  0  0  0  0
   36.3312   17.9421   25.8139 H   0  0  0  0  0  0  0  0  0  0  0  0
   37.8731   19.5903   25.8458 H   0  0  0  0  0  0  0  0  0  0  0  0
   38.5654   17.3175   26.7570 H   0  0  0  0  0  0  0  0  0  0  0  0
   39.7102   18.6643   26.9204 H   0  0  0  0  0  0  0  0  0  0  0  0
   39.2259   17.3661   29.0879 H   0  0  0  0  0  0  0  0  0  0  0  0
   38.9492   19.1259   29.2017 H   0  0  0  0  0  0  0  0  0  0  0  0
  1 11  1  0
  2  3  2  0
  4  3  1  0
  5  4  2  0
  6  7  2  0
  6  5  1  0
  7  2  1  0
  8  6  1  0
  9  8  1  0
 10 11  1  0
 10  9  2  0
 11 12  2  0
 12  8  1  0
 13  1  1  0
 14  1  1  0
 15 14  1  0
 15 16  1  0
 17 15  1  0
 17 16  1  0
 18 17  1  0
 19 18  1  0
 20 21  1  0
 20 19  1  0
 21 22  1  0
 22 23  1  0
 23 18  1  0
  1 24  1  1
  2 25  1  0
  3 26  1  0
  4 27  1  0
  9 28  1  0
 13 29  1  0
 13 30  1  0
 13 31  1  0
 14 32  1  0
 14 33  1  0
 15 34  1  1
 16 35  1  0
 16 36  1  0
 17 37  1  6
 19 38  1  0
 19 39  1  0
 20 40  1  0
 20 41  1  0
 21 42  1  0
 22 43  1  0
 22 44  1  0
 23 45  1  0
 23 46  1  0
M  ISO  8  24   8  25  14  26  14  27  14  28  14  29   8  30   8  31   8
M  ISO  8  32   8  33   8  34  13  35  13  36  13  37  13  38  13  39  13
M  ISO  7  40  13  41  13  42   5  43  13  44  13  45  13  46  13
M  END
>  <minimizedAffinity>  (1) 
-4.63302183

>  <minimizedRMSD>  (1) 
2.50972867

$$$$
