
     RDKit          3D

 44 48  0  0  1  0  0  0  0  0999 V2000
   37.5740   23.6650   33.1440 C   0  0  0  0  0  0  0  0  0  0  0  0
   36.7990   22.7900   32.4030 C   0  0  0  0  0  0  0  0  0  0  0  0
   36.8440   21.6150   33.0990 N   0  0  0  0  0  0  0  0  0  0  0  0
   37.6110   21.8310   34.1830 C   0  0  0  0  0  0  0  0  0  0  0  0
   38.0770   23.0780   34.2440 N   0  0  0  0  0  0  0  0  0  0  0  0
   38.9120   23.6740   35.2280 C   0  0  1  0  0  0  0  0  0  0  0  0
   38.2680   24.8010   35.9360 C   0  0  0  0  0  0  0  0  0  0  0  0
   37.5100   24.1160   37.0580 C   0  0  0  0  0  0  0  0  0  0  0  0
   38.4800   23.0930   37.5260 C   0  0  0  0  0  0  0  0  0  0  0  0
   39.2950   22.7190   36.3310 C   0  0  2  0  0  0  0  0  0  0  0  0
   40.7860   22.8930   36.5960 C   0  0  0  0  0  0  0  0  0  0  0  0
   41.6270   21.7750   35.9870 C   0  0  0  0  0  0  0  0  0  0  0  0
   41.5360   21.9800   37.4690 C   0  0  0  0  0  0  0  0  0  0  0  0
   37.8310   25.0620   32.7980 C   0  0  0  0  0  0  0  0  0  0  0  0
   39.0210   25.4080   32.1530 C   0  0  0  0  0  0  0  0  0  0  0  0
   39.2110   26.7840   31.8580 C   0  0  0  0  0  0  0  0  0  0  0  0
   38.2430   27.6650   32.2140 N   0  0  0  0  0  0  0  0  0  0  0  0
   37.1290   27.2810   32.8270 C   0  0  0  0  0  0  0  0  0  0  0  0
   36.9010   25.9830   33.1290 N   0  0  0  0  0  0  0  0  0  0  0  0
   36.1500   28.3100   33.1670 C   0  0  0  0  0  0  0  0  0  0  0  0
   35.8390   29.1560   34.1970 C   0  0  0  0  0  0  0  0  0  0  0  0
   34.7220   29.8790   33.7770 C   0  0  0  0  0  0  0  0  0  0  0  0
   34.3880   29.4680   32.5420 N   0  0  0  0  0  0  0  0  0  0  0  0
   35.2410   28.5300   32.1720 N   0  0  0  0  0  0  0  0  0  0  0  0
   36.2656   22.9948   31.4631 H   0  0  0  0  0  0  0  0  0  0  0  0
   37.8299   21.0612   34.9377 H   0  0  0  0  0  0  0  0  0  0  0  0
   39.7828   24.0025   34.6416 H   0  0  0  0  0  0  0  0  0  0  0  0
   39.0199   25.4975   36.3354 H   0  0  0  0  0  0  0  0  0  0  0  0
   37.6210   25.4071   35.2848 H   0  0  0  0  0  0  0  0  0  0  0  0
   37.2626   24.8256   37.8613 H   0  0  0  0  0  0  0  0  0  0  0  0
   36.5460   23.6922   36.7401 H   0  0  0  0  0  0  0  0  0  0  0  0
   39.1253   23.5103   38.3130 H   0  0  0  0  0  0  0  0  0  0  0  0
   37.9676   22.2184   37.9532 H   0  0  0  0  0  0  0  0  0  0  0  0
   39.1063   21.6660   36.0751 H   0  0  0  0  0  0  0  0  0  0  0  0
   40.7235   23.9911   36.5801 H   0  0  0  0  0  0  0  0  0  0  0  0
   41.1406   20.9083   35.5155 H   0  0  0  0  0  0  0  0  0  0  0  0
   42.4392   21.7121   35.2478 H   0  0  0  0  0  0  0  0  0  0  0  0
   42.4111   22.3514   38.0223 H   0  0  0  0  0  0  0  0  0  0  0  0
   41.2645   21.3342   38.3171 H   0  0  0  0  0  0  0  0  0  0  0  0
   39.7739   24.6516   31.8867 H   0  0  0  0  0  0  0  0  0  0  0  0
   40.1245   27.1284   31.3511 H   0  0  0  0  0  0  0  0  0  0  0  0
   36.3630   29.2473   35.1599 H   0  0  0  0  0  0  0  0  0  0  0  0
   34.2024   30.6546   34.3587 H   0  0  0  0  0  0  0  0  0  0  0  0
   33.6014   29.8236   31.9801 H   0  0  0  0  0  0  0  0  0  0  0  0
  1  5  1  0
  2  3  1  0
  2  1  2  0
  3  4  2  0
  4  5  1  0
  5  6  1  0
  6  7  1  0
  6 10  1  0
  7  8  1  0
  8  9  1  0
 10 11  1  0
 10  9  1  0
 11 13  1  0
 12 11  1  0
 12 13  1  0
 14 19  1  0
 14  1  1  0
 15 14  2  0
 16 15  1  0
 16 17  2  0
 17 18  1  0
 18 19  2  0
 18 20  1  0
 20 21  1  0
 22 21  2  0
 23 22  1  0
 24 23  1  0
 24 20  2  0
  2 25  1  0
  4 26  1  0
  6 27  1  6
  7 28  1  0
  7 29  1  0
  8 30  1  0
  8 31  1  0
  9 32  1  0
  9 33  1  0
 10 34  1  6
 11 35  1  0
 12 36  1  0
 12 37  1  0
 13 38  1  0
 13 39  1  0
 15 40  1  0
 16 41  1  0
 21 42  1  0
 22 43  1  0
 23 44  1  0
M  ISO  8  25  14  26  14  27  13  28  13  29  13  30  13  31  13  32  13
M  ISO  8  33  13  34  13  35  13  36  13  37  13  38  13  39  13  40  14
M  ISO  4  41  14  42  14  43  14  44   9
M  END
>  <minimizedAffinity>  (1) 
-5.32619858

>  <minimizedRMSD>  (1) 
0.669148684

$$$$
