
     RDKit          3D

 33 35  0  0  1  0  0  0  0  0999 V2000
   36.2230   22.2430   31.9000 C   0  0  1  0  0  0  0  0  0  0  0  0
   39.9580   22.8140   37.8610 C   0  0  0  0  0  0  0  0  0  0  0  0
   38.9720   23.2880   38.7300 C   0  0  0  0  0  0  0  0  0  0  0  0
   37.7810   23.7320   38.1580 C   0  0  0  0  0  0  0  0  0  0  0  0
   37.6350   23.6830   36.8080 N   0  0  0  0  0  0  0  0  0  0  0  0
   38.6100   23.2190   36.0080 C   0  0  0  0  0  0  0  0  0  0  0  0
   39.7670   22.7870   36.5280 N   0  0  0  0  0  0  0  0  0  0  0  0
   38.4840   23.1570   34.5900 N   0  0  0  0  0  0  0  0  0  0  0  0
   39.2370   23.4440   33.5120 C   0  0  0  0  0  0  0  0  0  0  0  0
   38.5340   23.1580   32.4020 N   0  0  0  0  0  0  0  0  0  0  0  0
   37.3100   22.6790   32.8030 C   0  0  0  0  0  0  0  0  0  0  0  0
   37.3170   22.6930   34.1370 N   0  0  0  0  0  0  0  0  0  0  0  0
   35.5640   23.4090   31.2390 C   0  0  0  0  0  0  0  0  0  0  0  0
   36.8100   21.3760   30.8040 C   0  0  0  0  0  0  0  0  0  0  0  0
   36.6670   19.9130   31.0570 C   0  0  1  0  0  0  0  0  0  0  0  0
   37.7310   19.1090   31.7070 C   0  0  0  0  0  0  0  0  0  0  0  0
   36.4000   19.3850   32.4010 C   0  0  2  0  0  0  0  0  0  0  0  0
   35.3530   17.8700   32.4260 S   0  0  0  0  0  0  0  0  0  0  0  0
   35.4832   21.6961   32.5029 H   0  0  0  0  0  0  0  0  0  0  0  0
   40.9118   22.4548   38.2748 H   0  0  0  0  0  0  0  0  0  0  0  0
   39.1288   23.3098   39.8185 H   0  0  0  0  0  0  0  0  0  0  0  0
   36.9689   24.1175   38.7920 H   0  0  0  0  0  0  0  0  0  0  0  0
   40.2604   23.8467   33.5352 H   0  0  0  0  0  0  0  0  0  0  0  0
   35.1764   24.0948   32.0067 H   0  0  0  0  0  0  0  0  0  0  0  0
   36.2970   23.9374   30.6117 H   0  0  0  0  0  0  0  0  0  0  0  0
   34.7332   23.0535   30.6117 H   0  0  0  0  0  0  0  0  0  0  0  0
   37.8810   21.6097   30.7121 H   0  0  0  0  0  0  0  0  0  0  0  0
   36.2517   21.5995   29.8829 H   0  0  0  0  0  0  0  0  0  0  0  0
   36.1503   19.8481   30.0881 H   0  0  0  0  0  0  0  0  0  0  0  0
   37.9656   18.0992   31.3393 H   0  0  0  0  0  0  0  0  0  0  0  0
   38.7927   19.2597   31.9521 H   0  0  0  0  0  0  0  0  0  0  0  0
   36.0616   19.8338   33.3465 H   0  0  0  0  0  0  0  0  0  0  0  0
   35.1034   17.5088   33.7237 H   0  0  0  0  0  0  0  0  0  0  0  0
  1 11  1  0
  2  3  2  0
  4  3  1  0
  5  4  2  0
  6  7  2  0
  6  5  1  0
  7  2  1  0
  8  6  1  0
  9  8  1  0
 10 11  1  0
 10  9  2  0
 11 12  2  0
 12  8  1  0
 13  1  1  0
 14 15  1  0
 14  1  1  0
 15 16  1  0
 15 17  1  0
 16 17  1  0
 17 18  1  0
  1 19  1  1
  2 20  1  0
  3 21  1  0
  4 22  1  0
  9 23  1  0
 13 24  1  0
 13 25  1  0
 13 26  1  0
 14 27  1  0
 14 28  1  0
 15 29  1  6
 16 30  1  0
 16 31  1  0
 17 32  1  1
 18 33  1  0
M  ISO  8  19   8  20  14  21  14  22  14  23  14  24   8  25   8  26   8
M  ISO  7  27   8  28   8  29  13  30  13  31  13  32  13  33  11
M  END
>  <minimizedAffinity>  (1) 
-4.3843751

>  <minimizedRMSD>  (1) 
0.981456935

$$$$
