
     RDKit          3D

 38 41  0  0  1  0  0  0  0  0999 V2000
   37.1770   26.3470   34.0920 C   0  0  1  0  0  0  0  0  0  0  0  0
   42.5400   22.1250   35.8730 C   0  0  0  0  0  0  0  0  0  0  0  0
   41.9740   21.4470   36.9590 C   0  0  0  0  0  0  0  0  0  0  0  0
   40.7870   21.9550   37.4860 C   0  0  0  0  0  0  0  0  0  0  0  0
   40.2370   23.0680   36.9300 N   0  0  0  0  0  0  0  0  0  0  0  0
   40.8170   23.6890   35.8810 C   0  0  0  0  0  0  0  0  0  0  0  0
   41.9590   23.2150   35.3630 N   0  0  0  0  0  0  0  0  0  0  0  0
   40.2730   24.8550   35.2710 N   0  0  0  0  0  0  0  0  0  0  0  0
   40.7150   26.0410   34.8180 C   0  0  0  0  0  0  0  0  0  0  0  0
   39.6720   26.7360   34.3360 N   0  0  0  0  0  0  0  0  0  0  0  0
   38.5510   25.9560   34.4940 C   0  0  0  0  0  0  0  0  0  0  0  0
   38.9530   24.8290   35.0620 N   0  0  0  0  0  0  0  0  0  0  0  0
   36.8930   27.7740   34.4310 C   0  0  0  0  0  0  0  0  0  0  0  0
   37.0480   26.2110   32.5830 C   0  0  0  0  0  0  0  0  0  0  0  0
   36.4720   24.9090   32.1530 C   0  0  1  0  0  0  0  0  0  0  0  0
   36.7670   24.3040   30.8300 C   0  0  0  0  0  0  0  0  0  0  0  0
   37.2730   23.6760   32.1230 C   0  0  2  0  0  0  0  0  0  0  0  0
   36.5190   22.4380   32.4140 N   0  0  0  0  0  0  0  0  0  0  0  0
   36.9470   21.3880   33.1370 C   0  0  0  0  0  0  0  0  0  0  0  0
   35.9950   20.4380   33.1940 N   0  0  0  0  0  0  0  0  0  0  0  0
   34.9520   20.9130   32.4890 C   0  0  0  0  0  0  0  0  0  0  0  0
   35.2880   22.1280   32.0240 N   0  0  0  0  0  0  0  0  0  0  0  0
   36.4718   25.6945   34.6278 H   0  0  0  0  0  0  0  0  0  0  0  0
   43.4775   21.7548   35.4326 H   0  0  0  0  0  0  0  0  0  0  0  0
   42.4474   20.5480   37.3806 H   0  0  0  0  0  0  0  0  0  0  0  0
   40.3014   21.4617   38.3409 H   0  0  0  0  0  0  0  0  0  0  0  0
   41.7594   26.3855   34.8388 H   0  0  0  0  0  0  0  0  0  0  0  0
   36.8692   27.8934   35.5242 H   0  0  0  0  0  0  0  0  0  0  0  0
   37.6812   28.4149   34.0092 H   0  0  0  0  0  0  0  0  0  0  0  0
   35.9195   28.0643   34.0092 H   0  0  0  0  0  0  0  0  0  0  0  0
   36.3978   27.0182   32.2147 H   0  0  0  0  0  0  0  0  0  0  0  0
   38.0635   26.2703   32.1643 H   0  0  0  0  0  0  0  0  0  0  0  0
   35.5458   25.2125   32.6630 H   0  0  0  0  0  0  0  0  0  0  0  0
   37.4695   24.7949   30.1405 H   0  0  0  0  0  0  0  0  0  0  0  0
   36.1710   23.9629   29.9707 H   0  0  0  0  0  0  0  0  0  0  0  0
   38.2393   23.3881   32.5629 H   0  0  0  0  0  0  0  0  0  0  0  0
   37.9354   21.3156   33.6144 H   0  0  0  0  0  0  0  0  0  0  0  0
   33.9943   20.3980   32.3228 H   0  0  0  0  0  0  0  0  0  0  0  0
  1 13  1  0
  1 11  1  0
  2  3  2  0
  3  4  1  0
  5  4  2  0
  6  5  1  0
  7  2  1  0
  7  6  2  0
  8  6  1  0
  9  8  1  0
 10 11  1  0
 10  9  2  0
 11 12  2  0
 12  8  1  0
 14  1  1  0
 15 14  1  0
 16 17  1  0
 16 15  1  0
 17 15  1  0
 17 18  1  0
 18 19  1  0
 19 20  2  0
 21 20  1  0
 22 18  1  0
 22 21  2  0
  1 23  1  1
  2 24  1  0
  3 25  1  0
  4 26  1  0
  9 27  1  0
 13 28  1  0
 13 29  1  0
 13 30  1  0
 14 31  1  0
 14 32  1  0
 15 33  1  1
 16 34  1  0
 16 35  1  0
 17 36  1  6
 19 37  1  0
 21 38  1  0
M  ISO  8  23   8  24  14  25  14  26  14  27  14  28   8  29   8  30   8
M  ISO  8  31   8  32   8  33  13  34  13  35  13  36  13  37  14  38  14
M  END
>  <minimizedAffinity>  (1) 
-4.79876184

>  <minimizedRMSD>  (1) 
4.45324516

$$$$
