
     RDKit          3D

 35 37  0  0  1  0  0  0  0  0999 V2000
   36.2240   22.2310   31.9190 C   0  0  1  0  0  0  0  0  0  0  0  0
   39.9540   22.8050   37.8780 C   0  0  0  0  0  0  0  0  0  0  0  0
   38.9670   23.3030   38.7330 C   0  0  0  0  0  0  0  0  0  0  0  0
   37.7950   23.7620   38.1800 C   0  0  0  0  0  0  0  0  0  0  0  0
   37.6400   23.7130   36.8200 N   0  0  0  0  0  0  0  0  0  0  0  0
   38.6120   23.2250   36.0250 C   0  0  0  0  0  0  0  0  0  0  0  0
   39.7640   22.7740   36.5540 N   0  0  0  0  0  0  0  0  0  0  0  0
   38.4910   23.1530   34.6080 N   0  0  0  0  0  0  0  0  0  0  0  0
   39.2520   23.4260   33.5210 C   0  0  0  0  0  0  0  0  0  0  0  0
   38.5450   23.1340   32.4150 N   0  0  0  0  0  0  0  0  0  0  0  0
   37.3180   22.6690   32.8260 C   0  0  0  0  0  0  0  0  0  0  0  0
   37.3190   22.6930   34.1530 N   0  0  0  0  0  0  0  0  0  0  0  0
   35.5770   23.4030   31.2490 C   0  0  0  0  0  0  0  0  0  0  0  0
   36.8050   21.3490   30.8390 C   0  0  0  0  0  0  0  0  0  0  0  0
   36.1960   19.9910   30.7670 C   0  0  1  0  0  0  0  0  0  0  0  0
   36.7110   18.9140   29.8780 C   0  0  0  0  0  0  0  0  0  0  0  0
   36.8690   18.8380   31.3900 C   0  0  2  0  0  0  0  0  0  0  0  0
   35.9030   17.8390   31.9850 C   0  0  0  0  0  0  0  0  0  0  0  0
   36.3000   16.7040   32.4090 O   0  0  0  0  0  0  0  0  0  0  0  0
   34.5370   17.9090   32.1850 O   0  0  0  0  0  0  0  0  0  0  0  0
   35.4754   21.6941   32.5201 H   0  0  0  0  0  0  0  0  0  0  0  0
   40.8998   22.4335   38.2993 H   0  0  0  0  0  0  0  0  0  0  0  0
   39.1240   23.3271   39.8215 H   0  0  0  0  0  0  0  0  0  0  0  0
   36.9945   24.1622   38.8196 H   0  0  0  0  0  0  0  0  0  0  0  0
   40.2784   23.8211   33.5399 H   0  0  0  0  0  0  0  0  0  0  0  0
   35.1942   24.0964   32.0123 H   0  0  0  0  0  0  0  0  0  0  0  0
   36.3170   23.9210   30.6212 H   0  0  0  0  0  0  0  0  0  0  0  0
   34.7444   23.0528   30.6212 H   0  0  0  0  0  0  0  0  0  0  0  0
   36.6549   21.8464   29.8694 H   0  0  0  0  0  0  0  0  0  0  0  0
   37.8677   21.2065   31.0845 H   0  0  0  0  0  0  0  0  0  0  0  0
   35.2129   20.4737   30.8693 H   0  0  0  0  0  0  0  0  0  0  0  0
   36.0114   18.2418   29.3597 H   0  0  0  0  0  0  0  0  0  0  0  0
   37.3893   18.8657   29.0134 H   0  0  0  0  0  0  0  0  0  0  0  0
   37.7012   18.7189   32.0994 H   0  0  0  0  0  0  0  0  0  0  0  0
   34.0571   17.1466   32.5957 H   0  0  0  0  0  0  0  0  0  0  0  0
  1 11  1  0
  2  3  2  0
  4  3  1  0
  5  4  2  0
  6  7  2  0
  6  5  1  0
  7  2  1  0
  8  6  1  0
  9  8  1  0
 10 11  1  0
 10  9  2  0
 11 12  2  0
 12  8  1  0
 13  1  1  0
 14  1  1  0
 15 14  1  0
 15 17  1  0
 16 15  1  0
 16 17  1  0
 17 18  1  0
 18 20  1  0
 18 19  2  0
  1 21  1  1
  2 22  1  0
  3 23  1  0
  4 24  1  0
  9 25  1  0
 13 26  1  0
 13 27  1  0
 13 28  1  0
 14 29  1  0
 14 30  1  0
 15 31  1  1
 16 32  1  0
 16 33  1  0
 17 34  1  6
 20 35  1  0
M  ISO  8  21   8  22  14  23  14  24  14  25  14  26   8  27   8  28   8
M  ISO  7  29   8  30   8  31  13  32  13  33  13  34  13  35   3
M  END
>  <minimizedAffinity>  (1) 
-5.10229301

>  <minimizedRMSD>  (1) 
1.41901171

$$$$
