
     RDKit          3D

 47 50  0  0  1  0  0  0  0  0999 V2000
   36.2860   21.7210   31.9400 C   0  0  1  0  0  0  0  0  0  0  0  0
   39.9010   22.7390   37.9010 C   0  0  0  0  0  0  0  0  0  0  0  0
   38.9440   23.4560   38.6440 C   0  0  0  0  0  0  0  0  0  0  0  0
   37.8330   23.9540   37.9850 C   0  0  0  0  0  0  0  0  0  0  0  0
   37.7080   23.7320   36.6420 N   0  0  0  0  0  0  0  0  0  0  0  0
   38.6520   23.0380   35.9660 C   0  0  0  0  0  0  0  0  0  0  0  0
   39.7470   22.5400   36.5870 N   0  0  0  0  0  0  0  0  0  0  0  0
   38.5610   22.7780   34.5630 N   0  0  0  0  0  0  0  0  0  0  0  0
   39.3690   22.8170   33.4800 C   0  0  0  0  0  0  0  0  0  0  0  0
   38.6630   22.4440   32.4000 N   0  0  0  0  0  0  0  0  0  0  0  0
   37.3880   22.1670   32.8310 C   0  0  0  0  0  0  0  0  0  0  0  0
   37.3610   22.3790   34.1350 N   0  0  0  0  0  0  0  0  0  0  0  0
   35.5180   22.8970   31.3920 C   0  0  0  0  0  0  0  0  0  0  0  0
   36.8630   20.9740   30.7760 C   0  0  0  0  0  0  0  0  0  0  0  0
   36.5230   19.5180   30.7470 C   0  0  1  0  0  0  0  0  0  0  0  0
   36.8480   18.6200   29.6290 C   0  0  0  0  0  0  0  0  0  0  0  0
   37.5330   18.5090   31.0050 C   0  0  2  0  0  0  0  0  0  0  0  0
   37.0220   17.2920   31.7540 C   0  0  0  0  0  0  0  0  0  0  0  0
   37.7990   16.4970   32.3520 O   0  0  0  0  0  0  0  0  0  0  0  0
   35.7360   16.8470   31.9270 O   0  0  0  0  0  0  0  0  0  0  0  0
   33.9240   15.3440   31.6240 N   0  0  0  0  0  0  0  0  0  0  0  0
   33.7660   14.0600   30.9840 C   0  0  0  0  0  0  0  0  0  0  0  0
   35.0550   13.7860   30.2060 C   0  0  0  0  0  0  0  0  0  0  0  0
   35.7430   15.1470   30.2590 C   0  0  0  0  0  0  0  0  0  0  0  0
   35.3800   15.5230   31.7010 C   0  0  1  0  0  0  0  0  0  0  0  0
   35.6108   21.0848   32.5311 H   0  0  0  0  0  0  0  0  0  0  0  0
   40.7896   22.3360   38.4089 H   0  0  0  0  0  0  0  0  0  0  0  0
   39.0761   23.6170   39.7241 H   0  0  0  0  0  0  0  0  0  0  0  0
   37.0641   24.5186   38.5327 H   0  0  0  0  0  0  0  0  0  0  0  0
   40.4302   23.1066   33.4828 H   0  0  0  0  0  0  0  0  0  0  0  0
   35.1251   23.4986   32.2249 H   0  0  0  0  0  0  0  0  0  0  0  0
   36.1863   23.5163   30.7756 H   0  0  0  0  0  0  0  0  0  0  0  0
   34.6823   22.5341   30.7756 H   0  0  0  0  0  0  0  0  0  0  0  0
   36.4857   21.4340   29.8508 H   0  0  0  0  0  0  0  0  0  0  0  0
   37.9569   21.0393   30.8720 H   0  0  0  0  0  0  0  0  0  0  0  0
   35.5679   19.7955   31.2169 H   0  0  0  0  0  0  0  0  0  0  0  0
   36.1283   17.8550   29.3021 H   0  0  0  0  0  0  0  0  0  0  0  0
   37.1791   18.7404   28.5869 H   0  0  0  0  0  0  0  0  0  0  0  0
   38.5573   18.5328   31.4052 H   0  0  0  0  0  0  0  0  0  0  0  0
   33.5051   15.3386   32.5649 H   0  0  0  0  0  0  0  0  0  0  0  0
   33.6081   13.2776   31.7409 H   0  0  0  0  0  0  0  0  0  0  0  0
   32.8948   14.0608   30.3124 H   0  0  0  0  0  0  0  0  0  0  0  0
   34.8417   13.4845   29.1698 H   0  0  0  0  0  0  0  0  0  0  0  0
   35.6589   12.9638   30.6175 H   0  0  0  0  0  0  0  0  0  0  0  0
   36.8302   15.0688   30.1113 H   0  0  0  0  0  0  0  0  0  0  0  0
   35.4410   15.8677   29.4848 H   0  0  0  0  0  0  0  0  0  0  0  0
   35.8644   14.9535   32.5078 H   0  0  0  0  0  0  0  0  0  0  0  0
  1 11  1  0
  2  3  2  0
  4  3  1  0
  5  4  2  0
  6  7  2  0
  6  5  1  0
  7  2  1  0
  8  6  1  0
  9  8  1  0
 10 11  1  0
 10  9  2  0
 11 12  2  0
 12  8  1  0
 13  1  1  0
 14  1  1  0
 15 14  1  0
 15 17  1  0
 16 15  1  0
 16 17  1  0
 17 18  1  0
 18 20  1  0
 18 19  2  0
 21 25  1  0
 22 21  1  0
 23 24  1  0
 23 22  1  0
 24 25  1  0
 25 20  1  0
  1 26  1  1
  2 27  1  0
  3 28  1  0
  4 29  1  0
  9 30  1  0
 13 31  1  0
 13 32  1  0
 13 33  1  0
 14 34  1  0
 14 35  1  0
 15 36  1  1
 16 37  1  0
 16 38  1  0
 17 39  1  6
 21 40  1  0
 22 41  1  0
 22 42  1  0
 23 43  1  0
 23 44  1  0
 24 45  1  0
 24 46  1  0
 25 47  1  1
M  ISO  8  26   8  27  14  28  14  29  14  30  14  31   8  32   8  33   8
M  ISO  8  34   8  35   8  36  13  37  13  38  13  39  13  40   5  41  13
M  ISO  6  42  13  43  13  44  13  45  13  46  13  47  13
M  END
>  <minimizedAffinity>  (1) 
-5.00400543

>  <minimizedRMSD>  (1) 
1.30747986

$$$$
