
     RDKit          3D

 45 48  0  0  1  0  0  0  0  0999 V2000
   36.4480   21.6690   31.9370 C   0  0  1  0  0  0  0  0  0  0  0  0
   39.9580   22.7780   37.9370 C   0  0  0  0  0  0  0  0  0  0  0  0
   38.9370   23.3480   38.7220 C   0  0  0  0  0  0  0  0  0  0  0  0
   37.7740   23.7550   38.0890 C   0  0  0  0  0  0  0  0  0  0  0  0
   37.6640   23.5880   36.7330 N   0  0  0  0  0  0  0  0  0  0  0  0
   38.6760   23.0330   36.0210 C   0  0  0  0  0  0  0  0  0  0  0  0
   39.8220   22.6290   36.6220 N   0  0  0  0  0  0  0  0  0  0  0  0
   38.6050   22.8350   34.6120 N   0  0  0  0  0  0  0  0  0  0  0  0
   39.4010   23.0130   33.5320 C   0  0  0  0  0  0  0  0  0  0  0  0
   38.7310   22.6170   32.4340 N   0  0  0  0  0  0  0  0  0  0  0  0
   37.4920   22.1850   32.8500 C   0  0  0  0  0  0  0  0  0  0  0  0
   37.4510   22.3290   34.1640 N   0  0  0  0  0  0  0  0  0  0  0  0
   35.5030   22.7630   31.5110 C   0  0  0  0  0  0  0  0  0  0  0  0
   37.0870   21.1180   30.7000 C   0  0  0  0  0  0  0  0  0  0  0  0
   37.0280   19.6270   30.5860 C   0  0  1  0  0  0  0  0  0  0  0  0
   36.6230   18.9160   29.3640 C   0  0  0  0  0  0  0  0  0  0  0  0
   38.0680   18.8910   29.8940 C   0  0  2  0  0  0  0  0  0  0  0  0
   38.3880   17.5410   30.4950 C   0  0  0  0  0  0  0  0  0  0  0  0
   38.7940   16.5720   29.7940 O   0  0  0  0  0  0  0  0  0  0  0  0
   38.3220   17.1230   31.8070 O   0  0  0  0  0  0  0  0  0  0  0  0
   37.3480   16.2300   32.2390 C   0  0  0  0  0  0  0  0  0  0  0  0
   37.7660   15.0190   32.7450 C   0  0  0  0  0  0  0  0  0  0  0  0
   36.8720   14.0720   33.1970 C   0  0  0  0  0  0  0  0  0  0  0  0
   35.5010   14.3190   33.1530 C   0  0  0  0  0  0  0  0  0  0  0  0
   35.1260   15.5440   32.6400 C   0  0  0  0  0  0  0  0  0  0  0  0
   35.9980   16.5090   32.1810 C   0  0  0  0  0  0  0  0  0  0  0  0
   35.8913   20.8903   32.4789 H   0  0  0  0  0  0  0  0  0  0  0  0
   40.8887   22.4486   38.4220 H   0  0  0  0  0  0  0  0  0  0  0  0
   39.0598   23.4668   39.8086 H   0  0  0  0  0  0  0  0  0  0  0  0
   36.9521   24.2049   38.6652 H   0  0  0  0  0  0  0  0  0  0  0  0
   40.4250   23.4145   33.5488 H   0  0  0  0  0  0  0  0  0  0  0  0
   35.0815   23.2510   32.4022 H   0  0  0  0  0  0  0  0  0  0  0  0
   36.0486   23.5054   30.9100 H   0  0  0  0  0  0  0  0  0  0  0  0
   34.6892   22.3311   30.9100 H   0  0  0  0  0  0  0  0  0  0  0  0
   36.5762   21.5504   29.8270 H   0  0  0  0  0  0  0  0  0  0  0  0
   38.1523   21.3874   30.7500 H   0  0  0  0  0  0  0  0  0  0  0  0
   36.6277   19.6227   31.6106 H   0  0  0  0  0  0  0  0  0  0  0  0
   36.3747   19.4761   28.4504 H   0  0  0  0  0  0  0  0  0  0  0  0
   35.8635   18.1657   29.0991 H   0  0  0  0  0  0  0  0  0  0  0  0
   39.0721   19.1475   29.5252 H   0  0  0  0  0  0  0  0  0  0  0  0
   38.8434   14.8015   32.7897 H   0  0  0  0  0  0  0  0  0  0  0  0
   37.2428   13.1158   33.5947 H   0  0  0  0  0  0  0  0  0  0  0  0
   34.7634   13.5829   33.5054 H   0  0  0  0  0  0  0  0  0  0  0  0
   34.0500   15.7678   32.5936 H   0  0  0  0  0  0  0  0  0  0  0  0
   35.6305   17.4664   31.7831 H   0  0  0  0  0  0  0  0  0  0  0  0
  1 11  1  0
  2  3  2  0
  4  3  1  0
  5  4  2  0
  6  7  2  0
  6  5  1  0
  7  2  1  0
  8  6  1  0
  9  8  1  0
 10 11  1  0
 10  9  2  0
 11 12  2  0
 12  8  1  0
 13  1  1  0
 14  1  1  0
 15 14  1  0
 16 17  1  0
 16 15  1  0
 17 18  1  0
 17 15  1  0
 18 20  1  0
 19 18  2  0
 20 21  1  0
 21 22  2  0
 22 23  1  0
 24 23  2  0
 25 24  1  0
 26 21  1  0
 26 25  2  0
  1 27  1  1
  2 28  1  0
  3 29  1  0
  4 30  1  0
  9 31  1  0
 13 32  1  0
 13 33  1  0
 13 34  1  0
 14 35  1  0
 14 36  1  0
 15 37  1  1
 16 38  1  0
 16 39  1  0
 17 40  1  6
 22 41  1  0
 23 42  1  0
 24 43  1  0
 25 44  1  0
 26 45  1  0
M  ISO  8  27   8  28  14  29  14  30  14  31  14  32   8  33   8  34   8
M  ISO  8  35   8  36   8  37  13  38  13  39  13  40  13  41  14  42  14
M  ISO  3  43  14  44  14  45  14
M  END
>  <minimizedAffinity>  (1) 
-4.94565153

>  <minimizedRMSD>  (1) 
2.22059917

$$$$
