
     RDKit          3D

 43 46  0  0  1  0  0  0  0  0999 V2000
   36.4450   21.7980   31.9110 C   0  0  1  0  0  0  0  0  0  0  0  0
   39.9590   22.7890   37.9380 C   0  0  0  0  0  0  0  0  0  0  0  0
   38.9310   23.3390   38.7280 C   0  0  0  0  0  0  0  0  0  0  0  0
   37.7680   23.7530   38.1030 C   0  0  0  0  0  0  0  0  0  0  0  0
   37.6610   23.6130   36.7470 N   0  0  0  0  0  0  0  0  0  0  0  0
   38.6730   23.0790   36.0260 C   0  0  0  0  0  0  0  0  0  0  0  0
   39.8190   22.6670   36.6090 N   0  0  0  0  0  0  0  0  0  0  0  0
   38.6030   22.9110   34.6100 N   0  0  0  0  0  0  0  0  0  0  0  0
   39.3970   23.1190   33.5310 C   0  0  0  0  0  0  0  0  0  0  0  0
   38.7300   22.7480   32.4280 N   0  0  0  0  0  0  0  0  0  0  0  0
   37.4990   22.3020   32.8330 C   0  0  0  0  0  0  0  0  0  0  0  0
   37.4510   22.4120   34.1520 N   0  0  0  0  0  0  0  0  0  0  0  0
   35.5540   22.9180   31.4420 C   0  0  0  0  0  0  0  0  0  0  0  0
   37.0950   21.2020   30.6980 C   0  0  0  0  0  0  0  0  0  0  0  0
   37.0080   19.7090   30.6250 C   0  0  1  0  0  0  0  0  0  0  0  0
   36.5880   18.9690   29.4270 C   0  0  0  0  0  0  0  0  0  0  0  0
   38.0330   18.9280   29.9630 C   0  0  2  0  0  0  0  0  0  0  0  0
   38.3210   17.5920   30.6050 C   0  0  0  0  0  0  0  0  0  0  0  0
   38.6920   16.5870   29.9370 O   0  0  0  0  0  0  0  0  0  0  0  0
   38.2540   17.2200   31.9320 O   0  0  0  0  0  0  0  0  0  0  0  0
   37.3550   16.2280   32.3020 C   0  0  0  0  0  0  0  0  0  0  0  0
   36.0080   16.5060   32.1800 C   0  0  0  0  0  0  0  0  0  0  0  0
   35.0590   15.5460   32.5370 C   0  0  0  0  0  0  0  0  0  0  0  0
   35.4980   14.3450   33.0030 N   0  0  0  0  0  0  0  0  0  0  0  0
   36.8230   14.0930   33.1160 C   0  0  0  0  0  0  0  0  0  0  0  0
   37.7610   15.0210   32.7710 N   0  0  0  0  0  0  0  0  0  0  0  0
   35.8466   21.0529   32.4558 H   0  0  0  0  0  0  0  0  0  0  0  0
   40.8907   22.4544   38.4176 H   0  0  0  0  0  0  0  0  0  0  0  0
   39.0499   23.4372   39.8171 H   0  0  0  0  0  0  0  0  0  0  0  0
   36.9434   24.1874   38.6872 H   0  0  0  0  0  0  0  0  0  0  0  0
   40.4191   23.5249   33.5559 H   0  0  0  0  0  0  0  0  0  0  0  0
   35.1360   23.4434   32.3133 H   0  0  0  0  0  0  0  0  0  0  0  0
   36.1405   23.6235   30.8351 H   0  0  0  0  0  0  0  0  0  0  0  0
   34.7347   22.5052   30.8351 H   0  0  0  0  0  0  0  0  0  0  0  0
   36.6072   21.6199   29.8050 H   0  0  0  0  0  0  0  0  0  0  0  0
   38.1643   21.4534   30.7572 H   0  0  0  0  0  0  0  0  0  0  0  0
   36.6066   19.7471   31.6485 H   0  0  0  0  0  0  0  0  0  0  0  0
   36.3547   19.5045   28.4949 H   0  0  0  0  0  0  0  0  0  0  0  0
   35.8114   18.2286   29.1846 H   0  0  0  0  0  0  0  0  0  0  0  0
   39.0442   19.1499   29.5913 H   0  0  0  0  0  0  0  0  0  0  0  0
   35.6819   17.4857   31.8008 H   0  0  0  0  0  0  0  0  0  0  0  0
   33.9831   15.7552   32.4439 H   0  0  0  0  0  0  0  0  0  0  0  0
   37.1518   13.1145   33.4959 H   0  0  0  0  0  0  0  0  0  0  0  0
  1 11  1  0
  2  3  2  0
  4  3  1  0
  5  4  2  0
  6  7  2  0
  6  5  1  0
  7  2  1  0
  8  6  1  0
  9  8  1  0
 10 11  1  0
 10  9  2  0
 11 12  2  0
 12  8  1  0
 13  1  1  0
 14  1  1  0
 15 14  1  0
 16 17  1  0
 16 15  1  0
 17 18  1  0
 17 15  1  0
 18 20  1  0
 19 18  2  0
 20 21  1  0
 21 26  1  0
 22 21  2  0
 22 23  1  0
 23 24  2  0
 24 25  1  0
 26 25  2  0
  1 27  1  1
  2 28  1  0
  3 29  1  0
  4 30  1  0
  9 31  1  0
 13 32  1  0
 13 33  1  0
 13 34  1  0
 14 35  1  0
 14 36  1  0
 15 37  1  1
 16 38  1  0
 16 39  1  0
 17 40  1  6
 22 41  1  0
 23 42  1  0
 25 43  1  0
M  ISO  8  27   8  28  14  29  14  30  14  31  14  32   8  33   8  34   8
M  ISO  8  35   8  36   8  37  13  38  13  39  13  40  13  41  14  42  14
M  ISO  1  43  14
M  END
>  <minimizedAffinity>  (1) 
-4.72024298

>  <minimizedRMSD>  (1) 
2.11843824

$$$$
