
     RDKit          3D

 49 52  0  0  1  0  0  0  0  0999 V2000
   39.0450   23.5850   35.5580 C   0  0  1  0  0  0  0  0  0  0  0  0
   38.4660   24.7860   36.1910 C   0  0  0  0  0  0  0  0  0  0  0  0
   37.6410   24.2130   37.3290 C   0  0  0  0  0  0  0  0  0  0  0  0
   38.5340   23.1610   37.8740 C   0  0  0  0  0  0  0  0  0  0  0  0
   39.3460   22.6720   36.7170 C   0  0  2  0  0  0  0  0  0  0  0  0
   40.8370   22.7550   37.0030 C   0  0  0  0  0  0  0  0  0  0  0  0
   41.6560   21.8060   36.1320 C   0  0  0  0  0  0  0  0  0  0  0  0
   41.5800   21.6390   37.6090 C   0  0  0  0  0  0  0  0  0  0  0  0
   37.8260   23.5070   33.4030 C   0  0  0  0  0  0  0  0  0  0  0  0
   36.9830   22.6570   32.7080 C   0  0  0  0  0  0  0  0  0  0  0  0
   36.8370   21.5710   33.5260 N   0  0  0  0  0  0  0  0  0  0  0  0
   37.5690   21.8100   34.6280 C   0  0  0  0  0  0  0  0  0  0  0  0
   38.1890   22.9880   34.5880 N   0  0  0  0  0  0  0  0  0  0  0  0
   38.2810   24.8120   32.9330 C   0  0  0  0  0  0  0  0  0  0  0  0
   39.6250   25.0160   32.6340 C   0  0  0  0  0  0  0  0  0  0  0  0
   39.9910   26.3180   32.1910 C   0  0  0  0  0  0  0  0  0  0  0  0
   39.0360   27.2620   32.0890 N   0  0  0  0  0  0  0  0  0  0  0  0
   37.7540   27.0180   32.3880 C   0  0  0  0  0  0  0  0  0  0  0  0
   37.3540   25.7990   32.8120 N   0  0  0  0  0  0  0  0  0  0  0  0
   36.6900   28.0690   32.2740 C   0  0  0  0  0  0  0  0  0  0  0  0
   37.0730   29.1740   31.3490 C   0  0  0  0  0  0  0  0  0  0  0  0
   36.3340   28.5170   33.6640 C   0  0  0  0  0  0  0  0  0  0  0  0
   35.4190   27.4290   31.7030 C   0  0  0  0  0  0  0  0  0  0  0  0
   39.9440   23.8248   34.9712 H   0  0  0  0  0  0  0  0  0  0  0  0
   39.2553   25.4510   36.5716 H   0  0  0  0  0  0  0  0  0  0  0  0
   37.8746   25.3987   35.4947 H   0  0  0  0  0  0  0  0  0  0  0  0
   37.4215   24.9799   38.0864 H   0  0  0  0  0  0  0  0  0  0  0  0
   36.6588   23.8333   37.0111 H   0  0  0  0  0  0  0  0  0  0  0  0
   39.1896   23.5807   38.6512 H   0  0  0  0  0  0  0  0  0  0  0  0
   37.9603   22.3452   38.3380 H   0  0  0  0  0  0  0  0  0  0  0  0
   39.0930   21.6212   36.5128 H   0  0  0  0  0  0  0  0  0  0  0  0
   40.7917   23.8233   37.2612 H   0  0  0  0  0  0  0  0  0  0  0  0
   41.1517   21.0899   35.4665 H   0  0  0  0  0  0  0  0  0  0  0  0
   42.4632   21.9152   35.3928 H   0  0  0  0  0  0  0  0  0  0  0  0
   42.4663   21.8470   38.2264 H   0  0  0  0  0  0  0  0  0  0  0  0
   41.3034   20.8058   38.2717 H   0  0  0  0  0  0  0  0  0  0  0  0
   36.5312   22.8191   31.7182 H   0  0  0  0  0  0  0  0  0  0  0  0
   37.6474   21.1084   35.4716 H   0  0  0  0  0  0  0  0  0  0  0  0
   40.3675   24.2107   32.7351 H   0  0  0  0  0  0  0  0  0  0  0  0
   41.0358   26.5493   31.9363 H   0  0  0  0  0  0  0  0  0  0  0  0
   37.3779   30.0536   31.9350 H   0  0  0  0  0  0  0  0  0  0  0  0
   37.9104   28.8476   30.7148 H   0  0  0  0  0  0  0  0  0  0  0  0
   36.2132   29.4359   30.7148 H   0  0  0  0  0  0  0  0  0  0  0  0
   36.8438   27.8755   34.3979 H   0  0  0  0  0  0  0  0  0  0  0  0
   36.6520   29.5605   33.8057 H   0  0  0  0  0  0  0  0  0  0  0  0
   35.2457   28.4429   33.8057 H   0  0  0  0  0  0  0  0  0  0  0  0
   34.7701   27.1023   32.5290 H   0  0  0  0  0  0  0  0  0  0  0  0
   34.8836   28.1650   31.0852 H   0  0  0  0  0  0  0  0  0  0  0  0
   35.6915   26.5606   31.0852 H   0  0  0  0  0  0  0  0  0  0  0  0
  1  2  1  0
  1  5  1  0
  2  3  1  0
  3  4  1  0
  5  6  1  0
  5  4  1  0
  6  8  1  0
  7  6  1  0
  7  8  1  0
  9 13  1  0
 10  9  2  0
 10 11  1  0
 11 12  2  0
 13 12  1  0
 13  1  1  0
 14  9  1  0
 15 14  2  0
 16 15  1  0
 17 16  2  0
 17 18  1  0
 18 19  2  0
 19 14  1  0
 20 18  1  0
 20 22  1  0
 21 20  1  0
 23 20  1  0
  1 24  1  6
  2 25  1  0
  2 26  1  0
  3 27  1  0
  3 28  1  0
  4 29  1  0
  4 30  1  0
  5 31  1  6
  6 32  1  0
  7 33  1  0
  7 34  1  0
  8 35  1  0
  8 36  1  0
 10 37  1  0
 12 38  1  0
 15 39  1  0
 16 40  1  0
 21 41  1  0
 21 42  1  0
 21 43  1  0
 22 44  1  0
 22 45  1  0
 22 46  1  0
 23 47  1  0
 23 48  1  0
 23 49  1  0
M  ISO  8  24  13  25  13  26  13  27  13  28  13  29  13  30  13  31  13
M  ISO  8  32  13  33  13  34  13  35  13  36  13  37  14  38  14  39  14
M  ISO  8  40  14  41   8  42   8  43   8  44   8  45   8  46   8  47   8
M  ISO  2  48   8  49   8
M  END
>  <minimizedAffinity>  (1) 
-5.19517708

>  <minimizedRMSD>  (1) 
0.612144291

$$$$
