
     RDKit          3D

 39 41  0  0  1  0  0  0  0  0999 V2000
   36.2260   21.7480   31.9800 C   0  0  1  0  0  0  0  0  0  0  0  0
   39.9810   22.7340   37.8590 C   0  0  0  0  0  0  0  0  0  0  0  0
   38.9980   23.3270   38.6740 C   0  0  0  0  0  0  0  0  0  0  0  0
   37.8240   23.7680   38.0850 C   0  0  0  0  0  0  0  0  0  0  0  0
   37.6760   23.6060   36.7430 N   0  0  0  0  0  0  0  0  0  0  0  0
   38.6440   23.0290   35.9880 C   0  0  0  0  0  0  0  0  0  0  0  0
   39.7950   22.5930   36.5370 N   0  0  0  0  0  0  0  0  0  0  0  0
   38.5140   22.8400   34.5770 N   0  0  0  0  0  0  0  0  0  0  0  0
   39.2690   23.0060   33.4750 C   0  0  0  0  0  0  0  0  0  0  0  0
   38.5530   22.6360   32.3980 N   0  0  0  0  0  0  0  0  0  0  0  0
   37.3230   22.2330   32.8560 C   0  0  0  0  0  0  0  0  0  0  0  0
   37.3350   22.3680   34.1700 N   0  0  0  0  0  0  0  0  0  0  0  0
   35.4450   22.8980   31.3980 C   0  0  0  0  0  0  0  0  0  0  0  0
   36.8080   20.9680   30.8370 C   0  0  0  0  0  0  0  0  0  0  0  0
   36.5100   19.5050   30.8770 C   0  0  1  0  0  0  0  0  0  0  0  0
   36.8180   18.5810   29.7720 C   0  0  0  0  0  0  0  0  0  0  0  0
   37.5530   18.5300   31.1280 C   0  0  2  0  0  0  0  0  0  0  0  0
   37.1210   17.3270   31.9280 C   0  0  0  0  0  0  0  0  0  0  0  0
   37.9310   16.3940   32.2080 O   0  0  0  0  0  0  0  0  0  0  0  0
   35.8850   17.0430   32.4640 O   0  0  0  0  0  0  0  0  0  0  0  0
   35.1830   15.8760   32.2910 C   0  0  0  0  0  0  0  0  0  0  0  0
   35.0380   15.3780   30.9490 N   0  0  0  0  0  0  0  0  0  0  0  0
   34.7070   15.3020   33.3040 O   0  0  0  0  0  0  0  0  0  0  0  0
   35.5591   21.1228   32.5918 H   0  0  0  0  0  0  0  0  0  0  0  0
   40.9180   22.3799   38.3135 H   0  0  0  0  0  0  0  0  0  0  0  0
   39.1588   23.4380   39.7565 H   0  0  0  0  0  0  0  0  0  0  0  0
   37.0321   24.2371   38.6874 H   0  0  0  0  0  0  0  0  0  0  0  0
   40.3024   23.3826   33.4580 H   0  0  0  0  0  0  0  0  0  0  0  0
   35.0300   23.5091   32.2130 H   0  0  0  0  0  0  0  0  0  0  0  0
   36.1105   23.5167   30.7781 H   0  0  0  0  0  0  0  0  0  0  0  0
   34.6245   22.5075   30.7781 H   0  0  0  0  0  0  0  0  0  0  0  0
   37.9002   21.0977   30.8520 H   0  0  0  0  0  0  0  0  0  0  0  0
   36.3439   21.3593   29.9197 H   0  0  0  0  0  0  0  0  0  0  0  0
   35.5692   19.7722   31.3805 H   0  0  0  0  0  0  0  0  0  0  0  0
   36.1072   17.7891   29.4935 H   0  0  0  0  0  0  0  0  0  0  0  0
   37.1091   18.6775   28.7156 H   0  0  0  0  0  0  0  0  0  0  0  0
   38.5889   18.5944   31.4923 H   0  0  0  0  0  0  0  0  0  0  0  0
   34.5184   14.5055   30.7768 H   0  0  0  0  0  0  0  0  0  0  0  0
   35.4538   15.8940   30.1605 H   0  0  0  0  0  0  0  0  0  0  0  0
  1 11  1  0
  2  3  2  0
  4  3  1  0
  5  4  2  0
  6  7  2  0
  6  5  1  0
  7  2  1  0
  8  6  1  0
  9  8  1  0
 10 11  1  0
 10  9  2  0
 11 12  2  0
 12  8  1  0
 13  1  1  0
 14 15  1  0
 14  1  1  0
 15 17  1  0
 16 15  1  0
 16 17  1  0
 17 18  1  0
 18 19  2  0
 18 20  1  0
 21 20  1  0
 21 23  2  0
 22 21  1  0
  1 24  1  1
  2 25  1  0
  3 26  1  0
  4 27  1  0
  9 28  1  0
 13 29  1  0
 13 30  1  0
 13 31  1  0
 14 32  1  0
 14 33  1  0
 15 34  1  1
 16 35  1  0
 16 36  1  0
 17 37  1  6
 22 38  1  0
 22 39  1  0
M  ISO  8  24   8  25  14  26  14  27  14  28  14  29   8  30   8  31   8
M  ISO  6  32   8  33   8  34  13  35  13  36  13  37  13
M  END
>  <minimizedAffinity>  (1) 
-4.74705744

>  <minimizedRMSD>  (1) 
0.987770319

$$$$
