
     RDKit          3D

 38 40  0  0  1  0  0  0  0  0999 V2000
   36.3800   21.7140   31.9280 C   0  0  1  0  0  0  0  0  0  0  0  0
   39.9690   22.7640   37.9030 C   0  0  0  0  0  0  0  0  0  0  0  0
   38.9520   23.3290   38.6960 C   0  0  0  0  0  0  0  0  0  0  0  0
   37.7870   23.7380   38.0660 C   0  0  0  0  0  0  0  0  0  0  0  0
   37.6660   23.5850   36.7260 N   0  0  0  0  0  0  0  0  0  0  0  0
   38.6730   23.0340   35.9960 C   0  0  0  0  0  0  0  0  0  0  0  0
   39.8130   22.6270   36.5710 N   0  0  0  0  0  0  0  0  0  0  0  0
   38.5690   22.8460   34.5800 N   0  0  0  0  0  0  0  0  0  0  0  0
   39.3550   23.0420   33.4980 C   0  0  0  0  0  0  0  0  0  0  0  0
   38.6750   22.6610   32.4010 N   0  0  0  0  0  0  0  0  0  0  0  0
   37.4460   22.2230   32.8250 C   0  0  0  0  0  0  0  0  0  0  0  0
   37.4210   22.3510   34.1460 N   0  0  0  0  0  0  0  0  0  0  0  0
   35.5090   22.8380   31.4290 C   0  0  0  0  0  0  0  0  0  0  0  0
   37.0070   21.0660   30.7300 C   0  0  0  0  0  0  0  0  0  0  0  0
   36.8180   19.5830   30.6610 C   0  0  1  0  0  0  0  0  0  0  0  0
   36.6740   18.8330   29.4040 C   0  0  0  0  0  0  0  0  0  0  0  0
   37.9100   18.6950   30.3210 C   0  0  2  0  0  0  0  0  0  0  0  0
   37.9030   17.3700   31.0340 C   0  0  0  0  0  0  0  0  0  0  0  0
   38.5500   16.3720   30.6090 O   0  0  0  0  0  0  0  0  0  0  0  0
   37.2460   17.0220   32.2000 O   0  0  0  0  0  0  0  0  0  0  0  0
   35.9890   16.4690   32.2920 C   0  0  0  0  0  0  0  0  0  0  0  0
   35.5690   16.1050   31.0210 F   0  0  0  0  0  0  0  0  0  0  0  0
   35.0400   17.2680   32.8850 F   0  0  0  0  0  0  0  0  0  0  0  0
   36.0960   15.2870   33.0240 F   0  0  0  0  0  0  0  0  0  0  0  0
   35.7712   20.9985   32.5003 H   0  0  0  0  0  0  0  0  0  0  0  0
   40.9037   22.4298   38.3769 H   0  0  0  0  0  0  0  0  0  0  0  0
   39.0782   23.4424   39.7828 H   0  0  0  0  0  0  0  0  0  0  0  0
   36.9677   24.1831   38.6497 H   0  0  0  0  0  0  0  0  0  0  0  0
   40.3784   23.4451   33.5118 H   0  0  0  0  0  0  0  0  0  0  0  0
   35.0867   23.3829   32.2862 H   0  0  0  0  0  0  0  0  0  0  0  0
   36.1122   23.5259   30.8183 H   0  0  0  0  0  0  0  0  0  0  0  0
   34.6923   22.4256   30.8183 H   0  0  0  0  0  0  0  0  0  0  0  0
   36.5651   21.5118   29.8267 H   0  0  0  0  0  0  0  0  0  0  0  0
   38.0901   21.2417   30.8082 H   0  0  0  0  0  0  0  0  0  0  0  0
   36.1613   19.6940   31.5365 H   0  0  0  0  0  0  0  0  0  0  0  0
   36.7535   19.3483   28.4354 H   0  0  0  0  0  0  0  0  0  0  0  0
   35.9294   18.1506   28.9683 H   0  0  0  0  0  0  0  0  0  0  0  0
   39.0000   18.8195   30.2404 H   0  0  0  0  0  0  0  0  0  0  0  0
  1 11  1  0
  2  3  2  0
  4  3  1  0
  5  4  2  0
  6  7  2  0
  6  5  1  0
  7  2  1  0
  8  6  1  0
  9  8  1  0
 10 11  1  0
 10  9  2  0
 11 12  2  0
 12  8  1  0
 13  1  1  0
 14  1  1  0
 15 14  1  0
 16 17  1  0
 16 15  1  0
 17 15  1  0
 17 18  1  0
 18 20  1  0
 19 18  2  0
 20 21  1  0
 21 23  1  0
 21 24  1  0
 22 21  1  0
  1 25  1  1
  2 26  1  0
  3 27  1  0
  4 28  1  0
  9 29  1  0
 13 30  1  0
 13 31  1  0
 13 32  1  0
 14 33  1  0
 14 34  1  0
 15 35  1  1
 16 36  1  0
 16 37  1  0
 17 38  1  6
M  ISO  8  25   8  26  14  27  14  28  14  29  14  30   8  31   8  32   8
M  ISO  6  33   8  34   8  35  13  36  13  37  13  38  13
M  END
>  <minimizedAffinity>  (1) 
-4.69478607

>  <minimizedRMSD>  (1) 
1.40503716

$$$$
