
     RDKit          3D

 33 35  0  0  0  0  0  0  0  0999 V2000
   38.8020   21.4620   33.3080 C   0  0  0  0  0  0  0  0  0  0  0  0
   37.7400   22.2610   33.7530 C   0  0  0  0  0  0  0  0  0  0  0  0
   36.6040   22.3260   32.9340 C   0  0  0  0  0  0  0  0  0  0  0  0
   36.5830   21.6310   31.7770 N   0  0  0  0  0  0  0  0  0  0  0  0
   37.6200   20.8690   31.3720 C   0  0  0  0  0  0  0  0  0  0  0  0
   38.7060   20.7950   32.1380 N   0  0  0  0  0  0  0  0  0  0  0  0
   37.6340   20.1280   30.1700 N   0  0  0  0  0  0  0  0  0  0  0  0
   38.6150   20.2310   29.2200 C   0  0  0  0  0  0  0  0  0  0  0  0
   38.5070   19.4530   28.0970 C   0  0  0  0  0  0  0  0  0  0  0  0
   37.4460   18.6120   27.9530 C   0  0  0  0  0  0  0  0  0  0  0  0
   37.3430   17.8940   26.9220 O   0  0  0  0  0  0  0  0  0  0  0  0
   36.4660   18.4830   28.8610 N   0  0  0  0  0  0  0  0  0  0  0  0
   36.6090   19.2730   29.9650 C   0  0  0  0  0  0  0  0  0  0  0  0
   35.6990   19.1720   30.8370 O   0  0  0  0  0  0  0  0  0  0  0  0
   37.9110   22.9340   34.9950 N   0  0  0  0  0  0  0  0  0  0  0  0
   38.5940   24.0850   35.1880 C   0  0  0  0  0  0  0  0  0  0  0  0
   38.6590   24.6030   36.4740 C   0  0  0  0  0  0  0  0  0  0  0  0
   38.0390   23.9510   37.5280 C   0  0  0  0  0  0  0  0  0  0  0  0
   38.1100   24.4360   38.6820 O   0  0  0  0  0  0  0  0  0  0  0  0
   37.3660   22.7950   37.2730 N   0  0  0  0  0  0  0  0  0  0  0  0
   37.3040   22.2890   36.0070 C   0  0  0  0  0  0  0  0  0  0  0  0
   36.6520   21.2180   35.9070 O   0  0  0  0  0  0  0  0  0  0  0  0
   39.5290   19.5230   27.0480 C   0  0  0  0  0  0  0  0  0  0  0  0
   39.7164   21.3781   33.9137 H   0  0  0  0  0  0  0  0  0  0  0  0
   35.7389   22.9369   33.2311 H   0  0  0  0  0  0  0  0  0  0  0  0
   39.4640   20.9174   29.3543 H   0  0  0  0  0  0  0  0  0  0  0  0
   35.6710   17.8404   28.7351 H   0  0  0  0  0  0  0  0  0  0  0  0
   39.0853   24.5974   34.3477 H   0  0  0  0  0  0  0  0  0  0  0  0
   39.2072   25.5388   36.6581 H   0  0  0  0  0  0  0  0  0  0  0  0
   36.8986   22.2970   38.0440 H   0  0  0  0  0  0  0  0  0  0  0  0
   40.5248   19.5912   27.5103 H   0  0  0  0  0  0  0  0  0  0  0  0
   39.4758   18.6191   26.4234 H   0  0  0  0  0  0  0  0  0  0  0  0
   39.3531   20.4112   26.4234 H   0  0  0  0  0  0  0  0  0  0  0  0
  1  2  2  0
  2 15  1  0
  3  2  1  0
  4  3  2  0
  5  4  1  0
  5  6  2  0
  6  1  1  0
  7  5  1  0
  8  7  1  0
  9  8  2  0
 10  9  1  0
 10 12  1  0
 11 10  2  0
 12 13  1  0
 13  7  1  0
 13 14  2  0
 15 16  1  0
 15 21  1  0
 16 17  2  0
 17 18  1  0
 18 19  2  0
 20 18  1  0
 21 20  1  0
 22 21  2  0
 23  9  1  0
  1 24  1  0
  3 25  1  0
  8 26  1  0
 12 27  1  0
 16 28  1  0
 17 29  1  0
 20 30  1  0
 23 31  1  0
 23 32  1  0
 23 33  1  0
M  ISO  8  24  14  25  14  26  14  27   9  28  14  29  14  30   9  31   8
M  ISO  2  32   8  33   8
M  END
>  <minimizedAffinity>  (1) 
-5.20111752

>  <minimizedRMSD>  (1) 
5.41194582

$$$$
