
     RDKit          3D

 37 40  0  0  0  0  0  0  0  0999 V2000
   42.8020   25.0940   34.2670 C   0  0  0  0  0  0  0  0  0  0  0  0
   43.0410   24.2040   35.3230 C   0  0  0  0  0  0  0  0  0  0  0  0
   41.9260   23.4720   35.8170 C   0  0  0  0  0  0  0  0  0  0  0  0
   40.7110   23.6740   35.2450 N   0  0  0  0  0  0  0  0  0  0  0  0
   40.5280   24.5460   34.2250 C   0  0  0  0  0  0  0  0  0  0  0  0
   41.5670   25.2520   33.7370 N   0  0  0  0  0  0  0  0  0  0  0  0
   39.2730   24.7820   33.6040 N   0  0  0  0  0  0  0  0  0  0  0  0
   38.7090   26.0020   33.4530 C   0  0  0  0  0  0  0  0  0  0  0  0
   37.4800   26.0730   32.8270 C   0  0  0  0  0  0  0  0  0  0  0  0
   36.8810   24.9290   32.3850 C   0  0  0  0  0  0  0  0  0  0  0  0
   35.7590   25.0030   31.8140 O   0  0  0  0  0  0  0  0  0  0  0  0
   37.4100   23.7090   32.5180 N   0  0  0  0  0  0  0  0  0  0  0  0
   38.6190   23.6800   33.1390 C   0  0  0  0  0  0  0  0  0  0  0  0
   39.1410   22.5260   33.2750 O   0  0  0  0  0  0  0  0  0  0  0  0
   44.3620   24.0160   35.9100 C   0  0  0  0  0  0  0  0  0  0  0  0
   45.3180   23.1300   35.4200 C   0  0  0  0  0  0  0  0  0  0  0  0
   46.3930   23.2660   36.2510 N   0  0  0  0  0  0  0  0  0  0  0  0
   46.1680   24.1700   37.2120 C   0  0  0  0  0  0  0  0  0  0  0  0
   46.9860   24.5980   38.2410 C   0  0  0  0  0  0  0  0  0  0  0  0
   46.4400   25.5570   39.0700 C   0  0  0  0  0  0  0  0  0  0  0  0
   45.1750   26.0910   38.9400 C   0  0  0  0  0  0  0  0  0  0  0  0
   44.4160   25.6020   37.8770 C   0  0  0  0  0  0  0  0  0  0  0  0
   44.8820   24.6590   37.0150 C   0  0  0  0  0  0  0  0  0  0  0  0
   36.8410   27.3850   32.6480 C   0  0  0  0  0  0  0  0  0  0  0  0
   43.6395   25.6788   33.8588 H   0  0  0  0  0  0  0  0  0  0  0  0
   42.0453   22.7575   36.6448 H   0  0  0  0  0  0  0  0  0  0  0  0
   39.2133   26.9092   33.8173 H   0  0  0  0  0  0  0  0  0  0  0  0
   36.9393   22.8586   32.1772 H   0  0  0  0  0  0  0  0  0  0  0  0
   45.2268   22.4633   34.5498 H   0  0  0  0  0  0  0  0  0  0  0  0
   47.2709   22.7368   36.1504 H   0  0  0  0  0  0  0  0  0  0  0  0
   48.0015   24.2018   38.3888 H   0  0  0  0  0  0  0  0  0  0  0  0
   47.0625   25.9241   39.8993 H   0  0  0  0  0  0  0  0  0  0  0  0
   44.7890   26.8546   39.6313 H   0  0  0  0  0  0  0  0  0  0  0  0
   43.3992   25.9950   37.7299 H   0  0  0  0  0  0  0  0  0  0  0  0
   36.6264   27.8257   33.6327 H   0  0  0  0  0  0  0  0  0  0  0  0
   37.5168   28.0487   32.0887 H   0  0  0  0  0  0  0  0  0  0  0  0
   35.9018   27.2622   32.0887 H   0  0  0  0  0  0  0  0  0  0  0  0
  1  2  2  0
  2  3  1  0
  2 15  1  0
  4  3  2  0
  5  4  1  0
  6  5  2  0
  6  1  1  0
  7  5  1  0
  8  7  1  0
  9  8  2  0
 10 12  1  0
 10  9  1  0
 11 10  2  0
 12 13  1  0
 13 14  2  0
 13  7  1  0
 15 23  1  0
 16 15  2  0
 16 17  1  0
 17 18  1  0
 18 19  2  0
 19 20  1  0
 21 20  2  0
 22 21  1  0
 23 18  1  0
 23 22  2  0
 24  9  1  0
  1 25  1  0
  3 26  1  0
  8 27  1  0
 12 28  1  0
 16 29  1  0
 17 30  1  0
 19 31  1  0
 20 32  1  0
 21 33  1  0
 22 34  1  0
 24 35  1  0
 24 36  1  0
 24 37  1  0
M  ISO  8  25  14  26  14  27  14  28   9  29  14  30   9  31  14  32  14
M  ISO  5  33  14  34  14  35   8  36   8  37   8
M  END
>  <minimizedAffinity>  (1) 
-5.77412891

>  <minimizedRMSD>  (1) 
4.85765076

$$$$
