
     RDKit          3D

 30 32  0  0  0  0  0  0  0  0999 V2000
   39.5130   24.7330   34.0060 C   0  0  0  0  0  0  0  0  0  0  0  0
   38.7260   24.9970   35.1360 C   0  0  0  0  0  0  0  0  0  0  0  0
   37.8000   26.0470   35.0420 C   0  0  0  0  0  0  0  0  0  0  0  0
   37.7180   26.7380   33.8790 N   0  0  0  0  0  0  0  0  0  0  0  0
   38.5010   26.4490   32.8040 C   0  0  0  0  0  0  0  0  0  0  0  0
   39.3860   25.4580   32.8730 N   0  0  0  0  0  0  0  0  0  0  0  0
   38.4280   27.1650   31.5750 N   0  0  0  0  0  0  0  0  0  0  0  0
   39.4940   27.7480   30.9800 C   0  0  0  0  0  0  0  0  0  0  0  0
   39.2600   28.4100   29.7850 C   0  0  0  0  0  0  0  0  0  0  0  0
   38.0060   28.4580   29.2540 C   0  0  0  0  0  0  0  0  0  0  0  0
   37.8010   29.0590   28.1730 O   0  0  0  0  0  0  0  0  0  0  0  0
   36.9460   27.8930   29.8230 N   0  0  0  0  0  0  0  0  0  0  0  0
   37.1920   27.2420   31.0030 C   0  0  0  0  0  0  0  0  0  0  0  0
   36.1890   26.6950   31.5620 O   0  0  0  0  0  0  0  0  0  0  0  0
   38.8490   24.2410   36.3380 N   0  0  0  0  0  0  0  0  0  0  0  0
   37.9760   24.5020   37.3360 C   0  0  0  0  0  0  0  0  0  0  0  0
   38.3010   23.6510   38.3720 C   0  0  0  0  0  0  0  0  0  0  0  0
   39.3490   22.8940   38.0020 N   0  0  0  0  0  0  0  0  0  0  0  0
   39.6870   23.2570   36.7500 C   0  0  0  0  0  0  0  0  0  0  0  0
   40.3850   29.0620   29.0960 C   0  0  0  0  0  0  0  0  0  0  0  0
   40.2502   23.9175   34.0428 H   0  0  0  0  0  0  0  0  0  0  0  0
   37.1541   26.3040   35.8945 H   0  0  0  0  0  0  0  0  0  0  0  0
   40.4993   27.6989   31.4238 H   0  0  0  0  0  0  0  0  0  0  0  0
   36.0054   27.9412   29.4059 H   0  0  0  0  0  0  0  0  0  0  0  0
   37.1660   25.2462   37.3245 H   0  0  0  0  0  0  0  0  0  0  0  0
   37.7865   23.6000   39.3429 H   0  0  0  0  0  0  0  0  0  0  0  0
   40.5081   22.8262   36.1583 H   0  0  0  0  0  0  0  0  0  0  0  0
   41.0854   29.4679   29.8407 H   0  0  0  0  0  0  0  0  0  0  0  0
   40.9056   28.3256   28.4661 H   0  0  0  0  0  0  0  0  0  0  0  0
   40.0049   29.8798   28.4661 H   0  0  0  0  0  0  0  0  0  0  0  0
  1  2  2  0
  2 15  1  0
  3  2  1  0
  4  3  2  0
  5  6  2  0
  5  4  1  0
  6  1  1  0
  7  5  1  0
  8  7  1  0
  9  8  2  0
 10  9  1  0
 10 12  1  0
 11 10  2  0
 12 13  1  0
 13 14  2  0
 13  7  1  0
 15 19  1  0
 15 16  1  0
 16 17  2  0
 18 17  1  0
 19 18  2  0
 20  9  1  0
  1 21  1  0
  3 22  1  0
  8 23  1  0
 12 24  1  0
 16 25  1  0
 17 26  1  0
 19 27  1  0
 20 28  1  0
 20 29  1  0
 20 30  1  0
M  ISO  8  21  14  22  14  23  14  24   9  25  14  26  14  27  14  28   8
M  ISO  2  29   8  30   8
M  END
>  <minimizedAffinity>  (1) 
-4.90636826

>  <minimizedRMSD>  (1) 
6.28771353

$$$$
