
     RDKit          3D

 34 37  0  0  0  0  0  0  0  0999 V2000
   39.3910   22.3820   33.5310 C   0  0  0  0  0  0  0  0  0  0  0  0
   38.7140   23.6210   33.3730 C   0  0  0  0  0  0  0  0  0  0  0  0
   37.3870   23.5930   32.9130 C   0  0  0  0  0  0  0  0  0  0  0  0
   36.8340   22.3870   32.6490 N   0  0  0  0  0  0  0  0  0  0  0  0
   37.4830   21.2230   32.8010 C   0  0  0  0  0  0  0  0  0  0  0  0
   38.7590   21.2240   33.2410 N   0  0  0  0  0  0  0  0  0  0  0  0
   36.9220   19.9420   32.5290 N   0  0  0  0  0  0  0  0  0  0  0  0
   37.4770   19.0280   31.6920 C   0  0  0  0  0  0  0  0  0  0  0  0
   36.8160   17.8370   31.5350 C   0  0  0  0  0  0  0  0  0  0  0  0
   35.6360   17.6030   32.2120 C   0  0  0  0  0  0  0  0  0  0  0  0
   35.0440   16.5110   32.0590 O   0  0  0  0  0  0  0  0  0  0  0  0
   35.0660   18.4940   33.0480 N   0  0  0  0  0  0  0  0  0  0  0  0
   35.7480   19.6580   33.1770 C   0  0  0  0  0  0  0  0  0  0  0  0
   35.2370   20.5210   33.9590 O   0  0  0  0  0  0  0  0  0  0  0  0
   39.3940   24.8330   33.6820 N   0  0  0  0  0  0  0  0  0  0  0  0
   39.2390   25.4220   34.8980 C   0  0  0  0  0  0  0  0  0  0  0  0
   39.9720   26.5450   34.9560 N   0  0  0  0  0  0  0  0  0  0  0  0
   40.5980   26.6710   33.7680 C   0  0  0  0  0  0  0  0  0  0  0  0
   41.4730   27.5670   33.1760 C   0  0  0  0  0  0  0  0  0  0  0  0
   41.9270   27.3980   31.9260 N   0  0  0  0  0  0  0  0  0  0  0  0
   41.5470   26.3360   31.1800 C   0  0  0  0  0  0  0  0  0  0  0  0
   40.6860   25.4190   31.7090 N   0  0  0  0  0  0  0  0  0  0  0  0
   40.2350   25.6020   32.9750 C   0  0  0  0  0  0  0  0  0  0  0  0
   37.3580   16.8100   30.6480 C   0  0  0  0  0  0  0  0  0  0  0  0
   40.4307   22.3657   33.8898 H   0  0  0  0  0  0  0  0  0  0  0  0
   36.8156   24.5223   32.7719 H   0  0  0  0  0  0  0  0  0  0  0  0
   38.4183   19.2346   31.1617 H   0  0  0  0  0  0  0  0  0  0  0  0
   34.1851   18.3056   33.5473 H   0  0  0  0  0  0  0  0  0  0  0  0
   38.6077   25.0360   35.7119 H   0  0  0  0  0  0  0  0  0  0  0  0
   41.8057   28.4447   33.7496 H   0  0  0  0  0  0  0  0  0  0  0  0
   41.9286   26.2124   30.1557 H   0  0  0  0  0  0  0  0  0  0  0  0
   37.7878   15.9956   31.2496 H   0  0  0  0  0  0  0  0  0  0  0  0
   36.5528   16.4115   30.0133 H   0  0  0  0  0  0  0  0  0  0  0  0
   38.1414   17.2499   30.0133 H   0  0  0  0  0  0  0  0  0  0  0  0
  2  1  2  0
  2 15  1  0
  3  2  1  0
  4  5  1  0
  4  3  2  0
  5  6  2  0
  6  1  1  0
  7  5  1  0
  7 13  1  0
  8  7  1  0
  9  8  2  0
  9 10  1  0
 10 12  1  0
 11 10  2  0
 12 13  1  0
 13 14  2  0
 15 16  1  0
 16 17  2  0
 18 17  1  0
 19 18  2  0
 20 19  1  0
 21 22  1  0
 21 20  2  0
 22 23  2  0
 23 15  1  0
 23 18  1  0
 24  9  1  0
  1 25  1  0
  3 26  1  0
  8 27  1  0
 12 28  1  0
 16 29  1  0
 19 30  1  0
 21 31  1  0
 24 32  1  0
 24 33  1  0
 24 34  1  0
M  ISO  8  25  14  26  14  27  14  28   9  29  14  30  14  31  14  32   8
M  ISO  2  33   8  34   8
M  END
>  <minimizedAffinity>  (1) 
-4.65127802

>  <minimizedRMSD>  (1) 
5.39370108

$$$$
