
     RDKit          3D

 30 32  0  0  0  0  0  0  0  0999 V2000
   38.1420   23.0300   34.5510 C   0  0  0  0  0  0  0  0  0  0  0  0
   37.8860   24.2600   33.9290 C   0  0  0  0  0  0  0  0  0  0  0  0
   37.4390   24.2320   32.5990 C   0  0  0  0  0  0  0  0  0  0  0  0
   37.2810   23.0310   31.9890 N   0  0  0  0  0  0  0  0  0  0  0  0
   37.5380   21.8570   32.6220 C   0  0  0  0  0  0  0  0  0  0  0  0
   37.9610   21.8740   33.8820 N   0  0  0  0  0  0  0  0  0  0  0  0
   37.3800   20.5810   32.0080 N   0  0  0  0  0  0  0  0  0  0  0  0
   38.3720   19.6470   31.9490 C   0  0  0  0  0  0  0  0  0  0  0  0
   38.0730   18.4630   31.3260 C   0  0  0  0  0  0  0  0  0  0  0  0
   36.8280   18.2530   30.7950 C   0  0  0  0  0  0  0  0  0  0  0  0
   36.5680   17.1620   30.2250 O   0  0  0  0  0  0  0  0  0  0  0  0
   35.8370   19.1570   30.8400 N   0  0  0  0  0  0  0  0  0  0  0  0
   36.1550   20.3180   31.4620 C   0  0  0  0  0  0  0  0  0  0  0  0
   35.2440   21.1900   31.5210 O   0  0  0  0  0  0  0  0  0  0  0  0
   38.0660   25.5370   34.6080 C   0  0  0  0  0  0  0  0  0  0  0  0
   37.1940   26.5890   34.5190 C   0  0  0  0  0  0  0  0  0  0  0  0
   37.6570   27.6420   35.2790 C   0  0  0  0  0  0  0  0  0  0  0  0
   38.8470   27.1410   35.8150 C   0  0  0  0  0  0  0  0  0  0  0  0
   39.0560   25.9090   35.4030 O   0  0  0  0  0  0  0  0  0  0  0  0
   39.0900   17.4180   31.2270 C   0  0  0  0  0  0  0  0  0  0  0  0
   38.4933   23.0081   35.5932 H   0  0  0  0  0  0  0  0  0  0  0  0
   37.2209   25.1665   32.0614 H   0  0  0  0  0  0  0  0  0  0  0  0
   39.3659   19.8350   32.3812 H   0  0  0  0  0  0  0  0  0  0  0  0
   34.9070   18.9818   30.4333 H   0  0  0  0  0  0  0  0  0  0  0  0
   36.2648   26.5933   33.9303 H   0  0  0  0  0  0  0  0  0  0  0  0
   37.2021   28.6325   35.4272 H   0  0  0  0  0  0  0  0  0  0  0  0
   39.5153   27.6989   36.4874 H   0  0  0  0  0  0  0  0  0  0  0  0
   39.3941   17.1055   32.2369 H   0  0  0  0  0  0  0  0  0  0  0  0
   38.6770   16.5546   30.6848 H   0  0  0  0  0  0  0  0  0  0  0  0
   39.9643   17.8074   30.6848 H   0  0  0  0  0  0  0  0  0  0  0  0
  2  1  2  0
  2 15  1  0
  3  2  1  0
  4  3  2  0
  4  5  1  0
  5  6  2  0
  6  1  1  0
  7  5  1  0
  8  7  1  0
  9  8  2  0
 10 12  1  0
 10  9  1  0
 11 10  2  0
 12 13  1  0
 13 14  2  0
 13  7  1  0
 15 19  1  0
 16 15  2  0
 16 17  1  0
 17 18  2  0
 19 18  1  0
 20  9  1  0
  1 21  1  0
  3 22  1  0
  8 23  1  0
 12 24  1  0
 16 25  1  0
 17 26  1  0
 18 27  1  0
 20 28  1  0
 20 29  1  0
 20 30  1  0
M  ISO  8  21  14  22  14  23  14  24   9  25  14  26  14  27  14  28   8
M  ISO  2  29   8  30   8
M  END
>  <minimizedAffinity>  (1) 
-4.65432167

>  <minimizedRMSD>  (1) 
4.67166376

$$$$
