
     RDKit          3D

 30 32  0  0  0  0  0  0  0  0999 V2000
   38.1190   23.0690   34.5340 C   0  0  0  0  0  0  0  0  0  0  0  0
   37.8610   24.3050   33.8940 C   0  0  0  0  0  0  0  0  0  0  0  0
   37.4250   24.2600   32.5600 C   0  0  0  0  0  0  0  0  0  0  0  0
   37.2710   23.0560   31.9510 N   0  0  0  0  0  0  0  0  0  0  0  0
   37.5290   21.9020   32.5970 C   0  0  0  0  0  0  0  0  0  0  0  0
   37.9490   21.9030   33.8770 N   0  0  0  0  0  0  0  0  0  0  0  0
   37.3850   20.6090   32.0050 N   0  0  0  0  0  0  0  0  0  0  0  0
   38.3600   19.6760   31.9500 C   0  0  0  0  0  0  0  0  0  0  0  0
   38.0690   18.4770   31.3470 C   0  0  0  0  0  0  0  0  0  0  0  0
   36.8130   18.2560   30.8180 C   0  0  0  0  0  0  0  0  0  0  0  0
   36.5530   17.1540   30.2650 O   0  0  0  0  0  0  0  0  0  0  0  0
   35.8270   19.1580   30.8540 N   0  0  0  0  0  0  0  0  0  0  0  0
   36.1570   20.3350   31.4640 C   0  0  0  0  0  0  0  0  0  0  0  0
   35.2380   21.2150   31.5140 O   0  0  0  0  0  0  0  0  0  0  0  0
   38.0370   25.5420   34.5800 N   0  0  0  0  0  0  0  0  0  0  0  0
   37.1670   26.5360   34.4260 N   0  0  0  0  0  0  0  0  0  0  0  0
   37.5500   27.5970   35.1760 C   0  0  0  0  0  0  0  0  0  0  0  0
   38.7210   27.1750   35.8000 C   0  0  0  0  0  0  0  0  0  0  0  0
   39.0250   25.8660   35.4150 C   0  0  0  0  0  0  0  0  0  0  0  0
   39.0900   17.4330   31.2620 C   0  0  0  0  0  0  0  0  0  0  0  0
   38.4621   23.0591   35.5791 H   0  0  0  0  0  0  0  0  0  0  0  0
   37.2104   25.1904   32.0139 H   0  0  0  0  0  0  0  0  0  0  0  0
   39.3558   19.8704   32.3748 H   0  0  0  0  0  0  0  0  0  0  0  0
   34.8945   18.9801   30.4544 H   0  0  0  0  0  0  0  0  0  0  0  0
   37.0491   28.5717   35.2707 H   0  0  0  0  0  0  0  0  0  0  0  0
   39.3195   27.7829   36.4945 H   0  0  0  0  0  0  0  0  0  0  0  0
   39.8794   25.2478   35.7277 H   0  0  0  0  0  0  0  0  0  0  0  0
   39.3881   17.1282   32.2760 H   0  0  0  0  0  0  0  0  0  0  0  0
   38.6828   16.5649   30.7230 H   0  0  0  0  0  0  0  0  0  0  0  0
   39.9670   17.8208   30.7230 H   0  0  0  0  0  0  0  0  0  0  0  0
  2  1  2  0
  2 15  1  0
  3  2  1  0
  4  3  2  0
  4  5  1  0
  5  6  2  0
  6  1  1  0
  7  5  1  0
  8  7  1  0
  9  8  2  0
 10 12  1  0
 10  9  1  0
 11 10  2  0
 12 13  1  0
 13 14  2  0
 13  7  1  0
 15 19  1  0
 16 15  1  0
 16 17  2  0
 17 18  1  0
 19 18  2  0
 20  9  1  0
  1 21  1  0
  3 22  1  0
  8 23  1  0
 12 24  1  0
 17 25  1  0
 18 26  1  0
 19 27  1  0
 20 28  1  0
 20 29  1  0
 20 30  1  0
M  ISO  8  21  14  22  14  23  14  24   9  25  14  26  14  27  14  28   8
M  ISO  2  29   8  30   8
M  END
>  <minimizedAffinity>  (1) 
-4.62245989

>  <minimizedRMSD>  (1) 
4.68778086

$$$$
