
     RDKit          3D

 32 34  0  0  0  0  0  0  0  0999 V2000
   37.9870   22.9340   34.2600 C   0  0  0  0  0  0  0  0  0  0  0  0
   37.6460   24.1030   33.5710 C   0  0  0  0  0  0  0  0  0  0  0  0
   37.1630   23.9750   32.2640 C   0  0  0  0  0  0  0  0  0  0  0  0
   37.0450   22.7350   31.7250 N   0  0  0  0  0  0  0  0  0  0  0  0
   37.3860   21.6220   32.4240 C   0  0  0  0  0  0  0  0  0  0  0  0
   37.8490   21.7160   33.6710 N   0  0  0  0  0  0  0  0  0  0  0  0
   37.2750   20.3070   31.8880 N   0  0  0  0  0  0  0  0  0  0  0  0
   38.3070   19.4110   31.8520 C   0  0  0  0  0  0  0  0  0  0  0  0
   38.0740   18.1780   31.3110 C   0  0  0  0  0  0  0  0  0  0  0  0
   36.8190   17.8780   30.8250 C   0  0  0  0  0  0  0  0  0  0  0  0
   36.6080   16.7350   30.3260 O   0  0  0  0  0  0  0  0  0  0  0  0
   35.7930   18.7290   30.8450 N   0  0  0  0  0  0  0  0  0  0  0  0
   36.0700   19.9460   31.3930 C   0  0  0  0  0  0  0  0  0  0  0  0
   35.1110   20.7710   31.4240 O   0  0  0  0  0  0  0  0  0  0  0  0
   37.8160   25.3760   34.2560 C   0  0  0  0  0  0  0  0  0  0  0  0
   38.7640   25.5910   35.2320 C   0  0  0  0  0  0  0  0  0  0  0  0
   38.8680   26.8290   35.8400 C   0  0  0  0  0  0  0  0  0  0  0  0
   38.0200   27.8550   35.4700 C   0  0  0  0  0  0  0  0  0  0  0  0
   37.0730   27.6050   34.4800 C   0  0  0  0  0  0  0  0  0  0  0  0
   36.9910   26.3730   33.8940 N   0  0  0  0  0  0  0  0  0  0  0  0
   39.1370   17.1750   31.2450 C   0  0  0  0  0  0  0  0  0  0  0  0
   38.3707   23.0008   35.2887 H   0  0  0  0  0  0  0  0  0  0  0  0
   36.8832   24.8657   31.6823 H   0  0  0  0  0  0  0  0  0  0  0  0
   39.2985   19.6756   32.2480 H   0  0  0  0  0  0  0  0  0  0  0  0
   34.8630   18.4857   30.4750 H   0  0  0  0  0  0  0  0  0  0  0  0
   39.4403   24.7758   35.5287 H   0  0  0  0  0  0  0  0  0  0  0  0
   39.6265   26.9968   36.6188 H   0  0  0  0  0  0  0  0  0  0  0  0
   38.0910   28.8444   35.9454 H   0  0  0  0  0  0  0  0  0  0  0  0
   36.3859   28.4051   34.1673 H   0  0  0  0  0  0  0  0  0  0  0  0
   39.4374   16.8915   32.2645 H   0  0  0  0  0  0  0  0  0  0  0  0
   38.7700   16.2864   30.7104 H   0  0  0  0  0  0  0  0  0  0  0  0
   40.0028   17.5929   30.7104 H   0  0  0  0  0  0  0  0  0  0  0  0
  2 15  1  0
  2  1  2  0
  3  2  1  0
  4  3  2  0
  4  5  1  0
  5  6  2  0
  6  1  1  0
  7  5  1  0
  8  7  1  0
  9  8  2  0
 10 12  1  0
 10  9  1  0
 11 10  2  0
 12 13  1  0
 13 14  2  0
 13  7  1  0
 15 16  2  0
 16 17  1  0
 18 17  2  0
 19 18  1  0
 20 15  1  0
 20 19  2  0
 21  9  1  0
  1 22  1  0
  3 23  1  0
  8 24  1  0
 12 25  1  0
 16 26  1  0
 17 27  1  0
 18 28  1  0
 19 29  1  0
 21 30  1  0
 21 31  1  0
 21 32  1  0
M  ISO  8  22  14  23  14  24  14  25   9  26  14  27  14  28  14  29  14
M  ISO  3  30   8  31   8  32   8
M  END
>  <minimizedAffinity>  (1) 
-4.9100852

>  <minimizedRMSD>  (1) 
5.13538647

$$$$
