
     RDKit          3D

 26 27  0  0  0  0  0  0  0  0999 V2000
   38.8030   22.4690   35.8700 C   0  0  0  0  0  0  0  0  0  0  0  0
   38.4470   23.5710   36.6600 C   0  0  0  0  0  0  0  0  0  0  0  0
   38.2470   24.7970   36.0100 C   0  0  0  0  0  0  0  0  0  0  0  0
   38.4090   24.8480   34.6640 N   0  0  0  0  0  0  0  0  0  0  0  0
   38.7510   23.7770   33.9280 C   0  0  0  0  0  0  0  0  0  0  0  0
   38.9410   22.6130   34.5420 N   0  0  0  0  0  0  0  0  0  0  0  0
   38.9280   23.7980   32.5260 N   0  0  0  0  0  0  0  0  0  0  0  0
   40.0470   23.3780   31.8810 C   0  0  0  0  0  0  0  0  0  0  0  0
   40.0680   23.4600   30.5140 C   0  0  0  0  0  0  0  0  0  0  0  0
   38.9860   23.9530   29.8350 C   0  0  0  0  0  0  0  0  0  0  0  0
   38.9970   24.0330   28.5760 O   0  0  0  0  0  0  0  0  0  0  0  0
   37.8630   24.3780   30.4310 N   0  0  0  0  0  0  0  0  0  0  0  0
   37.8810   24.2800   31.7900 C   0  0  0  0  0  0  0  0  0  0  0  0
   36.8230   24.6770   32.3830 O   0  0  0  0  0  0  0  0  0  0  0  0
   41.2460   23.0230   29.7680 C   0  0  0  0  0  0  0  0  0  0  0  0
   38.2520   23.6180   38.0840 C   0  0  0  0  0  0  0  0  0  0  0  0
   37.9320   24.6380   38.7670 O   0  0  0  0  0  0  0  0  0  0  0  0
   38.3750   22.5660   38.9810 O   0  0  0  0  0  0  0  0  0  0  0  0
   38.9691   21.4872   36.3375 H   0  0  0  0  0  0  0  0  0  0  0  0
   37.9655   25.6961   36.5778 H   0  0  0  0  0  0  0  0  0  0  0  0
   40.9094   22.9843   32.4390 H   0  0  0  0  0  0  0  0  0  0  0  0
   37.0564   24.7467   29.9071 H   0  0  0  0  0  0  0  0  0  0  0  0
   42.0380   22.7292   30.4726 H   0  0  0  0  0  0  0  0  0  0  0  0
   40.9810   22.1633   29.1349 H   0  0  0  0  0  0  0  0  0  0  0  0
   41.6058   23.8475   29.1349 H   0  0  0  0  0  0  0  0  0  0  0  0
   38.2157   22.7174   39.9463 H   0  0  0  0  0  0  0  0  0  0  0  0
  1  2  2  0
  2 16  1  0
  3  2  1  0
  4  3  2  0
  5  6  2  0
  5  4  1  0
  6  1  1  0
  7  5  1  0
  8  7  1  0
  9  8  2  0
 10 12  1  0
 10  9  1  0
 11 10  2  0
 12 13  1  0
 13 14  2  0
 13  7  1  0
 15  9  1  0
 16 17  2  0
 16 18  1  0
  1 19  1  0
  3 20  1  0
  8 21  1  0
 12 22  1  0
 15 23  1  0
 15 24  1  0
 15 25  1  0
 18 26  1  0
M  ISO  8  19  14  20  14  21  14  22   9  23   8  24   8  25   8  26   3
M  END
>  <minimizedAffinity>  (1) 
-4.60660744

>  <minimizedRMSD>  (1) 
4.10315084

$$$$
