
     RDKit          3D

 43 46  0  0  1  0  0  0  0  0999 V2000
   39.0210   23.5900   35.5070 C   0  0  1  0  0  0  0  0  0  0  0  0
   38.4400   24.7950   36.1470 C   0  0  0  0  0  0  0  0  0  0  0  0
   37.6380   24.2210   37.2940 C   0  0  0  0  0  0  0  0  0  0  0  0
   38.5240   23.1630   37.8320 C   0  0  0  0  0  0  0  0  0  0  0  0
   39.3320   22.6730   36.6660 C   0  0  2  0  0  0  0  0  0  0  0  0
   40.8180   22.7530   36.9460 C   0  0  0  0  0  0  0  0  0  0  0  0
   41.6270   21.7680   36.1060 C   0  0  0  0  0  0  0  0  0  0  0  0
   41.5610   21.6680   37.5970 C   0  0  0  0  0  0  0  0  0  0  0  0
   37.7990   23.5080   33.3560 C   0  0  0  0  0  0  0  0  0  0  0  0
   36.9400   22.6690   32.6710 C   0  0  0  0  0  0  0  0  0  0  0  0
   36.7750   21.5920   33.5020 N   0  0  0  0  0  0  0  0  0  0  0  0
   37.5120   21.8310   34.6000 C   0  0  0  0  0  0  0  0  0  0  0  0
   38.1550   22.9970   34.5480 N   0  0  0  0  0  0  0  0  0  0  0  0
   38.2760   24.7980   32.8680 C   0  0  0  0  0  0  0  0  0  0  0  0
   39.6060   24.9300   32.4510 C   0  0  0  0  0  0  0  0  0  0  0  0
   40.0070   26.2170   32.0060 C   0  0  0  0  0  0  0  0  0  0  0  0
   39.1050   27.2210   32.0110 N   0  0  0  0  0  0  0  0  0  0  0  0
   37.8500   27.0410   32.4180 C   0  0  0  0  0  0  0  0  0  0  0  0
   37.4040   25.8430   32.8520 N   0  0  0  0  0  0  0  0  0  0  0  0
   36.9260   28.2320   32.3820 C   0  0  0  0  0  0  0  0  0  0  0  0
   36.2210   28.3940   33.7300 C   0  0  0  0  0  0  0  0  0  0  0  0
   39.9173   23.8287   34.9157 H   0  0  0  0  0  0  0  0  0  0  0  0
   39.2298   25.4666   36.5145 H   0  0  0  0  0  0  0  0  0  0  0  0
   37.8350   25.4019   35.4573 H   0  0  0  0  0  0  0  0  0  0  0  0
   37.4334   24.9885   38.0550 H   0  0  0  0  0  0  0  0  0  0  0  0
   36.6531   23.8417   36.9838 H   0  0  0  0  0  0  0  0  0  0  0  0
   39.1843   23.5752   38.6092 H   0  0  0  0  0  0  0  0  0  0  0  0
   37.9470   22.3489   38.2949 H   0  0  0  0  0  0  0  0  0  0  0  0
   39.0796   21.6226   36.4590 H   0  0  0  0  0  0  0  0  0  0  0  0
   40.7768   23.8303   37.1645 H   0  0  0  0  0  0  0  0  0  0  0  0
   41.1160   21.0246   35.4765 H   0  0  0  0  0  0  0  0  0  0  0  0
   42.4272   21.8430   35.3550 H   0  0  0  0  0  0  0  0  0  0  0  0
   42.4518   21.9026   38.1983 H   0  0  0  0  0  0  0  0  0  0  0  0
   41.2879   20.8668   38.2994 H   0  0  0  0  0  0  0  0  0  0  0  0
   36.4897   22.8300   31.6804 H   0  0  0  0  0  0  0  0  0  0  0  0
   37.5775   21.1376   35.4514 H   0  0  0  0  0  0  0  0  0  0  0  0
   40.3043   24.0802   32.4674 H   0  0  0  0  0  0  0  0  0  0  0  0
   41.0370   26.3933   31.6624 H   0  0  0  0  0  0  0  0  0  0  0  0
   37.5101   29.1388   32.1660 H   0  0  0  0  0  0  0  0  0  0  0  0
   36.1703   28.0767   31.5979 H   0  0  0  0  0  0  0  0  0  0  0  0
   36.9426   28.2282   34.5435 H   0  0  0  0  0  0  0  0  0  0  0  0
   35.8079   29.4105   33.8079 H   0  0  0  0  0  0  0  0  0  0  0  0
   35.4056   27.6598   33.8079 H   0  0  0  0  0  0  0  0  0  0  0  0
  1  2  1  0
  1  5  1  0
  2  3  1  0
  3  4  1  0
  5  6  1  0
  5  4  1  0
  6  8  1  0
  7  6  1  0
  7  8  1  0
  9 13  1  0
 10  9  2  0
 10 11  1  0
 11 12  2  0
 13 12  1  0
 13  1  1  0
 14  9  1  0
 15 14  2  0
 16 17  2  0
 16 15  1  0
 17 18  1  0
 18 19  2  0
 19 14  1  0
 20 18  1  0
 20 21  1  0
  1 22  1  6
  2 23  1  0
  2 24  1  0
  3 25  1  0
  3 26  1  0
  4 27  1  0
  4 28  1  0
  5 29  1  6
  6 30  1  0
  7 31  1  0
  7 32  1  0
  8 33  1  0
  8 34  1  0
 10 35  1  0
 12 36  1  0
 15 37  1  0
 16 38  1  0
 20 39  1  0
 20 40  1  0
 21 41  1  0
 21 42  1  0
 21 43  1  0
M  ISO  8  22  13  23  13  24  13  25  13  26  13  27  13  28  13  29  13
M  ISO  8  30  13  31  13  32  13  33  13  34  13  35  14  36  14  37  14
M  ISO  6  38  14  39   8  40   8  41   8  42   8  43   8
M  END
>  <minimizedAffinity>  (1) 
-4.87255907

>  <minimizedRMSD>  (1) 
0.24057208

$$$$
