
     RDKit          3D

 49 53  0  0  0  0  0  0  0  0999 V2000
   43.0110   23.1480   34.2960 C   0  0  0  0  0  0  0  0  0  0  0  0
   43.1330   23.4160   35.6730 C   0  0  0  0  0  0  0  0  0  0  0  0
   41.9570   23.6310   36.3840 C   0  0  0  0  0  0  0  0  0  0  0  0
   40.7770   23.5750   35.7420 N   0  0  0  0  0  0  0  0  0  0  0  0
   40.6780   23.3180   34.4290 C   0  0  0  0  0  0  0  0  0  0  0  0
   41.7810   23.1070   33.7140 N   0  0  0  0  0  0  0  0  0  0  0  0
   39.4510   23.2540   33.7330 N   0  0  0  0  0  0  0  0  0  0  0  0
   39.1830   23.9900   32.6070 C   0  0  0  0  0  0  0  0  0  0  0  0
   37.9410   23.8370   32.0150 C   0  0  0  0  0  0  0  0  0  0  0  0
   37.0390   22.9700   32.5630 C   0  0  0  0  0  0  0  0  0  0  0  0
   35.9110   22.8260   32.0270 O   0  0  0  0  0  0  0  0  0  0  0  0
   37.2720   22.2450   33.6480 N   0  0  0  0  0  0  0  0  0  0  0  0
   38.5010   22.4230   34.2020 C   0  0  0  0  0  0  0  0  0  0  0  0
   38.7550   21.7440   35.2420 O   0  0  0  0  0  0  0  0  0  0  0  0
   44.5090   23.4160   36.0930 C   0  0  0  0  0  0  0  0  0  0  0  0
   45.3510   22.4770   35.4940 C   0  0  0  0  0  0  0  0  0  0  0  0
   46.6810   22.3620   35.7910 C   0  0  0  0  0  0  0  0  0  0  0  0
   47.2590   23.1870   36.7150 C   0  0  0  0  0  0  0  0  0  0  0  0
   46.4620   24.1170   37.3200 C   0  0  0  0  0  0  0  0  0  0  0  0
   46.9570   24.9940   38.2650 C   0  0  0  0  0  0  0  0  0  0  0  0
   46.1680   25.9460   38.8910 C   0  0  0  0  0  0  0  0  0  0  0  0
   44.8260   26.0290   38.5630 C   0  0  0  0  0  0  0  0  0  0  0  0
   44.3110   25.1640   37.6220 C   0  0  0  0  0  0  0  0  0  0  0  0
   45.1220   24.2280   37.0160 C   0  0  0  0  0  0  0  0  0  0  0  0
   37.6200   24.6160   30.8100 C   0  0  0  0  0  0  0  0  0  0  0  0
   37.2930   26.0310   31.1120 C   0  0  0  0  0  0  0  0  0  0  0  0
   36.2610   26.5360   31.8700 C   0  0  0  0  0  0  0  0  0  0  0  0
   36.1140   27.8860   32.0480 C   0  0  0  0  0  0  0  0  0  0  0  0
   36.9710   28.8030   31.4910 C   0  0  0  0  0  0  0  0  0  0  0  0
   38.0340   28.3490   30.7150 C   0  0  0  0  0  0  0  0  0  0  0  0
   38.1450   26.9830   30.5620 C   0  0  0  0  0  0  0  0  0  0  0  0
   43.9114   22.9714   33.6893 H   0  0  0  0  0  0  0  0  0  0  0  0
   41.9921   23.8450   37.4624 H   0  0  0  0  0  0  0  0  0  0  0  0
   39.9307   24.6795   32.1880 H   0  0  0  0  0  0  0  0  0  0  0  0
   36.5753   21.5963   34.0414 H   0  0  0  0  0  0  0  0  0  0  0  0
   44.9227   21.7948   34.7449 H   0  0  0  0  0  0  0  0  0  0  0  0
   47.2901   21.6000   35.2826 H   0  0  0  0  0  0  0  0  0  0  0  0
   48.3276   23.1050   36.9625 H   0  0  0  0  0  0  0  0  0  0  0  0
   48.0224   24.9344   38.5321 H   0  0  0  0  0  0  0  0  0  0  0  0
   46.6024   26.6263   39.6383 H   0  0  0  0  0  0  0  0  0  0  0  0
   44.1791   26.7755   39.0470 H   0  0  0  0  0  0  0  0  0  0  0  0
   43.2460   25.2206   37.3526 H   0  0  0  0  0  0  0  0  0  0  0  0
   36.7548   24.1536   30.3124 H   0  0  0  0  0  0  0  0  0  0  0  0
   38.5111   24.6118   30.1651 H   0  0  0  0  0  0  0  0  0  0  0  0
   35.5445   25.8458   32.3393 H   0  0  0  0  0  0  0  0  0  0  0  0
   35.2765   28.2500   32.6613 H   0  0  0  0  0  0  0  0  0  0  0  0
   36.8199   29.8801   31.6555 H   0  0  0  0  0  0  0  0  0  0  0  0
   38.7480   29.0436   30.2483 H   0  0  0  0  0  0  0  0  0  0  0  0
   38.9816   26.6135   29.9508 H   0  0  0  0  0  0  0  0  0  0  0  0
  1  2  2  0
  2 15  1  0
  2  3  1  0
  4  3  2  0
  5  4  1  0
  6  1  1  0
  6  5  2  0
  7 13  1  0
  7  5  1  0
  8  7  1  0
  9 10  1  0
  9  8  2  0
 10 12  1  0
 11 10  2  0
 12 13  1  0
 13 14  2  0
 15 24  2  0
 16 17  2  0
 16 15  1  0
 17 18  1  0
 18 19  2  0
 19 20  1  0
 20 21  2  0
 22 21  1  0
 23 22  2  0
 24 19  1  0
 24 23  1  0
 25 26  1  0
 25  9  1  0
 26 27  2  0
 27 28  1  0
 29 28  2  0
 30 29  1  0
 31 30  2  0
 31 26  1  0
  1 32  1  0
  3 33  1  0
  8 34  1  0
 12 35  1  0
 16 36  1  0
 17 37  1  0
 18 38  1  0
 20 39  1  0
 21 40  1  0
 22 41  1  0
 23 42  1  0
 25 43  1  0
 25 44  1  0
 27 45  1  0
 28 46  1  0
 29 47  1  0
 30 48  1  0
 31 49  1  0
M  ISO  8  32  14  33  14  34  14  35   9  36  14  37  14  38  14  39  14
M  ISO  8  40  14  41  14  42  14  43   8  44   8  45  14  46  14  47  14
M  ISO  2  48  14  49  14
M  END
>  <minimizedAffinity>  (1) 
-6.59667587

>  <minimizedRMSD>  (1) 
4.41837597

$$$$
