
     RDKit          3D

 52 56  0  0  0  0  0  0  0  0999 V2000
   41.1760   22.5710   34.3770 C   0  0  0  0  0  0  0  0  0  0  0  0
   41.0880   23.7410   35.1530 C   0  0  0  0  0  0  0  0  0  0  0  0
   39.8150   24.2210   35.4430 C   0  0  0  0  0  0  0  0  0  0  0  0
   38.7390   23.5580   34.9770 N   0  0  0  0  0  0  0  0  0  0  0  0
   38.8380   22.4480   34.2410 C   0  0  0  0  0  0  0  0  0  0  0  0
   40.0480   21.9500   33.9370 N   0  0  0  0  0  0  0  0  0  0  0  0
   37.7190   21.7400   33.7440 N   0  0  0  0  0  0  0  0  0  0  0  0
   37.5560   21.4260   32.4170 C   0  0  0  0  0  0  0  0  0  0  0  0
   36.4320   20.7340   32.0380 C   0  0  0  0  0  0  0  0  0  0  0  0
   35.5180   20.3830   32.9880 C   0  0  0  0  0  0  0  0  0  0  0  0
   34.4720   19.7470   32.6880 O   0  0  0  0  0  0  0  0  0  0  0  0
   35.6420   20.6720   34.2950 N   0  0  0  0  0  0  0  0  0  0  0  0
   36.7760   21.3600   34.6240 C   0  0  0  0  0  0  0  0  0  0  0  0
   36.9290   21.6500   35.8400 O   0  0  0  0  0  0  0  0  0  0  0  0
   42.3900   24.2340   35.5120 C   0  0  0  0  0  0  0  0  0  0  0  0
   43.0650   23.5630   36.5330 C   0  0  0  0  0  0  0  0  0  0  0  0
   44.3080   23.9150   36.9800 C   0  0  0  0  0  0  0  0  0  0  0  0
   44.9660   24.9770   36.4280 C   0  0  0  0  0  0  0  0  0  0  0  0
   44.3390   25.6600   35.4280 C   0  0  0  0  0  0  0  0  0  0  0  0
   44.9200   26.7500   34.8030 C   0  0  0  0  0  0  0  0  0  0  0  0
   44.2940   27.4570   33.7820 C   0  0  0  0  0  0  0  0  0  0  0  0
   43.0450   27.0610   33.3690 C   0  0  0  0  0  0  0  0  0  0  0  0
   42.4370   25.9870   33.9630 C   0  0  0  0  0  0  0  0  0  0  0  0
   43.0780   25.3060   34.9710 C   0  0  0  0  0  0  0  0  0  0  0  0
   36.2000   20.3720   30.6520 C   0  0  0  0  0  0  0  0  0  0  0  0
   37.2500   19.4470   30.0710 C   0  0  0  0  0  0  0  0  0  0  0  0
   37.4630   18.2090   30.8990 C   0  0  0  0  0  0  0  0  0  0  0  0
   36.7780   17.0620   30.1950 C   0  0  0  0  0  0  0  0  0  0  0  0
   36.8990   17.4410   28.7340 C   0  0  0  0  0  0  0  0  0  0  0  0
   36.7510   18.9490   28.7130 C   0  0  0  0  0  0  0  0  0  0  0  0
   42.1627   22.1556   34.1243 H   0  0  0  0  0  0  0  0  0  0  0  0
   39.6884   25.1321   36.0463 H   0  0  0  0  0  0  0  0  0  0  0  0
   38.3101   21.7226   31.6731 H   0  0  0  0  0  0  0  0  0  0  0  0
   34.9373   20.3964   34.9939 H   0  0  0  0  0  0  0  0  0  0  0  0
   42.5686   22.7021   37.0047 H   0  0  0  0  0  0  0  0  0  0  0  0
   44.7812   23.3394   37.7892 H   0  0  0  0  0  0  0  0  0  0  0  0
   45.9666   25.2710   36.7778 H   0  0  0  0  0  0  0  0  0  0  0  0
   45.9206   27.0710   35.1281 H   0  0  0  0  0  0  0  0  0  0  0  0
   44.7907   28.3191   33.3129 H   0  0  0  0  0  0  0  0  0  0  0  0
   42.5336   27.6061   32.5619 H   0  0  0  0  0  0  0  0  0  0  0  0
   41.4366   25.6695   33.6339 H   0  0  0  0  0  0  0  0  0  0  0  0
   35.2229   19.8713   30.5845 H   0  0  0  0  0  0  0  0  0  0  0  0
   36.2405   21.3041   30.0693 H   0  0  0  0  0  0  0  0  0  0  0  0
   38.1869   20.0212   30.0216 H   0  0  0  0  0  0  0  0  0  0  0  0
   38.5392   18.0018   30.9930 H   0  0  0  0  0  0  0  0  0  0  0  0
   37.0476   18.3446   31.9085 H   0  0  0  0  0  0  0  0  0  0  0  0
   37.2889   16.1098   30.4004 H   0  0  0  0  0  0  0  0  0  0  0  0
   35.7379   16.9117   30.5201 H   0  0  0  0  0  0  0  0  0  0  0  0
   37.8799   17.1421   28.3359 H   0  0  0  0  0  0  0  0  0  0  0  0
   36.1434   16.9404   28.1107 H   0  0  0  0  0  0  0  0  0  0  0  0
   37.3572   19.3802   27.9027 H   0  0  0  0  0  0  0  0  0  0  0  0
   35.7068   19.2464   28.5365 H   0  0  0  0  0  0  0  0  0  0  0  0
  1  2  2  0
  2  3  1  0
  2 15  1  0
  4  3  2  0
  5  4  1  0
  6  5  2  0
  6  1  1  0
  7  5  1  0
  7 13  1  0
  8  7  1  0
  9  8  2  0
  9 10  1  0
 10 12  1  0
 11 10  2  0
 12 13  1  0
 13 14  2  0
 15 16  2  0
 16 17  1  0
 18 17  2  0
 19 18  1  0
 20 19  2  0
 21 20  1  0
 22 21  2  0
 22 23  1  0
 23 24  2  0
 24 19  1  0
 24 15  1  0
 25  9  1  0
 26 25  1  0
 26 27  1  0
 28 27  1  0
 29 28  1  0
 30 29  1  0
 30 26  1  0
  1 31  1  0
  3 32  1  0
  8 33  1  0
 12 34  1  0
 16 35  1  0
 17 36  1  0
 18 37  1  0
 20 38  1  0
 21 39  1  0
 22 40  1  0
 23 41  1  0
 25 42  1  0
 25 43  1  0
 26 44  1  0
 27 45  1  0
 27 46  1  0
 28 47  1  0
 28 48  1  0
 29 49  1  0
 29 50  1  0
 30 51  1  0
 30 52  1  0
M  ISO  8  31  14  32  14  33  14  34   9  35  14  36  14  37  14  38  14
M  ISO  8  39  14  40  14  41  14  42   8  43   8  44  13  45  13  46  13
M  ISO  6  47  13  48  13  49  13  50  13  51  13  52  13
M  END
>  <minimizedAffinity>  (1) 
-6.04705143

>  <minimizedRMSD>  (1) 
0.815459847

$$$$
