
     RDKit          3D

 55 59  0  0  0  0  0  0  0  0999 V2000
   41.1930   22.6030   34.3990 C   0  0  0  0  0  0  0  0  0  0  0  0
   41.1170   23.7680   35.1830 C   0  0  0  0  0  0  0  0  0  0  0  0
   39.8500   24.2500   35.4890 C   0  0  0  0  0  0  0  0  0  0  0  0
   38.7690   23.5920   35.0300 N   0  0  0  0  0  0  0  0  0  0  0  0
   38.8490   22.4860   34.2860 C   0  0  0  0  0  0  0  0  0  0  0  0
   40.0530   21.9940   33.9710 N   0  0  0  0  0  0  0  0  0  0  0  0
   37.7300   21.7800   33.7940 N   0  0  0  0  0  0  0  0  0  0  0  0
   37.5550   21.4750   32.4680 C   0  0  0  0  0  0  0  0  0  0  0  0
   36.4240   20.7810   32.1010 C   0  0  0  0  0  0  0  0  0  0  0  0
   35.5170   20.4220   33.0670 C   0  0  0  0  0  0  0  0  0  0  0  0
   34.4760   19.7880   32.7650 O   0  0  0  0  0  0  0  0  0  0  0  0
   35.6650   20.7060   34.3580 N   0  0  0  0  0  0  0  0  0  0  0  0
   36.7920   21.3900   34.6810 C   0  0  0  0  0  0  0  0  0  0  0  0
   36.9660   21.6790   35.9000 O   0  0  0  0  0  0  0  0  0  0  0  0
   42.4300   24.2530   35.5300 C   0  0  0  0  0  0  0  0  0  0  0  0
   43.1130   23.5680   36.5330 C   0  0  0  0  0  0  0  0  0  0  0  0
   44.3640   23.9060   36.9660 C   0  0  0  0  0  0  0  0  0  0  0  0
   45.0250   24.9720   36.4140 C   0  0  0  0  0  0  0  0  0  0  0  0
   44.3770   25.6680   35.4230 C   0  0  0  0  0  0  0  0  0  0  0  0
   44.9590   26.7600   34.8020 C   0  0  0  0  0  0  0  0  0  0  0  0
   44.3340   27.4750   33.8080 C   0  0  0  0  0  0  0  0  0  0  0  0
   43.0610   27.0900   33.4020 C   0  0  0  0  0  0  0  0  0  0  0  0
   42.4640   26.0130   34.0010 C   0  0  0  0  0  0  0  0  0  0  0  0
   43.1150   25.3180   34.9940 C   0  0  0  0  0  0  0  0  0  0  0  0
   36.1820   20.4330   30.7090 C   0  0  0  0  0  0  0  0  0  0  0  0
   37.1610   19.3720   30.1940 C   0  0  0  0  0  0  0  0  0  0  0  0
   36.6990   18.9260   28.8610 C   0  0  0  0  0  0  0  0  0  0  0  0
   36.9450   17.5080   28.4930 C   0  0  0  0  0  0  0  0  0  0  0  0
   36.9830   16.5290   29.6120 C   0  0  0  0  0  0  0  0  0  0  0  0
   36.5040   17.0570   30.9270 C   0  0  0  0  0  0  0  0  0  0  0  0
   37.2770   18.3170   31.2320 C   0  0  0  0  0  0  0  0  0  0  0  0
   42.1740   22.1835   34.1314 H   0  0  0  0  0  0  0  0  0  0  0  0
   39.7319   25.1579   36.0987 H   0  0  0  0  0  0  0  0  0  0  0  0
   38.2996   21.7773   31.7169 H   0  0  0  0  0  0  0  0  0  0  0  0
   34.9708   20.4256   35.0653 H   0  0  0  0  0  0  0  0  0  0  0  0
   42.6167   22.7061   37.0029 H   0  0  0  0  0  0  0  0  0  0  0  0
   44.8437   23.3187   37.7628 H   0  0  0  0  0  0  0  0  0  0  0  0
   46.0324   25.2583   36.7505 H   0  0  0  0  0  0  0  0  0  0  0  0
   45.9662   27.0692   35.1180 H   0  0  0  0  0  0  0  0  0  0  0  0
   44.8327   28.3374   33.3415 H   0  0  0  0  0  0  0  0  0  0  0  0
   42.5392   27.6446   32.6082 H   0  0  0  0  0  0  0  0  0  0  0  0
   41.4571   25.7014   33.6861 H   0  0  0  0  0  0  0  0  0  0  0  0
   35.1575   20.0438   30.6150 H   0  0  0  0  0  0  0  0  0  0  0  0
   36.3244   21.3420   30.1061 H   0  0  0  0  0  0  0  0  0  0  0  0
   38.1832   19.7466   30.0367 H   0  0  0  0  0  0  0  0  0  0  0  0
   35.6132   19.0958   28.8139 H   0  0  0  0  0  0  0  0  0  0  0  0
   37.2959   19.5106   28.1455 H   0  0  0  0  0  0  0  0  0  0  0  0
   36.1451   17.1978   27.8046 H   0  0  0  0  0  0  0  0  0  0  0  0
   37.9548   17.4913   28.0572 H   0  0  0  0  0  0  0  0  0  0  0  0
   36.3511   15.6715   29.3374 H   0  0  0  0  0  0  0  0  0  0  0  0
   38.0409   16.2627   29.7532 H   0  0  0  0  0  0  0  0  0  0  0  0
   35.4290   17.2830   30.8695 H   0  0  0  0  0  0  0  0  0  0  0  0
   36.6614   16.3104   31.7193 H   0  0  0  0  0  0  0  0  0  0  0  0
   38.3395   18.0523   31.3368 H   0  0  0  0  0  0  0  0  0  0  0  0
   36.8471   18.7345   32.1544 H   0  0  0  0  0  0  0  0  0  0  0  0
  1  2  2  0
  2  3  1  0
  2 15  1  0
  4  3  2  0
  5  4  1  0
  6  5  2  0
  6  1  1  0
  7  5  1  0
  7 13  1  0
  8  7  1  0
  9  8  2  0
  9 10  1  0
 10 12  1  0
 11 10  2  0
 12 13  1  0
 13 14  2  0
 15 16  2  0
 16 17  1  0
 18 17  2  0
 19 18  1  0
 20 19  2  0
 21 20  1  0
 22 21  2  0
 22 23  1  0
 23 24  2  0
 24 19  1  0
 24 15  1  0
 25  9  1  0
 26 25  1  0
 26 31  1  0
 27 26  1  0
 28 27  1  0
 28 29  1  0
 29 30  1  0
 30 31  1  0
  1 32  1  0
  3 33  1  0
  8 34  1  0
 12 35  1  0
 16 36  1  0
 17 37  1  0
 18 38  1  0
 20 39  1  0
 21 40  1  0
 22 41  1  0
 23 42  1  0
 25 43  1  0
 25 44  1  0
 26 45  1  0
 27 46  1  0
 27 47  1  0
 28 48  1  0
 28 49  1  0
 29 50  1  0
 29 51  1  0
 30 52  1  0
 30 53  1  0
 31 54  1  0
 31 55  1  0
M  ISO  8  32  14  33  14  34  14  35   9  36  14  37  14  38  14  39  14
M  ISO  8  40  14  41  14  42  14  43   8  44   8  45  13  46  13  47  13
M  ISO  8  48  13  49  13  50  13  51  13  52  13  53  13  54  13  55  13
M  END
>  <minimizedAffinity>  (1) 
-6.20113611

>  <minimizedRMSD>  (1) 
0.925890207

$$$$
