
     RDKit          3D

 45 49  0  0  0  0  0  0  0  0999 V2000
   41.1000   22.6000   34.2780 C   0  0  0  0  0  0  0  0  0  0  0  0
   41.0250   23.7190   35.1290 C   0  0  0  0  0  0  0  0  0  0  0  0
   39.7540   24.1700   35.4740 C   0  0  0  0  0  0  0  0  0  0  0  0
   38.6770   23.5300   34.9880 N   0  0  0  0  0  0  0  0  0  0  0  0
   38.7610   22.4690   34.1820 C   0  0  0  0  0  0  0  0  0  0  0  0
   39.9650   21.9990   33.8220 N   0  0  0  0  0  0  0  0  0  0  0  0
   37.6350   21.7830   33.6640 N   0  0  0  0  0  0  0  0  0  0  0  0
   37.4580   21.5490   32.3160 C   0  0  0  0  0  0  0  0  0  0  0  0
   36.3100   20.8640   31.9460 C   0  0  0  0  0  0  0  0  0  0  0  0
   35.4190   20.4540   32.8950 C   0  0  0  0  0  0  0  0  0  0  0  0
   34.3800   19.8330   32.5590 O   0  0  0  0  0  0  0  0  0  0  0  0
   35.5780   20.6740   34.2010 N   0  0  0  0  0  0  0  0  0  0  0  0
   36.7120   21.3480   34.5440 C   0  0  0  0  0  0  0  0  0  0  0  0
   36.8870   21.5690   35.7650 O   0  0  0  0  0  0  0  0  0  0  0  0
   42.3320   24.1940   35.4900 C   0  0  0  0  0  0  0  0  0  0  0  0
   43.0080   23.4910   36.4940 C   0  0  0  0  0  0  0  0  0  0  0  0
   44.2620   23.8310   36.9360 C   0  0  0  0  0  0  0  0  0  0  0  0
   44.9230   24.9010   36.3990 C   0  0  0  0  0  0  0  0  0  0  0  0
   44.2910   25.6080   35.4180 C   0  0  0  0  0  0  0  0  0  0  0  0
   44.8750   26.7030   34.8140 C   0  0  0  0  0  0  0  0  0  0  0  0
   44.2540   27.4330   33.8180 C   0  0  0  0  0  0  0  0  0  0  0  0
   42.9850   27.0540   33.4020 C   0  0  0  0  0  0  0  0  0  0  0  0
   42.3810   25.9750   33.9800 C   0  0  0  0  0  0  0  0  0  0  0  0
   43.0270   25.2630   34.9740 C   0  0  0  0  0  0  0  0  0  0  0  0
   36.0760   20.5860   30.5210 C   0  0  0  0  0  0  0  0  0  0  0  0
   36.5870   19.2820   30.1270 N   0  0  0  0  0  0  0  0  0  0  0  0
   37.1150   18.2700   30.8240 C   0  0  0  0  0  0  0  0  0  0  0  0
   37.4370   17.2740   29.9810 N   0  0  0  0  0  0  0  0  0  0  0  0
   37.1040   17.6670   28.7190 C   0  0  0  0  0  0  0  0  0  0  0  0
   36.5850   18.9040   28.8420 N   0  0  0  0  0  0  0  0  0  0  0  0
   42.0830   22.2075   33.9786 H   0  0  0  0  0  0  0  0  0  0  0  0
   39.6328   25.0398   36.1364 H   0  0  0  0  0  0  0  0  0  0  0  0
   38.1919   21.8892   31.5705 H   0  0  0  0  0  0  0  0  0  0  0  0
   34.8921   20.3569   34.9010 H   0  0  0  0  0  0  0  0  0  0  0  0
   42.5097   22.6234   36.9512 H   0  0  0  0  0  0  0  0  0  0  0  0
   44.7397   23.2375   37.7294 H   0  0  0  0  0  0  0  0  0  0  0  0
   45.9285   25.1817   36.7456 H   0  0  0  0  0  0  0  0  0  0  0  0
   45.8802   27.0086   35.1400 H   0  0  0  0  0  0  0  0  0  0  0  0
   44.7566   28.2992   33.3629 H   0  0  0  0  0  0  0  0  0  0  0  0
   42.4696   27.6195   32.6117 H   0  0  0  0  0  0  0  0  0  0  0  0
   41.3757   25.6704   33.6536 H   0  0  0  0  0  0  0  0  0  0  0  0
   34.9937   20.6164   30.3267 H   0  0  0  0  0  0  0  0  0  0  0  0
   36.6082   21.3497   29.9349 H   0  0  0  0  0  0  0  0  0  0  0  0
   37.2623   18.2552   31.9140 H   0  0  0  0  0  0  0  0  0  0  0  0
   37.2327   17.0918   27.7903 H   0  0  0  0  0  0  0  0  0  0  0  0
  1  2  2  0
  2  3  1  0
  2 15  1  0
  4  3  2  0
  5  4  1  0
  6  5  2  0
  6  1  1  0
  7  5  1  0
  7 13  1  0
  8  7  1  0
  9  8  2  0
  9 10  1  0
 10 12  1  0
 11 10  2  0
 12 13  1  0
 13 14  2  0
 15 16  2  0
 16 17  1  0
 18 17  2  0
 19 18  1  0
 20 19  2  0
 21 20  1  0
 22 21  2  0
 22 23  1  0
 23 24  2  0
 24 19  1  0
 24 15  1  0
 25  9  1  0
 26 25  1  0
 26 27  1  0
 28 27  2  0
 29 30  2  0
 29 28  1  0
 30 26  1  0
  1 31  1  0
  3 32  1  0
  8 33  1  0
 12 34  1  0
 16 35  1  0
 17 36  1  0
 18 37  1  0
 20 38  1  0
 21 39  1  0
 22 40  1  0
 23 41  1  0
 25 42  1  0
 25 43  1  0
 27 44  1  0
 29 45  1  0
M  ISO  8  31  14  32  14  33  14  34   9  35  14  36  14  37  14  38  14
M  ISO  7  39  14  40  14  41  14  42   8  43   8  44  14  45  14
M  END
>  <minimizedAffinity>  (1) 
-5.78820705

>  <minimizedRMSD>  (1) 
0.632766247

$$$$
