
     RDKit          3D

 44 48  0  0  0  0  0  0  0  0999 V2000
   41.0750   22.6270   34.2440 C   0  0  0  0  0  0  0  0  0  0  0  0
   41.0010   23.7200   35.1230 C   0  0  0  0  0  0  0  0  0  0  0  0
   39.7410   24.1660   35.5050 C   0  0  0  0  0  0  0  0  0  0  0  0
   38.6550   23.5390   35.0220 N   0  0  0  0  0  0  0  0  0  0  0  0
   38.7320   22.4900   34.1780 C   0  0  0  0  0  0  0  0  0  0  0  0
   39.9360   22.0360   33.7910 N   0  0  0  0  0  0  0  0  0  0  0  0
   37.6010   21.8150   33.6620 N   0  0  0  0  0  0  0  0  0  0  0  0
   37.4030   21.6260   32.3120 C   0  0  0  0  0  0  0  0  0  0  0  0
   36.2620   20.9520   31.9290 C   0  0  0  0  0  0  0  0  0  0  0  0
   35.3830   20.5040   32.8950 C   0  0  0  0  0  0  0  0  0  0  0  0
   34.3370   19.8880   32.5590 O   0  0  0  0  0  0  0  0  0  0  0  0
   35.5550   20.6760   34.2050 N   0  0  0  0  0  0  0  0  0  0  0  0
   36.6960   21.3470   34.5430 C   0  0  0  0  0  0  0  0  0  0  0  0
   36.8960   21.5300   35.7690 O   0  0  0  0  0  0  0  0  0  0  0  0
   42.3180   24.1930   35.4780 C   0  0  0  0  0  0  0  0  0  0  0  0
   43.0000   23.4880   36.4720 C   0  0  0  0  0  0  0  0  0  0  0  0
   44.2610   23.8160   36.9110 C   0  0  0  0  0  0  0  0  0  0  0  0
   44.9140   24.8800   36.3730 C   0  0  0  0  0  0  0  0  0  0  0  0
   44.2760   25.6000   35.3910 C   0  0  0  0  0  0  0  0  0  0  0  0
   44.8660   26.6990   34.7890 C   0  0  0  0  0  0  0  0  0  0  0  0
   44.2440   27.4300   33.8100 C   0  0  0  0  0  0  0  0  0  0  0  0
   42.9750   27.0630   33.3990 C   0  0  0  0  0  0  0  0  0  0  0  0
   42.3710   25.9770   33.9810 C   0  0  0  0  0  0  0  0  0  0  0  0
   43.0210   25.2690   34.9570 C   0  0  0  0  0  0  0  0  0  0  0  0
   35.9770   20.7060   30.5280 C   0  0  0  0  0  0  0  0  0  0  0  0
   36.5500   19.3810   30.1620 C   0  0  0  0  0  0  0  0  0  0  0  0
   36.6250   18.9140   28.8820 N   0  0  0  0  0  0  0  0  0  0  0  0
   37.1700   17.7410   28.8720 O   0  0  0  0  0  0  0  0  0  0  0  0
   37.4820   17.3670   30.1120 C   0  0  0  0  0  0  0  0  0  0  0  0
   37.0970   18.3830   30.9030 N   0  0  0  0  0  0  0  0  0  0  0  0
   42.0558   22.2479   33.9211 H   0  0  0  0  0  0  0  0  0  0  0  0
   39.6346   25.0187   36.1918 H   0  0  0  0  0  0  0  0  0  0  0  0
   38.1251   21.9973   31.5699 H   0  0  0  0  0  0  0  0  0  0  0  0
   34.8829   20.3314   34.9053 H   0  0  0  0  0  0  0  0  0  0  0  0
   42.5002   22.6215   36.9295 H   0  0  0  0  0  0  0  0  0  0  0  0
   44.7419   23.2169   37.6983 H   0  0  0  0  0  0  0  0  0  0  0  0
   45.9228   25.1566   36.7133 H   0  0  0  0  0  0  0  0  0  0  0  0
   45.8750   26.9976   35.1095 H   0  0  0  0  0  0  0  0  0  0  0  0
   44.7474   28.2970   33.3572 H   0  0  0  0  0  0  0  0  0  0  0  0
   42.4565   27.6348   32.6152 H   0  0  0  0  0  0  0  0  0  0  0  0
   41.3624   25.6743   33.6630 H   0  0  0  0  0  0  0  0  0  0  0  0
   34.8892   20.6991   30.3650 H   0  0  0  0  0  0  0  0  0  0  0  0
   36.4209   21.4969   29.9055 H   0  0  0  0  0  0  0  0  0  0  0  0
   37.9555   16.4242   30.4232 H   0  0  0  0  0  0  0  0  0  0  0  0
  1  2  2  0
  2 15  1  0
  2  3  1  0
  4  3  2  0
  5  4  1  0
  6  5  2  0
  6  1  1  0
  7  5  1  0
  7 13  1  0
  8  7  1  0
  9  8  2  0
  9 10  1  0
 10 12  1  0
 11 10  2  0
 12 13  1  0
 13 14  2  0
 15 16  2  0
 16 17  1  0
 18 17  2  0
 19 18  1  0
 20 19  2  0
 21 20  1  0
 22 21  2  0
 22 23  1  0
 23 24  2  0
 24 19  1  0
 24 15  1  0
 25  9  1  0
 26 25  1  0
 26 30  1  0
 27 26  2  0
 28 27  1  0
 28 29  1  0
 29 30  2  0
  1 31  1  0
  3 32  1  0
  8 33  1  0
 12 34  1  0
 16 35  1  0
 17 36  1  0
 18 37  1  0
 20 38  1  0
 21 39  1  0
 22 40  1  0
 23 41  1  0
 25 42  1  0
 25 43  1  0
 29 44  1  0
M  ISO  8  31  14  32  14  33  14  34   9  35  14  36  14  37  14  38  14
M  ISO  6  39  14  40  14  41  14  42   8  43   8  44  14
M  END
>  <minimizedAffinity>  (1) 
-5.8147974

>  <minimizedRMSD>  (1) 
0.693977118

$$$$
