
     RDKit          3D

 46 50  0  0  0  0  0  0  0  0999 V2000
   41.1960   22.6070   34.3470 C   0  0  0  0  0  0  0  0  0  0  0  0
   41.1040   23.7490   35.1620 C   0  0  0  0  0  0  0  0  0  0  0  0
   39.8320   24.2160   35.4730 C   0  0  0  0  0  0  0  0  0  0  0  0
   38.7610   23.5640   34.9910 N   0  0  0  0  0  0  0  0  0  0  0  0
   38.8520   22.4780   34.2160 C   0  0  0  0  0  0  0  0  0  0  0  0
   40.0620   22.0000   33.8950 N   0  0  0  0  0  0  0  0  0  0  0  0
   37.7420   21.7830   33.6990 N   0  0  0  0  0  0  0  0  0  0  0  0
   37.5820   21.5040   32.3640 C   0  0  0  0  0  0  0  0  0  0  0  0
   36.4610   20.8210   31.9630 C   0  0  0  0  0  0  0  0  0  0  0  0
   35.5400   20.4400   32.9210 C   0  0  0  0  0  0  0  0  0  0  0  0
   34.4990   19.8120   32.5940 O   0  0  0  0  0  0  0  0  0  0  0  0
   35.6680   20.6960   34.2220 N   0  0  0  0  0  0  0  0  0  0  0  0
   36.7970   21.3760   34.5680 C   0  0  0  0  0  0  0  0  0  0  0  0
   36.9540   21.6360   35.7910 O   0  0  0  0  0  0  0  0  0  0  0  0
   42.4120   24.2350   35.5290 C   0  0  0  0  0  0  0  0  0  0  0  0
   43.0750   23.5460   36.5440 C   0  0  0  0  0  0  0  0  0  0  0  0
   44.3230   23.8980   36.9890 C   0  0  0  0  0  0  0  0  0  0  0  0
   44.9920   24.9590   36.4520 C   0  0  0  0  0  0  0  0  0  0  0  0
   44.3630   25.6510   35.4550 C   0  0  0  0  0  0  0  0  0  0  0  0
   44.9550   26.7460   34.8410 C   0  0  0  0  0  0  0  0  0  0  0  0
   44.3350   27.4660   33.8230 C   0  0  0  0  0  0  0  0  0  0  0  0
   43.0800   27.0740   33.4090 C   0  0  0  0  0  0  0  0  0  0  0  0
   42.4690   25.9980   33.9960 C   0  0  0  0  0  0  0  0  0  0  0  0
   43.1060   25.3110   34.9940 C   0  0  0  0  0  0  0  0  0  0  0  0
   36.2210   20.4860   30.5760 C   0  0  0  0  0  0  0  0  0  0  0  0
   37.1700   19.4650   29.9990 C   0  0  0  0  0  0  0  0  0  0  0  0
   36.6810   18.7890   28.7290 C   0  0  0  0  0  0  0  0  0  0  0  0
   36.8790   18.0200   29.9950 C   0  0  0  0  0  0  0  0  0  0  0  0
   42.1823   22.2035   34.0742 H   0  0  0  0  0  0  0  0  0  0  0  0
   39.7043   25.1072   36.1051 H   0  0  0  0  0  0  0  0  0  0  0  0
   38.3375   21.8217   31.6303 H   0  0  0  0  0  0  0  0  0  0  0  0
   34.9654   20.4016   34.9153 H   0  0  0  0  0  0  0  0  0  0  0  0
   42.5751   22.6828   37.0076 H   0  0  0  0  0  0  0  0  0  0  0  0
   44.7937   23.3143   37.7938 H   0  0  0  0  0  0  0  0  0  0  0  0
   45.9935   25.2450   36.8058 H   0  0  0  0  0  0  0  0  0  0  0  0
   45.9563   27.0583   35.1726 H   0  0  0  0  0  0  0  0  0  0  0  0
   44.8358   28.3287   33.3594 H   0  0  0  0  0  0  0  0  0  0  0  0
   42.5688   27.6259   32.6065 H   0  0  0  0  0  0  0  0  0  0  0  0
   41.4672   25.6861   33.6657 H   0  0  0  0  0  0  0  0  0  0  0  0
   35.1986   20.0891   30.4917 H   0  0  0  0  0  0  0  0  0  0  0  0
   36.3756   21.4118   30.0024 H   0  0  0  0  0  0  0  0  0  0  0  0
   38.0444   20.0349   30.3463 H   0  0  0  0  0  0  0  0  0  0  0  0
   37.3652   18.6439   27.8800 H   0  0  0  0  0  0  0  0  0  0  0  0
   35.8499   18.9447   28.0254 H   0  0  0  0  0  0  0  0  0  0  0  0
   36.0054   17.6379   30.5435 H   0  0  0  0  0  0  0  0  0  0  0  0
   37.4508   17.1202   30.2661 H   0  0  0  0  0  0  0  0  0  0  0  0
  1  2  2  0
  2  3  1  0
  2 15  1  0
  4  3  2  0
  5  4  1  0
  6  5  2  0
  6  1  1  0
  7  5  1  0
  7 13  1  0
  8  7  1  0
  9  8  2  0
  9 10  1  0
 10 12  1  0
 11 10  2  0
 12 13  1  0
 13 14  2  0
 15 16  2  0
 16 17  1  0
 18 17  2  0
 19 18  1  0
 20 19  2  0
 21 20  1  0
 22 21  2  0
 22 23  1  0
 23 24  2  0
 24 19  1  0
 24 15  1  0
 25  9  1  0
 26 25  1  0
 27 28  1  0
 27 26  1  0
 28 26  1  0
  1 29  1  0
  3 30  1  0
  8 31  1  0
 12 32  1  0
 16 33  1  0
 17 34  1  0
 18 35  1  0
 20 36  1  0
 21 37  1  0
 22 38  1  0
 23 39  1  0
 25 40  1  0
 25 41  1  0
 26 42  1  0
 27 43  1  0
 27 44  1  0
 28 45  1  0
 28 46  1  0
M  ISO  8  29  14  30  14  31  14  32   9  33  14  34  14  35  14  36  14
M  ISO  8  37  14  38  14  39  14  40   8  41   8  42  13  43  13  44  13
M  ISO  2  45  13  46  13
M  END
>  <minimizedAffinity>  (1) 
-5.81695509

>  <minimizedRMSD>  (1) 
0.835390329

$$$$
