
     RDKit          3D

 40 43  0  0  1  0  0  0  0  0999 V2000
   38.8990   23.6910   35.2460 C   0  0  1  0  0  0  0  0  0  0  0  0
   38.2730   24.8300   35.9560 C   0  0  0  0  0  0  0  0  0  0  0  0
   37.5270   24.1530   37.0910 C   0  0  0  0  0  0  0  0  0  0  0  0
   38.4890   23.1320   37.5540 C   0  0  0  0  0  0  0  0  0  0  0  0
   39.2830   22.7360   36.3480 C   0  0  2  0  0  0  0  0  0  0  0  0
   40.7790   22.8930   36.5940 C   0  0  0  0  0  0  0  0  0  0  0  0
   41.5930   21.7570   35.9810 C   0  0  0  0  0  0  0  0  0  0  0  0
   41.5370   21.9790   37.4600 C   0  0  0  0  0  0  0  0  0  0  0  0
   37.6430   23.6410   33.1140 C   0  0  0  0  0  0  0  0  0  0  0  0
   36.8140   22.7870   32.4090 C   0  0  0  0  0  0  0  0  0  0  0  0
   36.7170   21.6690   33.1950 N   0  0  0  0  0  0  0  0  0  0  0  0
   37.4630   21.8990   34.2910 C   0  0  0  0  0  0  0  0  0  0  0  0
   38.0460   23.0980   34.2750 N   0  0  0  0  0  0  0  0  0  0  0  0
   38.0450   24.9700   32.6770 C   0  0  0  0  0  0  0  0  0  0  0  0
   39.3040   25.1690   32.0970 C   0  0  0  0  0  0  0  0  0  0  0  0
   39.6160   26.4990   31.7090 C   0  0  0  0  0  0  0  0  0  0  0  0
   38.7030   27.4740   31.9190 N   0  0  0  0  0  0  0  0  0  0  0  0
   37.5210   27.2380   32.4730 C   0  0  0  0  0  0  0  0  0  0  0  0
   37.1730   25.9920   32.8590 N   0  0  0  0  0  0  0  0  0  0  0  0
   36.5500   28.3580   32.6780 C   0  0  0  0  0  0  0  0  0  0  0  0
   39.7671   24.0089   34.6498 H   0  0  0  0  0  0  0  0  0  0  0  0
   39.0351   25.5233   36.3413 H   0  0  0  0  0  0  0  0  0  0  0  0
   37.6228   25.4395   35.3112 H   0  0  0  0  0  0  0  0  0  0  0  0
   37.2923   24.8684   37.8929 H   0  0  0  0  0  0  0  0  0  0  0  0
   36.5587   23.7307   36.7842 H   0  0  0  0  0  0  0  0  0  0  0  0
   39.1504   23.5523   38.3259 H   0  0  0  0  0  0  0  0  0  0  0  0
   37.9755   22.2675   37.9999 H   0  0  0  0  0  0  0  0  0  0  0  0
   39.0765   21.6844   36.0999 H   0  0  0  0  0  0  0  0  0  0  0  0
   40.7284   23.9917   36.5744 H   0  0  0  0  0  0  0  0  0  0  0  0
   41.0858   20.8913   35.5301 H   0  0  0  0  0  0  0  0  0  0  0  0
   42.3884   21.6755   35.2256 H   0  0  0  0  0  0  0  0  0  0  0  0
   42.4288   22.3450   37.9899 H   0  0  0  0  0  0  0  0  0  0  0  0
   41.2759   21.3457   38.3207 H   0  0  0  0  0  0  0  0  0  0  0  0
   36.3381   22.9659   31.4335 H   0  0  0  0  0  0  0  0  0  0  0  0
   37.5793   21.1758   35.1117 H   0  0  0  0  0  0  0  0  0  0  0  0
   40.0125   24.3405   31.9500 H   0  0  0  0  0  0  0  0  0  0  0  0
   40.5855   26.7324   31.2448 H   0  0  0  0  0  0  0  0  0  0  0  0
   36.4051   28.5251   33.7555 H   0  0  0  0  0  0  0  0  0  0  0  0
   36.9442   29.2744   32.2146 H   0  0  0  0  0  0  0  0  0  0  0  0
   35.5869   28.0978   32.2146 H   0  0  0  0  0  0  0  0  0  0  0  0
  1  2  1  0
  1  5  1  0
  2  3  1  0
  3  4  1  0
  5  6  1  0
  5  4  1  0
  6  8  1  0
  7  6  1  0
  7  8  1  0
  9 13  1  0
 10  9  2  0
 10 11  1  0
 11 12  2  0
 13 12  1  0
 13  1  1  0
 14 19  1  0
 14  9  1  0
 15 14  2  0
 16 17  2  0
 16 15  1  0
 17 18  1  0
 18 20  1  0
 18 19  2  0
  1 21  1  6
  2 22  1  0
  2 23  1  0
  3 24  1  0
  3 25  1  0
  4 26  1  0
  4 27  1  0
  5 28  1  6
  6 29  1  0
  7 30  1  0
  7 31  1  0
  8 32  1  0
  8 33  1  0
 10 34  1  0
 12 35  1  0
 15 36  1  0
 16 37  1  0
 20 38  1  0
 20 39  1  0
 20 40  1  0
M  ISO  8  21  13  22  13  23  13  24  13  25  13  26  13  27  13  28  13
M  ISO  8  29  13  30  13  31  13  32  13  33  13  34  14  35  14  36  14
M  ISO  4  37  14  38   8  39   8  40   8
M  END
>  <minimizedAffinity>  (1) 
-4.6969285

>  <minimizedRMSD>  (1) 
0.292614043

$$$$
