
     RDKit          3D

 41 44  0  0  0  0  0  0  0  0999 V2000
   41.9340   22.8440   34.8720 C   0  0  0  0  0  0  0  0  0  0  0  0
   41.8460   24.1870   35.2880 C   0  0  0  0  0  0  0  0  0  0  0  0
   40.5910   24.7840   35.2800 C   0  0  0  0  0  0  0  0  0  0  0  0
   39.5330   24.0660   34.8830 N   0  0  0  0  0  0  0  0  0  0  0  0
   39.6310   22.7760   34.4850 C   0  0  0  0  0  0  0  0  0  0  0  0
   40.8320   22.1620   34.4780 N   0  0  0  0  0  0  0  0  0  0  0  0
   38.5260   21.9940   34.0660 N   0  0  0  0  0  0  0  0  0  0  0  0
   38.4850   21.3330   32.8690 C   0  0  0  0  0  0  0  0  0  0  0  0
   37.3570   20.6030   32.5650 C   0  0  0  0  0  0  0  0  0  0  0  0
   36.3210   20.5690   33.4750 C   0  0  0  0  0  0  0  0  0  0  0  0
   35.2850   19.9010   33.2020 O   0  0  0  0  0  0  0  0  0  0  0  0
   36.3340   21.2000   34.6410 N   0  0  0  0  0  0  0  0  0  0  0  0
   37.4720   21.9100   34.9000 C   0  0  0  0  0  0  0  0  0  0  0  0
   37.5150   22.5200   36.0000 O   0  0  0  0  0  0  0  0  0  0  0  0
   43.1460   24.7110   35.6610 C   0  0  0  0  0  0  0  0  0  0  0  0
   43.7480   24.1370   36.7890 C   0  0  0  0  0  0  0  0  0  0  0  0
   44.9830   24.5240   37.2550 C   0  0  0  0  0  0  0  0  0  0  0  0
   45.6890   25.5130   36.6090 C   0  0  0  0  0  0  0  0  0  0  0  0
   45.1120   26.0840   35.5040 C   0  0  0  0  0  0  0  0  0  0  0  0
   45.7490   27.0900   34.7910 C   0  0  0  0  0  0  0  0  0  0  0  0
   45.1830   27.6850   33.6680 C   0  0  0  0  0  0  0  0  0  0  0  0
   43.9460   27.2560   33.2550 C   0  0  0  0  0  0  0  0  0  0  0  0
   43.2960   26.2690   33.9330 C   0  0  0  0  0  0  0  0  0  0  0  0
   43.8790   25.6960   35.0410 C   0  0  0  0  0  0  0  0  0  0  0  0
   37.2560   19.8970   31.2930 C   0  0  0  0  0  0  0  0  0  0  0  0
   36.1550   20.5050   30.5530 N   0  0  0  0  0  0  0  0  0  0  0  0
   42.9125   22.3415   34.8670 H   0  0  0  0  0  0  0  0  0  0  0  0
   40.4688   25.8308   35.5951 H   0  0  0  0  0  0  0  0  0  0  0  0
   39.3308   21.3831   32.1675 H   0  0  0  0  0  0  0  0  0  0  0  0
   35.5452   21.1580   35.3020 H   0  0  0  0  0  0  0  0  0  0  0  0
   43.2092   23.3420   37.3253 H   0  0  0  0  0  0  0  0  0  0  0  0
   45.4079   24.0411   38.1474 H   0  0  0  0  0  0  0  0  0  0  0  0
   46.6790   25.8334   36.9657 H   0  0  0  0  0  0  0  0  0  0  0  0
   46.7398   27.4301   35.1268 H   0  0  0  0  0  0  0  0  0  0  0  0
   45.7139   28.4801   33.1240 H   0  0  0  0  0  0  0  0  0  0  0  0
   43.4766   27.7121   32.3709 H   0  0  0  0  0  0  0  0  0  0  0  0
   42.3056   25.9299   33.5952 H   0  0  0  0  0  0  0  0  0  0  0  0
   38.1939   20.0011   30.7278 H   0  0  0  0  0  0  0  0  0  0  0  0
   37.0755   18.8238   31.4533 H   0  0  0  0  0  0  0  0  0  0  0  0
   35.4649   20.8861   31.2159 H   0  0  0  0  0  0  0  0  0  0  0  0
   36.5180   21.2652   29.9604 H   0  0  0  0  0  0  0  0  0  0  0  0
  1  2  2  0
  2 15  1  0
  3  2  1  0
  4  3  2  0
  5  4  1  0
  6  5  2  0
  6  1  1  0
  7  5  1  0
  7 13  1  0
  8  7  1  0
  9  8  2  0
  9 10  1  0
 10 12  1  0
 11 10  2  0
 12 13  1  0
 13 14  2  0
 15 16  2  0
 16 17  1  0
 18 17  2  0
 19 18  1  0
 20 19  2  0
 21 20  1  0
 22 21  2  0
 22 23  1  0
 23 24  2  0
 24 19  1  0
 24 15  1  0
 25  9  1  0
 26 25  1  0
  1 27  1  0
  3 28  1  0
  8 29  1  0
 12 30  1  0
 16 31  1  0
 17 32  1  0
 18 33  1  0
 20 34  1  0
 21 35  1  0
 22 36  1  0
 23 37  1  0
 25 38  1  0
 25 39  1  0
 26 40  1  0
 26 41  1  0
M  ISO  8  27  14  28  14  29  14  30   9  31  14  32  14  33  14  34  14
M  ISO  7  35  14  36  14  37  14  38   8  39   8  40   5  41   5
M  END
>  <minimizedAffinity>  (1) 
-5.29398537

>  <minimizedRMSD>  (1) 
1.33870685

$$$$
