
     RDKit          3D

 19 19  0  0  0  0  0  0  0  0999 V2000
   38.6200   23.0610   36.1370 C   0  0  0  0  0  0  0  0  0  0  0  0
   39.7750   22.6770   36.8070 C   0  0  0  0  0  0  0  0  0  0  0  0
   39.7920   22.9530   38.1900 C   0  0  0  0  0  0  0  0  0  0  0  0
   38.7310   23.5520   38.7880 N   0  0  0  0  0  0  0  0  0  0  0  0
   37.6330   23.9000   38.0650 C   0  0  0  0  0  0  0  0  0  0  0  0
   37.6020   23.6480   36.7610 N   0  0  0  0  0  0  0  0  0  0  0  0
   40.8610   22.0670   36.1260 N   0  0  0  0  0  0  0  0  0  0  0  0
   41.9970   21.5030   36.7660 C   0  0  0  0  0  0  0  0  0  0  0  0
   41.7750   20.6930   37.7190 N   0  0  0  0  0  0  0  0  0  0  0  0
   43.2990   21.8500   36.3200 N   0  0  0  0  0  0  0  0  0  0  0  0
   40.8920   20.3750   38.1060 H   0  0  0  0  0  0  0  0  0  0  0  0
   38.6020   22.7860   34.7220 C   0  0  0  0  0  0  0  0  0  0  0  0
   38.4950   21.6900   34.1550 O   0  0  0  0  0  0  0  0  0  0  0  0
   40.6731   22.6803   38.7894 H   0  0  0  0  0  0  0  0  0  0  0  0
   36.7772   24.3863   38.5561 H   0  0  0  0  0  0  0  0  0  0  0  0
   40.8227   22.0308   35.0973 H   0  0  0  0  0  0  0  0  0  0  0  0
   44.1262   21.4442   36.7803 H   0  0  0  0  0  0  0  0  0  0  0  0
   43.4166   22.5077   35.5361 H   0  0  0  0  0  0  0  0  0  0  0  0
   38.6951   23.6609   34.0618 H   0  0  0  0  0  0  0  0  0  0  0  0
  1  6  2  0
  1  2  1  0
  2  3  2  0
  3  4  1  0
  5  4  2  0
  6  5  1  0
  7  8  1  0
  7  2  1  0
  8  9  2  0
  9 11  1  0
 10  8  1  0
 12  1  1  0
 13 12  2  0
  3 14  1  0
  5 15  1  0
  7 16  1  0
 10 17  1  0
 10 18  1  0
 12 19  1  0
M  ISO  3  14  14  15  14  19   6
M  END
>  <minimizedAffinity>  (1) 
-3.44655228

>  <minimizedRMSD>  (1) 
3.54918885

$$$$
