
     RDKit          3D

 17 18  0  0  0  0  0  0  0  0999 V2000
   37.9980   22.9680   35.3760 C   0  0  0  0  0  0  0  0  0  0  0  0
   38.0870   24.0510   34.5050 C   0  0  0  0  0  0  0  0  0  0  0  0
   37.7800   23.8620   33.1600 C   0  0  0  0  0  0  0  0  0  0  0  0
   37.4060   22.6170   32.7650 N   0  0  0  0  0  0  0  0  0  0  0  0
   37.3320   21.5930   33.6400 C   0  0  0  0  0  0  0  0  0  0  0  0
   37.6210   21.7510   34.9270 N   0  0  0  0  0  0  0  0  0  0  0  0
   38.4870   25.3560   34.9620 C   0  0  0  0  0  0  0  0  0  0  0  0
   39.7550   25.8230   34.9650 N   0  0  0  0  0  0  0  0  0  0  0  0
   39.7500   27.0320   35.4430 O   0  0  0  0  0  0  0  0  0  0  0  0
   38.5030   27.3660   35.7540 C   0  0  0  0  0  0  0  0  0  0  0  0
   37.7170   26.3150   35.4510 N   0  0  0  0  0  0  0  0  0  0  0  0
   38.3320   23.2430   36.7550 C   0  0  0  0  0  0  0  0  0  0  0  0
   37.4890   23.3460   37.6880 O   0  0  0  0  0  0  0  0  0  0  0  0
   37.8383   24.6928   32.4414 H   0  0  0  0  0  0  0  0  0  0  0  0
   37.0242   20.6008   33.2783 H   0  0  0  0  0  0  0  0  0  0  0  0
   38.1727   28.3246   36.1806 H   0  0  0  0  0  0  0  0  0  0  0  0
   39.3946   23.3714   37.0086 H   0  0  0  0  0  0  0  0  0  0  0  0
  1 12  1  0
  2  7  1  0
  2  1  2  0
  3  2  1  0
  4  3  2  0
  4  5  1  0
  5  6  2  0
  6  1  1  0
  7  8  2  0
  7 11  1  0
  8  9  1  0
  9 10  1  0
 11 10  2  0
 12 13  2  0
  3 14  1  0
  5 15  1  0
 10 16  1  0
 12 17  1  0
M  ISO  4  14  14  15  14  16  14  17   6
M  END
>  <minimizedAffinity>  (1) 
-3.33803654

>  <minimizedRMSD>  (1) 
4.74897623

$$$$
