
     RDKit          3D

 24 25  0  0  0  0  0  0  0  0999 V2000
   37.5180   23.6790   33.0450 C   0  0  0  0  0  0  0  0  0  0  0  0
   36.9950   24.6930   32.2190 C   0  0  0  0  0  0  0  0  0  0  0  0
   35.9950   24.3460   31.2990 C   0  0  0  0  0  0  0  0  0  0  0  0
   35.5750   23.0500   31.2460 N   0  0  0  0  0  0  0  0  0  0  0  0
   36.1180   22.1080   32.0720 C   0  0  0  0  0  0  0  0  0  0  0  0
   37.0670   22.4210   32.9500 N   0  0  0  0  0  0  0  0  0  0  0  0
   37.4210   26.0560   32.2590 N   0  0  0  0  0  0  0  0  0  0  0  0
   36.8070   27.0700   33.1130 C   0  0  0  0  0  0  0  0  0  0  0  0
   36.6610   28.2430   32.1670 C   0  0  0  0  0  0  0  0  0  0  0  0
   37.8710   28.1220   31.2600 C   0  0  0  0  0  0  0  0  0  0  0  0
   38.4710   26.7710   31.5470 C   0  0  0  0  0  0  0  0  0  0  0  0
   38.5330   24.1440   33.9460 C   0  0  0  0  0  0  0  0  0  0  0  0
   38.4000   24.3540   35.1630 O   0  0  0  0  0  0  0  0  0  0  0  0
   35.5580   25.1047   30.6331 H   0  0  0  0  0  0  0  0  0  0  0  0
   35.7633   21.0686   32.0101 H   0  0  0  0  0  0  0  0  0  0  0  0
   35.8281   26.7359   33.4874 H   0  0  0  0  0  0  0  0  0  0  0  0
   37.3940   27.3012   34.0141 H   0  0  0  0  0  0  0  0  0  0  0  0
   35.7279   28.1679   31.5893 H   0  0  0  0  0  0  0  0  0  0  0  0
   36.6130   29.2100   32.6891 H   0  0  0  0  0  0  0  0  0  0  0  0
   38.5969   28.9178   31.4829 H   0  0  0  0  0  0  0  0  0  0  0  0
   37.5923   28.2224   30.2006 H   0  0  0  0  0  0  0  0  0  0  0  0
   38.7303   26.2530   30.6119 H   0  0  0  0  0  0  0  0  0  0  0  0
   39.4023   26.8392   32.1284 H   0  0  0  0  0  0  0  0  0  0  0  0
   39.5278   24.3334   33.5164 H   0  0  0  0  0  0  0  0  0  0  0  0
  1 12  1  0
  2  7  1  0
  2  1  2  0
  3  2  1  0
  4  3  2  0
  4  5  1  0
  5  6  2  0
  6  1  1  0
  7  8  1  0
  9  8  1  0
 10 11  1  0
 10  9  1  0
 11  7  1  0
 12 13  2  0
  3 14  1  0
  5 15  1  0
  8 16  1  0
  8 17  1  0
  9 18  1  0
  9 19  1  0
 10 20  1  0
 10 21  1  0
 11 22  1  0
 11 23  1  0
 12 24  1  0
M  ISO  8  14  14  15  14  16  13  17  13  18  13  19  13  20  13  21  13
M  ISO  3  22  13  23  13  24   6
M  END
>  <minimizedAffinity>  (1) 
-3.02086186

>  <minimizedRMSD>  (1) 
7.26164818

$$$$
