
     RDKit          3D

 19 20  0  0  0  0  0  0  0  0999 V2000
   37.6990   25.3810   33.9680 C   0  0  0  0  0  0  0  0  0  0  0  0
   38.3540   25.2620   35.2010 C   0  0  0  0  0  0  0  0  0  0  0  0
   38.3780   26.3860   36.0170 C   0  0  0  0  0  0  0  0  0  0  0  0
   37.7760   27.5430   35.6000 N   0  0  0  0  0  0  0  0  0  0  0  0
   37.1580   27.6110   34.4060 C   0  0  0  0  0  0  0  0  0  0  0  0
   37.1250   26.5470   33.6120 N   0  0  0  0  0  0  0  0  0  0  0  0
   38.9910   24.0790   35.6710 N   0  0  0  0  0  0  0  0  0  0  0  0
   40.3450   24.0360   35.5050 C   0  0  0  0  0  0  0  0  0  0  0  0
   40.8000   22.8400   36.0060 C   0  0  0  0  0  0  0  0  0  0  0  0
   39.7280   22.1730   36.4690 N   0  0  0  0  0  0  0  0  0  0  0  0
   38.6400   22.9400   36.2570 C   0  0  0  0  0  0  0  0  0  0  0  0
   37.7020   24.1880   33.1570 C   0  0  0  0  0  0  0  0  0  0  0  0
   36.8460   23.9270   32.2680 O   0  0  0  0  0  0  0  0  0  0  0  0
   38.8792   26.3467   36.9954 H   0  0  0  0  0  0  0  0  0  0  0  0
   36.6798   28.5490   34.0876 H   0  0  0  0  0  0  0  0  0  0  0  0
   40.9646   24.8223   35.0492 H   0  0  0  0  0  0  0  0  0  0  0  0
   41.8439   22.4937   36.0248 H   0  0  0  0  0  0  0  0  0  0  0  0
   37.6110   22.6628   36.5297 H   0  0  0  0  0  0  0  0  0  0  0  0
   38.5056   23.4559   33.3253 H   0  0  0  0  0  0  0  0  0  0  0  0
  1  2  2  0
  2  7  1  0
  2  3  1  0
  4  3  2  0
  5  4  1  0
  6  1  1  0
  6  5  2  0
  7 11  1  0
  8  7  1  0
  8  9  2  0
  9 10  1  0
 11 10  2  0
 12  1  1  0
 13 12  2  0
  3 14  1  0
  5 15  1  0
  8 16  1  0
  9 17  1  0
 11 18  1  0
 12 19  1  0
M  ISO  6  14  14  15  14  16  14  17  14  18  14  19   6
M  END
>  <minimizedAffinity>  (1) 
-3.14939427

>  <minimizedRMSD>  (1) 
5.18315887

$$$$
