
     RDKit          3D

 39 42  0  0  1  0  0  0  0  0999 V2000
   38.9960   23.6210   35.4660 C   0  0  1  0  0  0  0  0  0  0  0  0
   38.4130   24.8040   36.1380 C   0  0  0  0  0  0  0  0  0  0  0  0
   37.6210   24.1960   37.2800 C   0  0  0  0  0  0  0  0  0  0  0  0
   38.5320   23.1370   37.7840 C   0  0  0  0  0  0  0  0  0  0  0  0
   39.3250   22.6810   36.6000 C   0  0  2  0  0  0  0  0  0  0  0  0
   40.8210   22.7780   36.8620 C   0  0  0  0  0  0  0  0  0  0  0  0
   41.6210   21.7320   36.0910 C   0  0  0  0  0  0  0  0  0  0  0  0
   41.5650   21.7410   37.5870 C   0  0  0  0  0  0  0  0  0  0  0  0
   37.7590   23.5690   33.3220 C   0  0  0  0  0  0  0  0  0  0  0  0
   36.9060   22.7320   32.6260 C   0  0  0  0  0  0  0  0  0  0  0  0
   36.7570   21.6380   33.4370 N   0  0  0  0  0  0  0  0  0  0  0  0
   37.5000   21.8620   34.5350 C   0  0  0  0  0  0  0  0  0  0  0  0
   38.1300   23.0380   34.5020 N   0  0  0  0  0  0  0  0  0  0  0  0
   38.2170   24.8740   32.8560 C   0  0  0  0  0  0  0  0  0  0  0  0
   39.5140   25.0110   32.3390 C   0  0  0  0  0  0  0  0  0  0  0  0
   39.8930   26.3160   31.9230 C   0  0  0  0  0  0  0  0  0  0  0  0
   39.0030   27.3300   32.0470 N   0  0  0  0  0  0  0  0  0  0  0  0
   37.7820   27.1390   32.5470 C   0  0  0  0  0  0  0  0  0  0  0  0
   37.3600   25.9240   32.9590 N   0  0  0  0  0  0  0  0  0  0  0  0
   36.8670   28.2380   32.6630 N   0  0  0  0  0  0  0  0  0  0  0  0
   39.8827   23.8851   34.8710 H   0  0  0  0  0  0  0  0  0  0  0  0
   39.2012   25.4718   36.5158 H   0  0  0  0  0  0  0  0  0  0  0  0
   37.7988   25.4230   35.4675 H   0  0  0  0  0  0  0  0  0  0  0  0
   37.4123   24.9434   38.0597 H   0  0  0  0  0  0  0  0  0  0  0  0
   36.6364   23.8138   36.9726 H   0  0  0  0  0  0  0  0  0  0  0  0
   39.1995   23.5431   38.5583 H   0  0  0  0  0  0  0  0  0  0  0  0
   37.9730   22.3066   38.2399 H   0  0  0  0  0  0  0  0  0  0  0  0
   39.0766   21.6331   36.3758 H   0  0  0  0  0  0  0  0  0  0  0  0
   40.7849   23.8688   36.9995 H   0  0  0  0  0  0  0  0  0  0  0  0
   41.1035   20.9465   35.5207 H   0  0  0  0  0  0  0  0  0  0  0  0
   42.4163   21.7494   35.3312 H   0  0  0  0  0  0  0  0  0  0  0  0
   42.4604   22.0159   38.1638 H   0  0  0  0  0  0  0  0  0  0  0  0
   41.2943   20.9944   38.3481 H   0  0  0  0  0  0  0  0  0  0  0  0
   36.4490   22.9059   31.6407 H   0  0  0  0  0  0  0  0  0  0  0  0
   37.5800   21.1518   35.3712 H   0  0  0  0  0  0  0  0  0  0  0  0
   40.2002   24.1549   32.2599 H   0  0  0  0  0  0  0  0  0  0  0  0
   40.8943   26.5001   31.5064 H   0  0  0  0  0  0  0  0  0  0  0  0
   35.9248   28.0850   33.0500 H   0  0  0  0  0  0  0  0  0  0  0  0
   37.1523   29.1799   32.3593 H   0  0  0  0  0  0  0  0  0  0  0  0
  1  2  1  0
  1  5  1  0
  2  3  1  0
  3  4  1  0
  5  6  1  0
  5  4  1  0
  6  8  1  0
  7  6  1  0
  7  8  1  0
  9 13  1  0
 10  9  2  0
 10 11  1  0
 11 12  2  0
 13 12  1  0
 13  1  1  0
 14 19  1  0
 14  9  1  0
 15 14  2  0
 16 17  2  0
 16 15  1  0
 17 18  1  0
 18 20  1  0
 18 19  2  0
  1 21  1  6
  2 22  1  0
  2 23  1  0
  3 24  1  0
  3 25  1  0
  4 26  1  0
  4 27  1  0
  5 28  1  6
  6 29  1  0
  7 30  1  0
  7 31  1  0
  8 32  1  0
  8 33  1  0
 10 34  1  0
 12 35  1  0
 15 36  1  0
 16 37  1  0
 20 38  1  0
 20 39  1  0
M  ISO  8  21  13  22  13  23  13  24  13  25  13  26  13  27  13  28  13
M  ISO  8  29  13  30  13  31  13  32  13  33  13  34  14  35  14  36  14
M  ISO  1  37  14
M  END
>  <minimizedAffinity>  (1) 
-4.69361258

>  <minimizedRMSD>  (1) 
0.102123991

$$$$
