
     RDKit          3D

 38 41  0  0  1  0  0  0  0  0999 V2000
   38.8960   23.7020   35.2540 C   0  0  1  0  0  0  0  0  0  0  0  0
   38.2720   24.8310   35.9740 C   0  0  0  0  0  0  0  0  0  0  0  0
   37.5210   24.1480   37.1030 C   0  0  0  0  0  0  0  0  0  0  0  0
   38.4920   23.1280   37.5580 C   0  0  0  0  0  0  0  0  0  0  0  0
   39.2870   22.7430   36.3530 C   0  0  2  0  0  0  0  0  0  0  0  0
   40.7790   22.9010   36.5950 C   0  0  0  0  0  0  0  0  0  0  0  0
   41.6020   21.7710   35.9800 C   0  0  0  0  0  0  0  0  0  0  0  0
   41.5350   21.9810   37.4600 C   0  0  0  0  0  0  0  0  0  0  0  0
   37.5970   23.6820   33.1470 C   0  0  0  0  0  0  0  0  0  0  0  0
   36.7850   22.8170   32.4270 C   0  0  0  0  0  0  0  0  0  0  0  0
   36.7490   21.6750   33.1740 N   0  0  0  0  0  0  0  0  0  0  0  0
   37.5090   21.8930   34.2630 C   0  0  0  0  0  0  0  0  0  0  0  0
   38.0440   23.1140   34.2780 N   0  0  0  0  0  0  0  0  0  0  0  0
   37.9390   25.0390   32.7500 C   0  0  0  0  0  0  0  0  0  0  0  0
   39.1890   25.3080   32.1780 C   0  0  0  0  0  0  0  0  0  0  0  0
   39.4460   26.6600   31.8270 C   0  0  0  0  0  0  0  0  0  0  0  0
   38.5010   27.5860   32.0550 N   0  0  0  0  0  0  0  0  0  0  0  0
   37.3190   27.2850   32.6050 C   0  0  0  0  0  0  0  0  0  0  0  0
   37.0250   26.0140   32.9560 N   0  0  0  0  0  0  0  0  0  0  0  0
   36.1870   28.6490   32.8320 S   0  0  0  0  0  0  0  0  0  0  0  0
   39.7600   24.0240   34.6542 H   0  0  0  0  0  0  0  0  0  0  0  0
   39.0353   25.5187   36.3670 H   0  0  0  0  0  0  0  0  0  0  0  0
   37.6228   25.4460   35.3334 H   0  0  0  0  0  0  0  0  0  0  0  0
   37.2821   24.8577   37.9088 H   0  0  0  0  0  0  0  0  0  0  0  0
   36.5524   23.7270   36.7955 H   0  0  0  0  0  0  0  0  0  0  0  0
   39.1515   23.5477   38.3319 H   0  0  0  0  0  0  0  0  0  0  0  0
   37.9829   22.2575   37.9974 H   0  0  0  0  0  0  0  0  0  0  0  0
   39.0857   21.6911   36.1019 H   0  0  0  0  0  0  0  0  0  0  0  0
   40.7261   23.9996   36.5757 H   0  0  0  0  0  0  0  0  0  0  0  0
   41.1009   20.9071   35.5190 H   0  0  0  0  0  0  0  0  0  0  0  0
   42.4033   21.6978   35.2300 H   0  0  0  0  0  0  0  0  0  0  0  0
   42.4219   22.3454   37.9990 H   0  0  0  0  0  0  0  0  0  0  0  0
   41.2699   21.3400   38.3137 H   0  0  0  0  0  0  0  0  0  0  0  0
   36.2822   23.0089   31.4677 H   0  0  0  0  0  0  0  0  0  0  0  0
   37.6710   21.1458   35.0539 H   0  0  0  0  0  0  0  0  0  0  0  0
   39.9319   24.5145   32.0096 H   0  0  0  0  0  0  0  0  0  0  0  0
   40.4071   26.9448   31.3741 H   0  0  0  0  0  0  0  0  0  0  0  0
   36.0025   28.8713   34.1712 H   0  0  0  0  0  0  0  0  0  0  0  0
  1  2  1  0
  1  5  1  0
  2  3  1  0
  3  4  1  0
  5  6  1  0
  5  4  1  0
  6  8  1  0
  7  6  1  0
  7  8  1  0
  9 13  1  0
 10  9  2  0
 10 11  1  0
 11 12  2  0
 12 13  1  0
 13  1  1  0
 14 19  1  0
 14  9  1  0
 15 14  2  0
 16 17  2  0
 16 15  1  0
 17 18  1  0
 18 20  1  0
 18 19  2  0
  1 21  1  6
  2 22  1  0
  2 23  1  0
  3 24  1  0
  3 25  1  0
  4 26  1  0
  4 27  1  0
  5 28  1  6
  6 29  1  0
  7 30  1  0
  7 31  1  0
  8 32  1  0
  8 33  1  0
 10 34  1  0
 12 35  1  0
 15 36  1  0
 16 37  1  0
 20 38  1  0
M  ISO  8  21  13  22  13  23  13  24  13  25  13  26  13  27  13  28  13
M  ISO  8  29  13  30  13  31  13  32  13  33  13  34  14  35  14  36  14
M  ISO  2  37  14  38  11
M  END
>  <minimizedAffinity>  (1) 
-4.64239931

>  <minimizedRMSD>  (1) 
0.375387698

$$$$
