
     RDKit          3D

 34 35  0  0  1  0  0  0  0  0999 V2000
   38.3130   25.8490   35.2280 C   0  0  1  0  0  0  0  0  0  0  0  0
   38.9530   23.7330   36.4940 C   0  0  0  0  0  0  0  0  0  0  0  0
   39.2710   24.7840   35.6160 C   0  0  0  0  0  0  0  0  0  0  0  0
   40.5650   24.8410   35.0730 C   0  0  0  0  0  0  0  0  0  0  0  0
   41.4580   23.8570   35.4330 N   0  0  0  0  0  0  0  0  0  0  0  0
   41.0880   22.8720   36.2830 C   0  0  0  0  0  0  0  0  0  0  0  0
   39.8550   22.8090   36.8070 N   0  0  0  0  0  0  0  0  0  0  0  0
   37.6150   23.7660   36.9900 C   0  0  0  0  0  0  0  0  0  0  0  0
   36.8730   22.7840   37.2030 O   0  0  0  0  0  0  0  0  0  0  0  0
   38.8200   27.1240   35.8690 C   0  0  0  0  0  0  0  0  0  0  0  0
   38.1570   25.9910   33.7510 C   0  0  0  0  0  0  0  0  0  0  0  0
   37.1340   26.8560   33.2820 N   0  0  0  0  0  0  0  0  0  0  0  0
   36.8070   27.9220   34.0770 C   0  0  0  0  0  0  0  0  0  0  0  0
   35.8470   28.8290   33.7500 C   0  0  0  0  0  0  0  0  0  0  0  0
   35.5320   29.9700   34.6510 C   0  0  0  0  0  0  0  0  0  0  0  0
   35.1780   28.6580   32.5590 C   0  0  0  0  0  0  0  0  0  0  0  0
   34.2860   29.5250   32.2840 O   0  0  0  0  0  0  0  0  0  0  0  0
   35.4760   27.6210   31.7560 N   0  0  0  0  0  0  0  0  0  0  0  0
   36.4350   26.7580   32.1350 C   0  0  0  0  0  0  0  0  0  0  0  0
   36.7110   25.8030   31.4000 O   0  0  0  0  0  0  0  0  0  0  0  0
   37.3022   25.5957   35.5803 H   0  0  0  0  0  0  0  0  0  0  0  0
   40.8557   25.6461   34.3822 H   0  0  0  0  0  0  0  0  0  0  0  0
   41.8216   22.0981   36.5530 H   0  0  0  0  0  0  0  0  0  0  0  0
   37.1938   24.7587   37.2071 H   0  0  0  0  0  0  0  0  0  0  0  0
   38.7806   27.0248   36.9638 H   0  0  0  0  0  0  0  0  0  0  0  0
   39.8584   27.3048   35.5544 H   0  0  0  0  0  0  0  0  0  0  0  0
   38.1893   27.9685   35.5544 H   0  0  0  0  0  0  0  0  0  0  0  0
   39.1123   26.3635   33.3527 H   0  0  0  0  0  0  0  0  0  0  0  0
   37.8611   24.9906   33.4021 H   0  0  0  0  0  0  0  0  0  0  0  0
   37.3470   28.0513   35.0266 H   0  0  0  0  0  0  0  0  0  0  0  0
   35.6215   29.6457   35.6983 H   0  0  0  0  0  0  0  0  0  0  0  0
   36.2365   30.7930   34.4605 H   0  0  0  0  0  0  0  0  0  0  0  0
   34.5050   30.3150   34.4605 H   0  0  0  0  0  0  0  0  0  0  0  0
   34.9773   27.4899   30.8644 H   0  0  0  0  0  0  0  0  0  0  0  0
  1  3  1  0
  1 10  1  0
  2  7  2  0
  2  8  1  0
  3  2  1  0
  4  5  1  0
  4  3  2  0
  5  6  2  0
  6  7  1  0
  8  9  2  0
 11  1  1  0
 12 11  1  0
 12 13  1  0
 14 13  2  0
 14 15  1  0
 16 14  1  0
 17 16  2  0
 18 19  1  0
 18 16  1  0
 19 12  1  0
 20 19  2  0
  1 21  1  1
  4 22  1  0
  6 23  1  0
  8 24  1  0
 10 25  1  0
 10 26  1  0
 10 27  1  0
 11 28  1  0
 11 29  1  0
 13 30  1  0
 15 31  1  0
 15 32  1  0
 15 33  1  0
 18 34  1  0
M  ISO  8  21   8  22  14  23  14  24   6  25   8  26   8  27   8  28   8
M  ISO  6  29   8  30  14  31   8  32   8  33   8  34   9
M  END
>  <minimizedAffinity>  (1) 
-4.81185532

>  <minimizedRMSD>  (1) 
0.795752048

$$$$
