
     RDKit          3D

 37 39  0  0  1  0  0  0  0  0999 V2000
   38.5670   26.0670   35.6920 C   0  0  1  0  0  0  0  0  0  0  0  0
   38.8930   23.6960   36.5660 C   0  0  0  0  0  0  0  0  0  0  0  0
   39.1640   24.7070   35.6540 C   0  0  0  0  0  0  0  0  0  0  0  0
   40.0880   24.4710   34.6090 C   0  0  0  0  0  0  0  0  0  0  0  0
   40.6810   23.2310   34.5490 N   0  0  0  0  0  0  0  0  0  0  0  0
   40.3740   22.2810   35.4720 C   0  0  0  0  0  0  0  0  0  0  0  0
   39.4960   22.5110   36.4620 N   0  0  0  0  0  0  0  0  0  0  0  0
   37.9460   24.0590   37.5670 C   0  0  0  0  0  0  0  0  0  0  0  0
   37.5930   23.3670   38.5530 O   0  0  0  0  0  0  0  0  0  0  0  0
   39.5900   27.0250   35.1520 C   0  0  0  0  0  0  0  0  0  0  0  0
   37.2500   26.1450   34.9730 C   0  0  0  0  0  0  0  0  0  0  0  0
   37.2940   26.6880   33.6260 C   0  0  0  0  0  0  0  0  0  0  0  0
   37.8210   26.1480   32.4720 C   0  0  0  0  0  0  0  0  0  0  0  0
   37.7980   26.7770   31.2460 C   0  0  0  0  0  0  0  0  0  0  0  0
   37.2120   28.0230   31.1650 C   0  0  0  0  0  0  0  0  0  0  0  0
   36.6730   28.6040   32.2880 C   0  0  0  0  0  0  0  0  0  0  0  0
   36.1210   29.8350   32.0990 C   0  0  0  0  0  0  0  0  0  0  0  0
   35.5560   30.4940   33.1710 C   0  0  0  0  0  0  0  0  0  0  0  0
   35.5700   29.8770   34.4090 C   0  0  0  0  0  0  0  0  0  0  0  0
   36.1300   28.6440   34.5640 C   0  0  0  0  0  0  0  0  0  0  0  0
   36.7080   27.9520   33.5080 C   0  0  0  0  0  0  0  0  0  0  0  0
   38.3192   26.3379   36.7289 H   0  0  0  0  0  0  0  0  0  0  0  0
   40.3240   25.2514   33.8705 H   0  0  0  0  0  0  0  0  0  0  0  0
   40.8587   21.2957   35.4060 H   0  0  0  0  0  0  0  0  0  0  0  0
   37.4756   25.0481   37.4651 H   0  0  0  0  0  0  0  0  0  0  0  0
   40.1119   27.5137   35.9879 H   0  0  0  0  0  0  0  0  0  0  0  0
   40.3176   26.4759   34.5363 H   0  0  0  0  0  0  0  0  0  0  0  0
   39.0897   27.7870   34.5363 H   0  0  0  0  0  0  0  0  0  0  0  0
   36.8380   25.1269   34.9127 H   0  0  0  0  0  0  0  0  0  0  0  0
   36.6332   26.8446   35.5562 H   0  0  0  0  0  0  0  0  0  0  0  0
   38.2885   25.1542   32.5337 H   0  0  0  0  0  0  0  0  0  0  0  0
   38.2348   26.2987   30.3569 H   0  0  0  0  0  0  0  0  0  0  0  0
   37.1760   28.5520   30.2012 H   0  0  0  0  0  0  0  0  0  0  0  0
   36.1258   30.2988   31.1016 H   0  0  0  0  0  0  0  0  0  0  0  0
   35.1040   31.4888   33.0441 H   0  0  0  0  0  0  0  0  0  0  0  0
   35.1250   30.3862   35.2766 H   0  0  0  0  0  0  0  0  0  0  0  0
   36.1238   28.1805   35.5615 H   0  0  0  0  0  0  0  0  0  0  0  0
  2  8  1  0
  3  1  1  0
  3  2  2  0
  4  3  1  0
  5  4  2  0
  5  6  1  0
  6  7  2  0
  7  2  1  0
  8  9  2  0
 10  1  1  0
 11  1  1  0
 12 11  1  0
 13 12  2  0
 14 13  1  0
 15 14  2  0
 15 16  1  0
 16 21  2  0
 17 16  1  0
 17 18  2  0
 18 19  1  0
 19 20  2  0
 21 12  1  0
 21 20  1  0
  1 22  1  1
  4 23  1  0
  6 24  1  0
  8 25  1  0
 10 26  1  0
 10 27  1  0
 10 28  1  0
 11 29  1  0
 11 30  1  0
 13 31  1  0
 14 32  1  0
 15 33  1  0
 17 34  1  0
 18 35  1  0
 19 36  1  0
 20 37  1  0
M  ISO  8  22   8  23  14  24  14  25   6  26   8  27   8  28   8  29   8
M  ISO  8  30   8  31  14  32  14  33  14  34  14  35  14  36  14  37  14
M  END
>  <minimizedAffinity>  (1) 
-5.35722303

>  <minimizedRMSD>  (1) 
2.59169555

$$$$
