
     RDKit          3D

 39 42  0  0  1  0  0  0  0  0999 V2000
   38.8990   23.6980   35.2540 C   0  0  1  0  0  0  0  0  0  0  0  0
   38.2750   24.8330   35.9720 C   0  0  0  0  0  0  0  0  0  0  0  0
   37.5290   24.1520   37.1030 C   0  0  0  0  0  0  0  0  0  0  0  0
   38.4910   23.1160   37.5590 C   0  0  0  0  0  0  0  0  0  0  0  0
   39.2870   22.7350   36.3480 C   0  0  2  0  0  0  0  0  0  0  0  0
   40.7810   22.8960   36.5940 C   0  0  0  0  0  0  0  0  0  0  0  0
   41.5920   21.7570   35.9740 C   0  0  0  0  0  0  0  0  0  0  0  0
   41.5460   21.9850   37.4540 C   0  0  0  0  0  0  0  0  0  0  0  0
   37.6120   23.6700   33.1380 C   0  0  0  0  0  0  0  0  0  0  0  0
   36.7920   22.8180   32.4230 C   0  0  0  0  0  0  0  0  0  0  0  0
   36.7310   21.6810   33.1870 N   0  0  0  0  0  0  0  0  0  0  0  0
   37.4870   21.9020   34.2740 C   0  0  0  0  0  0  0  0  0  0  0  0
   38.0440   23.1120   34.2800 N   0  0  0  0  0  0  0  0  0  0  0  0
   37.9810   25.0240   32.7240 C   0  0  0  0  0  0  0  0  0  0  0  0
   39.2210   25.2440   32.1060 C   0  0  0  0  0  0  0  0  0  0  0  0
   39.5130   26.5870   31.7490 C   0  0  0  0  0  0  0  0  0  0  0  0
   38.6040   27.5530   32.0150 N   0  0  0  0  0  0  0  0  0  0  0  0
   37.4370   27.2830   32.6060 C   0  0  0  0  0  0  0  0  0  0  0  0
   37.1030   26.0260   32.9690 N   0  0  0  0  0  0  0  0  0  0  0  0
   36.4670   28.3400   32.8870 C   0  0  0  0  0  0  0  0  0  0  0  0
   36.0010   28.5630   34.0360 O   0  0  0  0  0  0  0  0  0  0  0  0
   39.7661   24.0199   34.6586 H   0  0  0  0  0  0  0  0  0  0  0  0
   39.0386   25.5228   36.3608 H   0  0  0  0  0  0  0  0  0  0  0  0
   37.6247   25.4466   35.3312 H   0  0  0  0  0  0  0  0  0  0  0  0
   37.3005   24.8628   37.9108 H   0  0  0  0  0  0  0  0  0  0  0  0
   36.5578   23.7373   36.7950 H   0  0  0  0  0  0  0  0  0  0  0  0
   39.1514   23.5235   38.3386 H   0  0  0  0  0  0  0  0  0  0  0  0
   37.9742   22.2473   37.9929 H   0  0  0  0  0  0  0  0  0  0  0  0
   39.0843   21.6848   36.0910 H   0  0  0  0  0  0  0  0  0  0  0  0
   40.7286   23.9947   36.5798 H   0  0  0  0  0  0  0  0  0  0  0  0
   41.0818   20.8898   35.5294 H   0  0  0  0  0  0  0  0  0  0  0  0
   42.3812   21.6735   35.2123 H   0  0  0  0  0  0  0  0  0  0  0  0
   42.4416   22.3530   37.9760 H   0  0  0  0  0  0  0  0  0  0  0  0
   41.2915   21.3537   38.3181 H   0  0  0  0  0  0  0  0  0  0  0  0
   36.2992   23.0089   31.4583 H   0  0  0  0  0  0  0  0  0  0  0  0
   37.6313   21.1621   35.0751 H   0  0  0  0  0  0  0  0  0  0  0  0
   39.9266   24.4233   31.9093 H   0  0  0  0  0  0  0  0  0  0  0  0
   40.4667   26.8388   31.2621 H   0  0  0  0  0  0  0  0  0  0  0  0
   36.1270   28.9722   32.0535 H   0  0  0  0  0  0  0  0  0  0  0  0
  1  2  1  0
  1  5  1  0
  2  3  1  0
  3  4  1  0
  5  6  1  0
  5  4  1  0
  6  8  1  0
  7  6  1  0
  7  8  1  0
  9 13  1  0
 10  9  2  0
 10 11  1  0
 11 12  2  0
 12 13  1  0
 13  1  1  0
 14 19  1  0
 14  9  1  0
 15 14  2  0
 16 17  2  0
 16 15  1  0
 17 18  1  0
 18 20  1  0
 18 19  2  0
 20 21  2  0
  1 22  1  6
  2 23  1  0
  2 24  1  0
  3 25  1  0
  3 26  1  0
  4 27  1  0
  4 28  1  0
  5 29  1  6
  6 30  1  0
  7 31  1  0
  7 32  1  0
  8 33  1  0
  8 34  1  0
 10 35  1  0
 12 36  1  0
 15 37  1  0
 16 38  1  0
 20 39  1  0
M  ISO  8  22  13  23  13  24  13  25  13  26  13  27  13  28  13  29  13
M  ISO  8  30  13  31  13  32  13  33  13  34  13  35  14  36  14  37  14
M  ISO  2  38  14  39   6
M  END
>  <minimizedAffinity>  (1) 
-4.63952017

>  <minimizedRMSD>  (1) 
0.395959169

$$$$
