
     RDKit          3D

 31 32  0  0  1  0  0  0  0  0999 V2000
   38.4570   25.4080   33.6330 C   0  0  1  0  0  0  0  0  0  0  0  0
   36.9020   23.9190   32.2760 C   0  0  0  0  0  0  0  0  0  0  0  0
   37.3080   25.1610   32.7310 C   0  0  0  0  0  0  0  0  0  0  0  0
   36.6120   26.3180   32.3020 C   0  0  0  0  0  0  0  0  0  0  0  0
   35.5530   26.1390   31.4420 N   0  0  0  0  0  0  0  0  0  0  0  0
   35.2070   24.9070   31.0340 C   0  0  0  0  0  0  0  0  0  0  0  0
   35.8660   23.8080   31.4400 N   0  0  0  0  0  0  0  0  0  0  0  0
   37.6760   22.8270   32.7730 C   0  0  0  0  0  0  0  0  0  0  0  0
   37.3520   22.0530   33.7040 O   0  0  0  0  0  0  0  0  0  0  0  0
   39.1050   26.6920   33.2100 C   0  0  0  0  0  0  0  0  0  0  0  0
   38.0930   25.3870   35.0910 C   0  0  0  0  0  0  0  0  0  0  0  0
   38.7270   24.3820   35.8710 N   0  0  0  0  0  0  0  0  0  0  0  0
   40.0150   24.1600   35.4610 C   0  0  0  0  0  0  0  0  0  0  0  0
   40.8450   23.2240   36.0520 C   0  0  0  0  0  0  0  0  0  0  0  0
   40.3850   22.4690   37.0990 C   0  0  0  0  0  0  0  0  0  0  0  0
   41.0540   21.6050   37.6930 O   0  0  0  0  0  0  0  0  0  0  0  0
   39.1170   22.7040   37.4860 N   0  0  0  0  0  0  0  0  0  0  0  0
   38.3260   23.6180   36.8990 C   0  0  0  0  0  0  0  0  0  0  0  0
   37.1410   23.8510   37.2480 O   0  0  0  0  0  0  0  0  0  0  0  0
   39.1745   24.5799   33.5360 H   0  0  0  0  0  0  0  0  0  0  0  0
   36.9070   27.3212   32.6434 H   0  0  0  0  0  0  0  0  0  0  0  0
   34.3568   24.7937   30.3453 H   0  0  0  0  0  0  0  0  0  0  0  0
   38.6494   22.6479   32.2931 H   0  0  0  0  0  0  0  0  0  0  0  0
   39.3953   27.2673   34.1015 H   0  0  0  0  0  0  0  0  0  0  0  0
   39.9994   26.4708   32.6091 H   0  0  0  0  0  0  0  0  0  0  0  0
   38.3957   27.2801   32.6091 H   0  0  0  0  0  0  0  0  0  0  0  0
   38.3584   26.3647   35.5195 H   0  0  0  0  0  0  0  0  0  0  0  0
   37.0172   25.1604   35.1278 H   0  0  0  0  0  0  0  0  0  0  0  0
   40.4079   24.7538   34.6225 H   0  0  0  0  0  0  0  0  0  0  0  0
   41.8718   23.0862   35.6823 H   0  0  0  0  0  0  0  0  0  0  0  0
   38.7347   22.1565   38.2702 H   0  0  0  0  0  0  0  0  0  0  0  0
  1 11  1  0
  2  3  2  0
  2  8  1  0
  3  1  1  0
  4  3  1  0
  5  4  2  0
  6  7  2  0
  6  5  1  0
  7  2  1  0
  8  9  2  0
 10  1  1  0
 11 12  1  0
 12 18  1  0
 13 12  1  0
 13 14  2  0
 14 15  1  0
 15 17  1  0
 15 16  2  0
 18 19  2  0
 18 17  1  0
  1 20  1  1
  4 21  1  0
  6 22  1  0
  8 23  1  0
 10 24  1  0
 10 25  1  0
 10 26  1  0
 11 27  1  0
 11 28  1  0
 13 29  1  0
 14 30  1  0
 17 31  1  0
M  ISO  8  20   8  21  14  22  14  23   6  24   8  25   8  26   8  27   8
M  ISO  4  28   8  29  14  30  14  31   9
M  END
>  <minimizedAffinity>  (1) 
-4.73240423

>  <minimizedRMSD>  (1) 
4.98567152

$$$$
