
     RDKit          3D

 34 35  0  0  1  0  0  0  0  0999 V2000
   38.2310   25.9070   35.0470 C   0  0  1  0  0  0  0  0  0  0  0  0
   39.0290   23.8510   36.3450 C   0  0  0  0  0  0  0  0  0  0  0  0
   39.2530   24.9030   35.4750 C   0  0  0  0  0  0  0  0  0  0  0  0
   40.5570   25.0750   34.9390 C   0  0  0  0  0  0  0  0  0  0  0  0
   41.5250   24.1760   35.3220 N   0  0  0  0  0  0  0  0  0  0  0  0
   41.2340   23.1710   36.1780 C   0  0  0  0  0  0  0  0  0  0  0  0
   40.0030   23.0070   36.6860 N   0  0  0  0  0  0  0  0  0  0  0  0
   37.6900   23.7760   36.8280 C   0  0  0  0  0  0  0  0  0  0  0  0
   37.0190   22.7630   37.0910 O   0  0  0  0  0  0  0  0  0  0  0  0
   38.4960   27.1650   35.8240 C   0  0  0  0  0  0  0  0  0  0  0  0
   38.2190   26.1100   33.5550 C   0  0  0  0  0  0  0  0  0  0  0  0
   37.0210   25.5480   32.9130 N   0  0  0  0  0  0  0  0  0  0  0  0
   37.2930   24.1480   32.5470 C   0  0  0  0  0  0  0  0  0  0  0  0
   36.2640   23.7460   31.5250 C   0  0  0  0  0  0  0  0  0  0  0  0
   35.1250   24.5520   31.5230 O   0  0  0  0  0  0  0  0  0  0  0  0
   35.4380   25.8550   31.1440 C   0  0  0  0  0  0  0  0  0  0  0  0
   36.8320   26.2180   31.6050 C   0  0  0  0  0  0  0  0  0  0  0  0
   37.2154   25.5484   35.2703 H   0  0  0  0  0  0  0  0  0  0  0  0
   40.7843   25.8964   34.2436 H   0  0  0  0  0  0  0  0  0  0  0  0
   42.0291   22.4676   36.4663 H   0  0  0  0  0  0  0  0  0  0  0  0
   37.1847   24.7397   36.9890 H   0  0  0  0  0  0  0  0  0  0  0  0
   38.4501   26.9471   36.9012 H   0  0  0  0  0  0  0  0  0  0  0  0
   39.4948   27.5494   35.5699 H   0  0  0  0  0  0  0  0  0  0  0  0
   37.7371   27.9197   35.5699 H   0  0  0  0  0  0  0  0  0  0  0  0
   38.2556   27.1895   33.3469 H   0  0  0  0  0  0  0  0  0  0  0  0
   39.0931   25.5850   33.1423 H   0  0  0  0  0  0  0  0  0  0  0  0
   38.3028   24.0597   32.1197 H   0  0  0  0  0  0  0  0  0  0  0  0
   37.2395   23.4962   33.4315 H   0  0  0  0  0  0  0  0  0  0  0  0
   36.7268   23.7978   30.5285 H   0  0  0  0  0  0  0  0  0  0  0  0
   35.9354   22.7290   31.7853 H   0  0  0  0  0  0  0  0  0  0  0  0
   35.3861   25.9361   30.0482 H   0  0  0  0  0  0  0  0  0  0  0  0
   34.7178   26.5444   31.6087 H   0  0  0  0  0  0  0  0  0  0  0  0
   37.5787   25.8594   30.8812 H   0  0  0  0  0  0  0  0  0  0  0  0
   36.9554   27.3077   31.6907 H   0  0  0  0  0  0  0  0  0  0  0  0
  1  3  1  0
  1 10  1  0
  2  7  2  0
  2  8  1  0
  3  2  1  0
  4  5  1  0
  4  3  2  0
  5  6  2  0
  6  7  1  0
  8  9  2  0
 11  1  1  0
 12 11  1  0
 13 12  1  0
 14 13  1  0
 15 14  1  0
 16 15  1  0
 16 17  1  0
 17 12  1  0
  1 18  1  1
  4 19  1  0
  6 20  1  0
  8 21  1  0
 10 22  1  0
 10 23  1  0
 10 24  1  0
 11 25  1  0
 11 26  1  0
 13 27  1  0
 13 28  1  0
 14 29  1  0
 14 30  1  0
 16 31  1  0
 16 32  1  0
 17 33  1  0
 17 34  1  0
M  ISO  8  18   8  19  14  20  14  21   6  22   8  23   8  24   8  25   8
M  ISO  8  26   8  27  13  28  13  29  13  30  13  31  13  32  13  33  13
M  ISO  1  34  13
M  END
>  <minimizedAffinity>  (1) 
-4.16633129

>  <minimizedRMSD>  (1) 
1.39173067

$$$$
