
     RDKit          3D

 28 28  0  0  1  0  0  0  0  0999 V2000
   38.8320   26.3950   34.9010 C   0  0  1  0  0  0  0  0  0  0  0  0
   38.1800   24.0050   34.2950 C   0  0  0  0  0  0  0  0  0  0  0  0
   38.4640   24.9920   35.2520 C   0  0  0  0  0  0  0  0  0  0  0  0
   38.3910   24.6530   36.6070 C   0  0  0  0  0  0  0  0  0  0  0  0
   38.0450   23.3680   36.9350 N   0  0  0  0  0  0  0  0  0  0  0  0
   37.7820   22.4590   35.9600 C   0  0  0  0  0  0  0  0  0  0  0  0
   37.8490   22.7730   34.6690 N   0  0  0  0  0  0  0  0  0  0  0  0
   38.2830   24.4590   32.9380 C   0  0  0  0  0  0  0  0  0  0  0  0
   39.1840   24.1550   32.1310 O   0  0  0  0  0  0  0  0  0  0  0  0
   38.1700   27.2720   35.9290 C   0  0  0  0  0  0  0  0  0  0  0  0
   40.3170   26.6210   34.8650 C   0  0  0  0  0  0  0  0  0  0  0  0
   40.7840   27.0630   33.5900 N   0  0  0  0  0  0  0  0  0  0  0  0
   42.1380   27.4890   33.5360 C   0  0  0  0  0  0  0  0  0  0  0  0
   43.0830   27.2750   34.3770 N   0  0  0  0  0  0  0  0  0  0  0  0
   42.6010   28.2710   32.4350 N   0  0  0  0  0  0  0  0  0  0  0  0
   42.9830   26.7230   35.2680 H   0  0  0  0  0  0  0  0  0  0  0  0
   38.4885   26.6305   33.8829 H   0  0  0  0  0  0  0  0  0  0  0  0
   38.6054   25.3973   37.3880 H   0  0  0  0  0  0  0  0  0  0  0  0
   37.5056   21.4336   36.2465 H   0  0  0  0  0  0  0  0  0  0  0  0
   37.4957   25.1368   32.5764 H   0  0  0  0  0  0  0  0  0  0  0  0
   38.4356   26.9202   36.9368 H   0  0  0  0  0  0  0  0  0  0  0  0
   38.5121   28.3096   35.8008 H   0  0  0  0  0  0  0  0  0  0  0  0
   37.0784   27.2274   35.8008 H   0  0  0  0  0  0  0  0  0  0  0  0
   40.5738   27.3830   35.6156 H   0  0  0  0  0  0  0  0  0  0  0  0
   40.8015   25.6563   35.0762 H   0  0  0  0  0  0  0  0  0  0  0  0
   40.1754   27.0724   32.7591 H   0  0  0  0  0  0  0  0  0  0  0  0
   43.5834   28.5784   32.3987 H   0  0  0  0  0  0  0  0  0  0  0  0
   41.9527   28.5278   31.6770 H   0  0  0  0  0  0  0  0  0  0  0  0
  1  3  1  0
  1 10  1  0
  2  7  2  0
  2  3  1  0
  3  4  2  0
  4  5  1  0
  6  5  2  0
  7  6  1  0
  8  2  1  0
  9  8  2  0
 11  1  1  0
 12 11  1  0
 13 12  1  0
 13 14  2  0
 14 16  1  0
 15 13  1  0
  1 17  1  6
  4 18  1  0
  6 19  1  0
  8 20  1  0
 10 21  1  0
 10 22  1  0
 10 23  1  0
 11 24  1  0
 11 25  1  0
 12 26  1  0
 15 27  1  0
 15 28  1  0
M  ISO  8  17   8  18  14  19  14  20   6  21   8  22   8  23   8  24   8
M  ISO  1  25   8
M  END
>  <minimizedAffinity>  (1) 
-3.88018584

>  <minimizedRMSD>  (1) 
4.69443417

$$$$
