
     RDKit          3D

 34 35  0  0  1  0  0  0  0  0999 V2000
   38.8660   26.4170   34.6410 C   0  0  1  0  0  0  0  0  0  0  0  0
   39.9040   24.2260   35.4420 C   0  0  0  0  0  0  0  0  0  0  0  0
   40.0300   25.5370   34.9640 C   0  0  0  0  0  0  0  0  0  0  0  0
   41.3220   26.0680   34.7810 C   0  0  0  0  0  0  0  0  0  0  0  0
   42.3850   25.2500   35.0880 N   0  0  0  0  0  0  0  0  0  0  0  0
   42.1980   23.9990   35.5450 C   0  0  0  0  0  0  0  0  0  0  0  0
   40.9690   23.4900   35.7200 N   0  0  0  0  0  0  0  0  0  0  0  0
   38.5500   23.7820   35.5950 C   0  0  0  0  0  0  0  0  0  0  0  0
   37.9390   22.9820   34.8580 O   0  0  0  0  0  0  0  0  0  0  0  0
   38.6860   27.3300   35.8270 C   0  0  0  0  0  0  0  0  0  0  0  0
   39.0670   27.1740   33.3610 C   0  0  0  0  0  0  0  0  0  0  0  0
   38.1750   26.7800   32.2360 C   0  0  0  0  0  0  0  0  0  0  0  0
   38.0650   27.8730   31.1920 C   0  0  0  0  0  0  0  0  0  0  0  0
   36.9600   28.7920   31.6630 C   0  0  0  0  0  0  0  0  0  0  0  0
   36.2860   28.1550   32.8320 C   0  0  0  0  0  0  0  0  0  0  0  0
   36.7450   26.7010   32.7140 C   0  0  0  0  0  0  0  0  0  0  0  0
   37.9579   25.8204   34.4695 H   0  0  0  0  0  0  0  0  0  0  0  0
   41.4744   27.0919   34.4089 H   0  0  0  0  0  0  0  0  0  0  0  0
   43.0745   23.3777   35.7812 H   0  0  0  0  0  0  0  0  0  0  0  0
   37.9916   24.1887   36.4510 H   0  0  0  0  0  0  0  0  0  0  0  0
   38.8000   26.7516   36.7557 H   0  0  0  0  0  0  0  0  0  0  0  0
   39.4445   28.1260   35.7954 H   0  0  0  0  0  0  0  0  0  0  0  0
   37.6821   27.7786   35.7954 H   0  0  0  0  0  0  0  0  0  0  0  0
   38.8993   28.2411   33.5686 H   0  0  0  0  0  0  0  0  0  0  0  0
   40.0901   26.9417   33.0305 H   0  0  0  0  0  0  0  0  0  0  0  0
   38.5981   25.8407   31.8503 H   0  0  0  0  0  0  0  0  0  0  0  0
   37.8113   27.4414   30.2125 H   0  0  0  0  0  0  0  0  0  0  0  0
   39.0155   28.4141   31.0745 H   0  0  0  0  0  0  0  0  0  0  0  0
   37.3849   29.7616   31.9618 H   0  0  0  0  0  0  0  0  0  0  0  0
   36.2351   28.9588   30.8526 H   0  0  0  0  0  0  0  0  0  0  0  0
   36.6207   28.6036   33.7790 H   0  0  0  0  0  0  0  0  0  0  0  0
   35.1926   28.2751   32.8317 H   0  0  0  0  0  0  0  0  0  0  0  0
   36.1238   26.1573   31.9870 H   0  0  0  0  0  0  0  0  0  0  0  0
   36.6577   26.1615   33.6686 H   0  0  0  0  0  0  0  0  0  0  0  0
  1  3  1  0
  1 10  1  0
  2  8  1  0
  2  7  2  0
  3  2  1  0
  4  3  2  0
  4  5  1  0
  5  6  2  0
  6  7  1  0
  9  8  2  0
 11  1  1  0
 12 16  1  0
 12 11  1  0
 13 14  1  0
 13 12  1  0
 14 15  1  0
 16 15  1  0
  1 17  1  6
  4 18  1  0
  6 19  1  0
  8 20  1  0
 10 21  1  0
 10 22  1  0
 10 23  1  0
 11 24  1  0
 11 25  1  0
 12 26  1  0
 13 27  1  0
 13 28  1  0
 14 29  1  0
 14 30  1  0
 15 31  1  0
 15 32  1  0
 16 33  1  0
 16 34  1  0
M  ISO  8  17   8  18  14  19  14  20   6  21   8  22   8  23   8  24   8
M  ISO  8  25   8  26  13  27  13  28  13  29  13  30  13  31  13  32  13
M  ISO  2  33  13  34  13
M  END
>  <minimizedAffinity>  (1) 
-3.81159782

>  <minimizedRMSD>  (1) 
3.02707219

$$$$
