
     RDKit          3D

 28 29  0  0  1  0  0  0  0  0999 V2000
   38.3660   25.9560   34.9930 C   0  0  1  0  0  0  0  0  0  0  0  0
   39.0810   23.8840   36.2930 C   0  0  0  0  0  0  0  0  0  0  0  0
   39.3710   24.9490   35.4310 C   0  0  0  0  0  0  0  0  0  0  0  0
   40.6910   25.0940   34.9410 C   0  0  0  0  0  0  0  0  0  0  0  0
   41.6210   24.1660   35.3470 N   0  0  0  0  0  0  0  0  0  0  0  0
   41.2800   23.1560   36.1830 C   0  0  0  0  0  0  0  0  0  0  0  0
   40.0460   23.0210   36.6410 N   0  0  0  0  0  0  0  0  0  0  0  0
   37.7250   23.8330   36.7240 C   0  0  0  0  0  0  0  0  0  0  0  0
   37.0840   22.7910   37.0290 O   0  0  0  0  0  0  0  0  0  0  0  0
   38.6330   27.2000   35.7990 C   0  0  0  0  0  0  0  0  0  0  0  0
   38.4210   26.2180   33.5140 C   0  0  0  0  0  0  0  0  0  0  0  0
   37.5130   25.2910   32.8360 C   0  0  0  0  0  0  0  0  0  0  0  0
   36.4680   25.7930   32.0550 C   0  0  0  0  0  0  0  0  0  0  0  0
   35.7480   24.7370   31.5170 C   0  0  0  0  0  0  0  0  0  0  0  0
   36.3750   23.6450   31.9850 N   0  0  0  0  0  0  0  0  0  0  0  0
   37.4150   23.9600   32.7600 N   0  0  0  0  0  0  0  0  0  0  0  0
   37.3460   25.5845   35.1704 H   0  0  0  0  0  0  0  0  0  0  0  0
   40.9621   25.9163   34.2625 H   0  0  0  0  0  0  0  0  0  0  0  0
   42.0480   22.4302   36.4886 H   0  0  0  0  0  0  0  0  0  0  0  0
   37.1876   24.7900   36.7976 H   0  0  0  0  0  0  0  0  0  0  0  0
   38.5815   26.9602   36.8713 H   0  0  0  0  0  0  0  0  0  0  0  0
   39.6344   27.5857   35.5572 H   0  0  0  0  0  0  0  0  0  0  0  0
   37.8781   27.9626   35.5572 H   0  0  0  0  0  0  0  0  0  0  0  0
   38.1116   27.2538   33.3104 H   0  0  0  0  0  0  0  0  0  0  0  0
   39.4474   26.0713   33.1466 H   0  0  0  0  0  0  0  0  0  0  0  0
   36.2508   26.8590   31.8926 H   0  0  0  0  0  0  0  0  0  0  0  0
   34.8674   24.7829   30.8594 H   0  0  0  0  0  0  0  0  0  0  0  0
   36.0873   22.6794   31.7712 H   0  0  0  0  0  0  0  0  0  0  0  0
  1  3  1  0
  1 10  1  0
  2  7  2  0
  2  8  1  0
  3  2  1  0
  4  5  1  0
  4  3  2  0
  5  6  2  0
  6  7  1  0
  8  9  2  0
 11  1  1  0
 12 11  1  0
 13 12  1  0
 14 15  1  0
 14 13  2  0
 15 16  1  0
 16 12  2  0
  1 17  1  1
  4 18  1  0
  6 19  1  0
  8 20  1  0
 10 21  1  0
 10 22  1  0
 10 23  1  0
 11 24  1  0
 11 25  1  0
 13 26  1  0
 14 27  1  0
 15 28  1  0
M  ISO  8  17   8  18  14  19  14  20   6  21   8  22   8  23   8  24   8
M  ISO  4  25   8  26  14  27  14  28   9
M  END
>  <minimizedAffinity>  (1) 
-3.85432625

>  <minimizedRMSD>  (1) 
0.988009572

$$$$
