
     RDKit          3D

 36 38  0  0  1  0  0  0  0  0999 V2000
   37.2970   25.9080   34.5480 C   0  0  0  0  0  0  0  0  0  0  0  0
   37.5560   26.4560   33.2410 C   0  0  0  0  0  0  0  0  0  0  0  0
   38.3430   25.6900   32.4050 N   0  0  0  0  0  0  0  0  0  0  0  0
   38.6770   26.0860   31.1500 C   0  0  0  0  0  0  0  0  0  0  0  0
   38.2810   27.2610   30.5870 N   0  0  0  0  0  0  0  0  0  0  0  0
   37.4960   28.0480   31.3890 C   0  0  0  0  0  0  0  0  0  0  0  0
   37.0120   29.2630   30.9650 C   0  0  0  0  0  0  0  0  0  0  0  0
   36.2240   30.0800   31.7300 C   0  0  0  0  0  0  0  0  0  0  0  0
   35.8900   29.6630   33.0140 C   0  0  0  0  0  0  0  0  0  0  0  0
   36.3770   28.4380   33.4420 C   0  0  0  0  0  0  0  0  0  0  0  0
   37.1720   27.6260   32.6520 C   0  0  0  0  0  0  0  0  0  0  0  0
   35.9880   28.1180   34.7320 O   0  0  0  0  0  0  0  0  0  0  0  0
   38.6100   26.1000   35.3750 C   0  0  1  0  0  0  0  0  0  0  0  0
   38.9150   23.9820   36.7410 C   0  0  0  0  0  0  0  0  0  0  0  0
   39.1900   24.7620   35.6480 C   0  0  0  0  0  0  0  0  0  0  0  0
   40.1770   24.3040   34.7390 C   0  0  0  0  0  0  0  0  0  0  0  0
   40.7940   23.1140   35.0080 N   0  0  0  0  0  0  0  0  0  0  0  0
   40.4620   22.4170   36.1000 C   0  0  0  0  0  0  0  0  0  0  0  0
   39.5230   22.8430   36.9750 N   0  0  0  0  0  0  0  0  0  0  0  0
   37.8710   24.4990   37.5850 C   0  0  0  0  0  0  0  0  0  0  0  0
   37.9580   24.7470   38.8340 O   0  0  0  0  0  0  0  0  0  0  0  0
   39.5940   26.9280   34.6670 C   0  0  0  0  0  0  0  0  0  0  0  0
   37.0493   24.8391   34.4701 H   0  0  0  0  0  0  0  0  0  0  0  0
   36.4452   26.4105   35.0296 H   0  0  0  0  0  0  0  0  0  0  0  0
   39.3081   25.4145   30.5493 H   0  0  0  0  0  0  0  0  0  0  0  0
   37.2736   29.5985   29.9506 H   0  0  0  0  0  0  0  0  0  0  0  0
   35.8637   31.0429   31.3387 H   0  0  0  0  0  0  0  0  0  0  0  0
   35.2605   30.2845   33.6679 H   0  0  0  0  0  0  0  0  0  0  0  0
   36.2796   27.2642   35.1395 H   0  0  0  0  0  0  0  0  0  0  0  0
   38.3594   26.6211   36.3108 H   0  0  0  0  0  0  0  0  0  0  0  0
   40.4384   24.8884   33.8445 H   0  0  0  0  0  0  0  0  0  0  0  0
   40.9717   21.4616   36.2937 H   0  0  0  0  0  0  0  0  0  0  0  0
   36.9013   24.7006   37.1063 H   0  0  0  0  0  0  0  0  0  0  0  0
   40.2225   27.4568   35.3987 H   0  0  0  0  0  0  0  0  0  0  0  0
   40.2267   26.2866   34.0359 H   0  0  0  0  0  0  0  0  0  0  0  0
   39.0702   27.6610   34.0359 H   0  0  0  0  0  0  0  0  0  0  0  0
  1 13  1  0
  2  1  1  0
  3  2  2  0
  4  3  1  0
  5  4  2  0
  5  6  1  0
  6 11  2  0
  7  6  1  0
  7  8  2  0
  8  9  1  0
  9 10  2  0
 10 12  1  0
 11  2  1  0
 11 10  1  0
 13 15  1  0
 14 19  2  0
 14 20  1  0
 15 14  1  0
 16 17  1  0
 16 15  2  0
 17 18  2  0
 18 19  1  0
 20 21  2  0
 22 13  1  0
  1 23  1  0
  1 24  1  0
  4 25  1  0
  7 26  1  0
  8 27  1  0
  9 28  1  0
 12 29  1  0
 13 30  1  1
 16 31  1  0
 18 32  1  0
 20 33  1  0
 22 34  1  0
 22 35  1  0
 22 36  1  0
M  ISO  8  23   8  24   8  25  14  26  14  27  14  28  14  29   3  30   8
M  ISO  6  31  14  32  14  33   6  34   8  35   8  36   8
M  END
>  <minimizedAffinity>  (1) 
-4.95069027

>  <minimizedRMSD>  (1) 
0.818766773

$$$$
