
     RDKit          3D

 38 40  0  0  1  0  0  0  0  0999 V2000
   37.3030   26.1810   35.1280 C   0  0  0  0  0  0  0  0  0  0  0  0
   37.3330   26.1390   33.6950 C   0  0  0  0  0  0  0  0  0  0  0  0
   37.7900   24.9690   33.1070 N   0  0  0  0  0  0  0  0  0  0  0  0
   37.8810   24.7910   31.7700 C   0  0  0  0  0  0  0  0  0  0  0  0
   37.5380   25.7330   30.8620 N   0  0  0  0  0  0  0  0  0  0  0  0
   37.0810   26.9090   31.3890 C   0  0  0  0  0  0  0  0  0  0  0  0
   36.6990   27.9360   30.5840 C   0  0  0  0  0  0  0  0  0  0  0  0
   36.2300   29.1300   31.0470 C   0  0  0  0  0  0  0  0  0  0  0  0
   36.1470   29.2870   32.3940 C   0  0  0  0  0  0  0  0  0  0  0  0
   36.5270   28.2630   33.2920 C   0  0  0  0  0  0  0  0  0  0  0  0
   36.9960   27.0710   32.7630 C   0  0  0  0  0  0  0  0  0  0  0  0
   36.3760   28.5420   34.7170 C   0  0  0  0  0  0  0  0  0  0  0  0
   38.7870   26.1510   35.5940 C   0  0  1  0  0  0  0  0  0  0  0  0
   38.8710   23.8950   36.7210 C   0  0  0  0  0  0  0  0  0  0  0  0
   39.2660   24.7670   35.7420 C   0  0  0  0  0  0  0  0  0  0  0  0
   40.2710   24.3630   34.8410 C   0  0  0  0  0  0  0  0  0  0  0  0
   40.8040   23.1140   34.9900 N   0  0  0  0  0  0  0  0  0  0  0  0
   40.3620   22.3160   35.9780 C   0  0  0  0  0  0  0  0  0  0  0  0
   39.3980   22.6990   36.8460 N   0  0  0  0  0  0  0  0  0  0  0  0
   37.8110   24.3780   37.5650 C   0  0  0  0  0  0  0  0  0  0  0  0
   37.9230   24.7120   38.7910 O   0  0  0  0  0  0  0  0  0  0  0  0
   39.6560   26.9080   34.6910 C   0  0  0  0  0  0  0  0  0  0  0  0
   36.7613   25.3093   35.5238 H   0  0  0  0  0  0  0  0  0  0  0  0
   36.7866   27.0815   35.4920 H   0  0  0  0  0  0  0  0  0  0  0  0
   38.2552   23.8252   31.3995 H   0  0  0  0  0  0  0  0  0  0  0  0
   36.7725   27.7956   29.4955 H   0  0  0  0  0  0  0  0  0  0  0  0
   35.9310   29.9334   30.3577 H   0  0  0  0  0  0  0  0  0  0  0  0
   35.7730   30.2393   32.7981 H   0  0  0  0  0  0  0  0  0  0  0  0
   36.8199   27.7218   35.3003 H   0  0  0  0  0  0  0  0  0  0  0  0
   36.8870   29.4847   34.9622 H   0  0  0  0  0  0  0  0  0  0  0  0
   35.3073   28.6297   34.9622 H   0  0  0  0  0  0  0  0  0  0  0  0
   38.8292   26.6387   36.5791 H   0  0  0  0  0  0  0  0  0  0  0  0
   40.6165   25.0339   34.0407 H   0  0  0  0  0  0  0  0  0  0  0  0
   40.8013   21.3132   36.0844 H   0  0  0  0  0  0  0  0  0  0  0  0
   36.8127   24.4675   37.1118 H   0  0  0  0  0  0  0  0  0  0  0  0
   40.3559   27.5177   35.2812 H   0  0  0  0  0  0  0  0  0  0  0  0
   40.2224   26.2103   34.0567 H   0  0  0  0  0  0  0  0  0  0  0  0
   39.0425   27.5647   34.0567 H   0  0  0  0  0  0  0  0  0  0  0  0
  1 13  1  0
  2  1  1  0
  3  2  2  0
  4  3  1  0
  5  6  1  0
  5  4  2  0
  6 11  2  0
  7  8  2  0
  7  6  1  0
  8  9  1  0
  9 10  2  0
 10 12  1  0
 11 10  1  0
 11  2  1  0
 13 15  1  0
 14 19  2  0
 14 20  1  0
 15 14  1  0
 16 17  1  0
 16 15  2  0
 17 18  2  0
 18 19  1  0
 20 21  2  0
 22 13  1  0
  1 23  1  0
  1 24  1  0
  4 25  1  0
  7 26  1  0
  8 27  1  0
  9 28  1  0
 12 29  1  0
 12 30  1  0
 12 31  1  0
 13 32  1  1
 16 33  1  0
 18 34  1  0
 20 35  1  0
 22 36  1  0
 22 37  1  0
 22 38  1  0
M  ISO  8  23   8  24   8  25  14  26  14  27  14  28  14  29   8  30   8
M  ISO  8  31   8  32   8  33  14  34  14  35   6  36   8  37   8  38   8
M  END
>  <minimizedAffinity>  (1) 
-5.36395502

>  <minimizedRMSD>  (1) 
1.16489756

$$$$
