
     RDKit          3D

 49 51  0  0  1  0  0  0  0  0999 V2000
   35.5740   28.4460   32.1660 C   0  0  0  0  0  0  0  0  0  0  0  0
   36.1210   29.4800   31.3790 C   0  0  0  0  0  0  0  0  0  0  0  0
   36.6200   29.1640   30.1270 N   0  0  0  0  0  0  0  0  0  0  0  0
   37.2290   30.0560   29.3030 C   0  0  0  0  0  0  0  0  0  0  0  0
   37.4230   31.3650   29.6170 N   0  0  0  0  0  0  0  0  0  0  0  0
   36.9550   31.7470   30.8460 C   0  0  0  0  0  0  0  0  0  0  0  0
   37.1210   33.0250   31.2820 C   0  0  0  0  0  0  0  0  0  0  0  0
   36.6780   33.4150   32.5080 C   0  0  0  0  0  0  0  0  0  0  0  0
   36.0460   32.4980   33.3090 C   0  0  0  0  0  0  0  0  0  0  0  0
   35.8510   31.2100   32.9240 C   0  0  0  0  0  0  0  0  0  0  0  0
   36.3270   30.8200   31.6740 C   0  0  0  0  0  0  0  0  0  0  0  0
   35.1480   30.4860   33.9770 C   0  0  0  0  0  0  0  0  0  0  0  0
   34.2750   29.3650   33.8340 C   0  0  0  0  0  0  0  0  0  0  0  0
   34.8510   31.5230   35.1190 C   0  0  0  0  0  0  0  0  0  0  0  0
   36.1460   29.8110   34.8740 C   0  0  0  0  0  0  0  0  0  0  0  0
   36.7480   27.4680   32.5110 C   0  0  1  0  0  0  0  0  0  0  0  0
   36.9880   24.9430   32.6430 C   0  0  0  0  0  0  0  0  0  0  0  0
   36.3890   26.0740   32.1260 C   0  0  0  0  0  0  0  0  0  0  0  0
   35.4330   25.9490   31.1340 C   0  0  0  0  0  0  0  0  0  0  0  0
   35.1240   24.6960   30.7130 N   0  0  0  0  0  0  0  0  0  0  0  0
   35.7300   23.6350   31.2470 C   0  0  0  0  0  0  0  0  0  0  0  0
   36.6590   23.7370   32.2060 N   0  0  0  0  0  0  0  0  0  0  0  0
   37.9480   25.1820   33.6890 C   0  0  0  0  0  0  0  0  0  0  0  0
   37.9970   24.5040   34.7800 O   0  0  0  0  0  0  0  0  0  0  0  0
   37.9850   27.8780   31.8870 C   0  0  0  0  0  0  0  0  0  0  0  0
   34.7923   27.9151   31.6029 H   0  0  0  0  0  0  0  0  0  0  0  0
   35.1145   28.8482   33.0809 H   0  0  0  0  0  0  0  0  0  0  0  0
   37.5857   29.6990   28.3256 H   0  0  0  0  0  0  0  0  0  0  0  0
   37.6226   33.7565   30.6314 H   0  0  0  0  0  0  0  0  0  0  0  0
   36.8244   34.4497   32.8516 H   0  0  0  0  0  0  0  0  0  0  0  0
   35.6845   32.8169   34.2977 H   0  0  0  0  0  0  0  0  0  0  0  0
   33.9870   28.9952   34.8292 H   0  0  0  0  0  0  0  0  0  0  0  0
   33.3741   29.6700   33.2813 H   0  0  0  0  0  0  0  0  0  0  0  0
   34.7914   28.5663   33.2813 H   0  0  0  0  0  0  0  0  0  0  0  0
   34.9893   31.0403   36.0977 H   0  0  0  0  0  0  0  0  0  0  0  0
   35.5413   32.3747   35.0295 H   0  0  0  0  0  0  0  0  0  0  0  0
   33.8145   31.8802   35.0295 H   0  0  0  0  0  0  0  0  0  0  0  0
   35.8766   29.9932   35.9248 H   0  0  0  0  0  0  0  0  0  0  0  0
   36.1429   28.7288   34.6770 H   0  0  0  0  0  0  0  0  0  0  0  0
   37.1493   30.2167   34.6770 H   0  0  0  0  0  0  0  0  0  0  0  0
   36.9084   27.5008   33.5988 H   0  0  0  0  0  0  0  0  0  0  0  0
   34.9410   26.8329   30.7020 H   0  0  0  0  0  0  0  0  0  0  0  0
   35.4551   22.6335   30.8844 H   0  0  0  0  0  0  0  0  0  0  0  0
   38.9366   25.0677   33.2204 H   0  0  0  0  0  0  0  0  0  0  0  0
   37.6161   26.1620   34.0624 H   0  0  0  0  0  0  0  0  0  0  0  0
   37.9525   25.1201   35.5537 H   0  0  0  0  0  0  0  0  0  0  0  0
   38.7241   28.1230   32.6640 H   0  0  0  0  0  0  0  0  0  0  0  0
   38.3689   27.0591   31.2610 H   0  0  0  0  0  0  0  0  0  0  0  0
   37.8038   28.7641   31.2610 H   0  0  0  0  0  0  0  0  0  0  0  0
  1 16  1  0
  2 11  1  0
  2  1  1  0
  3  2  2  0
  4  5  2  0
  4  3  1  0
  5  6  1  0
  6  7  1  0
  6 11  2  0
  7  8  2  0
  8  9  1  0
 10  9  2  0
 10 12  1  0
 11 10  1  0
 12 15  1  0
 12 14  1  0
 13 12  1  0
 17 23  1  0
 18 16  1  0
 18 17  2  0
 19 18  1  0
 20 19  2  0
 20 21  1  0
 21 22  2  0
 22 17  1  0
 23 24  1  0
 25 16  1  0
  1 26  1  0
  1 27  1  0
  4 28  1  0
  7 29  1  0
  8 30  1  0
  9 31  1  0
 13 32  1  0
 13 33  1  0
 13 34  1  0
 14 35  1  0
 14 36  1  0
 14 37  1  0
 15 38  1  0
 15 39  1  0
 15 40  1  0
 16 41  1  1
 19 42  1  0
 21 43  1  0
 23 44  1  0
 23 45  1  0
 24 46  1  0
 25 47  1  0
 25 48  1  0
 25 49  1  0
M  ISO  8  26   8  27   8  28  14  29  14  30  14  31  14  32   8  33   8
M  ISO  8  34   8  35   8  36   8  37   8  38   8  39   8  40   8  41   8
M  ISO  8  42  14  43  14  44   8  45   8  46   3  47   8  48   8  49   8
M  END
>  <minimizedAffinity>  (1) 
-5.11319971

>  <minimizedRMSD>  (1) 
4.38930368

$$$$
