
     RDKit          3D

 21 22  0  0  0  0  0  0  0  0999 V2000
   39.0090   22.7460   36.2580 S   0  0  0  0  0  0  0  0  0  0  0  0
   36.6030   21.2330   33.3580 C   0  0  0  0  0  0  0  0  0  0  0  0
   37.6820   21.8690   33.9960 C   0  0  0  0  0  0  0  0  0  0  0  0
   37.6800   21.9560   35.3810 C   0  0  0  0  0  0  0  0  0  0  0  0
   36.6210   21.4160   36.0580 N   0  0  0  0  0  0  0  0  0  0  0  0
   35.5960   20.8120   35.4240 C   0  0  0  0  0  0  0  0  0  0  0  0
   35.5860   20.7200   34.0940 N   0  0  0  0  0  0  0  0  0  0  0  0
   39.1800   24.4730   35.8300 C   0  0  0  0  0  0  0  0  0  0  0  0
   40.1420   25.0460   35.0250 C   0  0  0  0  0  0  0  0  0  0  0  0
   40.1240   26.4070   34.8000 C   0  0  0  0  0  0  0  0  0  0  0  0
   39.1490   27.2280   35.3700 C   0  0  0  0  0  0  0  0  0  0  0  0
   38.1770   26.6580   36.1820 C   0  0  0  0  0  0  0  0  0  0  0  0
   38.1960   25.2780   36.4100 C   0  0  0  0  0  0  0  0  0  0  0  0
   36.5835   21.1513   32.2612 H   0  0  0  0  0  0  0  0  0  0  0  0
   38.5118   22.2895   33.4089 H   0  0  0  0  0  0  0  0  0  0  0  0
   34.7631   20.3926   36.0074 H   0  0  0  0  0  0  0  0  0  0  0  0
   40.9206   24.4204   34.5641 H   0  0  0  0  0  0  0  0  0  0  0  0
   40.8954   26.8556   34.1568 H   0  0  0  0  0  0  0  0  0  0  0  0
   39.1507   28.3112   35.1786 H   0  0  0  0  0  0  0  0  0  0  0  0
   37.3995   27.2859   36.6415 H   0  0  0  0  0  0  0  0  0  0  0  0
   37.4285   24.8218   37.0525 H   0  0  0  0  0  0  0  0  0  0  0  0
  2  3  2  0
  2  7  1  0
  3  4  1  0
  4  5  2  0
  4  1  1  0
  6  5  1  0
  7  6  2  0
  8  1  1  0
  8 13  1  0
  9  8  2  0
 10  9  1  0
 10 11  2  0
 11 12  1  0
 12 13  2  0
  2 14  1  0
  3 15  1  0
  6 16  1  0
  9 17  1  0
 10 18  1  0
 11 19  1  0
 12 20  1  0
 13 21  1  0
M  ISO  8  14  14  15  14  16  14  17  14  18  14  19  14  20  14  21  14
M  END
>  <minimizedAffinity>  (1) 
-4.11637306

>  <minimizedRMSD>  (1) 
3.98804736

$$$$
