
     RDKit          3D

 38 40  0  0  0  0  0  0  0  0999 V2000
   39.3390   24.1610   34.5530 C   0  0  0  0  0  0  0  0  0  0  0  0
   42.6560   23.5940   36.2890 C   0  0  0  0  0  0  0  0  0  0  0  0
   41.3410   23.3840   35.8790 C   0  0  0  0  0  0  0  0  0  0  0  0
   40.7280   24.3030   35.0280 C   0  0  0  0  0  0  0  0  0  0  0  0
   41.4640   25.3710   34.6400 N   0  0  0  0  0  0  0  0  0  0  0  0
   42.7360   25.5620   35.0450 C   0  0  0  0  0  0  0  0  0  0  0  0
   43.3350   24.6900   35.8600 N   0  0  0  0  0  0  0  0  0  0  0  0
   38.3360   24.5980   35.6070 C   0  0  0  0  0  0  0  0  0  0  0  0
   39.1460   25.0870   33.3480 C   0  0  0  0  0  0  0  0  0  0  0  0
   39.1700   22.7350   34.1280 C   0  0  0  0  0  0  0  0  0  0  0  0
   37.9350   22.0610   34.5400 C   0  0  0  0  0  0  0  0  0  0  0  0
   37.4480   21.7910   35.7990 C   0  0  0  0  0  0  0  0  0  0  0  0
   36.2570   21.1410   36.0070 C   0  0  0  0  0  0  0  0  0  0  0  0
   35.4870   20.7280   34.9530 C   0  0  0  0  0  0  0  0  0  0  0  0
   35.9590   20.9910   33.6820 C   0  0  0  0  0  0  0  0  0  0  0  0
   35.1360   20.5480   32.6510 C   0  0  0  0  0  0  0  0  0  0  0  0
   35.5140   20.7610   31.3540 C   0  0  0  0  0  0  0  0  0  0  0  0
   36.6950   21.4050   31.1020 C   0  0  0  0  0  0  0  0  0  0  0  0
   37.5080   21.8420   32.1250 C   0  0  0  0  0  0  0  0  0  0  0  0
   37.1650   21.6480   33.4580 C   0  0  0  0  0  0  0  0  0  0  0  0
   43.1446   22.8723   36.9602 H   0  0  0  0  0  0  0  0  0  0  0  0
   40.7891   22.4976   36.2249 H   0  0  0  0  0  0  0  0  0  0  0  0
   43.2879   26.4485   34.6992 H   0  0  0  0  0  0  0  0  0  0  0  0
   38.7536   24.4161   36.6083 H   0  0  0  0  0  0  0  0  0  0  0  0
   38.1228   25.6706   35.4880 H   0  0  0  0  0  0  0  0  0  0  0  0
   37.4054   24.0238   35.4880 H   0  0  0  0  0  0  0  0  0  0  0  0
   38.9334   26.1073   33.6999 H   0  0  0  0  0  0  0  0  0  0  0  0
   40.0623   25.0926   32.7394 H   0  0  0  0  0  0  0  0  0  0  0  0
   38.3038   24.7261   32.7394 H   0  0  0  0  0  0  0  0  0  0  0  0
   40.0141   22.1631   34.5409 H   0  0  0  0  0  0  0  0  0  0  0  0
   39.1258   22.7670   33.0294 H   0  0  0  0  0  0  0  0  0  0  0  0
   38.0363   22.1086   36.6725 H   0  0  0  0  0  0  0  0  0  0  0  0
   35.9164   20.9492   37.0352 H   0  0  0  0  0  0  0  0  0  0  0  0
   34.5310   20.2077   35.1121 H   0  0  0  0  0  0  0  0  0  0  0  0
   34.1912   20.0319   32.8769 H   0  0  0  0  0  0  0  0  0  0  0  0
   34.8774   20.4193   30.5246 H   0  0  0  0  0  0  0  0  0  0  0  0
   37.0019   21.5775   30.0599 H   0  0  0  0  0  0  0  0  0  0  0  0
   38.4496   22.3559   31.8814 H   0  0  0  0  0  0  0  0  0  0  0  0
  1  4  1  0
  1  8  1  0
  3  2  2  0
  4  3  1  0
  5  4  2  0
  5  6  1  0
  6  7  2  0
  7  2  1  0
  9  1  1  0
 10 11  1  0
 10  1  1  0
 11 12  2  0
 12 13  1  0
 14 13  2  0
 15 14  1  0
 16 15  2  0
 17 16  1  0
 18 17  2  0
 18 19  1  0
 19 20  2  0
 20 15  1  0
 20 11  1  0
  2 21  1  0
  3 22  1  0
  6 23  1  0
  8 24  1  0
  8 25  1  0
  8 26  1  0
  9 27  1  0
  9 28  1  0
  9 29  1  0
 10 30  1  0
 10 31  1  0
 12 32  1  0
 13 33  1  0
 14 34  1  0
 16 35  1  0
 17 36  1  0
 18 37  1  0
 19 38  1  0
M  ISO  8  21  14  22  14  23  14  24   8  25   8  26   8  27   8  28   8
M  ISO  8  29   8  30   8  31   8  32  14  33  14  34  14  35  14  36  14
M  ISO  2  37  14  38  14
M  END
>  <minimizedAffinity>  (1) 
-4.7048583

>  <minimizedRMSD>  (1) 
5.83295393

$$$$
