
     RDKit          3D

 29 29  0  0  0  0  0  0  0  0999 V2000
   38.4680   23.4260   37.0490 C   0  0  0  0  0  0  0  0  0  0  0  0
   38.4350   25.7760   34.1100 C   0  0  0  0  0  0  0  0  0  0  0  0
   38.4760   24.5790   34.8390 C   0  0  0  0  0  0  0  0  0  0  0  0
   38.4290   24.6320   36.2320 C   0  0  0  0  0  0  0  0  0  0  0  0
   38.3480   25.8430   36.8310 N   0  0  0  0  0  0  0  0  0  0  0  0
   38.3100   26.9880   36.1120 C   0  0  0  0  0  0  0  0  0  0  0  0
   38.3530   26.9610   34.7640 N   0  0  0  0  0  0  0  0  0  0  0  0
   38.5970   23.6930   38.5380 C   0  0  0  0  0  0  0  0  0  0  0  0
   37.1330   22.6760   36.8980 C   0  0  0  0  0  0  0  0  0  0  0  0
   39.5840   22.5330   36.5390 C   0  0  0  0  0  0  0  0  0  0  0  0
   40.2720   21.8720   37.6310 N   0  0  0  0  0  0  0  0  0  0  0  0
   41.5660   21.3370   37.3860 C   0  0  0  0  0  0  0  0  0  0  0  0
   42.2080   21.7170   36.3360 N   0  0  0  0  0  0  0  0  0  0  0  0
   42.0910   20.4120   38.3050 N   0  0  0  0  0  0  0  0  0  0  0  0
   43.1590   21.3110   36.1740 H   0  0  0  0  0  0  0  0  0  0  0  0
   38.4693   25.7538   33.0108 H   0  0  0  0  0  0  0  0  0  0  0  0
   38.5443   23.6117   34.3196 H   0  0  0  0  0  0  0  0  0  0  0  0
   38.2431   27.9542   36.6335 H   0  0  0  0  0  0  0  0  0  0  0  0
   38.1857   22.8417   39.1002 H   0  0  0  0  0  0  0  0  0  0  0  0
   39.6581   23.8247   38.7963 H   0  0  0  0  0  0  0  0  0  0  0  0
   38.0407   24.6061   38.7963 H   0  0  0  0  0  0  0  0  0  0  0  0
   36.7261   22.4474   37.8941 H   0  0  0  0  0  0  0  0  0  0  0  0
   36.4193   23.3052   36.3460 H   0  0  0  0  0  0  0  0  0  0  0  0
   37.2991   21.7392   36.3460 H   0  0  0  0  0  0  0  0  0  0  0  0
   39.1559   21.7705   35.8716 H   0  0  0  0  0  0  0  0  0  0  0  0
   40.3102   23.1592   36.0001 H   0  0  0  0  0  0  0  0  0  0  0  0
   39.8345   21.7922   38.5600 H   0  0  0  0  0  0  0  0  0  0  0  0
   43.0263   20.0084   38.1522 H   0  0  0  0  0  0  0  0  0  0  0  0
   41.5405   20.1378   39.1312 H   0  0  0  0  0  0  0  0  0  0  0  0
  1  8  1  0
  2  7  2  0
  2  3  1  0
  3  4  2  0
  4  5  1  0
  4  1  1  0
  6  5  2  0
  7  6  1  0
  9  1  1  0
 10  1  1  0
 10 11  1  0
 12 11  1  0
 12 14  1  0
 13 12  2  0
 15 13  1  0
  2 16  1  0
  3 17  1  0
  6 18  1  0
  8 19  1  0
  8 20  1  0
  8 21  1  0
  9 22  1  0
  9 23  1  0
  9 24  1  0
 10 25  1  0
 10 26  1  0
 11 27  1  0
 14 28  1  0
 14 29  1  0
M  ISO  8  16  14  17  14  18  14  19   8  20   8  21   8  22   8  23   8
M  ISO  3  24   8  25   8  26   8
M  END
>  <minimizedAffinity>  (1) 
-4.43762589

>  <minimizedRMSD>  (1) 
4.86724043

$$$$
