
     RDKit          3D

 45 47  0  0  1  0  0  0  0  0999 V2000
   37.2740   27.0300   33.0150 C   0  0  0  0  0  0  0  0  0  0  0  0
   38.0940   26.2030   32.2340 N   0  0  0  0  0  0  0  0  0  0  0  0
   38.5570   26.5050   31.0130 C   0  0  0  0  0  0  0  0  0  0  0  0
   38.2690   27.6700   30.3930 N   0  0  0  0  0  0  0  0  0  0  0  0
   37.4850   28.5050   31.0930 C   0  0  0  0  0  0  0  0  0  0  0  0
   37.0720   29.6960   30.5650 C   0  0  0  0  0  0  0  0  0  0  0  0
   36.2450   30.5850   31.1780 C   0  0  0  0  0  0  0  0  0  0  0  0
   35.7990   30.2460   32.4310 C   0  0  0  0  0  0  0  0  0  0  0  0
   36.1720   29.0230   33.0810 C   0  0  0  0  0  0  0  0  0  0  0  0
   37.0090   28.1970   32.3590 C   0  0  0  0  0  0  0  0  0  0  0  0
   36.8620   26.5060   34.2320 C   0  0  0  0  0  0  0  0  0  0  0  0
   38.1520   26.3360   35.0720 C   0  0  1  0  0  0  0  0  0  0  0  0
   38.3410   24.3430   36.6180 C   0  0  0  0  0  0  0  0  0  0  0  0
   38.4070   24.9020   35.3750 C   0  0  0  0  0  0  0  0  0  0  0  0
   38.7360   24.1100   34.2780 C   0  0  0  0  0  0  0  0  0  0  0  0
   38.9770   22.7930   34.4950 N   0  0  0  0  0  0  0  0  0  0  0  0
   38.8940   22.3000   35.7530 C   0  0  0  0  0  0  0  0  0  0  0  0
   38.5780   23.0670   36.8190 N   0  0  0  0  0  0  0  0  0  0  0  0
   37.9820   25.2410   37.6710 C   0  0  0  0  0  0  0  0  0  0  0  0
   37.9890   24.9850   38.9260 O   0  0  0  0  0  0  0  0  0  0  0  0
   39.3230   26.9120   34.4650 C   0  0  0  0  0  0  0  0  0  0  0  0
   40.4770   27.0680   35.1900 O   0  0  0  0  0  0  0  0  0  0  0  0
   35.7310   28.9600   34.4220 C   0  0  0  0  0  0  0  0  0  0  0  0
   34.1960   29.2650   34.4510 C   0  0  0  0  0  0  0  0  0  0  0  0
   36.2560   30.1570   35.1650 C   0  0  0  0  0  0  0  0  0  0  0  0
   39.1969   25.7752   30.4953 H   0  0  0  0  0  0  0  0  0  0  0  0
   37.4387   29.9572   29.5614 H   0  0  0  0  0  0  0  0  0  0  0  0
   35.9488   31.5275   30.6943 H   0  0  0  0  0  0  0  0  0  0  0  0
   35.1283   30.9404   32.9581 H   0  0  0  0  0  0  0  0  0  0  0  0
   36.1670   27.1968   34.7317 H   0  0  0  0  0  0  0  0  0  0  0  0
   36.3312   25.5510   34.1045 H   0  0  0  0  0  0  0  0  0  0  0  0
   37.9658   26.8917   36.0029 H   0  0  0  0  0  0  0  0  0  0  0  0
   38.7985   24.5390   33.2670 H   0  0  0  0  0  0  0  0  0  0  0  0
   39.0922   21.2300   35.9138 H   0  0  0  0  0  0  0  0  0  0  0  0
   37.6685   26.2526   37.3737 H   0  0  0  0  0  0  0  0  0  0  0  0
   39.5757   26.2774   33.6028 H   0  0  0  0  0  0  0  0  0  0  0  0
   39.0140   27.9486   34.2652 H   0  0  0  0  0  0  0  0  0  0  0  0
   40.2657   27.0394   36.1568 H   0  0  0  0  0  0  0  0  0  0  0  0
   36.0317   27.9849   34.8328 H   0  0  0  0  0  0  0  0  0  0  0  0
   33.8553   29.3327   35.4947 H   0  0  0  0  0  0  0  0  0  0  0  0
   34.0020   30.2192   33.9393 H   0  0  0  0  0  0  0  0  0  0  0  0
   33.6520   28.4574   33.9393 H   0  0  0  0  0  0  0  0  0  0  0  0
   36.1782   29.9796   36.2478 H   0  0  0  0  0  0  0  0  0  0  0  0
   37.3095   30.3228   34.8954 H   0  0  0  0  0  0  0  0  0  0  0  0
   35.6645   31.0443   34.8954 H   0  0  0  0  0  0  0  0  0  0  0  0
  1 11  1  0
  2  1  2  0
  3  2  1  0
  4  3  2  0
  4  5  1  0
  5 10  2  0
  6  5  1  0
  6  7  2  0
  7  8  1  0
  8  9  2  0
  9 23  1  0
 10  1  1  0
 10  9  1  0
 11 12  1  0
 12 14  1  0
 13 18  2  0
 13 19  1  0
 14 13  1  0
 15 16  1  0
 15 14  2  0
 16 17  2  0
 17 18  1  0
 19 20  2  0
 21 12  1  0
 21 22  1  0
 23 24  1  0
 23 25  1  0
  3 26  1  0
  6 27  1  0
  7 28  1  0
  8 29  1  0
 11 30  1  0
 11 31  1  0
 12 32  1  1
 15 33  1  0
 17 34  1  0
 19 35  1  0
 21 36  1  0
 21 37  1  0
 22 38  1  0
 23 39  1  0
 24 40  1  0
 24 41  1  0
 24 42  1  0
 25 43  1  0
 25 44  1  0
 25 45  1  0
M  ISO  8  26  14  27  14  28  14  29  14  30   8  31   8  32   8  33  14
M  ISO  8  34  14  35   6  36   8  37   8  38   3  39   8  40   8  41   8
M  ISO  4  42   8  43   8  44   8  45   8
M  END
>  <minimizedAffinity>  (1) 
-4.92491722

>  <minimizedRMSD>  (1) 
0.534392357

$$$$
