
     RDKit          3D

 55 58  0  0  1  0  0  0  0  0999 V2000
   36.1540   29.4870   32.4220 C   0  0  0  0  0  0  0  0  0  0  0  0
   36.8530   28.4790   31.8030 C   0  0  0  0  0  0  0  0  0  0  0  0
   37.1950   27.3620   32.5630 C   0  0  0  0  0  0  0  0  0  0  0  0
   36.8460   27.2730   33.8850 C   0  0  0  0  0  0  0  0  0  0  0  0
   36.1550   28.2730   34.4960 C   0  0  0  0  0  0  0  0  0  0  0  0
   35.8030   29.3870   33.7720 C   0  0  0  0  0  0  0  0  0  0  0  0
   37.3020   26.0130   34.5040 C   0  0  0  0  0  0  0  0  0  0  0  0
   38.7160   26.0230   34.9230 C   0  0  2  0  0  0  0  0  0  0  0  0
   40.6870   23.1730   36.1200 C   0  0  0  0  0  0  0  0  0  0  0  0
   39.8830   22.6540   37.1890 C   0  0  0  0  0  0  0  0  0  0  0  0
   38.6570   23.3000   37.4850 C   0  0  0  0  0  0  0  0  0  0  0  0
   38.3370   24.3870   36.7130 N   0  0  0  0  0  0  0  0  0  0  0  0
   39.1340   24.8440   35.7080 C   0  0  0  0  0  0  0  0  0  0  0  0
   40.2890   24.2510   35.4120 N   0  0  0  0  0  0  0  0  0  0  0  0
   38.9670   27.2780   35.7990 C   0  0  0  0  0  0  0  0  0  0  0  0
   35.7070   30.9020   31.5050 S   0  0  0  0  0  0  0  0  0  0  0  0
   36.2820   30.7400   30.1130 O   0  0  0  0  0  0  0  0  0  0  0  0
   36.3100   32.1490   32.0970 O   0  0  0  0  0  0  0  0  0  0  0  0
   33.9840   31.0780   31.4310 C   0  0  0  0  0  0  0  0  0  0  0  0
   32.9600   30.5120   32.0740 N   0  0  0  0  0  0  0  0  0  0  0  0
   31.8270   30.9990   31.6450 O   0  0  0  0  0  0  0  0  0  0  0  0
   32.0690   31.8930   30.7150 C   0  0  0  0  0  0  0  0  0  0  0  0
   33.3880   31.9450   30.5800 N   0  0  0  0  0  0  0  0  0  0  0  0
   31.0050   32.6200   30.0360 C   0  0  0  0  0  0  0  0  0  0  0  0
   30.7940   33.8280   30.3880 O   0  0  0  0  0  0  0  0  0  0  0  0
   30.1870   31.9650   28.9590 C   0  0  0  0  0  0  0  0  0  0  0  0
   30.0170   32.8480   27.7570 C   0  0  0  0  0  0  0  0  0  0  0  0
   28.5690   32.9750   27.3350 C   0  0  0  0  0  0  0  0  0  0  0  0
   27.6990   33.4050   28.4900 C   0  0  0  0  0  0  0  0  0  0  0  0
   27.8250   32.4950   29.6650 C   0  0  0  0  0  0  0  0  0  0  0  0
   28.9060   31.4510   29.5310 C   0  0  0  0  0  0  0  0  0  0  0  0
   37.1336   28.5513   30.7419 H   0  0  0  0  0  0  0  0  0  0  0  0
   37.7540   26.5388   32.0941 H   0  0  0  0  0  0  0  0  0  0  0  0
   35.8809   28.1909   35.5581 H   0  0  0  0  0  0  0  0  0  0  0  0
   35.2440   30.2017   34.2555 H   0  0  0  0  0  0  0  0  0  0  0  0
   36.6807   25.8196   35.3909 H   0  0  0  0  0  0  0  0  0  0  0  0
   37.2049   25.2305   33.7370 H   0  0  0  0  0  0  0  0  0  0  0  0
   39.3041   26.0183   33.9934 H   0  0  0  0  0  0  0  0  0  0  0  0
   41.6417   22.6852   35.8738 H   0  0  0  0  0  0  0  0  0  0  0  0
   40.2104   21.7758   37.7649 H   0  0  0  0  0  0  0  0  0  0  0  0
   37.9969   22.9480   38.2915 H   0  0  0  0  0  0  0  0  0  0  0  0
   38.9115   27.0003   36.8619 H   0  0  0  0  0  0  0  0  0  0  0  0
   39.9645   27.6858   35.5782 H   0  0  0  0  0  0  0  0  0  0  0  0
   38.2031   28.0380   35.5782 H   0  0  0  0  0  0  0  0  0  0  0  0
   30.7345   31.0915   28.5752 H   0  0  0  0  0  0  0  0  0  0  0  0
   30.4043   33.8493   27.9965 H   0  0  0  0  0  0  0  0  0  0  0  0
   30.5705   32.3906   26.9237 H   0  0  0  0  0  0  0  0  0  0  0  0
   28.4938   33.7226   26.5316 H   0  0  0  0  0  0  0  0  0  0  0  0
   28.2212   31.9920   26.9845 H   0  0  0  0  0  0  0  0  0  0  0  0
   27.9935   34.4198   28.7957 H   0  0  0  0  0  0  0  0  0  0  0  0
   26.6527   33.3741   28.1520 H   0  0  0  0  0  0  0  0  0  0  0  0
   28.0456   33.1069   30.5521 H   0  0  0  0  0  0  0  0  0  0  0  0
   26.8719   31.9518   29.7453 H   0  0  0  0  0  0  0  0  0  0  0  0
   28.5326   30.6501   28.8759 H   0  0  0  0  0  0  0  0  0  0  0  0
   29.1330   31.0990   30.5481 H   0  0  0  0  0  0  0  0  0  0  0  0
  1  6  1  0
  2  1  2  0
  2  3  1  0
  3  4  2  0
  4  5  1  0
  4  7  1  0
  6  5  2  0
  7  8  1  0
  8 13  1  0
  8 15  1  0
  9 10  2  0
 10 11  1  0
 12 11  2  0
 13 12  1  0
 14 13  2  0
 14  9  1  0
 16 18  2  0
 16  1  1  0
 17 16  2  0
 19 16  1  0
 19 20  2  0
 21 20  1  0
 22 21  1  0
 23 22  2  0
 23 19  1  0
 24 25  2  0
 24 22  1  0
 26 31  1  0
 26 24  1  0
 27 26  1  0
 28 27  1  0
 28 29  1  0
 29 30  1  0
 31 30  1  0
  2 32  1  0
  3 33  1  0
  5 34  1  0
  6 35  1  0
  7 36  1  0
  7 37  1  0
  8 38  1  6
  9 39  1  0
 10 40  1  0
 11 41  1  0
 15 42  1  0
 15 43  1  0
 15 44  1  0
 26 45  1  0
 27 46  1  0
 27 47  1  0
 28 48  1  0
 28 49  1  0
 29 50  1  0
 29 51  1  0
 30 52  1  0
 30 53  1  0
 31 54  1  0
 31 55  1  0
M  ISO  8  32  14  33  14  34  14  35  14  36   8  37   8  38   8  39  14
M  ISO  8  40  14  41  14  42   8  43   8  44   8  45  13  46  13  47  13
M  ISO  8  48  13  49  13  50  13  51  13  52  13  53  13  54  13  55  13
M  END
>  <minimizedAffinity>  (1) 
-5.50853586

>  <minimizedRMSD>  (1) 
2.16168523

$$$$
