
     RDKit          3D

 32 33  0  0  0  0  0  0  0  0999 V2000
   39.2410   25.2350   35.1790 C   0  0  0  0  0  0  0  0  0  0  0  0
   42.9070   25.8310   34.4970 C   0  0  0  0  0  0  0  0  0  0  0  0
   41.7520   25.2320   34.9910 C   0  0  0  0  0  0  0  0  0  0  0  0
   40.5150   25.8020   34.7010 C   0  0  0  0  0  0  0  0  0  0  0  0
   40.5000   26.9370   33.9360 N   0  0  0  0  0  0  0  0  0  0  0  0
   41.6360   27.4870   33.4780 C   0  0  0  0  0  0  0  0  0  0  0  0
   42.8320   26.9510   33.7470 N   0  0  0  0  0  0  0  0  0  0  0  0
   38.4300   26.2140   36.0090 C   0  0  0  0  0  0  0  0  0  0  0  0
   38.3800   24.8840   33.9820 C   0  0  0  0  0  0  0  0  0  0  0  0
   39.5760   23.9900   35.9670 C   0  0  0  0  0  0  0  0  0  0  0  0
   38.4120   23.2240   36.3570 N   0  0  0  0  0  0  0  0  0  0  0  0
   37.9730   22.4210   35.3400 C   0  0  0  0  0  0  0  0  0  0  0  0
   36.8780   21.5920   35.4820 C   0  0  0  0  0  0  0  0  0  0  0  0
   36.2000   21.5680   36.6820 C   0  0  0  0  0  0  0  0  0  0  0  0
   35.1890   20.8550   36.9330 O   0  0  0  0  0  0  0  0  0  0  0  0
   36.6710   22.3750   37.6480 N   0  0  0  0  0  0  0  0  0  0  0  0
   37.7280   23.1770   37.5140 C   0  0  0  0  0  0  0  0  0  0  0  0
   38.1950   23.9410   38.3860 O   0  0  0  0  0  0  0  0  0  0  0  0
   43.8891   25.3882   34.7195 H   0  0  0  0  0  0  0  0  0  0  0  0
   41.8154   24.3200   35.6027 H   0  0  0  0  0  0  0  0  0  0  0  0
   41.5821   28.4001   32.8670 H   0  0  0  0  0  0  0  0  0  0  0  0
   38.5958   26.0138   37.0778 H   0  0  0  0  0  0  0  0  0  0  0  0
   38.7449   27.2417   35.7753 H   0  0  0  0  0  0  0  0  0  0  0  0
   37.3616   26.0958   35.7753 H   0  0  0  0  0  0  0  0  0  0  0  0
   37.4133   24.4899   34.3286 H   0  0  0  0  0  0  0  0  0  0  0  0
   38.2119   25.7854   33.3743 H   0  0  0  0  0  0  0  0  0  0  0  0
   38.8900   24.1220   33.3743 H   0  0  0  0  0  0  0  0  0  0  0  0
   40.2230   23.3502   35.3489 H   0  0  0  0  0  0  0  0  0  0  0  0
   40.0738   24.3163   36.8920 H   0  0  0  0  0  0  0  0  0  0  0  0
   38.5090   22.4363   34.3795 H   0  0  0  0  0  0  0  0  0  0  0  0
   36.5499   20.9570   34.6459 H   0  0  0  0  0  0  0  0  0  0  0  0
   36.1818   22.3740   38.5544 H   0  0  0  0  0  0  0  0  0  0  0  0
  1 10  1  0
  1  8  1  0
  2  3  2  0
  4  3  1  0
  4  1  1  0
  5  4  2  0
  6  7  2  0
  6  5  1  0
  7  2  1  0
  9  1  1  0
 10 11  1  0
 11 17  1  0
 12 13  2  0
 12 11  1  0
 13 14  1  0
 14 15  2  0
 14 16  1  0
 17 16  1  0
 17 18  2  0
  2 19  1  0
  3 20  1  0
  6 21  1  0
  8 22  1  0
  8 23  1  0
  8 24  1  0
  9 25  1  0
  9 26  1  0
  9 27  1  0
 10 28  1  0
 10 29  1  0
 12 30  1  0
 13 31  1  0
 16 32  1  0
M  ISO  8  19  14  20  14  21  14  22   8  23   8  24   8  25   8  26   8
M  ISO  6  27   8  28   8  29   8  30  14  31  14  32   9
M  END
>  <minimizedAffinity>  (1) 
-4.31016254

>  <minimizedRMSD>  (1) 
4.49643946

$$$$
