
     RDKit          3D

 33 35  0  0  0  0  0  0  0  0999 V2000
   38.8040   23.1220   35.5320 C   0  0  0  0  0  0  0  0  0  0  0  0
   36.3030   21.0220   33.6490 C   0  0  0  0  0  0  0  0  0  0  0  0
   37.3980   21.8640   33.8870 C   0  0  0  0  0  0  0  0  0  0  0  0
   37.6800   22.2480   35.2130 C   0  0  0  0  0  0  0  0  0  0  0  0
   36.8710   21.7810   36.1920 N   0  0  0  0  0  0  0  0  0  0  0  0
   35.8280   20.9760   35.9390 C   0  0  0  0  0  0  0  0  0  0  0  0
   35.5350   20.5900   34.6710 N   0  0  0  0  0  0  0  0  0  0  0  0
   38.4070   24.5470   35.8170 C   0  0  0  0  0  0  0  0  0  0  0  0
   39.4790   22.6040   36.8130 C   0  0  0  0  0  0  0  0  0  0  0  0
   39.8120   23.0290   34.3980 C   0  0  0  0  0  0  0  0  0  0  0  0
   41.1240   23.4770   34.8560 N   0  0  0  0  0  0  0  0  0  0  0  0
   41.5350   24.7610   35.0450 C   0  0  0  0  0  0  0  0  0  0  0  0
   42.8240   24.7570   35.4770 N   0  0  0  0  0  0  0  0  0  0  0  0
   43.2560   23.4680   35.5700 C   0  0  0  0  0  0  0  0  0  0  0  0
   44.4700   22.9160   35.9550 C   0  0  0  0  0  0  0  0  0  0  0  0
   44.6040   21.5580   35.9440 N   0  0  0  0  0  0  0  0  0  0  0  0
   43.5480   20.8140   35.5600 C   0  0  0  0  0  0  0  0  0  0  0  0
   42.3750   21.3600   35.1890 N   0  0  0  0  0  0  0  0  0  0  0  0
   42.1870   22.6880   35.1800 C   0  0  0  0  0  0  0  0  0  0  0  0
   36.0677   20.7108   32.6205 H   0  0  0  0  0  0  0  0  0  0  0  0
   38.0247   22.2179   33.0551 H   0  0  0  0  0  0  0  0  0  0  0  0
   35.2010   20.6236   36.7713 H   0  0  0  0  0  0  0  0  0  0  0  0
   38.3630   24.7048   36.9047 H   0  0  0  0  0  0  0  0  0  0  0  0
   39.1492   25.2294   35.3772 H   0  0  0  0  0  0  0  0  0  0  0  0
   37.4188   24.7473   35.3772 H   0  0  0  0  0  0  0  0  0  0  0  0
   38.9546   23.0064   37.6922 H   0  0  0  0  0  0  0  0  0  0  0  0
   39.4358   21.5050   36.8315 H   0  0  0  0  0  0  0  0  0  0  0  0
   40.5294   22.9300   36.8315 H   0  0  0  0  0  0  0  0  0  0  0  0
   39.4810   23.6650   33.5637 H   0  0  0  0  0  0  0  0  0  0  0  0
   39.8843   21.9831   34.0650 H   0  0  0  0  0  0  0  0  0  0  0  0
   40.9220   25.6584   34.8753 H   0  0  0  0  0  0  0  0  0  0  0  0
   45.3070   23.5601   36.2627 H   0  0  0  0  0  0  0  0  0  0  0  0
   43.6485   19.7187   35.5494 H   0  0  0  0  0  0  0  0  0  0  0  0
  1  8  1  0
  1  9  1  0
  2  3  2  0
  2  7  1  0
  3  4  1  0
  4  1  1  0
  4  5  2  0
  6  5  1  0
  7  6  2  0
 10 11  1  0
 10  1  1  0
 11 12  1  0
 11 19  1  0
 12 13  2  0
 13 14  1  0
 14 15  2  0
 16 15  1  0
 17 16  2  0
 18 17  1  0
 19 18  2  0
 19 14  1  0
  2 20  1  0
  3 21  1  0
  6 22  1  0
  8 23  1  0
  8 24  1  0
  8 25  1  0
  9 26  1  0
  9 27  1  0
  9 28  1  0
 10 29  1  0
 10 30  1  0
 12 31  1  0
 15 32  1  0
 17 33  1  0
M  ISO  8  20  14  21  14  22  14  23   8  24   8  25   8  26   8  27   8
M  ISO  6  28   8  29   8  30   8  31  14  32  14  33  14
M  END
>  <minimizedAffinity>  (1) 
-3.75703573

>  <minimizedRMSD>  (1) 
6.93812561

$$$$
