
     RDKit          3D

 35 37  0  0  0  0  0  0  0  0999 V2000
   40.2450   22.7990   35.3830 C   0  0  0  0  0  0  0  0  0  0  0  0
   38.5510   21.0320   32.5370 C   0  0  0  0  0  0  0  0  0  0  0  0
   39.5640   21.6080   33.3010 C   0  0  0  0  0  0  0  0  0  0  0  0
   39.2380   22.1670   34.5380 C   0  0  0  0  0  0  0  0  0  0  0  0
   37.9440   22.1280   34.9480 N   0  0  0  0  0  0  0  0  0  0  0  0
   36.9880   21.5590   34.1770 C   0  0  0  0  0  0  0  0  0  0  0  0
   37.2760   21.0150   32.9840 N   0  0  0  0  0  0  0  0  0  0  0  0
   39.9500   24.2560   35.6860 C   0  0  0  0  0  0  0  0  0  0  0  0
   40.2520   22.1180   36.7590 C   0  0  0  0  0  0  0  0  0  0  0  0
   41.6020   22.6010   34.7380 C   0  0  0  0  0  0  0  0  0  0  0  0
   42.2940   23.8950   34.6140 N   0  0  0  0  0  0  0  0  0  0  0  0
   42.0550   24.7410   33.5730 C   0  0  0  0  0  0  0  0  0  0  0  0
   42.8180   25.8510   33.7010 N   0  0  0  0  0  0  0  0  0  0  0  0
   43.5520   25.7090   34.8380 C   0  0  0  0  0  0  0  0  0  0  0  0
   44.4980   26.4450   35.5330 C   0  0  0  0  0  0  0  0  0  0  0  0
   45.0370   25.9790   36.6740 N   0  0  0  0  0  0  0  0  0  0  0  0
   44.6900   24.7790   37.1970 C   0  0  0  0  0  0  0  0  0  0  0  0
   43.7650   24.0480   36.5270 N   0  0  0  0  0  0  0  0  0  0  0  0
   43.2170   24.5010   35.3850 C   0  0  0  0  0  0  0  0  0  0  0  0
   44.8560   27.7130   34.9670 N   0  0  0  0  0  0  0  0  0  0  0  0
   38.7917   20.5867   31.5604 H   0  0  0  0  0  0  0  0  0  0  0  0
   40.6016   21.6220   32.9361 H   0  0  0  0  0  0  0  0  0  0  0  0
   35.9488   21.5419   34.5371 H   0  0  0  0  0  0  0  0  0  0  0  0
   39.9198   24.4051   36.7754 H   0  0  0  0  0  0  0  0  0  0  0  0
   40.7384   24.8879   35.2511 H   0  0  0  0  0  0  0  0  0  0  0  0
   38.9779   24.5314   35.2511 H   0  0  0  0  0  0  0  0  0  0  0  0
   40.2441   22.8848   37.5476 H   0  0  0  0  0  0  0  0  0  0  0  0
   39.3604   21.4814   36.8576 H   0  0  0  0  0  0  0  0  0  0  0  0
   41.1565   21.4999   36.8576 H   0  0  0  0  0  0  0  0  0  0  0  0
   42.2055   21.9232   35.3596 H   0  0  0  0  0  0  0  0  0  0  0  0
   41.4660   22.1667   33.7366 H   0  0  0  0  0  0  0  0  0  0  0  0
   41.3481   24.5503   32.7521 H   0  0  0  0  0  0  0  0  0  0  0  0
   45.1415   24.4111   38.1302 H   0  0  0  0  0  0  0  0  0  0  0  0
   45.5538   28.3078   35.4362 H   0  0  0  0  0  0  0  0  0  0  0  0
   44.4153   28.0289   34.0913 H   0  0  0  0  0  0  0  0  0  0  0  0
  1  8  1  0
  1  9  1  0
  2  7  2  0
  2  3  1  0
  3  4  2  0
  4  5  1  0
  4  1  1  0
  6  5  2  0
  7  6  1  0
 10  1  1  0
 11 10  1  0
 11 19  1  0
 12 13  2  0
 12 11  1  0
 13 14  1  0
 14 19  2  0
 14 15  1  0
 15 16  2  0
 16 17  1  0
 18 17  2  0
 19 18  1  0
 20 15  1  0
  2 21  1  0
  3 22  1  0
  6 23  1  0
  8 24  1  0
  8 25  1  0
  8 26  1  0
  9 27  1  0
  9 28  1  0
  9 29  1  0
 10 30  1  0
 10 31  1  0
 12 32  1  0
 17 33  1  0
 20 34  1  0
 20 35  1  0
M  ISO  8  21  14  22  14  23  14  24   8  25   8  26   8  27   8  28   8
M  ISO  5  29   8  30   8  31   8  32  14  33  14
M  END
>  <minimizedAffinity>  (1) 
-3.86845255

>  <minimizedRMSD>  (1) 
7.59272718

$$$$
