
     RDKit          3D

 27 28  0  0  0  0  0  0  0  0999 V2000
   41.0050   21.9370   37.5120 C   0  0  0  0  0  0  0  0  0  0  0  0
   39.9550   22.8510   37.6900 C   0  0  0  0  0  0  0  0  0  0  0  0
   39.2860   23.3260   36.5620 C   0  0  0  0  0  0  0  0  0  0  0  0
   39.6910   22.8720   35.3430 N   0  0  0  0  0  0  0  0  0  0  0  0
   40.6990   21.9970   35.2000 C   0  0  0  0  0  0  0  0  0  0  0  0
   41.3500   21.5320   36.2660 N   0  0  0  0  0  0  0  0  0  0  0  0
   37.9460   24.4880   36.7330 S   0  0  0  0  0  0  0  0  0  0  0  0
   38.2780   26.0460   35.8740 C   0  0  0  0  0  0  0  0  0  0  0  0
   39.6550   25.9390   35.2790 C   0  0  0  0  0  0  0  0  0  0  0  0
   39.9870   27.0940   34.3740 C   0  0  0  0  0  0  0  0  0  0  0  0
   38.9950   27.0570   33.2450 C   0  0  0  0  0  0  0  0  0  0  0  0
   37.6370   27.3540   33.8310 C   0  0  0  0  0  0  0  0  0  0  0  0
   37.2090   26.3580   34.8600 C   0  0  0  0  0  0  0  0  0  0  0  0
   41.5489   21.5487   38.3857 H   0  0  0  0  0  0  0  0  0  0  0  0
   39.6659   23.1855   38.6972 H   0  0  0  0  0  0  0  0  0  0  0  0
   40.9903   21.6608   34.1940 H   0  0  0  0  0  0  0  0  0  0  0  0
   38.2517   26.8964   36.5712 H   0  0  0  0  0  0  0  0  0  0  0  0
   40.3904   25.9096   36.0965 H   0  0  0  0  0  0  0  0  0  0  0  0
   39.6848   25.0219   34.6723 H   0  0  0  0  0  0  0  0  0  0  0  0
   39.9009   28.0431   34.9234 H   0  0  0  0  0  0  0  0  0  0  0  0
   41.0178   27.0183   33.9977 H   0  0  0  0  0  0  0  0  0  0  0  0
   38.9937   26.0613   32.7776 H   0  0  0  0  0  0  0  0  0  0  0  0
   39.2560   27.7958   32.4730 H   0  0  0  0  0  0  0  0  0  0  0  0
   37.6683   28.3489   34.2992 H   0  0  0  0  0  0  0  0  0  0  0  0
   36.9086   27.3073   33.0081 H   0  0  0  0  0  0  0  0  0  0  0  0
   36.3327   26.7594   35.3900 H   0  0  0  0  0  0  0  0  0  0  0  0
   36.9823   25.4213   34.3296 H   0  0  0  0  0  0  0  0  0  0  0  0
  1  2  2  0
  3  7  1  0
  3  2  1  0
  4  3  2  0
  5  4  1  0
  5  6  2  0
  6  1  1  0
  8  7  1  0
  9  8  1  0
 10  9  1  0
 11 12  1  0
 11 10  1  0
 12 13  1  0
 13  8  1  0
  1 14  1  0
  2 15  1  0
  5 16  1  0
  8 17  1  0
  9 18  1  0
  9 19  1  0
 10 20  1  0
 10 21  1  0
 11 22  1  0
 11 23  1  0
 12 24  1  0
 12 25  1  0
 13 26  1  0
 13 27  1  0
M  ISO  8  14  14  15  14  16  14  17  13  18  13  19  13  20  13  21  13
M  ISO  6  22  13  23  13  24  13  25  13  26  13  27  13
M  END
>  <minimizedAffinity>  (1) 
-3.74375868

>  <minimizedRMSD>  (1) 
2.40666223

$$$$
