
     RDKit          3D

 28 29  0  0  0  0  0  0  0  0999 V2000
   41.7530   22.2000   36.3580 C   0  0  0  0  0  0  0  0  0  0  0  0
   44.0530   19.2910   37.0070 C   0  0  0  0  0  0  0  0  0  0  0  0
   42.9060   20.0790   36.9990 C   0  0  0  0  0  0  0  0  0  0  0  0
   42.9260   21.3330   36.3890 C   0  0  0  0  0  0  0  0  0  0  0  0
   44.0910   21.7560   35.8110 N   0  0  0  0  0  0  0  0  0  0  0  0
   45.1910   20.9720   35.8330 C   0  0  0  0  0  0  0  0  0  0  0  0
   45.1880   19.7610   36.4160 N   0  0  0  0  0  0  0  0  0  0  0  0
   42.0960   23.6820   36.3890 C   0  0  0  0  0  0  0  0  0  0  0  0
   41.0090   21.9970   35.0270 C   0  0  0  0  0  0  0  0  0  0  0  0
   40.8300   21.7970   37.4880 C   0  0  0  0  0  0  0  0  0  0  0  0
   39.6490   22.6750   37.5260 N   0  0  0  0  0  0  0  0  0  0  0  0
   39.2430   23.5160   38.4950 C   0  0  0  0  0  0  0  0  0  0  0  0
   38.1010   24.1300   38.1140 N   0  0  0  0  0  0  0  0  0  0  0  0
   37.7930   23.6550   36.8730 C   0  0  0  0  0  0  0  0  0  0  0  0
   38.7550   22.7730   36.5480 N   0  0  0  0  0  0  0  0  0  0  0  0
   44.0439   18.3002   37.4847 H   0  0  0  0  0  0  0  0  0  0  0  0
   41.9837   19.7129   37.4737 H   0  0  0  0  0  0  0  0  0  0  0  0
   46.1155   21.3351   35.3603 H   0  0  0  0  0  0  0  0  0  0  0  0
   42.1739   24.0186   37.4333 H   0  0  0  0  0  0  0  0  0  0  0  0
   43.0561   23.8469   35.8780 H   0  0  0  0  0  0  0  0  0  0  0  0
   41.3060   24.2520   35.8780 H   0  0  0  0  0  0  0  0  0  0  0  0
   39.9660   21.7124   35.2297 H   0  0  0  0  0  0  0  0  0  0  0  0
   41.0281   22.9332   34.4498 H   0  0  0  0  0  0  0  0  0  0  0  0
   41.5009   21.2002   34.4498 H   0  0  0  0  0  0  0  0  0  0  0  0
   40.5038   20.7576   37.3359 H   0  0  0  0  0  0  0  0  0  0  0  0
   41.3724   21.8883   38.4406 H   0  0  0  0  0  0  0  0  0  0  0  0
   39.7616   23.6788   39.4513 H   0  0  0  0  0  0  0  0  0  0  0  0
   36.9263   23.9382   36.2576 H   0  0  0  0  0  0  0  0  0  0  0  0
  1  8  1  0
  1  4  1  0
  1 10  1  0
  3  2  2  0
  4  3  1  0
  5  6  1  0
  5  4  2  0
  6  7  2  0
  7  2  1  0
  9  1  1  0
 10 11  1  0
 11 12  1  0
 13 12  2  0
 14 13  1  0
 15 14  2  0
 15 11  1  0
  2 16  1  0
  3 17  1  0
  6 18  1  0
  8 19  1  0
  8 20  1  0
  8 21  1  0
  9 22  1  0
  9 23  1  0
  9 24  1  0
 10 25  1  0
 10 26  1  0
 12 27  1  0
 14 28  1  0
M  ISO  8  16  14  17  14  18  14  19   8  20   8  21   8  22   8  23   8
M  ISO  5  24   8  25   8  26   8  27  14  28  14
M  END
>  <minimizedAffinity>  (1) 
-3.3389256

>  <minimizedRMSD>  (1) 
3.87325478

$$$$
