
     RDKit          3D

 34 35  0  0  0  0  0  0  0  0999 V2000
   38.2230   25.9510   33.9860 C   0  0  0  0  0  0  0  0  0  0  0  0
   41.7870   27.1670   33.8990 C   0  0  0  0  0  0  0  0  0  0  0  0
   40.5910   26.6470   34.3850 C   0  0  0  0  0  0  0  0  0  0  0  0
   39.5050   26.4900   33.5270 C   0  0  0  0  0  0  0  0  0  0  0  0
   39.6740   26.8620   32.2370 N   0  0  0  0  0  0  0  0  0  0  0  0
   40.8330   27.3610   31.7870 C   0  0  0  0  0  0  0  0  0  0  0  0
   41.8960   27.5190   32.6040 N   0  0  0  0  0  0  0  0  0  0  0  0
   37.0650   26.9160   33.7890 C   0  0  0  0  0  0  0  0  0  0  0  0
   37.8810   24.7450   33.0900 C   0  0  0  0  0  0  0  0  0  0  0  0
   38.3610   25.5220   35.4130 C   0  0  0  0  0  0  0  0  0  0  0  0
   38.5190   24.1110   35.6510 N   0  0  0  0  0  0  0  0  0  0  0  0
   37.6050   23.8440   36.7790 C   0  0  0  0  0  0  0  0  0  0  0  0
   38.5460   23.5770   37.9360 C   0  0  0  0  0  0  0  0  0  0  0  0
   39.4990   22.6550   37.1840 C   0  0  0  0  0  0  0  0  0  0  0  0
   39.7880   23.6300   36.0230 C   0  0  0  0  0  0  0  0  0  0  0  0
   42.6459   27.2908   34.5750 H   0  0  0  0  0  0  0  0  0  0  0  0
   40.5036   26.3609   35.4435 H   0  0  0  0  0  0  0  0  0  0  0  0
   40.9204   27.6482   30.7288 H   0  0  0  0  0  0  0  0  0  0  0  0
   36.6825   27.2348   34.7698 H   0  0  0  0  0  0  0  0  0  0  0  0
   37.4123   27.7957   33.2273 H   0  0  0  0  0  0  0  0  0  0  0  0
   36.2623   26.4158   33.2273 H   0  0  0  0  0  0  0  0  0  0  0  0
   37.6351   23.8778   33.7205 H   0  0  0  0  0  0  0  0  0  0  0  0
   37.0178   24.9931   32.4549 H   0  0  0  0  0  0  0  0  0  0  0  0
   38.7460   24.5031   32.4549 H   0  0  0  0  0  0  0  0  0  0  0  0
   39.2421   26.0313   35.8306 H   0  0  0  0  0  0  0  0  0  0  0  0
   37.4067   25.7907   35.8895 H   0  0  0  0  0  0  0  0  0  0  0  0
   36.9667   24.7162   36.9837 H   0  0  0  0  0  0  0  0  0  0  0  0
   36.9147   23.0099   36.5849 H   0  0  0  0  0  0  0  0  0  0  0  0
   39.0405   24.4909   38.2970 H   0  0  0  0  0  0  0  0  0  0  0  0
   38.0962   23.1781   38.8572 H   0  0  0  0  0  0  0  0  0  0  0  0
   40.3994   22.4090   37.7660 H   0  0  0  0  0  0  0  0  0  0  0  0
   39.1236   21.6560   36.9175 H   0  0  0  0  0  0  0  0  0  0  0  0
   40.2677   23.1055   35.1835 H   0  0  0  0  0  0  0  0  0  0  0  0
   40.4760   24.4378   36.3131 H   0  0  0  0  0  0  0  0  0  0  0  0
  1 10  1  0
  2  3  2  0
  4  1  1  0
  4  3  1  0
  5  4  2  0
  6  5  1  0
  6  7  2  0
  7  2  1  0
  8  1  1  0
  9  1  1  0
 10 11  1  0
 11 15  1  0
 11 12  1  0
 12 13  1  0
 14 13  1  0
 15 14  1  0
  2 16  1  0
  3 17  1  0
  6 18  1  0
  8 19  1  0
  8 20  1  0
  8 21  1  0
  9 22  1  0
  9 23  1  0
  9 24  1  0
 10 25  1  0
 10 26  1  0
 12 27  1  0
 12 28  1  0
 13 29  1  0
 13 30  1  0
 14 31  1  0
 14 32  1  0
 15 33  1  0
 15 34  1  0
M  ISO  8  16  14  17  14  18  14  19   8  20   8  21   8  22   8  23   8
M  ISO  8  24   8  25   8  26   8  27  13  28  13  29  13  30  13  31  13
M  ISO  3  32  13  33  13  34  13
M  END
>  <minimizedAffinity>  (1) 
-3.55132246

>  <minimizedRMSD>  (1) 
4.85291243

$$$$
