
     RDKit          3D

 23 23  0  0  0  0  0  0  0  0999 V2000
   39.1220   23.0780   36.6880 C   0  0  0  0  0  0  0  0  0  0  0  0
   42.2570   21.0480   37.0970 C   0  0  0  0  0  0  0  0  0  0  0  0
   41.0970   21.7450   37.4270 C   0  0  0  0  0  0  0  0  0  0  0  0
   40.3410   22.3280   36.4110 C   0  0  0  0  0  0  0  0  0  0  0  0
   40.7730   22.1890   35.1350 N   0  0  0  0  0  0  0  0  0  0  0  0
   41.8970   21.5130   34.8270 C   0  0  0  0  0  0  0  0  0  0  0  0
   42.6400   20.9440   35.7970 N   0  0  0  0  0  0  0  0  0  0  0  0
   39.0930   24.4560   36.0420 C   0  0  0  0  0  0  0  0  0  0  0  0
   37.9220   22.3350   36.0870 C   0  0  0  0  0  0  0  0  0  0  0  0
   38.9410   23.1640   38.1890 C   0  0  0  0  0  0  0  0  0  0  0  0
   37.8890   24.6310   38.5180 S   0  0  0  0  0  0  0  0  0  0  0  0
   42.8628   20.5820   37.8881 H   0  0  0  0  0  0  0  0  0  0  0  0
   40.7812   21.8344   38.4769 H   0  0  0  0  0  0  0  0  0  0  0  0
   42.2106   21.4248   33.7763 H   0  0  0  0  0  0  0  0  0  0  0  0
   39.0768   25.2280   36.8255 H   0  0  0  0  0  0  0  0  0  0  0  0
   39.9886   24.5868   35.4169 H   0  0  0  0  0  0  0  0  0  0  0  0
   38.1927   24.5490   35.4169 H   0  0  0  0  0  0  0  0  0  0  0  0
   37.2897   21.9435   36.8975 H   0  0  0  0  0  0  0  0  0  0  0  0
   37.3351   23.0280   35.4663 H   0  0  0  0  0  0  0  0  0  0  0  0
   38.2807   21.5007   35.4663 H   0  0  0  0  0  0  0  0  0  0  0  0
   38.4486   22.2543   38.5631 H   0  0  0  0  0  0  0  0  0  0  0  0
   39.9122   23.2549   38.6974 H   0  0  0  0  0  0  0  0  0  0  0  0
   37.7621   24.8079   39.8706 H   0  0  0  0  0  0  0  0  0  0  0  0
  1 10  1  0
  2  3  2  0
  4  1  1  0
  4  3  1  0
  5  4  2  0
  6  5  1  0
  6  7  2  0
  7  2  1  0
  8  1  1  0
  9  1  1  0
 10 11  1  0
  2 12  1  0
  3 13  1  0
  6 14  1  0
  8 15  1  0
  8 16  1  0
  8 17  1  0
  9 18  1  0
  9 19  1  0
  9 20  1  0
 10 21  1  0
 10 22  1  0
 11 23  1  0
M  ISO  8  12  14  13  14  14  14  15   8  16   8  17   8  18   8  19   8
M  ISO  4  20   8  21   8  22   8  23  11
M  END
>  <minimizedAffinity>  (1) 
-2.95487118

>  <minimizedRMSD>  (1) 
1.05200291

$$$$
