
     RDKit          3D

 24 24  0  0  0  0  0  0  0  0999 V2000
   38.5490   23.4090   37.0360 C   0  0  0  0  0  0  0  0  0  0  0  0
   41.7960   21.5090   37.0880 C   0  0  0  0  0  0  0  0  0  0  0  0
   40.6530   22.1560   37.5540 C   0  0  0  0  0  0  0  0  0  0  0  0
   39.7640   22.7100   36.6310 C   0  0  0  0  0  0  0  0  0  0  0  0
   40.0570   22.5910   35.3150 N   0  0  0  0  0  0  0  0  0  0  0  0
   41.1690   21.9610   34.8840 C   0  0  0  0  0  0  0  0  0  0  0  0
   42.0340   21.4230   35.7570 N   0  0  0  0  0  0  0  0  0  0  0  0
   38.4020   24.7880   36.4350 C   0  0  0  0  0  0  0  0  0  0  0  0
   37.3270   22.6150   36.5490 C   0  0  0  0  0  0  0  0  0  0  0  0
   38.5220   23.4560   38.5570 C   0  0  0  0  0  0  0  0  0  0  0  0
   37.9680   24.7750   38.9100 N   0  0  0  0  0  0  0  0  0  0  0  0
   42.5064   21.0672   37.8023 H   0  0  0  0  0  0  0  0  0  0  0  0
   40.4541   22.2291   38.6334 H   0  0  0  0  0  0  0  0  0  0  0  0
   41.3688   21.8875   33.8048 H   0  0  0  0  0  0  0  0  0  0  0  0
   38.3226   25.5326   37.2408 H   0  0  0  0  0  0  0  0  0  0  0  0
   39.2813   25.0127   35.8134 H   0  0  0  0  0  0  0  0  0  0  0  0
   37.4951   24.8223   35.8134 H   0  0  0  0  0  0  0  0  0  0  0  0
   36.7598   22.2464   37.4164 H   0  0  0  0  0  0  0  0  0  0  0  0
   36.6839   23.2682   35.9410 H   0  0  0  0  0  0  0  0  0  0  0  0
   37.6626   21.7619   35.9410 H   0  0  0  0  0  0  0  0  0  0  0  0
   37.8823   22.6537   38.9534 H   0  0  0  0  0  0  0  0  0  0  0  0
   39.5256   23.3120   38.9836 H   0  0  0  0  0  0  0  0  0  0  0  0
   37.9290   24.8678   39.9351 H   0  0  0  0  0  0  0  0  0  0  0  0
   38.5692   25.5152   38.5208 H   0  0  0  0  0  0  0  0  0  0  0  0
  1 10  1  0
  2  3  2  0
  4  1  1  0
  4  3  1  0
  5  4  2  0
  6  5  1  0
  6  7  2  0
  7  2  1  0
  8  1  1  0
  9  1  1  0
 10 11  1  0
  2 12  1  0
  3 13  1  0
  6 14  1  0
  8 15  1  0
  8 16  1  0
  8 17  1  0
  9 18  1  0
  9 19  1  0
  9 20  1  0
 10 21  1  0
 10 22  1  0
 11 23  1  0
 11 24  1  0
M  ISO  8  12  14  13  14  14  14  15   8  16   8  17   8  18   8  19   8
M  ISO  5  20   8  21   8  22   8  23   5  24   5
M  END
>  <minimizedAffinity>  (1) 
-3.32541776

>  <minimizedRMSD>  (1) 
0.369618028

$$$$
