
     RDKit          3D

 46 50  0  0  0  0  0  0  0  0999 V2000
   40.8730   22.1940   36.1100 N   0  0  0  0  0  0  0  0  0  0  0  0
   40.9910   21.9230   37.4410 C   0  0  0  0  0  0  0  0  0  0  0  0
   40.0490   22.6140   38.1230 N   0  0  0  0  0  0  0  0  0  0  0  0
   39.3240   23.3330   37.2240 C   0  0  0  0  0  0  0  0  0  0  0  0
   38.2540   24.2170   37.2500 C   0  0  0  0  0  0  0  0  0  0  0  0
   37.7740   24.7600   36.1290 N   0  0  0  0  0  0  0  0  0  0  0  0
   38.3070   24.4750   34.9050 C   0  0  0  0  0  0  0  0  0  0  0  0
   39.3530   23.6110   34.8700 N   0  0  0  0  0  0  0  0  0  0  0  0
   39.8440   23.0600   35.9950 C   0  0  0  0  0  0  0  0  0  0  0  0
   37.7300   24.5140   38.5410 N   0  0  0  0  0  0  0  0  0  0  0  0
   37.7690   25.0700   33.7280 N   0  0  0  0  0  0  0  0  0  0  0  0
   37.7520   24.5860   32.4800 C   0  0  0  0  0  0  0  0  0  0  0  0
   37.1540   25.4660   31.6910 N   0  0  0  0  0  0  0  0  0  0  0  0
   36.7940   26.5050   32.4440 C   0  0  0  0  0  0  0  0  0  0  0  0
   36.1440   27.7120   32.1890 C   0  0  0  0  0  0  0  0  0  0  0  0
   35.9090   28.5950   33.1750 N   0  0  0  0  0  0  0  0  0  0  0  0
   36.2960   28.3490   34.4590 C   0  0  0  0  0  0  0  0  0  0  0  0
   36.9350   27.1860   34.7660 N   0  0  0  0  0  0  0  0  0  0  0  0
   37.1740   26.2890   33.7660 C   0  0  0  0  0  0  0  0  0  0  0  0
   41.7620   21.6110   35.0700 C   0  0  0  0  0  0  0  0  0  0  0  0
   43.0220   22.3800   35.0000 C   0  0  0  0  0  0  0  0  0  0  0  0
   45.1200   19.6280   36.3530 C   0  0  0  0  0  0  0  0  0  0  0  0
   43.9860   20.3270   35.9010 C   0  0  0  0  0  0  0  0  0  0  0  0
   44.1550   21.6380   35.4910 C   0  0  0  0  0  0  0  0  0  0  0  0
   45.3860   22.1810   35.5450 N   0  0  0  0  0  0  0  0  0  0  0  0
   46.4520   21.4860   35.9830 C   0  0  0  0  0  0  0  0  0  0  0  0
   46.3340   20.2230   36.3850 N   0  0  0  0  0  0  0  0  0  0  0  0
   42.9220   23.7800   35.6360 C   0  0  0  0  0  0  0  0  0  0  0  0
   43.2770   22.7750   33.5140 C   0  0  0  0  0  0  0  0  0  0  0  0
   41.7352   21.2485   37.8897 H   0  0  0  0  0  0  0  0  0  0  0  0
   36.9354   25.1622   38.6377 H   0  0  0  0  0  0  0  0  0  0  0  0
   38.1457   24.0805   39.3778 H   0  0  0  0  0  0  0  0  0  0  0  0
   38.1661   23.6177   32.1623 H   0  0  0  0  0  0  0  0  0  0  0  0
   35.8183   27.9454   31.1646 H   0  0  0  0  0  0  0  0  0  0  0  0
   36.0923   29.0894   35.2466 H   0  0  0  0  0  0  0  0  0  0  0  0
   41.9863   20.5650   35.3260 H   0  0  0  0  0  0  0  0  0  0  0  0
   41.2559   21.6535   34.0943 H   0  0  0  0  0  0  0  0  0  0  0  0
   45.0180   18.5842   36.6846 H   0  0  0  0  0  0  0  0  0  0  0  0
   42.9966   19.8470   35.8743 H   0  0  0  0  0  0  0  0  0  0  0  0
   47.4390   21.9709   36.0092 H   0  0  0  0  0  0  0  0  0  0  0  0
   42.9287   23.6862   36.7320 H   0  0  0  0  0  0  0  0  0  0  0  0
   43.7788   24.3906   35.3150 H   0  0  0  0  0  0  0  0  0  0  0  0
   41.9871   24.2626   35.3150 H   0  0  0  0  0  0  0  0  0  0  0  0
   43.8733   23.6986   33.4773 H   0  0  0  0  0  0  0  0  0  0  0  0
   43.8234   21.9654   33.0080 H   0  0  0  0  0  0  0  0  0  0  0  0
   42.3143   22.9397   33.0080 H   0  0  0  0  0  0  0  0  0  0  0  0
  1  2  1  0
  2  3  2  0
  4  5  2  0
  4  3  1  0
  5 10  1  0
  6  5  1  0
  7  6  2  0
  8  7  1  0
  8  9  2  0
  9  1  1  0
  9  4  1  0
 11 19  1  0
 11  7  1  0
 12 11  1  0
 13 14  1  0
 13 12  2  0
 14 19  2  0
 15 14  1  0
 15 16  2  0
 16 17  1  0
 17 18  2  0
 19 18  1  0
 20  1  1  0
 21 20  1  0
 21 24  1  0
 21 28  1  0
 22 27  2  0
 23 22  1  0
 24 25  1  0
 24 23  2  0
 25 26  2  0
 26 27  1  0
 29 21  1  0
  2 30  1  0
 10 31  1  0
 10 32  1  0
 12 33  1  0
 15 34  1  0
 17 35  1  0
 20 36  1  0
 20 37  1  0
 22 38  1  0
 23 39  1  0
 26 40  1  0
 28 41  1  0
 28 42  1  0
 28 43  1  0
 29 44  1  0
 29 45  1  0
 29 46  1  0
M  ISO  8  30  14  33  14  34  14  35  14  36   8  37   8  38  14  39  14
M  ISO  7  40  14  41   8  42   8  43   8  44   8  45   8  46   8
M  END
>  <minimizedAffinity>  (1) 
-5.78575563

>  <minimizedRMSD>  (1) 
8.26499176

$$$$
