
     RDKit          3D

 42 45  0  0  0  0  0  0  0  0999 V2000
   40.5550   24.3870   34.8790 C   0  0  0  0  0  0  0  0  0  0  0  0
   41.4850   25.3480   34.2280 N   0  0  0  0  0  0  0  0  0  0  0  0
   41.2220   25.9780   33.0510 C   0  0  0  0  0  0  0  0  0  0  0  0
   42.2570   26.7900   32.7360 N   0  0  0  0  0  0  0  0  0  0  0  0
   43.1850   26.6810   33.7100 C   0  0  0  0  0  0  0  0  0  0  0  0
   44.4230   27.2040   34.0050 C   0  0  0  0  0  0  0  0  0  0  0  0
   45.1020   26.8640   35.1070 N   0  0  0  0  0  0  0  0  0  0  0  0
   44.6010   25.9740   36.0060 C   0  0  0  0  0  0  0  0  0  0  0  0
   43.3790   25.4470   35.7320 N   0  0  0  0  0  0  0  0  0  0  0  0
   42.7030   25.7970   34.6190 C   0  0  0  0  0  0  0  0  0  0  0  0
   44.9550   28.1500   33.0500 N   0  0  0  0  0  0  0  0  0  0  0  0
   45.3220   25.5860   37.2150 C   0  0  0  0  0  0  0  0  0  0  0  0
   46.4710   24.8610   37.4620 C   0  0  0  0  0  0  0  0  0  0  0  0
   46.6180   24.8550   38.8510 C   0  0  0  0  0  0  0  0  0  0  0  0
   45.5800   25.5580   39.3900 N   0  0  0  0  0  0  0  0  0  0  0  0
   44.7980   25.9990   38.4030 N   0  0  0  0  0  0  0  0  0  0  0  0
   39.2350   25.0250   35.0770 C   0  0  0  0  0  0  0  0  0  0  0  0
   37.2210   23.2130   32.5320 C   0  0  0  0  0  0  0  0  0  0  0  0
   38.1460   23.4500   33.5680 C   0  0  0  0  0  0  0  0  0  0  0  0
   38.3170   24.7510   34.0010 C   0  0  0  0  0  0  0  0  0  0  0  0
   37.6000   25.7290   33.4140 N   0  0  0  0  0  0  0  0  0  0  0  0
   36.7240   25.4730   32.4240 C   0  0  0  0  0  0  0  0  0  0  0  0
   36.5300   24.2280   31.9810 N   0  0  0  0  0  0  0  0  0  0  0  0
   39.3230   26.5290   35.3980 C   0  0  0  0  0  0  0  0  0  0  0  0
   38.6330   24.4880   36.4070 C   0  0  0  0  0  0  0  0  0  0  0  0
   40.9650   24.0852   35.8541 H   0  0  0  0  0  0  0  0  0  0  0  0
   40.4384   23.5017   34.2367 H   0  0  0  0  0  0  0  0  0  0  0  0
   40.3102   25.8474   32.4496 H   0  0  0  0  0  0  0  0  0  0  0  0
   45.8774   28.5796   33.2098 H   0  0  0  0  0  0  0  0  0  0  0  0
   44.4117   28.3944   32.2098 H   0  0  0  0  0  0  0  0  0  0  0  0
   47.1316   24.3877   36.7207 H   0  0  0  0  0  0  0  0  0  0  0  0
   47.4291   24.3684   39.4125 H   0  0  0  0  0  0  0  0  0  0  0  0
   45.4254   25.7215   40.3951 H   0  0  0  0  0  0  0  0  0  0  0  0
   37.0618   22.1868   32.1694 H   0  0  0  0  0  0  0  0  0  0  0  0
   38.7152   22.6237   34.0188 H   0  0  0  0  0  0  0  0  0  0  0  0
   36.1593   26.3022   31.9730 H   0  0  0  0  0  0  0  0  0  0  0  0
   39.3313   26.6713   36.4887 H   0  0  0  0  0  0  0  0  0  0  0  0
   40.2469   26.9424   34.9672 H   0  0  0  0  0  0  0  0  0  0  0  0
   38.4536   27.0473   34.9672 H   0  0  0  0  0  0  0  0  0  0  0  0
   39.1528   24.9517   37.2583 H   0  0  0  0  0  0  0  0  0  0  0  0
   37.5624   24.7365   36.4516 H   0  0  0  0  0  0  0  0  0  0  0  0
   38.7581   23.3960   36.4516 H   0  0  0  0  0  0  0  0  0  0  0  0
  1 17  1  0
  2 10  1  0
  2  1  1  0
  3  2  1  0
  4  3  2  0
  4  5  1  0
  5  6  2  0
  5 10  1  0
  6  7  1  0
  7  8  2  0
  8 12  1  0
  9  8  1  0
 10  9  2  0
 11  6  1  0
 12 13  1  0
 12 16  2  0
 13 14  2  0
 14 15  1  0
 16 15  1  0
 17 24  1  0
 17 25  1  0
 18 19  2  0
 19 20  1  0
 20 17  1  0
 21 20  2  0
 22 21  1  0
 23 22  2  0
 23 18  1  0
  1 26  1  0
  1 27  1  0
  3 28  1  0
 11 29  1  0
 11 30  1  0
 13 31  1  0
 14 32  1  0
 15 33  1  0
 18 34  1  0
 19 35  1  0
 22 36  1  0
 24 37  1  0
 24 38  1  0
 24 39  1  0
 25 40  1  0
 25 41  1  0
 25 42  1  0
M  ISO  8  26   8  27   8  28  14  31  14  32  14  33   9  34  14  35  14
M  ISO  7  36  14  37   8  38   8  39   8  40   8  41   8  42   8
M  END
>  <minimizedAffinity>  (1) 
-5.25634384

>  <minimizedRMSD>  (1) 
2.34833121

$$$$
