
     RDKit          3D

 20 21  0  0  0  0  0  0  0  0999 V2000
   42.3510   20.9610   37.3550 C   0  0  0  0  0  0  0  0  0  0  0  0
   41.1080   21.6210   37.4060 C   0  0  0  0  0  0  0  0  0  0  0  0
   40.5270   22.0330   36.2130 C   0  0  0  0  0  0  0  0  0  0  0  0
   41.1910   21.7770   35.0520 N   0  0  0  0  0  0  0  0  0  0  0  0
   42.3790   21.1460   35.0280 C   0  0  0  0  0  0  0  0  0  0  0  0
   42.9590   20.7380   36.1660 N   0  0  0  0  0  0  0  0  0  0  0  0
   38.9580   22.8700   36.2100 S   0  0  0  0  0  0  0  0  0  0  0  0
   39.1130   24.6020   35.8240 C   0  0  0  0  0  0  0  0  0  0  0  0
   38.1600   25.4230   36.4120 C   0  0  0  0  0  0  0  0  0  0  0  0
   38.1930   26.7890   36.1740 C   0  0  0  0  0  0  0  0  0  0  0  0
   39.1840   27.2730   35.3520 C   0  0  0  0  0  0  0  0  0  0  0  0
   40.1300   26.4550   34.7690 C   0  0  0  0  0  0  0  0  0  0  0  0
   40.0690   25.1360   35.0200 N   0  0  0  0  0  0  0  0  0  0  0  0
   42.8305   20.6248   38.2862 H   0  0  0  0  0  0  0  0  0  0  0  0
   40.6085   21.8061   38.3684 H   0  0  0  0  0  0  0  0  0  0  0  0
   42.8793   20.9631   34.0656 H   0  0  0  0  0  0  0  0  0  0  0  0
   37.3840   24.9929   37.0623 H   0  0  0  0  0  0  0  0  0  0  0  0
   37.4513   27.4629   36.6275 H   0  0  0  0  0  0  0  0  0  0  0  0
   39.2239   28.3539   35.1517 H   0  0  0  0  0  0  0  0  0  0  0  0
   40.9123   26.8708   34.1170 H   0  0  0  0  0  0  0  0  0  0  0  0
  1  2  2  0
  3  2  1  0
  4  3  2  0
  5  4  1  0
  5  6  2  0
  6  1  1  0
  7  3  1  0
  8  7  1  0
  8  9  2  0
 10  9  1  0
 11 10  2  0
 12 13  2  0
 12 11  1  0
 13  8  1  0
  1 14  1  0
  2 15  1  0
  5 16  1  0
  9 17  1  0
 10 18  1  0
 11 19  1  0
 12 20  1  0
M  ISO  7  14  14  15  14  16  14  17  14  18  14  19  14  20  14
M  END
>  <minimizedAffinity>  (1) 
-3.67550802

>  <minimizedRMSD>  (1) 
3.41550207

$$$$
