
     RDKit          3D

 44 46  0  0  0  0  0  0  0  0999 V2000
   40.5830   24.6380   34.2110 C   0  0  0  0  0  0  0  0  0  0  0  0
   41.6740   25.6080   33.9220 N   0  0  0  0  0  0  0  0  0  0  0  0
   41.6590   26.4610   32.8540 C   0  0  0  0  0  0  0  0  0  0  0  0
   42.7800   27.2190   32.8750 N   0  0  0  0  0  0  0  0  0  0  0  0
   43.5110   26.8540   33.9510 C   0  0  0  0  0  0  0  0  0  0  0  0
   44.7090   27.2080   34.5340 C   0  0  0  0  0  0  0  0  0  0  0  0
   45.1540   26.6070   35.6520 N   0  0  0  0  0  0  0  0  0  0  0  0
   44.4550   25.6290   36.2620 C   0  0  0  0  0  0  0  0  0  0  0  0
   43.2720   25.2660   35.7030 N   0  0  0  0  0  0  0  0  0  0  0  0
   42.8190   25.8670   34.5790 C   0  0  0  0  0  0  0  0  0  0  0  0
   45.4410   28.2600   33.8860 N   0  0  0  0  0  0  0  0  0  0  0  0
   44.9100   24.9360   37.4980 C   0  0  0  0  0  0  0  0  0  0  0  0
   46.3800   24.5870   37.2700 C   0  0  0  0  0  0  0  0  0  0  0  0
   44.9050   25.9290   38.6610 C   0  0  0  0  0  0  0  0  0  0  0  0
   39.3880   25.3620   34.6980 C   0  0  0  0  0  0  0  0  0  0  0  0
   36.8670   24.3550   32.1620 C   0  0  0  0  0  0  0  0  0  0  0  0
   37.9110   24.2610   33.0980 C   0  0  0  0  0  0  0  0  0  0  0  0
   38.3360   25.4240   33.7160 C   0  0  0  0  0  0  0  0  0  0  0  0
   37.7360   26.5850   33.3930 N   0  0  0  0  0  0  0  0  0  0  0  0
   36.7390   26.6440   32.4910 C   0  0  0  0  0  0  0  0  0  0  0  0
   36.2980   25.5420   31.8740 N   0  0  0  0  0  0  0  0  0  0  0  0
   39.7060   26.7450   35.2940 C   0  0  0  0  0  0  0  0  0  0  0  0
   38.8540   24.6300   35.9650 C   0  0  0  0  0  0  0  0  0  0  0  0
   40.9194   23.9281   34.9810 H   0  0  0  0  0  0  0  0  0  0  0  0
   40.3281   24.0917   33.2909 H   0  0  0  0  0  0  0  0  0  0  0  0
   40.8625   26.5217   32.0978 H   0  0  0  0  0  0  0  0  0  0  0  0
   46.3439   28.5720   34.2711 H   0  0  0  0  0  0  0  0  0  0  0  0
   45.0631   28.7025   33.0361 H   0  0  0  0  0  0  0  0  0  0  0  0
   44.2702   24.0674   37.7128 H   0  0  0  0  0  0  0  0  0  0  0  0
   46.8833   24.4675   38.2408 H   0  0  0  0  0  0  0  0  0  0  0  0
   46.4500   23.6473   36.7025 H   0  0  0  0  0  0  0  0  0  0  0  0
   46.8649   25.3950   36.7025 H   0  0  0  0  0  0  0  0  0  0  0  0
   44.9078   25.3784   39.6133 H   0  0  0  0  0  0  0  0  0  0  0  0
   45.7999   26.5660   38.6031 H   0  0  0  0  0  0  0  0  0  0  0  0
   44.0037   26.5569   38.6031 H   0  0  0  0  0  0  0  0  0  0  0  0
   36.5089   23.4458   31.6568 H   0  0  0  0  0  0  0  0  0  0  0  0
   38.3763   23.2922   33.3324 H   0  0  0  0  0  0  0  0  0  0  0  0
   36.2787   27.6153   32.2570 H   0  0  0  0  0  0  0  0  0  0  0  0
   39.6918   26.6831   36.3922 H   0  0  0  0  0  0  0  0  0  0  0  0
   40.7021   27.0689   34.9579 H   0  0  0  0  0  0  0  0  0  0  0  0
   38.9514   27.4714   34.9579 H   0  0  0  0  0  0  0  0  0  0  0  0
   39.2255   25.1392   36.8665 H   0  0  0  0  0  0  0  0  0  0  0  0
   37.7541   24.6463   35.9616 H   0  0  0  0  0  0  0  0  0  0  0  0
   39.2053   23.5876   35.9616 H   0  0  0  0  0  0  0  0  0  0  0  0
  1 15  1  0
  2  1  1  0
  2 10  1  0
  3  4  2  0
  3  2  1  0
  4  5  1  0
  5  6  1  0
  5 10  2  0
  6  7  2  0
  7  8  1  0
  8 12  1  0
  9  8  2  0
 10  9  1  0
 11  6  1  0
 12 14  1  0
 13 12  1  0
 15 22  1  0
 15 23  1  0
 16 17  2  0
 17 18  1  0
 18 15  1  0
 19 18  2  0
 20 19  1  0
 21 16  1  0
 21 20  2  0
  1 24  1  0
  1 25  1  0
  3 26  1  0
 11 27  1  0
 11 28  1  0
 12 29  1  0
 13 30  1  0
 13 31  1  0
 13 32  1  0
 14 33  1  0
 14 34  1  0
 14 35  1  0
 16 36  1  0
 17 37  1  0
 20 38  1  0
 22 39  1  0
 22 40  1  0
 22 41  1  0
 23 42  1  0
 23 43  1  0
 23 44  1  0
M  ISO  8  24   8  25   8  26  14  29   8  30   8  31   8  32   8  33   8
M  ISO  8  34   8  35   8  36  14  37  14  38  14  39   8  40   8  41   8
M  ISO  3  42   8  43   8  44   8
M  END
>  <minimizedAffinity>  (1) 
-5.00255775

>  <minimizedRMSD>  (1) 
2.75022602

$$$$
