
     RDKit          3D

 42 45  0  0  0  0  0  0  0  0999 V2000
   40.5790   22.8380   35.2230 C   0  0  0  0  0  0  0  0  0  0  0  0
   41.1560   23.9990   34.4940 N   0  0  0  0  0  0  0  0  0  0  0  0
   40.6480   24.4930   33.3320 C   0  0  0  0  0  0  0  0  0  0  0  0
   41.3950   25.5480   32.9320 N   0  0  0  0  0  0  0  0  0  0  0  0
   42.3830   25.7290   33.8340 C   0  0  0  0  0  0  0  0  0  0  0  0
   43.4450   26.5840   34.0260 C   0  0  0  0  0  0  0  0  0  0  0  0
   44.2700   26.4770   35.0840 N   0  0  0  0  0  0  0  0  0  0  0  0
   44.0930   25.5120   36.0240 C   0  0  0  0  0  0  0  0  0  0  0  0
   43.0490   24.6620   35.8490 N   0  0  0  0  0  0  0  0  0  0  0  0
   42.2280   24.7770   34.7860 C   0  0  0  0  0  0  0  0  0  0  0  0
   43.6250   27.6070   33.0200 N   0  0  0  0  0  0  0  0  0  0  0  0
   44.9610   25.3880   37.1480 N   0  0  0  0  0  0  0  0  0  0  0  0
   44.7420   25.6350   38.4370 N   0  0  0  0  0  0  0  0  0  0  0  0
   45.8490   25.3780   39.1550 C   0  0  0  0  0  0  0  0  0  0  0  0
   46.8350   24.9410   38.2680 C   0  0  0  0  0  0  0  0  0  0  0  0
   46.2330   24.9620   37.0150 C   0  0  0  0  0  0  0  0  0  0  0  0
   39.3110   23.2390   35.8740 C   0  0  0  0  0  0  0  0  0  0  0  0
   36.9690   21.3820   33.6620 C   0  0  0  0  0  0  0  0  0  0  0  0
   38.0680   22.1550   34.0730 C   0  0  0  0  0  0  0  0  0  0  0  0
   38.1830   22.4700   35.4150 C   0  0  0  0  0  0  0  0  0  0  0  0
   37.2350   22.0240   36.2620 N   0  0  0  0  0  0  0  0  0  0  0  0
   36.1890   21.2870   35.8410 C   0  0  0  0  0  0  0  0  0  0  0  0
   36.0490   20.9630   34.5550 N   0  0  0  0  0  0  0  0  0  0  0  0
   39.0450   24.7520   35.8160 C   0  0  0  0  0  0  0  0  0  0  0  0
   39.4740   23.0360   37.4080 C   0  0  0  0  0  0  0  0  0  0  0  0
   41.2911   22.4961   35.9885 H   0  0  0  0  0  0  0  0  0  0  0  0
   40.3819   22.0222   34.5119 H   0  0  0  0  0  0  0  0  0  0  0  0
   39.7692   24.0972   32.8019 H   0  0  0  0  0  0  0  0  0  0  0  0
   44.4004   28.2799   33.1027 H   0  0  0  0  0  0  0  0  0  0  0  0
   42.9778   27.6628   32.2207 H   0  0  0  0  0  0  0  0  0  0  0  0
   45.9583   25.4914   40.2437 H   0  0  0  0  0  0  0  0  0  0  0  0
   47.8664   24.6440   38.5089 H   0  0  0  0  0  0  0  0  0  0  0  0
   46.7162   24.6772   36.0687 H   0  0  0  0  0  0  0  0  0  0  0  0
   36.8577   21.1157   32.6006 H   0  0  0  0  0  0  0  0  0  0  0  0
   38.8177   22.5008   33.3462 H   0  0  0  0  0  0  0  0  0  0  0  0
   35.4383   20.9470   36.5696 H   0  0  0  0  0  0  0  0  0  0  0  0
   38.9748   25.1514   36.8385 H   0  0  0  0  0  0  0  0  0  0  0  0
   39.8695   25.2491   35.2840 H   0  0  0  0  0  0  0  0  0  0  0  0
   38.1004   24.9381   35.2840 H   0  0  0  0  0  0  0  0  0  0  0  0
   38.8722   23.7854   37.9430 H   0  0  0  0  0  0  0  0  0  0  0  0
   39.1322   22.0272   37.6827 H   0  0  0  0  0  0  0  0  0  0  0  0
   40.5328   23.1519   37.6827 H   0  0  0  0  0  0  0  0  0  0  0  0
  1 17  1  0
  2 10  1  0
  2  1  1  0
  3  2  1  0
  4  3  2  0
  4  5  1  0
  5  6  2  0
  5 10  1  0
  6  7  1  0
  7  8  2  0
  8 12  1  0
  9  8  1  0
 10  9  2  0
 11  6  1  0
 12 13  1  0
 13 14  2  0
 15 14  1  0
 16 12  1  0
 16 15  2  0
 17 25  1  0
 18 19  2  0
 18 23  1  0
 19 20  1  0
 20 17  1  0
 20 21  2  0
 22 21  1  0
 23 22  2  0
 24 17  1  0
  1 26  1  0
  1 27  1  0
  3 28  1  0
 11 29  1  0
 11 30  1  0
 14 31  1  0
 15 32  1  0
 16 33  1  0
 18 34  1  0
 19 35  1  0
 22 36  1  0
 24 37  1  0
 24 38  1  0
 24 39  1  0
 25 40  1  0
 25 41  1  0
 25 42  1  0
M  ISO  8  26   8  27   8  28  14  31  14  32  14  33  14  34  14  35  14
M  ISO  7  36  14  37   8  38   8  39   8  40   8  41   8  42   8
M  END
>  <minimizedAffinity>  (1) 
-5.30704021

>  <minimizedRMSD>  (1) 
1.65904057

$$$$
