
     RDKit          3D

 43 46  0  0  0  0  0  0  0  0999 V2000
   40.3240   24.6870   34.6170 C   0  0  0  0  0  0  0  0  0  0  0  0
   41.3220   25.5100   33.8780 N   0  0  0  0  0  0  0  0  0  0  0  0
   41.0840   26.0710   32.6650 C   0  0  0  0  0  0  0  0  0  0  0  0
   42.1800   26.7520   32.2660 N   0  0  0  0  0  0  0  0  0  0  0  0
   43.1250   26.6290   33.2230 C   0  0  0  0  0  0  0  0  0  0  0  0
   44.4210   27.0580   33.4420 C   0  0  0  0  0  0  0  0  0  0  0  0
   45.0860   26.7260   34.5670 N   0  0  0  0  0  0  0  0  0  0  0  0
   44.5320   25.9690   35.5280 C   0  0  0  0  0  0  0  0  0  0  0  0
   43.2620   25.5370   35.3320 N   0  0  0  0  0  0  0  0  0  0  0  0
   42.5900   25.8660   34.2090 C   0  0  0  0  0  0  0  0  0  0  0  0
   45.0020   27.8700   32.4030 N   0  0  0  0  0  0  0  0  0  0  0  0
   45.2340   25.6060   36.7360 C   0  0  0  0  0  0  0  0  0  0  0  0
   46.3630   24.8150   36.6730 C   0  0  0  0  0  0  0  0  0  0  0  0
   47.0190   24.4810   37.8480 C   0  0  0  0  0  0  0  0  0  0  0  0
   46.5280   24.9460   39.0240 N   0  0  0  0  0  0  0  0  0  0  0  0
   45.4420   25.7080   39.0870 C   0  0  0  0  0  0  0  0  0  0  0  0
   44.8020   26.0310   37.9340 N   0  0  0  0  0  0  0  0  0  0  0  0
   39.1420   25.5090   34.9380 C   0  0  0  0  0  0  0  0  0  0  0  0
   36.8630   24.4350   32.2100 C   0  0  0  0  0  0  0  0  0  0  0  0
   37.8310   24.3690   33.2280 C   0  0  0  0  0  0  0  0  0  0  0  0
   38.1770   25.5450   33.8710 C   0  0  0  0  0  0  0  0  0  0  0  0
   37.5780   26.6930   33.4940 N   0  0  0  0  0  0  0  0  0  0  0  0
   36.6560   26.7230   32.5150 C   0  0  0  0  0  0  0  0  0  0  0  0
   36.2930   25.6150   31.8730 N   0  0  0  0  0  0  0  0  0  0  0  0
   39.4910   26.9140   35.4540 C   0  0  0  0  0  0  0  0  0  0  0  0
   38.4700   24.9050   36.2080 C   0  0  0  0  0  0  0  0  0  0  0  0
   40.7748   24.3151   35.5489 H   0  0  0  0  0  0  0  0  0  0  0  0
   40.0172   23.8367   33.9902 H   0  0  0  0  0  0  0  0  0  0  0  0
   40.1462   25.9846   32.0966 H   0  0  0  0  0  0  0  0  0  0  0  0
   45.9645   28.2229   32.5028 H   0  0  0  0  0  0  0  0  0  0  0  0
   44.4548   28.0975   31.5606 H   0  0  0  0  0  0  0  0  0  0  0  0
   46.7375   24.4543   35.7036 H   0  0  0  0  0  0  0  0  0  0  0  0
   47.9204   23.8509   37.8270 H   0  0  0  0  0  0  0  0  0  0  0  0
   45.0679   26.0708   40.0557 H   0  0  0  0  0  0  0  0  0  0  0  0
   36.5659   23.5170   31.6818 H   0  0  0  0  0  0  0  0  0  0  0  0
   38.2987   23.4126   33.5047 H   0  0  0  0  0  0  0  0  0  0  0  0
   36.1929   27.6820   32.2396 H   0  0  0  0  0  0  0  0  0  0  0  0
   39.4903   26.9113   36.5540 H   0  0  0  0  0  0  0  0  0  0  0  0
   40.4879   27.2016   35.0887 H   0  0  0  0  0  0  0  0  0  0  0  0
   38.7446   27.6347   35.0887 H   0  0  0  0  0  0  0  0  0  0  0  0
   38.9404   25.3278   37.1080 H   0  0  0  0  0  0  0  0  0  0  0  0
   37.3973   25.1484   36.2062 H   0  0  0  0  0  0  0  0  0  0  0  0
   38.5981   23.8125   36.2062 H   0  0  0  0  0  0  0  0  0  0  0  0
  1 18  1  0
  2 10  1  0
  2  1  1  0
  3  2  1  0
  4  3  2  0
  4  5  1  0
  5  6  2  0
  5 10  1  0
  6  7  1  0
  7  8  2  0
  8 12  1  0
  9  8  1  0
 10  9  2  0
 11  6  1  0
 12 17  1  0
 13 12  2  0
 13 14  1  0
 14 15  2  0
 15 16  1  0
 17 16  2  0
 18 25  1  0
 18 26  1  0
 19 20  2  0
 20 21  1  0
 21 18  1  0
 22 21  2  0
 23 22  1  0
 24 19  1  0
 24 23  2  0
  1 27  1  0
  1 28  1  0
  3 29  1  0
 11 30  1  0
 11 31  1  0
 13 32  1  0
 14 33  1  0
 16 34  1  0
 19 35  1  0
 20 36  1  0
 23 37  1  0
 25 38  1  0
 25 39  1  0
 25 40  1  0
 26 41  1  0
 26 42  1  0
 26 43  1  0
M  ISO  8  27   8  28   8  29  14  32  14  33  14  34  14  35  14  36  14
M  ISO  7  37  14  38   8  39   8  40   8  41   8  42   8  43   8
M  END
>  <minimizedAffinity>  (1) 
-5.00078011

>  <minimizedRMSD>  (1) 
2.92158651

$$$$
