
     RDKit          3D

 38 40  0  0  0  0  0  0  0  0999 V2000
   41.8340   22.9060   35.1910 C   0  0  0  0  0  0  0  0  0  0  0  0
   42.4820   24.1340   34.6570 N   0  0  0  0  0  0  0  0  0  0  0  0
   42.1730   24.6960   33.4580 C   0  0  0  0  0  0  0  0  0  0  0  0
   42.9300   25.8000   33.2690 N   0  0  0  0  0  0  0  0  0  0  0  0
   43.7270   25.9490   34.3490 C   0  0  0  0  0  0  0  0  0  0  0  0
   44.6980   26.8160   34.7920 C   0  0  0  0  0  0  0  0  0  0  0  0
   45.3210   26.6530   35.9820 N   0  0  0  0  0  0  0  0  0  0  0  0
   45.0220   25.6260   36.7990 C   0  0  0  0  0  0  0  0  0  0  0  0
   44.0650   24.7560   36.3790 N   0  0  0  0  0  0  0  0  0  0  0  0
   43.4440   24.9230   35.1900 C   0  0  0  0  0  0  0  0  0  0  0  0
   45.0200   27.9130   33.9080 N   0  0  0  0  0  0  0  0  0  0  0  0
   45.7200   25.4650   38.1020 C   0  0  0  0  0  0  0  0  0  0  0  0
   46.7650   26.3880   38.2240 F   0  0  0  0  0  0  0  0  0  0  0  0
   44.8440   25.6080   39.1640 F   0  0  0  0  0  0  0  0  0  0  0  0
   46.3150   24.2160   38.1790 F   0  0  0  0  0  0  0  0  0  0  0  0
   40.4280   23.1980   35.5400 C   0  0  0  0  0  0  0  0  0  0  0  0
   38.9880   21.1250   32.8120 C   0  0  0  0  0  0  0  0  0  0  0  0
   39.9280   21.8200   33.5910 C   0  0  0  0  0  0  0  0  0  0  0  0
   39.4840   22.4960   34.7130 C   0  0  0  0  0  0  0  0  0  0  0  0
   38.1690   22.4580   35.0050 N   0  0  0  0  0  0  0  0  0  0  0  0
   37.2880   21.7840   34.2400 C   0  0  0  0  0  0  0  0  0  0  0  0
   37.6800   21.1210   33.1520 N   0  0  0  0  0  0  0  0  0  0  0  0
   40.1170   24.7040   35.6160 C   0  0  0  0  0  0  0  0  0  0  0  0
   40.2000   22.7880   37.0230 C   0  0  0  0  0  0  0  0  0  0  0  0
   42.3718   22.5697   36.0897 H   0  0  0  0  0  0  0  0  0  0  0  0
   41.8636   22.1158   34.4263 H   0  0  0  0  0  0  0  0  0  0  0  0
   41.4230   24.3117   32.7511 H   0  0  0  0  0  0  0  0  0  0  0  0
   45.7387   28.5991   34.1793 H   0  0  0  0  0  0  0  0  0  0  0  0
   44.5308   28.0087   33.0067 H   0  0  0  0  0  0  0  0  0  0  0  0
   39.3198   20.5788   31.9167 H   0  0  0  0  0  0  0  0  0  0  0  0
   40.9928   21.8264   33.3150 H   0  0  0  0  0  0  0  0  0  0  0  0
   36.2239   21.7808   34.5189 H   0  0  0  0  0  0  0  0  0  0  0  0
   40.0533   25.0125   36.6699 H   0  0  0  0  0  0  0  0  0  0  0  0
   40.9173   25.2694   35.1162 H   0  0  0  0  0  0  0  0  0  0  0  0
   39.1582   24.9061   35.1162 H   0  0  0  0  0  0  0  0  0  0  0  0
   40.6268   23.5555   37.6854 H   0  0  0  0  0  0  0  0  0  0  0  0
   39.1210   22.6958   37.2162 H   0  0  0  0  0  0  0  0  0  0  0  0
   40.6909   21.8228   37.2162 H   0  0  0  0  0  0  0  0  0  0  0  0
  1 16  1  0
  2 10  1  0
  2  1  1  0
  3  2  1  0
  4  3  2  0
  4  5  1  0
  5  6  2  0
  5 10  1  0
  6  7  1  0
  7  8  2  0
  8 12  1  0
  9  8  1  0
 10  9  2  0
 11  6  1  0
 12 15  1  0
 12 13  1  0
 12 14  1  0
 16 23  1  0
 16 24  1  0
 17 22  2  0
 17 18  1  0
 18 19  2  0
 19 20  1  0
 19 16  1  0
 21 20  2  0
 22 21  1  0
  1 25  1  0
  1 26  1  0
  3 27  1  0
 11 28  1  0
 11 29  1  0
 17 30  1  0
 18 31  1  0
 21 32  1  0
 23 33  1  0
 23 34  1  0
 23 35  1  0
 24 36  1  0
 24 37  1  0
 24 38  1  0
M  ISO  8  25   8  26   8  27  14  30  14  31  14  32  14  33   8  34   8
M  ISO  4  35   8  36   8  37   8  38   8
M  END
>  <minimizedAffinity>  (1) 
-4.57580614

>  <minimizedRMSD>  (1) 
0.846719444

$$$$
