
     RDKit          3D

 41 44  0  0  0  0  0  0  0  0999 V2000
   40.3670   24.7000   34.9480 C   0  0  0  0  0  0  0  0  0  0  0  0
   41.2610   25.6330   34.2070 N   0  0  0  0  0  0  0  0  0  0  0  0
   40.8860   26.2840   33.0660 C   0  0  0  0  0  0  0  0  0  0  0  0
   41.9090   27.0560   32.6390 N   0  0  0  0  0  0  0  0  0  0  0  0
   42.9480   26.8970   33.5140 C   0  0  0  0  0  0  0  0  0  0  0  0
   44.2340   27.3850   33.6480 C   0  0  0  0  0  0  0  0  0  0  0  0
   44.9950   26.9900   34.6720 N   0  0  0  0  0  0  0  0  0  0  0  0
   44.5770   26.1240   35.6100 C   0  0  0  0  0  0  0  0  0  0  0  0
   43.3120   25.6440   35.4820 N   0  0  0  0  0  0  0  0  0  0  0  0
   42.5320   26.0250   34.4640 C   0  0  0  0  0  0  0  0  0  0  0  0
   44.6790   28.3070   32.6530 N   0  0  0  0  0  0  0  0  0  0  0  0
   45.3770   25.6690   36.7410 C   0  0  0  0  0  0  0  0  0  0  0  0
   46.6230   24.9390   36.7250 C   0  0  0  0  0  0  0  0  0  0  0  0
   46.9600   24.7610   38.5810 S   0  0  0  0  0  0  0  0  0  0  0  0
   45.4000   25.6800   38.9660 C   0  0  0  0  0  0  0  0  0  0  0  0
   44.8680   25.9800   37.9210 N   0  0  0  0  0  0  0  0  0  0  0  0
   39.0450   25.3300   35.1450 C   0  0  0  0  0  0  0  0  0  0  0  0
   37.1350   23.6780   32.4190 C   0  0  0  0  0  0  0  0  0  0  0  0
   38.0310   23.8530   33.4900 C   0  0  0  0  0  0  0  0  0  0  0  0
   38.1560   25.1200   34.0310 C   0  0  0  0  0  0  0  0  0  0  0  0
   37.4210   26.1230   33.5110 N   0  0  0  0  0  0  0  0  0  0  0  0
   36.5730   25.9240   32.4840 C   0  0  0  0  0  0  0  0  0  0  0  0
   36.4230   24.7170   31.9370 N   0  0  0  0  0  0  0  0  0  0  0  0
   39.1250   26.8120   35.5510 C   0  0  0  0  0  0  0  0  0  0  0  0
   38.4050   24.7230   36.4280 C   0  0  0  0  0  0  0  0  0  0  0  0
   40.8112   24.4679   35.9272 H   0  0  0  0  0  0  0  0  0  0  0  0
   40.2465   23.7728   34.3685 H   0  0  0  0  0  0  0  0  0  0  0  0
   39.9067   26.1939   32.5733 H   0  0  0  0  0  0  0  0  0  0  0  0
   45.6290   28.7017   32.7047 H   0  0  0  0  0  0  0  0  0  0  0  0
   44.0501   28.5775   31.8835 H   0  0  0  0  0  0  0  0  0  0  0  0
   47.2150   24.5833   35.8688 H   0  0  0  0  0  0  0  0  0  0  0  0
   45.0213   25.9135   39.9720 H   0  0  0  0  0  0  0  0  0  0  0  0
   37.0139   22.6814   31.9694 H   0  0  0  0  0  0  0  0  0  0  0  0
   38.6142   23.0080   33.8849 H   0  0  0  0  0  0  0  0  0  0  0  0
   35.9939   26.7719   32.0894 H   0  0  0  0  0  0  0  0  0  0  0  0
   39.1293   26.8919   36.6481 H   0  0  0  0  0  0  0  0  0  0  0  0
   40.0483   27.2534   35.1476 H   0  0  0  0  0  0  0  0  0  0  0  0
   38.2546   27.3502   35.1476 H   0  0  0  0  0  0  0  0  0  0  0  0
   38.8744   25.1682   37.3177 H   0  0  0  0  0  0  0  0  0  0  0  0
   37.3262   24.9377   36.4364 H   0  0  0  0  0  0  0  0  0  0  0  0
   38.5623   23.6343   36.4364 H   0  0  0  0  0  0  0  0  0  0  0  0
  1 17  1  0
  2 10  1  0
  2  1  1  0
  3  2  1  0
  4  3  2  0
  4  5  1  0
  5  6  2  0
  5 10  1  0
  6  7  1  0
  7  8  2  0
  8 12  1  0
  9  8  1  0
 10  9  2  0
 11  6  1  0
 12 16  1  0
 13 12  2  0
 13 14  1  0
 14 15  1  0
 16 15  2  0
 17 24  1  0
 17 25  1  0
 18 19  2  0
 19 20  1  0
 20 17  1  0
 21 20  2  0
 22 21  1  0
 23 18  1  0
 23 22  2  0
  1 26  1  0
  1 27  1  0
  3 28  1  0
 11 29  1  0
 11 30  1  0
 13 31  1  0
 15 32  1  0
 18 33  1  0
 19 34  1  0
 22 35  1  0
 24 36  1  0
 24 37  1  0
 24 38  1  0
 25 39  1  0
 25 40  1  0
 25 41  1  0
M  ISO  8  26   8  27   8  28  14  31  14  32  14  33  14  34  14  35  14
M  ISO  6  36   8  37   8  38   8  39   8  40   8  41   8
M  END
>  <minimizedAffinity>  (1) 
-4.95340347

>  <minimizedRMSD>  (1) 
2.71802187

$$$$
