
     RDKit          3D

 36 38  0  0  0  0  0  0  0  0999 V2000
   40.4490   22.8110   35.4930 C   0  0  0  0  0  0  0  0  0  0  0  0
   38.8500   21.0590   32.6300 C   0  0  0  0  0  0  0  0  0  0  0  0
   39.8420   21.6360   33.4400 C   0  0  0  0  0  0  0  0  0  0  0  0
   39.4540   22.2310   34.6260 C   0  0  0  0  0  0  0  0  0  0  0  0
   38.1440   22.2290   34.9460 N   0  0  0  0  0  0  0  0  0  0  0  0
   37.2140   21.6700   34.1500 C   0  0  0  0  0  0  0  0  0  0  0  0
   37.5570   21.0860   32.9990 N   0  0  0  0  0  0  0  0  0  0  0  0
   40.1320   24.2790   35.8240 C   0  0  0  0  0  0  0  0  0  0  0  0
   40.3260   22.1630   36.9050 C   0  0  0  0  0  0  0  0  0  0  0  0
   41.8270   22.5960   35.0080 C   0  0  0  0  0  0  0  0  0  0  0  0
   42.4580   23.9050   34.6840 N   0  0  0  0  0  0  0  0  0  0  0  0
   42.1650   24.6170   33.5570 C   0  0  0  0  0  0  0  0  0  0  0  0
   42.8920   25.7570   33.5500 N   0  0  0  0  0  0  0  0  0  0  0  0
   43.6480   25.7770   34.6680 C   0  0  0  0  0  0  0  0  0  0  0  0
   44.5760   26.6140   35.2570 C   0  0  0  0  0  0  0  0  0  0  0  0
   45.1540   26.2990   36.4310 N   0  0  0  0  0  0  0  0  0  0  0  0
   44.8630   25.1620   37.0910 C   0  0  0  0  0  0  0  0  0  0  0  0
   43.9550   24.3300   36.5300 N   0  0  0  0  0  0  0  0  0  0  0  0
   43.3720   24.6400   35.3520 C   0  0  0  0  0  0  0  0  0  0  0  0
   44.8760   27.8290   34.5360 N   0  0  0  0  0  0  0  0  0  0  0  0
   45.4630   24.8420   38.3030 O   0  0  0  0  0  0  0  0  0  0  0  0
   39.1343   20.5790   31.6819 H   0  0  0  0  0  0  0  0  0  0  0  0
   40.8997   21.6150   33.1386 H   0  0  0  0  0  0  0  0  0  0  0  0
   36.1564   21.6944   34.4516 H   0  0  0  0  0  0  0  0  0  0  0  0
   40.1035   24.4108   36.9157 H   0  0  0  0  0  0  0  0  0  0  0  0
   40.9108   24.9277   35.3965 H   0  0  0  0  0  0  0  0  0  0  0  0
   39.1550   24.5485   35.3965 H   0  0  0  0  0  0  0  0  0  0  0  0
   40.4723   22.9337   37.6761 H   0  0  0  0  0  0  0  0  0  0  0  0
   39.3271   21.7165   37.0178 H   0  0  0  0  0  0  0  0  0  0  0  0
   41.0918   21.3815   37.0178 H   0  0  0  0  0  0  0  0  0  0  0  0
   42.4143   22.0909   35.7890 H   0  0  0  0  0  0  0  0  0  0  0  0
   41.8000   21.9720   34.1025 H   0  0  0  0  0  0  0  0  0  0  0  0
   41.4508   24.3118   32.7781 H   0  0  0  0  0  0  0  0  0  0  0  0
   45.5590   28.4989   34.9175 H   0  0  0  0  0  0  0  0  0  0  0  0
   44.4069   28.0255   33.6403 H   0  0  0  0  0  0  0  0  0  0  0  0
   45.2279   23.9981   38.7641 H   0  0  0  0  0  0  0  0  0  0  0  0
  1  8  1  0
  1  9  1  0
  2  7  2  0
  2  3  1  0
  3  4  2  0
  4  5  1  0
  4  1  1  0
  6  5  2  0
  7  6  1  0
 10  1  1  0
 11 10  1  0
 11 19  1  0
 12 11  1  0
 13 12  2  0
 13 14  1  0
 14 15  2  0
 14 19  1  0
 15 16  1  0
 16 17  2  0
 17 21  1  0
 18 17  1  0
 19 18  2  0
 20 15  1  0
  2 22  1  0
  3 23  1  0
  6 24  1  0
  8 25  1  0
  8 26  1  0
  8 27  1  0
  9 28  1  0
  9 29  1  0
  9 30  1  0
 10 31  1  0
 10 32  1  0
 12 33  1  0
 20 34  1  0
 20 35  1  0
 21 36  1  0
M  ISO  8  22  14  23  14  24  14  25   8  26   8  27   8  28   8  29   8
M  ISO  5  30   8  31   8  32   8  33  14  36   3
M  END
>  <minimizedAffinity>  (1) 
-3.93141437

>  <minimizedRMSD>  (1) 
0.310823411

$$$$
