
     RDKit          3D

 38 40  0  0  0  0  0  0  0  0999 V2000
   40.3720   22.9960   35.4920 C   0  0  0  0  0  0  0  0  0  0  0  0
   38.8890   21.0550   32.6920 C   0  0  0  0  0  0  0  0  0  0  0  0
   39.8490   21.7030   33.4900 C   0  0  0  0  0  0  0  0  0  0  0  0
   39.4150   22.3440   34.6360 C   0  0  0  0  0  0  0  0  0  0  0  0
   38.1010   22.3220   34.9320 N   0  0  0  0  0  0  0  0  0  0  0  0
   37.2070   21.6930   34.1470 C   0  0  0  0  0  0  0  0  0  0  0  0
   37.5840   21.0630   33.0360 N   0  0  0  0  0  0  0  0  0  0  0  0
   40.0750   24.4950   35.6610 C   0  0  0  0  0  0  0  0  0  0  0  0
   40.1680   22.4970   36.9540 C   0  0  0  0  0  0  0  0  0  0  0  0
   41.7720   22.7140   35.1060 C   0  0  0  0  0  0  0  0  0  0  0  0
   42.4340   23.9700   34.6610 N   0  0  0  0  0  0  0  0  0  0  0  0
   42.1570   24.5900   33.4810 C   0  0  0  0  0  0  0  0  0  0  0  0
   42.9190   25.7040   33.3760 N   0  0  0  0  0  0  0  0  0  0  0  0
   43.6810   25.7990   34.4880 C   0  0  0  0  0  0  0  0  0  0  0  0
   44.6320   26.6560   34.9940 C   0  0  0  0  0  0  0  0  0  0  0  0
   45.2110   26.4280   36.1900 N   0  0  0  0  0  0  0  0  0  0  0  0
   44.8970   25.3610   36.9550 C   0  0  0  0  0  0  0  0  0  0  0  0
   43.9590   24.5100   36.4640 N   0  0  0  0  0  0  0  0  0  0  0  0
   43.3770   24.7330   35.2670 C   0  0  0  0  0  0  0  0  0  0  0  0
   44.9610   27.7970   34.1720 N   0  0  0  0  0  0  0  0  0  0  0  0
   45.5510   25.1340   38.2730 C   0  0  0  0  0  0  0  0  0  0  0  0
   39.2059   20.5351   31.7759 H   0  0  0  0  0  0  0  0  0  0  0  0
   40.9130   21.7000   33.2109 H   0  0  0  0  0  0  0  0  0  0  0  0
   36.1437   21.6994   34.4287 H   0  0  0  0  0  0  0  0  0  0  0  0
   40.0263   24.7407   36.7321 H   0  0  0  0  0  0  0  0  0  0  0  0
   40.8741   25.0830   35.1859 H   0  0  0  0  0  0  0  0  0  0  0  0
   39.1121   24.7339   35.1859 H   0  0  0  0  0  0  0  0  0  0  0  0
   40.4882   23.2803   37.6568 H   0  0  0  0  0  0  0  0  0  0  0  0
   39.1045   22.2691   37.1186 H   0  0  0  0  0  0  0  0  0  0  0  0
   40.7672   21.5894   37.1186 H   0  0  0  0  0  0  0  0  0  0  0  0
   42.3134   22.3021   35.9704 H   0  0  0  0  0  0  0  0  0  0  0  0
   41.7822   21.9859   34.2816 H   0  0  0  0  0  0  0  0  0  0  0  0
   41.4302   24.2414   32.7325 H   0  0  0  0  0  0  0  0  0  0  0  0
   45.6650   28.4770   34.4928 H   0  0  0  0  0  0  0  0  0  0  0  0
   44.4916   27.9308   33.2650 H   0  0  0  0  0  0  0  0  0  0  0  0
   44.8447   25.3792   39.0799 H   0  0  0  0  0  0  0  0  0  0  0  0
   45.8513   24.0791   38.3565 H   0  0  0  0  0  0  0  0  0  0  0  0
   46.4403   25.7760   38.3565 H   0  0  0  0  0  0  0  0  0  0  0  0
  1  8  1  0
  1  9  1  0
  2  7  2  0
  2  3  1  0
  3  4  2  0
  4  5  1  0
  4  1  1  0
  6  5  2  0
  7  6  1  0
 10  1  1  0
 11 10  1  0
 11 19  1  0
 12 11  1  0
 13 12  2  0
 13 14  1  0
 14 15  2  0
 14 19  1  0
 15 16  1  0
 16 17  2  0
 17 21  1  0
 18 17  1  0
 19 18  2  0
 20 15  1  0
  2 22  1  0
  3 23  1  0
  6 24  1  0
  8 25  1  0
  8 26  1  0
  8 27  1  0
  9 28  1  0
  9 29  1  0
  9 30  1  0
 10 31  1  0
 10 32  1  0
 12 33  1  0
 20 34  1  0
 20 35  1  0
 21 36  1  0
 21 37  1  0
 21 38  1  0
M  ISO  8  22  14  23  14  24  14  25   8  26   8  27   8  28   8  29   8
M  ISO  7  30   8  31   8  32   8  33  14  36   8  37   8  38   8
M  END
>  <minimizedAffinity>  (1) 
-3.99279213

>  <minimizedRMSD>  (1) 
0.462136716

$$$$
