
     RDKit          3D

 26 27  0  0  0  0  0  0  0  0999 V2000
   37.7750   24.5300   36.8540 C   0  0  0  0  0  0  0  0  0  0  0  0
   38.7480   24.0490   35.9650 C   0  0  0  0  0  0  0  0  0  0  0  0
   39.7420   23.1990   36.4430 C   0  0  0  0  0  0  0  0  0  0  0  0
   39.7130   22.8790   37.7620 N   0  0  0  0  0  0  0  0  0  0  0  0
   38.7760   23.3440   38.6050 C   0  0  0  0  0  0  0  0  0  0  0  0
   37.8200   24.1570   38.1640 N   0  0  0  0  0  0  0  0  0  0  0  0
   41.0050   22.5560   35.3680 S   0  0  0  0  0  0  0  0  0  0  0  0
   44.5550   25.3040   35.6060 N   0  0  0  0  0  0  0  0  0  0  0  0
   44.2150   24.6450   36.8140 C   0  0  0  0  0  0  0  0  0  0  0  0
   43.1960   23.5520   36.6620 C   0  0  0  0  0  0  0  0  0  0  0  0
   42.4750   23.6130   35.3340 C   0  0  0  0  0  0  0  0  0  0  0  0
   42.1780   25.0520   35.0510 C   0  0  0  0  0  0  0  0  0  0  0  0
   43.4940   25.7440   34.7740 C   0  0  0  0  0  0  0  0  0  0  0  0
   36.9819   25.2031   36.4964 H   0  0  0  0  0  0  0  0  0  0  0  0
   38.7259   24.3395   34.9043 H   0  0  0  0  0  0  0  0  0  0  0  0
   38.7995   23.0510   39.6650 H   0  0  0  0  0  0  0  0  0  0  0  0
   45.1149   26.1321   35.8544 H   0  0  0  0  0  0  0  0  0  0  0  0
   45.1310   24.2046   37.2347 H   0  0  0  0  0  0  0  0  0  0  0  0
   43.7632   25.4050   37.4684 H   0  0  0  0  0  0  0  0  0  0  0  0
   43.7059   22.5806   36.7423 H   0  0  0  0  0  0  0  0  0  0  0  0
   42.4458   23.6817   37.4559 H   0  0  0  0  0  0  0  0  0  0  0  0
   43.0937   23.2214   34.5131 H   0  0  0  0  0  0  0  0  0  0  0  0
   41.5192   25.1337   34.1739 H   0  0  0  0  0  0  0  0  0  0  0  0
   41.6693   25.5175   35.9080 H   0  0  0  0  0  0  0  0  0  0  0  0
   43.7723   25.5548   33.7268 H   0  0  0  0  0  0  0  0  0  0  0  0
   43.3449   26.8139   34.9815 H   0  0  0  0  0  0  0  0  0  0  0  0
  1  6  2  0
  2  3  2  0
  2  1  1  0
  3  4  1  0
  4  5  2  0
  6  5  1  0
  7  3  1  0
  8  9  1  0
 10  9  1  0
 11  7  1  0
 11 10  1  0
 12 11  1  0
 13 12  1  0
 13  8  1  0
  1 14  1  0
  2 15  1  0
  5 16  1  0
  8 17  1  0
  9 18  1  0
  9 19  1  0
 10 20  1  0
 10 21  1  0
 11 22  1  0
 12 23  1  0
 12 24  1  0
 13 25  1  0
 13 26  1  0
M  ISO  8  14  14  15  14  16  14  17   5  18  13  19  13  20  13  21  13
M  ISO  5  22  13  23  13  24  13  25  13  26  13
M  END
>  <minimizedAffinity>  (1) 
-3.60047626

>  <minimizedRMSD>  (1) 
5.16611671

$$$$
