
     RDKit          3D

 31 34  0  0  0  0  0  0  0  0999 V2000
   39.2390   22.4850   34.5840 C   0  0  0  0  0  0  0  0  0  0  0  0
   40.5250   22.2030   34.3000 N   0  0  0  0  0  0  0  0  0  0  0  0
   41.5230   22.2090   35.1790 C   0  0  0  0  0  0  0  0  0  0  0  0
   41.3030   22.5120   36.4780 N   0  0  0  0  0  0  0  0  0  0  0  0
   40.0450   22.8100   36.8600 C   0  0  0  0  0  0  0  0  0  0  0  0
   39.8540   23.1140   38.1880 C   0  0  0  0  0  0  0  0  0  0  0  0
   38.5970   23.4250   38.6340 C   0  0  0  0  0  0  0  0  0  0  0  0
   37.5560   23.4160   37.7060 C   0  0  0  0  0  0  0  0  0  0  0  0
   37.8160   23.1040   36.3980 C   0  0  0  0  0  0  0  0  0  0  0  0
   39.0450   22.7900   35.9100 C   0  0  0  0  0  0  0  0  0  0  0  0
   36.5500   23.1590   32.0500 C   0  0  0  0  0  0  0  0  0  0  0  0
   36.0750   21.8750   31.8380 C   0  0  0  0  0  0  0  0  0  0  0  0
   36.7030   20.8880   32.5680 C   0  0  0  0  0  0  0  0  0  0  0  0
   37.7000   21.2350   33.4090 N   0  0  0  0  0  0  0  0  0  0  0  0
   38.1500   22.4740   33.6070 C   0  0  0  0  0  0  0  0  0  0  0  0
   37.5270   23.3870   32.8920 N   0  0  0  0  0  0  0  0  0  0  0  0
   36.2390   19.5550   32.3750 N   0  0  0  0  0  0  0  0  0  0  0  0
   35.3080   18.7480   32.8530 C   0  0  0  0  0  0  0  0  0  0  0  0
   35.3840   17.5110   32.2120 C   0  0  0  0  0  0  0  0  0  0  0  0
   36.4130   17.6220   31.3230 N   0  0  0  0  0  0  0  0  0  0  0  0
   36.9160   18.8650   31.4370 C   0  0  0  0  0  0  0  0  0  0  0  0
   42.5418   21.9640   34.8444 H   0  0  0  0  0  0  0  0  0  0  0  0
   40.7041   23.1073   38.8861 H   0  0  0  0  0  0  0  0  0  0  0  0
   38.4144   23.6738   39.6898 H   0  0  0  0  0  0  0  0  0  0  0  0
   36.5309   23.6583   38.0231 H   0  0  0  0  0  0  0  0  0  0  0  0
   36.9713   23.1078   35.6934 H   0  0  0  0  0  0  0  0  0  0  0  0
   36.0996   24.0002   31.5026 H   0  0  0  0  0  0  0  0  0  0  0  0
   35.2553   21.6583   31.1372 H   0  0  0  0  0  0  0  0  0  0  0  0
   34.5831   19.0115   33.6373 H   0  0  0  0  0  0  0  0  0  0  0  0
   34.7477   16.6309   32.3868 H   0  0  0  0  0  0  0  0  0  0  0  0
   37.7578   19.2601   30.8495 H   0  0  0  0  0  0  0  0  0  0  0  0
  1 10  1  0
  2  1  2  0
  2  3  1  0
  3  4  2  0
  4  5  1  0
  5  6  2  0
  6  7  1  0
  8  7  2  0
  9  8  1  0
 10  9  2  0
 10  5  1  0
 11 16  2  0
 12 11  1  0
 12 13  2  0
 13 14  1  0
 14 15  2  0
 15  1  1  0
 16 15  1  0
 17 13  1  0
 17 18  1  0
 19 18  2  0
 20 21  2  0
 20 19  1  0
 21 17  1  0
  3 22  1  0
  6 23  1  0
  7 24  1  0
  8 25  1  0
  9 26  1  0
 11 27  1  0
 12 28  1  0
 18 29  1  0
 19 30  1  0
 21 31  1  0
M  ISO  8  22  14  23  14  24  14  25  14  26  14  27  14  28  14  29  14
M  ISO  2  30  14  31  14
M  END
>  <minimizedAffinity>  (1) 
-5.45077705

>  <minimizedRMSD>  (1) 
6.74532652

$$$$
