
     RDKit          3D

 30 33  0  0  0  0  0  0  0  0999 V2000
   39.2310   22.4470   34.5540 C   0  0  0  0  0  0  0  0  0  0  0  0
   40.5160   22.1470   34.2520 N   0  0  0  0  0  0  0  0  0  0  0  0
   41.5200   22.1440   35.1310 C   0  0  0  0  0  0  0  0  0  0  0  0
   41.3050   22.4530   36.4290 N   0  0  0  0  0  0  0  0  0  0  0  0
   40.0610   22.7640   36.8250 C   0  0  0  0  0  0  0  0  0  0  0  0
   39.8820   23.0730   38.1530 C   0  0  0  0  0  0  0  0  0  0  0  0
   38.6230   23.4000   38.6080 C   0  0  0  0  0  0  0  0  0  0  0  0
   37.5740   23.4030   37.6890 C   0  0  0  0  0  0  0  0  0  0  0  0
   37.8250   23.0830   36.3750 C   0  0  0  0  0  0  0  0  0  0  0  0
   39.0480   22.7550   35.8790 C   0  0  0  0  0  0  0  0  0  0  0  0
   36.5240   23.1350   32.0400 C   0  0  0  0  0  0  0  0  0  0  0  0
   36.0390   21.8540   31.8330 C   0  0  0  0  0  0  0  0  0  0  0  0
   36.6670   20.8660   32.5600 C   0  0  0  0  0  0  0  0  0  0  0  0
   37.6720   21.2030   33.3900 N   0  0  0  0  0  0  0  0  0  0  0  0
   38.1320   22.4470   33.5830 C   0  0  0  0  0  0  0  0  0  0  0  0
   37.5110   23.3640   32.8750 N   0  0  0  0  0  0  0  0  0  0  0  0
   36.1950   19.5360   32.3720 N   0  0  0  0  0  0  0  0  0  0  0  0
   35.2150   18.7460   32.7880 C   0  0  0  0  0  0  0  0  0  0  0  0
   35.3590   17.5390   32.1840 N   0  0  0  0  0  0  0  0  0  0  0  0
   36.4410   17.5940   31.3870 C   0  0  0  0  0  0  0  0  0  0  0  0
   36.9470   18.8320   31.5120 N   0  0  0  0  0  0  0  0  0  0  0  0
   42.5353   21.8868   34.7949 H   0  0  0  0  0  0  0  0  0  0  0  0
   40.7362   23.0593   38.8459 H   0  0  0  0  0  0  0  0  0  0  0  0
   38.4505   23.6513   39.6649 H   0  0  0  0  0  0  0  0  0  0  0  0
   36.5543   23.6592   38.0123 H   0  0  0  0  0  0  0  0  0  0  0  0
   36.9760   23.0931   35.6756 H   0  0  0  0  0  0  0  0  0  0  0  0
   36.0733   23.9769   31.4940 H   0  0  0  0  0  0  0  0  0  0  0  0
   35.2127   21.6410   31.1388 H   0  0  0  0  0  0  0  0  0  0  0  0
   34.4224   19.0210   33.4995 H   0  0  0  0  0  0  0  0  0  0  0  0
   36.8347   16.7835   30.7560 H   0  0  0  0  0  0  0  0  0  0  0  0
  1 10  1  0
  2  1  2  0
  2  3  1  0
  3  4  2  0
  4  5  1  0
  5  6  2  0
  6  7  1  0
  8  7  2  0
  9  8  1  0
 10  9  2  0
 10  5  1  0
 11 16  2  0
 12 11  1  0
 12 13  2  0
 13 14  1  0
 14 15  2  0
 15  1  1  0
 16 15  1  0
 17 13  1  0
 17 18  1  0
 19 18  2  0
 20 21  2  0
 20 19  1  0
 21 17  1  0
  3 22  1  0
  6 23  1  0
  7 24  1  0
  8 25  1  0
  9 26  1  0
 11 27  1  0
 12 28  1  0
 18 29  1  0
 20 30  1  0
M  ISO  8  22  14  23  14  24  14  25  14  26  14  27  14  28  14  29  14
M  ISO  1  30  14
M  END
>  <minimizedAffinity>  (1) 
-5.45477867

>  <minimizedRMSD>  (1) 
6.74122858

$$$$
