
     RDKit          3D

 31 34  0  0  0  0  0  0  0  0999 V2000
   39.1820   22.7190   34.6120 C   0  0  0  0  0  0  0  0  0  0  0  0
   40.4000   22.2160   34.3340 N   0  0  0  0  0  0  0  0  0  0  0  0
   41.3580   21.9870   35.2250 C   0  0  0  0  0  0  0  0  0  0  0  0
   41.1740   22.2520   36.5270 N   0  0  0  0  0  0  0  0  0  0  0  0
   39.9860   22.7600   36.9140 C   0  0  0  0  0  0  0  0  0  0  0  0
   39.8240   23.0230   38.2570 C   0  0  0  0  0  0  0  0  0  0  0  0
   38.6390   23.5400   38.7070 C   0  0  0  0  0  0  0  0  0  0  0  0
   37.6410   23.7780   37.7730 C   0  0  0  0  0  0  0  0  0  0  0  0
   37.8650   23.4930   36.4420 C   0  0  0  0  0  0  0  0  0  0  0  0
   39.0280   22.9790   35.9550 C   0  0  0  0  0  0  0  0  0  0  0  0
   36.7540   24.0340   32.0710 C   0  0  0  0  0  0  0  0  0  0  0  0
   36.0050   22.8960   31.8300 C   0  0  0  0  0  0  0  0  0  0  0  0
   36.3750   21.7550   32.5470 C   0  0  0  0  0  0  0  0  0  0  0  0
   37.4110   21.8620   33.3970 N   0  0  0  0  0  0  0  0  0  0  0  0
   38.1280   22.9680   33.6220 C   0  0  0  0  0  0  0  0  0  0  0  0
   37.7450   24.0150   32.9250 N   0  0  0  0  0  0  0  0  0  0  0  0
   35.6420   20.4880   32.3640 C   0  0  0  0  0  0  0  0  0  0  0  0
   36.1760   19.2510   32.5970 C   0  0  0  0  0  0  0  0  0  0  0  0
   35.1840   18.3040   32.3140 C   0  0  0  0  0  0  0  0  0  0  0  0
   34.0910   19.0170   31.9210 N   0  0  0  0  0  0  0  0  0  0  0  0
   34.3730   20.3250   31.9540 N   0  0  0  0  0  0  0  0  0  0  0  0
   42.3199   21.5724   34.8891 H   0  0  0  0  0  0  0  0  0  0  0  0
   40.6421   22.8187   38.9633 H   0  0  0  0  0  0  0  0  0  0  0  0
   38.4832   23.7594   39.7736 H   0  0  0  0  0  0  0  0  0  0  0  0
   36.6738   24.1928   38.0930 H   0  0  0  0  0  0  0  0  0  0  0  0
   37.0522   23.6938   35.7286 H   0  0  0  0  0  0  0  0  0  0  0  0
   36.5135   24.9658   31.5383 H   0  0  0  0  0  0  0  0  0  0  0  0
   35.1679   22.8897   31.1164 H   0  0  0  0  0  0  0  0  0  0  0  0
   37.1982   19.0385   32.9435 H   0  0  0  0  0  0  0  0  0  0  0  0
   35.2693   17.2101   32.3927 H   0  0  0  0  0  0  0  0  0  0  0  0
   33.1865   18.6114   31.6414 H   0  0  0  0  0  0  0  0  0  0  0  0
  1 10  1  0
  2  1  2  0
  2  3  1  0
  3  4  2  0
  4  5  1  0
  5  6  2  0
  6  7  1  0
  8  7  2  0
  9  8  1  0
 10  9  2  0
 10  5  1  0
 11 16  2  0
 12 11  1  0
 12 13  2  0
 13 14  1  0
 14 15  2  0
 15  1  1  0
 16 15  1  0
 17 13  1  0
 17 18  1  0
 19 18  2  0
 20 21  1  0
 20 19  1  0
 21 17  2  0
  3 22  1  0
  6 23  1  0
  7 24  1  0
  8 25  1  0
  9 26  1  0
 11 27  1  0
 12 28  1  0
 18 29  1  0
 19 30  1  0
 20 31  1  0
M  ISO  8  22  14  23  14  24  14  25  14  26  14  27  14  28  14  29  14
M  ISO  2  30  14  31   9
M  END
>  <minimizedAffinity>  (1) 
-5.8672533

>  <minimizedRMSD>  (1) 
6.44119167

$$$$
