
     RDKit          3D

 29 32  0  0  0  0  0  0  0  0999 V2000
   39.2170   22.4090   34.5510 C   0  0  0  0  0  0  0  0  0  0  0  0
   40.5020   22.1160   34.2620 N   0  0  0  0  0  0  0  0  0  0  0  0
   41.5080   22.1240   35.1270 C   0  0  0  0  0  0  0  0  0  0  0  0
   41.3050   22.4420   36.4180 N   0  0  0  0  0  0  0  0  0  0  0  0
   40.0490   22.7520   36.8070 C   0  0  0  0  0  0  0  0  0  0  0  0
   39.8700   23.0750   38.1420 C   0  0  0  0  0  0  0  0  0  0  0  0
   38.6190   23.3980   38.5930 C   0  0  0  0  0  0  0  0  0  0  0  0
   37.5770   23.3850   37.6800 C   0  0  0  0  0  0  0  0  0  0  0  0
   37.8160   23.0550   36.3610 C   0  0  0  0  0  0  0  0  0  0  0  0
   39.0420   22.7280   35.8720 C   0  0  0  0  0  0  0  0  0  0  0  0
   36.5080   23.0780   32.0390 C   0  0  0  0  0  0  0  0  0  0  0  0
   36.0410   21.7910   31.8260 C   0  0  0  0  0  0  0  0  0  0  0  0
   36.6790   20.8060   32.5470 C   0  0  0  0  0  0  0  0  0  0  0  0
   37.6770   21.1640   33.3780 N   0  0  0  0  0  0  0  0  0  0  0  0
   38.1240   22.3940   33.5830 C   0  0  0  0  0  0  0  0  0  0  0  0
   37.4930   23.3230   32.8770 N   0  0  0  0  0  0  0  0  0  0  0  0
   36.2080   19.4370   32.3440 C   0  0  0  0  0  0  0  0  0  0  0  0
   35.1580   18.7320   32.8030 N   0  0  0  0  0  0  0  0  0  0  0  0
   35.1890   17.5240   32.3120 O   0  0  0  0  0  0  0  0  0  0  0  0
   36.2500   17.4080   31.5240 C   0  0  0  0  0  0  0  0  0  0  0  0
   36.8860   18.5910   31.5400 N   0  0  0  0  0  0  0  0  0  0  0  0
   42.5211   21.8673   34.7839 H   0  0  0  0  0  0  0  0  0  0  0  0
   40.7256   23.0719   38.8333 H   0  0  0  0  0  0  0  0  0  0  0  0
   38.4462   23.6597   39.6473 H   0  0  0  0  0  0  0  0  0  0  0  0
   36.5576   23.6380   38.0067 H   0  0  0  0  0  0  0  0  0  0  0  0
   36.9646   23.0567   35.6646 H   0  0  0  0  0  0  0  0  0  0  0  0
   36.0448   23.9144   31.4951 H   0  0  0  0  0  0  0  0  0  0  0  0
   35.2182   21.5713   31.1297 H   0  0  0  0  0  0  0  0  0  0  0  0
   36.5521   16.5114   30.9629 H   0  0  0  0  0  0  0  0  0  0  0  0
  1 10  1  0
  2  1  2  0
  2  3  1  0
  3  4  2  0
  4  5  1  0
  5  6  2  0
  6  7  1  0
  8  7  2  0
  9  8  1  0
 10  9  2  0
 10  5  1  0
 11 16  2  0
 12 11  1  0
 12 13  2  0
 13 14  1  0
 14 15  2  0
 15  1  1  0
 16 15  1  0
 17 13  1  0
 17 18  2  0
 19 18  1  0
 20 21  2  0
 20 19  1  0
 21 17  1  0
  3 22  1  0
  6 23  1  0
  7 24  1  0
  8 25  1  0
  9 26  1  0
 11 27  1  0
 12 28  1  0
 20 29  1  0
M  ISO  8  22  14  23  14  24  14  25  14  26  14  27  14  28  14  29  14
M  END
>  <minimizedAffinity>  (1) 
-5.15671206

>  <minimizedRMSD>  (1) 
6.7561636

$$$$
