
     RDKit          3D

 31 34  0  0  0  0  0  0  0  0999 V2000
   39.2560   22.5540   34.6140 C   0  0  0  0  0  0  0  0  0  0  0  0
   40.5380   22.2510   34.3540 N   0  0  0  0  0  0  0  0  0  0  0  0
   41.5210   22.2210   35.2430 C   0  0  0  0  0  0  0  0  0  0  0  0
   41.2780   22.5110   36.5460 N   0  0  0  0  0  0  0  0  0  0  0  0
   40.0310   22.8270   36.9150 C   0  0  0  0  0  0  0  0  0  0  0  0
   39.8220   23.1150   38.2420 C   0  0  0  0  0  0  0  0  0  0  0  0
   38.5610   23.4450   38.6720 C   0  0  0  0  0  0  0  0  0  0  0  0
   37.5400   23.4730   37.7300 C   0  0  0  0  0  0  0  0  0  0  0  0
   37.8170   23.1740   36.4100 C   0  0  0  0  0  0  0  0  0  0  0  0
   39.0480   22.8420   35.9410 C   0  0  0  0  0  0  0  0  0  0  0  0
   36.6190   23.3190   32.0510 C   0  0  0  0  0  0  0  0  0  0  0  0
   36.1270   22.0450   31.8150 C   0  0  0  0  0  0  0  0  0  0  0  0
   36.7260   21.0150   32.5430 C   0  0  0  0  0  0  0  0  0  0  0  0
   37.7120   21.3430   33.3960 N   0  0  0  0  0  0  0  0  0  0  0  0
   38.1800   22.5800   33.6160 C   0  0  0  0  0  0  0  0  0  0  0  0
   37.5880   23.5130   32.9110 N   0  0  0  0  0  0  0  0  0  0  0  0
   36.2810   19.6130   32.3720 C   0  0  0  0  0  0  0  0  0  0  0  0
   36.8570   18.7380   31.4770 C   0  0  0  0  0  0  0  0  0  0  0  0
   36.1690   17.5270   31.6100 C   0  0  0  0  0  0  0  0  0  0  0  0
   35.2040   17.7610   32.5970 C   0  0  0  0  0  0  0  0  0  0  0  0
   35.3110   19.0090   33.0160 O   0  0  0  0  0  0  0  0  0  0  0  0
   42.5401   21.9593   34.9222 H   0  0  0  0  0  0  0  0  0  0  0  0
   40.6592   23.0814   38.9547 H   0  0  0  0  0  0  0  0  0  0  0  0
   38.3650   23.6798   39.7286 H   0  0  0  0  0  0  0  0  0  0  0  0
   36.5151   23.7322   38.0341 H   0  0  0  0  0  0  0  0  0  0  0  0
   36.9854   23.2069   35.6908 H   0  0  0  0  0  0  0  0  0  0  0  0
   36.1913   24.1763   31.5105 H   0  0  0  0  0  0  0  0  0  0  0  0
   35.3143   21.8568   31.0980 H   0  0  0  0  0  0  0  0  0  0  0  0
   37.6923   18.9496   30.7933 H   0  0  0  0  0  0  0  0  0  0  0  0
   36.3478   16.5924   31.0580 H   0  0  0  0  0  0  0  0  0  0  0  0
   34.4744   17.0243   32.9643 H   0  0  0  0  0  0  0  0  0  0  0  0
  1 10  1  0
  2  1  2  0
  2  3  1  0
  3  4  2  0
  4  5  1  0
  5  6  2  0
  6  7  1  0
  8  7  2  0
  9  8  1  0
 10  9  2  0
 10  5  1  0
 11 16  2  0
 12 11  1  0
 12 13  2  0
 13 14  1  0
 14 15  2  0
 15  1  1  0
 16 15  1  0
 17 13  1  0
 17 21  1  0
 18 19  1  0
 18 17  2  0
 19 20  2  0
 20 21  1  0
  3 22  1  0
  6 23  1  0
  7 24  1  0
  8 25  1  0
  9 26  1  0
 11 27  1  0
 12 28  1  0
 18 29  1  0
 19 30  1  0
 20 31  1  0
M  ISO  8  22  14  23  14  24  14  25  14  26  14  27  14  28  14  29  14
M  ISO  2  30  14  31  14
M  END
>  <minimizedAffinity>  (1) 
-5.31658077

>  <minimizedRMSD>  (1) 
6.65289259

$$$$
