
     RDKit          3D

 31 34  0  0  0  0  0  0  0  0999 V2000
   37.7430   22.9920   33.2320 C   0  0  0  0  0  0  0  0  0  0  0  0
   37.7730   24.0980   32.4400 N   0  0  0  0  0  0  0  0  0  0  0  0
   36.9540   24.3140   31.4120 C   0  0  0  0  0  0  0  0  0  0  0  0
   36.0040   23.4120   31.0810 N   0  0  0  0  0  0  0  0  0  0  0  0
   35.8930   22.2900   31.8000 C   0  0  0  0  0  0  0  0  0  0  0  0
   34.9170   21.4170   31.4180 C   0  0  0  0  0  0  0  0  0  0  0  0
   34.7560   20.2340   32.1300 C   0  0  0  0  0  0  0  0  0  0  0  0
   35.6170   20.0050   33.2130 C   0  0  0  0  0  0  0  0  0  0  0  0
   36.5780   20.9400   33.5330 C   0  0  0  0  0  0  0  0  0  0  0  0
   36.7630   22.1000   32.8620 C   0  0  0  0  0  0  0  0  0  0  0  0
   40.5220   22.1720   35.6230 C   0  0  0  0  0  0  0  0  0  0  0  0
   39.9040   22.5040   36.8330 C   0  0  0  0  0  0  0  0  0  0  0  0
   38.6110   22.9720   36.7280 C   0  0  0  0  0  0  0  0  0  0  0  0
   38.0520   23.0740   35.5140 N   0  0  0  0  0  0  0  0  0  0  0  0
   38.6420   22.7570   34.3550 C   0  0  0  0  0  0  0  0  0  0  0  0
   39.8820   22.3100   34.4820 N   0  0  0  0  0  0  0  0  0  0  0  0
   37.8840   23.3480   37.9920 C   0  0  0  0  0  0  0  0  0  0  0  0
   38.8340   23.8010   39.0860 C   0  0  0  0  0  0  0  0  0  0  0  0
   37.8470   24.7500   38.4450 C   0  0  0  0  0  0  0  0  0  0  0  0
   37.0523   25.2389   30.8248 H   0  0  0  0  0  0  0  0  0  0  0  0
   34.2676   21.6455   30.5601 H   0  0  0  0  0  0  0  0  0  0  0  0
   33.9811   19.5037   31.8539 H   0  0  0  0  0  0  0  0  0  0  0  0
   35.5258   19.0824   33.8051 H   0  0  0  0  0  0  0  0  0  0  0  0
   37.2365   20.7294   34.3886 H   0  0  0  0  0  0  0  0  0  0  0  0
   41.5541   21.7915   35.6255 H   0  0  0  0  0  0  0  0  0  0  0  0
   40.4142   22.3990   37.8018 H   0  0  0  0  0  0  0  0  0  0  0  0
   37.0822   22.6080   37.8524 H   0  0  0  0  0  0  0  0  0  0  0  0
   38.6870   23.4646   40.1229 H   0  0  0  0  0  0  0  0  0  0  0  0
   39.9228   23.7829   39.2417 H   0  0  0  0  0  0  0  0  0  0  0  0
   38.2087   25.5490   37.7811 H   0  0  0  0  0  0  0  0  0  0  0  0
   37.0595   25.4169   38.8259 H   0  0  0  0  0  0  0  0  0  0  0  0
  1 15  1  0
  2  1  2  0
  3  2  1  0
  4  3  2  0
  4  5  1  0
  5 10  2  0
  6  5  1  0
  6  7  2  0
  7  8  1  0
  8  9  2  0
 10  1  1  0
 10  9  1  0
 11 12  2  0
 13 12  1  0
 13 17  1  0
 14 13  2  0
 15 16  2  0
 15 14  1  0
 16 11  1  0
 17 19  1  0
 17 18  1  0
 19 18  1  0
  3 20  1  0
  6 21  1  0
  7 22  1  0
  8 23  1  0
  9 24  1  0
 11 25  1  0
 12 26  1  0
 17 27  1  0
 18 28  1  0
 18 29  1  0
 19 30  1  0
 19 31  1  0
M  ISO  8  20  14  21  14  22  14  23  14  24  14  25  14  26  14  27  13
M  ISO  4  28  13  29  13  30  13  31  13
M  END
>  <minimizedAffinity>  (1) 
-5.26230383

>  <minimizedRMSD>  (1) 
1.59622788

$$$$
