
     RDKit          3D

 46 49  0  0  1  0  0  0  0  0999 V2000
   36.1540   29.2190   32.5760 C   0  0  0  0  0  0  0  0  0  0  0  0
   36.8150   28.2580   31.8610 C   0  0  0  0  0  0  0  0  0  0  0  0
   37.2320   27.1120   32.5400 C   0  0  0  0  0  0  0  0  0  0  0  0
   36.9910   26.9550   33.8680 C   0  0  0  0  0  0  0  0  0  0  0  0
   36.3300   27.9170   34.5880 C   0  0  0  0  0  0  0  0  0  0  0  0
   35.9070   29.0550   33.9430 C   0  0  0  0  0  0  0  0  0  0  0  0
   37.5080   25.6810   34.4060 C   0  0  0  0  0  0  0  0  0  0  0  0
   38.8940   25.7530   34.9030 C   0  0  2  0  0  0  0  0  0  0  0  0
   40.7700   23.0180   36.4590 C   0  0  0  0  0  0  0  0  0  0  0  0
   39.9460   22.6620   37.5920 C   0  0  0  0  0  0  0  0  0  0  0  0
   38.7460   23.3810   37.7930 C   0  0  0  0  0  0  0  0  0  0  0  0
   38.4440   24.3760   36.8960 N   0  0  0  0  0  0  0  0  0  0  0  0
   39.2530   24.6770   35.8420 C   0  0  0  0  0  0  0  0  0  0  0  0
   40.4060   24.0080   35.6210 N   0  0  0  0  0  0  0  0  0  0  0  0
   39.0790   27.0970   35.6530 C   0  0  0  0  0  0  0  0  0  0  0  0
   35.6120   30.6720   31.7690 S   0  0  0  0  0  0  0  0  0  0  0  0
   36.0750   30.5700   30.3200 O   0  0  0  0  0  0  0  0  0  0  0  0
   36.2430   31.8990   32.3510 O   0  0  0  0  0  0  0  0  0  0  0  0
   33.8840   30.8130   31.8320 C   0  0  0  0  0  0  0  0  0  0  0  0
   32.9410   30.4060   32.6830 N   0  0  0  0  0  0  0  0  0  0  0  0
   31.7600   30.7750   32.2710 O   0  0  0  0  0  0  0  0  0  0  0  0
   31.8900   31.4340   31.1370 C   0  0  0  0  0  0  0  0  0  0  0  0
   33.1800   31.4600   30.8660 N   0  0  0  0  0  0  0  0  0  0  0  0
   30.7370   31.9710   30.4350 C   0  0  0  0  0  0  0  0  0  0  0  0
   29.6730   32.1820   31.0630 O   0  0  0  0  0  0  0  0  0  0  0  0
   30.7490   32.2860   29.0110 C   0  0  0  0  0  0  0  0  0  0  0  0
   30.0580   33.3520   28.4720 C   0  0  0  0  0  0  0  0  0  0  0  0
   30.2640   33.3830   27.1290 N   0  0  0  0  0  0  0  0  0  0  0  0
   31.0850   32.3270   26.8640 C   0  0  0  0  0  0  0  0  0  0  0  0
   31.3710   31.6770   27.9860 N   0  0  0  0  0  0  0  0  0  0  0  0
   37.0114   28.3843   30.7861 H   0  0  0  0  0  0  0  0  0  0  0  0
   37.7650   26.3222   31.9904 H   0  0  0  0  0  0  0  0  0  0  0  0
   36.1415   27.7804   35.6631 H   0  0  0  0  0  0  0  0  0  0  0  0
   35.3736   29.8375   34.5026 H   0  0  0  0  0  0  0  0  0  0  0  0
   36.8591   25.3691   35.2376 H   0  0  0  0  0  0  0  0  0  0  0  0
   37.5079   24.9628   33.5728 H   0  0  0  0  0  0  0  0  0  0  0  0
   39.5433   25.6546   34.0205 H   0  0  0  0  0  0  0  0  0  0  0  0
   41.7080   22.4726   36.2784 H   0  0  0  0  0  0  0  0  0  0  0  0
   40.2442   21.8552   38.2776 H   0  0  0  0  0  0  0  0  0  0  0  0
   38.0785   23.1521   38.6368 H   0  0  0  0  0  0  0  0  0  0  0  0
   39.0543   26.9178   36.7380 H   0  0  0  0  0  0  0  0  0  0  0  0
   40.0467   27.5410   35.3766 H   0  0  0  0  0  0  0  0  0  0  0  0
   38.2672   27.7859   35.3766 H   0  0  0  0  0  0  0  0  0  0  0  0
   29.4392   34.0631   29.0389 H   0  0  0  0  0  0  0  0  0  0  0  0
   31.4565   32.0533   25.8655 H   0  0  0  0  0  0  0  0  0  0  0  0
   31.9710   30.8430   28.0592 H   0  0  0  0  0  0  0  0  0  0  0  0
  1  6  2  0
  2  3  2  0
  2  1  1  0
  3  4  1  0
  4  7  1  0
  4  5  2  0
  6  5  1  0
  7  8  1  0
  8 15  1  0
  8 13  1  0
  9 10  2  0
 10 11  1  0
 12 11  2  0
 13 12  1  0
 14 13  2  0
 14  9  1  0
 16 19  1  0
 16 18  2  0
 16  1  1  0
 17 16  2  0
 19 20  2  0
 21 20  1  0
 22 21  1  0
 23 22  2  0
 23 19  1  0
 24 25  2  0
 24 22  1  0
 26 24  1  0
 27 26  2  0
 28 27  1  0
 29 28  2  0
 29 30  1  0
 30 26  1  0
  2 31  1  0
  3 32  1  0
  5 33  1  0
  6 34  1  0
  7 35  1  0
  7 36  1  0
  8 37  1  6
  9 38  1  0
 10 39  1  0
 11 40  1  0
 15 41  1  0
 15 42  1  0
 15 43  1  0
 27 44  1  0
 29 45  1  0
 30 46  1  0
M  ISO  8  31  14  32  14  33  14  34  14  35   8  36   8  37   8  38  14
M  ISO  8  39  14  40  14  41   8  42   8  43   8  44  14  45  14  46   9
M  END
>  <minimizedAffinity>  (1) 
-5.50249147

>  <minimizedRMSD>  (1) 
1.77545929

$$$$
