
     RDKit          3D

 18 19  0  0  0  0  0  0  0  0999 V2000
   41.0690   21.9390   37.4550 C   0  0  0  0  0  0  0  0  0  0  0  0
   39.9150   22.6930   37.7330 C   0  0  0  0  0  0  0  0  0  0  0  0
   39.1810   23.1750   36.6500 C   0  0  0  0  0  0  0  0  0  0  0  0
   39.6160   22.8920   35.4070 N   0  0  0  0  0  0  0  0  0  0  0  0
   40.7300   22.1650   35.1660 C   0  0  0  0  0  0  0  0  0  0  0  0
   41.4510   21.6920   36.1890 N   0  0  0  0  0  0  0  0  0  0  0  0
   37.7060   24.1370   36.9150 S   0  0  0  0  0  0  0  0  0  0  0  0
   38.4530   27.7670   35.9310 N   0  0  0  0  0  0  0  0  0  0  0  0
   38.4600   26.7250   36.7500 N   0  0  0  0  0  0  0  0  0  0  0  0
   37.8630   25.7260   36.0720 C   0  0  0  0  0  0  0  0  0  0  0  0
   37.4850   26.1610   34.8180 C   0  0  0  0  0  0  0  0  0  0  0  0
   37.8770   27.4820   34.7500 C   0  0  0  0  0  0  0  0  0  0  0  0
   41.6700   21.5442   38.2875 H   0  0  0  0  0  0  0  0  0  0  0  0
   39.6025   22.8953   38.7681 H   0  0  0  0  0  0  0  0  0  0  0  0
   41.0430   21.9628   34.1310 H   0  0  0  0  0  0  0  0  0  0  0  0
   38.8439   28.6891   36.1716 H   0  0  0  0  0  0  0  0  0  0  0  0
   36.9774   25.5767   34.0363 H   0  0  0  0  0  0  0  0  0  0  0  0
   37.7446   28.1661   33.8988 H   0  0  0  0  0  0  0  0  0  0  0  0
  1  2  2  0
  3  7  1  0
  3  2  1  0
  4  3  2  0
  5  4  1  0
  5  6  2  0
  6  1  1  0
  8  9  1  0
 10  9  2  0
 10  7  1  0
 11 10  1  0
 12 11  2  0
 12  8  1  0
  1 13  1  0
  2 14  1  0
  5 15  1  0
  8 16  1  0
 11 17  1  0
 12 18  1  0
M  ISO  6  13  14  14  14  15  14  16   9  17  14  18  14
M  END
>  <minimizedAffinity>  (1) 
-3.57842159

>  <minimizedRMSD>  (1) 
2.33531332

$$$$
