
     RDKit          3D

 34 36  0  0  0  0  0  0  0  0999 V2000
   39.2780   22.4390   36.7360 C   0  0  0  0  0  0  0  0  0  0  0  0
   38.8240   23.7240   36.9450 C   0  0  0  0  0  0  0  0  0  0  0  0
   38.2160   24.3170   35.8730 C   0  0  0  0  0  0  0  0  0  0  0  0
   38.1010   23.6420   34.7360 N   0  0  0  0  0  0  0  0  0  0  0  0
   38.5320   22.3790   34.5170 C   0  0  0  0  0  0  0  0  0  0  0  0
   39.1250   21.8420   35.5900 N   0  0  0  0  0  0  0  0  0  0  0  0
   37.6590   25.6400   35.9290 N   0  0  0  0  0  0  0  0  0  0  0  0
   38.2540   26.7660   35.3160 C   0  0  0  0  0  0  0  0  0  0  0  0
   38.6620   26.5430   34.0820 N   0  0  0  0  0  0  0  0  0  0  0  0
   38.3360   27.9790   36.1020 N   0  0  0  0  0  0  0  0  0  0  0  0
   39.1180   27.3310   33.5880 H   0  0  0  0  0  0  0  0  0  0  0  0
   38.2800   21.9370   33.1750 C   0  0  0  0  0  0  0  0  0  0  0  0
   39.1170   22.2060   32.1580 N   0  0  0  0  0  0  0  0  0  0  0  0
   38.9110   21.8070   30.8800 C   0  0  0  0  0  0  0  0  0  0  0  0
   37.8250   21.0960   30.5500 N   0  0  0  0  0  0  0  0  0  0  0  0
   36.9390   20.7870   31.5280 C   0  0  0  0  0  0  0  0  0  0  0  0
   35.8610   20.0260   31.1630 C   0  0  0  0  0  0  0  0  0  0  0  0
   34.9610   19.6460   32.1090 C   0  0  0  0  0  0  0  0  0  0  0  0
   35.1920   20.0580   33.3960 C   0  0  0  0  0  0  0  0  0  0  0  0
   36.2930   20.8360   33.7490 C   0  0  0  0  0  0  0  0  0  0  0  0
   37.1910   21.2160   32.8190 C   0  0  0  0  0  0  0  0  0  0  0  0
   36.3540   21.1460   35.2010 C   0  0  0  0  0  0  0  0  0  0  0  0
   39.7809   21.9064   37.5566 H   0  0  0  0  0  0  0  0  0  0  0  0
   38.9429   24.2382   37.9101 H   0  0  0  0  0  0  0  0  0  0  0  0
   36.7775   25.7755   36.4442 H   0  0  0  0  0  0  0  0  0  0  0  0
   38.7612   28.8261   35.6989 H   0  0  0  0  0  0  0  0  0  0  0  0
   37.9691   27.9949   37.0643 H   0  0  0  0  0  0  0  0  0  0  0  0
   39.6446   22.0702   30.1037 H   0  0  0  0  0  0  0  0  0  0  0  0
   35.7241   19.7247   30.1140 H   0  0  0  0  0  0  0  0  0  0  0  0
   34.0841   19.0335   31.8522 H   0  0  0  0  0  0  0  0  0  0  0  0
   34.4802   19.7628   34.1810 H   0  0  0  0  0  0  0  0  0  0  0  0
   36.1734   20.2282   35.7798 H   0  0  0  0  0  0  0  0  0  0  0  0
   37.3481   21.5462   35.4490 H   0  0  0  0  0  0  0  0  0  0  0  0
   35.5856   21.8931   35.4490 H   0  0  0  0  0  0  0  0  0  0  0  0
  1  2  2  0
  3  7  1  0
  3  2  1  0
  4  3  2  0
  5  4  1  0
  5  6  2  0
  6  1  1  0
  8  7  1  0
  8 10  1  0
  9  8  2  0
 11  9  1  0
 12  5  1  0
 13 12  2  0
 14 13  1  0
 15 14  2  0
 15 16  1  0
 16 21  2  0
 17 16  1  0
 17 18  2  0
 18 19  1  0
 19 20  2  0
 20 22  1  0
 21 12  1  0
 21 20  1  0
  1 23  1  0
  2 24  1  0
  7 25  1  0
 10 26  1  0
 10 27  1  0
 14 28  1  0
 17 29  1  0
 18 30  1  0
 19 31  1  0
 22 32  1  0
 22 33  1  0
 22 34  1  0
M  ISO  8  23  14  24  14  28  14  29  14  30  14  31  14  32   8  33   8
M  ISO  1  34   8
M  END
>  <minimizedAffinity>  (1) 
-5.56870365

>  <minimizedRMSD>  (1) 
0.155162796

$$$$
