
     RDKit          3D

 39 42  0  0  0  0  0  0  0  0999 V2000
   36.9020   25.1320   32.8150 C   0  0  0  0  0  0  0  0  0  0  0  0
   36.1310   25.8680   31.9780 N   0  0  0  0  0  0  0  0  0  0  0  0
   35.4360   25.3680   30.9430 C   0  0  0  0  0  0  0  0  0  0  0  0
   35.4620   24.0530   30.6630 N   0  0  0  0  0  0  0  0  0  0  0  0
   36.2050   23.2440   31.4470 C   0  0  0  0  0  0  0  0  0  0  0  0
   36.2020   21.9110   31.1160 C   0  0  0  0  0  0  0  0  0  0  0  0
   36.9510   21.0450   31.8830 C   0  0  0  0  0  0  0  0  0  0  0  0
   37.6770   21.5690   32.9560 C   0  0  0  0  0  0  0  0  0  0  0  0
   37.6200   22.9300   33.2160 C   0  0  0  0  0  0  0  0  0  0  0  0
   36.9000   23.8120   32.4950 C   0  0  0  0  0  0  0  0  0  0  0  0
   38.2640   26.3120   36.0910 C   0  0  0  0  0  0  0  0  0  0  0  0
   39.4350   26.9350   35.6660 C   0  0  0  0  0  0  0  0  0  0  0  0
   39.6720   26.9090   34.3090 C   0  0  0  0  0  0  0  0  0  0  0  0
   38.7570   26.2900   33.5300 N   0  0  0  0  0  0  0  0  0  0  0  0
   37.6330   25.6940   33.9380 C   0  0  0  0  0  0  0  0  0  0  0  0
   37.4430   25.7400   35.2490 N   0  0  0  0  0  0  0  0  0  0  0  0
   40.8180   27.5160   33.7470 N   0  0  0  0  0  0  0  0  0  0  0  0
   41.9170   26.7780   33.2140 C   0  0  0  0  0  0  0  0  0  0  0  0
   41.5670   25.7550   32.4560 N   0  0  0  0  0  0  0  0  0  0  0  0
   43.2370   27.2410   33.5730 N   0  0  0  0  0  0  0  0  0  0  0  0
   42.3310   25.1920   32.0530 H   0  0  0  0  0  0  0  0  0  0  0  0
   38.5160   23.1250   34.3450 C   0  0  0  0  0  0  0  0  0  0  0  0
   39.8160   23.5660   34.5040 C   0  0  0  0  0  0  0  0  0  0  0  0
   40.4500   23.7370   35.7100 C   0  0  0  0  0  0  0  0  0  0  0  0
   39.7190   23.4430   36.8050 N   0  0  0  0  0  0  0  0  0  0  0  0
   38.4420   23.0080   36.6730 C   0  0  0  0  0  0  0  0  0  0  0  0
   37.8010   22.8350   35.4840 N   0  0  0  0  0  0  0  0  0  0  0  0
   34.8369   26.0441   30.3153 H   0  0  0  0  0  0  0  0  0  0  0  0
   35.6165   21.5439   30.2602 H   0  0  0  0  0  0  0  0  0  0  0  0
   36.9767   19.9689   31.6564 H   0  0  0  0  0  0  0  0  0  0  0  0
   38.2879   20.9081   33.5884 H   0  0  0  0  0  0  0  0  0  0  0  0
   38.0232   26.3008   37.1643 H   0  0  0  0  0  0  0  0  0  0  0  0
   40.1280   27.4181   36.3705 H   0  0  0  0  0  0  0  0  0  0  0  0
   40.8623   28.5447   33.7208 H   0  0  0  0  0  0  0  0  0  0  0  0
   44.0695   26.7487   33.2187 H   0  0  0  0  0  0  0  0  0  0  0  0
   43.3460   28.0635   34.1834 H   0  0  0  0  0  0  0  0  0  0  0  0
   40.3876   23.7982   33.5933 H   0  0  0  0  0  0  0  0  0  0  0  0
   41.4890   24.0916   35.7789 H   0  0  0  0  0  0  0  0  0  0  0  0
   37.8834   22.7782   37.5923 H   0  0  0  0  0  0  0  0  0  0  0  0
  1 15  1  0
  2  1  2  0
  3  2  1  0
  4  3  2  0
  4  5  1  0
  5 10  2  0
  6  5  1  0
  6  7  2  0
  7  8  1  0
  8  9  2  0
  9 22  1  0
 10  1  1  0
 10  9  1  0
 12 11  2  0
 13 12  1  0
 14 15  1  0
 14 13  2  0
 15 16  2  0
 16 11  1  0
 17 13  1  0
 18 20  1  0
 18 17  1  0
 19 18  2  0
 21 19  1  0
 22 23  2  0
 22 27  1  0
 23 24  1  0
 24 25  2  0
 26 25  1  0
 27 26  2  0
  3 28  1  0
  6 29  1  0
  7 30  1  0
  8 31  1  0
 11 32  1  0
 12 33  1  0
 17 34  1  0
 20 35  1  0
 20 36  1  0
 23 37  1  0
 24 38  1  0
 26 39  1  0
M  ISO  8  28  14  29  14  30  14  31  14  32  14  33  14  37  14  38  14
M  ISO  1  39  14
M  END
>  <minimizedAffinity>  (1) 
-5.737216

>  <minimizedRMSD>  (1) 
3.67304492

$$$$
