
     RDKit          3D

 40 43  0  0  0  0  0  0  0  0999 V2000
   37.4530   23.0130   33.0460 C   0  0  0  0  0  0  0  0  0  0  0  0
   37.0320   21.7680   32.7130 N   0  0  0  0  0  0  0  0  0  0  0  0
   36.0710   21.5020   31.8130 C   0  0  0  0  0  0  0  0  0  0  0  0
   35.4400   22.5000   31.1580 N   0  0  0  0  0  0  0  0  0  0  0  0
   35.7970   23.7740   31.4280 C   0  0  0  0  0  0  0  0  0  0  0  0
   35.1320   24.7700   30.7400 C   0  0  0  0  0  0  0  0  0  0  0  0
   35.4580   26.0630   30.9850 C   0  0  0  0  0  0  0  0  0  0  0  0
   36.4470   26.3350   31.9210 C   0  0  0  0  0  0  0  0  0  0  0  0
   37.0740   25.2850   32.5730 C   0  0  0  0  0  0  0  0  0  0  0  0
   36.7890   23.9850   32.3610 C   0  0  0  0  0  0  0  0  0  0  0  0
   39.6400   23.7280   35.9930 C   0  0  0  0  0  0  0  0  0  0  0  0
   40.8900   23.6890   35.3960 C   0  0  0  0  0  0  0  0  0  0  0  0
   40.9050   23.4250   34.0350 C   0  0  0  0  0  0  0  0  0  0  0  0
   39.7130   23.2340   33.4270 N   0  0  0  0  0  0  0  0  0  0  0  0
   38.5070   23.2730   34.0090 C   0  0  0  0  0  0  0  0  0  0  0  0
   38.5420   23.5270   35.3090 N   0  0  0  0  0  0  0  0  0  0  0  0
   42.1090   23.3750   33.2950 N   0  0  0  0  0  0  0  0  0  0  0  0
   42.6680   22.1600   32.8100 C   0  0  0  0  0  0  0  0  0  0  0  0
   41.7920   21.3470   32.2390 N   0  0  0  0  0  0  0  0  0  0  0  0
   44.0930   21.9700   33.0020 N   0  0  0  0  0  0  0  0  0  0  0  0
   42.1520   20.4550   31.8680 H   0  0  0  0  0  0  0  0  0  0  0  0
   37.9880   25.9220   33.5030 C   0  0  0  0  0  0  0  0  0  0  0  0
   37.2920   26.2920   34.6770 C   0  0  0  0  0  0  0  0  0  0  0  0
   37.8400   26.9340   35.7880 C   0  0  0  0  0  0  0  0  0  0  0  0
   39.1770   27.2450   35.7570 C   0  0  0  0  0  0  0  0  0  0  0  0
   39.8330   26.8840   34.6230 C   0  0  0  0  0  0  0  0  0  0  0  0
   39.2680   26.2710   33.5860 N   0  0  0  0  0  0  0  0  0  0  0  0
   35.7945   20.4575   31.6069 H   0  0  0  0  0  0  0  0  0  0  0  0
   34.3518   24.5187   30.0064 H   0  0  0  0  0  0  0  0  0  0  0  0
   34.9492   26.8803   30.4529 H   0  0  0  0  0  0  0  0  0  0  0  0
   36.7302   27.3745   32.1430 H   0  0  0  0  0  0  0  0  0  0  0  0
   39.5684   23.9335   37.0713 H   0  0  0  0  0  0  0  0  0  0  0  0
   41.8147   23.8574   35.9675 H   0  0  0  0  0  0  0  0  0  0  0  0
   42.6030   24.2572   33.0985 H   0  0  0  0  0  0  0  0  0  0  0  0
   44.5470   21.1075   32.6691 H   0  0  0  0  0  0  0  0  0  0  0  0
   44.6510   22.6976   33.4712 H   0  0  0  0  0  0  0  0  0  0  0  0
   36.2194   26.0515   34.7182 H   0  0  0  0  0  0  0  0  0  0  0  0
   37.2200   27.1833   36.6618 H   0  0  0  0  0  0  0  0  0  0  0  0
   39.6823   27.7515   36.5926 H   0  0  0  0  0  0  0  0  0  0  0  0
   40.9065   27.1148   34.5578 H   0  0  0  0  0  0  0  0  0  0  0  0
  1 15  1  0
  2  1  2  0
  3  2  1  0
  4  5  1  0
  4  3  2  0
  5 10  2  0
  6  7  2  0
  6  5  1  0
  7  8  1  0
  8  9  2  0
  9 22  1  0
 10  9  1  0
 10  1  1  0
 12 11  2  0
 13 12  1  0
 14 15  1  0
 14 13  2  0
 15 16  2  0
 16 11  1  0
 17 13  1  0
 18 20  1  0
 18 17  1  0
 19 18  2  0
 21 19  1  0
 22 27  1  0
 22 23  2  0
 23 24  1  0
 25 24  2  0
 26 25  1  0
 27 26  2  0
  3 28  1  0
  6 29  1  0
  7 30  1  0
  8 31  1  0
 11 32  1  0
 12 33  1  0
 17 34  1  0
 20 35  1  0
 20 36  1  0
 23 37  1  0
 24 38  1  0
 25 39  1  0
 26 40  1  0
M  ISO  8  28  14  29  14  30  14  31  14  32  14  33  14  37  14  38  14
M  ISO  2  39  14  40  14
M  END
>  <minimizedAffinity>  (1) 
-5.5577879

>  <minimizedRMSD>  (1) 
4.90234995

$$$$
