
     RDKit          3D

 31 33  0  0  0  0  0  0  0  0999 V2000
   39.5120   22.4460   36.6120 C   0  0  0  0  0  0  0  0  0  0  0  0
   38.9880   23.7100   36.8680 C   0  0  0  0  0  0  0  0  0  0  0  0
   38.3130   24.3010   35.8240 C   0  0  0  0  0  0  0  0  0  0  0  0
   38.2300   23.6060   34.6740 N   0  0  0  0  0  0  0  0  0  0  0  0
   38.7240   22.4050   34.4190 C   0  0  0  0  0  0  0  0  0  0  0  0
   39.3710   21.8550   35.4390 N   0  0  0  0  0  0  0  0  0  0  0  0
   37.7270   25.5940   35.9270 N   0  0  0  0  0  0  0  0  0  0  0  0
   38.2540   26.7560   35.3120 C   0  0  0  0  0  0  0  0  0  0  0  0
   38.5950   26.5750   34.0570 N   0  0  0  0  0  0  0  0  0  0  0  0
   38.3450   27.9560   36.1110 N   0  0  0  0  0  0  0  0  0  0  0  0
   38.9890   27.3950   33.5500 H   0  0  0  0  0  0  0  0  0  0  0  0
   38.4270   21.9790   33.0460 C   0  0  0  0  0  0  0  0  0  0  0  0
   39.2020   22.2510   31.9830 N   0  0  0  0  0  0  0  0  0  0  0  0
   38.9280   21.8630   30.7280 C   0  0  0  0  0  0  0  0  0  0  0  0
   37.8220   21.1550   30.4430 N   0  0  0  0  0  0  0  0  0  0  0  0
   36.9890   20.8380   31.4480 C   0  0  0  0  0  0  0  0  0  0  0  0
   35.8610   20.1080   31.1180 C   0  0  0  0  0  0  0  0  0  0  0  0
   34.9780   19.7590   32.1040 C   0  0  0  0  0  0  0  0  0  0  0  0
   35.2600   20.1580   33.4020 C   0  0  0  0  0  0  0  0  0  0  0  0
   36.4000   20.8840   33.6690 C   0  0  0  0  0  0  0  0  0  0  0  0
   37.3090   21.2570   32.7270 C   0  0  0  0  0  0  0  0  0  0  0  0
   40.0598   21.9237   37.4102 H   0  0  0  0  0  0  0  0  0  0  0  0
   39.1059   24.2053   37.8431 H   0  0  0  0  0  0  0  0  0  0  0  0
   36.8658   25.6907   36.4836 H   0  0  0  0  0  0  0  0  0  0  0  0
   38.7228   28.8213   35.6994 H   0  0  0  0  0  0  0  0  0  0  0  0
   38.0321   27.9463   37.0923 H   0  0  0  0  0  0  0  0  0  0  0  0
   39.6219   22.1296   29.9172 H   0  0  0  0  0  0  0  0  0  0  0  0
   35.6758   19.8114   30.0750 H   0  0  0  0  0  0  0  0  0  0  0  0
   34.0719   19.1794   31.8738 H   0  0  0  0  0  0  0  0  0  0  0  0
   34.5726   19.8945   34.2193 H   0  0  0  0  0  0  0  0  0  0  0  0
   36.5879   21.1816   34.7112 H   0  0  0  0  0  0  0  0  0  0  0  0
  1  2  2  0
  3  7  1  0
  3  2  1  0
  4  3  2  0
  5  4  1  0
  5  6  2  0
  6  1  1  0
  8  7  1  0
  8 10  1  0
  9  8  2  0
 11  9  1  0
 12  5  1  0
 13 12  2  0
 14 13  1  0
 15 14  2  0
 15 16  1  0
 16 21  2  0
 17 16  1  0
 17 18  2  0
 18 19  1  0
 19 20  2  0
 21 12  1  0
 21 20  1  0
  1 22  1  0
  2 23  1  0
  7 24  1  0
 10 25  1  0
 10 26  1  0
 14 27  1  0
 17 28  1  0
 18 29  1  0
 19 30  1  0
 20 31  1  0
M  ISO  7  22  14  23  14  27  14  28  14  29  14  30  14  31  14
M  END
>  <minimizedAffinity>  (1) 
-5.31946373

>  <minimizedRMSD>  (1) 
2.23902774

$$$$
