
     RDKit          3D

 46 49  0  0  0  0  0  0  0  0999 V2000
   37.3950   23.0140   33.2090 C   0  0  0  0  0  0  0  0  0  0  0  0
   36.9900   21.7680   32.8630 N   0  0  0  0  0  0  0  0  0  0  0  0
   36.0800   21.4950   31.9130 C   0  0  0  0  0  0  0  0  0  0  0  0
   35.4900   22.4840   31.2190 N   0  0  0  0  0  0  0  0  0  0  0  0
   35.8390   23.7600   31.5040 C   0  0  0  0  0  0  0  0  0  0  0  0
   35.2100   24.7310   30.7560 C   0  0  0  0  0  0  0  0  0  0  0  0
   35.5310   26.0500   31.0000 C   0  0  0  0  0  0  0  0  0  0  0  0
   36.4770   26.3310   31.9980 C   0  0  0  0  0  0  0  0  0  0  0  0
   37.0520   25.2760   32.6940 C   0  0  0  0  0  0  0  0  0  0  0  0
   36.7730   23.9770   32.4860 C   0  0  0  0  0  0  0  0  0  0  0  0
   39.4320   23.7100   36.2660 C   0  0  0  0  0  0  0  0  0  0  0  0
   40.7060   23.7290   35.7240 C   0  0  0  0  0  0  0  0  0  0  0  0
   40.7890   23.5060   34.3580 C   0  0  0  0  0  0  0  0  0  0  0  0
   39.6330   23.3000   33.7140 N   0  0  0  0  0  0  0  0  0  0  0  0
   38.4010   23.2810   34.2240 C   0  0  0  0  0  0  0  0  0  0  0  0
   38.3830   23.4960   35.5220 N   0  0  0  0  0  0  0  0  0  0  0  0
   42.0310   23.5040   33.6660 N   0  0  0  0  0  0  0  0  0  0  0  0
   42.6490   22.3150   33.1820 C   0  0  0  0  0  0  0  0  0  0  0  0
   41.8190   21.4850   32.5710 N   0  0  0  0  0  0  0  0  0  0  0  0
   44.0680   22.1770   33.4160 N   0  0  0  0  0  0  0  0  0  0  0  0
   42.2240   20.6110   32.1960 H   0  0  0  0  0  0  0  0  0  0  0  0
   37.8180   25.9830   33.6570 N   0  0  0  0  0  0  0  0  0  0  0  0
   39.0660   26.3840   32.9750 C   0  0  0  0  0  0  0  0  0  0  0  0
   39.9790   27.2110   33.7890 C   0  0  0  0  0  0  0  0  0  0  0  0
   39.9580   26.6360   35.2120 C   0  0  0  0  0  0  0  0  0  0  0  0
   38.5780   27.0750   35.7280 C   0  0  0  0  0  0  0  0  0  0  0  0
   37.5540   26.2240   35.0810 C   0  0  0  0  0  0  0  0  0  0  0  0
   35.8142   20.4490   31.7003 H   0  0  0  0  0  0  0  0  0  0  0  0
   34.4723   24.4619   29.9857 H   0  0  0  0  0  0  0  0  0  0  0  0
   35.0577   26.8610   30.4271 H   0  0  0  0  0  0  0  0  0  0  0  0
   36.7583   27.3699   32.2251 H   0  0  0  0  0  0  0  0  0  0  0  0
   39.3024   23.8787   37.3452 H   0  0  0  0  0  0  0  0  0  0  0  0
   41.5989   23.9102   36.3403 H   0  0  0  0  0  0  0  0  0  0  0  0
   42.5061   24.4040   33.5072 H   0  0  0  0  0  0  0  0  0  0  0  0
   44.5649   21.3369   33.0870 H   0  0  0  0  0  0  0  0  0  0  0  0
   44.5827   22.9187   33.9118 H   0  0  0  0  0  0  0  0  0  0  0  0
   39.6032   25.4706   32.6799 H   0  0  0  0  0  0  0  0  0  0  0  0
   38.7648   27.0063   32.1195 H   0  0  0  0  0  0  0  0  0  0  0  0
   40.9983   27.1646   33.3779 H   0  0  0  0  0  0  0  0  0  0  0  0
   39.6614   28.2642   33.7867 H   0  0  0  0  0  0  0  0  0  0  0  0
   40.0473   25.5397   35.1991 H   0  0  0  0  0  0  0  0  0  0  0  0
   40.7919   26.9855   35.8385 H   0  0  0  0  0  0  0  0  0  0  0  0
   38.5310   26.9502   36.8199 H   0  0  0  0  0  0  0  0  0  0  0  0
   38.4005   28.1339   35.4889 H   0  0  0  0  0  0  0  0  0  0  0  0
   36.5765   26.7195   35.1764 H   0  0  0  0  0  0  0  0  0  0  0  0
   37.5733   25.2474   35.5869 H   0  0  0  0  0  0  0  0  0  0  0  0
  1 15  1  0
  2  1  2  0
  3  2  1  0
  4  5  1  0
  4  3  2  0
  5 10  2  0
  6  7  2  0
  6  5  1  0
  7  8  1  0
  8  9  2  0
  9 22  1  0
 10  9  1  0
 10  1  1  0
 12 11  2  0
 13 12  1  0
 14 15  1  0
 14 13  2  0
 15 16  2  0
 16 11  1  0
 17 13  1  0
 18 20  1  0
 18 17  1  0
 19 18  2  0
 21 19  1  0
 22 27  1  0
 23 22  1  0
 23 24  1  0
 24 25  1  0
 25 26  1  0
 27 26  1  0
  3 28  1  0
  6 29  1  0
  7 30  1  0
  8 31  1  0
 11 32  1  0
 12 33  1  0
 17 34  1  0
 20 35  1  0
 20 36  1  0
 23 37  1  0
 23 38  1  0
 24 39  1  0
 24 40  1  0
 25 41  1  0
 25 42  1  0
 26 43  1  0
 26 44  1  0
 27 45  1  0
 27 46  1  0
M  ISO  8  28  14  29  14  30  14  31  14  32  14  33  14  37  13  38  13
M  ISO  8  39  13  40  13  41  13  42  13  43  13  44  13  45  13  46  13
M  END
>  <minimizedAffinity>  (1) 
-5.7523737

>  <minimizedRMSD>  (1) 
4.85100174

$$$$
