
     RDKit          3D

 47 50  0  0  0  0  0  0  0  0999 V2000
   38.2110   23.4310   32.2110 C   0  0  0  0  0  0  0  0  0  0  0  0
   37.2510   22.7150   31.6070 N   0  0  0  0  0  0  0  0  0  0  0  0
   36.4680   21.7980   32.2170 C   0  0  0  0  0  0  0  0  0  0  0  0
   36.6230   21.5510   33.5210 N   0  0  0  0  0  0  0  0  0  0  0  0
   37.5730   22.2360   34.1980 C   0  0  0  0  0  0  0  0  0  0  0  0
   37.7070   21.9620   35.5260 C   0  0  0  0  0  0  0  0  0  0  0  0
   38.6310   22.6040   36.2650 C   0  0  0  0  0  0  0  0  0  0  0  0
   39.4230   23.5440   35.6120 C   0  0  0  0  0  0  0  0  0  0  0  0
   39.2800   23.8140   34.2690 C   0  0  0  0  0  0  0  0  0  0  0  0
   38.3460   23.1630   33.5220 C   0  0  0  0  0  0  0  0  0  0  0  0
   40.7170   25.3120   30.2010 C   0  0  0  0  0  0  0  0  0  0  0  0
   40.1430   26.5640   30.1890 C   0  0  0  0  0  0  0  0  0  0  0  0
   38.9570   26.6840   30.8580 C   0  0  0  0  0  0  0  0  0  0  0  0
   38.4390   25.6190   31.4700 N   0  0  0  0  0  0  0  0  0  0  0  0
   39.0060   24.3820   31.4910 C   0  0  0  0  0  0  0  0  0  0  0  0
   40.1620   24.3110   30.8160 N   0  0  0  0  0  0  0  0  0  0  0  0
   38.2360   27.9220   30.9520 N   0  0  0  0  0  0  0  0  0  0  0  0
   37.0400   28.1900   30.2230 C   0  0  0  0  0  0  0  0  0  0  0  0
   36.1720   27.2030   30.2400 N   0  0  0  0  0  0  0  0  0  0  0  0
   36.9510   29.4830   29.5750 N   0  0  0  0  0  0  0  0  0  0  0  0
   35.2950   27.3410   29.7060 H   0  0  0  0  0  0  0  0  0  0  0  0
   40.2220   24.7930   33.8660 C   0  0  0  0  0  0  0  0  0  0  0  0
   41.6040   24.3190   34.4460 C   0  0  0  0  0  0  0  0  0  0  0  0
   42.3780   25.4980   34.9100 C   0  0  0  0  0  0  0  0  0  0  0  0
   42.1070   26.6940   34.0590 C   0  0  0  0  0  0  0  0  0  0  0  0
   40.7340   27.2310   34.2970 C   0  0  0  0  0  0  0  0  0  0  0  0
   39.8440   26.0700   34.6660 C   0  0  0  0  0  0  0  0  0  0  0  0
   35.7040   21.2556   31.6408 H   0  0  0  0  0  0  0  0  0  0  0  0
   37.0558   21.2112   35.9974 H   0  0  0  0  0  0  0  0  0  0  0  0
   38.7547   22.3949   37.3378 H   0  0  0  0  0  0  0  0  0  0  0  0
   40.1870   24.0883   36.1865 H   0  0  0  0  0  0  0  0  0  0  0  0
   41.6708   25.1554   29.6759 H   0  0  0  0  0  0  0  0  0  0  0  0
   40.6104   27.4154   29.6726 H   0  0  0  0  0  0  0  0  0  0  0  0
   38.6012   28.6539   31.5779 H   0  0  0  0  0  0  0  0  0  0  0  0
   37.7271   30.1551   29.6579 H   0  0  0  0  0  0  0  0  0  0  0  0
   36.1116   29.7300   29.0315 H   0  0  0  0  0  0  0  0  0  0  0  0
   40.2489   24.9517   32.7778 H   0  0  0  0  0  0  0  0  0  0  0  0
   41.4319   23.6375   35.2921 H   0  0  0  0  0  0  0  0  0  0  0  0
   42.1699   23.7951   33.6616 H   0  0  0  0  0  0  0  0  0  0  0  0
   42.0957   25.7258   35.9485 H   0  0  0  0  0  0  0  0  0  0  0  0
   43.4495   25.2587   34.8414 H   0  0  0  0  0  0  0  0  0  0  0  0
   42.2017   26.4093   33.0007 H   0  0  0  0  0  0  0  0  0  0  0  0
   42.8351   27.4765   34.3189 H   0  0  0  0  0  0  0  0  0  0  0  0
   40.7551   27.9625   35.1183 H   0  0  0  0  0  0  0  0  0  0  0  0
   40.3559   27.7343   33.3950 H   0  0  0  0  0  0  0  0  0  0  0  0
   38.7994   26.3350   34.4455 H   0  0  0  0  0  0  0  0  0  0  0  0
   39.9740   25.8596   35.7378 H   0  0  0  0  0  0  0  0  0  0  0  0
  1 10  1  0
  2  1  2  0
  2  3  1  0
  3  4  2  0
  4  5  1  0
  5  6  1  0
  6  7  2  0
  8  7  1  0
  9  8  2  0
 10  5  2  0
 10  9  1  0
 11 16  2  0
 12 11  1  0
 12 13  2  0
 13 17  1  0
 13 14  1  0
 14 15  2  0
 15  1  1  0
 16 15  1  0
 18 19  2  0
 18 17  1  0
 20 18  1  0
 21 19  1  0
 22  9  1  0
 22 23  1  0
 22 27  1  0
 23 24  1  0
 25 26  1  0
 25 24  1  0
 26 27  1  0
  3 28  1  0
  6 29  1  0
  7 30  1  0
  8 31  1  0
 11 32  1  0
 12 33  1  0
 17 34  1  0
 20 35  1  0
 20 36  1  0
 22 37  1  0
 23 38  1  0
 23 39  1  0
 24 40  1  0
 24 41  1  0
 25 42  1  0
 25 43  1  0
 26 44  1  0
 26 45  1  0
 27 46  1  0
 27 47  1  0
M  ISO  8  28  14  29  14  30  14  31  14  32  14  33  14  37  13  38  13
M  ISO  8  39  13  40  13  41  13  42  13  43  13  44  13  45  13  46  13
M  ISO  1  47  13
M  END
>  <minimizedAffinity>  (1) 
-5.47971678

>  <minimizedRMSD>  (1) 
5.47168255

$$$$
