
     RDKit          3D

 34 36  0  0  0  0  0  0  0  0999 V2000
   38.2730   22.0310   33.1700 C   0  0  0  0  0  0  0  0  0  0  0  0
   39.1370   22.2570   32.1590 N   0  0  0  0  0  0  0  0  0  0  0  0
   38.9480   21.8300   30.8910 C   0  0  0  0  0  0  0  0  0  0  0  0
   37.8460   21.1290   30.5680 N   0  0  0  0  0  0  0  0  0  0  0  0
   36.9540   20.8700   31.5260 C   0  0  0  0  0  0  0  0  0  0  0  0
   35.8840   20.0820   31.1960 C   0  0  0  0  0  0  0  0  0  0  0  0
   34.9940   19.7150   32.1420 C   0  0  0  0  0  0  0  0  0  0  0  0
   35.2090   20.1700   33.4250 C   0  0  0  0  0  0  0  0  0  0  0  0
   36.2950   20.9820   33.7790 C   0  0  0  0  0  0  0  0  0  0  0  0
   37.1770   21.3270   32.8170 C   0  0  0  0  0  0  0  0  0  0  0  0
   39.3420   22.5610   36.7200 C   0  0  0  0  0  0  0  0  0  0  0  0
   38.8930   23.8480   36.9110 C   0  0  0  0  0  0  0  0  0  0  0  0
   38.2710   24.4200   35.8390 C   0  0  0  0  0  0  0  0  0  0  0  0
   38.1290   23.7410   34.7150 N   0  0  0  0  0  0  0  0  0  0  0  0
   38.5500   22.4700   34.5040 C   0  0  0  0  0  0  0  0  0  0  0  0
   39.1600   21.9560   35.5810 N   0  0  0  0  0  0  0  0  0  0  0  0
   37.6790   25.7290   35.8920 N   0  0  0  0  0  0  0  0  0  0  0  0
   38.2160   26.8650   35.2580 C   0  0  0  0  0  0  0  0  0  0  0  0
   38.6030   26.6360   34.0210 N   0  0  0  0  0  0  0  0  0  0  0  0
   38.2700   28.0900   36.0200 N   0  0  0  0  0  0  0  0  0  0  0  0
   39.0600   27.4200   33.5160 H   0  0  0  0  0  0  0  0  0  0  0  0
   36.2940   21.3160   35.2120 C   0  0  0  0  0  0  0  0  0  0  0  0
   37.5710   20.8500   35.7470 F   0  0  0  0  0  0  0  0  0  0  0  0
   36.7220   22.5300   35.6080 F   0  0  0  0  0  0  0  0  0  0  0  0
   35.7120   20.4100   36.0590 F   0  0  0  0  0  0  0  0  0  0  0  0
   39.6985   22.0565   30.1194 H   0  0  0  0  0  0  0  0  0  0  0  0
   35.7493   19.7471   30.1569 H   0  0  0  0  0  0  0  0  0  0  0  0
   34.1310   19.0778   31.8985 H   0  0  0  0  0  0  0  0  0  0  0  0
   34.4935   19.8818   34.2092 H   0  0  0  0  0  0  0  0  0  0  0  0
   39.8598   22.0381   37.5376 H   0  0  0  0  0  0  0  0  0  0  0  0
   39.0265   24.3803   37.8643 H   0  0  0  0  0  0  0  0  0  0  0  0
   36.8067   25.8427   36.4278 H   0  0  0  0  0  0  0  0  0  0  0  0
   38.6555   28.9449   35.5941 H   0  0  0  0  0  0  0  0  0  0  0  0
   37.9230   28.1091   36.9896 H   0  0  0  0  0  0  0  0  0  0  0  0
  1 15  1  0
  2  1  2  0
  3  2  1  0
  4  3  2  0
  4  5  1  0
  5 10  2  0
  6  5  1  0
  6  7  2  0
  7  8  1  0
  8  9  2  0
  9 22  1  0
 10  1  1  0
 10  9  1  0
 11 12  2  0
 13 17  1  0
 13 12  1  0
 14 13  2  0
 15 14  1  0
 15 16  2  0
 16 11  1  0
 18 17  1  0
 18 20  1  0
 19 18  2  0
 21 19  1  0
 22 24  1  0
 22 23  1  0
 22 25  1  0
  3 26  1  0
  6 27  1  0
  7 28  1  0
  8 29  1  0
 11 30  1  0
 12 31  1  0
 17 32  1  0
 20 33  1  0
 20 34  1  0
M  ISO  6  26  14  27  14  28  14  29  14  30  14  31  14
M  END
>  <minimizedAffinity>  (1) 
-5.27113962

>  <minimizedRMSD>  (1) 
0.179815039

$$$$
