
     RDKit          3D

 44 47  0  0  0  0  0  0  0  0999 V2000
   36.3430   21.7080   32.0890 C   0  0  0  0  0  0  0  0  0  0  0  0
   35.2240   21.0990   32.5520 N   0  0  0  0  0  0  0  0  0  0  0  0
   34.7640   19.9140   32.1200 C   0  0  0  0  0  0  0  0  0  0  0  0
   35.4140   19.2250   31.1590 N   0  0  0  0  0  0  0  0  0  0  0  0
   36.5420   19.7650   30.6440 C   0  0  0  0  0  0  0  0  0  0  0  0
   37.1680   19.0210   29.6650 C   0  0  0  0  0  0  0  0  0  0  0  0
   38.3170   19.5340   29.1120 C   0  0  0  0  0  0  0  0  0  0  0  0
   38.7950   20.7710   29.5530 C   0  0  0  0  0  0  0  0  0  0  0  0
   38.0880   21.4390   30.5460 C   0  0  0  0  0  0  0  0  0  0  0  0
   36.9620   20.9790   31.1230 C   0  0  0  0  0  0  0  0  0  0  0  0
   37.2450   25.2590   32.8280 C   0  0  0  0  0  0  0  0  0  0  0  0
   37.9790   25.1010   33.9870 C   0  0  0  0  0  0  0  0  0  0  0  0
   38.1200   23.8050   34.4350 C   0  0  0  0  0  0  0  0  0  0  0  0
   37.5380   22.8460   33.7050 N   0  0  0  0  0  0  0  0  0  0  0  0
   36.8280   22.9860   32.5840 C   0  0  0  0  0  0  0  0  0  0  0  0
   36.7200   24.2400   32.1980 N   0  0  0  0  0  0  0  0  0  0  0  0
   38.8640   23.4770   35.6050 N   0  0  0  0  0  0  0  0  0  0  0  0
   38.2540   23.0790   36.8290 C   0  0  0  0  0  0  0  0  0  0  0  0
   37.2830   22.1920   36.6850 N   0  0  0  0  0  0  0  0  0  0  0  0
   38.7660   23.6890   38.0400 N   0  0  0  0  0  0  0  0  0  0  0  0
   36.8020   21.8890   37.5470 H   0  0  0  0  0  0  0  0  0  0  0  0
   38.9100   22.5840   30.6890 N   0  0  0  0  0  0  0  0  0  0  0  0
   38.8150   23.9440   30.1240 C   0  0  0  0  0  0  0  0  0  0  0  0
   39.9500   24.8230   30.4970 C   0  0  0  0  0  0  0  0  0  0  0  0
   40.2870   24.5790   31.8360 O   0  0  0  0  0  0  0  0  0  0  0  0
   40.9610   23.3540   31.8520 C   0  0  0  0  0  0  0  0  0  0  0  0
   39.9730   22.2550   31.6660 C   0  0  0  0  0  0  0  0  0  0  0  0
   33.8435   19.4986   32.5560 H   0  0  0  0  0  0  0  0  0  0  0  0
   36.7621   18.0521   29.3388 H   0  0  0  0  0  0  0  0  0  0  0  0
   38.8546   18.9768   28.3306 H   0  0  0  0  0  0  0  0  0  0  0  0
   39.7098   21.2060   29.1241 H   0  0  0  0  0  0  0  0  0  0  0  0
   37.0976   26.2710   32.4229 H   0  0  0  0  0  0  0  0  0  0  0  0
   38.4231   25.9553   34.5190 H   0  0  0  0  0  0  0  0  0  0  0  0
   39.8918   23.5302   35.5637 H   0  0  0  0  0  0  0  0  0  0  0  0
   38.3620   23.4381   38.9536 H   0  0  0  0  0  0  0  0  0  0  0  0
   39.5339   24.3734   37.9870 H   0  0  0  0  0  0  0  0  0  0  0  0
   37.8842   24.4061   30.4847 H   0  0  0  0  0  0  0  0  0  0  0  0
   38.8339   23.8403   29.0291 H   0  0  0  0  0  0  0  0  0  0  0  0
   40.8142   24.6051   29.8523 H   0  0  0  0  0  0  0  0  0  0  0  0
   39.6649   25.8776   30.3687 H   0  0  0  0  0  0  0  0  0  0  0  0
   41.6991   23.3284   31.0368 H   0  0  0  0  0  0  0  0  0  0  0  0
   41.4807   23.2281   32.8133 H   0  0  0  0  0  0  0  0  0  0  0  0
   39.5015   22.0411   32.6365 H   0  0  0  0  0  0  0  0  0  0  0  0
   40.5211   21.3865   31.2719 H   0  0  0  0  0  0  0  0  0  0  0  0
  1  2  2  0
  1 15  1  0
  3  2  1  0
  4  3  2  0
  5 10  2  0
  5  4  1  0
  6  5  1  0
  7  8  1  0
  7  6  2  0
  8  9  2  0
  9 22  1  0
  9 10  1  0
 10  1  1  0
 11 12  2  0
 12 13  1  0
 13 17  1  0
 14 13  2  0
 15 14  1  0
 16 15  2  0
 16 11  1  0
 17 18  1  0
 18 20  1  0
 19 18  2  0
 19 21  1  0
 22 27  1  0
 23 24  1  0
 23 22  1  0
 24 25  1  0
 25 26  1  0
 27 26  1  0
  3 28  1  0
  6 29  1  0
  7 30  1  0
  8 31  1  0
 11 32  1  0
 12 33  1  0
 17 34  1  0
 20 35  1  0
 20 36  1  0
 23 37  1  0
 23 38  1  0
 24 39  1  0
 24 40  1  0
 26 41  1  0
 26 42  1  0
 27 43  1  0
 27 44  1  0
M  ISO  8  28  14  29  14  30  14  31  14  32  14  33  14  37  13  38  13
M  ISO  6  39  13  40  13  41  13  42  13  43  13  44  13
M  END
>  <minimizedAffinity>  (1) 
-5.23410559

>  <minimizedRMSD>  (1) 
4.74633646

$$$$
