
     RDKit          3D

 32 34  0  0  0  0  0  0  0  0999 V2000
   39.3420   22.4310   36.6890 C   0  0  0  0  0  0  0  0  0  0  0  0
   38.8630   23.7070   36.9070 C   0  0  0  0  0  0  0  0  0  0  0  0
   38.2260   24.3210   35.8420 C   0  0  0  0  0  0  0  0  0  0  0  0
   38.1370   23.6180   34.7050 N   0  0  0  0  0  0  0  0  0  0  0  0
   38.5910   22.3890   34.4730 C   0  0  0  0  0  0  0  0  0  0  0  0
   39.2000   21.8260   35.5220 N   0  0  0  0  0  0  0  0  0  0  0  0
   37.6920   25.6260   35.9390 N   0  0  0  0  0  0  0  0  0  0  0  0
   38.2870   26.7600   35.3090 C   0  0  0  0  0  0  0  0  0  0  0  0
   38.6770   26.5550   34.0610 N   0  0  0  0  0  0  0  0  0  0  0  0
   38.3810   27.9670   36.1150 N   0  0  0  0  0  0  0  0  0  0  0  0
   39.1100   27.3570   33.5810 H   0  0  0  0  0  0  0  0  0  0  0  0
   38.3320   21.9600   33.1060 C   0  0  0  0  0  0  0  0  0  0  0  0
   39.1350   22.2590   32.0580 N   0  0  0  0  0  0  0  0  0  0  0  0
   38.9100   21.8740   30.7950 C   0  0  0  0  0  0  0  0  0  0  0  0
   37.8320   21.1360   30.4810 N   0  0  0  0  0  0  0  0  0  0  0  0
   36.9840   20.7940   31.4560 C   0  0  0  0  0  0  0  0  0  0  0  0
   35.8810   20.0340   31.1070 C   0  0  0  0  0  0  0  0  0  0  0  0
   34.9830   19.6580   32.0790 C   0  0  0  0  0  0  0  0  0  0  0  0
   35.2230   20.0630   33.3840 C   0  0  0  0  0  0  0  0  0  0  0  0
   36.3440   20.8210   33.6660 C   0  0  0  0  0  0  0  0  0  0  0  0
   37.2540   21.2150   32.7500 C   0  0  0  0  0  0  0  0  0  0  0  0
   36.4660   21.2440   35.3680 S   0  0  0  0  0  0  0  0  0  0  0  0
   39.8549   21.9040   37.5070 H   0  0  0  0  0  0  0  0  0  0  0  0
   38.9814   24.2106   37.8778 H   0  0  0  0  0  0  0  0  0  0  0  0
   36.8331   25.7652   36.4902 H   0  0  0  0  0  0  0  0  0  0  0  0
   38.8004   28.8199   35.7181 H   0  0  0  0  0  0  0  0  0  0  0  0
   38.0282   27.9689   37.0827 H   0  0  0  0  0  0  0  0  0  0  0  0
   39.6170   22.1658   30.0045 H   0  0  0  0  0  0  0  0  0  0  0  0
   35.7237   19.7331   30.0607 H   0  0  0  0  0  0  0  0  0  0  0  0
   34.0992   19.0530   31.8284 H   0  0  0  0  0  0  0  0  0  0  0  0
   34.5266   19.7831   34.1881 H   0  0  0  0  0  0  0  0  0  0  0  0
   36.1512   20.1524   36.1336 H   0  0  0  0  0  0  0  0  0  0  0  0
  1  2  2  0
  3  7  1  0
  3  2  1  0
  4  3  2  0
  5  4  1  0
  5  6  2  0
  6  1  1  0
  8  7  1  0
  8 10  1  0
  9  8  2  0
 11  9  1  0
 12  5  1  0
 13 12  2  0
 14 13  1  0
 15 14  2  0
 15 16  1  0
 16 21  2  0
 17 16  1  0
 17 18  2  0
 18 19  1  0
 19 20  2  0
 20 22  1  0
 21 12  1  0
 21 20  1  0
  1 23  1  0
  2 24  1  0
  7 25  1  0
 10 26  1  0
 10 27  1  0
 14 28  1  0
 17 29  1  0
 18 30  1  0
 19 31  1  0
 22 32  1  0
M  ISO  7  23  14  24  14  28  14  29  14  30  14  31  14  32  11
M  END
>  <minimizedAffinity>  (1) 
-5.17348909

>  <minimizedRMSD>  (1) 
0.105236486

$$$$
