
     RDKit          3D

 37 40  0  0  0  0  0  0  0  0999 V2000
   38.5100   25.0520   32.4180 C   0  0  0  0  0  0  0  0  0  0  0  0
   39.0570   26.2650   32.6590 N   0  0  0  0  0  0  0  0  0  0  0  0
   38.4530   27.4390   32.4170 C   0  0  0  0  0  0  0  0  0  0  0  0
   37.2130   27.4800   31.8970 N   0  0  0  0  0  0  0  0  0  0  0  0
   36.6040   26.3240   31.6300 C   0  0  0  0  0  0  0  0  0  0  0  0
   35.3240   26.4190   31.1040 C   0  0  0  0  0  0  0  0  0  0  0  0
   34.6430   25.2570   30.8160 C   0  0  0  0  0  0  0  0  0  0  0  0
   35.2760   24.0480   31.0670 C   0  0  0  0  0  0  0  0  0  0  0  0
   36.5540   24.0300   31.5910 C   0  0  0  0  0  0  0  0  0  0  0  0
   37.2620   25.1330   31.8930 C   0  0  0  0  0  0  0  0  0  0  0  0
   40.4700   21.8710   32.4900 C   0  0  0  0  0  0  0  0  0  0  0  0
   40.2350   21.4560   33.7900 C   0  0  0  0  0  0  0  0  0  0  0  0
   39.4260   22.2830   34.5530 C   0  0  0  0  0  0  0  0  0  0  0  0
   38.9580   23.3900   33.9570 N   0  0  0  0  0  0  0  0  0  0  0  0
   39.1790   23.7950   32.7040 C   0  0  0  0  0  0  0  0  0  0  0  0
   39.9570   22.9750   32.0160 N   0  0  0  0  0  0  0  0  0  0  0  0
   39.1010   21.9860   35.9020 N   0  0  0  0  0  0  0  0  0  0  0  0
   39.6590   22.6900   37.0120 C   0  0  0  0  0  0  0  0  0  0  0  0
   39.6840   24.0050   36.8650 N   0  0  0  0  0  0  0  0  0  0  0  0
   40.1150   21.8890   38.1310 N   0  0  0  0  0  0  0  0  0  0  0  0
   40.0780   24.5530   37.6450 H   0  0  0  0  0  0  0  0  0  0  0  0
   36.8980   22.6200   31.6980 C   0  0  0  0  0  0  0  0  0  0  0  0
   36.6190   21.7160   32.8600 C   0  0  0  0  0  0  0  0  0  0  0  0
   37.2550   20.1130   32.2370 S   0  0  0  0  0  0  0  0  0  0  0  0
   37.7750   20.8780   30.5810 C   0  0  0  0  0  0  0  0  0  0  0  0
   37.4770   21.9520   30.6940 N   0  0  0  0  0  0  0  0  0  0  0  0
   38.9778   28.3781   32.6464 H   0  0  0  0  0  0  0  0  0  0  0  0
   34.8630   27.4008   30.9209 H   0  0  0  0  0  0  0  0  0  0  0  0
   33.6257   25.2866   30.3986 H   0  0  0  0  0  0  0  0  0  0  0  0
   34.7591   23.1020   30.8483 H   0  0  0  0  0  0  0  0  0  0  0  0
   41.1062   21.2540   31.8384 H   0  0  0  0  0  0  0  0  0  0  0  0
   40.6643   20.5266   34.1925 H   0  0  0  0  0  0  0  0  0  0  0  0
   38.4308   21.2266   36.0894 H   0  0  0  0  0  0  0  0  0  0  0  0
   40.5258   22.3457   38.9577 H   0  0  0  0  0  0  0  0  0  0  0  0
   40.0281   20.8632   38.0993 H   0  0  0  0  0  0  0  0  0  0  0  0
   36.1556   21.9515   33.8294 H   0  0  0  0  0  0  0  0  0  0  0  0
   38.2524   20.3871   29.7202 H   0  0  0  0  0  0  0  0  0  0  0  0
  1  2  2  0
  1 15  1  0
  3  2  1  0
  4  3  2  0
  5 10  2  0
  5  4  1  0
  6  5  1  0
  7  8  1  0
  7  6  2  0
  8  9  2  0
  9 22  1  0
  9 10  1  0
 10  1  1  0
 11 12  2  0
 12 13  1  0
 13 17  1  0
 14 13  2  0
 15 14  1  0
 16 11  1  0
 16 15  2  0
 17 18  1  0
 18 20  1  0
 19 18  2  0
 19 21  1  0
 22 23  2  0
 24 23  1  0
 25 26  2  0
 25 24  1  0
 26 22  1  0
  3 27  1  0
  6 28  1  0
  7 29  1  0
  8 30  1  0
 11 31  1  0
 12 32  1  0
 17 33  1  0
 20 34  1  0
 20 35  1  0
 23 36  1  0
 25 37  1  0
M  ISO  8  27  14  28  14  29  14  30  14  31  14  32  14  36  14  37  14
M  END
>  <minimizedAffinity>  (1) 
-5.22463799

>  <minimizedRMSD>  (1) 
4.64115524

$$$$
