
     RDKit          3D

 16 17  0  0  0  0  0  0  0  0999 V2000
   41.0630   21.9160   37.4600 C   0  0  0  0  0  0  0  0  0  0  0  0
   39.9340   22.6980   37.7420 C   0  0  0  0  0  0  0  0  0  0  0  0
   39.2100   23.2130   36.6780 C   0  0  0  0  0  0  0  0  0  0  0  0
   39.6350   22.9320   35.4150 N   0  0  0  0  0  0  0  0  0  0  0  0
   40.7250   22.1780   35.1630 C   0  0  0  0  0  0  0  0  0  0  0  0
   41.4320   21.6740   36.1890 N   0  0  0  0  0  0  0  0  0  0  0  0
   37.7540   24.2220   36.9500 S   0  0  0  0  0  0  0  0  0  0  0  0
   37.7360   25.6680   35.9080 C   0  0  0  0  0  0  0  0  0  0  0  0
   38.3720   26.7580   36.4260 N   0  0  0  0  0  0  0  0  0  0  0  0
   38.2900   27.7390   35.5800 O   0  0  0  0  0  0  0  0  0  0  0  0
   37.6280   27.3620   34.5120 C   0  0  0  0  0  0  0  0  0  0  0  0
   37.2730   26.0770   34.6930 N   0  0  0  0  0  0  0  0  0  0  0  0
   41.6537   21.4956   38.2872 H   0  0  0  0  0  0  0  0  0  0  0  0
   39.6307   22.8976   38.7803 H   0  0  0  0  0  0  0  0  0  0  0  0
   41.0327   21.9773   34.1261 H   0  0  0  0  0  0  0  0  0  0  0  0
   37.4045   27.9820   33.6313 H   0  0  0  0  0  0  0  0  0  0  0  0
  1  2  2  0
  3  7  1  0
  3  2  1  0
  4  3  2  0
  5  4  1  0
  5  6  2  0
  6  1  1  0
  8  9  2  0
  8  7  1  0
 10  9  1  0
 11 12  2  0
 11 10  1  0
 12  8  1  0
  1 13  1  0
  2 14  1  0
  5 15  1  0
 11 16  1  0
M  ISO  4  13  14  14  14  15  14  16  14
M  END
>  <minimizedAffinity>  (1) 
-3.39141202

>  <minimizedRMSD>  (1) 
2.17469692

$$$$
