
     RDKit          3D

 38 41  0  0  0  0  0  0  0  0999 V2000
   37.5160   23.1620   32.1420 C   0  0  0  0  0  0  0  0  0  0  0  0
   36.5510   22.2130   32.1270 N   0  0  0  0  0  0  0  0  0  0  0  0
   36.5320   21.1630   31.2890 C   0  0  0  0  0  0  0  0  0  0  0  0
   37.5110   20.9890   30.3820 N   0  0  0  0  0  0  0  0  0  0  0  0
   38.5140   21.8930   30.3310 C   0  0  0  0  0  0  0  0  0  0  0  0
   39.4850   21.6740   29.3850 C   0  0  0  0  0  0  0  0  0  0  0  0
   40.5170   22.5560   29.2820 C   0  0  0  0  0  0  0  0  0  0  0  0
   40.5310   23.6400   30.1510 C   0  0  0  0  0  0  0  0  0  0  0  0
   39.5140   23.8060   31.0910 C   0  0  0  0  0  0  0  0  0  0  0  0
   38.4810   22.9490   31.2140 C   0  0  0  0  0  0  0  0  0  0  0  0
   37.1650   26.4070   33.9810 C   0  0  0  0  0  0  0  0  0  0  0  0
   37.7730   26.0790   35.1790 C   0  0  0  0  0  0  0  0  0  0  0  0
   38.2610   24.7860   35.2810 C   0  0  0  0  0  0  0  0  0  0  0  0
   38.1000   23.9840   34.2180 N   0  0  0  0  0  0  0  0  0  0  0  0
   37.5170   24.2900   33.0590 C   0  0  0  0  0  0  0  0  0  0  0  0
   37.0570   25.5490   33.0010 N   0  0  0  0  0  0  0  0  0  0  0  0
   38.9190   24.3160   36.4390 N   0  0  0  0  0  0  0  0  0  0  0  0
   38.3330   23.3990   37.3550 C   0  0  0  0  0  0  0  0  0  0  0  0
   37.7170   22.3790   36.7790 N   0  0  0  0  0  0  0  0  0  0  0  0
   38.4870   23.7050   38.7610 N   0  0  0  0  0  0  0  0  0  0  0  0
   37.2770   21.6900   37.4090 H   0  0  0  0  0  0  0  0  0  0  0  0
   39.8200   25.0160   31.7730 N   0  0  0  0  0  0  0  0  0  0  0  0
   39.3760   26.1000   31.0960 N   0  0  0  0  0  0  0  0  0  0  0  0
   39.7260   27.2160   31.7620 C   0  0  0  0  0  0  0  0  0  0  0  0
   40.4160   26.8760   32.9040 C   0  0  0  0  0  0  0  0  0  0  0  0
   40.4480   25.5000   32.8640 C   0  0  0  0  0  0  0  0  0  0  0  0
   35.7071   20.4375   31.3448 H   0  0  0  0  0  0  0  0  0  0  0  0
   39.4298   20.7992   28.7205 H   0  0  0  0  0  0  0  0  0  0  0  0
   41.3129   22.4151   28.5359 H   0  0  0  0  0  0  0  0  0  0  0  0
   41.3499   24.3725   30.0973 H   0  0  0  0  0  0  0  0  0  0  0  0
   36.7599   27.4211   33.8488 H   0  0  0  0  0  0  0  0  0  0  0  0
   37.8639   26.8022   36.0028 H   0  0  0  0  0  0  0  0  0  0  0  0
   39.8727   24.6548   36.6301 H   0  0  0  0  0  0  0  0  0  0  0  0
   38.0841   23.0777   39.4717 H   0  0  0  0  0  0  0  0  0  0  0  0
   38.9995   24.5501   39.0510 H   0  0  0  0  0  0  0  0  0  0  0  0
   39.4959   28.2432   31.4426 H   0  0  0  0  0  0  0  0  0  0  0  0
   40.8408   27.5448   33.6671 H   0  0  0  0  0  0  0  0  0  0  0  0
   40.9276   24.8718   33.6291 H   0  0  0  0  0  0  0  0  0  0  0  0
  1 15  1  0
  2  1  2  0
  3  2  1  0
  4  3  2  0
  5  4  1  0
  5 10  2  0
  6  5  1  0
  7  6  2  0
  7  8  1  0
  8  9  2  0
  9 10  1  0
  9 22  1  0
 10  1  1  0
 11 12  2  0
 12 13  1  0
 13 17  1  0
 14 13  2  0
 15 14  1  0
 16 15  2  0
 16 11  1  0
 17 18  1  0
 18 20  1  0
 19 18  2  0
 19 21  1  0
 22 26  1  0
 23 24  2  0
 23 22  1  0
 24 25  1  0
 26 25  2  0
  3 27  1  0
  6 28  1  0
  7 29  1  0
  8 30  1  0
 11 31  1  0
 12 32  1  0
 17 33  1  0
 20 34  1  0
 20 35  1  0
 24 36  1  0
 25 37  1  0
 26 38  1  0
M  ISO  8  27  14  28  14  29  14  30  14  31  14  32  14  36  14  37  14
M  ISO  1  38  14
M  END
>  <minimizedAffinity>  (1) 
-5.03271866

>  <minimizedRMSD>  (1) 
4.75076628

$$$$
