
     RDKit          3D

 50 53  0  0  0  0  0  0  0  0999 V2000
   39.4470   25.1300   31.6770 C   0  0  0  0  0  0  0  0  0  0  0  0
   39.5560   25.8250   30.5270 N   0  0  0  0  0  0  0  0  0  0  0  0
   39.5180   25.2660   29.2970 C   0  0  0  0  0  0  0  0  0  0  0  0
   39.3650   23.9370   29.1540 N   0  0  0  0  0  0  0  0  0  0  0  0
   39.2510   23.1850   30.2750 C   0  0  0  0  0  0  0  0  0  0  0  0
   39.1080   21.8490   30.0690 C   0  0  0  0  0  0  0  0  0  0  0  0
   39.0000   21.0350   31.1630 C   0  0  0  0  0  0  0  0  0  0  0  0
   39.0420   21.6060   32.4040 C   0  0  0  0  0  0  0  0  0  0  0  0
   39.1900   22.9920   32.5710 C   0  0  0  0  0  0  0  0  0  0  0  0
   39.2980   23.8120   31.5010 C   0  0  0  0  0  0  0  0  0  0  0  0
   40.2260   26.5870   35.0130 C   0  0  0  0  0  0  0  0  0  0  0  0
   39.0220   27.1500   35.3350 C   0  0  0  0  0  0  0  0  0  0  0  0
   38.0420   27.0010   34.4000 C   0  0  0  0  0  0  0  0  0  0  0  0
   38.2860   26.3520   33.2780 N   0  0  0  0  0  0  0  0  0  0  0  0
   39.4780   25.7820   32.9420 C   0  0  0  0  0  0  0  0  0  0  0  0
   40.4070   25.9640   33.9020 N   0  0  0  0  0  0  0  0  0  0  0  0
   36.7110   27.4970   34.6050 N   0  0  0  0  0  0  0  0  0  0  0  0
   36.1760   28.6190   33.9290 C   0  0  0  0  0  0  0  0  0  0  0  0
   36.4190   28.6200   32.6250 N   0  0  0  0  0  0  0  0  0  0  0  0
   35.4520   29.5900   34.7340 N   0  0  0  0  0  0  0  0  0  0  0  0
   36.0650   29.4240   32.0860 H   0  0  0  0  0  0  0  0  0  0  0  0
   39.1910   23.3940   33.9870 C   0  0  0  0  0  0  0  0  0  0  0  0
   37.8410   22.9580   34.6930 C   0  0  0  0  0  0  0  0  0  0  0  0
   38.1750   22.2540   35.9190 N   0  0  0  0  0  0  0  0  0  0  0  0
   39.5040   22.6630   36.3050 C   0  0  0  0  0  0  0  0  0  0  0  0
   39.6600   22.8780   37.7950 C   0  0  0  0  0  0  0  0  0  0  0  0
   38.7530   23.7350   38.3560 O   0  0  0  0  0  0  0  0  0  0  0  0
   37.7130   24.0310   37.4860 C   0  0  0  0  0  0  0  0  0  0  0  0
   37.2450   22.7210   36.9110 C   0  0  0  0  0  0  0  0  0  0  0  0
   39.6130   25.9031   28.4053 H   0  0  0  0  0  0  0  0  0  0  0  0
   39.0799   21.4339   29.0507 H   0  0  0  0  0  0  0  0  0  0  0  0
   38.8822   19.9475   31.0468 H   0  0  0  0  0  0  0  0  0  0  0  0
   38.9578   20.9641   33.2933 H   0  0  0  0  0  0  0  0  0  0  0  0
   41.0622   26.6690   35.7230 H   0  0  0  0  0  0  0  0  0  0  0  0
   38.8564   27.6852   36.2817 H   0  0  0  0  0  0  0  0  0  0  0  0
   36.1102   27.0078   35.2837 H   0  0  0  0  0  0  0  0  0  0  0  0
   35.0430   30.4245   34.2899 H   0  0  0  0  0  0  0  0  0  0  0  0
   35.3482   29.4432   35.7482 H   0  0  0  0  0  0  0  0  0  0  0  0
   40.0378   22.9131   34.4985 H   0  0  0  0  0  0  0  0  0  0  0  0
   39.2829   24.4887   34.0442 H   0  0  0  0  0  0  0  0  0  0  0  0
   37.2392   23.8485   34.9274 H   0  0  0  0  0  0  0  0  0  0  0  0
   37.2585   22.3045   34.0270 H   0  0  0  0  0  0  0  0  0  0  0  0
   40.2136   21.8840   35.9893 H   0  0  0  0  0  0  0  0  0  0  0  0
   39.7004   23.6287   35.8162 H   0  0  0  0  0  0  0  0  0  0  0  0
   39.5595   21.9021   38.2924 H   0  0  0  0  0  0  0  0  0  0  0  0
   40.6474   23.3420   37.9357 H   0  0  0  0  0  0  0  0  0  0  0  0
   36.8920   24.5216   38.0294 H   0  0  0  0  0  0  0  0  0  0  0  0
   38.0440   24.7164   36.6918 H   0  0  0  0  0  0  0  0  0  0  0  0
   36.2576   22.8600   36.4465 H   0  0  0  0  0  0  0  0  0  0  0  0
   37.1785   21.9775   37.7190 H   0  0  0  0  0  0  0  0  0  0  0  0
  1 15  1  0
  2  1  2  0
  3  2  1  0
  4  3  2  0
  4  5  1  0
  5 10  2  0
  6  5  1  0
  6  7  2  0
  7  8  1  0
  8  9  2  0
  9 22  1  0
 10  1  1  0
 10  9  1  0
 11 12  2  0
 13 17  1  0
 13 12  1  0
 14 13  2  0
 15 14  1  0
 15 16  2  0
 16 11  1  0
 18 17  1  0
 18 20  1  0
 19 18  2  0
 21 19  1  0
 22 23  1  0
 23 24  1  0
 24 25  1  0
 24 29  1  0
 25 26  1  0
 26 27  1  0
 28 27  1  0
 29 28  1  0
  3 30  1  0
  6 31  1  0
  7 32  1  0
  8 33  1  0
 11 34  1  0
 12 35  1  0
 17 36  1  0
 20 37  1  0
 20 38  1  0
 22 39  1  0
 22 40  1  0
 23 41  1  0
 23 42  1  0
 25 43  1  0
 25 44  1  0
 26 45  1  0
 26 46  1  0
 28 47  1  0
 28 48  1  0
 29 49  1  0
 29 50  1  0
M  ISO  8  30  14  31  14  32  14  33  14  34  14  35  14  39   8  40   8
M  ISO  8  41   8  42   8  43  13  44  13  45  13  46  13  47  13  48  13
M  ISO  2  49  13  50  13
M  END
>  <minimizedAffinity>  (1) 
-5.23273897

>  <minimizedRMSD>  (1) 
3.44804025

$$$$
