
     RDKit          3D

 39 41  0  0  0  0  0  0  0  0999 V2000
   38.4590   21.9480   33.0630 C   0  0  0  0  0  0  0  0  0  0  0  0
   39.2210   22.2090   31.9890 N   0  0  0  0  0  0  0  0  0  0  0  0
   38.9070   21.8340   30.7280 C   0  0  0  0  0  0  0  0  0  0  0  0
   37.7810   21.1620   30.4790 N   0  0  0  0  0  0  0  0  0  0  0  0
   36.9710   20.8680   31.5250 C   0  0  0  0  0  0  0  0  0  0  0  0
   35.8360   20.1730   31.2100 C   0  0  0  0  0  0  0  0  0  0  0  0
   34.9790   19.8410   32.2250 C   0  0  0  0  0  0  0  0  0  0  0  0
   35.3110   20.2250   33.4940 C   0  0  0  0  0  0  0  0  0  0  0  0
   36.4800   20.9360   33.7760 C   0  0  0  0  0  0  0  0  0  0  0  0
   37.3360   21.2720   32.7870 C   0  0  0  0  0  0  0  0  0  0  0  0
   39.7980   22.4060   36.5130 C   0  0  0  0  0  0  0  0  0  0  0  0
   39.3020   23.6500   36.8150 C   0  0  0  0  0  0  0  0  0  0  0  0
   38.5660   24.2320   35.8310 C   0  0  0  0  0  0  0  0  0  0  0  0
   38.3630   23.6180   34.6820 N   0  0  0  0  0  0  0  0  0  0  0  0
   38.8450   22.3800   34.3690 C   0  0  0  0  0  0  0  0  0  0  0  0
   39.5670   21.8500   35.3750 N   0  0  0  0  0  0  0  0  0  0  0  0
   37.9480   25.5180   36.0100 N   0  0  0  0  0  0  0  0  0  0  0  0
   38.3910   26.7040   35.3720 C   0  0  0  0  0  0  0  0  0  0  0  0
   38.6510   26.5490   34.0820 N   0  0  0  0  0  0  0  0  0  0  0  0
   38.4970   27.8920   36.2080 N   0  0  0  0  0  0  0  0  0  0  0  0
   38.9890   27.3810   33.5780 H   0  0  0  0  0  0  0  0  0  0  0  0
   36.6350   21.2470   35.2070 C   0  0  0  0  0  0  0  0  0  0  0  0
   35.3630   20.7690   36.0280 C   0  0  0  0  0  0  0  0  0  0  0  0
   35.6690   20.9590   37.4440 N   0  0  0  0  0  0  0  0  0  0  0  0
   39.5860   22.0852   29.8999 H   0  0  0  0  0  0  0  0  0  0  0  0
   35.6176   19.8886   30.1701 H   0  0  0  0  0  0  0  0  0  0  0  0
   34.0524   19.2828   32.0254 H   0  0  0  0  0  0  0  0  0  0  0  0
   34.6345   19.9653   34.3216 H   0  0  0  0  0  0  0  0  0  0  0  0
   40.4056   21.8730   37.2591 H   0  0  0  0  0  0  0  0  0  0  0  0
   39.4865   24.1401   37.7824 H   0  0  0  0  0  0  0  0  0  0  0  0
   37.1350   25.5813   36.6393 H   0  0  0  0  0  0  0  0  0  0  0  0
   38.8136   28.7828   35.7992 H   0  0  0  0  0  0  0  0  0  0  0  0
   38.2553   27.8413   37.2080 H   0  0  0  0  0  0  0  0  0  0  0  0
   37.5277   20.7332   35.5932 H   0  0  0  0  0  0  0  0  0  0  0  0
   36.7406   22.3359   35.3221 H   0  0  0  0  0  0  0  0  0  0  0  0
   34.4854   21.3700   35.7477 H   0  0  0  0  0  0  0  0  0  0  0  0
   35.1334   19.7145   35.8152 H   0  0  0  0  0  0  0  0  0  0  0  0
   34.9414   20.5072   38.0161 H   0  0  0  0  0  0  0  0  0  0  0  0
   36.5843   20.5374   37.6570 H   0  0  0  0  0  0  0  0  0  0  0  0
  1 15  1  0
  2  1  2  0
  3  2  1  0
  4  3  2  0
  4  5  1  0
  5 10  2  0
  6  5  1  0
  6  7  2  0
  7  8  1  0
  8  9  2  0
  9 22  1  0
 10  1  1  0
 10  9  1  0
 11 12  2  0
 13 17  1  0
 13 12  1  0
 14 13  2  0
 15 14  1  0
 15 16  2  0
 16 11  1  0
 18 17  1  0
 18 20  1  0
 19 18  2  0
 21 19  1  0
 22 23  1  0
 23 24  1  0
  3 25  1  0
  6 26  1  0
  7 27  1  0
  8 28  1  0
 11 29  1  0
 12 30  1  0
 17 31  1  0
 20 32  1  0
 20 33  1  0
 22 34  1  0
 22 35  1  0
 23 36  1  0
 23 37  1  0
 24 38  1  0
 24 39  1  0
M  ISO  8  25  14  26  14  27  14  28  14  29  14  30  14  34   8  35   8
M  ISO  4  36   8  37   8  38   5  39   5
M  END
>  <minimizedAffinity>  (1) 
-5.7145505

>  <minimizedRMSD>  (1) 
0.050126031

$$$$
