
     RDKit          3D

 49 52  0  0  0  0  0  0  0  0999 V2000
   38.2340   23.6040   33.8290 C   0  0  0  0  0  0  0  0  0  0  0  0
   38.8500   22.4690   34.1760 N   0  0  0  0  0  0  0  0  0  0  0  0
   38.6380   21.2760   33.5790 C   0  0  0  0  0  0  0  0  0  0  0  0
   37.7660   21.1640   32.5700 N   0  0  0  0  0  0  0  0  0  0  0  0
   37.1140   22.2710   32.1750 C   0  0  0  0  0  0  0  0  0  0  0  0
   36.2240   22.1010   31.1480 C   0  0  0  0  0  0  0  0  0  0  0  0
   35.5170   23.1840   30.7110 C   0  0  0  0  0  0  0  0  0  0  0  0
   35.7380   24.3860   31.3210 C   0  0  0  0  0  0  0  0  0  0  0  0
   36.6590   24.5230   32.3690 C   0  0  0  0  0  0  0  0  0  0  0  0
   37.3610   23.4700   32.8110 C   0  0  0  0  0  0  0  0  0  0  0  0
   38.3180   26.6680   35.9500 C   0  0  0  0  0  0  0  0  0  0  0  0
   39.4320   27.2990   35.4400 C   0  0  0  0  0  0  0  0  0  0  0  0
   40.0620   26.6340   34.4310 C   0  0  0  0  0  0  0  0  0  0  0  0
   39.6070   25.4750   34.0050 N   0  0  0  0  0  0  0  0  0  0  0  0
   38.5020   24.8370   34.4970 C   0  0  0  0  0  0  0  0  0  0  0  0
   37.9210   25.5350   35.4910 N   0  0  0  0  0  0  0  0  0  0  0  0
   41.2130   27.1830   33.7780 N   0  0  0  0  0  0  0  0  0  0  0  0
   42.5220   26.6850   33.9550 C   0  0  0  0  0  0  0  0  0  0  0  0
   42.6060   25.3570   33.8810 N   0  0  0  0  0  0  0  0  0  0  0  0
   43.5790   27.6530   34.1960 N   0  0  0  0  0  0  0  0  0  0  0  0
   43.5390   24.9390   34.0130 H   0  0  0  0  0  0  0  0  0  0  0  0
   36.7540   25.9100   32.8640 C   0  0  0  0  0  0  0  0  0  0  0  0
   37.1770   26.8900   31.6890 C   0  0  0  0  0  0  0  0  0  0  0  0
   37.3300   28.2300   32.2550 N   0  0  0  0  0  0  0  0  0  0  0  0
   36.9190   29.2020   31.2470 C   0  0  0  0  0  0  0  0  0  0  0  0
   35.5520   29.6860   31.5930 C   0  0  0  0  0  0  0  0  0  0  0  0
   35.5870   29.6360   33.1050 C   0  0  0  0  0  0  0  0  0  0  0  0
   36.4000   28.4100   33.3640 C   0  0  0  0  0  0  0  0  0  0  0  0
   39.1873   20.3882   33.9255 H   0  0  0  0  0  0  0  0  0  0  0  0
   36.0819   21.1132   30.6853 H   0  0  0  0  0  0  0  0  0  0  0  0
   34.7899   23.0913   29.8908 H   0  0  0  0  0  0  0  0  0  0  0  0
   35.1785   25.2699   30.9809 H   0  0  0  0  0  0  0  0  0  0  0  0
   37.7566   27.1442   36.7674 H   0  0  0  0  0  0  0  0  0  0  0  0
   39.7867   28.2686   35.8196 H   0  0  0  0  0  0  0  0  0  0  0  0
   41.0781   27.9844   33.1452 H   0  0  0  0  0  0  0  0  0  0  0  0
   44.5489   27.3336   34.3307 H   0  0  0  0  0  0  0  0  0  0  0  0
   43.3582   28.6584   34.2321 H   0  0  0  0  0  0  0  0  0  0  0  0
   35.7763   26.2209   33.2608 H   0  0  0  0  0  0  0  0  0  0  0  0
   37.5154   25.9543   33.6566 H   0  0  0  0  0  0  0  0  0  0  0  0
   36.3989   26.8992   30.9115 H   0  0  0  0  0  0  0  0  0  0  0  0
   38.1207   26.5565   31.2326 H   0  0  0  0  0  0  0  0  0  0  0  0
   36.9051   28.7261   30.2554 H   0  0  0  0  0  0  0  0  0  0  0  0
   37.6249   30.0453   31.2238 H   0  0  0  0  0  0  0  0  0  0  0  0
   35.3844   30.7103   31.2288 H   0  0  0  0  0  0  0  0  0  0  0  0
   34.7403   29.0950   31.1437 H   0  0  0  0  0  0  0  0  0  0  0  0
   36.0718   30.5310   33.5221 H   0  0  0  0  0  0  0  0  0  0  0  0
   34.5896   29.6092   33.5681 H   0  0  0  0  0  0  0  0  0  0  0  0
   35.7381   27.5347   33.4393 H   0  0  0  0  0  0  0  0  0  0  0  0
   36.9545   28.5173   34.3079 H   0  0  0  0  0  0  0  0  0  0  0  0
  1  2  2  0
  1 15  1  0
  3  2  1  0
  4  3  2  0
  5  4  1  0
  5 10  2  0
  6  5  1  0
  7  6  2  0
  7  8  1  0
  8  9  2  0
  9 10  1  0
  9 22  1  0
 10  1  1  0
 12 11  2  0
 13 12  1  0
 14 13  2  0
 14 15  1  0
 15 16  2  0
 16 11  1  0
 17 18  1  0
 17 13  1  0
 18 20  1  0
 19 18  2  0
 19 21  1  0
 23 24  1  0
 23 22  1  0
 24 28  1  0
 25 26  1  0
 25 24  1  0
 26 27  1  0
 27 28  1  0
  3 29  1  0
  6 30  1  0
  7 31  1  0
  8 32  1  0
 11 33  1  0
 12 34  1  0
 17 35  1  0
 20 36  1  0
 20 37  1  0
 22 38  1  0
 22 39  1  0
 23 40  1  0
 23 41  1  0
 25 42  1  0
 25 43  1  0
 26 44  1  0
 26 45  1  0
 27 46  1  0
 27 47  1  0
 28 48  1  0
 28 49  1  0
M  ISO  8  29  14  30  14  31  14  32  14  33  14  34  14  38   8  39   8
M  ISO  8  40   8  41   8  42  13  43  13  44  13  45  13  46  13  47  13
M  ISO  2  48  13  49  13
M  END
>  <minimizedAffinity>  (1) 
-5.2756052

>  <minimizedRMSD>  (1) 
5.84000826

$$$$
