
     RDKit          3D

 38 40  0  0  0  0  0  0  0  0999 V2000
   38.4000   21.9860   33.0940 C   0  0  0  0  0  0  0  0  0  0  0  0
   39.2420   22.2060   32.0650 N   0  0  0  0  0  0  0  0  0  0  0  0
   39.0080   21.8060   30.7970 C   0  0  0  0  0  0  0  0  0  0  0  0
   37.8900   21.1500   30.4870 N   0  0  0  0  0  0  0  0  0  0  0  0
   37.0000   20.8960   31.4780 C   0  0  0  0  0  0  0  0  0  0  0  0
   35.8840   20.2050   31.1030 C   0  0  0  0  0  0  0  0  0  0  0  0
   34.9620   19.9010   32.0690 C   0  0  0  0  0  0  0  0  0  0  0  0
   35.2040   20.3030   33.3520 C   0  0  0  0  0  0  0  0  0  0  0  0
   36.3610   21.0140   33.6930 C   0  0  0  0  0  0  0  0  0  0  0  0
   37.2750   21.3180   32.7540 C   0  0  0  0  0  0  0  0  0  0  0  0
   39.5010   22.5030   36.6150 C   0  0  0  0  0  0  0  0  0  0  0  0
   39.0150   23.7650   36.8510 C   0  0  0  0  0  0  0  0  0  0  0  0
   38.3670   24.3360   35.8030 C   0  0  0  0  0  0  0  0  0  0  0  0
   38.2320   23.6930   34.6580 N   0  0  0  0  0  0  0  0  0  0  0  0
   38.7050   22.4400   34.4110 C   0  0  0  0  0  0  0  0  0  0  0  0
   39.3410   21.9200   35.4790 N   0  0  0  0  0  0  0  0  0  0  0  0
   37.7610   25.6370   35.9020 N   0  0  0  0  0  0  0  0  0  0  0  0
   38.2680   26.7950   35.2760 C   0  0  0  0  0  0  0  0  0  0  0  0
   38.6230   26.6020   34.0110 N   0  0  0  0  0  0  0  0  0  0  0  0
   38.3310   28.0050   36.0780 N   0  0  0  0  0  0  0  0  0  0  0  0
   39.0160   27.4120   33.5090 H   0  0  0  0  0  0  0  0  0  0  0  0
   36.4230   21.3660   35.1190 C   0  0  0  0  0  0  0  0  0  0  0  0
   35.4600   20.4310   35.9730 C   0  0  0  0  0  0  0  0  0  0  0  0
   34.8130   21.1450   36.9360 O   0  0  0  0  0  0  0  0  0  0  0  0
   39.7473   22.0236   30.0120 H   0  0  0  0  0  0  0  0  0  0  0  0
   35.7300   19.9016   30.0569 H   0  0  0  0  0  0  0  0  0  0  0  0
   34.0467   19.3453   31.8173 H   0  0  0  0  0  0  0  0  0  0  0  0
   34.4717   20.0621   34.1367 H   0  0  0  0  0  0  0  0  0  0  0  0
   40.0404   21.9772   37.4166 H   0  0  0  0  0  0  0  0  0  0  0  0
   39.1411   24.2757   37.8171 H   0  0  0  0  0  0  0  0  0  0  0  0
   36.9034   25.7286   36.4651 H   0  0  0  0  0  0  0  0  0  0  0  0
   38.6935   28.8771   35.6669 H   0  0  0  0  0  0  0  0  0  0  0  0
   38.0132   27.9907   37.0576 H   0  0  0  0  0  0  0  0  0  0  0  0
   37.4559   21.2426   35.4765 H   0  0  0  0  0  0  0  0  0  0  0  0
   36.0989   22.4103   35.2392 H   0  0  0  0  0  0  0  0  0  0  0  0
   34.7163   19.9738   35.3037 H   0  0  0  0  0  0  0  0  0  0  0  0
   36.0680   19.6552   36.4614 H   0  0  0  0  0  0  0  0  0  0  0  0
   35.0993   20.8290   37.8295 H   0  0  0  0  0  0  0  0  0  0  0  0
  1 15  1  0
  2  1  2  0
  3  2  1  0
  4  3  2  0
  4  5  1  0
  5 10  2  0
  6  5  1  0
  6  7  2  0
  7  8  1  0
  8  9  2  0
  9 22  1  0
 10  1  1  0
 10  9  1  0
 11 12  2  0
 13 17  1  0
 13 12  1  0
 14 13  2  0
 15 14  1  0
 15 16  2  0
 16 11  1  0
 18 17  1  0
 18 20  1  0
 19 18  2  0
 21 19  1  0
 22 23  1  0
 23 24  1  0
  3 25  1  0
  6 26  1  0
  7 27  1  0
  8 28  1  0
 11 29  1  0
 12 30  1  0
 17 31  1  0
 20 32  1  0
 20 33  1  0
 22 34  1  0
 22 35  1  0
 23 36  1  0
 23 37  1  0
 24 38  1  0
M  ISO  8  25  14  26  14  27  14  28  14  29  14  30  14  34   8  35   8
M  ISO  3  36   8  37   8  38   3
M  END
>  <minimizedAffinity>  (1) 
-5.47372103

>  <minimizedRMSD>  (1) 
0.36433965

$$$$
