
     RDKit          3D

 34 37  0  0  0  0  0  0  0  0999 V2000
   36.7440   21.3170   33.1310 C   0  0  0  0  0  0  0  0  0  0  0  0
   35.8090   21.6480   32.2490 C   0  0  0  0  0  0  0  0  0  0  0  0
   35.7910   21.1450   30.9740 C   0  0  0  0  0  0  0  0  0  0  0  0
   36.7980   20.2720   30.6390 C   0  0  0  0  0  0  0  0  0  0  0  0
   37.8130   20.1570   32.2080 S   0  0  0  0  0  0  0  0  0  0  0  0
   37.2170   19.4600   29.5580 C   0  0  0  0  0  0  0  0  0  0  0  0
   36.5000   18.3400   29.2290 N   0  0  0  0  0  0  0  0  0  0  0  0
   36.7570   17.5720   28.1660 C   0  0  0  0  0  0  0  0  0  0  0  0
   37.7560   17.8340   27.3110 N   0  0  0  0  0  0  0  0  0  0  0  0
   38.5270   18.9090   27.5380 C   0  0  0  0  0  0  0  0  0  0  0  0
   39.5860   19.2040   26.7100 C   0  0  0  0  0  0  0  0  0  0  0  0
   40.4160   20.2950   26.9530 C   0  0  0  0  0  0  0  0  0  0  0  0
   40.1050   21.0590   28.0840 C   0  0  0  0  0  0  0  0  0  0  0  0
   39.0360   20.7300   28.8830 C   0  0  0  0  0  0  0  0  0  0  0  0
   38.2170   19.6580   28.6450 C   0  0  0  0  0  0  0  0  0  0  0  0
   37.0120   21.6380   34.4120 O   0  0  0  0  0  0  0  0  0  0  0  0
   37.9050   22.6560   34.7840 C   0  0  0  0  0  0  0  0  0  0  0  0
   38.3290   23.2720   33.8010 O   0  0  0  0  0  0  0  0  0  0  0  0
   39.9240   22.7390   37.7840 C   0  0  0  0  0  0  0  0  0  0  0  0
   39.1370   23.3930   38.7390 C   0  0  0  0  0  0  0  0  0  0  0  0
   37.8390   23.8250   38.3140 C   0  0  0  0  0  0  0  0  0  0  0  0
   37.4620   23.5760   37.0340 N   0  0  0  0  0  0  0  0  0  0  0  0
   38.2740   22.9360   36.1560 C   0  0  0  0  0  0  0  0  0  0  0  0
   39.4980   22.5220   36.5360 N   0  0  0  0  0  0  0  0  0  0  0  0
   35.0198   22.3516   32.5523 H   0  0  0  0  0  0  0  0  0  0  0  0
   35.0085   21.4265   30.2540 H   0  0  0  0  0  0  0  0  0  0  0  0
   36.1243   16.6905   27.9854 H   0  0  0  0  0  0  0  0  0  0  0  0
   39.7809   18.5637   25.8370 H   0  0  0  0  0  0  0  0  0  0  0  0
   41.2638   20.5414   26.2968 H   0  0  0  0  0  0  0  0  0  0  0  0
   40.7234   21.9330   28.3363 H   0  0  0  0  0  0  0  0  0  0  0  0
   38.8272   21.3607   29.7597 H   0  0  0  0  0  0  0  0  0  0  0  0
   40.9276   22.3917   38.0705 H   0  0  0  0  0  0  0  0  0  0  0  0
   39.4970   23.5664   39.7639 H   0  0  0  0  0  0  0  0  0  0  0  0
   37.1637   24.3462   39.0085 H   0  0  0  0  0  0  0  0  0  0  0  0
  1 16  1  0
  2  1  2  0
  3  2  1  0
  4  3  2  0
  4  5  1  0
  5  1  1  0
  6  4  1  0
  7  6  2  0
  8  7  1  0
  9 10  1  0
  9  8  2  0
 10 15  2  0
 11 12  2  0
 11 10  1  0
 12 13  1  0
 13 14  2  0
 15 14  1  0
 15  6  1  0
 16 17  1  0
 17 23  1  0
 18 17  2  0
 19 20  2  0
 21 20  1  0
 22 21  2  0
 23 24  2  0
 23 22  1  0
 24 19  1  0
  2 25  1  0
  3 26  1  0
  8 27  1  0
 11 28  1  0
 12 29  1  0
 13 30  1  0
 14 31  1  0
 19 32  1  0
 20 33  1  0
 21 34  1  0
M  ISO  8  25  14  26  14  27  14  28  14  29  14  30  14  31  14  32  14
M  ISO  2  33  14  34  14
M  END
>  <minimizedAffinity>  (1) 
-4.68576241

>  <minimizedRMSD>  (1) 
0.454776078

$$$$
