
     RDKit          3D

 30 32  0  0  0  0  0  0  0  0999 V2000
   36.8500   21.2840   33.1780 C   0  0  0  0  0  0  0  0  0  0  0  0
   35.8090   21.4240   32.3470 C   0  0  0  0  0  0  0  0  0  0  0  0
   35.8530   20.9800   31.0710 C   0  0  0  0  0  0  0  0  0  0  0  0
   37.0210   20.3730   30.6570 C   0  0  0  0  0  0  0  0  0  0  0  0
   38.1340   20.4280   32.1540 S   0  0  0  0  0  0  0  0  0  0  0  0
   37.4690   19.7870   29.4410 C   0  0  0  0  0  0  0  0  0  0  0  0
   38.7030   20.1280   28.9310 C   0  0  0  0  0  0  0  0  0  0  0  0
   39.0510   19.4990   27.7340 C   0  0  0  0  0  0  0  0  0  0  0  0
   38.1980   18.5930   27.1120 C   0  0  0  0  0  0  0  0  0  0  0  0
   36.9550   18.2830   27.6730 C   0  0  0  0  0  0  0  0  0  0  0  0
   36.5830   18.9010   28.8740 C   0  0  0  0  0  0  0  0  0  0  0  0
   37.1010   21.6190   34.4770 O   0  0  0  0  0  0  0  0  0  0  0  0
   37.8280   22.7720   34.8340 C   0  0  0  0  0  0  0  0  0  0  0  0
   38.0800   23.5080   33.8540 O   0  0  0  0  0  0  0  0  0  0  0  0
   39.8820   22.7630   37.8110 C   0  0  0  0  0  0  0  0  0  0  0  0
   39.1400   23.4800   38.7610 C   0  0  0  0  0  0  0  0  0  0  0  0
   37.8740   23.9860   38.3490 C   0  0  0  0  0  0  0  0  0  0  0  0
   37.4740   23.7460   37.0820 N   0  0  0  0  0  0  0  0  0  0  0  0
   38.2270   23.0490   36.2010 C   0  0  0  0  0  0  0  0  0  0  0  0
   39.4270   22.5630   36.5740 N   0  0  0  0  0  0  0  0  0  0  0  0
   34.8941   21.9132   32.7125 H   0  0  0  0  0  0  0  0  0  0  0  0
   34.9953   21.0974   30.3924 H   0  0  0  0  0  0  0  0  0  0  0  0
   39.3681   20.8464   29.4325 H   0  0  0  0  0  0  0  0  0  0  0  0
   40.0231   19.7253   27.2716 H   0  0  0  0  0  0  0  0  0  0  0  0
   38.5043   18.1157   26.1695 H   0  0  0  0  0  0  0  0  0  0  0  0
   36.2814   17.5666   27.1800 H   0  0  0  0  0  0  0  0  0  0  0  0
   35.6142   18.6847   29.3479 H   0  0  0  0  0  0  0  0  0  0  0  0
   40.8639   22.3555   38.0937 H   0  0  0  0  0  0  0  0  0  0  0  0
   39.5195   23.6444   39.7803 H   0  0  0  0  0  0  0  0  0  0  0  0
   37.2399   24.5564   39.0436 H   0  0  0  0  0  0  0  0  0  0  0  0
  1 12  1  0
  2  1  2  0
  3  2  1  0
  4  3  2  0
  4  5  1  0
  5  1  1  0
  6  4  1  0
  7  6  2  0
  8  7  1  0
  9 10  1  0
  9  8  2  0
 10 11  2  0
 11  6  1  0
 12 13  1  0
 13 19  1  0
 14 13  2  0
 15 16  2  0
 17 16  1  0
 18 17  2  0
 19 20  2  0
 19 18  1  0
 20 15  1  0
  2 21  1  0
  3 22  1  0
  7 23  1  0
  8 24  1  0
  9 25  1  0
 10 26  1  0
 11 27  1  0
 15 28  1  0
 16 29  1  0
 17 30  1  0
M  ISO  8  21  14  22  14  23  14  24  14  25  14  26  14  27  14  28  14
M  ISO  2  29  14  30  14
M  END
>  <minimizedAffinity>  (1) 
-4.603477

>  <minimizedRMSD>  (1) 
0.853891969

$$$$
