
     RDKit          3D

 30 32  0  0  0  0  0  0  0  0999 V2000
   36.8250   21.2210   33.1430 C   0  0  0  0  0  0  0  0  0  0  0  0
   35.7810   21.3580   32.3190 C   0  0  0  0  0  0  0  0  0  0  0  0
   35.7990   20.9000   31.0340 C   0  0  0  0  0  0  0  0  0  0  0  0
   36.9710   20.2830   30.6360 C   0  0  0  0  0  0  0  0  0  0  0  0
   38.0860   20.3490   32.1210 S   0  0  0  0  0  0  0  0  0  0  0  0
   37.3950   19.6810   29.4130 C   0  0  0  0  0  0  0  0  0  0  0  0
   36.5780   18.8250   28.7480 C   0  0  0  0  0  0  0  0  0  0  0  0
   37.0840   18.2880   27.5580 C   0  0  0  0  0  0  0  0  0  0  0  0
   38.3620   18.6290   27.1030 C   0  0  0  0  0  0  0  0  0  0  0  0
   39.1690   19.5140   27.8180 C   0  0  0  0  0  0  0  0  0  0  0  0
   38.6360   20.0360   29.0030 C   0  0  0  0  0  0  0  0  0  0  0  0
   37.0580   21.5760   34.4250 O   0  0  0  0  0  0  0  0  0  0  0  0
   37.8090   22.6920   34.8030 C   0  0  0  0  0  0  0  0  0  0  0  0
   38.0740   23.4140   33.8200 O   0  0  0  0  0  0  0  0  0  0  0  0
   39.9080   22.7280   37.7430 C   0  0  0  0  0  0  0  0  0  0  0  0
   39.1530   23.4090   38.7190 C   0  0  0  0  0  0  0  0  0  0  0  0
   37.8560   23.8700   38.3210 C   0  0  0  0  0  0  0  0  0  0  0  0
   37.4470   23.6270   37.0590 N   0  0  0  0  0  0  0  0  0  0  0  0
   38.2220   22.9640   36.1610 C   0  0  0  0  0  0  0  0  0  0  0  0
   39.4510   22.5180   36.5090 N   0  0  0  0  0  0  0  0  0  0  0  0
   34.8746   21.8582   32.6907 H   0  0  0  0  0  0  0  0  0  0  0  0
   34.9380   21.0140   30.3589 H   0  0  0  0  0  0  0  0  0  0  0  0
   35.5761   18.5680   29.1224 H   0  0  0  0  0  0  0  0  0  0  0  0
   36.4684   17.5887   26.9732 H   0  0  0  0  0  0  0  0  0  0  0  0
   38.7369   18.1920   26.1657 H   0  0  0  0  0  0  0  0  0  0  0  0
   40.1751   19.7885   27.4680 H   0  0  0  0  0  0  0  0  0  0  0  0
   39.2296   20.7395   29.6053 H   0  0  0  0  0  0  0  0  0  0  0  0
   40.9088   22.3571   38.0090 H   0  0  0  0  0  0  0  0  0  0  0  0
   39.5398   23.5780   39.7348 H   0  0  0  0  0  0  0  0  0  0  0  0
   37.2090   24.4095   39.0283 H   0  0  0  0  0  0  0  0  0  0  0  0
  1 12  1  0
  2  1  2  0
  3  2  1  0
  4  3  2  0
  4  5  1  0
  5  1  1  0
  6  4  1  0
  7  6  2  0
  8  7  1  0
  9  8  2  0
  9 10  1  0
 10 11  2  0
 11  6  1  0
 12 13  1  0
 13 19  1  0
 14 13  2  0
 15 16  2  0
 17 16  1  0
 18 17  2  0
 19 20  2  0
 19 18  1  0
 20 15  1  0
  2 21  1  0
  3 22  1  0
  7 23  1  0
  8 24  1  0
  9 25  1  0
 10 26  1  0
 11 27  1  0
 15 28  1  0
 16 29  1  0
 17 30  1  0
M  ISO  8  21  14  22  14  23  14  24  14  25  14  26  14  27  14  28  14
M  ISO  2  29  14  30  14
M  END
>  <minimizedAffinity>  (1) 
-4.5979743

>  <minimizedRMSD>  (1) 
0.811762035

$$$$
