
     RDKit          3D

 27 28  0  0  0  0  0  0  0  0999 V2000
   36.6600   21.2080   33.2210 C   0  0  0  0  0  0  0  0  0  0  0  0
   35.5760   21.4250   32.4680 C   0  0  0  0  0  0  0  0  0  0  0  0
   35.4820   20.9880   31.1910 C   0  0  0  0  0  0  0  0  0  0  0  0
   36.5690   20.2960   30.6890 C   0  0  0  0  0  0  0  0  0  0  0  0
   37.7930   20.2640   32.1100 S   0  0  0  0  0  0  0  0  0  0  0  0
   36.8850   19.6920   29.4760 N   0  0  0  0  0  0  0  0  0  0  0  0
   36.7680   18.3010   29.2570 C   0  0  0  0  0  0  0  0  0  0  0  0
   36.2060   17.5460   30.1400 N   0  0  0  0  0  0  0  0  0  0  0  0
   37.3120   17.8290   28.0110 N   0  0  0  0  0  0  0  0  0  0  0  0
   36.1410   16.5070   29.9310 H   0  0  0  0  0  0  0  0  0  0  0  0
   37.0290   21.5140   34.4900 O   0  0  0  0  0  0  0  0  0  0  0  0
   37.8080   22.6300   34.8160 C   0  0  0  0  0  0  0  0  0  0  0  0
   38.0940   23.2990   33.8200 O   0  0  0  0  0  0  0  0  0  0  0  0
   39.9000   22.7430   37.7630 C   0  0  0  0  0  0  0  0  0  0  0  0
   39.1490   23.4550   38.7170 C   0  0  0  0  0  0  0  0  0  0  0  0
   37.8540   23.9150   38.3120 C   0  0  0  0  0  0  0  0  0  0  0  0
   37.4480   23.6350   37.0490 N   0  0  0  0  0  0  0  0  0  0  0  0
   38.2190   22.9420   36.1710 C   0  0  0  0  0  0  0  0  0  0  0  0
   39.4480   22.4980   36.5340 N   0  0  0  0  0  0  0  0  0  0  0  0
   34.7306   21.9786   32.9026 H   0  0  0  0  0  0  0  0  0  0  0  0
   34.5850   21.1740   30.5820 H   0  0  0  0  0  0  0  0  0  0  0  0
   37.2191   20.2853   28.7032 H   0  0  0  0  0  0  0  0  0  0  0  0
   37.2664   16.8273   27.7757 H   0  0  0  0  0  0  0  0  0  0  0  0
   37.7469   18.4929   27.3545 H   0  0  0  0  0  0  0  0  0  0  0  0
   40.8981   22.3749   38.0428 H   0  0  0  0  0  0  0  0  0  0  0  0
   39.5385   23.6494   39.7272 H   0  0  0  0  0  0  0  0  0  0  0  0
   37.2096   24.4774   39.0037 H   0  0  0  0  0  0  0  0  0  0  0  0
  1 11  1  0
  2  1  2  0
  3  2  1  0
  4  3  2  0
  4  5  1  0
  5  1  1  0
  6  4  1  0
  7  6  1  0
  7  8  2  0
  9  7  1  0
 10  8  1  0
 11 12  1  0
 12 18  1  0
 13 12  2  0
 14 15  2  0
 16 15  1  0
 17 16  2  0
 18 19  2  0
 18 17  1  0
 19 14  1  0
  2 20  1  0
  3 21  1  0
  6 22  1  0
  9 23  1  0
  9 24  1  0
 14 25  1  0
 15 26  1  0
 16 27  1  0
M  ISO  5  20  14  21  14  25  14  26  14  27  14
M  END
>  <minimizedAffinity>  (1) 
-4.44621944

>  <minimizedRMSD>  (1) 
0.253907979

$$$$
