
     RDKit          3D

 27 29  0  0  0  0  0  0  0  0999 V2000
   36.7140   21.1950   33.1540 C   0  0  0  0  0  0  0  0  0  0  0  0
   35.7240   21.4640   32.2950 C   0  0  0  0  0  0  0  0  0  0  0  0
   35.6720   20.9560   31.0420 C   0  0  0  0  0  0  0  0  0  0  0  0
   36.7200   20.1310   30.7000 C   0  0  0  0  0  0  0  0  0  0  0  0
   37.8270   20.0690   32.2120 S   0  0  0  0  0  0  0  0  0  0  0  0
   37.0860   19.3730   29.4950 C   0  0  0  0  0  0  0  0  0  0  0  0
   38.1440   19.5930   28.6770 C   0  0  0  0  0  0  0  0  0  0  0  0
   38.0090   18.6210   27.7350 N   0  0  0  0  0  0  0  0  0  0  0  0
   36.9160   17.8780   28.0080 C   0  0  0  0  0  0  0  0  0  0  0  0
   36.3080   18.3450   29.1360 N   0  0  0  0  0  0  0  0  0  0  0  0
   36.9760   21.5780   34.4270 O   0  0  0  0  0  0  0  0  0  0  0  0
   37.8670   22.5910   34.7710 C   0  0  0  0  0  0  0  0  0  0  0  0
   38.2720   23.1960   33.7680 O   0  0  0  0  0  0  0  0  0  0  0  0
   39.9490   22.7270   37.7290 C   0  0  0  0  0  0  0  0  0  0  0  0
   39.1520   23.3470   38.6990 C   0  0  0  0  0  0  0  0  0  0  0  0
   37.8370   23.7320   38.3040 C   0  0  0  0  0  0  0  0  0  0  0  0
   37.4460   23.4800   37.0410 N   0  0  0  0  0  0  0  0  0  0  0  0
   38.2540   22.8780   36.1380 C   0  0  0  0  0  0  0  0  0  0  0  0
   39.5090   22.5000   36.4840 N   0  0  0  0  0  0  0  0  0  0  0  0
   34.9129   22.1306   32.6234 H   0  0  0  0  0  0  0  0  0  0  0  0
   34.8513   21.1856   30.3464 H   0  0  0  0  0  0  0  0  0  0  0  0
   38.9212   20.3675   28.7556 H   0  0  0  0  0  0  0  0  0  0  0  0
   36.5674   17.0231   27.4099 H   0  0  0  0  0  0  0  0  0  0  0  0
   35.4578   17.9926   29.5985 H   0  0  0  0  0  0  0  0  0  0  0  0
   40.9694   22.4162   37.9978 H   0  0  0  0  0  0  0  0  0  0  0  0
   39.5230   23.5287   39.7185 H   0  0  0  0  0  0  0  0  0  0  0  0
   37.1575   24.2239   39.0155 H   0  0  0  0  0  0  0  0  0  0  0  0
  1 11  1  0
  2  1  2  0
  3  2  1  0
  4  3  2  0
  4  5  1  0
  5  1  1  0
  6  4  1  0
  7  6  2  0
  8  9  2  0
  8  7  1  0
  9 10  1  0
 10  6  1  0
 11 12  1  0
 12 18  1  0
 13 12  2  0
 14 15  2  0
 16 15  1  0
 17 16  2  0
 18 19  2  0
 18 17  1  0
 19 14  1  0
  2 20  1  0
  3 21  1  0
  7 22  1  0
  9 23  1  0
 10 24  1  0
 14 25  1  0
 15 26  1  0
 16 27  1  0
M  ISO  8  20  14  21  14  22  14  23  14  24   9  25  14  26  14  27  14
M  END
>  <minimizedAffinity>  (1) 
-4.50199795

>  <minimizedRMSD>  (1) 
0.467837185

$$$$
