
     RDKit          3D

 26 28  0  0  0  0  0  0  0  0999 V2000
   36.7650   21.1920   33.1390 C   0  0  0  0  0  0  0  0  0  0  0  0
   35.7270   21.3560   32.3130 C   0  0  0  0  0  0  0  0  0  0  0  0
   35.7200   20.8970   31.0390 C   0  0  0  0  0  0  0  0  0  0  0  0
   36.8600   20.2410   30.6350 C   0  0  0  0  0  0  0  0  0  0  0  0
   38.0050   20.2670   32.1200 S   0  0  0  0  0  0  0  0  0  0  0  0
   37.3070   19.5910   29.3990 C   0  0  0  0  0  0  0  0  0  0  0  0
   38.5930   19.7400   28.9040 C   0  0  0  0  0  0  0  0  0  0  0  0
   38.5110   18.7070   27.3820 S   0  0  0  0  0  0  0  0  0  0  0  0
   36.7000   18.2710   27.7340 C   0  0  0  0  0  0  0  0  0  0  0  0
   36.4880   18.8310   28.7030 N   0  0  0  0  0  0  0  0  0  0  0  0
   37.0200   21.5440   34.4220 O   0  0  0  0  0  0  0  0  0  0  0  0
   37.8240   22.6250   34.7830 C   0  0  0  0  0  0  0  0  0  0  0  0
   38.1360   23.3110   33.8050 O   0  0  0  0  0  0  0  0  0  0  0  0
   39.9350   22.7190   37.7150 C   0  0  0  0  0  0  0  0  0  0  0  0
   39.1530   23.3360   38.7090 C   0  0  0  0  0  0  0  0  0  0  0  0
   37.8320   23.7350   38.3320 C   0  0  0  0  0  0  0  0  0  0  0  0
   37.4290   23.4930   37.0610 N   0  0  0  0  0  0  0  0  0  0  0  0
   38.2330   22.8920   36.1470 C   0  0  0  0  0  0  0  0  0  0  0  0
   39.4850   22.5070   36.4810 N   0  0  0  0  0  0  0  0  0  0  0  0
   34.8387   21.8876   32.6848 H   0  0  0  0  0  0  0  0  0  0  0  0
   34.8584   21.0394   30.3702 H   0  0  0  0  0  0  0  0  0  0  0  0
   39.4352   20.3190   29.3106 H   0  0  0  0  0  0  0  0  0  0  0  0
   36.0214   17.6344   27.1473 H   0  0  0  0  0  0  0  0  0  0  0  0
   40.9569   22.3999   37.9678 H   0  0  0  0  0  0  0  0  0  0  0  0
   39.5384   23.5032   39.7256 H   0  0  0  0  0  0  0  0  0  0  0  0
   37.1619   24.2247   39.0539 H   0  0  0  0  0  0  0  0  0  0  0  0
  1 11  1  0
  2  1  2  0
  3  2  1  0
  4  3  2  0
  4  5  1  0
  5  1  1  0
  6  4  1  0
  7  6  2  0
  8  9  1  0
  8  7  1  0
  9 10  2  0
 10  6  1  0
 11 12  1  0
 12 18  1  0
 13 12  2  0
 14 15  2  0
 16 15  1  0
 17 16  2  0
 18 19  2  0
 18 17  1  0
 19 14  1  0
  2 20  1  0
  3 21  1  0
  7 22  1  0
  9 23  1  0
 14 24  1  0
 15 25  1  0
 16 26  1  0
M  ISO  7  20  14  21  14  22  14  23  14  24  14  25  14  26  14
M  END
>  <minimizedAffinity>  (1) 
-4.39222336

>  <minimizedRMSD>  (1) 
0.570887029

$$$$
