
     RDKit          3D

 31 33  0  0  0  0  0  0  0  0999 V2000
   36.9410   21.2750   33.0660 C   0  0  0  0  0  0  0  0  0  0  0  0
   35.9840   21.5340   32.1670 C   0  0  0  0  0  0  0  0  0  0  0  0
   36.0170   21.0540   30.9020 C   0  0  0  0  0  0  0  0  0  0  0  0
   37.1120   20.2700   30.5910 C   0  0  0  0  0  0  0  0  0  0  0  0
   38.1400   20.2130   32.1640 S   0  0  0  0  0  0  0  0  0  0  0  0
   37.4460   19.6130   29.3470 N   0  0  0  0  0  0  0  0  0  0  0  0
   36.6130   18.6250   28.9740 C   0  0  0  0  0  0  0  0  0  0  0  0
   36.9040   17.9720   27.7840 C   0  0  0  0  0  0  0  0  0  0  0  0
   38.0230   18.4040   27.0990 C   0  0  0  0  0  0  0  0  0  0  0  0
   38.3640   17.7650   25.8700 N   0  0  0  0  0  0  0  0  0  0  0  0
   38.8350   19.4130   27.5220 N   0  0  0  0  0  0  0  0  0  0  0  0
   38.5180   20.0320   28.6960 C   0  0  0  0  0  0  0  0  0  0  0  0
   39.2560   20.9660   29.1020 O   0  0  0  0  0  0  0  0  0  0  0  0
   37.1360   21.6270   34.3630 O   0  0  0  0  0  0  0  0  0  0  0  0
   37.9370   22.6950   34.7650 C   0  0  0  0  0  0  0  0  0  0  0  0
   38.3070   23.3830   33.7880 O   0  0  0  0  0  0  0  0  0  0  0  0
   39.9360   22.7280   37.7710 C   0  0  0  0  0  0  0  0  0  0  0  0
   39.1270   23.3680   38.7310 C   0  0  0  0  0  0  0  0  0  0  0  0
   37.8290   23.8070   38.3100 C   0  0  0  0  0  0  0  0  0  0  0  0
   37.4790   23.5730   37.0230 N   0  0  0  0  0  0  0  0  0  0  0  0
   38.2850   22.9590   36.1480 C   0  0  0  0  0  0  0  0  0  0  0  0
   39.5160   22.5360   36.5230 N   0  0  0  0  0  0  0  0  0  0  0  0
   35.1343   22.1639   32.4691 H   0  0  0  0  0  0  0  0  0  0  0  0
   35.2254   21.2731   30.1704 H   0  0  0  0  0  0  0  0  0  0  0  0
   35.7409   18.3471   29.5841 H   0  0  0  0  0  0  0  0  0  0  0  0
   36.2755   17.1523   27.4058 H   0  0  0  0  0  0  0  0  0  0  0  0
   37.7801   16.9969   25.5096 H   0  0  0  0  0  0  0  0  0  0  0  0
   39.1942   18.0717   25.3431 H   0  0  0  0  0  0  0  0  0  0  0  0
   40.9383   22.3789   38.0600 H   0  0  0  0  0  0  0  0  0  0  0  0
   39.4774   23.5244   39.7619 H   0  0  0  0  0  0  0  0  0  0  0  0
   37.1440   24.3142   39.0053 H   0  0  0  0  0  0  0  0  0  0  0  0
  1 14  1  0
  2  1  2  0
  3  2  1  0
  4  3  2  0
  4  5  1  0
  5  1  1  0
  6  4  1  0
  7  6  1  0
  8  7  2  0
  9 11  2  0
  9  8  1  0
 10  9  1  0
 11 12  1  0
 12 13  2  0
 12  6  1  0
 14 15  1  0
 15 21  1  0
 16 15  2  0
 17 18  2  0
 19 18  1  0
 20 19  2  0
 21 22  2  0
 21 20  1  0
 22 17  1  0
  2 23  1  0
  3 24  1  0
  7 25  1  0
  8 26  1  0
 10 27  1  0
 10 28  1  0
 17 29  1  0
 18 30  1  0
 19 31  1  0
M  ISO  7  23  14  24  14  25  14  26  14  29  14  30  14  31  14
M  END
>  <minimizedAffinity>  (1) 
-4.446064

>  <minimizedRMSD>  (1) 
1.03078842

$$$$
