
     RDKit          3D

 26 28  0  0  0  0  0  0  0  0999 V2000
   37.0470   21.5230   34.3780 O   0  0  0  0  0  0  0  0  0  0  0  0
   36.7920   21.1710   33.0930 C   0  0  0  0  0  0  0  0  0  0  0  0
   35.7510   21.3390   32.2700 C   0  0  0  0  0  0  0  0  0  0  0  0
   35.7580   20.8720   30.9930 C   0  0  0  0  0  0  0  0  0  0  0  0
   36.9070   20.2120   30.5930 C   0  0  0  0  0  0  0  0  0  0  0  0
   38.0310   20.2520   32.0930 S   0  0  0  0  0  0  0  0  0  0  0  0
   37.2440   19.6170   29.3710 N   0  0  0  0  0  0  0  0  0  0  0  0
   36.5940   18.7720   28.5660 C   0  0  0  0  0  0  0  0  0  0  0  0
   37.4040   18.5210   27.4970 N   0  0  0  0  0  0  0  0  0  0  0  0
   38.5500   19.2330   27.6810 C   0  0  0  0  0  0  0  0  0  0  0  0
   38.4390   19.9120   28.8520 N   0  0  0  0  0  0  0  0  0  0  0  0
   37.8210   22.6220   34.7470 C   0  0  0  0  0  0  0  0  0  0  0  0
   38.1160   23.3150   33.7690 O   0  0  0  0  0  0  0  0  0  0  0  0
   39.9310   22.7100   37.6870 C   0  0  0  0  0  0  0  0  0  0  0  0
   39.1570   23.3150   38.6710 C   0  0  0  0  0  0  0  0  0  0  0  0
   37.8330   23.7150   38.3050 C   0  0  0  0  0  0  0  0  0  0  0  0
   37.4330   23.4770   37.0290 N   0  0  0  0  0  0  0  0  0  0  0  0
   38.2150   22.8920   36.1160 C   0  0  0  0  0  0  0  0  0  0  0  0
   39.4740   22.5060   36.4460 N   0  0  0  0  0  0  0  0  0  0  0  0
   34.8615   21.8716   32.6377 H   0  0  0  0  0  0  0  0  0  0  0  0
   34.9009   21.0106   30.3175 H   0  0  0  0  0  0  0  0  0  0  0  0
   35.5900   18.3551   28.7341 H   0  0  0  0  0  0  0  0  0  0  0  0
   39.4141   19.2545   27.0006 H   0  0  0  0  0  0  0  0  0  0  0  0
   40.9528   22.3884   37.9370 H   0  0  0  0  0  0  0  0  0  0  0  0
   39.5458   23.4790   39.6868 H   0  0  0  0  0  0  0  0  0  0  0  0
   37.1628   24.1981   39.0312 H   0  0  0  0  0  0  0  0  0  0  0  0
  1 12  1  0
  2  1  1  0
  3  2  2  0
  4  3  1  0
  5  4  2  0
  5  6  1  0
  6  2  1  0
  7  5  1  0
  8  7  1  0
  9 10  1  0
  9  8  2  0
 10 11  2  0
 11  7  1  0
 12 18  1  0
 13 12  2  0
 14 15  2  0
 16 15  1  0
 17 16  2  0
 18 19  2  0
 18 17  1  0
 19 14  1  0
  3 20  1  0
  4 21  1  0
  8 22  1  0
 10 23  1  0
 14 24  1  0
 15 25  1  0
 16 26  1  0
M  ISO  7  20  14  21  14  22  14  23  14  24  14  25  14  26  14
M  END
>  <minimizedAffinity>  (1) 
-4.33167553

>  <minimizedRMSD>  (1) 
0.656162202

$$$$
