
     RDKit          3D

 23 24  0  0  0  0  0  0  0  0999 V2000
   36.9620   21.5290   34.3920 O   0  0  0  0  0  0  0  0  0  0  0  0
   36.7060   21.1400   33.1210 C   0  0  0  0  0  0  0  0  0  0  0  0
   35.7120   21.4110   32.2700 C   0  0  0  0  0  0  0  0  0  0  0  0
   35.6710   20.8880   31.0080 C   0  0  0  0  0  0  0  0  0  0  0  0
   36.7240   20.0610   30.6690 C   0  0  0  0  0  0  0  0  0  0  0  0
   37.8240   20.0150   32.1930 S   0  0  0  0  0  0  0  0  0  0  0  0
   37.0080   19.3450   29.4450 C   0  0  0  0  0  0  0  0  0  0  0  0
   37.9070   19.6790   28.6580 O   0  0  0  0  0  0  0  0  0  0  0  0
   36.2290   18.2330   29.1500 O   0  0  0  0  0  0  0  0  0  0  0  0
   37.8540   22.5420   34.7370 C   0  0  0  0  0  0  0  0  0  0  0  0
   38.2520   23.1550   33.7260 O   0  0  0  0  0  0  0  0  0  0  0  0
   39.9500   22.7100   37.6750 C   0  0  0  0  0  0  0  0  0  0  0  0
   39.1590   23.3280   38.6510 C   0  0  0  0  0  0  0  0  0  0  0  0
   37.8460   23.7000   38.2740 C   0  0  0  0  0  0  0  0  0  0  0  0
   37.4460   23.4350   37.0030 N   0  0  0  0  0  0  0  0  0  0  0  0
   38.2580   22.8330   36.0980 C   0  0  0  0  0  0  0  0  0  0  0  0
   39.5020   22.4750   36.4370 N   0  0  0  0  0  0  0  0  0  0  0  0
   34.8997   22.0772   32.5961 H   0  0  0  0  0  0  0  0  0  0  0  0
   34.8526   21.1112   30.3078 H   0  0  0  0  0  0  0  0  0  0  0  0
   36.3948   17.7184   28.3207 H   0  0  0  0  0  0  0  0  0  0  0  0
   40.9750   22.4074   37.9353 H   0  0  0  0  0  0  0  0  0  0  0  0
   39.5406   23.5161   39.6654 H   0  0  0  0  0  0  0  0  0  0  0  0
   37.1691   24.1896   38.9897 H   0  0  0  0  0  0  0  0  0  0  0  0
  1 10  1  0
  2  1  1  0
  3  2  2  0
  4  3  1  0
  5  4  2  0
  5  6  1  0
  6  2  1  0
  7  5  1  0
  8  7  2  0
  9  7  1  0
 10 16  1  0
 11 10  2  0
 12 13  2  0
 14 13  1  0
 15 14  2  0
 16 17  2  0
 16 15  1  0
 17 12  1  0
  3 18  1  0
  4 19  1  0
  9 20  1  0
 12 21  1  0
 13 22  1  0
 14 23  1  0
M  ISO  6  18  14  19  14  20   3  21  14  22  14  23  14
M  END
>  <minimizedAffinity>  (1) 
-4.29668331

>  <minimizedRMSD>  (1) 
0.3656407

$$$$
