
     RDKit          3D

 27 29  0  0  0  0  0  0  0  0999 V2000
   37.8740   22.4930   34.7620 C   0  0  0  0  0  0  0  0  0  0  0  0
   38.3220   23.0570   33.7460 O   0  0  0  0  0  0  0  0  0  0  0  0
   39.9570   22.7200   37.7100 C   0  0  0  0  0  0  0  0  0  0  0  0
   39.1480   23.3410   38.6700 C   0  0  0  0  0  0  0  0  0  0  0  0
   37.8230   23.6970   38.2730 C   0  0  0  0  0  0  0  0  0  0  0  0
   37.4310   23.4160   37.0130 N   0  0  0  0  0  0  0  0  0  0  0  0
   38.2550   22.8110   36.1200 C   0  0  0  0  0  0  0  0  0  0  0  0
   39.5190   22.4620   36.4670 N   0  0  0  0  0  0  0  0  0  0  0  0
   36.9510   21.5100   34.4210 O   0  0  0  0  0  0  0  0  0  0  0  0
   36.5960   21.1990   33.1530 C   0  0  0  0  0  0  0  0  0  0  0  0
   35.6070   21.5940   32.3450 C   0  0  0  0  0  0  0  0  0  0  0  0
   35.4500   21.1310   31.0830 C   0  0  0  0  0  0  0  0  0  0  0  0
   36.3960   20.2070   30.6760 C   0  0  0  0  0  0  0  0  0  0  0  0
   37.5470   19.9920   32.1460 S   0  0  0  0  0  0  0  0  0  0  0  0
   36.6110   19.4540   29.4110 C   0  0  0  0  0  0  0  0  0  0  0  0
   36.9070   18.0240   29.5120 C   0  0  0  0  0  0  0  0  0  0  0  0
   37.9860   19.0320   29.1520 C   0  0  0  0  0  0  0  0  0  0  0  0
   40.9837   22.4346   37.9828 H   0  0  0  0  0  0  0  0  0  0  0  0
   39.5171   23.5457   39.6858 H   0  0  0  0  0  0  0  0  0  0  0  0
   37.1376   24.1892   38.9787 H   0  0  0  0  0  0  0  0  0  0  0  0
   34.8850   22.3319   32.7247 H   0  0  0  0  0  0  0  0  0  0  0  0
   34.6308   21.4647   30.4291 H   0  0  0  0  0  0  0  0  0  0  0  0
   35.8574   20.0272   28.8510 H   0  0  0  0  0  0  0  0  0  0  0  0
   36.9174   17.5286   30.4941 H   0  0  0  0  0  0  0  0  0  0  0  0
   36.5075   17.1049   29.0586 H   0  0  0  0  0  0  0  0  0  0  0  0
   38.3923   19.0665   28.1304 H   0  0  0  0  0  0  0  0  0  0  0  0
   38.9766   19.2972   29.5499 H   0  0  0  0  0  0  0  0  0  0  0  0
  1  7  1  0
  2  1  2  0
  3  4  2  0
  5  4  1  0
  6  5  2  0
  7  8  2  0
  7  6  1  0
  8  3  1  0
  9  1  1  0
 10  9  1  0
 11 10  2  0
 12 11  1  0
 13 12  2  0
 13 14  1  0
 14 10  1  0
 15 16  1  0
 15 13  1  0
 17 15  1  0
 17 16  1  0
  3 18  1  0
  4 19  1  0
  5 20  1  0
 11 21  1  0
 12 22  1  0
 15 23  1  0
 16 24  1  0
 16 25  1  0
 17 26  1  0
 17 27  1  0
M  ISO  8  18  14  19  14  20  14  21  14  22  14  23  13  24  13  25  13
M  ISO  2  26  13  27  13
M  END
>  <minimizedAffinity>  (1) 
-4.28736734

>  <minimizedRMSD>  (1) 
0.703801811

$$$$
