
     RDKit          3D

 17 18  0  0  0  0  0  0  0  0999 V2000
   41.0250   21.8270   37.5670 C   0  0  0  0  0  0  0  0  0  0  0  0
   39.9860   22.7680   37.6570 C   0  0  0  0  0  0  0  0  0  0  0  0
   39.4910   23.3490   36.4820 C   0  0  0  0  0  0  0  0  0  0  0  0
   40.0640   22.9500   35.3200 N   0  0  0  0  0  0  0  0  0  0  0  0
   41.0570   22.0480   35.2460 C   0  0  0  0  0  0  0  0  0  0  0  0
   41.5400   21.4860   36.3560 N   0  0  0  0  0  0  0  0  0  0  0  0
   38.1780   24.5440   36.5360 S   0  0  0  0  0  0  0  0  0  0  0  0
   38.4470   25.7110   35.1780 C   0  0  0  0  0  0  0  0  0  0  0  0
   37.4050   25.9610   34.3580 C   0  0  0  0  0  0  0  0  0  0  0  0
   38.0840   27.1480   33.1710 S   0  0  0  0  0  0  0  0  0  0  0  0
   39.7860   27.1030   34.0490 C   0  0  0  0  0  0  0  0  0  0  0  0
   39.5420   26.3680   34.8680 N   0  0  0  0  0  0  0  0  0  0  0  0
   41.4241   21.3635   38.4813 H   0  0  0  0  0  0  0  0  0  0  0  0
   39.5671   23.0448   38.6357 H   0  0  0  0  0  0  0  0  0  0  0  0
   41.4737   21.7715   34.2663 H   0  0  0  0  0  0  0  0  0  0  0  0
   36.3879   25.5441   34.4004 H   0  0  0  0  0  0  0  0  0  0  0  0
   40.7215   27.6352   33.8219 H   0  0  0  0  0  0  0  0  0  0  0  0
  1  2  2  0
  3  7  1  0
  3  2  1  0
  4  3  2  0
  5  4  1  0
  5  6  2  0
  6  1  1  0
  8  7  1  0
  9  8  2  0
 10 11  1  0
 10  9  1  0
 11 12  2  0
 12  8  1  0
  1 13  1  0
  2 14  1  0
  5 15  1  0
  9 16  1  0
 11 17  1  0
M  ISO  5  13  14  14  14  15  14  16  14  17  14
M  END
>  <minimizedAffinity>  (1) 
-3.02434564

>  <minimizedRMSD>  (1) 
2.93378639

$$$$
