
     RDKit          3D

 32 33  0  0  0  0  0  0  0  0999 V2000
   36.9520   21.5350   34.2970 O   0  0  0  0  0  0  0  0  0  0  0  0
   36.8480   21.0720   33.0350 C   0  0  0  0  0  0  0  0  0  0  0  0
   35.8800   21.0950   32.1120 C   0  0  0  0  0  0  0  0  0  0  0  0
   36.0550   20.5260   30.8710 C   0  0  0  0  0  0  0  0  0  0  0  0
   37.2860   19.9360   30.6460 C   0  0  0  0  0  0  0  0  0  0  0  0
   38.2560   20.1760   32.2240 S   0  0  0  0  0  0  0  0  0  0  0  0
   37.8020   19.2600   29.4750 C   0  0  0  0  0  0  0  0  0  0  0  0
   36.6750   18.8880   28.5410 C   0  0  0  0  0  0  0  0  0  0  0  0
   38.5330   18.0490   29.9390 C   0  0  0  0  0  0  0  0  0  0  0  0
   38.7600   20.1480   28.7200 C   0  0  0  0  0  0  0  0  0  0  0  0
   37.7840   22.6190   34.6540 C   0  0  0  0  0  0  0  0  0  0  0  0
   38.0850   23.3170   33.6650 O   0  0  0  0  0  0  0  0  0  0  0  0
   39.9560   22.6570   37.5440 C   0  0  0  0  0  0  0  0  0  0  0  0
   39.2050   23.2870   38.5530 C   0  0  0  0  0  0  0  0  0  0  0  0
   37.8940   23.7110   38.2000 C   0  0  0  0  0  0  0  0  0  0  0  0
   37.4620   23.4860   36.9470 N   0  0  0  0  0  0  0  0  0  0  0  0
   38.2260   22.8740   36.0130 C   0  0  0  0  0  0  0  0  0  0  0  0
   39.4670   22.4650   36.3200 N   0  0  0  0  0  0  0  0  0  0  0  0
   34.9219   21.5799   32.3504 H   0  0  0  0  0  0  0  0  0  0  0  0
   35.2651   20.5395   30.1056 H   0  0  0  0  0  0  0  0  0  0  0  0
   35.7923   18.5966   29.1292 H   0  0  0  0  0  0  0  0  0  0  0  0
   36.4244   19.7511   27.9067 H   0  0  0  0  0  0  0  0  0  0  0  0
   36.9874   18.0453   27.9067 H   0  0  0  0  0  0  0  0  0  0  0  0
   38.5460   18.0275   31.0387 H   0  0  0  0  0  0  0  0  0  0  0  0
   38.0277   17.1482   29.5606 H   0  0  0  0  0  0  0  0  0  0  0  0
   39.5655   18.0765   29.5606 H   0  0  0  0  0  0  0  0  0  0  0  0
   39.3734   20.7166   29.4344 H   0  0  0  0  0  0  0  0  0  0  0  0
   39.4131   19.5287   28.0876 H   0  0  0  0  0  0  0  0  0  0  0  0
   38.1920   20.8461   28.0876 H   0  0  0  0  0  0  0  0  0  0  0  0
   40.9757   22.3133   37.7723 H   0  0  0  0  0  0  0  0  0  0  0  0
   39.6109   23.4437   39.5633 H   0  0  0  0  0  0  0  0  0  0  0  0
   37.2479   24.2119   38.9360 H   0  0  0  0  0  0  0  0  0  0  0  0
  1 11  1  0
  2  1  1  0
  3  2  2  0
  4  3  1  0
  5  4  2  0
  5  6  1  0
  6  2  1  0
  7  9  1  0
  7  5  1  0
  8  7  1  0
 10  7  1  0
 11 17  1  0
 12 11  2  0
 13 14  2  0
 15 14  1  0
 16 15  2  0
 17 18  2  0
 17 16  1  0
 18 13  1  0
  3 19  1  0
  4 20  1  0
  8 21  1  0
  8 22  1  0
  8 23  1  0
  9 24  1  0
  9 25  1  0
  9 26  1  0
 10 27  1  0
 10 28  1  0
 10 29  1  0
 13 30  1  0
 14 31  1  0
 15 32  1  0
M  ISO  8  19  14  20  14  21   8  22   8  23   8  24   8  25   8  26   8
M  ISO  6  27   8  28   8  29   8  30  14  31  14  32  14
M  END
>  <minimizedAffinity>  (1) 
-4.10418606

>  <minimizedRMSD>  (1) 
0.873499155

$$$$
