
     RDKit          3D

 34 37  0  0  0  0  0  0  0  0999 V2000
   36.8330   21.1780   33.0950 C   0  0  0  0  0  0  0  0  0  0  0  0
   35.8160   21.3350   32.2440 C   0  0  0  0  0  0  0  0  0  0  0  0
   35.8350   20.8420   30.9790 C   0  0  0  0  0  0  0  0  0  0  0  0
   36.9820   20.1620   30.6230 C   0  0  0  0  0  0  0  0  0  0  0  0
   38.0780   20.2220   32.1430 S   0  0  0  0  0  0  0  0  0  0  0  0
   37.3240   19.5070   29.3340 C   0  0  0  0  0  0  0  0  0  0  0  0
   36.6090   18.4570   28.7960 C   0  0  0  0  0  0  0  0  0  0  0  0
   37.2720   18.2030   27.6540 N   0  0  0  0  0  0  0  0  0  0  0  0
   38.3250   19.0180   27.4700 C   0  0  0  0  0  0  0  0  0  0  0  0
   39.2300   19.0380   26.4030 C   0  0  0  0  0  0  0  0  0  0  0  0
   40.2350   19.9910   26.4620 C   0  0  0  0  0  0  0  0  0  0  0  0
   40.3060   20.8580   27.5340 C   0  0  0  0  0  0  0  0  0  0  0  0
   39.3800   20.7870   28.5590 C   0  0  0  0  0  0  0  0  0  0  0  0
   38.3730   19.8720   28.5550 C   0  0  0  0  0  0  0  0  0  0  0  0
   37.0460   21.5670   34.3750 O   0  0  0  0  0  0  0  0  0  0  0  0
   37.8550   22.6400   34.7400 C   0  0  0  0  0  0  0  0  0  0  0  0
   38.1840   23.3150   33.7570 O   0  0  0  0  0  0  0  0  0  0  0  0
   39.9310   22.7090   37.6970 C   0  0  0  0  0  0  0  0  0  0  0  0
   39.1490   23.3450   38.6810 C   0  0  0  0  0  0  0  0  0  0  0  0
   37.8380   23.7650   38.2820 C   0  0  0  0  0  0  0  0  0  0  0  0
   37.4460   23.5260   37.0090 N   0  0  0  0  0  0  0  0  0  0  0  0
   38.2480   22.9090   36.1110 C   0  0  0  0  0  0  0  0  0  0  0  0
   39.4940   22.5010   36.4620 N   0  0  0  0  0  0  0  0  0  0  0  0
   34.9262   21.8865   32.5817 H   0  0  0  0  0  0  0  0  0  0  0  0
   34.9926   20.9756   30.2844 H   0  0  0  0  0  0  0  0  0  0  0  0
   35.7186   17.9532   29.2003 H   0  0  0  0  0  0  0  0  0  0  0  0
   37.0017   17.4627   26.9908 H   0  0  0  0  0  0  0  0  0  0  0  0
   39.1483   18.3344   25.5614 H   0  0  0  0  0  0  0  0  0  0  0  0
   40.9774   20.0565   25.6530 H   0  0  0  0  0  0  0  0  0  0  0  0
   41.1060   21.6119   27.5733 H   0  0  0  0  0  0  0  0  0  0  0  0
   39.4599   21.4901   29.4012 H   0  0  0  0  0  0  0  0  0  0  0  0
   40.9436   22.3717   37.9632 H   0  0  0  0  0  0  0  0  0  0  0  0
   39.5246   23.5105   39.7016 H   0  0  0  0  0  0  0  0  0  0  0  0
   37.1670   24.2692   38.9930 H   0  0  0  0  0  0  0  0  0  0  0  0
  1 15  1  0
  2  1  2  0
  3  2  1  0
  4  3  2  0
  4  5  1  0
  5  1  1  0
  6  4  1  0
  7  6  2  0
  8  7  1  0
  9  8  1  0
  9 14  2  0
 10 11  2  0
 10  9  1  0
 11 12  1  0
 12 13  2  0
 14 13  1  0
 14  6  1  0
 15 16  1  0
 16 22  1  0
 17 16  2  0
 18 19  2  0
 20 19  1  0
 21 20  2  0
 22 23  2  0
 22 21  1  0
 23 18  1  0
  2 24  1  0
  3 25  1  0
  7 26  1  0
  8 27  1  0
 10 28  1  0
 11 29  1  0
 12 30  1  0
 13 31  1  0
 18 32  1  0
 19 33  1  0
 20 34  1  0
M  ISO  8  24  14  25  14  26  14  27   9  28  14  29  14  30  14  31  14
M  ISO  3  32  14  33  14  34  14
M  END
>  <minimizedAffinity>  (1) 
-4.59695387

>  <minimizedRMSD>  (1) 
1.00725806

$$$$
