
     RDKit          3D

 47 51  0  0  0  0  0  0  0  0999 V2000
   36.8470   24.0790   32.0960 C   0  0  0  0  0  0  0  0  0  0  0  0
   35.9650   23.7700   31.1490 C   0  0  0  0  0  0  0  0  0  0  0  0
   35.5100   22.5000   30.9930 C   0  0  0  0  0  0  0  0  0  0  0  0
   36.0110   21.5650   31.8600 C   0  0  0  0  0  0  0  0  0  0  0  0
   37.1780   22.5050   32.9560 S   0  0  0  0  0  0  0  0  0  0  0  0
   35.7110   20.1020   31.9440 C   0  0  0  0  0  0  0  0  0  0  0  0
   34.4400   19.5930   32.1010 C   0  0  0  0  0  0  0  0  0  0  0  0
   34.6600   18.2640   32.1220 N   0  0  0  0  0  0  0  0  0  0  0  0
   35.9590   17.9470   31.9900 C   0  0  0  0  0  0  0  0  0  0  0  0
   36.5540   16.6790   31.9680 C   0  0  0  0  0  0  0  0  0  0  0  0
   37.9260   16.6370   31.8180 C   0  0  0  0  0  0  0  0  0  0  0  0
   38.6550   17.8080   31.6980 C   0  0  0  0  0  0  0  0  0  0  0  0
   38.0130   19.0320   31.7270 C   0  0  0  0  0  0  0  0  0  0  0  0
   36.6620   19.1310   31.8720 C   0  0  0  0  0  0  0  0  0  0  0  0
   37.4660   25.2330   32.4800 O   0  0  0  0  0  0  0  0  0  0  0  0
   38.8340   25.4060   32.5630 C   0  0  0  0  0  0  0  0  0  0  0  0
   39.2660   26.0330   31.5880 O   0  0  0  0  0  0  0  0  0  0  0  0
   41.7350   24.9840   34.6720 C   0  0  0  0  0  0  0  0  0  0  0  0
   41.3240   24.0780   35.6780 C   0  0  0  0  0  0  0  0  0  0  0  0
   39.9730   23.6010   35.6050 C   0  0  0  0  0  0  0  0  0  0  0  0
   39.1920   24.0450   34.5920 N   0  0  0  0  0  0  0  0  0  0  0  0
   39.6410   24.9110   33.6610 C   0  0  0  0  0  0  0  0  0  0  0  0
   40.9200   25.3850   33.6980 N   0  0  0  0  0  0  0  0  0  0  0  0
   39.4460   22.6490   36.6110 C   0  0  0  0  0  0  0  0  0  0  0  0
   37.9530   22.8440   36.7580 C   0  0  0  0  0  0  0  0  0  0  0  0
   37.8230   23.9090   37.8120 C   0  0  0  0  0  0  0  0  0  0  0  0
   38.9210   23.5830   38.7730 C   0  0  0  0  0  0  0  0  0  0  0  0
   40.0050   22.8690   37.9790 C   0  0  0  0  0  0  0  0  0  0  0  0
   35.5965   24.5600   30.4781 H   0  0  0  0  0  0  0  0  0  0  0  0
   34.7797   22.2366   30.2137 H   0  0  0  0  0  0  0  0  0  0  0  0
   33.4867   20.1349   32.1874 H   0  0  0  0  0  0  0  0  0  0  0  0
   33.9113   17.5647   32.2281 H   0  0  0  0  0  0  0  0  0  0  0  0
   35.9567   15.7605   32.0656 H   0  0  0  0  0  0  0  0  0  0  0  0
   38.4434   15.6666   31.7937 H   0  0  0  0  0  0  0  0  0  0  0  0
   39.7477   17.7643   31.5793 H   0  0  0  0  0  0  0  0  0  0  0  0
   38.6094   19.9512   31.6303 H   0  0  0  0  0  0  0  0  0  0  0  0
   42.7644   25.3710   34.6952 H   0  0  0  0  0  0  0  0  0  0  0  0
   42.0072   23.7550   36.4773 H   0  0  0  0  0  0  0  0  0  0  0  0
   39.7259   21.6492   36.2475 H   0  0  0  0  0  0  0  0  0  0  0  0
   37.5077   23.1776   35.8091 H   0  0  0  0  0  0  0  0  0  0  0  0
   37.4312   21.9148   37.0307 H   0  0  0  0  0  0  0  0  0  0  0  0
   37.9636   24.9103   37.3789 H   0  0  0  0  0  0  0  0  0  0  0  0
   36.8300   23.9256   38.2849 H   0  0  0  0  0  0  0  0  0  0  0  0
   39.3226   24.5063   39.2161 H   0  0  0  0  0  0  0  0  0  0  0  0
   38.5516   22.9498   39.5931 H   0  0  0  0  0  0  0  0  0  0  0  0
   40.2501   21.9056   38.4499 H   0  0  0  0  0  0  0  0  0  0  0  0
   40.9305   23.4624   37.9423 H   0  0  0  0  0  0  0  0  0  0  0  0
  1 15  1  0
  1  5  1  0
  2  1  2  0
  3  2  1  0
  3  4  2  0
  4  6  1  0
  4  5  1  0
  6  7  2  0
  7  8  1  0
  9  8  1  0
 10  9  2  0
 11 10  1  0
 12 13  1  0
 12 11  2  0
 13 14  2  0
 14  6  1  0
 14  9  1  0
 15 16  1  0
 16 22  1  0
 17 16  2  0
 18 19  2  0
 20 19  1  0
 20 24  1  0
 21 20  2  0
 22 23  2  0
 22 21  1  0
 23 18  1  0
 24 25  1  0
 24 28  1  0
 25 26  1  0
 26 27  1  0
 28 27  1  0
  2 29  1  0
  3 30  1  0
  7 31  1  0
  8 32  1  0
 10 33  1  0
 11 34  1  0
 12 35  1  0
 13 36  1  0
 18 37  1  0
 19 38  1  0
 24 39  1  0
 25 40  1  0
 25 41  1  0
 26 42  1  0
 26 43  1  0
 27 44  1  0
 27 45  1  0
 28 46  1  0
 28 47  1  0
M  ISO  8  29  14  30  14  31  14  32   9  33  14  34  14  35  14  36  14
M  ISO  8  37  14  38  14  39  13  40  13  41  13  42  13  43  13  44  13
M  ISO  3  45  13  46  13  47  13
M  END
>  <minimizedAffinity>  (1) 
-6.27223539

>  <minimizedRMSD>  (1) 
4.02359676

$$$$
