
     RDKit          3D

 17 17  0  0  0  0  0  0  0  0999 V2000
   37.9160   23.1610   37.0410 C   0  0  0  0  0  0  0  0  0  0  0  0
   37.6970   24.5360   36.7760 C   0  0  0  0  0  0  0  0  0  0  0  0
   38.6330   25.2300   36.0210 C   0  0  0  0  0  0  0  0  0  0  0  0
   39.7200   24.5550   35.5710 N   0  0  0  0  0  0  0  0  0  0  0  0
   39.9160   23.2470   35.8300 C   0  0  0  0  0  0  0  0  0  0  0  0
   39.0220   22.5510   36.5600 N   0  0  0  0  0  0  0  0  0  0  0  0
   38.4060   26.9570   35.6590 S   0  0  0  0  0  0  0  0  0  0  0  0
   37.4830   27.2100   34.1320 C   0  0  0  0  0  0  0  0  0  0  0  0
   36.4020   28.2470   34.4300 C   0  0  0  0  0  0  0  0  0  0  0  0
   37.1875   22.5916   37.6368 H   0  0  0  0  0  0  0  0  0  0  0  0
   36.8011   25.0445   37.1618 H   0  0  0  0  0  0  0  0  0  0  0  0
   40.8135   22.7430   35.4422 H   0  0  0  0  0  0  0  0  0  0  0  0
   37.0214   26.2653   33.8087 H   0  0  0  0  0  0  0  0  0  0  0  0
   38.1462   27.5552   33.3251 H   0  0  0  0  0  0  0  0  0  0  0  0
   36.2885   28.3559   35.5187 H   0  0  0  0  0  0  0  0  0  0  0  0
   36.6912   29.2141   33.9930 H   0  0  0  0  0  0  0  0  0  0  0  0
   35.4477   27.9179   33.9930 H   0  0  0  0  0  0  0  0  0  0  0  0
  2  1  2  0
  3  2  1  0
  4  5  1  0
  4  3  2  0
  5  6  2  0
  6  1  1  0
  7  3  1  0
  8  9  1  0
  8  7  1  0
  1 10  1  0
  2 11  1  0
  5 12  1  0
  8 13  1  0
  8 14  1  0
  9 15  1  0
  9 16  1  0
  9 17  1  0
M  ISO  8  10  14  11  14  12  14  13   8  14   8  15   8  16   8  17   8
M  END
>  <minimizedAffinity>  (1) 
-2.6559937

>  <minimizedRMSD>  (1) 
4.33506107

$$$$
