
     RDKit          3D

 37 40  0  0  0  0  0  0  0  0999 V2000
   36.4910   21.8600   32.1040 C   0  0  0  0  0  0  0  0  0  0  0  0
   35.3710   21.1480   32.1830 C   0  0  0  0  0  0  0  0  0  0  0  0
   35.2750   19.9050   31.6400 C   0  0  0  0  0  0  0  0  0  0  0  0
   36.4000   19.4370   31.0110 C   0  0  0  0  0  0  0  0  0  0  0  0
   37.6500   20.7960   31.1840 S   0  0  0  0  0  0  0  0  0  0  0  0
   36.6150   18.1280   30.3230 C   0  0  0  0  0  0  0  0  0  0  0  0
   36.7930   16.9350   30.9870 C   0  0  0  0  0  0  0  0  0  0  0  0
   36.9440   16.0540   29.9780 N   0  0  0  0  0  0  0  0  0  0  0  0
   36.8680   16.6350   28.7670 C   0  0  0  0  0  0  0  0  0  0  0  0
   36.9780   16.0340   27.5070 C   0  0  0  0  0  0  0  0  0  0  0  0
   36.8600   16.8790   26.4020 C   0  0  0  0  0  0  0  0  0  0  0  0
   36.6470   18.2190   26.5900 C   0  0  0  0  0  0  0  0  0  0  0  0
   36.5470   18.7580   27.8590 C   0  0  0  0  0  0  0  0  0  0  0  0
   36.6540   17.9830   28.9770 C   0  0  0  0  0  0  0  0  0  0  0  0
   36.8630   23.0970   32.5430 O   0  0  0  0  0  0  0  0  0  0  0  0
   36.6880   24.2720   31.8080 C   0  0  0  0  0  0  0  0  0  0  0  0
   36.5280   24.0420   30.6150 O   0  0  0  0  0  0  0  0  0  0  0  0
   35.9690   27.7860   32.2580 C   0  0  0  0  0  0  0  0  0  0  0  0
   36.6250   28.1380   33.4560 C   0  0  0  0  0  0  0  0  0  0  0  0
   37.3420   27.1060   34.1260 C   0  0  0  0  0  0  0  0  0  0  0  0
   37.3570   25.8610   33.5870 N   0  0  0  0  0  0  0  0  0  0  0  0
   36.7020   25.5890   32.4270 C   0  0  0  0  0  0  0  0  0  0  0  0
   36.0040   26.5580   31.7590 N   0  0  0  0  0  0  0  0  0  0  0  0
   38.0770   27.3400   35.3980 C   0  0  0  0  0  0  0  0  0  0  0  0
   39.4560   27.3960   35.1650 F   0  0  0  0  0  0  0  0  0  0  0  0
   37.8780   26.2980   36.2760 F   0  0  0  0  0  0  0  0  0  0  0  0
   37.7080   28.5480   35.9360 F   0  0  0  0  0  0  0  0  0  0  0  0
   34.4997   21.5753   32.7009 H   0  0  0  0  0  0  0  0  0  0  0  0
   34.3512   19.3111   31.7016 H   0  0  0  0  0  0  0  0  0  0  0  0
   36.8082   16.7475   32.0708 H   0  0  0  0  0  0  0  0  0  0  0  0
   37.1005   15.0458   30.1189 H   0  0  0  0  0  0  0  0  0  0  0  0
   37.1484   14.9532   27.3939 H   0  0  0  0  0  0  0  0  0  0  0  0
   36.9378   16.4701   25.3838 H   0  0  0  0  0  0  0  0  0  0  0  0
   36.5538   18.8786   25.7147 H   0  0  0  0  0  0  0  0  0  0  0  0
   36.3769   19.8390   27.9704 H   0  0  0  0  0  0  0  0  0  0  0  0
   35.4063   28.5606   31.7164 H   0  0  0  0  0  0  0  0  0  0  0  0
   36.5846   29.1625   33.8544 H   0  0  0  0  0  0  0  0  0  0  0  0
  1  2  2  0
  1 15  1  0
  3  2  1  0
  4  5  1  0
  4  3  2  0
  5  1  1  0
  6  7  2  0
  6  4  1  0
  8  7  1  0
  9 14  2  0
  9  8  1  0
 10  9  1  0
 11 12  1  0
 11 10  2  0
 12 13  2  0
 13 14  1  0
 14  6  1  0
 16 22  1  0
 16 15  1  0
 17 16  2  0
 18 19  2  0
 19 20  1  0
 20 24  1  0
 21 20  2  0
 22 21  1  0
 23 18  1  0
 23 22  2  0
 24 27  1  0
 24 26  1  0
 25 24  1  0
  2 28  1  0
  3 29  1  0
  7 30  1  0
  8 31  1  0
 10 32  1  0
 11 33  1  0
 12 34  1  0
 13 35  1  0
 18 36  1  0
 19 37  1  0
M  ISO  8  28  14  29  14  30  14  31   9  32  14  33  14  34  14  35  14
M  ISO  2  36  14  37  14
M  END
>  <minimizedAffinity>  (1) 
-5.43836451

>  <minimizedRMSD>  (1) 
4.3084445

$$$$
