
     RDKit          3D

 40 44  0  0  0  0  0  0  0  0999 V2000
   36.1020   22.4730   31.8590 C   0  0  0  0  0  0  0  0  0  0  0  0
   35.6240   21.8190   30.8060 C   0  0  0  0  0  0  0  0  0  0  0  0
   35.6180   20.4610   30.7410 C   0  0  0  0  0  0  0  0  0  0  0  0
   36.1400   19.8110   31.8320 C   0  0  0  0  0  0  0  0  0  0  0  0
   36.6570   21.1630   32.9950 S   0  0  0  0  0  0  0  0  0  0  0  0
   36.2800   18.3450   32.0730 C   0  0  0  0  0  0  0  0  0  0  0  0
   35.2300   17.5220   32.4110 C   0  0  0  0  0  0  0  0  0  0  0  0
   35.8250   16.3180   32.5230 N   0  0  0  0  0  0  0  0  0  0  0  0
   37.1440   16.3660   32.2780 C   0  0  0  0  0  0  0  0  0  0  0  0
   38.0800   15.3170   32.3000 C   0  0  0  0  0  0  0  0  0  0  0  0
   39.3940   15.6450   32.0040 C   0  0  0  0  0  0  0  0  0  0  0  0
   39.7310   16.9480   31.7070 C   0  0  0  0  0  0  0  0  0  0  0  0
   38.7720   17.9410   31.6990 C   0  0  0  0  0  0  0  0  0  0  0  0
   37.4670   17.6770   31.9810 C   0  0  0  0  0  0  0  0  0  0  0  0
   36.2270   23.7950   32.1780 O   0  0  0  0  0  0  0  0  0  0  0  0
   37.4100   24.5080   32.1270 C   0  0  0  0  0  0  0  0  0  0  0  0
   37.4320   25.2620   31.1600 O   0  0  0  0  0  0  0  0  0  0  0  0
   40.7720   24.3080   33.4270 C   0  0  0  0  0  0  0  0  0  0  0  0
   40.6320   24.1100   34.8030 C   0  0  0  0  0  0  0  0  0  0  0  0
   39.2810   24.0440   35.3040 C   0  0  0  0  0  0  0  0  0  0  0  0
   38.2520   24.1740   34.4280 N   0  0  0  0  0  0  0  0  0  0  0  0
   38.4740   24.3630   33.1040 C   0  0  0  0  0  0  0  0  0  0  0  0
   39.7450   24.4300   32.6000 N   0  0  0  0  0  0  0  0  0  0  0  0
   38.9910   23.8470   36.6820 N   0  0  0  0  0  0  0  0  0  0  0  0
   37.9200   24.4390   37.2520 C   0  0  0  0  0  0  0  0  0  0  0  0
   37.8250   24.1210   38.5710 N   0  0  0  0  0  0  0  0  0  0  0  0
   38.8790   23.3070   38.8020 C   0  0  0  0  0  0  0  0  0  0  0  0
   39.5730   23.1520   37.6480 N   0  0  0  0  0  0  0  0  0  0  0  0
   35.2203   22.3945   29.9599 H   0  0  0  0  0  0  0  0  0  0  0  0
   35.2207   19.9181   29.8707 H   0  0  0  0  0  0  0  0  0  0  0  0
   34.1707   17.7818   32.5539 H   0  0  0  0  0  0  0  0  0  0  0  0
   35.3218   15.4539   32.7700 H   0  0  0  0  0  0  0  0  0  0  0  0
   37.7838   14.2853   32.5406 H   0  0  0  0  0  0  0  0  0  0  0  0
   40.1688   14.8642   32.0062 H   0  0  0  0  0  0  0  0  0  0  0  0
   40.7761   17.1996   31.4737 H   0  0  0  0  0  0  0  0  0  0  0  0
   39.0703   18.9721   31.4585 H   0  0  0  0  0  0  0  0  0  0  0  0
   41.7879   24.3655   33.0090 H   0  0  0  0  0  0  0  0  0  0  0  0
   41.5032   24.0101   35.4670 H   0  0  0  0  0  0  0  0  0  0  0  0
   37.2153   25.0939   36.7187 H   0  0  0  0  0  0  0  0  0  0  0  0
   39.1321   22.8459   39.7681 H   0  0  0  0  0  0  0  0  0  0  0  0
  1 15  1  0
  1  5  1  0
  2  1  2  0
  3  2  1  0
  3  4  2  0
  4  6  1  0
  4  5  1  0
  6  7  2  0
  7  8  1  0
  9 10  2  0
  9  8  1  0
 11 10  1  0
 12 11  2  0
 13 12  1  0
 13 14  2  0
 14  6  1  0
 14  9  1  0
 16 15  1  0
 16 22  1  0
 17 16  2  0
 18 19  2  0
 19 20  1  0
 20 24  1  0
 21 20  2  0
 22 21  1  0
 23 22  2  0
 23 18  1  0
 24 25  1  0
 24 28  1  0
 25 26  2  0
 26 27  1  0
 28 27  2  0
  2 29  1  0
  3 30  1  0
  7 31  1  0
  8 32  1  0
 10 33  1  0
 11 34  1  0
 12 35  1  0
 13 36  1  0
 18 37  1  0
 19 38  1  0
 25 39  1  0
 27 40  1  0
M  ISO  8  29  14  30  14  31  14  32   9  33  14  34  14  35  14  36  14
M  ISO  4  37  14  38  14  39  14  40  14
M  END
>  <minimizedAffinity>  (1) 
-5.38718224

>  <minimizedRMSD>  (1) 
4.01131821

$$$$
