
     RDKit          3D

 37 40  0  0  0  0  0  0  0  0999 V2000
   36.7820   21.0030   32.8340 C   0  0  0  0  0  0  0  0  0  0  0  0
   35.7340   21.0200   32.0190 C   0  0  0  0  0  0  0  0  0  0  0  0
   35.7610   20.4740   30.7730 C   0  0  0  0  0  0  0  0  0  0  0  0
   36.9610   19.8980   30.4140 C   0  0  0  0  0  0  0  0  0  0  0  0
   38.0720   20.1400   31.8820 S   0  0  0  0  0  0  0  0  0  0  0  0
   37.3310   19.2230   29.1400 C   0  0  0  0  0  0  0  0  0  0  0  0
   36.7060   18.1050   28.6530 C   0  0  0  0  0  0  0  0  0  0  0  0
   37.3640   17.8630   27.5050 N   0  0  0  0  0  0  0  0  0  0  0  0
   38.3380   18.7560   27.2720 C   0  0  0  0  0  0  0  0  0  0  0  0
   39.2270   18.8240   26.1830 C   0  0  0  0  0  0  0  0  0  0  0  0
   40.1450   19.8600   26.1910 C   0  0  0  0  0  0  0  0  0  0  0  0
   40.1590   20.7650   27.2310 C   0  0  0  0  0  0  0  0  0  0  0  0
   39.2600   20.6520   28.2780 C   0  0  0  0  0  0  0  0  0  0  0  0
   38.3370   19.6530   28.3230 C   0  0  0  0  0  0  0  0  0  0  0  0
   37.0030   21.4680   34.0970 O   0  0  0  0  0  0  0  0  0  0  0  0
   37.7760   22.5710   34.4030 C   0  0  0  0  0  0  0  0  0  0  0  0
   37.8490   23.3370   33.4480 O   0  0  0  0  0  0  0  0  0  0  0  0
   40.2170   22.2160   37.0490 C   0  0  0  0  0  0  0  0  0  0  0  0
   39.7380   23.0280   38.0950 C   0  0  0  0  0  0  0  0  0  0  0  0
   38.5160   23.7190   37.8570 C   0  0  0  0  0  0  0  0  0  0  0  0
   37.8990   23.5610   36.6620 N   0  0  0  0  0  0  0  0  0  0  0  0
   38.4080   22.7680   35.6960 C   0  0  0  0  0  0  0  0  0  0  0  0
   39.5780   22.0900   35.8930 N   0  0  0  0  0  0  0  0  0  0  0  0
   37.9200   24.6020   38.8920 C   0  0  0  0  0  0  0  0  0  0  0  0
   34.8047   21.4956   32.3657 H   0  0  0  0  0  0  0  0  0  0  0  0
   34.8897   20.4909   30.1017 H   0  0  0  0  0  0  0  0  0  0  0  0
   35.8697   17.5424   29.0936 H   0  0  0  0  0  0  0  0  0  0  0  0
   37.1444   17.0788   26.8744 H   0  0  0  0  0  0  0  0  0  0  0  0
   39.1939   18.0893   25.3650 H   0  0  0  0  0  0  0  0  0  0  0  0
   40.8650   19.9615   25.3656 H   0  0  0  0  0  0  0  0  0  0  0  0
   40.8919   21.5853   27.2290 H   0  0  0  0  0  0  0  0  0  0  0  0
   39.2927   21.3886   29.0943 H   0  0  0  0  0  0  0  0  0  0  0  0
   41.1575   21.6647   37.1960 H   0  0  0  0  0  0  0  0  0  0  0  0
   40.2802   23.1236   39.0473 H   0  0  0  0  0  0  0  0  0  0  0  0
   38.1772   24.2210   39.8913 H   0  0  0  0  0  0  0  0  0  0  0  0
   38.3152   25.6220   38.7756 H   0  0  0  0  0  0  0  0  0  0  0  0
   36.8263   24.6170   38.7756 H   0  0  0  0  0  0  0  0  0  0  0  0
  1 15  1  0
  2  1  2  0
  3  2  1  0
  4  3  2  0
  4  5  1  0
  5  1  1  0
  6  4  1  0
  7  6  2  0
  8  7  1  0
  9  8  1  0
  9 14  2  0
 10 11  2  0
 10  9  1  0
 11 12  1  0
 12 13  2  0
 13 14  1  0
 14  6  1  0
 15 16  1  0
 16 22  1  0
 17 16  2  0
 18 19  2  0
 20 19  1  0
 20 24  1  0
 21 20  2  0
 22 23  2  0
 22 21  1  0
 23 18  1  0
  2 25  1  0
  3 26  1  0
  7 27  1  0
  8 28  1  0
 10 29  1  0
 11 30  1  0
 12 31  1  0
 13 32  1  0
 18 33  1  0
 19 34  1  0
 24 35  1  0
 24 36  1  0
 24 37  1  0
M  ISO  8  25  14  26  14  27  14  28   9  29  14  30  14  31  14  32  14
M  ISO  5  33  14  34  14  35   8  36   8  37   8
M  END
>  <minimizedAffinity>  (1) 
-4.67848539

>  <minimizedRMSD>  (1) 
0.516147554

$$$$
