
     RDKit          3D

 43 46  0  0  0  0  0  0  0  0999 V2000
   36.9780   20.5960   31.4840 C   0  0  0  0  0  0  0  0  0  0  0  0
   38.2810   20.6090   31.7500 C   0  0  0  0  0  0  0  0  0  0  0  0
   38.8000   21.3490   32.7650 C   0  0  0  0  0  0  0  0  0  0  0  0
   37.8940   22.0800   33.4950 C   0  0  0  0  0  0  0  0  0  0  0  0
   36.2450   21.7120   32.7220 S   0  0  0  0  0  0  0  0  0  0  0  0
   38.1360   22.9850   34.6570 C   0  0  0  0  0  0  0  0  0  0  0  0
   38.4920   22.5430   35.9090 C   0  0  0  0  0  0  0  0  0  0  0  0
   38.5970   23.6920   36.6090 N   0  0  0  0  0  0  0  0  0  0  0  0
   38.3310   24.7780   35.8650 C   0  0  0  0  0  0  0  0  0  0  0  0
   38.3430   26.1210   36.2580 C   0  0  0  0  0  0  0  0  0  0  0  0
   38.0230   27.0590   35.2760 C   0  0  0  0  0  0  0  0  0  0  0  0
   37.7160   26.6470   33.9920 C   0  0  0  0  0  0  0  0  0  0  0  0
   37.7240   25.2980   33.6750 C   0  0  0  0  0  0  0  0  0  0  0  0
   38.0260   24.3450   34.5900 C   0  0  0  0  0  0  0  0  0  0  0  0
   36.2090   19.9610   30.5520 O   0  0  0  0  0  0  0  0  0  0  0  0
   36.6240   18.8800   29.7960 C   0  0  0  0  0  0  0  0  0  0  0  0
   36.5730   17.8390   30.4430 O   0  0  0  0  0  0  0  0  0  0  0  0
   38.8750   19.3620   27.0110 C   0  0  0  0  0  0  0  0  0  0  0  0
   38.0780   19.2400   25.8640 C   0  0  0  0  0  0  0  0  0  0  0  0
   36.6760   18.9750   26.0830 C   0  0  0  0  0  0  0  0  0  0  0  0
   36.2380   18.8640   27.3600 N   0  0  0  0  0  0  0  0  0  0  0  0
   37.0570   18.9920   28.4170 C   0  0  0  0  0  0  0  0  0  0  0  0
   38.3890   19.2440   28.2410 N   0  0  0  0  0  0  0  0  0  0  0  0
   35.7070   18.8200   24.9670 C   0  0  0  0  0  0  0  0  0  0  0  0
   35.2070   20.2130   24.6070 C   0  0  0  0  0  0  0  0  0  0  0  0
   34.5260   17.9740   25.3420 C   0  0  0  0  0  0  0  0  0  0  0  0
   38.9585   20.0031   31.1304 H   0  0  0  0  0  0  0  0  0  0  0  0
   39.8771   21.3619   32.9880 H   0  0  0  0  0  0  0  0  0  0  0  0
   38.6514   21.5108   36.2541 H   0  0  0  0  0  0  0  0  0  0  0  0
   38.8534   23.7318   37.6058 H   0  0  0  0  0  0  0  0  0  0  0  0
   38.5916   26.4212   37.2866 H   0  0  0  0  0  0  0  0  0  0  0  0
   38.0149   28.1306   35.5241 H   0  0  0  0  0  0  0  0  0  0  0  0
   37.4652   27.3909   33.2215 H   0  0  0  0  0  0  0  0  0  0  0  0
   37.4774   24.9909   32.6479 H   0  0  0  0  0  0  0  0  0  0  0  0
   39.9491   19.5642   26.8866 H   0  0  0  0  0  0  0  0  0  0  0  0
   38.4981   19.3407   24.8524 H   0  0  0  0  0  0  0  0  0  0  0  0
   36.2151   18.3211   24.1286 H   0  0  0  0  0  0  0  0  0  0  0  0
   35.0038   20.7790   25.5280 H   0  0  0  0  0  0  0  0  0  0  0  0
   35.9734   20.7364   24.0165 H   0  0  0  0  0  0  0  0  0  0  0  0
   34.2827   20.1296   24.0165 H   0  0  0  0  0  0  0  0  0  0  0  0
   34.4481   17.9182   26.4378 H   0  0  0  0  0  0  0  0  0  0  0  0
   33.6090   18.4219   24.9316 H   0  0  0  0  0  0  0  0  0  0  0  0
   34.6550   16.9616   24.9316 H   0  0  0  0  0  0  0  0  0  0  0  0
  1  2  2  0
  1  5  1  0
  2  3  1  0
  3  4  2  0
  4  6  1  0
  5  4  1  0
  6  7  2  0
  7  8  1  0
  9 10  2  0
  9  8  1  0
 11 10  1  0
 12 11  2  0
 13 12  1  0
 13 14  2  0
 14  6  1  0
 14  9  1  0
 15  1  1  0
 16 17  2  0
 16 15  1  0
 18 23  2  0
 19 20  2  0
 19 18  1  0
 20 21  1  0
 21 22  2  0
 22 16  1  0
 23 22  1  0
 24 26  1  0
 24 20  1  0
 25 24  1  0
  2 27  1  0
  3 28  1  0
  7 29  1  0
  8 30  1  0
 10 31  1  0
 11 32  1  0
 12 33  1  0
 13 34  1  0
 18 35  1  0
 19 36  1  0
 24 37  1  0
 25 38  1  0
 25 39  1  0
 25 40  1  0
 26 41  1  0
 26 42  1  0
 26 43  1  0
M  ISO  8  27  14  28  14  29  14  30   9  31  14  32  14  33  14  34  14
M  ISO  8  35  14  36  14  37   8  38   8  39   8  40   8  41   8  42   8
M  ISO  1  43   8
M  END
>  <minimizedAffinity>  (1) 
-5.10529661

>  <minimizedRMSD>  (1) 
9.61173058

$$$$
