
     RDKit          3D

 32 34  0  0  0  0  0  0  0  0999 V2000
   39.0350   26.1360   34.6230 C   0  0  0  0  0  0  0  0  0  0  0  0
   38.0900   27.0610   33.9730 C   0  0  0  0  0  0  0  0  0  0  0  0
   37.1120   27.6070   34.8070 C   0  0  0  0  0  0  0  0  0  0  0  0
   36.1380   28.4810   34.3710 C   0  0  0  0  0  0  0  0  0  0  0  0
   36.1000   28.8600   33.0340 C   0  0  0  0  0  0  0  0  0  0  0  0
   37.0650   28.3230   32.2040 C   0  0  0  0  0  0  0  0  0  0  0  0
   37.0630   28.6790   30.8670 C   0  0  0  0  0  0  0  0  0  0  0  0
   38.0480   28.1250   30.0600 C   0  0  0  0  0  0  0  0  0  0  0  0
   39.0240   27.2490   30.5010 C   0  0  0  0  0  0  0  0  0  0  0  0
   39.0060   26.9070   31.8430 C   0  0  0  0  0  0  0  0  0  0  0  0
   38.0340   27.4490   32.6540 C   0  0  0  0  0  0  0  0  0  0  0  0
   38.5850   24.7070   34.6770 C   0  0  0  0  0  0  0  0  0  0  0  0
   39.7310   22.8280   37.6990 C   0  0  0  0  0  0  0  0  0  0  0  0
   38.8750   23.3380   38.6860 C   0  0  0  0  0  0  0  0  0  0  0  0
   37.9110   24.3210   38.3220 C   0  0  0  0  0  0  0  0  0  0  0  0
   37.9020   24.6940   37.0000 N   0  0  0  0  0  0  0  0  0  0  0  0
   38.7370   24.1810   36.0910 C   0  0  0  0  0  0  0  0  0  0  0  0
   39.6400   23.2640   36.4230 N   0  0  0  0  0  0  0  0  0  0  0  0
   39.1969   26.4822   35.6545 H   0  0  0  0  0  0  0  0  0  0  0  0
   39.9486   26.1483   34.0105 H   0  0  0  0  0  0  0  0  0  0  0  0
   37.1187   27.3246   35.8701 H   0  0  0  0  0  0  0  0  0  0  0  0
   35.3943   28.8765   35.0784 H   0  0  0  0  0  0  0  0  0  0  0  0
   35.3368   29.5554   32.6545 H   0  0  0  0  0  0  0  0  0  0  0  0
   36.3121   29.3723   30.4601 H   0  0  0  0  0  0  0  0  0  0  0  0
   38.0526   28.4020   28.9955 H   0  0  0  0  0  0  0  0  0  0  0  0
   39.7816   26.8417   29.8153 H   0  0  0  0  0  0  0  0  0  0  0  0
   39.7552   26.2143   32.2539 H   0  0  0  0  0  0  0  0  0  0  0  0
   37.5295   24.6435   34.3739 H   0  0  0  0  0  0  0  0  0  0  0  0
   39.2003   24.1033   33.9937 H   0  0  0  0  0  0  0  0  0  0  0  0
   40.4810   22.0685   37.9650 H   0  0  0  0  0  0  0  0  0  0  0  0
   38.9471   22.9842   39.7251 H   0  0  0  0  0  0  0  0  0  0  0  0
   37.2156   24.7554   39.0553 H   0  0  0  0  0  0  0  0  0  0  0  0
  1 12  1  0
  2  1  1  0
  2  3  2  0
  4  3  1  0
  5  4  2  0
  6 11  2  0
  6  5  1  0
  7  6  1  0
  8  9  1  0
  8  7  2  0
  9 10  2  0
 10 11  1  0
 11  2  1  0
 12 17  1  0
 13 14  2  0
 15 14  1  0
 16 15  2  0
 17 18  2  0
 17 16  1  0
 18 13  1  0
  1 19  1  0
  1 20  1  0
  3 21  1  0
  4 22  1  0
  5 23  1  0
  7 24  1  0
  8 25  1  0
  9 26  1  0
 10 27  1  0
 12 28  1  0
 12 29  1  0
 13 30  1  0
 14 31  1  0
 15 32  1  0
M  ISO  8  19   8  20   8  21  14  22  14  23  14  24  14  25  14  26  14
M  ISO  6  27  14  28   8  29   8  30  14  31  14  32  14
M  END
>  <minimizedAffinity>  (1) 
-5.21076107

>  <minimizedRMSD>  (1) 
2.54615927

$$$$
