
     RDKit          3D

 38 41  0  0  0  0  0  0  0  0999 V2000
   36.8900   21.7160   35.2120 C   0  0  0  0  0  0  0  0  0  0  0  0
   35.8060   20.9730   35.0340 C   0  0  0  0  0  0  0  0  0  0  0  0
   35.6310   20.2900   33.8740 C   0  0  0  0  0  0  0  0  0  0  0  0
   36.6100   20.4110   32.9340 C   0  0  0  0  0  0  0  0  0  0  0  0
   37.8640   21.5400   33.6800 S   0  0  0  0  0  0  0  0  0  0  0  0
   36.7060   19.7890   31.5680 C   0  0  0  0  0  0  0  0  0  0  0  0
   35.8670   18.7540   31.1550 C   0  0  0  0  0  0  0  0  0  0  0  0
   36.2950   18.5150   29.9040 N   0  0  0  0  0  0  0  0  0  0  0  0
   37.3030   19.3160   29.5560 C   0  0  0  0  0  0  0  0  0  0  0  0
   38.0070   19.3580   28.3300 C   0  0  0  0  0  0  0  0  0  0  0  0
   39.0250   20.2960   28.2240 C   0  0  0  0  0  0  0  0  0  0  0  0
   39.3130   21.1340   29.2840 C   0  0  0  0  0  0  0  0  0  0  0  0
   38.5890   21.0430   30.4590 C   0  0  0  0  0  0  0  0  0  0  0  0
   37.5840   20.1500   30.6240 C   0  0  0  0  0  0  0  0  0  0  0  0
   37.3640   22.5090   36.2290 O   0  0  0  0  0  0  0  0  0  0  0  0
   38.3590   23.4520   36.1100 C   0  0  0  0  0  0  0  0  0  0  0  0
   39.4430   22.9980   36.4730 O   0  0  0  0  0  0  0  0  0  0  0  0
   38.2630   27.0560   36.1390 C   0  0  0  0  0  0  0  0  0  0  0  0
   37.7700   27.4230   34.8680 C   0  0  0  0  0  0  0  0  0  0  0  0
   37.4660   26.3610   33.9860 C   0  0  0  0  0  0  0  0  0  0  0  0
   37.6620   25.0810   34.4000 N   0  0  0  0  0  0  0  0  0  0  0  0
   38.1320   24.7970   35.6190 C   0  0  0  0  0  0  0  0  0  0  0  0
   38.4410   25.7920   36.5090 N   0  0  0  0  0  0  0  0  0  0  0  0
   36.9590   26.6680   32.6710 C   0  0  0  0  0  0  0  0  0  0  0  0
   36.1520   27.6090   32.4940 O   0  0  0  0  0  0  0  0  0  0  0  0
   37.3810   25.8870   31.5590 N   0  0  0  0  0  0  0  0  0  0  0  0
   35.0472   20.9101   35.8279 H   0  0  0  0  0  0  0  0  0  0  0  0
   34.7405   19.6679   33.7009 H   0  0  0  0  0  0  0  0  0  0  0  0
   35.0588   18.2584   31.7128 H   0  0  0  0  0  0  0  0  0  0  0  0
   35.8916   17.7968   29.2857 H   0  0  0  0  0  0  0  0  0  0  0  0
   37.7597   18.6798   27.5000 H   0  0  0  0  0  0  0  0  0  0  0  0
   39.6047   20.3723   27.2922 H   0  0  0  0  0  0  0  0  0  0  0  0
   40.1203   21.8756   29.1932 H   0  0  0  0  0  0  0  0  0  0  0  0
   38.8383   21.7201   31.2893 H   0  0  0  0  0  0  0  0  0  0  0  0
   38.5111   27.8526   36.8558 H   0  0  0  0  0  0  0  0  0  0  0  0
   37.6304   28.4755   34.5804 H   0  0  0  0  0  0  0  0  0  0  0  0
   37.0245   26.0986   30.6161 H   0  0  0  0  0  0  0  0  0  0  0  0
   38.0430   25.1101   31.6969 H   0  0  0  0  0  0  0  0  0  0  0  0
  1 15  1  0
  2  1  2  0
  3  2  1  0
  4  5  1  0
  4  3  2  0
  5  1  1  0
  6  4  1  0
  7  6  2  0
  8  7  1  0
  9  8  1  0
  9 14  2  0
 10  9  1  0
 11 10  2  0
 11 12  1  0
 12 13  2  0
 13 14  1  0
 14  6  1  0
 16 15  1  0
 16 17  2  0
 18 23  2  0
 19 18  1  0
 20 21  1  0
 20 19  2  0
 21 22  2  0
 22 16  1  0
 22 23  1  0
 24 20  1  0
 25 24  2  0
 26 24  1  0
  2 27  1  0
  3 28  1  0
  7 29  1  0
  8 30  1  0
 10 31  1  0
 11 32  1  0
 12 33  1  0
 13 34  1  0
 18 35  1  0
 19 36  1  0
 26 37  1  0
 26 38  1  0
M  ISO  8  27  14  28  14  29  14  30   9  31  14  32  14  33  14  34  14
M  ISO  2  35  14  36  14
M  END
>  <minimizedAffinity>  (1) 
-5.14984894

>  <minimizedRMSD>  (1) 
0.0115717947

$$$$
