
     RDKit          3D

 26 27  0  0  0  0  0  0  0  0999 V2000
   37.6020   25.4450   35.9190 C   0  0  0  0  0  0  0  0  0  0  0  0
   40.4430   23.0860   36.3640 C   0  0  0  0  0  0  0  0  0  0  0  0
   40.2460   22.6230   37.6900 C   0  0  0  0  0  0  0  0  0  0  0  0
   39.1260   23.1460   38.3990 C   0  0  0  0  0  0  0  0  0  0  0  0
   38.3190   24.0500   37.7660 N   0  0  0  0  0  0  0  0  0  0  0  0
   38.5680   24.4460   36.4990 C   0  0  0  0  0  0  0  0  0  0  0  0
   39.6080   23.9730   35.8150 N   0  0  0  0  0  0  0  0  0  0  0  0
   38.2600   26.7830   35.7760 C   0  0  0  0  0  0  0  0  0  0  0  0
   37.7370   27.3720   34.4920 C   0  0  0  0  0  0  0  0  0  0  0  0
   38.4480   27.0850   33.3430 C   0  0  0  0  0  0  0  0  0  0  0  0
   37.9580   27.6330   32.1640 C   0  0  0  0  0  0  0  0  0  0  0  0
   36.8210   28.4110   32.1920 C   0  0  0  0  0  0  0  0  0  0  0  0
   36.1480   28.6640   33.3880 C   0  0  0  0  0  0  0  0  0  0  0  0
   36.5870   28.1500   34.5730 C   0  0  0  0  0  0  0  0  0  0  0  0
   37.2700   25.0965   34.9299 H   0  0  0  0  0  0  0  0  0  0  0  0
   36.7390   25.5414   36.5942 H   0  0  0  0  0  0  0  0  0  0  0  0
   41.2953   22.7096   35.7792 H   0  0  0  0  0  0  0  0  0  0  0  0
   40.9275   21.8927   38.1507 H   0  0  0  0  0  0  0  0  0  0  0  0
   38.9157   22.8298   39.4314 H   0  0  0  0  0  0  0  0  0  0  0  0
   37.9987   27.4296   36.6267 H   0  0  0  0  0  0  0  0  0  0  0  0
   39.3560   26.6914   35.7584 H   0  0  0  0  0  0  0  0  0  0  0  0
   39.3515   26.4578   33.3605 H   0  0  0  0  0  0  0  0  0  0  0  0
   38.4759   27.4465   31.2116 H   0  0  0  0  0  0  0  0  0  0  0  0
   36.4370   28.8403   31.2548 H   0  0  0  0  0  0  0  0  0  0  0  0
   35.2444   29.2912   33.3750 H   0  0  0  0  0  0  0  0  0  0  0  0
   36.0684   28.3375   35.5248 H   0  0  0  0  0  0  0  0  0  0  0  0
  1  6  1  0
  2  3  2  0
  3  4  1  0
  5  4  2  0
  6  5  1  0
  7  2  1  0
  7  6  2  0
  8  1  1  0
  9 14  1  0
  9  8  1  0
 10  9  2  0
 11 12  2  0
 11 10  1  0
 12 13  1  0
 13 14  2  0
  1 15  1  0
  1 16  1  0
  2 17  1  0
  3 18  1  0
  4 19  1  0
  8 20  1  0
  8 21  1  0
 10 22  1  0
 11 23  1  0
 12 24  1  0
 13 25  1  0
 14 26  1  0
M  ISO  8  15   8  16   8  17  14  18  14  19  14  20   8  21   8  22  14
M  ISO  4  23  14  24  14  25  14  26  14
M  END
>  <minimizedAffinity>  (1) 
-4.33904028

>  <minimizedRMSD>  (1) 
1.3014046

$$$$
