
     RDKit          3D

 23 23  0  0  0  0  0  0  0  0999 V2000
   38.1140   23.9090   38.5420 C   0  0  0  0  0  0  0  0  0  0  0  0
   37.8040   24.5020   37.3090 C   0  0  0  0  0  0  0  0  0  0  0  0
   38.5870   24.2170   36.1990 C   0  0  0  0  0  0  0  0  0  0  0  0
   39.6370   23.3610   36.3630 N   0  0  0  0  0  0  0  0  0  0  0  0
   39.9150   22.8020   37.5600 C   0  0  0  0  0  0  0  0  0  0  0  0
   39.1670   23.0700   38.6380 N   0  0  0  0  0  0  0  0  0  0  0  0
   38.2380   24.9410   34.6140 S   0  0  0  0  0  0  0  0  0  0  0  0
   38.6670   26.6600   34.4600 C   0  0  0  0  0  0  0  0  0  0  0  0
   37.8750   27.5980   35.3310 C   0  0  0  0  0  0  0  0  0  0  0  0
   38.6190   27.1810   33.0430 C   0  0  0  0  0  0  0  0  0  0  0  0
   40.1370   26.7880   34.8770 C   0  0  0  0  0  0  0  0  0  0  0  0
   37.5004   24.1272   39.4285 H   0  0  0  0  0  0  0  0  0  0  0  0
   36.9477   25.1870   37.2226 H   0  0  0  0  0  0  0  0  0  0  0  0
   40.7696   22.1154   37.6513 H   0  0  0  0  0  0  0  0  0  0  0  0
   38.0692   27.3680   36.3890 H   0  0  0  0  0  0  0  0  0  0  0  0
   38.1747   28.6352   35.1203 H   0  0  0  0  0  0  0  0  0  0  0  0
   36.8023   27.4763   35.1203 H   0  0  0  0  0  0  0  0  0  0  0  0
   38.5181   28.2763   33.0583 H   0  0  0  0  0  0  0  0  0  0  0  0
   39.5463   26.9055   32.5194 H   0  0  0  0  0  0  0  0  0  0  0  0
   37.7576   26.7407   32.5194 H   0  0  0  0  0  0  0  0  0  0  0  0
   40.2075   26.7941   35.9747 H   0  0  0  0  0  0  0  0  0  0  0  0
   40.7069   25.9361   34.4777 H   0  0  0  0  0  0  0  0  0  0  0  0
   40.5511   27.7256   34.4777 H   0  0  0  0  0  0  0  0  0  0  0  0
  1  6  2  0
  2  1  1  0
  3  4  1  0
  3  2  2  0
  4  5  2  0
  5  6  1  0
  7  3  1  0
  8  7  1  0
  8 11  1  0
  8  9  1  0
 10  8  1  0
  1 12  1  0
  2 13  1  0
  5 14  1  0
  9 15  1  0
  9 16  1  0
  9 17  1  0
 10 18  1  0
 10 19  1  0
 10 20  1  0
 11 21  1  0
 11 22  1  0
 11 23  1  0
M  ISO  8  12  14  13  14  14  14  15   8  16   8  17   8  18   8  19   8
M  ISO  4  20   8  21   8  22   8  23   8
M  END
>  <minimizedAffinity>  (1) 
-3.63486052

>  <minimizedRMSD>  (1) 
3.64504957

$$$$
