
     RDKit          3D

 29 30  0  0  0  0  0  0  0  0999 V2000
   37.6450   25.6620   35.8230 C   0  0  0  0  0  0  0  0  0  0  0  0
   40.2540   23.0860   36.4990 C   0  0  0  0  0  0  0  0  0  0  0  0
   39.9300   22.6830   37.8170 C   0  0  0  0  0  0  0  0  0  0  0  0
   38.8290   23.3040   38.4360 C   0  0  0  0  0  0  0  0  0  0  0  0
   38.1400   24.2600   37.7240 N   0  0  0  0  0  0  0  0  0  0  0  0
   38.4860   24.6070   36.4740 C   0  0  0  0  0  0  0  0  0  0  0  0
   39.5230   24.0330   35.8730 N   0  0  0  0  0  0  0  0  0  0  0  0
   38.2980   27.0070   35.9580 C   0  0  0  0  0  0  0  0  0  0  0  0
   38.0020   27.7790   34.6840 C   0  0  0  0  0  0  0  0  0  0  0  0
   38.3680   27.0160   33.4520 C   0  0  0  0  0  0  0  0  0  0  0  0
   37.3340   27.3740   32.3960 C   0  0  0  0  0  0  0  0  0  0  0  0
   36.4490   28.4130   33.0470 C   0  0  0  0  0  0  0  0  0  0  0  0
   36.5190   28.0010   34.5020 C   0  0  0  0  0  0  0  0  0  0  0  0
   36.6574   25.6881   36.3066 H   0  0  0  0  0  0  0  0  0  0  0  0
   37.5358   25.4233   34.7548 H   0  0  0  0  0  0  0  0  0  0  0  0
   41.1076   22.6242   35.9812 H   0  0  0  0  0  0  0  0  0  0  0  0
   40.5173   21.9127   38.3382 H   0  0  0  0  0  0  0  0  0  0  0  0
   38.5278   23.0334   39.4588 H   0  0  0  0  0  0  0  0  0  0  0  0
   37.8855   27.5409   36.8268 H   0  0  0  0  0  0  0  0  0  0  0  0
   39.3826   26.9015   36.1080 H   0  0  0  0  0  0  0  0  0  0  0  0
   38.5797   28.7083   34.7969 H   0  0  0  0  0  0  0  0  0  0  0  0
   39.3735   27.3043   33.1117 H   0  0  0  0  0  0  0  0  0  0  0  0
   38.3795   25.9331   33.6448 H   0  0  0  0  0  0  0  0  0  0  0  0
   36.7463   26.4876   32.1149 H   0  0  0  0  0  0  0  0  0  0  0  0
   37.8004   27.7498   31.4734 H   0  0  0  0  0  0  0  0  0  0  0  0
   36.8447   29.4284   32.8975 H   0  0  0  0  0  0  0  0  0  0  0  0
   35.4276   28.4503   32.6403 H   0  0  0  0  0  0  0  0  0  0  0  0
   36.1484   28.7982   35.1632 H   0  0  0  0  0  0  0  0  0  0  0  0
   35.9018   27.1247   34.7491 H   0  0  0  0  0  0  0  0  0  0  0  0
  1  8  1  0
  1  6  1  0
  2  3  2  0
  3  4  1  0
  5  4  2  0
  6  5  1  0
  7  6  2  0
  7  2  1  0
  9  8  1  0
 10  9  1  0
 11 12  1  0
 11 10  1  0
 12 13  1  0
 13  9  1  0
  1 14  1  0
  1 15  1  0
  2 16  1  0
  3 17  1  0
  4 18  1  0
  8 19  1  0
  8 20  1  0
  9 21  1  0
 10 22  1  0
 10 23  1  0
 11 24  1  0
 11 25  1  0
 12 26  1  0
 12 27  1  0
 13 28  1  0
 13 29  1  0
M  ISO  8  14   8  15   8  16  14  17  14  18  14  19   8  20   8  21  13
M  ISO  8  22  13  23  13  24  13  25  13  26  13  27  13  28  13  29  13
M  END
>  <minimizedAffinity>  (1) 
-4.0412035

>  <minimizedRMSD>  (1) 
0.725867748

$$$$
