
     RDKit          3D

 24 25  0  0  0  0  0  0  0  0999 V2000
   38.5300   25.6290   35.0080 C   0  0  0  0  0  0  0  0  0  0  0  0
   39.6230   22.9250   37.3100 C   0  0  0  0  0  0  0  0  0  0  0  0
   38.8500   23.1860   38.4700 C   0  0  0  0  0  0  0  0  0  0  0  0
   37.9650   24.3020   38.4230 C   0  0  0  0  0  0  0  0  0  0  0  0
   37.9240   25.0430   37.2590 N   0  0  0  0  0  0  0  0  0  0  0  0
   38.6820   24.7400   36.1980 C   0  0  0  0  0  0  0  0  0  0  0  0
   39.5150   23.7000   36.2270 N   0  0  0  0  0  0  0  0  0  0  0  0
   37.8330   26.8980   35.3840 C   0  0  0  0  0  0  0  0  0  0  0  0
   36.9960   27.3780   34.2710 C   0  0  0  0  0  0  0  0  0  0  0  0
   36.2120   28.5180   34.3470 C   0  0  0  0  0  0  0  0  0  0  0  0
   35.4280   28.9720   33.3060 C   0  0  0  0  0  0  0  0  0  0  0  0
   35.4270   28.2560   32.1460 N   0  0  0  0  0  0  0  0  0  0  0  0
   36.1830   27.1420   32.0480 C   0  0  0  0  0  0  0  0  0  0  0  0
   36.9370   26.7320   33.0910 N   0  0  0  0  0  0  0  0  0  0  0  0
   37.9408   25.1069   34.2397 H   0  0  0  0  0  0  0  0  0  0  0  0
   39.5292   25.8751   34.6194 H   0  0  0  0  0  0  0  0  0  0  0  0
   40.3200   22.0741   37.3018 H   0  0  0  0  0  0  0  0  0  0  0  0
   38.9301   22.5544   39.3671 H   0  0  0  0  0  0  0  0  0  0  0  0
   37.3352   24.5643   39.2859 H   0  0  0  0  0  0  0  0  0  0  0  0
   37.1965   26.7146   36.2622 H   0  0  0  0  0  0  0  0  0  0  0  0
   38.5887   27.6630   35.6155 H   0  0  0  0  0  0  0  0  0  0  0  0
   36.2147   29.0909   35.2860 H   0  0  0  0  0  0  0  0  0  0  0  0
   34.8221   29.8843   33.4092 H   0  0  0  0  0  0  0  0  0  0  0  0
   36.1850   26.5640   31.1121 H   0  0  0  0  0  0  0  0  0  0  0  0
  1  8  1  0
  1  6  1  0
  2  3  2  0
  4  3  1  0
  5  4  2  0
  6  7  2  0
  6  5  1  0
  7  2  1  0
  9 10  2  0
  9  8  1  0
 11 10  1  0
 12 11  2  0
 13 12  1  0
 13 14  2  0
 14  9  1  0
  1 15  1  0
  1 16  1  0
  2 17  1  0
  3 18  1  0
  4 19  1  0
  8 20  1  0
  8 21  1  0
 10 22  1  0
 11 23  1  0
 13 24  1  0
M  ISO  8  15   8  16   8  17  14  18  14  19  14  20   8  21   8  22  14
M  ISO  2  23  14  24  14
M  END
>  <minimizedAffinity>  (1) 
-4.03010416

>  <minimizedRMSD>  (1) 
1.63871884

$$$$
