
     RDKit          3D

 26 27  0  0  0  0  0  0  0  0999 V2000
   38.5260   24.5650   34.6780 C   0  0  0  0  0  0  0  0  0  0  0  0
   39.7650   22.8210   37.7380 C   0  0  0  0  0  0  0  0  0  0  0  0
   38.9010   23.3470   38.7190 C   0  0  0  0  0  0  0  0  0  0  0  0
   37.9150   24.2780   38.3470 C   0  0  0  0  0  0  0  0  0  0  0  0
   37.8550   24.6240   37.0150 N   0  0  0  0  0  0  0  0  0  0  0  0
   38.7090   24.0920   36.1040 C   0  0  0  0  0  0  0  0  0  0  0  0
   39.6370   23.2130   36.4690 N   0  0  0  0  0  0  0  0  0  0  0  0
   39.0480   25.9760   34.5620 C   0  0  0  0  0  0  0  0  0  0  0  0
   38.0770   26.9090   34.0910 N   0  0  0  0  0  0  0  0  0  0  0  0
   37.1450   27.4830   34.8690 C   0  0  0  0  0  0  0  0  0  0  0  0
   36.2460   28.3770   34.3210 C   0  0  0  0  0  0  0  0  0  0  0  0
   36.2690   28.7080   32.9820 C   0  0  0  0  0  0  0  0  0  0  0  0
   35.4870   29.5090   32.4120 O   0  0  0  0  0  0  0  0  0  0  0  0
   37.2120   28.1190   32.2240 N   0  0  0  0  0  0  0  0  0  0  0  0
   38.0770   27.2540   32.7700 C   0  0  0  0  0  0  0  0  0  0  0  0
   38.9490   26.7280   31.9990 O   0  0  0  0  0  0  0  0  0  0  0  0
   39.0845   23.9071   33.9959 H   0  0  0  0  0  0  0  0  0  0  0  0
   37.4596   24.5382   34.4097 H   0  0  0  0  0  0  0  0  0  0  0  0
   40.5401   22.0919   38.0166 H   0  0  0  0  0  0  0  0  0  0  0  0
   38.9972   23.0316   39.7684 H   0  0  0  0  0  0  0  0  0  0  0  0
   37.2236   24.7100   39.0855 H   0  0  0  0  0  0  0  0  0  0  0  0
   39.3904   26.3025   35.5550 H   0  0  0  0  0  0  0  0  0  0  0  0
   39.8623   25.9581   33.8226 H   0  0  0  0  0  0  0  0  0  0  0  0
   37.0976   27.2415   35.9411 H   0  0  0  0  0  0  0  0  0  0  0  0
   35.4890   28.8389   34.9718 H   0  0  0  0  0  0  0  0  0  0  0  0
   37.2690   28.3344   31.2184 H   0  0  0  0  0  0  0  0  0  0  0  0
  1  6  1  0
  2  3  2  0
  4  3  1  0
  5  4  2  0
  6  7  2  0
  6  5  1  0
  7  2  1  0
  8  1  1  0
  9  8  1  0
  9 10  1  0
 11 10  2  0
 12 11  1  0
 13 12  2  0
 14 15  1  0
 14 12  1  0
 15  9  1  0
 16 15  2  0
  1 17  1  0
  1 18  1  0
  2 19  1  0
  3 20  1  0
  4 21  1  0
  8 22  1  0
  8 23  1  0
 10 24  1  0
 11 25  1  0
 14 26  1  0
M  ISO  8  17   8  18   8  19  14  20  14  21  14  22   8  23   8  24  14
M  ISO  2  25  14  26   9
M  END
>  <minimizedAffinity>  (1) 
-4.19647312

>  <minimizedRMSD>  (1) 
1.83508372

$$$$
