
     RDKit          3D

 23 24  0  0  0  0  0  0  0  0999 V2000
   37.6810   25.7130   35.7460 C   0  0  0  0  0  0  0  0  0  0  0  0
   40.0670   23.0040   36.6300 C   0  0  0  0  0  0  0  0  0  0  0  0
   39.7220   22.7260   37.9770 C   0  0  0  0  0  0  0  0  0  0  0  0
   38.6650   23.4910   38.5490 C   0  0  0  0  0  0  0  0  0  0  0  0
   38.0630   24.4380   37.7440 N   0  0  0  0  0  0  0  0  0  0  0  0
   38.4390   24.6500   36.4750 C   0  0  0  0  0  0  0  0  0  0  0  0
   39.4240   23.9420   35.9300 N   0  0  0  0  0  0  0  0  0  0  0  0
   38.4490   26.9970   35.7600 C   0  0  0  0  0  0  0  0  0  0  0  0
   39.5010   27.0380   34.7260 C   0  0  0  0  0  0  0  0  0  0  0  0
   39.0830   27.0690   33.4260 C   0  0  0  0  0  0  0  0  0  0  0  0
   40.2090   27.1050   32.6040 C   0  0  0  0  0  0  0  0  0  0  0  0
   41.2710   27.0930   33.4900 C   0  0  0  0  0  0  0  0  0  0  0  0
   40.8020   27.0530   34.7020 O   0  0  0  0  0  0  0  0  0  0  0  0
   36.7080   25.8662   36.2357 H   0  0  0  0  0  0  0  0  0  0  0  0
   37.5308   25.3959   34.7035 H   0  0  0  0  0  0  0  0  0  0  0  0
   40.8795   22.4364   36.1528 H   0  0  0  0  0  0  0  0  0  0  0  0
   40.2482   21.9525   38.5557 H   0  0  0  0  0  0  0  0  0  0  0  0
   38.3418   23.3339   39.5886 H   0  0  0  0  0  0  0  0  0  0  0  0
   37.7499   27.8280   35.5850 H   0  0  0  0  0  0  0  0  0  0  0  0
   38.9407   27.0815   36.7404 H   0  0  0  0  0  0  0  0  0  0  0  0
   38.0370   27.0661   33.0856 H   0  0  0  0  0  0  0  0  0  0  0  0
   40.2444   27.1358   31.5050 H   0  0  0  0  0  0  0  0  0  0  0  0
   42.3358   27.1138   33.2149 H   0  0  0  0  0  0  0  0  0  0  0  0
  1  8  1  0
  1  6  1  0
  2  3  2  0
  3  4  1  0
  5  4  2  0
  6  5  1  0
  7  6  2  0
  7  2  1  0
  9  8  1  0
 10  9  2  0
 11 10  1  0
 11 12  2  0
 12 13  1  0
 13  9  1  0
  1 14  1  0
  1 15  1  0
  2 16  1  0
  3 17  1  0
  4 18  1  0
  8 19  1  0
  8 20  1  0
 10 21  1  0
 11 22  1  0
 12 23  1  0
M  ISO  8  14   8  15   8  16  14  17  14  18  14  19   8  20   8  21  14
M  ISO  2  22  14  23  14
M  END
>  <minimizedAffinity>  (1) 
-3.92758918

>  <minimizedRMSD>  (1) 
0.767272294

$$$$
