
     RDKit          3D

 30 31  0  0  0  0  0  0  0  0999 V2000
   38.5660   24.2500   34.3320 C   0  0  0  0  0  0  0  0  0  0  0  0
   39.7320   22.8060   37.5760 C   0  0  0  0  0  0  0  0  0  0  0  0
   38.8360   23.3990   38.4720 C   0  0  0  0  0  0  0  0  0  0  0  0
   37.8490   24.2780   37.9730 C   0  0  0  0  0  0  0  0  0  0  0  0
   37.8350   24.4960   36.6220 N   0  0  0  0  0  0  0  0  0  0  0  0
   38.7230   23.9000   35.7850 C   0  0  0  0  0  0  0  0  0  0  0  0
   39.6510   23.0730   36.2540 N   0  0  0  0  0  0  0  0  0  0  0  0
   37.6740   25.4700   34.2020 C   0  0  0  0  0  0  0  0  0  0  0  0
   37.5450   25.7540   32.7910 N   0  0  0  0  0  0  0  0  0  0  0  0
   36.6740   26.8640   32.5450 C   0  0  0  0  0  0  0  0  0  0  0  0
   36.3530   26.8950   31.0640 C   0  0  0  0  0  0  0  0  0  0  0  0
   35.5150   25.8000   30.6530 N   0  0  0  0  0  0  0  0  0  0  0  0
   35.7790   24.6700   31.5150 C   0  0  0  0  0  0  0  0  0  0  0  0
   37.2040   24.6310   31.9870 C   0  0  0  0  0  0  0  0  0  0  0  0
   39.5529   24.4689   33.8984 H   0  0  0  0  0  0  0  0  0  0  0  0
   38.1114   23.4033   33.7968 H   0  0  0  0  0  0  0  0  0  0  0  0
   40.5059   22.1193   37.9495 H   0  0  0  0  0  0  0  0  0  0  0  0
   38.8991   23.1840   39.5489 H   0  0  0  0  0  0  0  0  0  0  0  0
   37.1237   24.7657   38.6409 H   0  0  0  0  0  0  0  0  0  0  0  0
   36.6852   25.2625   34.6370 H   0  0  0  0  0  0  0  0  0  0  0  0
   38.1057   26.3292   34.7363 H   0  0  0  0  0  0  0  0  0  0  0  0
   35.7467   26.7452   33.1246 H   0  0  0  0  0  0  0  0  0  0  0  0
   37.1603   27.8030   32.8481 H   0  0  0  0  0  0  0  0  0  0  0  0
   35.8356   27.8386   30.8360 H   0  0  0  0  0  0  0  0  0  0  0  0
   37.3034   26.8088   30.5168 H   0  0  0  0  0  0  0  0  0  0  0  0
   34.5247   26.0723   30.7310 H   0  0  0  0  0  0  0  0  0  0  0  0
   35.1179   24.7326   32.3920 H   0  0  0  0  0  0  0  0  0  0  0  0
   35.5927   23.7544   30.9345 H   0  0  0  0  0  0  0  0  0  0  0  0
   37.3543   23.7157   32.5783 H   0  0  0  0  0  0  0  0  0  0  0  0
   37.8503   24.6499   31.0971 H   0  0  0  0  0  0  0  0  0  0  0  0
  1  6  1  0
  2  3  2  0
  4  3  1  0
  5  4  2  0
  6  7  2  0
  6  5  1  0
  7  2  1  0
  8  1  1  0
  9  8  1  0
 10  9  1  0
 11 10  1  0
 12 11  1  0
 12 13  1  0
 13 14  1  0
 14  9  1  0
  1 15  1  0
  1 16  1  0
  2 17  1  0
  3 18  1  0
  4 19  1  0
  8 20  1  0
  8 21  1  0
 10 22  1  0
 10 23  1  0
 11 24  1  0
 11 25  1  0
 12 26  1  0
 13 27  1  0
 13 28  1  0
 14 29  1  0
 14 30  1  0
M  ISO  8  15   8  16   8  17  14  18  14  19  14  20   8  21   8  22  13
M  ISO  8  23  13  24  13  25  13  26   5  27  13  28  13  29  13  30  13
M  END
>  <minimizedAffinity>  (1) 
-3.97034621

>  <minimizedRMSD>  (1) 
3.71897221

$$$$
