
     RDKit          3D

 34 36  0  0  0  0  0  0  0  0999 V2000
   38.7640   26.2480   34.7120 C   0  0  0  0  0  0  0  0  0  0  0  0
   37.7370   27.1190   34.0830 C   0  0  0  0  0  0  0  0  0  0  0  0
   37.4750   27.1930   32.7410 N   0  0  0  0  0  0  0  0  0  0  0  0
   36.5190   28.0570   32.5710 O   0  0  0  0  0  0  0  0  0  0  0  0
   36.1330   28.5560   33.6930 C   0  0  0  0  0  0  0  0  0  0  0  0
   36.8870   27.9820   34.6700 N   0  0  0  0  0  0  0  0  0  0  0  0
   35.1540   29.5110   34.0850 N   0  0  0  0  0  0  0  0  0  0  0  0
   35.6280   30.3440   35.0360 C   0  0  0  0  0  0  0  0  0  0  0  0
   34.8160   31.3560   35.5540 C   0  0  0  0  0  0  0  0  0  0  0  0
   35.2750   32.3020   36.5990 C   0  0  0  0  0  0  0  0  0  0  0  0
   33.5320   31.4520   35.0490 C   0  0  0  0  0  0  0  0  0  0  0  0
   32.7140   32.3060   35.4250 O   0  0  0  0  0  0  0  0  0  0  0  0
   33.1240   30.6020   34.1110 N   0  0  0  0  0  0  0  0  0  0  0  0
   33.9040   29.6340   33.6180 C   0  0  0  0  0  0  0  0  0  0  0  0
   33.6090   28.7850   32.7340 O   0  0  0  0  0  0  0  0  0  0  0  0
   38.3150   24.8120   34.7170 C   0  0  0  0  0  0  0  0  0  0  0  0
   39.7040   22.8310   37.5720 C   0  0  0  0  0  0  0  0  0  0  0  0
   38.9110   23.2940   38.6370 C   0  0  0  0  0  0  0  0  0  0  0  0
   37.9320   24.2570   38.3660 C   0  0  0  0  0  0  0  0  0  0  0  0
   37.7970   24.6980   37.0880 N   0  0  0  0  0  0  0  0  0  0  0  0
   38.5820   24.2290   36.0800 C   0  0  0  0  0  0  0  0  0  0  0  0
   39.5100   23.3160   36.3360 N   0  0  0  0  0  0  0  0  0  0  0  0
   38.9309   26.5774   35.7482 H   0  0  0  0  0  0  0  0  0  0  0  0
   39.6953   26.3246   34.1316 H   0  0  0  0  0  0  0  0  0  0  0  0
   36.6577   30.2254   35.4044 H   0  0  0  0  0  0  0  0  0  0  0  0
   35.0694   31.8782   37.5931 H   0  0  0  0  0  0  0  0  0  0  0  0
   36.3561   32.4728   36.4897 H   0  0  0  0  0  0  0  0  0  0  0  0
   34.7400   33.2569   36.4897 H   0  0  0  0  0  0  0  0  0  0  0  0
   32.1644   30.6933   33.7480 H   0  0  0  0  0  0  0  0  0  0  0  0
   37.2387   24.7596   34.4960 H   0  0  0  0  0  0  0  0  0  0  0  0
   38.8643   24.2442   33.9516 H   0  0  0  0  0  0  0  0  0  0  0  0
   40.4811   22.0734   37.7516 H   0  0  0  0  0  0  0  0  0  0  0  0
   39.0564   22.9092   39.6572 H   0  0  0  0  0  0  0  0  0  0  0  0
   37.2879   24.6471   39.1679 H   0  0  0  0  0  0  0  0  0  0  0  0
  1 16  1  0
  2  6  1  0
  2  1  1  0
  3  2  2  0
  4  3  1  0
  4  5  1  0
  5  7  1  0
  5  6  2  0
  7  8  1  0
  8  9  2  0
  9 10  1  0
 11 12  2  0
 11  9  1  0
 13 11  1  0
 14  7  1  0
 14 13  1  0
 15 14  2  0
 16 21  1  0
 17 18  2  0
 19 18  1  0
 20 19  2  0
 21 22  2  0
 21 20  1  0
 22 17  1  0
  1 23  1  0
  1 24  1  0
  8 25  1  0
 10 26  1  0
 10 27  1  0
 10 28  1  0
 13 29  1  0
 16 30  1  0
 16 31  1  0
 17 32  1  0
 18 33  1  0
 19 34  1  0
M  ISO  8  23   8  24   8  25  14  26   8  27   8  28   8  29   9  30   8
M  ISO  4  31   8  32  14  33  14  34  14
M  END
>  <minimizedAffinity>  (1) 
-5.5504117

>  <minimizedRMSD>  (1) 
1.33653736

$$$$
