
     RDKit          3D

 34 36  0  0  0  0  0  0  0  0999 V2000
   38.9870   26.4710   34.9330 C   0  0  0  0  0  0  0  0  0  0  0  0
   37.8550   27.2100   34.3450 C   0  0  0  0  0  0  0  0  0  0  0  0
   37.5580   27.2100   33.0130 N   0  0  0  0  0  0  0  0  0  0  0  0
   36.5090   27.9660   32.8130 O   0  0  0  0  0  0  0  0  0  0  0  0
   36.0920   28.4680   33.9600 C   0  0  0  0  0  0  0  0  0  0  0  0
   36.9220   27.9990   34.8780 N   0  0  0  0  0  0  0  0  0  0  0  0
   34.9710   29.2540   33.6350 N   0  0  0  0  0  0  0  0  0  0  0  0
   35.1670   29.7980   32.2880 C   0  0  0  0  0  0  0  0  0  0  0  0
   34.0110   30.6360   31.8500 C   0  0  0  0  0  0  0  0  0  0  0  0
   32.7680   30.1780   32.1770 O   0  0  0  0  0  0  0  0  0  0  0  0
   32.6650   29.2750   33.1960 C   0  0  0  0  0  0  0  0  0  0  0  0
   33.7240   29.6420   34.2570 C   0  0  0  0  0  0  0  0  0  0  0  0
   38.8190   24.9760   34.7770 C   0  0  0  0  0  0  0  0  0  0  0  0
   39.7290   22.8430   37.7060 C   0  0  0  0  0  0  0  0  0  0  0  0
   38.8250   23.2940   38.6680 C   0  0  0  0  0  0  0  0  0  0  0  0
   37.9330   24.3090   38.3000 C   0  0  0  0  0  0  0  0  0  0  0  0
   37.9840   24.8030   37.0430 N   0  0  0  0  0  0  0  0  0  0  0  0
   38.8870   24.3310   36.1340 C   0  0  0  0  0  0  0  0  0  0  0  0
   39.7340   23.3720   36.4670 N   0  0  0  0  0  0  0  0  0  0  0  0
   39.9149   26.7801   34.4295 H   0  0  0  0  0  0  0  0  0  0  0  0
   39.0267   26.7018   36.0078 H   0  0  0  0  0  0  0  0  0  0  0  0
   36.0763   30.4170   32.2837 H   0  0  0  0  0  0  0  0  0  0  0  0
   35.2581   28.9528   31.5899 H   0  0  0  0  0  0  0  0  0  0  0  0
   34.0575   30.7229   30.7544 H   0  0  0  0  0  0  0  0  0  0  0  0
   34.1213   31.5884   32.3893 H   0  0  0  0  0  0  0  0  0  0  0  0
   31.6591   29.3227   33.6386 H   0  0  0  0  0  0  0  0  0  0  0  0
   32.8307   28.2533   32.8236 H   0  0  0  0  0  0  0  0  0  0  0  0
   33.5580   29.0817   35.1889 H   0  0  0  0  0  0  0  0  0  0  0  0
   33.6978   30.7047   34.5399 H   0  0  0  0  0  0  0  0  0  0  0  0
   37.8443   24.7607   34.3148 H   0  0  0  0  0  0  0  0  0  0  0  0
   39.6188   24.5772   34.1357 H   0  0  0  0  0  0  0  0  0  0  0  0
   40.4447   22.0477   37.9616 H   0  0  0  0  0  0  0  0  0  0  0  0
   38.8132   22.8667   39.6816 H   0  0  0  0  0  0  0  0  0  0  0  0
   37.2016   24.6985   39.0234 H   0  0  0  0  0  0  0  0  0  0  0  0
  2  6  1  0
  2  1  1  0
  3  2  2  0
  4  3  1  0
  4  5  1  0
  5  6  2  0
  7  5  1  0
  7 12  1  0
  8  7  1  0
  9 10  1  0
  9  8  1  0
 10 11  1  0
 11 12  1  0
 13  1  1  0
 13 18  1  0
 14 15  2  0
 16 15  1  0
 17 16  2  0
 18 19  2  0
 18 17  1  0
 19 14  1  0
  1 20  1  0
  1 21  1  0
  8 22  1  0
  8 23  1  0
  9 24  1  0
  9 25  1  0
 11 26  1  0
 11 27  1  0
 12 28  1  0
 12 29  1  0
 13 30  1  0
 13 31  1  0
 14 32  1  0
 15 33  1  0
 16 34  1  0
M  ISO  8  20   8  21   8  22  13  23  13  24  13  25  13  26  13  27  13
M  ISO  7  28  13  29  13  30   8  31   8  32  14  33  14  34  14
M  END
>  <minimizedAffinity>  (1) 
-4.81888962

>  <minimizedRMSD>  (1) 
1.02769744

$$$$
