
     RDKit          3D

 31 33  0  0  0  0  0  0  0  0999 V2000
   37.9160   26.9020   35.4430 C   0  0  0  0  0  0  0  0  0  0  0  0
   37.2700   27.5350   34.2640 C   0  0  0  0  0  0  0  0  0  0  0  0
   37.7130   27.4200   32.9840 N   0  0  0  0  0  0  0  0  0  0  0  0
   36.9150   28.0980   32.2050 O   0  0  0  0  0  0  0  0  0  0  0  0
   35.9650   28.6560   32.9110 C   0  0  0  0  0  0  0  0  0  0  0  0
   36.1680   28.3190   34.1930 N   0  0  0  0  0  0  0  0  0  0  0  0
   34.9090   29.4720   32.4170 N   0  0  0  0  0  0  0  0  0  0  0  0
   33.6960   29.4200   32.9920 C   0  0  0  0  0  0  0  0  0  0  0  0
   32.6470   30.2120   32.5240 C   0  0  0  0  0  0  0  0  0  0  0  0
   32.9930   31.0120   31.4550 C   0  0  0  0  0  0  0  0  0  0  0  0
   32.0780   31.7550   30.9860 O   0  0  0  0  0  0  0  0  0  0  0  0
   34.1860   31.1070   30.8380 N   0  0  0  0  0  0  0  0  0  0  0  0
   35.1430   30.2940   31.3700 C   0  0  0  0  0  0  0  0  0  0  0  0
   36.2910   30.3430   30.8260 O   0  0  0  0  0  0  0  0  0  0  0  0
   38.6370   25.6350   35.0380 C   0  0  0  0  0  0  0  0  0  0  0  0
   39.5910   22.9200   37.4100 C   0  0  0  0  0  0  0  0  0  0  0  0
   38.7840   23.2240   38.5120 C   0  0  0  0  0  0  0  0  0  0  0  0
   37.9380   24.3360   38.4300 C   0  0  0  0  0  0  0  0  0  0  0  0
   37.9490   25.0610   37.2760 N   0  0  0  0  0  0  0  0  0  0  0  0
   38.7470   24.7330   36.2280 C   0  0  0  0  0  0  0  0  0  0  0  0
   39.5600   23.6780   36.2840 N   0  0  0  0  0  0  0  0  0  0  0  0
   38.6395   27.6058   35.8802 H   0  0  0  0  0  0  0  0  0  0  0  0
   37.1395   26.6485   36.1797 H   0  0  0  0  0  0  0  0  0  0  0  0
   33.5275   28.7439   33.8432 H   0  0  0  0  0  0  0  0  0  0  0  0
   31.6396   30.1996   32.9657 H   0  0  0  0  0  0  0  0  0  0  0  0
   34.3594   31.7344   30.0397 H   0  0  0  0  0  0  0  0  0  0  0  0
   38.0719   25.1278   34.2422 H   0  0  0  0  0  0  0  0  0  0  0  0
   39.6422   25.8829   34.6664 H   0  0  0  0  0  0  0  0  0  0  0  0
   40.2632   22.0505   37.4569 H   0  0  0  0  0  0  0  0  0  0  0  0
   38.8138   22.6043   39.4203 H   0  0  0  0  0  0  0  0  0  0  0  0
   37.2852   24.6158   39.2700 H   0  0  0  0  0  0  0  0  0  0  0  0
  2  1  1  0
  3  2  2  0
  4  5  1  0
  4  3  1  0
  5  6  2  0
  6  2  1  0
  7  5  1  0
  7  8  1  0
  9  8  2  0
 10  9  1  0
 11 10  2  0
 12 13  1  0
 12 10  1  0
 13  7  1  0
 14 13  2  0
 15  1  1  0
 15 20  1  0
 16 17  2  0
 18 17  1  0
 19 18  2  0
 20 21  2  0
 20 19  1  0
 21 16  1  0
  1 22  1  0
  1 23  1  0
  8 24  1  0
  9 25  1  0
 12 26  1  0
 15 27  1  0
 15 28  1  0
 16 29  1  0
 17 30  1  0
 18 31  1  0
M  ISO  8  22   8  23   8  24  14  25  14  26   9  27   8  28   8  29  14
M  ISO  2  30  14  31  14
M  END
>  <minimizedAffinity>  (1) 
-5.30363655

>  <minimizedRMSD>  (1) 
0.785209894

$$$$
