
     RDKit          3D

 34 37  0  0  0  0  0  0  0  0999 V2000
   37.7430   27.2550   34.3470 C   0  0  0  0  0  0  0  0  0  0  0  0
   37.3660   26.9580   33.0840 N   0  0  0  0  0  0  0  0  0  0  0  0
   36.3380   27.7030   32.7640 O   0  0  0  0  0  0  0  0  0  0  0  0
   36.0120   28.4840   33.7590 C   0  0  0  0  0  0  0  0  0  0  0  0
   36.8950   28.2030   34.7570 N   0  0  0  0  0  0  0  0  0  0  0  0
   34.9900   29.4620   33.9230 N   0  0  0  0  0  0  0  0  0  0  0  0
   33.8550   29.4530   33.1840 C   0  0  0  0  0  0  0  0  0  0  0  0
   33.0540   30.4800   33.5300 N   0  0  0  0  0  0  0  0  0  0  0  0
   33.6890   31.1640   34.5130 C   0  0  0  0  0  0  0  0  0  0  0  0
   33.4460   32.2810   35.2930 C   0  0  0  0  0  0  0  0  0  0  0  0
   34.3280   32.7070   36.2190 N   0  0  0  0  0  0  0  0  0  0  0  0
   35.4880   32.0410   36.4070 C   0  0  0  0  0  0  0  0  0  0  0  0
   35.7690   30.9370   35.6610 N   0  0  0  0  0  0  0  0  0  0  0  0
   34.9000   30.5130   34.7460 C   0  0  0  0  0  0  0  0  0  0  0  0
   38.8630   26.6280   35.0690 C   0  0  0  0  0  0  0  0  0  0  0  0
   38.9130   25.1360   34.8160 C   0  0  0  0  0  0  0  0  0  0  0  0
   39.7390   22.8350   37.6560 C   0  0  0  0  0  0  0  0  0  0  0  0
   38.8280   23.2550   38.6210 C   0  0  0  0  0  0  0  0  0  0  0  0
   37.9380   24.3140   38.3080 C   0  0  0  0  0  0  0  0  0  0  0  0
   38.0250   24.8630   37.0740 N   0  0  0  0  0  0  0  0  0  0  0  0
   38.9350   24.4250   36.1500 C   0  0  0  0  0  0  0  0  0  0  0  0
   39.7700   23.4320   36.4400 N   0  0  0  0  0  0  0  0  0  0  0  0
   32.2280   32.9760   35.0920 N   0  0  0  0  0  0  0  0  0  0  0  0
   33.6194   28.7097   32.4081 H   0  0  0  0  0  0  0  0  0  0  0  0
   36.2062   32.3907   37.1633 H   0  0  0  0  0  0  0  0  0  0  0  0
   39.8064   27.0809   34.7301 H   0  0  0  0  0  0  0  0  0  0  0  0
   38.7177   26.7931   36.1468 H   0  0  0  0  0  0  0  0  0  0  0  0
   38.0254   24.8263   34.2448 H   0  0  0  0  0  0  0  0  0  0  0  0
   39.8133   24.8812   34.2376 H   0  0  0  0  0  0  0  0  0  0  0  0
   40.4367   22.0150   37.8815 H   0  0  0  0  0  0  0  0  0  0  0  0
   38.7988   22.7737   39.6097 H   0  0  0  0  0  0  0  0  0  0  0  0
   37.2032   24.6762   39.0421 H   0  0  0  0  0  0  0  0  0  0  0  0
   32.0131   33.8118   35.6543 H   0  0  0  0  0  0  0  0  0  0  0  0
   31.5573   32.6455   34.3835 H   0  0  0  0  0  0  0  0  0  0  0  0
  1  5  1  0
  1 15  1  0
  2  1  2  0
  3  2  1  0
  3  4  1  0
  4  6  1  0
  4  5  2  0
  6 14  1  0
  7  8  2  0
  7  6  1  0
  8  9  1  0
  9 14  2  0
  9 10  1  0
 10 11  2  0
 11 12  1  0
 13 12  2  0
 14 13  1  0
 16 15  1  0
 16 21  1  0
 17 18  2  0
 19 18  1  0
 20 19  2  0
 21 22  2  0
 21 20  1  0
 22 17  1  0
 23 10  1  0
  7 24  1  0
 12 25  1  0
 15 26  1  0
 15 27  1  0
 16 28  1  0
 16 29  1  0
 17 30  1  0
 18 31  1  0
 19 32  1  0
 23 33  1  0
 23 34  1  0
M  ISO  8  24  14  25  14  26   8  27   8  28   8  29   8  30  14  31  14
M  ISO  1  32  14
M  END
>  <minimizedAffinity>  (1) 
-5.50384426

>  <minimizedRMSD>  (1) 
1.0974052

$$$$
