
     RDKit          3D

 46 49  0  0  1  0  0  0  0  0999 V2000
   36.2810   28.8960   32.7160 C   0  0  0  0  0  0  0  0  0  0  0  0
   36.7560   27.7430   32.1720 C   0  0  0  0  0  0  0  0  0  0  0  0
   37.1780   26.7310   33.0360 C   0  0  0  0  0  0  0  0  0  0  0  0
   37.1120   26.9020   34.3930 C   0  0  0  0  0  0  0  0  0  0  0  0
   36.6360   28.0540   34.9400 C   0  0  0  0  0  0  0  0  0  0  0  0
   36.2170   29.0620   34.1060 C   0  0  0  0  0  0  0  0  0  0  0  0
   37.6020   25.7200   35.1350 C   0  0  0  0  0  0  0  0  0  0  0  0
   39.0310   25.4280   34.9250 C   0  0  2  0  0  0  0  0  0  0  0  0
   41.3170   22.9520   36.3700 C   0  0  0  0  0  0  0  0  0  0  0  0
   40.5720   22.4450   37.4990 C   0  0  0  0  0  0  0  0  0  0  0  0
   39.2990   22.9700   37.7300 C   0  0  0  0  0  0  0  0  0  0  0  0
   38.8430   23.9350   36.8670 N   0  0  0  0  0  0  0  0  0  0  0  0
   39.5840   24.3820   35.8150 C   0  0  0  0  0  0  0  0  0  0  0  0
   40.8030   23.9060   35.5590 N   0  0  0  0  0  0  0  0  0  0  0  0
   39.8470   26.7230   35.1660 C   0  0  0  0  0  0  0  0  0  0  0  0
   35.7450   30.1860   31.6540 S   0  0  0  0  0  0  0  0  0  0  0  0
   36.0920   29.7790   30.2440 O   0  0  0  0  0  0  0  0  0  0  0  0
   36.4680   31.4720   31.9600 O   0  0  0  0  0  0  0  0  0  0  0  0
   34.0340   30.4350   31.7990 C   0  0  0  0  0  0  0  0  0  0  0  0
   33.0730   29.9250   32.5860 N   0  0  0  0  0  0  0  0  0  0  0  0
   31.9170   30.4550   32.2940 O   0  0  0  0  0  0  0  0  0  0  0  0
   32.0800   31.3200   31.3180 C   0  0  0  0  0  0  0  0  0  0  0  0
   33.3650   31.3100   31.0170 N   0  0  0  0  0  0  0  0  0  0  0  0
   30.9690   32.0790   30.7690 C   0  0  0  0  0  0  0  0  0  0  0  0
   29.9570   32.2800   31.4840 O   0  0  0  0  0  0  0  0  0  0  0  0
   31.3140   33.9920   27.7400 N   0  0  0  0  0  0  0  0  0  0  0  0
   31.3840   33.8490   29.0630 N   0  0  0  0  0  0  0  0  0  0  0  0
   31.0180   32.6040   29.4080 C   0  0  0  0  0  0  0  0  0  0  0  0
   30.6960   31.9110   28.2590 C   0  0  0  0  0  0  0  0  0  0  0  0
   30.8940   32.8130   27.2290 C   0  0  0  0  0  0  0  0  0  0  0  0
   36.8062   27.6118   31.0810 H   0  0  0  0  0  0  0  0  0  0  0  0
   37.5668   25.7884   32.6233 H   0  0  0  0  0  0  0  0  0  0  0  0
   36.5876   28.1758   36.0322 H   0  0  0  0  0  0  0  0  0  0  0  0
   35.8307   30.0007   34.5299 H   0  0  0  0  0  0  0  0  0  0  0  0
   37.4391   25.8943   36.2088 H   0  0  0  0  0  0  0  0  0  0  0  0
   37.0418   24.8526   34.7557 H   0  0  0  0  0  0  0  0  0  0  0  0
   39.1108   25.0526   33.8941 H   0  0  0  0  0  0  0  0  0  0  0  0
   42.3222   22.5548   36.1653 H   0  0  0  0  0  0  0  0  0  0  0  0
   40.9941   21.6701   38.1557 H   0  0  0  0  0  0  0  0  0  0  0  0
   38.6838   22.6228   38.5732 H   0  0  0  0  0  0  0  0  0  0  0  0
   39.9541   26.8930   36.2475 H   0  0  0  0  0  0  0  0  0  0  0  0
   40.8430   26.6189   34.7108 H   0  0  0  0  0  0  0  0  0  0  0  0
   39.3232   27.5765   34.7108 H   0  0  0  0  0  0  0  0  0  0  0  0
   31.5384   34.8434   27.2055 H   0  0  0  0  0  0  0  0  0  0  0  0
   30.3558   30.8680   28.1794 H   0  0  0  0  0  0  0  0  0  0  0  0
   30.7346   32.6036   26.1609 H   0  0  0  0  0  0  0  0  0  0  0  0
  1  6  1  0
  2  1  2  0
  2  3  1  0
  3  4  2  0
  4  5  1  0
  4  7  1  0
  6  5  2  0
  8  7  1  0
  8 15  1  0
  8 13  1  0
  9 10  2  0
 10 11  1  0
 12 11  2  0
 13 12  1  0
 14 13  2  0
 14  9  1  0
 16 19  1  0
 16 18  2  0
 16  1  1  0
 17 16  2  0
 19 20  2  0
 21 20  1  0
 22 21  1  0
 23 22  2  0
 23 19  1  0
 24 22  1  0
 24 25  2  0
 26 27  1  0
 27 28  2  0
 28 24  1  0
 29 28  1  0
 30 26  1  0
 30 29  2  0
  2 31  1  0
  3 32  1  0
  5 33  1  0
  6 34  1  0
  7 35  1  0
  7 36  1  0
  8 37  1  6
  9 38  1  0
 10 39  1  0
 11 40  1  0
 15 41  1  0
 15 42  1  0
 15 43  1  0
 26 44  1  0
 29 45  1  0
 30 46  1  0
M  ISO  8  31  14  32  14  33  14  34  14  35   8  36   8  37   8  38  14
M  ISO  8  39  14  40  14  41   8  42   8  43   8  44   9  45  14  46  14
M  END
>  <minimizedAffinity>  (1) 
-5.37059546

>  <minimizedRMSD>  (1) 
1.71311212

$$$$
