
     RDKit          3D

 29 31  0  0  0  0  0  0  0  0999 V2000
   38.9880   26.5650   35.0230 C   0  0  0  0  0  0  0  0  0  0  0  0
   37.9290   27.2920   34.2790 C   0  0  0  0  0  0  0  0  0  0  0  0
   37.8690   27.3880   32.9210 N   0  0  0  0  0  0  0  0  0  0  0  0
   36.8150   28.0940   32.5960 O   0  0  0  0  0  0  0  0  0  0  0  0
   36.1740   28.4720   33.6640 C   0  0  0  0  0  0  0  0  0  0  0  0
   36.8550   27.9800   34.7110 N   0  0  0  0  0  0  0  0  0  0  0  0
   34.9420   29.2790   33.7400 C   0  0  0  0  0  0  0  0  0  0  0  0
   34.7520   30.1950   34.7540 C   0  0  0  0  0  0  0  0  0  0  0  0
   33.5690   30.9180   34.7620 C   0  0  0  0  0  0  0  0  0  0  0  0
   32.6280   30.7240   33.7920 N   0  0  0  0  0  0  0  0  0  0  0  0
   32.8550   29.8160   32.8140 C   0  0  0  0  0  0  0  0  0  0  0  0
   34.0040   29.0830   32.7700 N   0  0  0  0  0  0  0  0  0  0  0  0
   38.8810   25.0860   34.8150 C   0  0  0  0  0  0  0  0  0  0  0  0
   39.7310   22.8350   37.6790 C   0  0  0  0  0  0  0  0  0  0  0  0
   38.8200   23.2700   38.6470 C   0  0  0  0  0  0  0  0  0  0  0  0
   37.9320   24.3160   38.3200 C   0  0  0  0  0  0  0  0  0  0  0  0
   38.0240   24.8400   37.0660 N   0  0  0  0  0  0  0  0  0  0  0  0
   38.9160   24.3950   36.1550 C   0  0  0  0  0  0  0  0  0  0  0  0
   39.7670   23.4040   36.4450 N   0  0  0  0  0  0  0  0  0  0  0  0
   39.9724   26.9062   34.6702 H   0  0  0  0  0  0  0  0  0  0  0  0
   38.8651   26.7747   36.0958 H   0  0  0  0  0  0  0  0  0  0  0  0
   35.5150   30.3469   35.5316 H   0  0  0  0  0  0  0  0  0  0  0  0
   33.3868   31.6552   35.5578 H   0  0  0  0  0  0  0  0  0  0  0  0
   32.0932   29.6656   32.0349 H   0  0  0  0  0  0  0  0  0  0  0  0
   37.9344   24.8533   34.3053 H   0  0  0  0  0  0  0  0  0  0  0  0
   39.7210   24.7372   34.1963 H   0  0  0  0  0  0  0  0  0  0  0  0
   40.4292   22.0198   37.9200 H   0  0  0  0  0  0  0  0  0  0  0  0
   38.7965   22.8055   39.6438 H   0  0  0  0  0  0  0  0  0  0  0  0
   37.1968   24.6924   39.0464 H   0  0  0  0  0  0  0  0  0  0  0  0
  2  6  1  0
  2  1  1  0
  3  2  2  0
  4  3  1  0
  4  5  1  0
  5  7  1  0
  5  6  2  0
  7  8  2  0
  8  9  1  0
 10  9  2  0
 11 10  1  0
 12 11  2  0
 12  7  1  0
 13  1  1  0
 13 18  1  0
 14 15  2  0
 16 15  1  0
 17 16  2  0
 18 19  2  0
 18 17  1  0
 19 14  1  0
  1 20  1  0
  1 21  1  0
  8 22  1  0
  9 23  1  0
 11 24  1  0
 13 25  1  0
 13 26  1  0
 14 27  1  0
 15 28  1  0
 16 29  1  0
M  ISO  8  20   8  21   8  22  14  23  14  24  14  25   8  26   8  27  14
M  ISO  2  28  14  29  14
M  END
>  <minimizedAffinity>  (1) 
-4.64497948

>  <minimizedRMSD>  (1) 
1.04383314

$$$$
