
     RDKit          3D

 30 32  0  0  0  0  0  0  0  0999 V2000
   38.9840   26.5810   35.0300 C   0  0  0  0  0  0  0  0  0  0  0  0
   37.9320   27.2970   34.2600 C   0  0  0  0  0  0  0  0  0  0  0  0
   37.8840   27.3920   32.9100 N   0  0  0  0  0  0  0  0  0  0  0  0
   36.8280   28.0880   32.5740 O   0  0  0  0  0  0  0  0  0  0  0  0
   36.1790   28.4580   33.6220 C   0  0  0  0  0  0  0  0  0  0  0  0
   36.8550   27.9720   34.6740 N   0  0  0  0  0  0  0  0  0  0  0  0
   34.9530   29.2450   33.6980 C   0  0  0  0  0  0  0  0  0  0  0  0
   34.7610   30.1560   34.7160 C   0  0  0  0  0  0  0  0  0  0  0  0
   33.5950   30.8910   34.7730 C   0  0  0  0  0  0  0  0  0  0  0  0
   32.5910   30.7370   33.8150 C   0  0  0  0  0  0  0  0  0  0  0  0
   32.8280   29.8090   32.8110 C   0  0  0  0  0  0  0  0  0  0  0  0
   33.9770   29.1110   32.7910 N   0  0  0  0  0  0  0  0  0  0  0  0
   38.8830   25.0940   34.8160 C   0  0  0  0  0  0  0  0  0  0  0  0
   39.7180   22.8400   37.6920 C   0  0  0  0  0  0  0  0  0  0  0  0
   38.8140   23.2680   38.6540 C   0  0  0  0  0  0  0  0  0  0  0  0
   37.9390   24.3110   38.3150 C   0  0  0  0  0  0  0  0  0  0  0  0
   38.0320   24.8370   37.0600 N   0  0  0  0  0  0  0  0  0  0  0  0
   38.9230   24.3950   36.1510 C   0  0  0  0  0  0  0  0  0  0  0  0
   39.7500   23.4070   36.4780 N   0  0  0  0  0  0  0  0  0  0  0  0
   39.9736   26.9271   34.6969 H   0  0  0  0  0  0  0  0  0  0  0  0
   38.8448   26.7939   36.1002 H   0  0  0  0  0  0  0  0  0  0  0  0
   35.5376   30.2963   35.4823 H   0  0  0  0  0  0  0  0  0  0  0  0
   33.4533   31.6135   35.5903 H   0  0  0  0  0  0  0  0  0  0  0  0
   31.6599   31.3214   33.8542 H   0  0  0  0  0  0  0  0  0  0  0  0
   32.0729   29.6437   32.0284 H   0  0  0  0  0  0  0  0  0  0  0  0
   37.9367   24.8595   34.3066 H   0  0  0  0  0  0  0  0  0  0  0  0
   39.7250   24.7528   34.1959 H   0  0  0  0  0  0  0  0  0  0  0  0
   40.4174   22.0247   37.9289 H   0  0  0  0  0  0  0  0  0  0  0  0
   38.7844   22.8041   39.6510 H   0  0  0  0  0  0  0  0  0  0  0  0
   37.2022   24.6920   39.0375 H   0  0  0  0  0  0  0  0  0  0  0  0
  2  6  1  0
  2  1  1  0
  3  2  2  0
  4  3  1  0
  4  5  1  0
  5  7  1  0
  5  6  2  0
  7  8  2  0
  8  9  1  0
 10  9  2  0
 11 10  1  0
 12 11  2  0
 12  7  1  0
 13  1  1  0
 13 18  1  0
 14 15  2  0
 16 15  1  0
 17 16  2  0
 18 19  2  0
 18 17  1  0
 19 14  1  0
  1 20  1  0
  1 21  1  0
  8 22  1  0
  9 23  1  0
 10 24  1  0
 11 25  1  0
 13 26  1  0
 13 27  1  0
 14 28  1  0
 15 29  1  0
 16 30  1  0
M  ISO  8  20   8  21   8  22  14  23  14  24  14  25  14  26   8  27   8
M  ISO  3  28  14  29  14  30  14
M  END
>  <minimizedAffinity>  (1) 
-4.68343639

>  <minimizedRMSD>  (1) 
1.078807

$$$$
