
     RDKit          3D

 27 29  0  0  0  0  0  0  0  0999 V2000
   37.8730   26.8980   35.3960 C   0  0  0  0  0  0  0  0  0  0  0  0
   37.0240   27.3670   34.2740 C   0  0  0  0  0  0  0  0  0  0  0  0
   36.9480   26.7540   33.0510 N   0  0  0  0  0  0  0  0  0  0  0  0
   36.1080   27.4280   32.3010 O   0  0  0  0  0  0  0  0  0  0  0  0
   35.6380   28.4350   32.9590 C   0  0  0  0  0  0  0  0  0  0  0  0
   36.1840   28.4270   34.1860 N   0  0  0  0  0  0  0  0  0  0  0  0
   34.6920   29.4000   32.4700 N   0  0  0  0  0  0  0  0  0  0  0  0
   34.9030   30.3640   31.5590 C   0  0  0  0  0  0  0  0  0  0  0  0
   33.7500   31.0550   31.3840 N   0  0  0  0  0  0  0  0  0  0  0  0
   32.8080   30.5080   32.2020 C   0  0  0  0  0  0  0  0  0  0  0  0
   33.4260   29.5030   32.8450 N   0  0  0  0  0  0  0  0  0  0  0  0
   38.6570   25.6730   35.0110 C   0  0  0  0  0  0  0  0  0  0  0  0
   39.5860   22.9210   37.3560 C   0  0  0  0  0  0  0  0  0  0  0  0
   38.7780   23.2230   38.4670 C   0  0  0  0  0  0  0  0  0  0  0  0
   37.9400   24.3510   38.3910 C   0  0  0  0  0  0  0  0  0  0  0  0
   37.9620   25.0820   37.2460 N   0  0  0  0  0  0  0  0  0  0  0  0
   38.7630   24.7560   36.1860 C   0  0  0  0  0  0  0  0  0  0  0  0
   39.5620   23.6940   36.2380 N   0  0  0  0  0  0  0  0  0  0  0  0
   38.5734   27.6990   35.6750 H   0  0  0  0  0  0  0  0  0  0  0  0
   37.2197   26.6411   36.2429 H   0  0  0  0  0  0  0  0  0  0  0  0
   35.8534   30.5602   31.0410 H   0  0  0  0  0  0  0  0  0  0  0  0
   31.7600   30.8233   32.3130 H   0  0  0  0  0  0  0  0  0  0  0  0
   38.1448   25.1546   34.1870 H   0  0  0  0  0  0  0  0  0  0  0  0
   39.6654   25.9712   34.6881 H   0  0  0  0  0  0  0  0  0  0  0  0
   40.2489   22.0440   37.3924 H   0  0  0  0  0  0  0  0  0  0  0  0
   38.8005   22.5951   39.3699 H   0  0  0  0  0  0  0  0  0  0  0  0
   37.2882   24.6318   39.2315 H   0  0  0  0  0  0  0  0  0  0  0  0
  2  1  1  0
  3  2  2  0
  4  5  1  0
  4  3  1  0
  5  6  2  0
  6  2  1  0
  7 11  1  0
  7  5  1  0
  8  7  1  0
  9  8  2  0
  9 10  1  0
 10 11  2  0
 12  1  1  0
 12 17  1  0
 13 14  2  0
 15 14  1  0
 16 15  2  0
 17 18  2  0
 17 16  1  0
 18 13  1  0
  1 19  1  0
  1 20  1  0
  8 21  1  0
 10 22  1  0
 12 23  1  0
 12 24  1  0
 13 25  1  0
 14 26  1  0
 15 27  1  0
M  ISO  8  19   8  20   8  21  14  22  14  23   8  24   8  25  14  26  14
M  ISO  1  27  14
M  END
>  <minimizedAffinity>  (1) 
-4.63322639

>  <minimizedRMSD>  (1) 
0.542311072

$$$$
