
     RDKit          3D

 33 34  0  0  0  0  0  0  0  0999 V2000
   38.6230   25.1840   34.9270 C   0  0  0  0  0  0  0  0  0  0  0  0
   39.7080   22.8450   37.6280 C   0  0  0  0  0  0  0  0  0  0  0  0
   38.8750   23.2350   38.6710 C   0  0  0  0  0  0  0  0  0  0  0  0
   37.9640   24.2750   38.4540 C   0  0  0  0  0  0  0  0  0  0  0  0
   37.9340   24.8590   37.2260 N   0  0  0  0  0  0  0  0  0  0  0  0
   38.7660   24.4480   36.2320 C   0  0  0  0  0  0  0  0  0  0  0  0
   39.6350   23.4600   36.4310 N   0  0  0  0  0  0  0  0  0  0  0  0
   38.7190   26.6710   35.1870 C   0  0  0  0  0  0  0  0  0  0  0  0
   37.6080   27.3960   34.5360 C   0  0  0  0  0  0  0  0  0  0  0  0
   37.0540   27.0670   33.3500 N   0  0  0  0  0  0  0  0  0  0  0  0
   36.1030   27.9240   33.0850 O   0  0  0  0  0  0  0  0  0  0  0  0
   35.9930   28.8030   34.0280 C   0  0  0  0  0  0  0  0  0  0  0  0
   36.9350   28.4760   34.9410 N   0  0  0  0  0  0  0  0  0  0  0  0
   35.1430   29.9810   34.3080 C   0  0  0  0  0  0  0  0  0  0  0  0
   35.7640   30.8560   35.4030 C   0  0  0  0  0  0  0  0  0  0  0  0
   35.1360   30.8750   33.0680 C   0  0  0  0  0  0  0  0  0  0  0  0
   33.7480   29.6260   34.7150 C   0  0  0  0  0  0  0  0  0  0  0  0
   37.6468   24.9506   34.4770 H   0  0  0  0  0  0  0  0  0  0  0  0
   39.4218   24.8751   34.2367 H   0  0  0  0  0  0  0  0  0  0  0  0
   40.4306   22.0299   37.7808 H   0  0  0  0  0  0  0  0  0  0  0  0
   38.9311   22.7350   39.6492 H   0  0  0  0  0  0  0  0  0  0  0  0
   37.2899   24.6113   39.2556 H   0  0  0  0  0  0  0  0  0  0  0  0
   38.6784   26.8497   36.2716 H   0  0  0  0  0  0  0  0  0  0  0  0
   39.6685   27.0386   34.7707 H   0  0  0  0  0  0  0  0  0  0  0  0
   35.4838   30.4612   36.3907 H   0  0  0  0  0  0  0  0  0  0  0  0
   36.8593   30.8475   35.3020 H   0  0  0  0  0  0  0  0  0  0  0  0
   35.3945   31.8871   35.3020 H   0  0  0  0  0  0  0  0  0  0  0  0
   35.1277   31.9306   33.3771 H   0  0  0  0  0  0  0  0  0  0  0  0
   36.0357   30.6759   32.4673 H   0  0  0  0  0  0  0  0  0  0  0  0
   34.2395   30.6618   32.4673 H   0  0  0  0  0  0  0  0  0  0  0  0
   33.6795   29.6086   35.8127 H   0  0  0  0  0  0  0  0  0  0  0  0
   33.0478   30.3746   34.3158 H   0  0  0  0  0  0  0  0  0  0  0  0
   33.4908   28.6338   34.3158 H   0  0  0  0  0  0  0  0  0  0  0  0
  1  8  1  0
  1  6  1  0
  2  3  2  0
  4  3  1  0
  5  4  2  0
  6  7  2  0
  6  5  1  0
  7  2  1  0
  9 13  1  0
  9  8  1  0
 10  9  2  0
 11 10  1  0
 11 12  1  0
 12 14  1  0
 12 13  2  0
 14 17  1  0
 14 15  1  0
 16 14  1  0
  1 18  1  0
  1 19  1  0
  2 20  1  0
  3 21  1  0
  4 22  1  0
  8 23  1  0
  8 24  1  0
 15 25  1  0
 15 26  1  0
 15 27  1  0
 16 28  1  0
 16 29  1  0
 16 30  1  0
 17 31  1  0
 17 32  1  0
 17 33  1  0
M  ISO  8  18   8  19   8  20  14  21  14  22  14  23   8  24   8  25   8
M  ISO  8  26   8  27   8  28   8  29   8  30   8  31   8  32   8  33   8
M  END
>  <minimizedAffinity>  (1) 
-4.47777653

>  <minimizedRMSD>  (1) 
0.775202096

$$$$
