
     RDKit          3D

 28 30  0  0  0  0  0  0  0  0999 V2000
   38.3870   24.7210   34.6780 C   0  0  0  0  0  0  0  0  0  0  0  0
   39.7210   22.8340   37.6270 C   0  0  0  0  0  0  0  0  0  0  0  0
   38.9060   23.3150   38.6450 C   0  0  0  0  0  0  0  0  0  0  0  0
   37.9200   24.2640   38.3340 C   0  0  0  0  0  0  0  0  0  0  0  0
   37.8040   24.6730   37.0490 N   0  0  0  0  0  0  0  0  0  0  0  0
   38.6210   24.1820   36.0730 C   0  0  0  0  0  0  0  0  0  0  0  0
   39.5630   23.2770   36.3620 N   0  0  0  0  0  0  0  0  0  0  0  0
   38.8270   26.1530   34.6400 C   0  0  0  0  0  0  0  0  0  0  0  0
   37.7180   27.0530   34.2550 C   0  0  0  0  0  0  0  0  0  0  0  0
   37.0740   26.9980   33.0710 N   0  0  0  0  0  0  0  0  0  0  0  0
   36.1510   27.9320   33.0530 O   0  0  0  0  0  0  0  0  0  0  0  0
   36.1570   28.5990   34.1680 C   0  0  0  0  0  0  0  0  0  0  0  0
   37.1440   28.0490   34.9330 N   0  0  0  0  0  0  0  0  0  0  0  0
   35.2790   29.7390   34.5690 C   0  0  0  0  0  0  0  0  0  0  0  0
   35.8010   30.8740   35.3570 C   0  0  0  0  0  0  0  0  0  0  0  0
   35.5490   31.0900   33.8850 C   0  0  0  0  0  0  0  0  0  0  0  0
   38.9690   24.1349   33.9516 H   0  0  0  0  0  0  0  0  0  0  0  0
   37.3200   24.6482   34.4205 H   0  0  0  0  0  0  0  0  0  0  0  0
   40.4981   22.0891   37.8534 H   0  0  0  0  0  0  0  0  0  0  0  0
   39.0318   22.9576   39.6777 H   0  0  0  0  0  0  0  0  0  0  0  0
   37.2578   24.6655   39.1152 H   0  0  0  0  0  0  0  0  0  0  0  0
   39.1910   26.4413   35.6372 H   0  0  0  0  0  0  0  0  0  0  0  0
   39.6244   26.2483   33.8883 H   0  0  0  0  0  0  0  0  0  0  0  0
   34.4231   29.0618   34.7067 H   0  0  0  0  0  0  0  0  0  0  0  0
   35.1536   31.3657   36.0980 H   0  0  0  0  0  0  0  0  0  0  0  0
   36.6725   31.0141   36.0135 H   0  0  0  0  0  0  0  0  0  0  0  0
   36.3923   31.2008   33.1874 H   0  0  0  0  0  0  0  0  0  0  0  0
   34.9652   31.7991   33.2797 H   0  0  0  0  0  0  0  0  0  0  0  0
  1  6  1  0
  2  3  2  0
  4  3  1  0
  5  4  2  0
  6  7  2  0
  6  5  1  0
  7  2  1  0
  8  1  1  0
  9  8  1  0
  9 13  1  0
 10  9  2  0
 11 10  1  0
 11 12  1  0
 12 14  1  0
 12 13  2  0
 14 15  1  0
 16 14  1  0
 16 15  1  0
  1 17  1  0
  1 18  1  0
  2 19  1  0
  3 20  1  0
  4 21  1  0
  8 22  1  0
  8 23  1  0
 14 24  1  0
 15 25  1  0
 15 26  1  0
 16 27  1  0
 16 28  1  0
M  ISO  8  17   8  18   8  19  14  20  14  21  14  22   8  23   8  24  13
M  ISO  4  25  13  26  13  27  13  28  13
M  END
>  <minimizedAffinity>  (1) 
-4.31470919

>  <minimizedRMSD>  (1) 
1.09154236

$$$$
