
     RDKit          3D

 28 30  0  0  0  0  0  0  0  0999 V2000
   37.8890   26.8740   35.3690 C   0  0  0  0  0  0  0  0  0  0  0  0
   37.0730   27.3260   34.2280 C   0  0  0  0  0  0  0  0  0  0  0  0
   37.0560   26.7360   33.0150 N   0  0  0  0  0  0  0  0  0  0  0  0
   36.2280   27.3940   32.2410 O   0  0  0  0  0  0  0  0  0  0  0  0
   35.6940   28.3970   32.8870 C   0  0  0  0  0  0  0  0  0  0  0  0
   36.2270   28.3530   34.1440 N   0  0  0  0  0  0  0  0  0  0  0  0
   34.7270   29.3910   32.4340 C   0  0  0  0  0  0  0  0  0  0  0  0
   34.9880   30.3720   31.4990 C   0  0  0  0  0  0  0  0  0  0  0  0
   33.8250   31.0730   31.3720 N   0  0  0  0  0  0  0  0  0  0  0  0
   32.9430   30.5040   32.2060 C   0  0  0  0  0  0  0  0  0  0  0  0
   33.4620   29.4550   32.8850 N   0  0  0  0  0  0  0  0  0  0  0  0
   38.7160   25.6580   35.0070 C   0  0  0  0  0  0  0  0  0  0  0  0
   39.5860   22.9150   37.3860 C   0  0  0  0  0  0  0  0  0  0  0  0
   38.7590   23.2280   38.4840 C   0  0  0  0  0  0  0  0  0  0  0  0
   37.9350   24.3550   38.3820 C   0  0  0  0  0  0  0  0  0  0  0  0
   37.9780   25.0850   37.2340 N   0  0  0  0  0  0  0  0  0  0  0  0
   38.7900   24.7470   36.2020 C   0  0  0  0  0  0  0  0  0  0  0  0
   39.5830   23.6800   36.2720 N   0  0  0  0  0  0  0  0  0  0  0  0
   38.5633   27.6885   35.6722 H   0  0  0  0  0  0  0  0  0  0  0  0
   37.2129   26.6012   36.1927 H   0  0  0  0  0  0  0  0  0  0  0  0
   35.9346   30.5508   30.9680 H   0  0  0  0  0  0  0  0  0  0  0  0
   31.9067   30.8531   32.3257 H   0  0  0  0  0  0  0  0  0  0  0  0
   32.9996   28.8512   33.5797 H   0  0  0  0  0  0  0  0  0  0  0  0
   38.2446   25.1274   34.1666 H   0  0  0  0  0  0  0  0  0  0  0  0
   39.7288   25.9698   34.7122 H   0  0  0  0  0  0  0  0  0  0  0  0
   40.2437   22.0347   37.4368 H   0  0  0  0  0  0  0  0  0  0  0  0
   38.7612   22.6066   39.3917 H   0  0  0  0  0  0  0  0  0  0  0  0
   37.2694   24.6434   39.2089 H   0  0  0  0  0  0  0  0  0  0  0  0
  2  1  1  0
  3  2  2  0
  4  5  1  0
  4  3  1  0
  5  6  2  0
  6  2  1  0
  7 11  1  0
  7  5  1  0
  8  7  2  0
  9  8  1  0
  9 10  2  0
 10 11  1  0
 12  1  1  0
 12 17  1  0
 13 14  2  0
 15 14  1  0
 16 15  2  0
 17 18  2  0
 17 16  1  0
 18 13  1  0
  1 19  1  0
  1 20  1  0
  8 21  1  0
 10 22  1  0
 11 23  1  0
 12 24  1  0
 12 25  1  0
 13 26  1  0
 14 27  1  0
 15 28  1  0
M  ISO  8  19   8  20   8  21  14  22  14  23   9  24   8  25   8  26  14
M  ISO  2  27  14  28  14
M  END
>  <minimizedAffinity>  (1) 
-4.40397453

>  <minimizedRMSD>  (1) 
0.69177407

$$$$
