
     RDKit          3D

 26 28  0  0  0  0  0  0  0  0999 V2000
   37.8960   26.9370   35.4450 C   0  0  0  0  0  0  0  0  0  0  0  0
   37.0310   27.4560   34.3630 C   0  0  0  0  0  0  0  0  0  0  0  0
   36.9360   26.9380   33.1000 N   0  0  0  0  0  0  0  0  0  0  0  0
   36.0790   27.6550   32.4340 O   0  0  0  0  0  0  0  0  0  0  0  0
   35.6020   28.6080   33.1640 C   0  0  0  0  0  0  0  0  0  0  0  0
   36.1870   28.5050   34.3890 N   0  0  0  0  0  0  0  0  0  0  0  0
   34.6310   29.4940   32.5530 C   0  0  0  0  0  0  0  0  0  0  0  0
   33.3140   29.4010   32.8520 N   0  0  0  0  0  0  0  0  0  0  0  0
   32.6930   30.3010   32.1720 O   0  0  0  0  0  0  0  0  0  0  0  0
   33.5300   31.0010   31.4240 C   0  0  0  0  0  0  0  0  0  0  0  0
   34.7690   30.4960   31.6590 N   0  0  0  0  0  0  0  0  0  0  0  0
   38.5800   25.6570   35.0100 C   0  0  0  0  0  0  0  0  0  0  0  0
   39.6130   22.9180   37.3250 C   0  0  0  0  0  0  0  0  0  0  0  0
   38.8230   23.2030   38.4460 C   0  0  0  0  0  0  0  0  0  0  0  0
   37.9550   24.3170   38.3980 C   0  0  0  0  0  0  0  0  0  0  0  0
   37.9400   25.0530   37.2530 N   0  0  0  0  0  0  0  0  0  0  0  0
   38.7200   24.7410   36.1930 C   0  0  0  0  0  0  0  0  0  0  0  0
   39.5360   23.6950   36.2370 N   0  0  0  0  0  0  0  0  0  0  0  0
   38.6594   27.6899   35.6907 H   0  0  0  0  0  0  0  0  0  0  0  0
   37.2739   26.7257   36.3272 H   0  0  0  0  0  0  0  0  0  0  0  0
   33.2735   31.8283   30.7459 H   0  0  0  0  0  0  0  0  0  0  0  0
   37.9771   25.1641   34.2331 H   0  0  0  0  0  0  0  0  0  0  0  0
   39.5759   25.8908   34.6056 H   0  0  0  0  0  0  0  0  0  0  0  0
   40.2965   22.0562   37.3383 H   0  0  0  0  0  0  0  0  0  0  0  0
   38.8772   22.5723   39.3456 H   0  0  0  0  0  0  0  0  0  0  0  0
   37.3155   24.5795   39.2537 H   0  0  0  0  0  0  0  0  0  0  0  0
  2  6  1  0
  2  1  1  0
  3  2  2  0
  4  3  1  0
  4  5  1  0
  5  6  2  0
  7  8  2  0
  7  5  1  0
  9  8  1  0
 10 11  2  0
 10  9  1  0
 11  7  1  0
 12  1  1  0
 12 17  1  0
 13 14  2  0
 15 14  1  0
 16 15  2  0
 17 18  2  0
 17 16  1  0
 18 13  1  0
  1 19  1  0
  1 20  1  0
 10 21  1  0
 12 22  1  0
 12 23  1  0
 13 24  1  0
 14 25  1  0
 15 26  1  0
M  ISO  8  19   8  20   8  21  14  22   8  23   8  24  14  25  14  26  14
M  END
>  <minimizedAffinity>  (1) 
-4.44683647

>  <minimizedRMSD>  (1) 
0.30336836

$$$$
