
     RDKit          3D

 30 31  0  0  0  0  0  0  0  0999 V2000
   38.5790   25.2070   34.9200 C   0  0  0  0  0  0  0  0  0  0  0  0
   39.6930   22.8640   37.6010 C   0  0  0  0  0  0  0  0  0  0  0  0
   38.8740   23.2420   38.6590 C   0  0  0  0  0  0  0  0  0  0  0  0
   37.9560   24.2860   38.4500 C   0  0  0  0  0  0  0  0  0  0  0  0
   37.9250   24.8670   37.2160 N   0  0  0  0  0  0  0  0  0  0  0  0
   38.7430   24.4650   36.2110 C   0  0  0  0  0  0  0  0  0  0  0  0
   39.6230   23.4740   36.3890 N   0  0  0  0  0  0  0  0  0  0  0  0
   38.6670   26.6940   35.1920 C   0  0  0  0  0  0  0  0  0  0  0  0
   37.5600   27.4260   34.5440 C   0  0  0  0  0  0  0  0  0  0  0  0
   37.0280   27.1070   33.3450 N   0  0  0  0  0  0  0  0  0  0  0  0
   36.0640   27.9580   33.0610 O   0  0  0  0  0  0  0  0  0  0  0  0
   35.9370   28.8170   34.0130 C   0  0  0  0  0  0  0  0  0  0  0  0
   36.8670   28.4940   34.9440 N   0  0  0  0  0  0  0  0  0  0  0  0
   35.0220   29.9840   34.2220 C   0  0  0  0  0  0  0  0  0  0  0  0
   35.5630   30.9160   35.2810 C   0  0  0  0  0  0  0  0  0  0  0  0
   33.6700   29.4880   34.6870 C   0  0  0  0  0  0  0  0  0  0  0  0
   37.5991   24.9698   34.4801 H   0  0  0  0  0  0  0  0  0  0  0  0
   39.3714   24.9100   34.2172 H   0  0  0  0  0  0  0  0  0  0  0  0
   40.4170   22.0492   37.7492 H   0  0  0  0  0  0  0  0  0  0  0  0
   38.9425   22.7374   39.6340 H   0  0  0  0  0  0  0  0  0  0  0  0
   37.2854   24.6230   39.2542 H   0  0  0  0  0  0  0  0  0  0  0  0
   38.6205   26.8627   36.2780 H   0  0  0  0  0  0  0  0  0  0  0  0
   39.6166   27.0661   34.7799 H   0  0  0  0  0  0  0  0  0  0  0  0
   34.9388   30.5230   33.2667 H   0  0  0  0  0  0  0  0  0  0  0  0
   35.3294   30.5135   36.2777 H   0  0  0  0  0  0  0  0  0  0  0  0
   36.6535   31.0056   35.1682 H   0  0  0  0  0  0  0  0  0  0  0  0
   35.1000   31.9074   35.1682 H   0  0  0  0  0  0  0  0  0  0  0  0
   33.6416   29.4776   35.7866 H   0  0  0  0  0  0  0  0  0  0  0  0
   32.8835   30.1561   34.3062 H   0  0  0  0  0  0  0  0  0  0  0  0
   33.5022   28.4698   34.3062 H   0  0  0  0  0  0  0  0  0  0  0  0
  1  8  1  0
  1  6  1  0
  2  3  2  0
  4  3  1  0
  5  4  2  0
  6  7  2  0
  6  5  1  0
  7  2  1  0
  9 13  1  0
  9  8  1  0
 10  9  2  0
 11 10  1  0
 11 12  1  0
 12 14  1  0
 12 13  2  0
 14 16  1  0
 14 15  1  0
  1 17  1  0
  1 18  1  0
  2 19  1  0
  3 20  1  0
  4 21  1  0
  8 22  1  0
  8 23  1  0
 14 24  1  0
 15 25  1  0
 15 26  1  0
 15 27  1  0
 16 28  1  0
 16 29  1  0
 16 30  1  0
M  ISO  8  17   8  18   8  19  14  20  14  21  14  22   8  23   8  24   8
M  ISO  6  25   8  26   8  27   8  28   8  29   8  30   8
M  END
>  <minimizedAffinity>  (1) 
-4.27327728

>  <minimizedRMSD>  (1) 
0.699944913

$$$$
