
     RDKit          3D

 33 36  0  0  0  0  0  0  0  0999 V2000
   39.3530   26.2340   34.9190 C   0  0  0  0  0  0  0  0  0  0  0  0
   40.6760   22.9620   36.1510 C   0  0  0  0  0  0  0  0  0  0  0  0
   39.5660   22.1320   35.9270 C   0  0  0  0  0  0  0  0  0  0  0  0
   38.4100   22.6960   35.3680 C   0  0  0  0  0  0  0  0  0  0  0  0
   38.4160   24.0210   35.0720 N   0  0  0  0  0  0  0  0  0  0  0  0
   39.5010   24.8010   35.2980 C   0  0  0  0  0  0  0  0  0  0  0  0
   40.6200   24.2910   35.8290 N   0  0  0  0  0  0  0  0  0  0  0  0
   37.2480   21.8690   35.1230 C   0  0  0  0  0  0  0  0  0  0  0  0
   36.4170   21.4040   36.0670 N   0  0  0  0  0  0  0  0  0  0  0  0
   35.4980   20.7040   35.4720 O   0  0  0  0  0  0  0  0  0  0  0  0
   35.7050   20.7020   34.1900 C   0  0  0  0  0  0  0  0  0  0  0  0
   36.8210   21.4430   33.9440 N   0  0  0  0  0  0  0  0  0  0  0  0
   38.0190   26.7440   35.3570 C   0  0  0  0  0  0  0  0  0  0  0  0
   37.2150   27.2690   34.2190 C   0  0  0  0  0  0  0  0  0  0  0  0
   37.3370   26.8270   32.9590 N   0  0  0  0  0  0  0  0  0  0  0  0
   36.5050   27.4690   32.1790 O   0  0  0  0  0  0  0  0  0  0  0  0
   35.8270   28.3340   32.8990 C   0  0  0  0  0  0  0  0  0  0  0  0
   36.2580   28.2180   34.1560 N   0  0  0  0  0  0  0  0  0  0  0  0
   34.7880   29.2840   32.5130 C   0  0  0  0  0  0  0  0  0  0  0  0
   34.8060   30.3750   31.6700 C   0  0  0  0  0  0  0  0  0  0  0  0
   33.5290   30.9310   31.6650 C   0  0  0  0  0  0  0  0  0  0  0  0
   32.7970   30.1240   32.5270 C   0  0  0  0  0  0  0  0  0  0  0  0
   33.5620   29.1740   33.0010 O   0  0  0  0  0  0  0  0  0  0  0  0
   40.1452   26.8227   35.4045 H   0  0  0  0  0  0  0  0  0  0  0  0
   39.4342   26.3283   33.8261 H   0  0  0  0  0  0  0  0  0  0  0  0
   41.5945   22.5424   36.5871 H   0  0  0  0  0  0  0  0  0  0  0  0
   39.6022   21.0631   36.1842 H   0  0  0  0  0  0  0  0  0  0  0  0
   35.0879   20.1918   33.4358 H   0  0  0  0  0  0  0  0  0  0  0  0
   37.4644   25.9217   35.8327 H   0  0  0  0  0  0  0  0  0  0  0  0
   38.1891   27.5725   36.0603 H   0  0  0  0  0  0  0  0  0  0  0  0
   35.6743   30.7411   31.1025 H   0  0  0  0  0  0  0  0  0  0  0  0
   33.1790   31.8106   31.1049 H   0  0  0  0  0  0  0  0  0  0  0  0
   31.7341   30.2628   32.7740 H   0  0  0  0  0  0  0  0  0  0  0  0
  1  6  1  0
  1 13  1  0
  3  2  2  0
  4  3  1  0
  5  6  1  0
  5  4  2  0
  6  7  2  0
  7  2  1  0
  8  4  1  0
  8  9  2  0
 10  9  1  0
 11 10  1  0
 12 11  2  0
 12  8  1  0
 14 13  1  0
 15 14  2  0
 16 17  1  0
 16 15  1  0
 17 18  2  0
 18 14  1  0
 19 17  1  0
 19 23  1  0
 20 19  2  0
 21 20  1  0
 21 22  2  0
 22 23  1  0
  1 24  1  0
  1 25  1  0
  2 26  1  0
  3 27  1  0
 11 28  1  0
 13 29  1  0
 13 30  1  0
 20 31  1  0
 21 32  1  0
 22 33  1  0
M  ISO  8  24   8  25   8  26  14  27  14  28  14  29   8  30   8  31  14
M  ISO  2  32  14  33  14
M  END
>  <minimizedAffinity>  (1) 
-4.78362608

>  <minimizedRMSD>  (1) 
3.3846283

$$$$
