
     RDKit          3D

 40 42  0  0  0  0  0  0  0  0999 V2000
   37.9230   27.2840   34.0690 C   0  0  0  0  0  0  0  0  0  0  0  0
   36.6530   27.9600   33.6650 C   0  0  0  0  0  0  0  0  0  0  0  0
   36.0910   27.8740   32.4460 N   0  0  0  0  0  0  0  0  0  0  0  0
   34.9940   28.5730   32.4090 O   0  0  0  0  0  0  0  0  0  0  0  0
   34.8060   29.1310   33.5850 C   0  0  0  0  0  0  0  0  0  0  0  0
   35.8210   28.7660   34.3820 N   0  0  0  0  0  0  0  0  0  0  0  0
   33.7290   30.0090   34.0670 C   0  0  0  0  0  0  0  0  0  0  0  0
   33.1140   31.0960   33.4850 C   0  0  0  0  0  0  0  0  0  0  0  0
   32.1510   31.5540   34.3960 C   0  0  0  0  0  0  0  0  0  0  0  0
   32.2560   30.7060   35.4670 C   0  0  0  0  0  0  0  0  0  0  0  0
   33.1900   29.8090   35.2470 O   0  0  0  0  0  0  0  0  0  0  0  0
   38.4340   26.4140   32.9480 C   0  0  0  0  0  0  0  0  0  0  0  0
   39.5070   22.8500   33.2840 C   0  0  0  0  0  0  0  0  0  0  0  0
   39.2240   22.6150   34.6210 C   0  0  0  0  0  0  0  0  0  0  0  0
   38.6760   23.6560   35.3890 C   0  0  0  0  0  0  0  0  0  0  0  0
   38.4530   24.8490   34.7710 N   0  0  0  0  0  0  0  0  0  0  0  0
   38.7390   25.0510   33.4640 C   0  0  0  0  0  0  0  0  0  0  0  0
   39.2560   24.0660   32.7430 N   0  0  0  0  0  0  0  0  0  0  0  0
   38.3320   23.5210   36.8290 C   0  0  0  0  0  0  0  0  0  0  0  0
   38.0490   24.8860   37.4490 C   0  0  0  0  0  0  0  0  0  0  0  0
   39.5030   22.9590   37.6220 C   0  0  0  0  0  0  0  0  0  0  0  0
   37.1570   22.6230   37.0580 C   0  0  0  0  0  0  0  0  0  0  0  0
   38.6787   28.0461   34.3099 H   0  0  0  0  0  0  0  0  0  0  0  0
   37.7280   26.6542   34.9495 H   0  0  0  0  0  0  0  0  0  0  0  0
   33.3358   31.5227   32.4957 H   0  0  0  0  0  0  0  0  0  0  0  0
   31.4641   32.4049   34.2771 H   0  0  0  0  0  0  0  0  0  0  0  0
   31.6457   30.7675   36.3801 H   0  0  0  0  0  0  0  0  0  0  0  0
   39.3487   26.8586   32.5290 H   0  0  0  0  0  0  0  0  0  0  0  0
   37.6641   26.3415   32.1657 H   0  0  0  0  0  0  0  0  0  0  0  0
   39.9351   22.0492   32.6631 H   0  0  0  0  0  0  0  0  0  0  0  0
   39.4248   21.6319   35.0718 H   0  0  0  0  0  0  0  0  0  0  0  0
   38.0665   24.8014   38.5456 H   0  0  0  0  0  0  0  0  0  0  0  0
   38.8177   25.6027   37.1242 H   0  0  0  0  0  0  0  0  0  0  0  0
   37.0588   25.2381   37.1242 H   0  0  0  0  0  0  0  0  0  0  0  0
   39.2979   23.0574   38.6982 H   0  0  0  0  0  0  0  0  0  0  0  0
   39.6401   21.8970   37.3705 H   0  0  0  0  0  0  0  0  0  0  0  0
   40.4174   23.5164   37.3705 H   0  0  0  0  0  0  0  0  0  0  0  0
   36.9952   22.4993   38.1390 H   0  0  0  0  0  0  0  0  0  0  0  0
   36.2607   23.0684   36.6017 H   0  0  0  0  0  0  0  0  0  0  0  0
   37.3514   21.6412   36.6017 H   0  0  0  0  0  0  0  0  0  0  0  0
  2  1  1  0
  2  6  1  0
  3  2  2  0
  4  3  1  0
  4  5  1  0
  5  7  1  0
  5  6  2  0
  7 11  1  0
  8  7  2  0
  8  9  1  0
  9 10  2  0
 11 10  1  0
 12 17  1  0
 12  1  1  0
 13 14  2  0
 14 15  1  0
 15 19  1  0
 16 15  2  0
 17 16  1  0
 18 13  1  0
 18 17  2  0
 19 22  1  0
 19 20  1  0
 19 21  1  0
  1 23  1  0
  1 24  1  0
  8 25  1  0
  9 26  1  0
 10 27  1  0
 12 28  1  0
 12 29  1  0
 13 30  1  0
 14 31  1  0
 20 32  1  0
 20 33  1  0
 20 34  1  0
 21 35  1  0
 21 36  1  0
 21 37  1  0
 22 38  1  0
 22 39  1  0
 22 40  1  0
M  ISO  8  23   8  24   8  25  14  26  14  27  14  28   8  29   8  30  14
M  ISO  8  31  14  32   8  33   8  34   8  35   8  36   8  37   8  38   8
M  ISO  2  39   8  40   8
M  END
>  <minimizedAffinity>  (1) 
-4.16244364

>  <minimizedRMSD>  (1) 
2.70979881

$$$$
