
     RDKit          3D

 29 31  0  0  0  0  0  0  0  0999 V2000
   38.5870   27.2730   35.5230 C   0  0  0  0  0  0  0  0  0  0  0  0
   37.4620   27.7290   34.6600 C   0  0  0  0  0  0  0  0  0  0  0  0
   37.2810   27.3030   33.4020 N   0  0  0  0  0  0  0  0  0  0  0  0
   36.2140   27.8740   32.8940 O   0  0  0  0  0  0  0  0  0  0  0  0
   35.6900   28.6670   33.7950 C   0  0  0  0  0  0  0  0  0  0  0  0
   36.4500   28.5880   34.8900 N   0  0  0  0  0  0  0  0  0  0  0  0
   34.5000   29.5320   33.7400 C   0  0  0  0  0  0  0  0  0  0  0  0
   34.1580   30.5490   32.8600 C   0  0  0  0  0  0  0  0  0  0  0  0
   32.9190   31.0370   33.2660 C   0  0  0  0  0  0  0  0  0  0  0  0
   32.5920   30.2710   34.3790 C   0  0  0  0  0  0  0  0  0  0  0  0
   33.5340   29.3990   34.6340 O   0  0  0  0  0  0  0  0  0  0  0  0
   39.5980   26.4750   34.7510 C   0  0  0  0  0  0  0  0  0  0  0  0
   40.5740   22.9320   35.4200 C   0  0  0  0  0  0  0  0  0  0  0  0
   39.7050   22.6270   36.4820 C   0  0  0  0  0  0  0  0  0  0  0  0
   38.8110   23.6100   36.9520 C   0  0  0  0  0  0  0  0  0  0  0  0
   38.8460   24.8270   36.3330 N   0  0  0  0  0  0  0  0  0  0  0  0
   39.6920   25.1000   35.3100 C   0  0  0  0  0  0  0  0  0  0  0  0
   40.5400   24.1620   34.8670 N   0  0  0  0  0  0  0  0  0  0  0  0
   37.6820   23.2850   38.2960 S   0  0  0  0  0  0  0  0  0  0  0  0
   39.0841   28.1544   35.9543 H   0  0  0  0  0  0  0  0  0  0  0  0
   38.1720   26.6265   36.3103 H   0  0  0  0  0  0  0  0  0  0  0  0
   34.7526   30.9023   32.0046 H   0  0  0  0  0  0  0  0  0  0  0  0
   32.3311   31.8466   32.8089 H   0  0  0  0  0  0  0  0  0  0  0  0
   31.6679   30.3825   34.9652 H   0  0  0  0  0  0  0  0  0  0  0  0
   40.5802   26.9652   34.8213 H   0  0  0  0  0  0  0  0  0  0  0  0
   39.2857   26.4170   33.6979 H   0  0  0  0  0  0  0  0  0  0  0  0
   41.2761   22.1738   35.0429 H   0  0  0  0  0  0  0  0  0  0  0  0
   39.7226   21.6284   36.9429 H   0  0  0  0  0  0  0  0  0  0  0  0
   38.3277   23.4709   39.4899 H   0  0  0  0  0  0  0  0  0  0  0  0
  2  6  1  0
  2  1  1  0
  3  2  2  0
  4  3  1  0
  4  5  1  0
  5  6  2  0
  7  5  1  0
  7 11  1  0
  8  9  1  0
  8  7  2  0
  9 10  2  0
 10 11  1  0
 12 17  1  0
 12  1  1  0
 13 14  2  0
 14 15  1  0
 15 19  1  0
 16 15  2  0
 17 16  1  0
 18 17  2  0
 18 13  1  0
  1 20  1  0
  1 21  1  0
  8 22  1  0
  9 23  1  0
 10 24  1  0
 12 25  1  0
 12 26  1  0
 13 27  1  0
 14 28  1  0
 19 29  1  0
M  ISO  8  20   8  21   8  22  14  23  14  24  14  25   8  26   8  27  14
M  ISO  2  28  14  29  11
M  END
>  <minimizedAffinity>  (1) 
-4.04293394

>  <minimizedRMSD>  (1) 
1.48066032

$$$$
