
     RDKit          3D

 45 49  0  0  0  0  0  0  0  0999 V2000
   42.5690   24.9820   35.1380 C   0  0  0  0  0  0  0  0  0  0  0  0
   41.9170   23.8310   35.5700 C   0  0  0  0  0  0  0  0  0  0  0  0
   40.5130   23.8490   35.6320 C   0  0  0  0  0  0  0  0  0  0  0  0
   39.8470   24.9810   35.2700 N   0  0  0  0  0  0  0  0  0  0  0  0
   40.5360   26.0780   34.8540 C   0  0  0  0  0  0  0  0  0  0  0  0
   41.8790   26.0950   34.7840 N   0  0  0  0  0  0  0  0  0  0  0  0
   39.6960   27.2610   34.4830 C   0  0  0  0  0  0  0  0  0  0  0  0
   38.3070   27.0670   35.0160 C   0  0  0  0  0  0  0  0  0  0  0  0
   37.2850   27.4250   33.9910 C   0  0  0  0  0  0  0  0  0  0  0  0
   37.0670   26.7160   32.8580 N   0  0  0  0  0  0  0  0  0  0  0  0
   36.1120   27.2840   32.1740 O   0  0  0  0  0  0  0  0  0  0  0  0
   35.6820   28.3440   32.8020 C   0  0  0  0  0  0  0  0  0  0  0  0
   36.4030   28.4360   33.9260 N   0  0  0  0  0  0  0  0  0  0  0  0
   34.6420   29.3080   32.4590 C   0  0  0  0  0  0  0  0  0  0  0  0
   34.6580   30.4490   31.7030 C   0  0  0  0  0  0  0  0  0  0  0  0
   33.3710   30.9880   31.7090 C   0  0  0  0  0  0  0  0  0  0  0  0
   32.6440   30.1130   32.4880 C   0  0  0  0  0  0  0  0  0  0  0  0
   33.4010   29.1310   32.9220 O   0  0  0  0  0  0  0  0  0  0  0  0
   39.8260   22.6350   36.0870 C   0  0  0  0  0  0  0  0  0  0  0  0
   38.8860   22.1360   35.1030 N   0  0  0  0  0  0  0  0  0  0  0  0
   39.2430   22.1190   33.7950 C   0  0  0  0  0  0  0  0  0  0  0  0
   38.1920   21.6090   33.0930 N   0  0  0  0  0  0  0  0  0  0  0  0
   37.1980   21.3150   33.9570 C   0  0  0  0  0  0  0  0  0  0  0  0
   35.9120   20.7880   33.8800 C   0  0  0  0  0  0  0  0  0  0  0  0
   35.4870   20.4790   32.7520 O   0  0  0  0  0  0  0  0  0  0  0  0
   35.1430   20.6130   34.9690 N   0  0  0  0  0  0  0  0  0  0  0  0
   35.6640   20.9700   36.1650 C   0  0  0  0  0  0  0  0  0  0  0  0
   34.7730   20.7470   37.2650 N   0  0  0  0  0  0  0  0  0  0  0  0
   36.8910   21.4840   36.3290 N   0  0  0  0  0  0  0  0  0  0  0  0
   37.6390   21.6490   35.2190 C   0  0  0  0  0  0  0  0  0  0  0  0
   43.6676   24.9895   35.0824 H   0  0  0  0  0  0  0  0  0  0  0  0
   42.4843   22.9327   35.8548 H   0  0  0  0  0  0  0  0  0  0  0  0
   40.1325   28.1727   34.9170 H   0  0  0  0  0  0  0  0  0  0  0  0
   39.6609   27.3603   33.3881 H   0  0  0  0  0  0  0  0  0  0  0  0
   38.1756   26.0129   35.3018 H   0  0  0  0  0  0  0  0  0  0  0  0
   38.1722   27.7232   35.8885 H   0  0  0  0  0  0  0  0  0  0  0  0
   35.5319   30.8675   31.1822 H   0  0  0  0  0  0  0  0  0  0  0  0
   33.0177   31.9011   31.2075 H   0  0  0  0  0  0  0  0  0  0  0  0
   31.5734   30.2225   32.7156 H   0  0  0  0  0  0  0  0  0  0  0  0
   40.5772   21.8564   36.2860 H   0  0  0  0  0  0  0  0  0  0  0  0
   39.2606   22.8877   36.9961 H   0  0  0  0  0  0  0  0  0  0  0  0
   40.2037   22.4549   33.3775 H   0  0  0  0  0  0  0  0  0  0  0  0
   34.1930   20.2218   34.8952 H   0  0  0  0  0  0  0  0  0  0  0  0
   35.0681   20.9838   38.2230 H   0  0  0  0  0  0  0  0  0  0  0  0
   33.8375   20.3499   37.0976 H   0  0  0  0  0  0  0  0  0  0  0  0
  1  2  2  0
  2  3  1  0
  3 19  1  0
  4  3  2  0
  5  4  1  0
  6  5  2  0
  6  1  1  0
  7  5  1  0
  7  8  1  0
  9  8  1  0
 10  9  2  0
 11 12  1  0
 11 10  1  0
 12 13  2  0
 13  9  1  0
 14 12  1  0
 14 18  1  0
 15 16  1  0
 15 14  2  0
 16 17  2  0
 17 18  1  0
 20 30  1  0
 20 19  1  0
 21 20  1  0
 22 21  2  0
 22 23  1  0
 23 30  2  0
 24 23  1  0
 24 26  1  0
 25 24  2  0
 26 27  1  0
 27 29  2  0
 27 28  1  0
 30 29  1  0
  1 31  1  0
  2 32  1  0
  7 33  1  0
  7 34  1  0
  8 35  1  0
  8 36  1  0
 15 37  1  0
 16 38  1  0
 17 39  1  0
 19 40  1  0
 19 41  1  0
 21 42  1  0
 26 43  1  0
 28 44  1  0
 28 45  1  0
M  ISO  8  31  14  32  14  33   8  34   8  35   8  36   8  37  14  38  14
M  ISO  5  39  14  40   8  41   8  42  14  43   9
M  END
>  <minimizedAffinity>  (1) 
-6.07399321

>  <minimizedRMSD>  (1) 
2.6316824

$$$$
