
     RDKit          3D

 45 49  0  0  0  0  0  0  0  0999 V2000
   40.9210   23.4770   35.7900 C   0  0  0  0  0  0  0  0  0  0  0  0
   39.8870   22.9140   36.5030 C   0  0  0  0  0  0  0  0  0  0  0  0
   38.6800   23.6270   36.6680 C   0  0  0  0  0  0  0  0  0  0  0  0
   38.6050   24.8690   36.0950 N   0  0  0  0  0  0  0  0  0  0  0  0
   39.6450   25.3970   35.3980 C   0  0  0  0  0  0  0  0  0  0  0  0
   40.7900   24.7150   35.2440 N   0  0  0  0  0  0  0  0  0  0  0  0
   39.4040   26.7620   34.8370 C   0  0  0  0  0  0  0  0  0  0  0  0
   38.1160   27.3070   35.3690 C   0  0  0  0  0  0  0  0  0  0  0  0
   37.1680   27.6140   34.2450 C   0  0  0  0  0  0  0  0  0  0  0  0
   37.0790   26.9160   33.1060 N   0  0  0  0  0  0  0  0  0  0  0  0
   36.1630   27.4450   32.3490 O   0  0  0  0  0  0  0  0  0  0  0  0
   35.6300   28.4720   32.9300 C   0  0  0  0  0  0  0  0  0  0  0  0
   36.2470   28.5970   34.1240 N   0  0  0  0  0  0  0  0  0  0  0  0
   34.5830   29.3940   32.5170 C   0  0  0  0  0  0  0  0  0  0  0  0
   34.6070   30.4970   31.6950 C   0  0  0  0  0  0  0  0  0  0  0  0
   33.3200   31.0210   31.6390 C   0  0  0  0  0  0  0  0  0  0  0  0
   32.5700   30.1800   32.4560 C   0  0  0  0  0  0  0  0  0  0  0  0
   33.3440   29.2500   32.9450 O   0  0  0  0  0  0  0  0  0  0  0  0
   37.5760   23.0410   37.4170 C   0  0  0  0  0  0  0  0  0  0  0  0
   36.7650   22.1150   36.6220 C   0  0  0  0  0  0  0  0  0  0  0  0
   35.7070   21.4000   37.2030 C   0  0  0  0  0  0  0  0  0  0  0  0
   35.1180   20.6230   36.2470 N   0  0  0  0  0  0  0  0  0  0  0  0
   35.7930   20.8510   35.1100 C   0  0  0  0  0  0  0  0  0  0  0  0
   35.6080   20.3210   33.8480 C   0  0  0  0  0  0  0  0  0  0  0  0
   36.4070   20.6720   32.7800 C   0  0  0  0  0  0  0  0  0  0  0  0
   37.4280   21.5980   33.0170 C   0  0  0  0  0  0  0  0  0  0  0  0
   37.6350   22.1450   34.2720 C   0  0  0  0  0  0  0  0  0  0  0  0
   36.8040   21.7540   35.2960 C   0  0  0  0  0  0  0  0  0  0  0  0
   41.8611   22.9206   35.6609 H   0  0  0  0  0  0  0  0  0  0  0  0
   40.0008   21.9121   36.9426 H   0  0  0  0  0  0  0  0  0  0  0  0
   39.3500   26.7019   33.7400 H   0  0  0  0  0  0  0  0  0  0  0  0
   40.2294   27.4270   35.1309 H   0  0  0  0  0  0  0  0  0  0  0  0
   37.6567   26.5629   36.0364 H   0  0  0  0  0  0  0  0  0  0  0  0
   38.3246   28.2354   35.9209 H   0  0  0  0  0  0  0  0  0  0  0  0
   35.4899   30.8949   31.1733 H   0  0  0  0  0  0  0  0  0  0  0  0
   32.9734   31.9005   31.0766 H   0  0  0  0  0  0  0  0  0  0  0  0
   31.4936   30.2831   32.6579 H   0  0  0  0  0  0  0  0  0  0  0  0
   37.9889   22.4937   38.2772 H   0  0  0  0  0  0  0  0  0  0  0  0
   36.9185   23.8660   37.7284 H   0  0  0  0  0  0  0  0  0  0  0  0
   35.4013   21.4562   38.2582 H   0  0  0  0  0  0  0  0  0  0  0  0
   34.3162   19.9889   36.3734 H   0  0  0  0  0  0  0  0  0  0  0  0
   34.7968   19.5952   33.6895 H   0  0  0  0  0  0  0  0  0  0  0  0
   36.2475   20.2405   31.7808 H   0  0  0  0  0  0  0  0  0  0  0  0
   38.0827   21.8991   32.1859 H   0  0  0  0  0  0  0  0  0  0  0  0
   38.4418   22.8723   34.4454 H   0  0  0  0  0  0  0  0  0  0  0  0
  1  2  2  0
  2  3  1  0
  3 19  1  0
  4  3  2  0
  5  4  1  0
  6  5  2  0
  6  1  1  0
  7  8  1  0
  7  5  1  0
  9  8  1  0
 10  9  2  0
 11 12  1  0
 11 10  1  0
 12 13  2  0
 13  9  1  0
 14 12  1  0
 14 18  1  0
 15 14  2  0
 16 15  1  0
 16 17  2  0
 17 18  1  0
 20 21  2  0
 20 19  1  0
 22 21  1  0
 23 28  2  0
 23 22  1  0
 24 23  1  0
 25 26  1  0
 25 24  2  0
 26 27  2  0
 27 28  1  0
 28 20  1  0
  1 29  1  0
  2 30  1  0
  7 31  1  0
  7 32  1  0
  8 33  1  0
  8 34  1  0
 15 35  1  0
 16 36  1  0
 17 37  1  0
 19 38  1  0
 19 39  1  0
 21 40  1  0
 22 41  1  0
 24 42  1  0
 25 43  1  0
 26 44  1  0
 27 45  1  0
M  ISO  8  29  14  30  14  31   8  32   8  33   8  34   8  35  14  36  14
M  ISO  8  37  14  38   8  39   8  40  14  41   9  42  14  43  14  44  14
M  ISO  1  45  14
M  END
>  <minimizedAffinity>  (1) 
-5.84037256

>  <minimizedRMSD>  (1) 
1.34254336

$$$$
