
     RDKit          3D

 40 43  0  0  0  0  0  0  0  0999 V2000
   39.5170   27.1260   34.7910 C   0  0  0  0  0  0  0  0  0  0  0  0
   41.6270   24.0770   35.2540 C   0  0  0  0  0  0  0  0  0  0  0  0
   40.7100   23.1970   35.8040 C   0  0  0  0  0  0  0  0  0  0  0  0
   39.3850   23.6510   36.0110 C   0  0  0  0  0  0  0  0  0  0  0  0
   39.0660   24.9220   35.6640 N   0  0  0  0  0  0  0  0  0  0  0  0
   40.0080   25.7510   35.1250 C   0  0  0  0  0  0  0  0  0  0  0  0
   41.2670   25.3420   34.9210 N   0  0  0  0  0  0  0  0  0  0  0  0
   38.4090   22.7150   36.5950 C   0  0  0  0  0  0  0  0  0  0  0  0
   37.5600   22.0510   35.5990 C   0  0  0  0  0  0  0  0  0  0  0  0
   36.4450   21.3930   36.1150 C   0  0  0  0  0  0  0  0  0  0  0  0
   35.5690   20.7300   35.2750 C   0  0  0  0  0  0  0  0  0  0  0  0
   35.7900   20.7120   33.8950 C   0  0  0  0  0  0  0  0  0  0  0  0
   36.9210   21.3880   33.4240 C   0  0  0  0  0  0  0  0  0  0  0  0
   37.7700   22.0340   34.2710 N   0  0  0  0  0  0  0  0  0  0  0  0
   38.1200   27.3080   35.3280 C   0  0  0  0  0  0  0  0  0  0  0  0
   37.1640   27.6340   34.2240 C   0  0  0  0  0  0  0  0  0  0  0  0
   37.0820   26.9520   33.0560 N   0  0  0  0  0  0  0  0  0  0  0  0
   36.1590   27.4790   32.3090 O   0  0  0  0  0  0  0  0  0  0  0  0
   35.6150   28.4790   32.9150 C   0  0  0  0  0  0  0  0  0  0  0  0
   36.2340   28.5910   34.1170 N   0  0  0  0  0  0  0  0  0  0  0  0
   34.5540   29.3960   32.5290 C   0  0  0  0  0  0  0  0  0  0  0  0
   34.5270   30.5150   31.7440 C   0  0  0  0  0  0  0  0  0  0  0  0
   33.2330   31.0180   31.7070 C   0  0  0  0  0  0  0  0  0  0  0  0
   32.5230   30.1420   32.5020 C   0  0  0  0  0  0  0  0  0  0  0  0
   33.3130   29.2200   32.9600 O   0  0  0  0  0  0  0  0  0  0  0  0
   40.1841   27.8734   35.2452 H   0  0  0  0  0  0  0  0  0  0  0  0
   39.5085   27.2558   33.6987 H   0  0  0  0  0  0  0  0  0  0  0  0
   42.6621   23.7456   35.0847 H   0  0  0  0  0  0  0  0  0  0  0  0
   41.0035   22.1716   36.0731 H   0  0  0  0  0  0  0  0  0  0  0  0
   38.9591   21.9428   37.1527 H   0  0  0  0  0  0  0  0  0  0  0  0
   37.7439   23.3060   37.2418 H   0  0  0  0  0  0  0  0  0  0  0  0
   36.2602   21.4011   37.1993 H   0  0  0  0  0  0  0  0  0  0  0  0
   34.6933   20.2139   35.6953 H   0  0  0  0  0  0  0  0  0  0  0  0
   35.1057   20.1899   33.2101 H   0  0  0  0  0  0  0  0  0  0  0  0
   37.1295   21.3980   32.3440 H   0  0  0  0  0  0  0  0  0  0  0  0
   37.7989   26.3781   35.8201 H   0  0  0  0  0  0  0  0  0  0  0  0
   38.1247   28.1403   36.0472 H   0  0  0  0  0  0  0  0  0  0  0  0
   35.3937   30.9487   31.2236 H   0  0  0  0  0  0  0  0  0  0  0  0
   32.8623   31.9042   31.1712 H   0  0  0  0  0  0  0  0  0  0  0  0
   31.4464   30.2144   32.7160 H   0  0  0  0  0  0  0  0  0  0  0  0
  1  6  1  0
  1 15  1  0
  2  3  2  0
  3  4  1  0
  4  8  1  0
  5  4  2  0
  6  5  1  0
  7  6  2  0
  7  2  1  0
  9 10  2  0
  9  8  1  0
 11 10  1  0
 12 11  2  0
 13 12  1  0
 13 14  2  0
 14  9  1  0
 16 15  1  0
 17 16  2  0
 18 19  1  0
 18 17  1  0
 19 20  2  0
 20 16  1  0
 21 19  1  0
 21 25  1  0
 22 21  2  0
 23 22  1  0
 23 24  2  0
 24 25  1  0
  1 26  1  0
  1 27  1  0
  2 28  1  0
  3 29  1  0
  8 30  1  0
  8 31  1  0
 10 32  1  0
 11 33  1  0
 12 34  1  0
 13 35  1  0
 15 36  1  0
 15 37  1  0
 22 38  1  0
 23 39  1  0
 24 40  1  0
M  ISO  8  26   8  27   8  28  14  29  14  30   8  31   8  32  14  33  14
M  ISO  7  34  14  35  14  36   8  37   8  38  14  39  14  40  14
M  END
>  <minimizedAffinity>  (1) 
-5.41411734

>  <minimizedRMSD>  (1) 
1.76124609

$$$$
