
     RDKit          3D

 44 47  0  0  0  0  0  0  0  0999 V2000
   39.1880   27.3210   35.1460 C   0  0  0  0  0  0  0  0  0  0  0  0
   42.2220   25.1760   34.7790 C   0  0  0  0  0  0  0  0  0  0  0  0
   41.6590   23.9020   34.8820 C   0  0  0  0  0  0  0  0  0  0  0  0
   40.2800   23.7900   35.0720 C   0  0  0  0  0  0  0  0  0  0  0  0
   39.5430   24.9320   35.1480 N   0  0  0  0  0  0  0  0  0  0  0  0
   40.1190   26.1520   35.0440 C   0  0  0  0  0  0  0  0  0  0  0  0
   41.4480   26.2970   34.8610 N   0  0  0  0  0  0  0  0  0  0  0  0
   39.7160   22.4550   35.1760 C   0  0  0  0  0  0  0  0  0  0  0  0
   39.0110   22.1870   36.4530 C   0  0  0  0  0  0  0  0  0  0  0  0
   39.8890   22.6960   37.5850 C   0  0  0  0  0  0  0  0  0  0  0  0
   39.0030   23.4630   38.5200 C   0  0  0  0  0  0  0  0  0  0  0  0
   37.7290   23.7390   37.7950 C   0  0  0  0  0  0  0  0  0  0  0  0
   37.6820   22.8540   36.5910 C   0  0  0  0  0  0  0  0  0  0  0  0
   37.7850   26.8240   35.2490 C   0  0  0  0  0  0  0  0  0  0  0  0
   36.9630   27.2970   34.0880 C   0  0  0  0  0  0  0  0  0  0  0  0
   36.8680   26.6440   32.9010 N   0  0  0  0  0  0  0  0  0  0  0  0
   36.0830   27.3060   32.1030 O   0  0  0  0  0  0  0  0  0  0  0  0
   35.6460   28.3790   32.7050 C   0  0  0  0  0  0  0  0  0  0  0  0
   36.1840   28.3900   33.9460 N   0  0  0  0  0  0  0  0  0  0  0  0
   34.7530   29.4410   32.2580 C   0  0  0  0  0  0  0  0  0  0  0  0
   34.9290   30.4920   31.3980 C   0  0  0  0  0  0  0  0  0  0  0  0
   33.7370   31.2030   31.3340 C   0  0  0  0  0  0  0  0  0  0  0  0
   32.8780   30.5140   32.1910 C   0  0  0  0  0  0  0  0  0  0  0  0
   33.5130   29.4980   32.7050 O   0  0  0  0  0  0  0  0  0  0  0  0
   39.2900   27.9516   34.2505 H   0  0  0  0  0  0  0  0  0  0  0  0
   39.4362   27.9140   36.0386 H   0  0  0  0  0  0  0  0  0  0  0  0
   43.3070   25.2775   34.6293 H   0  0  0  0  0  0  0  0  0  0  0  0
   42.2900   23.0035   34.8147 H   0  0  0  0  0  0  0  0  0  0  0  0
   38.9999   22.3186   34.3522 H   0  0  0  0  0  0  0  0  0  0  0  0
   40.5609   21.7521   35.1296 H   0  0  0  0  0  0  0  0  0  0  0  0
   38.8274   21.1028   36.4801 H   0  0  0  0  0  0  0  0  0  0  0  0
   40.3519   21.8494   38.1133 H   0  0  0  0  0  0  0  0  0  0  0  0
   40.6957   23.3355   37.1973 H   0  0  0  0  0  0  0  0  0  0  0  0
   38.8015   22.8668   39.4222 H   0  0  0  0  0  0  0  0  0  0  0  0
   39.4850   24.4010   38.8327 H   0  0  0  0  0  0  0  0  0  0  0  0
   36.8722   23.5236   38.4504 H   0  0  0  0  0  0  0  0  0  0  0  0
   37.6814   24.7961   37.4945 H   0  0  0  0  0  0  0  0  0  0  0  0
   37.4718   23.4554   35.6943 H   0  0  0  0  0  0  0  0  0  0  0  0
   36.8877   22.1012   36.7023 H   0  0  0  0  0  0  0  0  0  0  0  0
   37.7926   25.7241   35.2605 H   0  0  0  0  0  0  0  0  0  0  0  0
   37.3410   27.2150   36.1763 H   0  0  0  0  0  0  0  0  0  0  0  0
   35.8536   30.7318   30.8525 H   0  0  0  0  0  0  0  0  0  0  0  0
   33.5198   32.1044   30.7421 H   0  0  0  0  0  0  0  0  0  0  0  0
   31.8324   30.7847   32.3995 H   0  0  0  0  0  0  0  0  0  0  0  0
  1 14  1  0
  2  7  2  0
  2  3  1  0
  3  4  2  0
  4  5  1  0
  4  8  1  0
  6  1  1  0
  6  5  2  0
  7  6  1  0
  8  9  1  0
  9 13  1  0
  9 10  1  0
 10 11  1  0
 12 11  1  0
 13 12  1  0
 15 14  1  0
 16 15  2  0
 17 18  1  0
 17 16  1  0
 18 19  2  0
 19 15  1  0
 20 18  1  0
 20 24  1  0
 21 20  2  0
 22 21  1  0
 22 23  2  0
 23 24  1  0
  1 25  1  0
  1 26  1  0
  2 27  1  0
  3 28  1  0
  8 29  1  0
  8 30  1  0
  9 31  1  0
 10 32  1  0
 10 33  1  0
 11 34  1  0
 11 35  1  0
 12 36  1  0
 12 37  1  0
 13 38  1  0
 13 39  1  0
 14 40  1  0
 14 41  1  0
 21 42  1  0
 22 43  1  0
 23 44  1  0
M  ISO  8  25   8  26   8  27  14  28  14  29   8  30   8  31  13  32  13
M  ISO  8  33  13  34  13  35  13  36  13  37  13  38  13  39  13  40   8
M  ISO  4  41   8  42  14  43  14  44  14
M  END
>  <minimizedAffinity>  (1) 
-5.21185589

>  <minimizedRMSD>  (1) 
2.27866554

$$$$
