
     RDKit          3D

 38 40  0  0  0  0  0  0  0  0999 V2000
   39.2700   26.9970   35.1330 C   0  0  0  0  0  0  0  0  0  0  0  0
   40.4430   23.4700   35.3610 C   0  0  0  0  0  0  0  0  0  0  0  0
   39.4860   22.9210   36.1940 C   0  0  0  0  0  0  0  0  0  0  0  0
   38.4410   23.7470   36.6790 C   0  0  0  0  0  0  0  0  0  0  0  0
   38.4400   25.0460   36.2940 N   0  0  0  0  0  0  0  0  0  0  0  0
   39.4030   25.5490   35.4710 C   0  0  0  0  0  0  0  0  0  0  0  0
   40.3980   24.7800   35.0020 N   0  0  0  0  0  0  0  0  0  0  0  0
   37.4420   23.1530   37.5560 C   0  0  0  0  0  0  0  0  0  0  0  0
   36.7980   22.0310   36.9000 N   0  0  0  0  0  0  0  0  0  0  0  0
   35.7350   21.3340   37.5290 C   0  0  0  0  0  0  0  0  0  0  0  0
   35.7230   21.2490   38.8150 N   0  0  0  0  0  0  0  0  0  0  0  0
   34.7230   20.7550   36.7270 N   0  0  0  0  0  0  0  0  0  0  0  0
   34.9330   20.7330   39.2570 H   0  0  0  0  0  0  0  0  0  0  0  0
   37.9360   27.4990   35.6040 C   0  0  0  0  0  0  0  0  0  0  0  0
   37.0520   27.8120   34.4490 C   0  0  0  0  0  0  0  0  0  0  0  0
   37.1140   27.1760   33.2480 N   0  0  0  0  0  0  0  0  0  0  0  0
   36.2160   27.6740   32.4470 O   0  0  0  0  0  0  0  0  0  0  0  0
   35.5490   28.6150   33.0510 C   0  0  0  0  0  0  0  0  0  0  0  0
   36.0580   28.7130   34.2970 N   0  0  0  0  0  0  0  0  0  0  0  0
   34.4600   29.4700   32.6070 C   0  0  0  0  0  0  0  0  0  0  0  0
   34.4440   30.5560   31.7530 C   0  0  0  0  0  0  0  0  0  0  0  0
   33.1330   31.0130   31.6690 C   0  0  0  0  0  0  0  0  0  0  0  0
   32.4280   30.1560   32.4950 C   0  0  0  0  0  0  0  0  0  0  0  0
   33.2270   29.2680   33.0280 O   0  0  0  0  0  0  0  0  0  0  0  0
   40.0714   27.5646   35.6286 H   0  0  0  0  0  0  0  0  0  0  0  0
   39.3481   27.1285   34.0437 H   0  0  0  0  0  0  0  0  0  0  0  0
   41.2565   22.8343   34.9815 H   0  0  0  0  0  0  0  0  0  0  0  0
   39.5347   21.8590   36.4763 H   0  0  0  0  0  0  0  0  0  0  0  0
   37.9304   22.8028   38.4773 H   0  0  0  0  0  0  0  0  0  0  0  0
   36.6817   23.9107   37.7965 H   0  0  0  0  0  0  0  0  0  0  0  0
   37.1167   21.7368   35.9658 H   0  0  0  0  0  0  0  0  0  0  0  0
   33.9443   20.2456   37.1686 H   0  0  0  0  0  0  0  0  0  0  0  0
   34.7651   20.8430   35.7016 H   0  0  0  0  0  0  0  0  0  0  0  0
   37.4586   26.7265   36.2247 H   0  0  0  0  0  0  0  0  0  0  0  0
   38.0912   28.4178   36.1886 H   0  0  0  0  0  0  0  0  0  0  0  0
   35.3135   30.9833   31.2321 H   0  0  0  0  0  0  0  0  0  0  0  0
   32.7465   31.8593   31.0821 H   0  0  0  0  0  0  0  0  0  0  0  0
   31.3449   30.2134   32.6783 H   0  0  0  0  0  0  0  0  0  0  0  0
  1  6  1  0
  1 14  1  0
  2  3  2  0
  3  4  1  0
  4  8  1  0
  5  4  2  0
  6  5  1  0
  7  2  1  0
  7  6  2  0
  9 10  1  0
  9  8  1  0
 10 11  2  0
 11 13  1  0
 12 10  1  0
 15 14  1  0
 16 15  2  0
 17 18  1  0
 17 16  1  0
 18 19  2  0
 19 15  1  0
 20 24  1  0
 20 18  1  0
 21 20  2  0
 22 21  1  0
 22 23  2  0
 23 24  1  0
  1 25  1  0
  1 26  1  0
  2 27  1  0
  3 28  1  0
  8 29  1  0
  8 30  1  0
  9 31  1  0
 12 32  1  0
 12 33  1  0
 14 34  1  0
 14 35  1  0
 21 36  1  0
 22 37  1  0
 23 38  1  0
M  ISO  8  25   8  26   8  27  14  28  14  29   8  30   8  34   8  35   8
M  ISO  3  36  14  37  14  38  14
M  END
>  <minimizedAffinity>  (1) 
-5.38724804

>  <minimizedRMSD>  (1) 
0.688325226

$$$$
