
     RDKit          3D

 36 39  0  0  0  0  0  0  0  0999 V2000
   39.3630   27.0530   35.1200 C   0  0  0  0  0  0  0  0  0  0  0  0
   41.2100   23.8150   35.2520 C   0  0  0  0  0  0  0  0  0  0  0  0
   40.2290   22.9740   35.7790 C   0  0  0  0  0  0  0  0  0  0  0  0
   38.9670   23.5150   36.0800 C   0  0  0  0  0  0  0  0  0  0  0  0
   38.7490   24.8350   35.8450 N   0  0  0  0  0  0  0  0  0  0  0  0
   39.7410   25.6160   35.3280 C   0  0  0  0  0  0  0  0  0  0  0  0
   40.9600   25.1300   35.0300 N   0  0  0  0  0  0  0  0  0  0  0  0
   37.9560   22.6160   36.6310 C   0  0  0  0  0  0  0  0  0  0  0  0
   37.1580   21.9030   35.6150 C   0  0  0  0  0  0  0  0  0  0  0  0
   36.0930   21.1440   35.9310 N   0  0  0  0  0  0  0  0  0  0  0  0
   35.5530   20.6200   34.8710 O   0  0  0  0  0  0  0  0  0  0  0  0
   36.2670   21.0320   33.8280 C   0  0  0  0  0  0  0  0  0  0  0  0
   37.2640   21.8280   34.2750 N   0  0  0  0  0  0  0  0  0  0  0  0
   37.9420   27.2680   35.5550 C   0  0  0  0  0  0  0  0  0  0  0  0
   37.0830   27.6340   34.3770 C   0  0  0  0  0  0  0  0  0  0  0  0
   37.1450   27.0110   33.1720 N   0  0  0  0  0  0  0  0  0  0  0  0
   36.2810   27.5550   32.3640 O   0  0  0  0  0  0  0  0  0  0  0  0
   35.6460   28.5160   32.9790 C   0  0  0  0  0  0  0  0  0  0  0  0
   36.1360   28.5740   34.2290 N   0  0  0  0  0  0  0  0  0  0  0  0
   34.5980   29.4250   32.5360 C   0  0  0  0  0  0  0  0  0  0  0  0
   34.6180   30.5150   31.6890 C   0  0  0  0  0  0  0  0  0  0  0  0
   33.3190   31.0240   31.6190 C   0  0  0  0  0  0  0  0  0  0  0  0
   32.5750   30.1880   32.4500 C   0  0  0  0  0  0  0  0  0  0  0  0
   33.3500   29.2720   32.9660 O   0  0  0  0  0  0  0  0  0  0  0  0
   40.0290   27.6964   35.7138 H   0  0  0  0  0  0  0  0  0  0  0  0
   39.4610   27.3059   34.0540 H   0  0  0  0  0  0  0  0  0  0  0  0
   42.2023   23.4051   35.0126 H   0  0  0  0  0  0  0  0  0  0  0  0
   40.4391   21.9088   35.9554 H   0  0  0  0  0  0  0  0  0  0  0  0
   38.4647   21.8678   37.2567 H   0  0  0  0  0  0  0  0  0  0  0  0
   37.2536   23.2431   37.1997 H   0  0  0  0  0  0  0  0  0  0  0  0
   36.0780   20.7691   32.7767 H   0  0  0  0  0  0  0  0  0  0  0  0
   37.5583   26.3429   36.0099 H   0  0  0  0  0  0  0  0  0  0  0  0
   37.9131   28.0891   36.2864 H   0  0  0  0  0  0  0  0  0  0  0  0
   35.4991   30.9117   31.1633 H   0  0  0  0  0  0  0  0  0  0  0  0
   32.9637   31.8887   31.0394 H   0  0  0  0  0  0  0  0  0  0  0  0
   31.4963   30.2852   32.6425 H   0  0  0  0  0  0  0  0  0  0  0  0
  1  6  1  0
  1 14  1  0
  2  3  2  0
  3  4  1  0
  4  8  1  0
  5  4  2  0
  6  5  1  0
  7  2  1  0
  7  6  2  0
  9 10  2  0
  9  8  1  0
 11 10  1  0
 12 13  2  0
 12 11  1  0
 13  9  1  0
 15 14  1  0
 16 15  2  0
 17 18  1  0
 17 16  1  0
 18 19  2  0
 19 15  1  0
 20 24  1  0
 20 18  1  0
 21 20  2  0
 22 21  1  0
 22 23  2  0
 23 24  1  0
  1 25  1  0
  1 26  1  0
  2 27  1  0
  3 28  1  0
  8 29  1  0
  8 30  1  0
 12 31  1  0
 14 32  1  0
 14 33  1  0
 21 34  1  0
 22 35  1  0
 23 36  1  0
M  ISO  8  25   8  26   8  27  14  28  14  29   8  30   8  31  14  32   8
M  ISO  4  33   8  34  14  35  14  36  14
M  END
>  <minimizedAffinity>  (1) 
-5.0671382

>  <minimizedRMSD>  (1) 
1.50881886

$$$$
