
     RDKit          3D

 37 40  0  0  0  0  0  0  0  0999 V2000
   39.3520   26.9580   35.1230 C   0  0  0  0  0  0  0  0  0  0  0  0
   41.0400   23.6310   35.4170 C   0  0  0  0  0  0  0  0  0  0  0  0
   40.0100   22.8590   35.9510 C   0  0  0  0  0  0  0  0  0  0  0  0
   38.7640   23.4810   36.2000 C   0  0  0  0  0  0  0  0  0  0  0  0
   38.6310   24.8010   35.9080 N   0  0  0  0  0  0  0  0  0  0  0  0
   39.6560   25.5130   35.3900 C   0  0  0  0  0  0  0  0  0  0  0  0
   40.8520   24.9480   35.1430 N   0  0  0  0  0  0  0  0  0  0  0  0
   37.6970   22.6570   36.7590 C   0  0  0  0  0  0  0  0  0  0  0  0
   36.9720   21.8840   35.7440 N   0  0  0  0  0  0  0  0  0  0  0  0
   35.9250   21.0410   35.8560 C   0  0  0  0  0  0  0  0  0  0  0  0
   35.6040   20.5670   34.6380 N   0  0  0  0  0  0  0  0  0  0  0  0
   36.4710   21.1330   33.7720 C   0  0  0  0  0  0  0  0  0  0  0  0
   37.2930   21.9250   34.4450 N   0  0  0  0  0  0  0  0  0  0  0  0
   37.9420   27.2580   35.5530 C   0  0  0  0  0  0  0  0  0  0  0  0
   37.1080   27.6430   34.3720 C   0  0  0  0  0  0  0  0  0  0  0  0
   37.2150   27.0910   33.1390 N   0  0  0  0  0  0  0  0  0  0  0  0
   36.3480   27.6490   32.3440 O   0  0  0  0  0  0  0  0  0  0  0  0
   35.6600   28.5510   32.9820 C   0  0  0  0  0  0  0  0  0  0  0  0
   36.1250   28.5550   34.2470 N   0  0  0  0  0  0  0  0  0  0  0  0
   34.5950   29.4320   32.5530 C   0  0  0  0  0  0  0  0  0  0  0  0
   34.5650   30.5190   31.7240 C   0  0  0  0  0  0  0  0  0  0  0  0
   33.2620   31.0000   31.6590 C   0  0  0  0  0  0  0  0  0  0  0  0
   32.5540   30.1490   32.4810 C   0  0  0  0  0  0  0  0  0  0  0  0
   33.3440   29.2520   32.9850 O   0  0  0  0  0  0  0  0  0  0  0  0
   40.0512   27.5911   35.6890 H   0  0  0  0  0  0  0  0  0  0  0  0
   39.4609   27.1646   34.0481 H   0  0  0  0  0  0  0  0  0  0  0  0
   42.0172   23.1681   35.2149 H   0  0  0  0  0  0  0  0  0  0  0  0
   40.1620   21.7925   36.1734 H   0  0  0  0  0  0  0  0  0  0  0  0
   38.1390   21.9562   37.4826 H   0  0  0  0  0  0  0  0  0  0  0  0
   36.9726   23.3365   37.2318 H   0  0  0  0  0  0  0  0  0  0  0  0
   35.4140   20.7818   36.7950 H   0  0  0  0  0  0  0  0  0  0  0  0
   36.4918   20.9643   32.6852 H   0  0  0  0  0  0  0  0  0  0  0  0
   37.5094   26.3643   36.0265 H   0  0  0  0  0  0  0  0  0  0  0  0
   37.9568   28.0942   36.2675 H   0  0  0  0  0  0  0  0  0  0  0  0
   35.4307   30.9438   31.1947 H   0  0  0  0  0  0  0  0  0  0  0  0
   32.8841   31.8592   31.0855 H   0  0  0  0  0  0  0  0  0  0  0  0
   31.4746   30.2204   32.6807 H   0  0  0  0  0  0  0  0  0  0  0  0
  1  6  1  0
  1 14  1  0
  2  3  2  0
  3  4  1  0
  4  8  1  0
  5  4  2  0
  6  5  1  0
  7  6  2  0
  7  2  1  0
  9 10  1  0
  9  8  1  0
 11 10  2  0
 12 13  2  0
 12 11  1  0
 13  9  1  0
 15 14  1  0
 16 15  2  0
 17 18  1  0
 17 16  1  0
 18 19  2  0
 19 15  1  0
 20 18  1  0
 20 24  1  0
 21 20  2  0
 22 21  1  0
 22 23  2  0
 23 24  1  0
  1 25  1  0
  1 26  1  0
  2 27  1  0
  3 28  1  0
  8 29  1  0
  8 30  1  0
 10 31  1  0
 12 32  1  0
 14 33  1  0
 14 34  1  0
 21 35  1  0
 22 36  1  0
 23 37  1  0
M  ISO  8  25   8  26   8  27  14  28  14  29   8  30   8  31  14  32  14
M  ISO  5  33   8  34   8  35  14  36  14  37  14
M  END
>  <minimizedAffinity>  (1) 
-5.01646519

>  <minimizedRMSD>  (1) 
1.40268672

$$$$
