
     RDKit          3D

 32 34  0  0  0  0  0  0  0  0999 V2000
   37.8160   27.5510   35.5850 C   0  0  0  0  0  0  0  0  0  0  0  0
   36.9560   27.8350   34.3900 C   0  0  0  0  0  0  0  0  0  0  0  0
   36.9350   27.1000   33.2670 N   0  0  0  0  0  0  0  0  0  0  0  0
   36.0810   27.6190   32.4290 O   0  0  0  0  0  0  0  0  0  0  0  0
   35.5320   28.6730   32.9540 C   0  0  0  0  0  0  0  0  0  0  0  0
   36.0610   28.8320   34.1770 N   0  0  0  0  0  0  0  0  0  0  0  0
   34.5340   29.5980   32.4430 C   0  0  0  0  0  0  0  0  0  0  0  0
   34.6090   30.6270   31.5250 C   0  0  0  0  0  0  0  0  0  0  0  0
   33.3430   31.1970   31.4020 C   0  0  0  0  0  0  0  0  0  0  0  0
   32.5490   30.4550   32.2820 C   0  0  0  0  0  0  0  0  0  0  0  0
   33.2720   29.5440   32.8610 O   0  0  0  0  0  0  0  0  0  0  0  0
   39.1410   26.9760   35.1390 C   0  0  0  0  0  0  0  0  0  0  0  0
   39.8560   23.3210   35.0960 C   0  0  0  0  0  0  0  0  0  0  0  0
   39.1640   22.9060   36.2340 C   0  0  0  0  0  0  0  0  0  0  0  0
   38.4630   23.8680   37.0030 C   0  0  0  0  0  0  0  0  0  0  0  0
   38.5010   25.1630   36.5880 N   0  0  0  0  0  0  0  0  0  0  0  0
   39.1850   25.5240   35.4760 C   0  0  0  0  0  0  0  0  0  0  0  0
   39.8560   24.6240   34.7340 N   0  0  0  0  0  0  0  0  0  0  0  0
   37.7420   23.4320   38.1910 C   0  0  0  0  0  0  0  0  0  0  0  0
   38.5020   22.5530   38.9890 O   0  0  0  0  0  0  0  0  0  0  0  0
   37.9914   28.4852   36.1387 H   0  0  0  0  0  0  0  0  0  0  0  0
   37.3057   26.8246   36.2346 H   0  0  0  0  0  0  0  0  0  0  0  0
   35.5130   30.9427   30.9836 H   0  0  0  0  0  0  0  0  0  0  0  0
   33.0386   32.0371   30.7604 H   0  0  0  0  0  0  0  0  0  0  0  0
   31.4754   30.6179   32.4574 H   0  0  0  0  0  0  0  0  0  0  0  0
   39.9606   27.4981   35.6544 H   0  0  0  0  0  0  0  0  0  0  0  0
   39.2529   27.1063   34.0525 H   0  0  0  0  0  0  0  0  0  0  0  0
   40.4044   22.5847   34.4901 H   0  0  0  0  0  0  0  0  0  0  0  0
   39.1625   21.8467   36.5303 H   0  0  0  0  0  0  0  0  0  0  0  0
   37.4810   24.3167   38.7903 H   0  0  0  0  0  0  0  0  0  0  0  0
   36.8439   22.8910   37.8583 H   0  0  0  0  0  0  0  0  0  0  0  0
   38.3343   22.7469   39.9452 H   0  0  0  0  0  0  0  0  0  0  0  0
  2  1  1  0
  3  2  2  0
  4  5  1  0
  4  3  1  0
  5  6  2  0
  6  2  1  0
  7 11  1  0
  7  5  1  0
  8  7  2  0
  9  8  1  0
  9 10  2  0
 10 11  1  0
 12 17  1  0
 12  1  1  0
 13 14  2  0
 14 15  1  0
 15 19  1  0
 16 15  2  0
 17 16  1  0
 18 13  1  0
 18 17  2  0
 19 20  1  0
  1 21  1  0
  1 22  1  0
  8 23  1  0
  9 24  1  0
 10 25  1  0
 12 26  1  0
 12 27  1  0
 13 28  1  0
 14 29  1  0
 19 30  1  0
 19 31  1  0
 20 32  1  0
M  ISO  8  21   8  22   8  23  14  24  14  25  14  26   8  27   8  28  14
M  ISO  4  29  14  30   8  31   8  32   3
M  END
>  <minimizedAffinity>  (1) 
-4.97773314

>  <minimizedRMSD>  (1) 
0.457250983

$$$$
