
     RDKit          3D

 38 41  0  0  0  0  0  0  0  0999 V2000
   39.5320   27.0380   33.9140 C   0  0  0  0  0  0  0  0  0  0  0  0
   41.0430   23.9510   32.4570 C   0  0  0  0  0  0  0  0  0  0  0  0
   40.5080   22.9740   33.2870 C   0  0  0  0  0  0  0  0  0  0  0  0
   39.6390   23.3610   34.3370 C   0  0  0  0  0  0  0  0  0  0  0  0
   39.3660   24.6910   34.4820 N   0  0  0  0  0  0  0  0  0  0  0  0
   39.9140   25.6210   33.6430 C   0  0  0  0  0  0  0  0  0  0  0  0
   40.7370   25.2540   32.6480 N   0  0  0  0  0  0  0  0  0  0  0  0
   39.0750   22.3390   35.2110 C   0  0  0  0  0  0  0  0  0  0  0  0
   38.7020   22.8230   36.5530 C   0  0  0  0  0  0  0  0  0  0  0  0
   39.6020   22.8890   37.6040 C   0  0  0  0  0  0  0  0  0  0  0  0
   38.9460   23.3880   38.7350 C   0  0  0  0  0  0  0  0  0  0  0  0
   37.6450   23.5980   38.2790 C   0  0  0  0  0  0  0  0  0  0  0  0
   37.5550   23.2590   37.0160 O   0  0  0  0  0  0  0  0  0  0  0  0
   38.1960   27.0760   34.5970 C   0  0  0  0  0  0  0  0  0  0  0  0
   37.1150   27.4750   33.6510 C   0  0  0  0  0  0  0  0  0  0  0  0
   36.8640   26.8550   32.4780 N   0  0  0  0  0  0  0  0  0  0  0  0
   35.8590   27.4380   31.8790 O   0  0  0  0  0  0  0  0  0  0  0  0
   35.4290   28.4180   32.6010 C   0  0  0  0  0  0  0  0  0  0  0  0
   36.1990   28.4560   33.7080 N   0  0  0  0  0  0  0  0  0  0  0  0
   34.3450   29.3820   32.4050 C   0  0  0  0  0  0  0  0  0  0  0  0
   34.3240   30.6210   31.7900 C   0  0  0  0  0  0  0  0  0  0  0  0
   33.0280   31.1170   31.8840 C   0  0  0  0  0  0  0  0  0  0  0  0
   32.3240   30.1220   32.5690 C   0  0  0  0  0  0  0  0  0  0  0  0
   33.1270   29.1290   32.8530 O   0  0  0  0  0  0  0  0  0  0  0  0
   39.4737   27.5898   32.9642 H   0  0  0  0  0  0  0  0  0  0  0  0
   40.2883   27.5031   34.5634 H   0  0  0  0  0  0  0  0  0  0  0  0
   41.7199   23.6627   31.6392 H   0  0  0  0  0  0  0  0  0  0  0  0
   40.7558   21.9137   33.1311 H   0  0  0  0  0  0  0  0  0  0  0  0
   38.1734   21.9333   34.7288 H   0  0  0  0  0  0  0  0  0  0  0  0
   39.8604   21.5828   35.3572 H   0  0  0  0  0  0  0  0  0  0  0  0
   40.6613   22.5964   37.5571 H   0  0  0  0  0  0  0  0  0  0  0  0
   39.3566   23.5702   39.7391 H   0  0  0  0  0  0  0  0  0  0  0  0
   36.8174   23.9898   38.8885 H   0  0  0  0  0  0  0  0  0  0  0  0
   37.9702   26.0770   34.9983 H   0  0  0  0  0  0  0  0  0  0  0  0
   38.2409   27.8196   35.4064 H   0  0  0  0  0  0  0  0  0  0  0  0
   35.1783   31.1234   31.3127 H   0  0  0  0  0  0  0  0  0  0  0  0
   32.6437   32.0755   31.5051 H   0  0  0  0  0  0  0  0  0  0  0  0
   31.2563   30.1673   32.8297 H   0  0  0  0  0  0  0  0  0  0  0  0
  1 14  1  0
  2  7  2  0
  2  3  1  0
  3  4  2  0
  4  5  1  0
  4  8  1  0
  6  1  1  0
  6  5  2  0
  7  6  1  0
  8  9  1  0
  9 13  1  0
  9 10  2  0
 10 11  1  0
 12 11  2  0
 13 12  1  0
 15 19  1  0
 15 14  1  0
 16 15  2  0
 17 16  1  0
 17 18  1  0
 18 19  2  0
 20 18  1  0
 20 24  1  0
 21 22  1  0
 21 20  2  0
 22 23  2  0
 23 24  1  0
  1 25  1  0
  1 26  1  0
  2 27  1  0
  3 28  1  0
  8 29  1  0
  8 30  1  0
 10 31  1  0
 11 32  1  0
 12 33  1  0
 14 34  1  0
 14 35  1  0
 21 36  1  0
 22 37  1  0
 23 38  1  0
M  ISO  8  25   8  26   8  27  14  28  14  29   8  30   8  31  14  32  14
M  ISO  6  33  14  34   8  35   8  36  14  37  14  38  14
M  END
>  <minimizedAffinity>  (1) 
-4.76385307

>  <minimizedRMSD>  (1) 
2.22431803

$$$$
