
     RDKit          3D

 45 49  0  0  0  0  0  0  0  0999 V2000
   38.7650   25.5240   35.0160 C   0  0  0  0  0  0  0  0  0  0  0  0
   37.9890   24.1240   38.3750 C   0  0  0  0  0  0  0  0  0  0  0  0
   38.9550   23.1190   38.4740 C   0  0  0  0  0  0  0  0  0  0  0  0
   39.8320   22.9440   37.4130 C   0  0  0  0  0  0  0  0  0  0  0  0
   39.7140   23.7520   36.3340 N   0  0  0  0  0  0  0  0  0  0  0  0
   38.7570   24.7280   36.2680 C   0  0  0  0  0  0  0  0  0  0  0  0
   37.9130   24.9080   37.2720 N   0  0  0  0  0  0  0  0  0  0  0  0
   40.8410   21.8900   37.5200 C   0  0  0  0  0  0  0  0  0  0  0  0
   42.0230   22.1170   36.6410 C   0  0  0  0  0  0  0  0  0  0  0  0
   42.2620   21.3430   35.4170 C   0  0  0  0  0  0  0  0  0  0  0  0
   43.0140   20.9400   36.6560 C   0  0  0  0  0  0  0  0  0  0  0  0
   38.3530   26.9340   35.2990 C   0  0  0  0  0  0  0  0  0  0  0  0
   37.4300   27.4550   34.2570 C   0  0  0  0  0  0  0  0  0  0  0  0
   37.5470   27.1550   32.9570 N   0  0  0  0  0  0  0  0  0  0  0  0
   36.6060   27.7520   32.2900 O   0  0  0  0  0  0  0  0  0  0  0  0
   35.8600   28.4410   33.0930 C   0  0  0  0  0  0  0  0  0  0  0  0
   36.3660   28.2650   34.3380 N   0  0  0  0  0  0  0  0  0  0  0  0
   34.6990   29.2760   32.8740 C   0  0  0  0  0  0  0  0  0  0  0  0
   33.5020   29.4030   33.5580 C   0  0  0  0  0  0  0  0  0  0  0  0
   32.7370   30.3580   32.9090 C   0  0  0  0  0  0  0  0  0  0  0  0
   33.5320   30.7680   31.8390 C   0  0  0  0  0  0  0  0  0  0  0  0
   34.6690   30.1230   31.8420 O   0  0  0  0  0  0  0  0  0  0  0  0
   33.1110   31.7800   30.8760 C   0  0  0  0  0  0  0  0  0  0  0  0
   33.8590   32.8720   30.4690 C   0  0  0  0  0  0  0  0  0  0  0  0
   33.1300   33.6040   29.5500 C   0  0  0  0  0  0  0  0  0  0  0  0
   31.9440   32.9010   29.4450 C   0  0  0  0  0  0  0  0  0  0  0  0
   31.9860   31.8530   30.2360 O   0  0  0  0  0  0  0  0  0  0  0  0
   38.0627   25.0774   34.2967 H   0  0  0  0  0  0  0  0  0  0  0  0
   39.7819   25.5240   34.5965 H   0  0  0  0  0  0  0  0  0  0  0  0
   37.2815   24.2807   39.2026 H   0  0  0  0  0  0  0  0  0  0  0  0
   39.0185   22.4834   39.3695 H   0  0  0  0  0  0  0  0  0  0  0  0
   41.1857   21.8407   38.5634 H   0  0  0  0  0  0  0  0  0  0  0  0
   40.3683   20.9511   37.1960 H   0  0  0  0  0  0  0  0  0  0  0  0
   42.0126   23.2028   36.8172 H   0  0  0  0  0  0  0  0  0  0  0  0
   41.4700   20.6880   35.0249 H   0  0  0  0  0  0  0  0  0  0  0  0
   42.5635   21.6075   34.3927 H   0  0  0  0  0  0  0  0  0  0  0  0
   44.0956   21.1243   36.7350 H   0  0  0  0  0  0  0  0  0  0  0  0
   43.1376   20.0170   37.2415 H   0  0  0  0  0  0  0  0  0  0  0  0
   37.8458   26.9685   36.2745 H   0  0  0  0  0  0  0  0  0  0  0  0
   39.2563   27.5617   35.3029 H   0  0  0  0  0  0  0  0  0  0  0  0
   33.2098   28.8436   34.4589 H   0  0  0  0  0  0  0  0  0  0  0  0
   31.7307   30.7126   33.1768 H   0  0  0  0  0  0  0  0  0  0  0  0
   34.8718   33.1179   30.8208 H   0  0  0  0  0  0  0  0  0  0  0  0
   33.4236   34.5261   29.0270 H   0  0  0  0  0  0  0  0  0  0  0  0
   31.0970   33.1764   28.7995 H   0  0  0  0  0  0  0  0  0  0  0  0
  1 12  1  0
  1  6  1  0
  2  3  2  0
  4  8  1  0
  4  3  1  0
  5  4  2  0
  6  5  1  0
  6  7  2  0
  7  2  1  0
  9 11  1  0
  9  8  1  0
 10  9  1  0
 10 11  1  0
 13 17  1  0
 13 12  1  0
 14 13  2  0
 15 14  1  0
 15 16  1  0
 16 17  2  0
 18 16  1  0
 18 19  2  0
 20 19  1  0
 21 22  1  0
 21 20  2  0
 22 18  1  0
 23 21  1  0
 24 23  2  0
 25 24  1  0
 26 25  2  0
 26 27  1  0
 27 23  1  0
  1 28  1  0
  1 29  1  0
  2 30  1  0
  3 31  1  0
  8 32  1  0
  8 33  1  0
  9 34  1  0
 10 35  1  0
 10 36  1  0
 11 37  1  0
 11 38  1  0
 12 39  1  0
 12 40  1  0
 19 41  1  0
 20 42  1  0
 24 43  1  0
 25 44  1  0
 26 45  1  0
M  ISO  8  28   8  29   8  30  14  31  14  32   8  33   8  34  13  35  13
M  ISO  8  36  13  37  13  38  13  39   8  40   8  41  14  42  14  43  14
M  ISO  2  44  14  45  14
M  END
>  <minimizedAffinity>  (1) 
-5.2020607

>  <minimizedRMSD>  (1) 
3.79853559

$$$$
