
     RDKit          3D

 48 52  0  0  0  0  0  0  0  0999 V2000
   37.7140   26.8360   35.5260 C   0  0  0  0  0  0  0  0  0  0  0  0
   37.2290   27.6030   34.3460 C   0  0  0  0  0  0  0  0  0  0  0  0
   36.1580   28.4110   34.3770 N   0  0  0  0  0  0  0  0  0  0  0  0
   35.9780   28.9420   33.2000 O   0  0  0  0  0  0  0  0  0  0  0  0
   36.8860   28.5210   32.3880 C   0  0  0  0  0  0  0  0  0  0  0  0
   37.6930   27.6710   33.0810 N   0  0  0  0  0  0  0  0  0  0  0  0
   37.1450   28.7930   30.9880 C   0  0  0  0  0  0  0  0  0  0  0  0
   37.5320   27.9850   29.9320 C   0  0  0  0  0  0  0  0  0  0  0  0
   37.6350   28.7640   28.7990 C   0  0  0  0  0  0  0  0  0  0  0  0
   37.2940   30.0420   29.2360 C   0  0  0  0  0  0  0  0  0  0  0  0
   37.0140   30.0310   30.5080 O   0  0  0  0  0  0  0  0  0  0  0  0
   37.2530   31.2460   28.3840 C   0  0  0  0  0  0  0  0  0  0  0  0
   36.6730   32.3670   28.9430 C   0  0  0  0  0  0  0  0  0  0  0  0
   36.6120   33.5300   28.1710 C   0  0  0  0  0  0  0  0  0  0  0  0
   37.1390   33.4880   26.8900 C   0  0  0  0  0  0  0  0  0  0  0  0
   37.7240   32.3650   26.3220 C   0  0  0  0  0  0  0  0  0  0  0  0
   37.7750   31.2120   27.1070 C   0  0  0  0  0  0  0  0  0  0  0  0
   38.0670   25.4230   35.1610 C   0  0  0  0  0  0  0  0  0  0  0  0
   38.1240   24.0430   38.6210 C   0  0  0  0  0  0  0  0  0  0  0  0
   39.1360   23.0870   38.5120 C   0  0  0  0  0  0  0  0  0  0  0  0
   39.7710   22.9320   37.2770 C   0  0  0  0  0  0  0  0  0  0  0  0
   39.3750   23.7160   36.2510 N   0  0  0  0  0  0  0  0  0  0  0  0
   38.3810   24.6440   36.3880 C   0  0  0  0  0  0  0  0  0  0  0  0
   37.7660   24.8050   37.5540 N   0  0  0  0  0  0  0  0  0  0  0  0
   40.8260   21.9310   37.1700 C   0  0  0  0  0  0  0  0  0  0  0  0
   42.1250   22.5050   36.7080 C   0  0  0  0  0  0  0  0  0  0  0  0
   42.6230   22.3240   35.3420 C   0  0  0  0  0  0  0  0  0  0  0  0
   43.2060   21.4470   36.4330 C   0  0  0  0  0  0  0  0  0  0  0  0
   38.6071   27.3333   35.9323 H   0  0  0  0  0  0  0  0  0  0  0  0
   36.9064   26.8066   36.2723 H   0  0  0  0  0  0  0  0  0  0  0  0
   37.7248   26.9035   29.9877 H   0  0  0  0  0  0  0  0  0  0  0  0
   37.9205   28.4491   27.7844 H   0  0  0  0  0  0  0  0  0  0  0  0
   36.2705   32.3453   29.9665 H   0  0  0  0  0  0  0  0  0  0  0  0
   36.1595   34.4507   28.5679 H   0  0  0  0  0  0  0  0  0  0  0  0
   37.0905   34.4046   26.2838 H   0  0  0  0  0  0  0  0  0  0  0  0
   38.1291   32.3827   25.2995 H   0  0  0  0  0  0  0  0  0  0  0  0
   38.2251   30.2888   26.7131 H   0  0  0  0  0  0  0  0  0  0  0  0
   37.2163   24.9575   34.6418 H   0  0  0  0  0  0  0  0  0  0  0  0
   38.9479   25.4296   34.5022 H   0  0  0  0  0  0  0  0  0  0  0  0
   37.6096   24.1812   39.5834 H   0  0  0  0  0  0  0  0  0  0  0  0
   39.4259   22.4716   39.3764 H   0  0  0  0  0  0  0  0  0  0  0  0
   40.9764   21.4722   38.1584 H   0  0  0  0  0  0  0  0  0  0  0  0
   40.5059   21.1919   36.4209 H   0  0  0  0  0  0  0  0  0  0  0  0
   41.9936   23.4121   37.3161 H   0  0  0  0  0  0  0  0  0  0  0  0
   43.2451   23.1056   34.8815 H   0  0  0  0  0  0  0  0  0  0  0  0
   42.1434   22.1230   34.3727 H   0  0  0  0  0  0  0  0  0  0  0  0
   42.9610   20.3755   36.4771 H   0  0  0  0  0  0  0  0  0  0  0  0
   44.2119   21.2225   36.8173 H   0  0  0  0  0  0  0  0  0  0  0  0
  2  3  2  0
  2  1  1  0
  4  3  1  0
  5  6  2  0
  5  4  1  0
  6  2  1  0
  7  5  1  0
  8  7  2  0
  9 10  2  0
  9  8  1  0
 10 11  1  0
 11  7  1  0
 12 13  2  0
 12 10  1  0
 14 13  1  0
 15 14  2  0
 16 15  1  0
 16 17  2  0
 17 12  1  0
 18  1  1  0
 18 23  1  0
 20 19  2  0
 21 20  1  0
 22 23  1  0
 22 21  2  0
 23 24  2  0
 24 19  1  0
 25 21  1  0
 26 25  1  0
 27 28  1  0
 27 26  1  0
 28 26  1  0
  1 29  1  0
  1 30  1  0
  8 31  1  0
  9 32  1  0
 13 33  1  0
 14 34  1  0
 15 35  1  0
 16 36  1  0
 17 37  1  0
 18 38  1  0
 18 39  1  0
 19 40  1  0
 20 41  1  0
 25 42  1  0
 25 43  1  0
 26 44  1  0
 27 45  1  0
 27 46  1  0
 28 47  1  0
 28 48  1  0
M  ISO  8  29   8  30   8  31  14  32  14  33  14  34  14  35  14  36  14
M  ISO  8  37  14  38   8  39   8  40  14  41  14  42   8  43   8  44  13
M  ISO  4  45  13  46  13  47  13  48  13
M  END
>  <minimizedAffinity>  (1) 
-5.2089057

>  <minimizedRMSD>  (1) 
1.48512161

$$$$
