
     RDKit          3D

 47 51  0  0  0  0  0  0  0  0999 V2000
   38.2290   25.3090   34.9690 C   0  0  0  0  0  0  0  0  0  0  0  0
   37.9690   24.1990   38.5190 C   0  0  0  0  0  0  0  0  0  0  0  0
   38.9740   23.2300   38.5730 C   0  0  0  0  0  0  0  0  0  0  0  0
   39.7010   22.9870   37.4160 C   0  0  0  0  0  0  0  0  0  0  0  0
   39.4080   23.6910   36.2970 N   0  0  0  0  0  0  0  0  0  0  0  0
   38.4200   24.6310   36.2740 C   0  0  0  0  0  0  0  0  0  0  0  0
   37.7050   24.8850   37.3760 N   0  0  0  0  0  0  0  0  0  0  0  0
   40.7580   21.9690   37.4710 C   0  0  0  0  0  0  0  0  0  0  0  0
   41.8910   22.2580   36.5380 C   0  0  0  0  0  0  0  0  0  0  0  0
   42.1620   21.4350   35.3560 C   0  0  0  0  0  0  0  0  0  0  0  0
   43.0080   21.2050   36.5840 C   0  0  0  0  0  0  0  0  0  0  0  0
   37.2670   26.4500   35.1270 C   0  0  0  0  0  0  0  0  0  0  0  0
   37.1800   27.2560   33.8690 C   0  0  0  0  0  0  0  0  0  0  0  0
   36.3100   28.2720   33.7030 N   0  0  0  0  0  0  0  0  0  0  0  0
   36.4710   28.7770   32.5120 O   0  0  0  0  0  0  0  0  0  0  0  0
   37.4040   28.1470   31.8850 C   0  0  0  0  0  0  0  0  0  0  0  0
   37.8680   27.1830   32.7170 N   0  0  0  0  0  0  0  0  0  0  0  0
   37.9640   28.3080   30.5580 C   0  0  0  0  0  0  0  0  0  0  0  0
   38.7720   27.4910   29.7850 C   0  0  0  0  0  0  0  0  0  0  0  0
   39.0170   28.1350   28.5800 C   0  0  0  0  0  0  0  0  0  0  0  0
   38.3260   29.3370   28.6960 C   0  0  0  0  0  0  0  0  0  0  0  0
   37.7250   29.4140   29.8500 O   0  0  0  0  0  0  0  0  0  0  0  0
   38.2780   30.3860   27.6560 C   0  0  0  0  0  0  0  0  0  0  0  0
   39.3220   30.4020   26.7490 C   0  0  0  0  0  0  0  0  0  0  0  0
   39.3300   31.3700   25.7430 C   0  0  0  0  0  0  0  0  0  0  0  0
   38.2550   32.2350   25.7670 C   0  0  0  0  0  0  0  0  0  0  0  0
   37.2100   32.2270   26.6680 C   0  0  0  0  0  0  0  0  0  0  0  0
   37.2520   31.2590   27.6290 N   0  0  0  0  0  0  0  0  0  0  0  0
   37.8273   24.5906   34.2392 H   0  0  0  0  0  0  0  0  0  0  0  0
   39.1961   25.6948   34.6143 H   0  0  0  0  0  0  0  0  0  0  0  0
   37.3780   24.4115   39.4221 H   0  0  0  0  0  0  0  0  0  0  0  0
   39.1821   22.6781   39.5015 H   0  0  0  0  0  0  0  0  0  0  0  0
   41.1506   21.9253   38.4976 H   0  0  0  0  0  0  0  0  0  0  0  0
   40.3119   21.0118   37.1633 H   0  0  0  0  0  0  0  0  0  0  0  0
   41.7741   23.3457   36.6534 H   0  0  0  0  0  0  0  0  0  0  0  0
   41.4336   20.6711   35.0464 H   0  0  0  0  0  0  0  0  0  0  0  0
   42.3873   21.6594   34.3030 H   0  0  0  0  0  0  0  0  0  0  0  0
   44.0637   21.5136   36.5985 H   0  0  0  0  0  0  0  0  0  0  0  0
   43.2603   20.3454   37.2223 H   0  0  0  0  0  0  0  0  0  0  0  0
   36.2709   26.0501   35.3676 H   0  0  0  0  0  0  0  0  0  0  0  0
   37.6264   27.1019   35.9369 H   0  0  0  0  0  0  0  0  0  0  0  0
   39.1541   26.5014   30.0760 H   0  0  0  0  0  0  0  0  0  0  0  0
   39.6179   27.7779   27.7306 H   0  0  0  0  0  0  0  0  0  0  0  0
   40.1339   29.6631   26.8192 H   0  0  0  0  0  0  0  0  0  0  0  0
   40.1298   31.4378   24.9909 H   0  0  0  0  0  0  0  0  0  0  0  0
   38.2285   33.0108   24.9876 H   0  0  0  0  0  0  0  0  0  0  0  0
   36.3904   32.9587   26.6147 H   0  0  0  0  0  0  0  0  0  0  0  0
  1 12  1  0
  1  6  1  0
  2  3  2  0
  4  8  1  0
  4  3  1  0
  5  4  2  0
  6  5  1  0
  6  7  2  0
  7  2  1  0
  9 11  1  0
  9  8  1  0
 10  9  1  0
 10 11  1  0
 13 12  1  0
 14 13  2  0
 15 14  1  0
 16 15  1  0
 16 17  2  0
 17 13  1  0
 18 16  1  0
 19 18  2  0
 20 21  2  0
 20 19  1  0
 21 22  1  0
 22 18  1  0
 23 21  1  0
 24 23  2  0
 25 26  2  0
 25 24  1  0
 26 27  1  0
 27 28  2  0
 28 23  1  0
  1 29  1  0
  1 30  1  0
  2 31  1  0
  3 32  1  0
  8 33  1  0
  8 34  1  0
  9 35  1  0
 10 36  1  0
 10 37  1  0
 11 38  1  0
 11 39  1  0
 12 40  1  0
 12 41  1  0
 19 42  1  0
 20 43  1  0
 24 44  1  0
 25 45  1  0
 26 46  1  0
 27 47  1  0
M  ISO  8  29   8  30   8  31  14  32  14  33   8  34   8  35  13  36  13
M  ISO  8  37  13  38  13  39  13  40   8  41   8  42  14  43  14  44  14
M  ISO  3  45  14  46  14  47  14
M  END
>  <minimizedAffinity>  (1) 
-5.17948008

>  <minimizedRMSD>  (1) 
0.966724575

$$$$
