
     RDKit          3D

 51 55  0  0  0  0  0  0  0  0999 V2000
   38.1150   25.4140   34.8710 C   0  0  0  0  0  0  0  0  0  0  0  0
   38.0300   24.1330   38.3690 C   0  0  0  0  0  0  0  0  0  0  0  0
   39.0380   23.1690   38.3360 C   0  0  0  0  0  0  0  0  0  0  0  0
   39.7230   22.9750   37.1260 C   0  0  0  0  0  0  0  0  0  0  0  0
   39.3820   23.7240   36.0520 N   0  0  0  0  0  0  0  0  0  0  0  0
   38.3850   24.6600   36.1240 C   0  0  0  0  0  0  0  0  0  0  0  0
   37.7160   24.8650   37.2670 N   0  0  0  0  0  0  0  0  0  0  0  0
   40.7770   21.9630   37.0930 C   0  0  0  0  0  0  0  0  0  0  0  0
   42.1200   22.5230   36.7770 C   0  0  0  0  0  0  0  0  0  0  0  0
   42.7100   22.4850   35.4280 C   0  0  0  0  0  0  0  0  0  0  0  0
   43.1810   21.4620   36.4330 C   0  0  0  0  0  0  0  0  0  0  0  0
   37.3320   26.6580   35.1830 C   0  0  0  0  0  0  0  0  0  0  0  0
   37.0820   27.4580   33.9380 C   0  0  0  0  0  0  0  0  0  0  0  0
   36.0960   28.3750   33.8450 N   0  0  0  0  0  0  0  0  0  0  0  0
   36.1240   28.9080   32.6620 O   0  0  0  0  0  0  0  0  0  0  0  0
   37.0930   28.3770   31.9600 C   0  0  0  0  0  0  0  0  0  0  0  0
   37.7040   27.4670   32.7460 N   0  0  0  0  0  0  0  0  0  0  0  0
   37.5410   28.6210   30.5940 C   0  0  0  0  0  0  0  0  0  0  0  0
   38.2760   27.8430   29.7350 C   0  0  0  0  0  0  0  0  0  0  0  0
   38.4150   28.5730   28.5550 C   0  0  0  0  0  0  0  0  0  0  0  0
   37.7400   29.7770   28.7750 C   0  0  0  0  0  0  0  0  0  0  0  0
   37.2320   29.7770   29.9880 O   0  0  0  0  0  0  0  0  0  0  0  0
   37.4250   30.9890   28.1220 N   0  0  0  0  0  0  0  0  0  0  0  0
   36.8820   32.0590   28.9820 C   0  0  0  0  0  0  0  0  0  0  0  0
   38.1270   32.9530   29.1980 C   0  0  0  0  0  0  0  0  0  0  0  0
   38.6970   33.2390   27.9690 O   0  0  0  0  0  0  0  0  0  0  0  0
   37.8960   32.9450   26.8790 C   0  0  0  0  0  0  0  0  0  0  0  0
   37.5630   31.4540   26.7600 C   0  0  0  0  0  0  0  0  0  0  0  0
   37.5360   24.7815   34.1820 H   0  0  0  0  0  0  0  0  0  0  0  0
   39.0703   25.6944   34.4034 H   0  0  0  0  0  0  0  0  0  0  0  0
   37.4783   24.3043   39.3051 H   0  0  0  0  0  0  0  0  0  0  0  0
   39.2882   22.5793   39.2302 H   0  0  0  0  0  0  0  0  0  0  0  0
   40.8246   21.4759   38.0781 H   0  0  0  0  0  0  0  0  0  0  0  0
   40.5228   21.2531   36.2921 H   0  0  0  0  0  0  0  0  0  0  0  0
   41.9769   23.3541   37.4832 H   0  0  0  0  0  0  0  0  0  0  0  0
   43.3909   23.2880   35.1092 H   0  0  0  0  0  0  0  0  0  0  0  0
   42.2929   22.4236   34.4120 H   0  0  0  0  0  0  0  0  0  0  0  0
   42.8960   20.4050   36.3258 H   0  0  0  0  0  0  0  0  0  0  0  0
   44.1505   21.1497   36.8483 H   0  0  0  0  0  0  0  0  0  0  0  0
   36.3673   26.3743   35.6289 H   0  0  0  0  0  0  0  0  0  0  0  0
   37.9133   27.2729   35.8859 H   0  0  0  0  0  0  0  0  0  0  0  0
   38.6773   26.8391   29.9378 H   0  0  0  0  0  0  0  0  0  0  0  0
   38.9452   28.2655   27.6416 H   0  0  0  0  0  0  0  0  0  0  0  0
   36.0761   32.6101   28.4752 H   0  0  0  0  0  0  0  0  0  0  0  0
   36.4282   31.6937   29.9151 H   0  0  0  0  0  0  0  0  0  0  0  0
   37.8273   33.8890   29.6920 H   0  0  0  0  0  0  0  0  0  0  0  0
   38.8561   32.4269   29.8317 H   0  0  0  0  0  0  0  0  0  0  0  0
   36.9552   33.5069   26.9747 H   0  0  0  0  0  0  0  0  0  0  0  0
   38.4560   33.2282   25.9756 H   0  0  0  0  0  0  0  0  0  0  0  0
   36.6234   31.3112   26.2061 H   0  0  0  0  0  0  0  0  0  0  0  0
   38.3400   30.9006   26.2123 H   0  0  0  0  0  0  0  0  0  0  0  0
  1 12  1  0
  1  6  1  0
  3  2  2  0
  4  3  1  0
  5  6  1  0
  5  4  2  0
  6  7  2  0
  7  2  1  0
  8  4  1  0
  9  8  1  0
 10 11  1  0
 10  9  1  0
 11  9  1  0
 13 12  1  0
 14 13  2  0
 15 14  1  0
 16 15  1  0
 16 17  2  0
 17 13  1  0
 18 16  1  0
 19 18  2  0
 20 21  2  0
 20 19  1  0
 21 22  1  0
 22 18  1  0
 23 21  1  0
 23 24  1  0
 24 25  1  0
 26 25  1  0
 27 26  1  0
 28 27  1  0
 28 23  1  0
  1 29  1  0
  1 30  1  0
  2 31  1  0
  3 32  1  0
  8 33  1  0
  8 34  1  0
  9 35  1  0
 10 36  1  0
 10 37  1  0
 11 38  1  0
 11 39  1  0
 12 40  1  0
 12 41  1  0
 19 42  1  0
 20 43  1  0
 24 44  1  0
 24 45  1  0
 25 46  1  0
 25 47  1  0
 27 48  1  0
 27 49  1  0
 28 50  1  0
 28 51  1  0
M  ISO  8  29   8  30   8  31  14  32  14  33   8  34   8  35  13  36  13
M  ISO  8  37  13  38  13  39  13  40   8  41   8  42  14  43  14  44  13
M  ISO  7  45  13  46  13  47  13  48  13  49  13  50  13  51  13
M  END
>  <minimizedAffinity>  (1) 
-5.17565775

>  <minimizedRMSD>  (1) 
1.13899767

$$$$
