
     RDKit          3D

 45 49  0  0  0  0  0  0  0  0999 V2000
   38.0610   25.4250   34.9720 C   0  0  0  0  0  0  0  0  0  0  0  0
   38.0900   24.0890   38.4500 C   0  0  0  0  0  0  0  0  0  0  0  0
   39.0920   23.1200   38.3610 C   0  0  0  0  0  0  0  0  0  0  0  0
   39.7290   22.9440   37.1330 C   0  0  0  0  0  0  0  0  0  0  0  0
   39.3520   23.7150   36.0850 N   0  0  0  0  0  0  0  0  0  0  0  0
   38.3670   24.6550   36.2070 C   0  0  0  0  0  0  0  0  0  0  0  0
   37.7420   24.8420   37.3730 N   0  0  0  0  0  0  0  0  0  0  0  0
   40.7770   21.9290   37.0490 C   0  0  0  0  0  0  0  0  0  0  0  0
   42.1270   22.4880   36.8560 C   0  0  0  0  0  0  0  0  0  0  0  0
   42.7960   22.6280   35.5600 C   0  0  0  0  0  0  0  0  0  0  0  0
   43.1810   21.4510   36.4200 C   0  0  0  0  0  0  0  0  0  0  0  0
   37.5150   26.7880   35.3450 C   0  0  0  0  0  0  0  0  0  0  0  0
   37.1400   27.5610   34.1210 C   0  0  0  0  0  0  0  0  0  0  0  0
   36.0930   28.3970   34.0470 N   0  0  0  0  0  0  0  0  0  0  0  0
   36.0290   28.9200   32.8530 O   0  0  0  0  0  0  0  0  0  0  0  0
   36.9990   28.4600   32.1310 C   0  0  0  0  0  0  0  0  0  0  0  0
   37.7090   27.6060   32.9040 N   0  0  0  0  0  0  0  0  0  0  0  0
   37.3770   28.7130   30.7560 C   0  0  0  0  0  0  0  0  0  0  0  0
   38.0030   27.9470   29.8020 C   0  0  0  0  0  0  0  0  0  0  0  0
   38.1270   28.6740   28.6330 C   0  0  0  0  0  0  0  0  0  0  0  0
   37.5470   29.8820   28.9590 C   0  0  0  0  0  0  0  0  0  0  0  0
   37.1240   29.8890   30.1770 O   0  0  0  0  0  0  0  0  0  0  0  0
   37.3930   31.0510   28.1020 C   0  0  0  0  0  0  0  0  0  0  0  0
   37.7020   31.3950   26.7970 C   0  0  0  0  0  0  0  0  0  0  0  0
   37.3710   32.6460   26.3840 C   0  0  0  0  0  0  0  0  0  0  0  0
   36.6990   33.6040   27.3140 C   0  0  0  0  0  0  0  0  0  0  0  0
   36.5660   32.5610   28.8740 S   0  0  0  0  0  0  0  0  0  0  0  0
   37.3123   24.8809   34.3775 H   0  0  0  0  0  0  0  0  0  0  0  0
   38.9808   25.5491   34.3816 H   0  0  0  0  0  0  0  0  0  0  0  0
   37.5734   24.2456   39.4084 H   0  0  0  0  0  0  0  0  0  0  0  0
   39.3708   22.5128   39.2349 H   0  0  0  0  0  0  0  0  0  0  0  0
   40.7722   21.3464   37.9820 H   0  0  0  0  0  0  0  0  0  0  0  0
   40.5557   21.3097   36.1673 H   0  0  0  0  0  0  0  0  0  0  0  0
   41.9542   23.2247   37.6543 H   0  0  0  0  0  0  0  0  0  0  0  0
   43.5150   23.4460   35.4055 H   0  0  0  0  0  0  0  0  0  0  0  0
   42.4396   22.7324   34.5246 H   0  0  0  0  0  0  0  0  0  0  0  0
   42.8767   20.4321   36.1383 H   0  0  0  0  0  0  0  0  0  0  0  0
   44.1147   21.0462   36.8375 H   0  0  0  0  0  0  0  0  0  0  0  0
   36.6244   26.6593   35.9776 H   0  0  0  0  0  0  0  0  0  0  0  0
   38.2930   27.3435   35.8892 H   0  0  0  0  0  0  0  0  0  0  0  0
   38.3518   26.9138   29.9466 H   0  0  0  0  0  0  0  0  0  0  0  0
   38.5773   28.3652   27.6781 H   0  0  0  0  0  0  0  0  0  0  0  0
   38.1966   30.6825   26.1205 H   0  0  0  0  0  0  0  0  0  0  0  0
   37.5999   32.9574   25.3541 H   0  0  0  0  0  0  0  0  0  0  0  0
   36.3711   34.6386   27.1348 H   0  0  0  0  0  0  0  0  0  0  0  0
  1 12  1  0
  1  6  1  0
  3  2  2  0
  4  3  1  0
  5  6  1  0
  5  4  2  0
  6  7  2  0
  7  2  1  0
  8  4  1  0
  9  8  1  0
 10 11  1  0
 10  9  1  0
 11  9  1  0
 13 12  1  0
 14 13  2  0
 15 14  1  0
 16 15  1  0
 16 17  2  0
 17 13  1  0
 18 16  1  0
 19 18  2  0
 20 21  2  0
 20 19  1  0
 21 22  1  0
 22 18  1  0
 23 27  1  0
 23 21  1  0
 24 23  2  0
 25 24  1  0
 25 26  2  0
 26 27  1  0
  1 28  1  0
  1 29  1  0
  2 30  1  0
  3 31  1  0
  8 32  1  0
  8 33  1  0
  9 34  1  0
 10 35  1  0
 10 36  1  0
 11 37  1  0
 11 38  1  0
 12 39  1  0
 12 40  1  0
 19 41  1  0
 20 42  1  0
 24 43  1  0
 25 44  1  0
 26 45  1  0
M  ISO  8  28   8  29   8  30  14  31  14  32   8  33   8  34  13  35  13
M  ISO  8  36  13  37  13  38  13  39   8  40   8  41  14  42  14  43  14
M  ISO  2  44  14  45  14
M  END
>  <minimizedAffinity>  (1) 
-5.13423872

>  <minimizedRMSD>  (1) 
1.17068136

$$$$
