
     RDKit          3D

 44 48  0  0  0  0  0  0  0  0999 V2000
   38.1010   25.4000   34.9690 C   0  0  0  0  0  0  0  0  0  0  0  0
   38.0500   24.1090   38.4530 C   0  0  0  0  0  0  0  0  0  0  0  0
   39.0600   23.1490   38.4070 C   0  0  0  0  0  0  0  0  0  0  0  0
   39.7360   22.9610   37.2000 C   0  0  0  0  0  0  0  0  0  0  0  0
   39.3740   23.7170   36.1410 N   0  0  0  0  0  0  0  0  0  0  0  0
   38.3820   24.6500   36.2130 C   0  0  0  0  0  0  0  0  0  0  0  0
   37.7270   24.8440   37.3520 N   0  0  0  0  0  0  0  0  0  0  0  0
   40.7950   21.9540   37.1580 C   0  0  0  0  0  0  0  0  0  0  0  0
   42.1250   22.5200   36.7950 C   0  0  0  0  0  0  0  0  0  0  0  0
   42.6630   22.4520   35.4330 C   0  0  0  0  0  0  0  0  0  0  0  0
   43.1750   21.4510   36.4400 C   0  0  0  0  0  0  0  0  0  0  0  0
   37.4390   26.7050   35.2710 C   0  0  0  0  0  0  0  0  0  0  0  0
   37.1660   27.4690   34.0130 C   0  0  0  0  0  0  0  0  0  0  0  0
   36.1480   28.3390   33.8660 N   0  0  0  0  0  0  0  0  0  0  0  0
   36.1740   28.8410   32.6660 O   0  0  0  0  0  0  0  0  0  0  0  0
   37.1620   28.3500   31.9980 C   0  0  0  0  0  0  0  0  0  0  0  0
   37.8000   27.4810   32.8350 N   0  0  0  0  0  0  0  0  0  0  0  0
   37.6330   28.5660   30.6480 C   0  0  0  0  0  0  0  0  0  0  0  0
   38.3730   27.7710   29.7880 C   0  0  0  0  0  0  0  0  0  0  0  0
   38.5410   28.4790   28.6020 C   0  0  0  0  0  0  0  0  0  0  0  0
   37.8800   29.6840   28.8190 C   0  0  0  0  0  0  0  0  0  0  0  0
   37.3680   29.7050   30.0050 O   0  0  0  0  0  0  0  0  0  0  0  0
   37.8100   30.7440   27.8040 C   0  0  0  0  0  0  0  0  0  0  0  0
   38.8250   30.7480   26.7960 C   0  0  0  0  0  0  0  0  0  0  0  0
   38.3670   32.2230   25.7430 S   0  0  0  0  0  0  0  0  0  0  0  0
   36.9100   32.5620   26.8370 C   0  0  0  0  0  0  0  0  0  0  0  0
   36.9460   31.7180   27.6650 N   0  0  0  0  0  0  0  0  0  0  0  0
   37.4382   24.7997   34.3285 H   0  0  0  0  0  0  0  0  0  0  0  0
   39.0535   25.5995   34.4562 H   0  0  0  0  0  0  0  0  0  0  0  0
   37.5048   24.2759   39.3937 H   0  0  0  0  0  0  0  0  0  0  0  0
   39.3172   22.5561   39.2971 H   0  0  0  0  0  0  0  0  0  0  0  0
   40.8727   21.4859   38.1504 H   0  0  0  0  0  0  0  0  0  0  0  0
   40.5246   21.2256   36.3794 H   0  0  0  0  0  0  0  0  0  0  0  0
   42.0068   23.3667   37.4872 H   0  0  0  0  0  0  0  0  0  0  0  0
   43.3296   23.2489   35.0716 H   0  0  0  0  0  0  0  0  0  0  0  0
   42.2078   22.3673   34.4352 H   0  0  0  0  0  0  0  0  0  0  0  0
   42.8884   20.3915   36.3672 H   0  0  0  0  0  0  0  0  0  0  0  0
   44.1595   21.1482   36.8262 H   0  0  0  0  0  0  0  0  0  0  0  0
   36.4882   26.5149   35.7904 H   0  0  0  0  0  0  0  0  0  0  0  0
   38.1109   27.3014   35.9057 H   0  0  0  0  0  0  0  0  0  0  0  0
   38.7578   26.7633   30.0035 H   0  0  0  0  0  0  0  0  0  0  0  0
   39.0762   28.1581   27.6962 H   0  0  0  0  0  0  0  0  0  0  0  0
   39.6686   30.0532   26.6711 H   0  0  0  0  0  0  0  0  0  0  0  0
   36.1722   33.3719   26.7379 H   0  0  0  0  0  0  0  0  0  0  0  0
  1 12  1  0
  1  6  1  0
  3  2  2  0
  4  3  1  0
  5  6  1  0
  5  4  2  0
  6  7  2  0
  7  2  1  0
  8  4  1  0
  9  8  1  0
 10 11  1  0
 10  9  1  0
 11  9  1  0
 13 12  1  0
 14 13  2  0
 15 14  1  0
 16 15  1  0
 16 17  2  0
 17 13  1  0
 18 16  1  0
 19 18  2  0
 20 21  2  0
 20 19  1  0
 21 22  1  0
 22 18  1  0
 23 21  1  0
 24 23  2  0
 25 24  1  0
 25 26  1  0
 26 27  2  0
 27 23  1  0
  1 28  1  0
  1 29  1  0
  2 30  1  0
  3 31  1  0
  8 32  1  0
  8 33  1  0
  9 34  1  0
 10 35  1  0
 10 36  1  0
 11 37  1  0
 11 38  1  0
 12 39  1  0
 12 40  1  0
 19 41  1  0
 20 42  1  0
 24 43  1  0
 26 44  1  0
M  ISO  8  28   8  29   8  30  14  31  14  32   8  33   8  34  13  35  13
M  ISO  8  36  13  37  13  38  13  39   8  40   8  41  14  42  14  43  14
M  ISO  1  44  14
M  END
>  <minimizedAffinity>  (1) 
-5.1489377

>  <minimizedRMSD>  (1) 
1.11544597

$$$$
