
     RDKit          3D

 52 56  0  0  0  0  0  0  0  0999 V2000
   38.3500   25.4310   35.0330 C   0  0  0  0  0  0  0  0  0  0  0  0
   38.0300   24.1020   38.5020 C   0  0  0  0  0  0  0  0  0  0  0  0
   39.0250   23.1420   38.5240 C   0  0  0  0  0  0  0  0  0  0  0  0
   39.7920   22.9610   37.3610 C   0  0  0  0  0  0  0  0  0  0  0  0
   39.5300   23.7230   36.2740 N   0  0  0  0  0  0  0  0  0  0  0  0
   38.5290   24.6670   36.2990 C   0  0  0  0  0  0  0  0  0  0  0  0
   37.7860   24.8600   37.3930 N   0  0  0  0  0  0  0  0  0  0  0  0
   40.8400   21.9460   37.3830 C   0  0  0  0  0  0  0  0  0  0  0  0
   42.0260   22.3210   36.5530 C   0  0  0  0  0  0  0  0  0  0  0  0
   42.3370   21.6830   35.2750 C   0  0  0  0  0  0  0  0  0  0  0  0
   43.1180   21.2470   36.5010 C   0  0  0  0  0  0  0  0  0  0  0  0
   37.4700   26.6310   35.2890 C   0  0  0  0  0  0  0  0  0  0  0  0
   37.2240   27.4020   34.0320 C   0  0  0  0  0  0  0  0  0  0  0  0
   36.2520   28.3210   33.9040 N   0  0  0  0  0  0  0  0  0  0  0  0
   36.2930   28.8170   32.7000 O   0  0  0  0  0  0  0  0  0  0  0  0
   37.2600   28.2570   32.0260 C   0  0  0  0  0  0  0  0  0  0  0  0
   37.8570   27.3670   32.8410 N   0  0  0  0  0  0  0  0  0  0  0  0
   37.7100   28.4570   30.6670 C   0  0  0  0  0  0  0  0  0  0  0  0
   38.4330   27.6540   29.8090 C   0  0  0  0  0  0  0  0  0  0  0  0
   38.5880   28.3270   28.6170 C   0  0  0  0  0  0  0  0  0  0  0  0
   37.9420   29.5390   28.7980 C   0  0  0  0  0  0  0  0  0  0  0  0
   37.4400   29.5840   30.0050 O   0  0  0  0  0  0  0  0  0  0  0  0
   37.6060   30.7750   28.1620 N   0  0  0  0  0  0  0  0  0  0  0  0
   36.8620   31.8220   28.8740 C   0  0  0  0  0  0  0  0  0  0  0  0
   37.6500   33.1080   28.6840 C   0  0  0  0  0  0  0  0  0  0  0  0
   38.9980   32.9030   28.2360 N   0  0  0  0  0  0  0  0  0  0  0  0
   39.1280   32.1570   27.0130 C   0  0  0  0  0  0  0  0  0  0  0  0
   37.9190   31.2350   26.8000 C   0  0  0  0  0  0  0  0  0  0  0  0
   37.8781   24.7846   34.2783 H   0  0  0  0  0  0  0  0  0  0  0  0
   39.3309   25.7674   34.6661 H   0  0  0  0  0  0  0  0  0  0  0  0
   37.4184   24.2593   39.4026 H   0  0  0  0  0  0  0  0  0  0  0  0
   39.2103   22.5384   39.4247 H   0  0  0  0  0  0  0  0  0  0  0  0
   41.1694   21.8032   38.4227 H   0  0  0  0  0  0  0  0  0  0  0  0
   40.4170   21.0233   36.9591 H   0  0  0  0  0  0  0  0  0  0  0  0
   41.9249   23.3825   36.8231 H   0  0  0  0  0  0  0  0  0  0  0  0
   42.8401   22.2610   34.4858 H   0  0  0  0  0  0  0  0  0  0  0  0
   41.7408   21.1532   34.5175 H   0  0  0  0  0  0  0  0  0  0  0  0
   42.9472   20.2563   36.9475 H   0  0  0  0  0  0  0  0  0  0  0  0
   44.1790   21.1799   36.7834 H   0  0  0  0  0  0  0  0  0  0  0  0
   36.5062   26.2887   35.6939 H   0  0  0  0  0  0  0  0  0  0  0  0
   37.9813   27.2900   36.0061 H   0  0  0  0  0  0  0  0  0  0  0  0
   38.8191   26.6496   30.0374 H   0  0  0  0  0  0  0  0  0  0  0  0
   39.1121   27.9772   27.7153 H   0  0  0  0  0  0  0  0  0  0  0  0
   35.8525   31.9275   28.4500 H   0  0  0  0  0  0  0  0  0  0  0  0
   36.7471   31.5768   29.9401 H   0  0  0  0  0  0  0  0  0  0  0  0
   37.1280   33.7273   27.9397 H   0  0  0  0  0  0  0  0  0  0  0  0
   37.7112   33.5936   29.6691 H   0  0  0  0  0  0  0  0  0  0  0  0
   39.4309   33.8267   28.0938 H   0  0  0  0  0  0  0  0  0  0  0  0
   39.1981   32.8591   26.1691 H   0  0  0  0  0  0  0  0  0  0  0  0
   40.0348   31.5374   27.0751 H   0  0  0  0  0  0  0  0  0  0  0  0
   37.0728   31.7875   26.3656 H   0  0  0  0  0  0  0  0  0  0  0  0
   38.1221   30.4102   26.1011 H   0  0  0  0  0  0  0  0  0  0  0  0
  1 12  1  0
  1  6  1  0
  2  3  2  0
  4  8  1  0
  4  3  1  0
  5  6  1  0
  5  4  2  0
  6  7  2  0
  7  2  1  0
  9  8  1  0
 10 11  1  0
 10  9  1  0
 11  9  1  0
 13 12  1  0
 14 13  2  0
 15 14  1  0
 16 15  1  0
 16 17  2  0
 17 13  1  0
 18 16  1  0
 19 18  2  0
 20 21  2  0
 20 19  1  0
 21 22  1  0
 22 18  1  0
 23 21  1  0
 23 24  1  0
 25 24  1  0
 26 25  1  0
 27 26  1  0
 28 27  1  0
 28 23  1  0
  1 29  1  0
  1 30  1  0
  2 31  1  0
  3 32  1  0
  8 33  1  0
  8 34  1  0
  9 35  1  0
 10 36  1  0
 10 37  1  0
 11 38  1  0
 11 39  1  0
 12 40  1  0
 12 41  1  0
 19 42  1  0
 20 43  1  0
 24 44  1  0
 24 45  1  0
 25 46  1  0
 25 47  1  0
 26 48  1  0
 27 49  1  0
 27 50  1  0
 28 51  1  0
 28 52  1  0
M  ISO  8  29   8  30   8  31  14  32  14  33   8  34   8  35  13  36  13
M  ISO  8  37  13  38  13  39  13  40   8  41   8  42  14  43  14  44  13
M  ISO  8  45  13  46  13  47  13  48   5  49  13  50  13  51  13  52  13
M  END
>  <minimizedAffinity>  (1) 
-5.12735796

>  <minimizedRMSD>  (1) 
0.923579514

$$$$
