
     RDKit          3D

 41 44  0  0  0  0  0  0  0  0999 V2000
   38.3190   25.4060   34.9810 C   0  0  0  0  0  0  0  0  0  0  0  0
   38.0300   24.1270   38.4600 C   0  0  0  0  0  0  0  0  0  0  0  0
   39.0290   23.1600   38.4710 C   0  0  0  0  0  0  0  0  0  0  0  0
   39.7740   22.9610   37.3080 C   0  0  0  0  0  0  0  0  0  0  0  0
   39.4840   23.7260   36.2240 N   0  0  0  0  0  0  0  0  0  0  0  0
   38.4990   24.6650   36.2490 C   0  0  0  0  0  0  0  0  0  0  0  0
   37.7750   24.8730   37.3420 N   0  0  0  0  0  0  0  0  0  0  0  0
   40.8180   21.9480   37.3250 C   0  0  0  0  0  0  0  0  0  0  0  0
   42.0590   22.3800   36.6140 C   0  0  0  0  0  0  0  0  0  0  0  0
   42.4330   21.8300   35.3020 C   0  0  0  0  0  0  0  0  0  0  0  0
   43.1240   21.2730   36.5250 C   0  0  0  0  0  0  0  0  0  0  0  0
   37.2600   26.4610   35.1450 C   0  0  0  0  0  0  0  0  0  0  0  0
   37.1250   27.2920   33.8980 C   0  0  0  0  0  0  0  0  0  0  0  0
   36.2520   28.2970   33.7840 N   0  0  0  0  0  0  0  0  0  0  0  0
   36.3600   28.8280   32.6030 O   0  0  0  0  0  0  0  0  0  0  0  0
   37.2790   28.2130   31.9180 C   0  0  0  0  0  0  0  0  0  0  0  0
   37.7710   27.2410   32.7200 N   0  0  0  0  0  0  0  0  0  0  0  0
   37.7870   28.4030   30.5730 C   0  0  0  0  0  0  0  0  0  0  0  0
   38.6030   27.6340   29.7790 C   0  0  0  0  0  0  0  0  0  0  0  0
   38.7710   28.2980   28.5700 C   0  0  0  0  0  0  0  0  0  0  0  0
   38.0240   29.4620   28.7090 C   0  0  0  0  0  0  0  0  0  0  0  0
   37.4630   29.4960   29.8840 O   0  0  0  0  0  0  0  0  0  0  0  0
   37.8820   30.5220   27.6690 C   0  0  0  0  0  0  0  0  0  0  0  0
   38.0147   24.7049   34.1899 H   0  0  0  0  0  0  0  0  0  0  0  0
   39.2690   25.8887   34.7081 H   0  0  0  0  0  0  0  0  0  0  0  0
   37.4328   24.2955   39.3683 H   0  0  0  0  0  0  0  0  0  0  0  0
   39.2274   22.5658   39.3752 H   0  0  0  0  0  0  0  0  0  0  0  0
   41.0729   21.7242   38.3714 H   0  0  0  0  0  0  0  0  0  0  0  0
   40.4280   21.0633   36.8004 H   0  0  0  0  0  0  0  0  0  0  0  0
   41.9721   23.4173   36.9696 H   0  0  0  0  0  0  0  0  0  0  0  0
   42.9994   22.4516   34.5929 H   0  0  0  0  0  0  0  0  0  0  0  0
   41.8685   21.3815   34.4712 H   0  0  0  0  0  0  0  0  0  0  0  0
   42.8990   20.2550   36.8759 H   0  0  0  0  0  0  0  0  0  0  0  0
   44.1650   21.1480   36.8575 H   0  0  0  0  0  0  0  0  0  0  0  0
   36.2972   25.9734   35.3577 H   0  0  0  0  0  0  0  0  0  0  0  0
   37.5508   27.1216   35.9751 H   0  0  0  0  0  0  0  0  0  0  0  0
   39.0450   26.6644   30.0520 H   0  0  0  0  0  0  0  0  0  0  0  0
   39.3615   27.9755   27.6998 H   0  0  0  0  0  0  0  0  0  0  0  0
   37.7511   31.4992   28.1569 H   0  0  0  0  0  0  0  0  0  0  0  0
   38.7853   30.5435   27.0416 H   0  0  0  0  0  0  0  0  0  0  0  0
   37.0049   30.3050   27.0416 H   0  0  0  0  0  0  0  0  0  0  0  0
  1 12  1  0
  1  6  1  0
  2  3  2  0
  4  8  1  0
  4  3  1  0
  5  6  1  0
  5  4  2  0
  6  7  2  0
  7  2  1  0
  9  8  1  0
 10 11  1  0
 10  9  1  0
 11  9  1  0
 13 12  1  0
 14 13  2  0
 15 14  1  0
 16 15  1  0
 16 17  2  0
 17 13  1  0
 18 16  1  0
 19 18  2  0
 20 21  2  0
 20 19  1  0
 21 22  1  0
 22 18  1  0
 23 21  1  0
  1 24  1  0
  1 25  1  0
  2 26  1  0
  3 27  1  0
  8 28  1  0
  8 29  1  0
  9 30  1  0
 10 31  1  0
 10 32  1  0
 11 33  1  0
 11 34  1  0
 12 35  1  0
 12 36  1  0
 19 37  1  0
 20 38  1  0
 23 39  1  0
 23 40  1  0
 23 41  1  0
M  ISO  8  24   8  25   8  26  14  27  14  28   8  29   8  30  13  31  13
M  ISO  8  32  13  33  13  34  13  35   8  36   8  37  14  38  14  39   8
M  ISO  2  40   8  41   8
M  END
>  <minimizedAffinity>  (1) 
-4.97343063

>  <minimizedRMSD>  (1) 
0.379742444

$$$$
