
     RDKit          3D

 40 43  0  0  0  0  0  0  0  0999 V2000
   37.9370   25.4960   34.8570 C   0  0  0  0  0  0  0  0  0  0  0  0
   38.0860   24.1470   38.3260 C   0  0  0  0  0  0  0  0  0  0  0  0
   39.0190   23.1170   38.1680 C   0  0  0  0  0  0  0  0  0  0  0  0
   39.5700   22.9010   36.9130 C   0  0  0  0  0  0  0  0  0  0  0  0
   39.1770   23.7030   35.8940 N   0  0  0  0  0  0  0  0  0  0  0  0
   38.2670   24.7040   36.0630 C   0  0  0  0  0  0  0  0  0  0  0  0
   37.7300   24.9200   37.2670 N   0  0  0  0  0  0  0  0  0  0  0  0
   40.5390   21.8250   36.7640 C   0  0  0  0  0  0  0  0  0  0  0  0
   41.8930   22.1610   37.2370 C   0  0  0  0  0  0  0  0  0  0  0  0
   42.8280   23.0500   36.5010 C   0  0  0  0  0  0  0  0  0  0  0  0
   43.0200   21.5580   36.3700 C   0  0  0  0  0  0  0  0  0  0  0  0
   37.4140   26.8500   35.2560 C   0  0  0  0  0  0  0  0  0  0  0  0
   37.0280   27.6540   34.0610 C   0  0  0  0  0  0  0  0  0  0  0  0
   36.0050   28.5110   34.0310 N   0  0  0  0  0  0  0  0  0  0  0  0
   35.9220   29.0610   32.8530 O   0  0  0  0  0  0  0  0  0  0  0  0
   36.8680   28.5920   32.0840 C   0  0  0  0  0  0  0  0  0  0  0  0
   37.5810   27.7010   32.8230 N   0  0  0  0  0  0  0  0  0  0  0  0
   37.2230   28.8580   30.7110 C   0  0  0  0  0  0  0  0  0  0  0  0
   37.7650   28.0890   29.7230 C   0  0  0  0  0  0  0  0  0  0  0  0
   37.8920   28.8710   28.5800 C   0  0  0  0  0  0  0  0  0  0  0  0
   37.4010   30.1140   28.9550 C   0  0  0  0  0  0  0  0  0  0  0  0
   37.0260   30.0660   30.1890 O   0  0  0  0  0  0  0  0  0  0  0  0
   37.3370   31.2670   28.0650 C   0  0  0  0  0  0  0  0  0  0  0  0
   37.6650   31.2000   26.8580 O   0  0  0  0  0  0  0  0  0  0  0  0
   37.1696   24.9670   34.2728 H   0  0  0  0  0  0  0  0  0  0  0  0
   38.8456   25.6248   34.2505 H   0  0  0  0  0  0  0  0  0  0  0  0
   37.6379   24.3322   39.3134 H   0  0  0  0  0  0  0  0  0  0  0  0
   39.3106   22.4896   39.0232 H   0  0  0  0  0  0  0  0  0  0  0  0
   40.1800   20.9561   37.3351 H   0  0  0  0  0  0  0  0  0  0  0  0
   40.6224   21.6222   35.6861 H   0  0  0  0  0  0  0  0  0  0  0  0
   41.5584   22.1762   38.2848 H   0  0  0  0  0  0  0  0  0  0  0  0
   42.4637   23.6295   35.6399 H   0  0  0  0  0  0  0  0  0  0  0  0
   43.4833   23.8832   36.7951 H   0  0  0  0  0  0  0  0  0  0  0  0
   42.7809   21.0485   35.4249 H   0  0  0  0  0  0  0  0  0  0  0  0
   43.8480   20.8524   36.5327 H   0  0  0  0  0  0  0  0  0  0  0  0
   36.5318   26.7182   35.8997 H   0  0  0  0  0  0  0  0  0  0  0  0
   38.2104   27.3859   35.7932 H   0  0  0  0  0  0  0  0  0  0  0  0
   38.0524   27.0312   29.8148 H   0  0  0  0  0  0  0  0  0  0  0  0
   38.2915   28.5719   27.5997 H   0  0  0  0  0  0  0  0  0  0  0  0
   36.9884   32.2295   28.4676 H   0  0  0  0  0  0  0  0  0  0  0  0
  1 12  1  0
  1  6  1  0
  3  2  2  0
  4  3  1  0
  5  6  1  0
  5  4  2  0
  6  7  2  0
  7  2  1  0
  8  4  1  0
  8  9  1  0
 10  9  1  0
 11 10  1  0
 11  9  1  0
 13 12  1  0
 14 13  2  0
 15 14  1  0
 16 17  2  0
 16 15  1  0
 17 13  1  0
 18 16  1  0
 19 18  2  0
 20 21  2  0
 20 19  1  0
 21 22  1  0
 22 18  1  0
 23 21  1  0
 24 23  2  0
  1 25  1  0
  1 26  1  0
  2 27  1  0
  3 28  1  0
  8 29  1  0
  8 30  1  0
  9 31  1  0
 10 32  1  0
 10 33  1  0
 11 34  1  0
 11 35  1  0
 12 36  1  0
 12 37  1  0
 19 38  1  0
 20 39  1  0
 23 40  1  0
M  ISO  8  25   8  26   8  27  14  28  14  29   8  30   8  31  13  32  13
M  ISO  8  33  13  34  13  35  13  36   8  37   8  38  14  39  14  40   6
M  END
>  <minimizedAffinity>  (1) 
-4.95294857

>  <minimizedRMSD>  (1) 
0.974781454

$$$$
