
     RDKit          3D

 44 46  0  0  0  0  0  0  0  0999 V2000
   40.1100   22.4800   36.9940 C   0  0  0  0  0  0  0  0  0  0  0  0
   39.4130   23.1300   38.0020 C   0  0  0  0  0  0  0  0  0  0  0  0
   38.1320   23.6290   37.7330 C   0  0  0  0  0  0  0  0  0  0  0  0
   37.6370   23.4500   36.4910 N   0  0  0  0  0  0  0  0  0  0  0  0
   38.3490   22.8100   35.5320 C   0  0  0  0  0  0  0  0  0  0  0  0
   39.5800   22.3180   35.7550 N   0  0  0  0  0  0  0  0  0  0  0  0
   37.7120   22.6850   34.2580 N   0  0  0  0  0  0  0  0  0  0  0  0
   37.6040   23.7920   33.3700 C   0  0  0  0  0  0  0  0  0  0  0  0
   37.7440   23.5020   31.9220 C   0  0  0  0  0  0  0  0  0  0  0  0
   37.5720   22.0890   31.4960 C   0  0  0  0  0  0  0  0  0  0  0  0
   37.9620   21.0730   32.5520 C   0  0  0  0  0  0  0  0  0  0  0  0
   37.1380   21.4420   33.7860 C   0  0  0  0  0  0  0  0  0  0  0  0
   41.4610   21.9370   37.2270 C   0  0  0  0  0  0  0  0  0  0  0  0
   42.4170   22.2040   36.0880 C   0  0  0  0  0  0  0  0  0  0  0  0
   42.6570   23.7070   36.0000 C   0  0  0  0  0  0  0  0  0  0  0  0
   43.8420   24.1160   36.8500 C   0  0  0  0  0  0  0  0  0  0  0  0
   45.1200   23.4960   36.3800 C   0  0  0  0  0  0  0  0  0  0  0  0
   44.7900   22.2900   35.5280 C   0  0  0  0  0  0  0  0  0  0  0  0
   43.7330   21.4840   36.2790 C   0  0  0  0  0  0  0  0  0  0  0  0
   39.8604   23.2520   38.9995 H   0  0  0  0  0  0  0  0  0  0  0  0
   37.5497   24.1490   38.5080 H   0  0  0  0  0  0  0  0  0  0  0  0
   36.6147   24.2476   33.5243 H   0  0  0  0  0  0  0  0  0  0  0  0
   38.4545   24.4443   33.6172 H   0  0  0  0  0  0  0  0  0  0  0  0
   36.9921   24.1028   31.3893 H   0  0  0  0  0  0  0  0  0  0  0  0
   38.7892   23.7468   31.6820 H   0  0  0  0  0  0  0  0  0  0  0  0
   36.5140   21.9318   31.2392 H   0  0  0  0  0  0  0  0  0  0  0  0
   38.2445   21.9313   30.6399 H   0  0  0  0  0  0  0  0  0  0  0  0
   37.7185   20.0543   32.2159 H   0  0  0  0  0  0  0  0  0  0  0  0
   39.0423   21.0887   32.7589 H   0  0  0  0  0  0  0  0  0  0  0  0
   36.0803   21.5811   33.5179 H   0  0  0  0  0  0  0  0  0  0  0  0
   37.1659   20.6547   34.5537 H   0  0  0  0  0  0  0  0  0  0  0  0
   41.8689   22.3955   38.1399 H   0  0  0  0  0  0  0  0  0  0  0  0
   41.3618   20.8454   37.3200 H   0  0  0  0  0  0  0  0  0  0  0  0
   41.9697   21.8269   35.1565 H   0  0  0  0  0  0  0  0  0  0  0  0
   42.8539   23.9795   34.9526 H   0  0  0  0  0  0  0  0  0  0  0  0
   41.7620   24.2280   36.3709 H   0  0  0  0  0  0  0  0  0  0  0  0
   43.9445   25.2105   36.8105 H   0  0  0  0  0  0  0  0  0  0  0  0
   43.6562   23.7662   37.8762 H   0  0  0  0  0  0  0  0  0  0  0  0
   45.6882   24.2256   35.7843 H   0  0  0  0  0  0  0  0  0  0  0  0
   45.7276   23.1892   37.2442 H   0  0  0  0  0  0  0  0  0  0  0  0
   45.6915   21.6788   35.3743 H   0  0  0  0  0  0  0  0  0  0  0  0
   44.4173   22.5992   34.5403 H   0  0  0  0  0  0  0  0  0  0  0  0
   43.9849   21.4329   37.3485 H   0  0  0  0  0  0  0  0  0  0  0  0
   43.6780   20.4536   35.8980 H   0  0  0  0  0  0  0  0  0  0  0  0
  1 13  1  0
  1  2  2  0
  3  2  1  0
  4  3  2  0
  5  6  2  0
  5  4  1  0
  6  1  1  0
  7  5  1  0
  8  7  1  0
  9  8  1  0
 10  9  1  0
 10 11  1  0
 11 12  1  0
 12  7  1  0
 14 19  1  0
 14 13  1  0
 15 14  1  0
 15 16  1  0
 17 16  1  0
 18 19  1  0
 18 17  1  0
  2 20  1  0
  3 21  1  0
  8 22  1  0
  8 23  1  0
  9 24  1  0
  9 25  1  0
 10 26  1  0
 10 27  1  0
 11 28  1  0
 11 29  1  0
 12 30  1  0
 12 31  1  0
 13 32  1  0
 13 33  1  0
 14 34  1  0
 15 35  1  0
 15 36  1  0
 16 37  1  0
 16 38  1  0
 17 39  1  0
 17 40  1  0
 18 41  1  0
 18 42  1  0
 19 43  1  0
 19 44  1  0
M  ISO  8  20  14  21  14  22  13  23  13  24  13  25  13  26  13  27  13
M  ISO  8  28  13  29  13  30  13  31  13  32   8  33   8  34  13  35  13
M  ISO  8  36  13  37  13  38  13  39  13  40  13  41  13  42  13  43  13
M  ISO  1  44  13
M  END
>  <minimizedAffinity>  (1) 
-4.87482548

>  <minimizedRMSD>  (1) 
3.37982798

$$$$
