
     RDKit          3D

 35 36  0  0  0  0  0  0  0  0999 V2000
   38.6280   26.6220   34.3220 C   0  0  0  0  0  0  0  0  0  0  0  0
   37.7020   27.5300   35.1210 C   0  0  0  0  0  0  0  0  0  0  0  0
   38.5830   27.0970   32.9020 C   0  0  0  0  0  0  0  0  0  0  0  0
   40.0180   26.8580   34.8470 C   0  0  0  0  0  0  0  0  0  0  0  0
   41.0950   26.4130   34.0630 N   0  0  0  0  0  0  0  0  0  0  0  0
   41.9850   27.3560   33.4960 C   0  0  0  0  0  0  0  0  0  0  0  0
   43.1220   26.4120   33.0510 C   0  0  0  0  0  0  0  0  0  0  0  0
   43.3550   25.7060   34.3890 C   0  0  0  0  0  0  0  0  0  0  0  0
   41.9410   25.5740   34.9070 C   0  0  0  0  0  0  0  0  0  0  0  0
   38.2380   24.8910   34.5300 S   0  0  0  0  0  0  0  0  0  0  0  0
   38.1180   24.0370   38.4850 C   0  0  0  0  0  0  0  0  0  0  0  0
   37.8190   24.5950   37.2230 C   0  0  0  0  0  0  0  0  0  0  0  0
   38.5730   24.2190   36.1300 C   0  0  0  0  0  0  0  0  0  0  0  0
   39.5930   23.3120   36.3050 N   0  0  0  0  0  0  0  0  0  0  0  0
   39.8510   22.7980   37.5300 C   0  0  0  0  0  0  0  0  0  0  0  0
   39.1270   23.1530   38.6090 N   0  0  0  0  0  0  0  0  0  0  0  0
   37.8675   27.3677   36.1963 H   0  0  0  0  0  0  0  0  0  0  0  0
   37.9137   28.5803   34.8718 H   0  0  0  0  0  0  0  0  0  0  0  0
   36.6561   27.2977   34.8718 H   0  0  0  0  0  0  0  0  0  0  0  0
   38.4793   28.1920   32.8848 H   0  0  0  0  0  0  0  0  0  0  0  0
   39.5125   26.8086   32.3893 H   0  0  0  0  0  0  0  0  0  0  0  0
   37.7242   26.6392   32.3893 H   0  0  0  0  0  0  0  0  0  0  0  0
   40.1377   27.9428   34.9847 H   0  0  0  0  0  0  0  0  0  0  0  0
   40.0747   26.2559   35.7658 H   0  0  0  0  0  0  0  0  0  0  0  0
   41.5333   27.8827   32.6424 H   0  0  0  0  0  0  0  0  0  0  0  0
   42.2929   28.1684   34.1707 H   0  0  0  0  0  0  0  0  0  0  0  0
   42.7996   25.7149   32.2635 H   0  0  0  0  0  0  0  0  0  0  0  0
   44.0021   26.8967   32.6032 H   0  0  0  0  0  0  0  0  0  0  0  0
   43.8253   24.7217   34.2480 H   0  0  0  0  0  0  0  0  0  0  0  0
   44.0344   26.2422   35.0680 H   0  0  0  0  0  0  0  0  0  0  0  0
   41.8884   25.9149   35.9515 H   0  0  0  0  0  0  0  0  0  0  0  0
   41.6087   24.5259   34.8759 H   0  0  0  0  0  0  0  0  0  0  0  0
   37.5270   24.3241   39.3672 H   0  0  0  0  0  0  0  0  0  0  0  0
   36.9977   25.3183   37.1127 H   0  0  0  0  0  0  0  0  0  0  0  0
   40.6706   22.0738   37.6473 H   0  0  0  0  0  0  0  0  0  0  0  0
  1 10  1  0
  1  4  1  0
  1  2  1  0
  3  1  1  0
  5  4  1  0
  5  9  1  0
  6  5  1  0
  7  6  1  0
  7  8  1  0
  8  9  1  0
 10 13  1  0
 11 16  2  0
 12 11  1  0
 13 14  1  0
 13 12  2  0
 14 15  2  0
 15 16  1  0
  2 17  1  0
  2 18  1  0
  2 19  1  0
  3 20  1  0
  3 21  1  0
  3 22  1  0
  4 23  1  0
  4 24  1  0
  6 25  1  0
  6 26  1  0
  7 27  1  0
  7 28  1  0
  8 29  1  0
  8 30  1  0
  9 31  1  0
  9 32  1  0
 11 33  1  0
 12 34  1  0
 15 35  1  0
M  ISO  8  17   8  18   8  19   8  20   8  21   8  22   8  23   8  24   8
M  ISO  8  25  13  26  13  27  13  28  13  29  13  30  13  31  13  32  13
M  ISO  3  33  14  34  14  35  14
M  END
>  <minimizedAffinity>  (1) 
-3.92142558

>  <minimizedRMSD>  (1) 
1.19565582

$$$$
