
     RDKit          3D

 36 38  0  0  0  0  0  0  0  0999 V2000
   39.8270   22.9140   37.3030 C   0  0  0  0  0  0  0  0  0  0  0  0
   39.0150   23.1970   38.4010 C   0  0  0  0  0  0  0  0  0  0  0  0
   38.0160   24.1890   38.2810 C   0  0  0  0  0  0  0  0  0  0  0  0
   37.9100   24.8100   37.0880 N   0  0  0  0  0  0  0  0  0  0  0  0
   38.7270   24.5010   36.0390 C   0  0  0  0  0  0  0  0  0  0  0  0
   39.6730   23.5700   36.1370 N   0  0  0  0  0  0  0  0  0  0  0  0
   38.4920   25.2450   34.8450 N   0  0  0  0  0  0  0  0  0  0  0  0
   38.8870   26.5960   34.7050 C   0  0  0  0  0  0  0  0  0  0  0  0
   39.3970   27.0160   33.3810 C   0  0  0  0  0  0  0  0  0  0  0  0
   39.0340   26.1460   32.2180 C   0  0  0  0  0  0  0  0  0  0  0  0
   38.8820   24.6710   32.5830 C   0  0  0  0  0  0  0  0  0  0  0  0
   37.8250   24.6580   33.6850 C   0  0  0  0  0  0  0  0  0  0  0  0
   40.8760   21.8870   37.4030 C   0  0  0  0  0  0  0  0  0  0  0  0
   41.9930   22.2920   36.4940 C   0  0  0  0  0  0  0  0  0  0  0  0
   42.8550   23.3400   36.7190 C   0  0  0  0  0  0  0  0  0  0  0  0
   43.8270   23.5540   35.7540 C   0  0  0  0  0  0  0  0  0  0  0  0
   43.9120   22.7640   34.6540 N   0  0  0  0  0  0  0  0  0  0  0  0
   43.0640   21.7470   34.4510 C   0  0  0  0  0  0  0  0  0  0  0  0
   42.1140   21.5250   35.3780 N   0  0  0  0  0  0  0  0  0  0  0  0
   39.1506   22.6548   39.3484 H   0  0  0  0  0  0  0  0  0  0  0  0
   37.3546   24.4435   39.1223 H   0  0  0  0  0  0  0  0  0  0  0  0
   38.0131   27.2224   34.9373 H   0  0  0  0  0  0  0  0  0  0  0  0
   39.7401   26.7151   35.3891 H   0  0  0  0  0  0  0  0  0  0  0  0
   39.0081   28.0247   33.1778 H   0  0  0  0  0  0  0  0  0  0  0  0
   40.4926   26.9554   33.4588 H   0  0  0  0  0  0  0  0  0  0  0  0
   39.8225   26.2365   31.4564 H   0  0  0  0  0  0  0  0  0  0  0  0
   38.0561   26.4901   31.8501 H   0  0  0  0  0  0  0  0  0  0  0  0
   38.5446   24.0878   31.7135 H   0  0  0  0  0  0  0  0  0  0  0  0
   39.8313   24.2201   32.9079 H   0  0  0  0  0  0  0  0  0  0  0  0
   36.9525   25.2608   33.3929 H   0  0  0  0  0  0  0  0  0  0  0  0
   37.4491   23.6446   33.8895 H   0  0  0  0  0  0  0  0  0  0  0  0
   41.2401   21.8222   38.4390 H   0  0  0  0  0  0  0  0  0  0  0  0
   40.4810   20.9017   37.1147 H   0  0  0  0  0  0  0  0  0  0  0  0
   42.7774   23.9733   37.6151 H   0  0  0  0  0  0  0  0  0  0  0  0
   44.5426   24.3795   35.8824 H   0  0  0  0  0  0  0  0  0  0  0  0
   43.1417   21.1135   33.5551 H   0  0  0  0  0  0  0  0  0  0  0  0
  1 13  1  0
  1  2  2  0
  3  2  1  0
  4  3  2  0
  5  6  2  0
  5  4  1  0
  6  1  1  0
  7  5  1  0
  8  7  1  0
  9  8  1  0
 10 11  1  0
 10  9  1  0
 11 12  1  0
 12  7  1  0
 14 15  2  0
 14 13  1  0
 16 15  1  0
 17 16  2  0
 18 17  1  0
 18 19  2  0
 19 14  1  0
  2 20  1  0
  3 21  1  0
  8 22  1  0
  8 23  1  0
  9 24  1  0
  9 25  1  0
 10 26  1  0
 10 27  1  0
 11 28  1  0
 11 29  1  0
 12 30  1  0
 12 31  1  0
 13 32  1  0
 13 33  1  0
 15 34  1  0
 16 35  1  0
 18 36  1  0
M  ISO  8  20  14  21  14  22  13  23  13  24  13  25  13  26  13  27  13
M  ISO  8  28  13  29  13  30  13  31  13  32   8  33   8  34  14  35  14
M  ISO  1  36  14
M  END
>  <minimizedAffinity>  (1) 
-4.69060802

>  <minimizedRMSD>  (1) 
1.77847683

$$$$
