
     RDKit          3D

 35 37  0  0  0  0  0  0  0  0999 V2000
   39.8260   22.9530   37.3630 C   0  0  0  0  0  0  0  0  0  0  0  0
   38.9920   23.1770   38.4410 C   0  0  0  0  0  0  0  0  0  0  0  0
   37.9860   24.1410   38.3050 C   0  0  0  0  0  0  0  0  0  0  0  0
   37.8800   24.8040   37.1270 N   0  0  0  0  0  0  0  0  0  0  0  0
   38.7330   24.5380   36.1000 C   0  0  0  0  0  0  0  0  0  0  0  0
   39.7020   23.6220   36.2080 N   0  0  0  0  0  0  0  0  0  0  0  0
   38.5240   25.2950   34.9180 N   0  0  0  0  0  0  0  0  0  0  0  0
   38.9060   26.6530   34.8050 C   0  0  0  0  0  0  0  0  0  0  0  0
   39.4650   27.0950   33.5030 C   0  0  0  0  0  0  0  0  0  0  0  0
   39.1440   26.2430   32.3230 C   0  0  0  0  0  0  0  0  0  0  0  0
   38.9700   24.7780   32.6530 C   0  0  0  0  0  0  0  0  0  0  0  0
   37.8940   24.7130   33.7330 C   0  0  0  0  0  0  0  0  0  0  0  0
   40.9090   21.9340   37.4750 C   0  0  0  0  0  0  0  0  0  0  0  0
   41.8450   21.9820   36.2950 C   0  0  0  0  0  0  0  0  0  0  0  0
   43.2030   21.2730   36.4510 C   0  0  0  0  0  0  0  0  0  0  0  0
   43.1350   22.7600   36.5380 C   0  0  0  0  0  0  0  0  0  0  0  0
   39.1146   22.6147   39.3784 H   0  0  0  0  0  0  0  0  0  0  0  0
   37.2970   24.3558   39.1352 H   0  0  0  0  0  0  0  0  0  0  0  0
   38.0148   27.2652   35.0073 H   0  0  0  0  0  0  0  0  0  0  0  0
   39.7298   26.7762   35.5234 H   0  0  0  0  0  0  0  0  0  0  0  0
   39.0826   28.1063   33.3001 H   0  0  0  0  0  0  0  0  0  0  0  0
   40.5574   27.0370   33.6181 H   0  0  0  0  0  0  0  0  0  0  0  0
   39.9622   26.3388   31.5941 H   0  0  0  0  0  0  0  0  0  0  0  0
   38.1809   26.5971   31.9267 H   0  0  0  0  0  0  0  0  0  0  0  0
   38.6492   24.2210   31.7604 H   0  0  0  0  0  0  0  0  0  0  0  0
   39.9131   24.3286   32.9974 H   0  0  0  0  0  0  0  0  0  0  0  0
   37.0105   25.2974   33.4365 H   0  0  0  0  0  0  0  0  0  0  0  0
   37.5424   23.6858   33.9098 H   0  0  0  0  0  0  0  0  0  0  0  0
   41.4836   22.1242   38.3935 H   0  0  0  0  0  0  0  0  0  0  0  0
   40.4414   20.9387   37.5009 H   0  0  0  0  0  0  0  0  0  0  0  0
   41.0449   21.9693   35.5402 H   0  0  0  0  0  0  0  0  0  0  0  0
   43.4118   20.6794   37.3533 H   0  0  0  0  0  0  0  0  0  0  0  0
   43.7781   20.5573   35.8451 H   0  0  0  0  0  0  0  0  0  0  0  0
   43.5624   23.3744   35.7319 H   0  0  0  0  0  0  0  0  0  0  0  0
   43.4571   23.5030   37.2825 H   0  0  0  0  0  0  0  0  0  0  0  0
  1 13  1  0
  1  2  2  0
  3  2  1  0
  4  3  2  0
  5  6  2  0
  5  4  1  0
  6  1  1  0
  7  5  1  0
  8  7  1  0
  9  8  1  0
 10 11  1  0
 10  9  1  0
 11 12  1  0
 12  7  1  0
 14 15  1  0
 14 16  1  0
 14 13  1  0
 15 16  1  0
  2 17  1  0
  3 18  1  0
  8 19  1  0
  8 20  1  0
  9 21  1  0
  9 22  1  0
 10 23  1  0
 10 24  1  0
 11 25  1  0
 11 26  1  0
 12 27  1  0
 12 28  1  0
 13 29  1  0
 13 30  1  0
 14 31  1  0
 15 32  1  0
 15 33  1  0
 16 34  1  0
 16 35  1  0
M  ISO  8  17  14  18  14  19  13  20  13  21  13  22  13  23  13  24  13
M  ISO  8  25  13  26  13  27  13  28  13  29   8  30   8  31  13  32  13
M  ISO  3  33  13  34  13  35  13
M  END
>  <minimizedAffinity>  (1) 
-4.56731987

>  <minimizedRMSD>  (1) 
0.94325012

$$$$
