
     RDKit          3D

 33 35  0  0  0  0  0  0  0  0999 V2000
   39.1660   26.4180   32.9780 C   0  0  0  0  0  0  0  0  0  0  0  0
   39.6490   27.2910   32.0200 C   0  0  0  0  0  0  0  0  0  0  0  0
   39.3780   27.0280   30.6690 C   0  0  0  0  0  0  0  0  0  0  0  0
   38.6560   25.9290   30.3830 N   0  0  0  0  0  0  0  0  0  0  0  0
   38.2000   25.0950   31.3560 C   0  0  0  0  0  0  0  0  0  0  0  0
   38.4430   25.3220   32.6550 N   0  0  0  0  0  0  0  0  0  0  0  0
   37.4520   23.9730   30.9140 N   0  0  0  0  0  0  0  0  0  0  0  0
   38.0750   22.8430   30.2990 C   0  0  0  0  0  0  0  0  0  0  0  0
   37.5300   21.5000   30.6380 C   0  0  0  0  0  0  0  0  0  0  0  0
   36.1500   21.4680   31.1920 C   0  0  0  0  0  0  0  0  0  0  0  0
   35.7680   22.7070   31.9900 C   0  0  0  0  0  0  0  0  0  0  0  0
   36.0140   23.8700   31.0410 C   0  0  0  0  0  0  0  0  0  0  0  0
   39.4260   26.6530   34.4260 C   0  0  0  0  0  0  0  0  0  0  0  0
   40.3680   25.6160   34.9220 C   0  0  0  0  0  0  0  0  0  0  0  0
   40.1180   24.4280   35.5350 N   0  0  0  0  0  0  0  0  0  0  0  0
   41.2800   23.9080   35.7600 O   0  0  0  0  0  0  0  0  0  0  0  0
   42.2550   24.6840   35.3320 C   0  0  0  0  0  0  0  0  0  0  0  0
   41.7170   25.7700   34.7980 N   0  0  0  0  0  0  0  0  0  0  0  0
   40.2347   28.1751   32.3121 H   0  0  0  0  0  0  0  0  0  0  0  0
   39.7419   27.6949   29.8735 H   0  0  0  0  0  0  0  0  0  0  0  0
   39.1365   22.8522   30.5873 H   0  0  0  0  0  0  0  0  0  0  0  0
   37.8843   22.9639   29.2224 H   0  0  0  0  0  0  0  0  0  0  0  0
   37.5363   20.8945   29.7197 H   0  0  0  0  0  0  0  0  0  0  0  0
   38.1766   21.1158   31.4407 H   0  0  0  0  0  0  0  0  0  0  0  0
   35.4444   21.3664   30.3542 H   0  0  0  0  0  0  0  0  0  0  0  0
   36.1095   20.6184   31.8895 H   0  0  0  0  0  0  0  0  0  0  0  0
   34.7096   22.6659   32.2868 H   0  0  0  0  0  0  0  0  0  0  0  0
   36.3495   22.7986   32.9193 H   0  0  0  0  0  0  0  0  0  0  0  0
   35.5980   24.7994   31.4571 H   0  0  0  0  0  0  0  0  0  0  0  0
   35.5304   23.7085   30.0663 H   0  0  0  0  0  0  0  0  0  0  0  0
   39.8690   27.6503   34.5642 H   0  0  0  0  0  0  0  0  0  0  0  0
   38.4817   26.5970   34.9874 H   0  0  0  0  0  0  0  0  0  0  0  0
   43.3309   24.4671   35.4056 H   0  0  0  0  0  0  0  0  0  0  0  0
  1 13  1  0
  2  1  2  0
  3  2  1  0
  4  3  2  0
  4  5  1  0
  5  6  2  0
  6  1  1  0
  7 12  1  0
  7  5  1  0
  8  9  1  0
  8  7  1  0
  9 10  1  0
 10 11  1  0
 12 11  1  0
 13 14  1  0
 14 15  2  0
 15 16  1  0
 17 16  1  0
 18 14  1  0
 18 17  2  0
  2 19  1  0
  3 20  1  0
  8 21  1  0
  8 22  1  0
  9 23  1  0
  9 24  1  0
 10 25  1  0
 10 26  1  0
 11 27  1  0
 11 28  1  0
 12 29  1  0
 12 30  1  0
 13 31  1  0
 13 32  1  0
 17 33  1  0
M  ISO  8  19  14  20  14  21  13  22  13  23  13  24  13  25  13  26  13
M  ISO  7  27  13  28  13  29  13  30  13  31   8  32   8  33  14
M  END
>  <minimizedAffinity>  (1) 
-3.76779771

>  <minimizedRMSD>  (1) 
5.41720819

$$$$
