
     RDKit          3D

 30 32  0  0  1  0  0  0  0  0999 V2000
   38.1760   23.4360   38.3850 C   0  0  0  0  0  0  0  0  0  0  0  0
   37.8690   24.3510   37.3640 C   0  0  0  0  0  0  0  0  0  0  0  0
   38.7570   24.4810   36.3060 C   0  0  0  0  0  0  0  0  0  0  0  0
   39.8850   23.7180   36.3020 N   0  0  0  0  0  0  0  0  0  0  0  0
   40.1450   22.8550   37.2910 C   0  0  0  0  0  0  0  0  0  0  0  0
   39.3170   22.7030   38.3250 N   0  0  0  0  0  0  0  0  0  0  0  0
   38.6110   25.3540   35.1870 N   0  0  0  0  0  0  0  0  0  0  0  0
   39.1160   26.7130   35.1370 C   0  0  2  0  0  0  0  0  0  0  0  0
   37.9460   27.6600   34.9350 C   0  0  0  0  0  0  0  0  0  0  0  0
   36.8110   26.9550   34.5490 O   0  0  0  0  0  0  0  0  0  0  0  0
   37.1030   26.1350   33.4480 C   0  0  0  0  0  0  0  0  0  0  0  0
   37.9300   24.9690   33.9590 C   0  0  0  0  0  0  0  0  0  0  0  0
   40.1580   26.9110   34.0990 C   0  0  0  0  0  0  0  0  0  0  0  0
   41.4900   26.6180   34.3080 C   0  0  0  0  0  0  0  0  0  0  0  0
   42.1290   26.9380   33.1130 C   0  0  0  0  0  0  0  0  0  0  0  0
   41.1920   27.4030   32.2340 N   0  0  0  0  0  0  0  0  0  0  0  0
   40.0220   27.3850   32.8260 N   0  0  0  0  0  0  0  0  0  0  0  0
   37.4896   23.3132   39.2357 H   0  0  0  0  0  0  0  0  0  0  0  0
   36.9470   24.9497   37.4025 H   0  0  0  0  0  0  0  0  0  0  0  0
   41.0661   22.2551   37.2499 H   0  0  0  0  0  0  0  0  0  0  0  0
   39.6150   26.9285   36.0933 H   0  0  0  0  0  0  0  0  0  0  0  0
   37.7409   28.1885   35.8776 H   0  0  0  0  0  0  0  0  0  0  0  0
   38.2034   28.3808   34.1450 H   0  0  0  0  0  0  0  0  0  0  0  0
   37.6745   26.7015   32.6980 H   0  0  0  0  0  0  0  0  0  0  0  0
   36.1775   25.7770   32.9732 H   0  0  0  0  0  0  0  0  0  0  0  0
   37.2700   24.1122   34.1596 H   0  0  0  0  0  0  0  0  0  0  0  0
   38.6756   24.6897   33.2000 H   0  0  0  0  0  0  0  0  0  0  0  0
   41.9493   26.2170   35.2236 H   0  0  0  0  0  0  0  0  0  0  0  0
   43.2053   26.8341   32.9109 H   0  0  0  0  0  0  0  0  0  0  0  0
   41.3739   27.7150   31.2694 H   0  0  0  0  0  0  0  0  0  0  0  0
  2  1  2  0
  3  2  1  0
  4  3  2  0
  4  5  1  0
  5  6  2  0
  6  1  1  0
  7  3  1  0
  8  7  1  0
  9  8  1  0
 10  9  1  0
 11 12  1  0
 11 10  1  0
 12  7  1  0
 13 14  1  0
 13  8  1  0
 15 14  2  0
 16 17  1  0
 16 15  1  0
 17 13  2  0
  1 18  1  0
  2 19  1  0
  5 20  1  0
  8 21  1  1
  9 22  1  0
  9 23  1  0
 11 24  1  0
 11 25  1  0
 12 26  1  0
 12 27  1  0
 14 28  1  0
 15 29  1  0
 16 30  1  0
M  ISO  8  18  14  19  14  20  14  21  13  22  13  23  13  24  13  25  13
M  ISO  5  26  13  27  13  28  14  29  14  30   9
M  END
>  <minimizedAffinity>  (1) 
-4.32897282

>  <minimizedRMSD>  (1) 
0.814987242

$$$$
