
     RDKit          3D

 37 39  0  0  1  0  0  0  0  0999 V2000
   37.8690   23.8880   38.4690 C   0  0  0  0  0  0  0  0  0  0  0  0
   37.7340   24.5040   37.2270 C   0  0  0  0  0  0  0  0  0  0  0  0
   38.6940   24.2810   36.2440 C   0  0  0  0  0  0  0  0  0  0  0  0
   39.7120   23.4610   36.5750 N   0  0  0  0  0  0  0  0  0  0  0  0
   39.8430   22.8710   37.7660 C   0  0  0  0  0  0  0  0  0  0  0  0
   38.9310   23.0750   38.7180 N   0  0  0  0  0  0  0  0  0  0  0  0
   38.7120   24.8230   34.9400 N   0  0  0  0  0  0  0  0  0  0  0  0
   39.3600   26.0880   34.5990 C   0  0  2  0  0  0  0  0  0  0  0  0
   38.3080   27.0330   34.0390 C   0  0  0  0  0  0  0  0  0  0  0  0
   37.1370   26.3430   33.7460 O   0  0  0  0  0  0  0  0  0  0  0  0
   37.4280   25.2440   32.9250 C   0  0  0  0  0  0  0  0  0  0  0  0
   38.0930   24.1910   33.7980 C   0  0  0  0  0  0  0  0  0  0  0  0
   40.4560   25.9190   33.6610 N   0  0  0  0  0  0  0  0  0  0  0  0
   40.5490   27.1610   32.9280 C   0  0  0  0  0  0  0  0  0  0  0  0
   41.9520   27.6450   32.7420 C   0  0  0  0  0  0  0  0  0  0  0  0
   42.7530   26.4660   32.3890 N   0  0  0  0  0  0  0  0  0  0  0  0
   42.9250   25.7470   33.6250 C   0  0  0  0  0  0  0  0  0  0  0  0
   41.6450   25.6130   34.4110 C   0  0  0  0  0  0  0  0  0  0  0  0
   37.1146   24.0594   39.2509 H   0  0  0  0  0  0  0  0  0  0  0  0
   36.8756   25.1614   37.0246 H   0  0  0  0  0  0  0  0  0  0  0  0
   40.7044   22.2157   37.9623 H   0  0  0  0  0  0  0  0  0  0  0  0
   39.8050   26.5097   35.5123 H   0  0  0  0  0  0  0  0  0  0  0  0
   38.0910   27.8140   34.7826 H   0  0  0  0  0  0  0  0  0  0  0  0
   38.6941   27.4855   33.1137 H   0  0  0  0  0  0  0  0  0  0  0  0
   36.5005   24.8422   32.4911 H   0  0  0  0  0  0  0  0  0  0  0  0
   38.0908   25.5399   32.0985 H   0  0  0  0  0  0  0  0  0  0  0  0
   37.3358   23.4721   34.1442 H   0  0  0  0  0  0  0  0  0  0  0  0
   38.8617   23.6657   33.2122 H   0  0  0  0  0  0  0  0  0  0  0  0
   40.0980   27.0133   31.9356 H   0  0  0  0  0  0  0  0  0  0  0  0
   40.0212   27.9238   33.5192 H   0  0  0  0  0  0  0  0  0  0  0  0
   41.9937   28.3895   31.9333 H   0  0  0  0  0  0  0  0  0  0  0  0
   42.3322   28.1271   33.6547 H   0  0  0  0  0  0  0  0  0  0  0  0
   42.2566   25.8849   31.6985 H   0  0  0  0  0  0  0  0  0  0  0  0
   43.3024   24.7397   33.3951 H   0  0  0  0  0  0  0  0  0  0  0  0
   43.6326   26.3191   34.2431 H   0  0  0  0  0  0  0  0  0  0  0  0
   41.6955   26.2968   35.2711 H   0  0  0  0  0  0  0  0  0  0  0  0
   41.5669   24.5570   34.7090 H   0  0  0  0  0  0  0  0  0  0  0  0
  1  6  2  0
  2  1  1  0
  3  4  1  0
  3  2  2  0
  4  5  2  0
  5  6  1  0
  7  3  1  0
  8  7  1  0
  9  8  1  0
 10  9  1  0
 11 10  1  0
 11 12  1  0
 12  7  1  0
 13 18  1  0
 13  8  1  0
 14 13  1  0
 15 14  1  0
 16 15  1  0
 16 17  1  0
 17 18  1  0
  1 19  1  0
  2 20  1  0
  5 21  1  0
  8 22  1  1
  9 23  1  0
  9 24  1  0
 11 25  1  0
 11 26  1  0
 12 27  1  0
 12 28  1  0
 14 29  1  0
 14 30  1  0
 15 31  1  0
 15 32  1  0
 16 33  1  0
 17 34  1  0
 17 35  1  0
 18 36  1  0
 18 37  1  0
M  ISO  8  19  14  20  14  21  14  22  13  23  13  24  13  25  13  26  13
M  ISO  8  27  13  28  13  29  13  30  13  31  13  32  13  33   5  34  13
M  ISO  3  35  13  36  13  37  13
M  END
>  <minimizedAffinity>  (1) 
-4.2922039

>  <minimizedRMSD>  (1) 
1.48055637

$$$$
