
     RDKit          3D

 32 33  0  0  1  0  0  0  0  0999 V2000
   37.9620   23.9200   38.4690 C   0  0  0  0  0  0  0  0  0  0  0  0
   37.7990   24.5690   37.2430 C   0  0  0  0  0  0  0  0  0  0  0  0
   38.7150   24.3290   36.2380 C   0  0  0  0  0  0  0  0  0  0  0  0
   39.7390   23.4600   36.5020 N   0  0  0  0  0  0  0  0  0  0  0  0
   39.8770   22.8500   37.6830 C   0  0  0  0  0  0  0  0  0  0  0  0
   38.9900   23.0750   38.6720 N   0  0  0  0  0  0  0  0  0  0  0  0
   38.7210   24.8890   34.9300 N   0  0  0  0  0  0  0  0  0  0  0  0
   39.3990   26.1220   34.5850 C   0  0  2  0  0  0  0  0  0  0  0  0
   38.4050   27.1160   34.0510 C   0  0  0  0  0  0  0  0  0  0  0  0
   37.1700   26.4860   33.8110 O   0  0  0  0  0  0  0  0  0  0  0  0
   37.3500   25.3810   32.9850 C   0  0  0  0  0  0  0  0  0  0  0  0
   38.0540   24.2930   33.7930 C   0  0  0  0  0  0  0  0  0  0  0  0
   40.5210   25.9310   33.6060 C   0  0  0  0  0  0  0  0  0  0  0  0
   40.6730   27.2240   32.8320 C   0  0  0  0  0  0  0  0  0  0  0  0
   41.8190   25.5990   34.2500 C   0  0  0  0  0  0  0  0  0  0  0  0
   37.2408   24.1018   39.2794 H   0  0  0  0  0  0  0  0  0  0  0  0
   36.9570   25.2581   37.0812 H   0  0  0  0  0  0  0  0  0  0  0  0
   40.7185   22.1611   37.8484 H   0  0  0  0  0  0  0  0  0  0  0  0
   39.8576   26.5033   35.5093 H   0  0  0  0  0  0  0  0  0  0  0  0
   38.2652   27.9215   34.7870 H   0  0  0  0  0  0  0  0  0  0  0  0
   38.7854   27.5325   33.1066 H   0  0  0  0  0  0  0  0  0  0  0  0
   37.9675   25.6601   32.1185 H   0  0  0  0  0  0  0  0  0  0  0  0
   36.3785   25.0160   32.6205 H   0  0  0  0  0  0  0  0  0  0  0  0
   37.3125   23.5610   34.1457 H   0  0  0  0  0  0  0  0  0  0  0  0
   38.7960   23.7877   33.1573 H   0  0  0  0  0  0  0  0  0  0  0  0
   40.2664   25.0782   32.9595 H   0  0  0  0  0  0  0  0  0  0  0  0
   40.7717   28.0634   33.5361 H   0  0  0  0  0  0  0  0  0  0  0  0
   41.5709   27.1690   32.1989 H   0  0  0  0  0  0  0  0  0  0  0  0
   39.7869   27.3787   32.1989 H   0  0  0  0  0  0  0  0  0  0  0  0
   41.7039   25.6284   35.3436 H   0  0  0  0  0  0  0  0  0  0  0  0
   42.1342   24.5913   33.9415 H   0  0  0  0  0  0  0  0  0  0  0  0
   42.5794   26.3316   33.9415 H   0  0  0  0  0  0  0  0  0  0  0  0
  1  6  2  0
  2  1  1  0
  3  4  1  0
  3  2  2  0
  4  5  2  0
  5  6  1  0
  7  3  1  0
  8  7  1  0
  9  8  1  0
 10  9  1  0
 11 12  1  0
 11 10  1  0
 12  7  1  0
 13 15  1  0
 13  8  1  0
 14 13  1  0
  1 16  1  0
  2 17  1  0
  5 18  1  0
  8 19  1  1
  9 20  1  0
  9 21  1  0
 11 22  1  0
 11 23  1  0
 12 24  1  0
 12 25  1  0
 13 26  1  0
 14 27  1  0
 14 28  1  0
 14 29  1  0
 15 30  1  0
 15 31  1  0
 15 32  1  0
M  ISO  8  16  14  17  14  18  14  19  13  20  13  21  13  22  13  23  13
M  ISO  8  24  13  25  13  26   8  27   8  28   8  29   8  30   8  31   8
M  ISO  1  32   8
M  END
>  <minimizedAffinity>  (1) 
-4.03214216

>  <minimizedRMSD>  (1) 
1.43146372

$$$$
