
     RDKit          3D

 35 37  0  0  1  0  0  0  0  0999 V2000
   37.8200   23.8430   38.4370 C   0  0  0  0  0  0  0  0  0  0  0  0
   37.7480   24.4820   37.1950 C   0  0  0  0  0  0  0  0  0  0  0  0
   38.7840   24.2680   36.2750 C   0  0  0  0  0  0  0  0  0  0  0  0
   39.8030   23.4520   36.6380 N   0  0  0  0  0  0  0  0  0  0  0  0
   39.8450   22.8530   37.8350 C   0  0  0  0  0  0  0  0  0  0  0  0
   38.8600   23.0410   38.7410 N   0  0  0  0  0  0  0  0  0  0  0  0
   38.8660   24.8370   34.9800 N   0  0  0  0  0  0  0  0  0  0  0  0
   39.5100   26.1160   34.7010 C   0  0  2  0  0  0  0  0  0  0  0  0
   38.5220   27.0680   34.0940 C   0  0  0  0  0  0  0  0  0  0  0  0
   37.3660   26.3650   33.7070 O   0  0  0  0  0  0  0  0  0  0  0  0
   37.7070   25.2780   32.8940 C   0  0  0  0  0  0  0  0  0  0  0  0
   38.3270   24.2220   33.7930 C   0  0  0  0  0  0  0  0  0  0  0  0
   40.7150   26.0260   33.9470 N   0  0  0  0  0  0  0  0  0  0  0  0
   41.9010   25.7870   34.7360 C   0  0  0  0  0  0  0  0  0  0  0  0
   43.0330   26.2110   33.8200 C   0  0  0  0  0  0  0  0  0  0  0  0
   42.4060   27.2960   32.9820 C   0  0  0  0  0  0  0  0  0  0  0  0
   41.0090   27.3970   33.4960 C   0  0  0  0  0  0  0  0  0  0  0  0
   37.0185   23.9967   39.1745 H   0  0  0  0  0  0  0  0  0  0  0  0
   36.8995   25.1363   36.9462 H   0  0  0  0  0  0  0  0  0  0  0  0
   40.6933   22.1986   38.0843 H   0  0  0  0  0  0  0  0  0  0  0  0
   39.8417   26.5148   35.6710 H   0  0  0  0  0  0  0  0  0  0  0  0
   38.2527   27.8368   34.8332 H   0  0  0  0  0  0  0  0  0  0  0  0
   38.9709   27.5471   33.2115 H   0  0  0  0  0  0  0  0  0  0  0  0
   36.8073   24.8759   32.4053 H   0  0  0  0  0  0  0  0  0  0  0  0
   38.4124   25.5846   32.1076 H   0  0  0  0  0  0  0  0  0  0  0  0
   37.5571   23.4905   34.0797 H   0  0  0  0  0  0  0  0  0  0  0  0
   39.1386   23.7170   33.2487 H   0  0  0  0  0  0  0  0  0  0  0  0
   41.8906   26.3936   35.6536 H   0  0  0  0  0  0  0  0  0  0  0  0
   41.9893   24.7419   35.0675 H   0  0  0  0  0  0  0  0  0  0  0  0
   43.8840   26.6005   34.3980 H   0  0  0  0  0  0  0  0  0  0  0  0
   43.4386   25.3821   33.2214 H   0  0  0  0  0  0  0  0  0  0  0  0
   42.4106   27.0182   31.9177 H   0  0  0  0  0  0  0  0  0  0  0  0
   42.9501   28.2494   33.0528 H   0  0  0  0  0  0  0  0  0  0  0  0
   40.9471   28.1089   34.3323 H   0  0  0  0  0  0  0  0  0  0  0  0
   40.2978   27.7642   32.7415 H   0  0  0  0  0  0  0  0  0  0  0  0
  1  6  2  0
  2  1  1  0
  3  4  1  0
  3  2  2  0
  4  5  2  0
  5  6  1  0
  7  3  1  0
  8  7  1  0
  9  8  1  0
 10  9  1  0
 11 10  1  0
 11 12  1  0
 12  7  1  0
 13  8  1  0
 13 14  1  0
 15 14  1  0
 16 17  1  0
 16 15  1  0
 17 13  1  0
  1 18  1  0
  2 19  1  0
  5 20  1  0
  8 21  1  1
  9 22  1  0
  9 23  1  0
 11 24  1  0
 11 25  1  0
 12 26  1  0
 12 27  1  0
 14 28  1  0
 14 29  1  0
 15 30  1  0
 15 31  1  0
 16 32  1  0
 16 33  1  0
 17 34  1  0
 17 35  1  0
M  ISO  8  18  14  19  14  20  14  21  13  22  13  23  13  24  13  25  13
M  ISO  8  26  13  27  13  28  13  29  13  30  13  31  13  32  13  33  13
M  ISO  2  34  13  35  13
M  END
>  <minimizedAffinity>  (1) 
-4.26405287

>  <minimizedRMSD>  (1) 
1.62989473

$$$$
