
     RDKit          3D

 24 25  0  0  1  0  0  0  0  0999 V2000
   37.9360   24.0200   38.0280 C   0  0  0  0  0  0  0  0  0  0  0  0
   37.7000   24.4920   36.7390 C   0  0  0  0  0  0  0  0  0  0  0  0
   38.5840   24.1210   35.7220 C   0  0  0  0  0  0  0  0  0  0  0  0
   39.6390   23.3080   36.0400 N   0  0  0  0  0  0  0  0  0  0  0  0
   39.8300   22.8730   37.3050 C   0  0  0  0  0  0  0  0  0  0  0  0
   38.9940   23.2190   38.2930 N   0  0  0  0  0  0  0  0  0  0  0  0
   38.5180   24.4900   34.3660 N   0  0  0  0  0  0  0  0  0  0  0  0
   39.1560   25.6620   33.7810 C   0  0  1  0  0  0  0  0  0  0  0  0
   38.0760   26.5700   33.2040 C   0  0  0  0  0  0  0  0  0  0  0  0
   36.8780   25.8710   33.0820 O   0  0  0  0  0  0  0  0  0  0  0  0
   37.0700   24.6760   32.4050 C   0  0  0  0  0  0  0  0  0  0  0  0
   37.7860   23.7240   33.3620 C   0  0  0  0  0  0  0  0  0  0  0  0
   40.1650   26.5840   34.9350 S   0  0  0  0  0  0  0  0  0  0  0  0
   37.2525   24.3024   38.8423 H   0  0  0  0  0  0  0  0  0  0  0  0
   36.8381   25.1415   36.5264 H   0  0  0  0  0  0  0  0  0  0  0  0
   40.6884   22.2223   37.5278 H   0  0  0  0  0  0  0  0  0  0  0  0
   39.8390   25.3023   32.9973 H   0  0  0  0  0  0  0  0  0  0  0  0
   37.9286   27.4306   33.8731 H   0  0  0  0  0  0  0  0  0  0  0  0
   38.3922   26.9187   32.2098 H   0  0  0  0  0  0  0  0  0  0  0  0
   36.0999   24.2516   32.1071 H   0  0  0  0  0  0  0  0  0  0  0  0
   37.6658   24.8349   31.4941 H   0  0  0  0  0  0  0  0  0  0  0  0
   37.0450   23.0822   33.8610 H   0  0  0  0  0  0  0  0  0  0  0  0
   38.4928   23.1015   32.7937 H   0  0  0  0  0  0  0  0  0  0  0  0
   39.8075   26.2573   36.2165 H   0  0  0  0  0  0  0  0  0  0  0  0
  1  6  2  0
  2  1  1  0
  3  4  1  0
  3  2  2  0
  4  5  2  0
  5  6  1  0
  7  3  1  0
  8  7  1  0
  8 13  1  0
  9  8  1  0
 10  9  1  0
 11 10  1  0
 11 12  1  0
 12  7  1  0
  1 14  1  0
  2 15  1  0
  5 16  1  0
  8 17  1  6
  9 18  1  0
  9 19  1  0
 11 20  1  0
 11 21  1  0
 12 22  1  0
 12 23  1  0
 13 24  1  0
M  ISO  8  14  14  15  14  16  14  17  13  18  13  19  13  20  13  21  13
M  ISO  3  22  13  23  13  24  11
M  END
>  <minimizedAffinity>  (1) 
-3.91450453

>  <minimizedRMSD>  (1) 
1.6793524

$$$$
