
     RDKit          3D

 40 42  0  0  1  0  0  0  0  0999 V2000
   36.2540   29.6200   32.3100 C   0  0  0  0  0  0  0  0  0  0  0  0
   37.0140   28.6100   31.7600 C   0  0  0  0  0  0  0  0  0  0  0  0
   37.2890   27.5030   32.5580 C   0  0  0  0  0  0  0  0  0  0  0  0
   36.8230   27.4240   33.8340 C   0  0  0  0  0  0  0  0  0  0  0  0
   36.0670   28.4270   34.3830 C   0  0  0  0  0  0  0  0  0  0  0  0
   35.7820   29.5300   33.6160 C   0  0  0  0  0  0  0  0  0  0  0  0
   37.2170   26.1800   34.5170 C   0  0  0  0  0  0  0  0  0  0  0  0
   38.6230   26.1490   34.9610 C   0  0  2  0  0  0  0  0  0  0  0  0
   40.5040   23.2020   36.0690 C   0  0  0  0  0  0  0  0  0  0  0  0
   39.6910   22.6610   37.1050 C   0  0  0  0  0  0  0  0  0  0  0  0
   38.4880   23.3280   37.4130 C   0  0  0  0  0  0  0  0  0  0  0  0
   38.1950   24.4520   36.6850 N   0  0  0  0  0  0  0  0  0  0  0  0
   39.0070   24.9290   35.7020 C   0  0  0  0  0  0  0  0  0  0  0  0
   40.1490   24.3220   35.3880 N   0  0  0  0  0  0  0  0  0  0  0  0
   38.8710   27.3590   35.8980 C   0  0  0  0  0  0  0  0  0  0  0  0
   35.8920   31.0250   31.3310 S   0  0  0  0  0  0  0  0  0  0  0  0
   36.4670   30.7830   29.9540 O   0  0  0  0  0  0  0  0  0  0  0  0
   36.5600   32.2560   31.8880 O   0  0  0  0  0  0  0  0  0  0  0  0
   34.1740   31.2910   31.2460 C   0  0  0  0  0  0  0  0  0  0  0  0
   33.1090   30.6550   31.7190 N   0  0  0  0  0  0  0  0  0  0  0  0
   32.0180   31.2760   31.3680 O   0  0  0  0  0  0  0  0  0  0  0  0
   32.3290   32.3270   30.6590 C   0  0  0  0  0  0  0  0  0  0  0  0
   33.6470   32.3420   30.5810 N   0  0  0  0  0  0  0  0  0  0  0  0
   31.3270   33.2330   30.1160 C   0  0  0  0  0  0  0  0  0  0  0  0
   30.1360   32.8430   30.0570 O   0  0  0  0  0  0  0  0  0  0  0  0
   31.5750   34.5130   29.6470 O   0  0  0  0  0  0  0  0  0  0  0  0
   37.3895   28.6764   30.7282 H   0  0  0  0  0  0  0  0  0  0  0  0
   37.8928   26.6788   32.1505 H   0  0  0  0  0  0  0  0  0  0  0  0
   35.6965   28.3501   35.4159 H   0  0  0  0  0  0  0  0  0  0  0  0
   35.1772   30.3470   34.0364 H   0  0  0  0  0  0  0  0  0  0  0  0
   36.5741   26.0540   35.4006 H   0  0  0  0  0  0  0  0  0  0  0  0
   37.1009   25.3684   33.7837 H   0  0  0  0  0  0  0  0  0  0  0  0
   39.2308   26.1762   34.0446 H   0  0  0  0  0  0  0  0  0  0  0  0
   41.4475   22.6979   35.8126 H   0  0  0  0  0  0  0  0  0  0  0  0
   39.9917   21.7524   37.6472 H   0  0  0  0  0  0  0  0  0  0  0  0
   37.8144   22.9629   38.2023 H   0  0  0  0  0  0  0  0  0  0  0  0
   38.8038   27.0311   36.9458 H   0  0  0  0  0  0  0  0  0  0  0  0
   39.8724   27.7719   35.7065 H   0  0  0  0  0  0  0  0  0  0  0  0
   38.1127   28.1325   35.7065 H   0  0  0  0  0  0  0  0  0  0  0  0
   30.8319   35.0632   29.2931 H   0  0  0  0  0  0  0  0  0  0  0  0
  1  6  1  0
  2  1  2  0
  2  3  1  0
  3  4  2  0
  4  5  1  0
  4  7  1  0
  6  5  2  0
  7  8  1  0
  8 13  1  0
  8 15  1  0
  9 10  2  0
 10 11  1  0
 12 11  2  0
 13 12  1  0
 14 13  2  0
 14  9  1  0
 16 18  2  0
 16  1  1  0
 17 16  2  0
 19 16  1  0
 19 20  2  0
 21 20  1  0
 22 21  1  0
 23 22  2  0
 23 19  1  0
 24 22  1  0
 25 24  2  0
 26 24  1  0
  2 27  1  0
  3 28  1  0
  5 29  1  0
  6 30  1  0
  7 31  1  0
  7 32  1  0
  8 33  1  6
  9 34  1  0
 10 35  1  0
 11 36  1  0
 15 37  1  0
 15 38  1  0
 15 39  1  0
 26 40  1  0
M  ISO  8  27  14  28  14  29  14  30  14  31   8  32   8  33   8  34  14
M  ISO  6  35  14  36  14  37   8  38   8  39   8  40   3
M  END
>  <minimizedAffinity>  (1) 
-4.90471745

>  <minimizedRMSD>  (1) 
0.0516905785

$$$$
