
     RDKit          3D

 28 29  0  0  1  0  0  0  0  0999 V2000
   38.5590   24.9120   33.3510 N   0  0  0  0  0  0  0  0  0  0  0  0
   37.9570   26.2250   33.5770 C   0  0  1  0  0  0  0  0  0  0  0  0
   36.7220   26.3850   32.7440 C   0  0  0  0  0  0  0  0  0  0  0  0
   36.6610   25.3350   31.8090 O   0  0  0  0  0  0  0  0  0  0  0  0
   37.8310   25.3190   31.0650 C   0  0  0  0  0  0  0  0  0  0  0  0
   38.9140   24.7340   31.9480 C   0  0  0  0  0  0  0  0  0  0  0  0
   38.3580   22.0040   35.6670 C   0  0  0  0  0  0  0  0  0  0  0  0
   37.9840   22.8510   34.6200 C   0  0  0  0  0  0  0  0  0  0  0  0
   38.7680   23.9410   34.3610 C   0  0  0  0  0  0  0  0  0  0  0  0
   39.8830   24.1650   35.1290 N   0  0  0  0  0  0  0  0  0  0  0  0
   40.2320   23.3450   36.1320 C   0  0  0  0  0  0  0  0  0  0  0  0
   39.4650   22.2610   36.4000 N   0  0  0  0  0  0  0  0  0  0  0  0
   37.5820   26.2370   34.9640 N   0  0  0  0  0  0  0  0  0  0  0  0
   38.1620   27.2450   35.7760 C   0  0  0  0  0  0  0  0  0  0  0  0
   38.2840   26.9820   37.1040 F   0  0  0  0  0  0  0  0  0  0  0  0
   37.5340   28.4790   35.6350 F   0  0  0  0  0  0  0  0  0  0  0  0
   39.4720   27.4220   35.3020 F   0  0  0  0  0  0  0  0  0  0  0  0
   38.6535   27.0346   33.3136 H   0  0  0  0  0  0  0  0  0  0  0  0
   35.8336   26.3540   33.3919 H   0  0  0  0  0  0  0  0  0  0  0  0
   36.7513   27.3504   32.2175 H   0  0  0  0  0  0  0  0  0  0  0  0
   37.6988   24.6965   30.1678 H   0  0  0  0  0  0  0  0  0  0  0  0
   38.0997   26.3340   30.7372 H   0  0  0  0  0  0  0  0  0  0  0  0
   39.0209   23.6607   31.7319 H   0  0  0  0  0  0  0  0  0  0  0  0
   39.8644   25.2498   31.7462 H   0  0  0  0  0  0  0  0  0  0  0  0
   37.7458   21.1195   35.8971 H   0  0  0  0  0  0  0  0  0  0  0  0
   37.0842   22.6465   34.0212 H   0  0  0  0  0  0  0  0  0  0  0  0
   41.1317   23.5508   36.7305 H   0  0  0  0  0  0  0  0  0  0  0  0
   36.5593   26.3511   35.0090 H   0  0  0  0  0  0  0  0  0  0  0  0
  1  2  1  0
  1  9  1  0
  2 13  1  0
  3  2  1  0
  4  3  1  0
  5  4  1  0
  5  6  1  0
  6  1  1  0
  7 12  2  0
  8  7  1  0
  9  8  2  0
  9 10  1  0
 10 11  2  0
 11 12  1  0
 13 14  1  0
 14 15  1  0
 16 14  1  0
 17 14  1  0
  2 18  1  1
  3 19  1  0
  3 20  1  0
  5 21  1  0
  5 22  1  0
  6 23  1  0
  6 24  1  0
  7 25  1  0
  8 26  1  0
 11 27  1  0
 13 28  1  0
M  ISO  8  18  13  19  13  20  13  21  13  22  13  23  13  24  13  25  14
M  ISO  3  26  14  27  14  28   5
M  END
>  <minimizedAffinity>  (1) 
-4.19314814

>  <minimizedRMSD>  (1) 
2.0070684

$$$$
