
     RDKit          3D

 28 29  0  0  1  0  0  0  0  0999 V2000
   38.4060   24.8300   34.0070 N   0  0  0  0  0  0  0  0  0  0  0  0
   39.1550   25.9230   33.4230 C   0  0  1  0  0  0  0  0  0  0  0  0
   38.2070   27.0690   33.1010 C   0  0  0  0  0  0  0  0  0  0  0  0
   36.8800   26.6310   33.1850 O   0  0  0  0  0  0  0  0  0  0  0  0
   36.7260   25.4980   32.3820 C   0  0  0  0  0  0  0  0  0  0  0  0
   37.3870   24.3360   33.0950 C   0  0  0  0  0  0  0  0  0  0  0  0
   38.1960   23.8510   37.6120 C   0  0  0  0  0  0  0  0  0  0  0  0
   37.8210   24.4570   36.4100 C   0  0  0  0  0  0  0  0  0  0  0  0
   38.6250   24.2920   35.3040 C   0  0  0  0  0  0  0  0  0  0  0  0
   39.7590   23.5400   35.4290 N   0  0  0  0  0  0  0  0  0  0  0  0
   40.1110   22.9610   36.5880 C   0  0  0  0  0  0  0  0  0  0  0  0
   39.3330   23.1170   37.6700 N   0  0  0  0  0  0  0  0  0  0  0  0
   40.0000   26.4220   34.5220 N   0  0  0  0  0  0  0  0  0  0  0  0
   41.3380   26.7990   34.2960 C   0  0  0  0  0  0  0  0  0  0  0  0
   41.6230   27.5070   33.2970 O   0  0  0  0  0  0  0  0  0  0  0  0
   42.3470   26.3860   35.1840 O   0  0  0  0  0  0  0  0  0  0  0  0
   39.6989   25.5997   32.5232 H   0  0  0  0  0  0  0  0  0  0  0  0
   38.4070   27.4318   32.0820 H   0  0  0  0  0  0  0  0  0  0  0  0
   38.3651   27.8824   33.8245 H   0  0  0  0  0  0  0  0  0  0  0  0
   37.2071   25.6618   31.4064 H   0  0  0  0  0  0  0  0  0  0  0  0
   35.6598   25.2890   32.2103 H   0  0  0  0  0  0  0  0  0  0  0  0
   36.6285   23.7777   33.6634 H   0  0  0  0  0  0  0  0  0  0  0  0
   37.8561   23.6746   32.3517 H   0  0  0  0  0  0  0  0  0  0  0  0
   37.5697   23.9697   38.5085 H   0  0  0  0  0  0  0  0  0  0  0  0
   36.9000   25.0552   36.3482 H   0  0  0  0  0  0  0  0  0  0  0  0
   41.0317   22.3623   36.6502 H   0  0  0  0  0  0  0  0  0  0  0  0
   39.6059   26.4963   35.4707 H   0  0  0  0  0  0  0  0  0  0  0  0
   43.2870   26.6520   35.0235 H   0  0  0  0  0  0  0  0  0  0  0  0
  1  9  1  0
  2  1  1  0
  2 13  1  0
  3  4  1  0
  3  2  1  0
  5  6  1  0
  5  4  1  0
  6  1  1  0
  7 12  2  0
  8  7  1  0
  9 10  1  0
  9  8  2  0
 10 11  2  0
 11 12  1  0
 14 13  1  0
 14 16  1  0
 15 14  2  0
  2 17  1  6
  3 18  1  0
  3 19  1  0
  5 20  1  0
  5 21  1  0
  6 22  1  0
  6 23  1  0
  7 24  1  0
  8 25  1  0
 11 26  1  0
 13 27  1  0
 16 28  1  0
M  ISO  8  17  13  18  13  19  13  20  13  21  13  22  13  23  13  24  14
M  ISO  3  25  14  26  14  28   3
M  END
>  <minimizedAffinity>  (1) 
-3.9762888

>  <minimizedRMSD>  (1) 
1.64976346

$$$$
