
     RDKit          3D

 43 45  0  0  1  0  0  0  0  0999 V2000
   37.0540   25.3550   31.8730 N   0  0  0  0  0  0  0  0  0  0  0  0
   38.0840   26.2200   31.3460 C   0  0  1  0  0  0  0  0  0  0  0  0
   37.9720   27.6060   31.9860 C   0  0  0  0  0  0  0  0  0  0  0  0
   36.7520   27.7120   32.6370 O   0  0  0  0  0  0  0  0  0  0  0  0
   35.7210   27.3750   31.7600 C   0  0  0  0  0  0  0  0  0  0  0  0
   35.7430   25.8640   31.5820 C   0  0  0  0  0  0  0  0  0  0  0  0
   37.3990   21.7850   32.9630 C   0  0  0  0  0  0  0  0  0  0  0  0
   37.0920   22.8740   32.1370 C   0  0  0  0  0  0  0  0  0  0  0  0
   37.3120   24.1760   32.5780 C   0  0  0  0  0  0  0  0  0  0  0  0
   37.8210   24.2770   33.8090 N   0  0  0  0  0  0  0  0  0  0  0  0
   38.1200   23.2790   34.6120 C   0  0  0  0  0  0  0  0  0  0  0  0
   37.9060   22.0050   34.1800 N   0  0  0  0  0  0  0  0  0  0  0  0
   38.6520   23.5230   35.8900 N   0  0  0  0  0  0  0  0  0  0  0  0
   39.9350   23.0230   36.2720 C   0  0  0  0  0  0  0  0  0  0  0  0
   40.0260   22.5080   37.6720 C   0  0  0  0  0  0  0  0  0  0  0  0
   39.1250   23.1050   38.6070 N   0  0  0  0  0  0  0  0  0  0  0  0
   37.7980   23.3060   38.0800 C   0  0  0  0  0  0  0  0  0  0  0  0
   37.9590   24.2870   36.9100 C   0  0  0  0  0  0  0  0  0  0  0  0
   39.3560   25.7220   31.8020 N   0  0  0  0  0  0  0  0  0  0  0  0
   40.3140   25.3270   30.8290 C   0  0  0  0  0  0  0  0  0  0  0  0
   40.0540   25.7380   29.6180 N   0  0  0  0  0  0  0  0  0  0  0  0
   41.3620   24.6300   31.0050 O   0  0  0  0  0  0  0  0  0  0  0  0
   37.9873   26.2590   30.2510 H   0  0  0  0  0  0  0  0  0  0  0  0
   38.7884   27.7435   32.7103 H   0  0  0  0  0  0  0  0  0  0  0  0
   38.0427   28.3790   31.2066 H   0  0  0  0  0  0  0  0  0  0  0  0
   34.7540   27.6891   32.1798 H   0  0  0  0  0  0  0  0  0  0  0  0
   35.8570   27.8798   30.7922 H   0  0  0  0  0  0  0  0  0  0  0  0
   35.0139   25.4058   32.2665 H   0  0  0  0  0  0  0  0  0  0  0  0
   35.4828   25.6188   30.5417 H   0  0  0  0  0  0  0  0  0  0  0  0
   37.2242   20.7570   32.6128 H   0  0  0  0  0  0  0  0  0  0  0  0
   36.6748   22.6994   31.1343 H   0  0  0  0  0  0  0  0  0  0  0  0
   40.1970   22.2012   35.5894 H   0  0  0  0  0  0  0  0  0  0  0  0
   40.6250   23.8778   36.2157 H   0  0  0  0  0  0  0  0  0  0  0  0
   39.8237   21.4270   37.6493 H   0  0  0  0  0  0  0  0  0  0  0  0
   41.0372   22.7626   38.0223 H   0  0  0  0  0  0  0  0  0  0  0  0
   39.0586   22.4923   39.4323 H   0  0  0  0  0  0  0  0  0  0  0  0
   37.3775   22.3531   37.7263 H   0  0  0  0  0  0  0  0  0  0  0  0
   37.1122   23.6972   38.8460 H   0  0  0  0  0  0  0  0  0  0  0  0
   38.5547   25.1605   37.2138 H   0  0  0  0  0  0  0  0  0  0  0  0
   36.9940   24.6791   36.5564 H   0  0  0  0  0  0  0  0  0  0  0  0
   39.5663   25.6538   32.8080 H   0  0  0  0  0  0  0  0  0  0  0  0
   39.2137   26.3052   29.4359 H   0  0  0  0  0  0  0  0  0  0  0  0
   40.6891   25.4952   28.8443 H   0  0  0  0  0  0  0  0  0  0  0  0
  1  9  1  0
  2 19  1  0
  2  1  1  0
  2  3  1  0
  3  4  1  0
  5  4  1  0
  6  5  1  0
  6  1  1  0
  7 12  2  0
  8  9  2  0
  8  7  1  0
  9 10  1  0
 10 11  2  0
 11 13  1  0
 12 11  1  0
 13 14  1  0
 13 18  1  0
 14 15  1  0
 15 16  1  0
 17 16  1  0
 18 17  1  0
 20 22  2  0
 20 19  1  0
 21 20  1  0
  2 23  1  6
  3 24  1  0
  3 25  1  0
  5 26  1  0
  5 27  1  0
  6 28  1  0
  6 29  1  0
  7 30  1  0
  8 31  1  0
 14 32  1  0
 14 33  1  0
 15 34  1  0
 15 35  1  0
 16 36  1  0
 17 37  1  0
 17 38  1  0
 18 39  1  0
 18 40  1  0
 19 41  1  0
 21 42  1  0
 21 43  1  0
M  ISO  8  23  13  24  13  25  13  26  13  27  13  28  13  29  13  30  14
M  ISO  8  31  14  32  13  33  13  34  13  35  13  36   5  37  13  38  13
M  ISO  2  39  13  40  13
M  END
>  <minimizedAffinity>  (1) 
-5.22066355

>  <minimizedRMSD>  (1) 
3.94770741

$$$$
