
     RDKit          3D

 43 46  0  0  1  0  0  0  0  0999 V2000
   39.0870   24.8050   34.2640 N   0  0  0  0  0  0  0  0  0  0  0  0
   39.6260   26.0460   33.7940 C   0  0  1  0  0  0  0  0  0  0  0  0
   38.5530   27.1240   33.8210 C   0  0  0  0  0  0  0  0  0  0  0  0
   37.3170   26.5460   34.0700 O   0  0  0  0  0  0  0  0  0  0  0  0
   37.0960   25.5670   33.1000 C   0  0  0  0  0  0  0  0  0  0  0  0
   37.9670   24.3940   33.4390 C   0  0  0  0  0  0  0  0  0  0  0  0
   39.5490   23.0320   37.5190 C   0  0  0  0  0  0  0  0  0  0  0  0
   38.8890   23.7580   36.5210 C   0  0  0  0  0  0  0  0  0  0  0  0
   39.5750   24.0900   35.3640 C   0  0  0  0  0  0  0  0  0  0  0  0
   40.8560   23.6930   35.2530 N   0  0  0  0  0  0  0  0  0  0  0  0
   41.4730   22.9980   36.2200 C   0  0  0  0  0  0  0  0  0  0  0  0
   40.8190   22.6630   37.3600 N   0  0  0  0  0  0  0  0  0  0  0  0
   42.8650   22.6000   36.0340 C   0  0  0  0  0  0  0  0  0  0  0  0
   43.2600   21.4220   35.4320 C   0  0  0  0  0  0  0  0  0  0  0  0
   44.6240   21.4130   35.4480 N   0  0  0  0  0  0  0  0  0  0  0  0
   45.0910   22.5520   36.0410 C   0  0  0  0  0  0  0  0  0  0  0  0
   46.3680   23.0130   36.2970 C   0  0  0  0  0  0  0  0  0  0  0  0
   46.5310   24.2460   36.9350 C   0  0  0  0  0  0  0  0  0  0  0  0
   45.4430   25.0340   37.3250 C   0  0  0  0  0  0  0  0  0  0  0  0
   44.1960   24.5140   37.0380 C   0  0  0  0  0  0  0  0  0  0  0  0
   43.9930   23.3010   36.4110 C   0  0  0  0  0  0  0  0  0  0  0  0
   40.6410   26.4620   34.7420 N   0  0  0  0  0  0  0  0  0  0  0  0
   41.8830   26.8920   34.2500 C   0  0  0  0  0  0  0  0  0  0  0  0
   41.7340   27.6340   33.1200 N   0  0  0  0  0  0  0  0  0  0  0  0
   43.0790   26.7820   34.5660 O   0  0  0  0  0  0  0  0  0  0  0  0
   40.0154   25.9142   32.7737 H   0  0  0  0  0  0  0  0  0  0  0  0
   38.7838   27.8501   34.6144 H   0  0  0  0  0  0  0  0  0  0  0  0
   38.5265   27.6366   32.8481 H   0  0  0  0  0  0  0  0  0  0  0  0
   37.3603   25.9565   32.1058 H   0  0  0  0  0  0  0  0  0  0  0  0
   36.0367   25.2712   33.0814 H   0  0  0  0  0  0  0  0  0  0  0  0
   37.3710   23.6484   33.9857 H   0  0  0  0  0  0  0  0  0  0  0  0
   38.3567   23.9629   32.5051 H   0  0  0  0  0  0  0  0  0  0  0  0
   39.0146   22.7639   38.4423 H   0  0  0  0  0  0  0  0  0  0  0  0
   37.8399   24.0609   36.6534 H   0  0  0  0  0  0  0  0  0  0  0  0
   42.6027   20.6423   35.0197 H   0  0  0  0  0  0  0  0  0  0  0  0
   45.2146   20.6590   35.0691 H   0  0  0  0  0  0  0  0  0  0  0  0
   47.2449   22.4176   36.0026 H   0  0  0  0  0  0  0  0  0  0  0  0
   47.5495   24.6090   37.1373 H   0  0  0  0  0  0  0  0  0  0  0  0
   45.5721   26.0041   37.8273 H   0  0  0  0  0  0  0  0  0  0  0  0
   43.3118   25.1015   37.3263 H   0  0  0  0  0  0  0  0  0  0  0  0
   40.4546   26.4424   35.7548 H   0  0  0  0  0  0  0  0  0  0  0  0
   40.7931   27.8089   32.7391 H   0  0  0  0  0  0  0  0  0  0  0  0
   42.5620   28.0210   32.6451 H   0  0  0  0  0  0  0  0  0  0  0  0
  1  9  1  0
  2  3  1  0
  2  1  1  0
  2 22  1  0
  3  4  1  0
  5  6  1  0
  5  4  1  0
  6  1  1  0
  8  7  2  0
  9  8  1  0
 10  9  2  0
 10 11  1  0
 11 12  2  0
 12  7  1  0
 13 11  1  0
 13 21  1  0
 14 15  1  0
 14 13  2  0
 15 16  1  0
 16 17  1  0
 16 21  2  0
 17 18  2  0
 18 19  1  0
 20 19  2  0
 21 20  1  0
 23 25  2  0
 23 22  1  0
 24 23  1  0
  2 26  1  6
  3 27  1  0
  3 28  1  0
  5 29  1  0
  5 30  1  0
  6 31  1  0
  6 32  1  0
  7 33  1  0
  8 34  1  0
 14 35  1  0
 15 36  1  0
 17 37  1  0
 18 38  1  0
 19 39  1  0
 20 40  1  0
 22 41  1  0
 24 42  1  0
 24 43  1  0
M  ISO  8  26  13  27  13  28  13  29  13  30  13  31  13  32  13  33  14
M  ISO  7  34  14  35  14  36   9  37  14  38  14  39  14  40  14
M  END
>  <minimizedAffinity>  (1) 
-5.27411461

>  <minimizedRMSD>  (1) 
2.28559017

$$$$
