
     RDKit          3D

 39 41  0  0  1  0  0  0  0  0999 V2000
   38.0980   23.6260   33.3440 N   0  0  0  0  0  0  0  0  0  0  0  0
   38.2380   23.1950   34.7020 C   0  0  1  0  0  0  0  0  0  0  0  0
   39.1500   21.9760   34.7660 C   0  0  0  0  0  0  0  0  0  0  0  0
   39.4020   21.5070   33.4840 O   0  0  0  0  0  0  0  0  0  0  0  0
   38.1680   21.2410   32.8850 C   0  0  0  0  0  0  0  0  0  0  0  0
   37.5480   22.5610   32.5280 C   0  0  0  0  0  0  0  0  0  0  0  0
   39.7900   26.6100   31.8680 C   0  0  0  0  0  0  0  0  0  0  0  0
   39.6350   25.2840   32.2840 C   0  0  0  0  0  0  0  0  0  0  0  0
   38.4420   24.8980   32.8700 C   0  0  0  0  0  0  0  0  0  0  0  0
   37.4750   25.8250   33.0130 N   0  0  0  0  0  0  0  0  0  0  0  0
   37.6430   27.0970   32.6050 C   0  0  0  0  0  0  0  0  0  0  0  0
   38.8040   27.4920   32.0310 N   0  0  0  0  0  0  0  0  0  0  0  0
   36.5680   28.0240   32.7920 N   0  0  0  0  0  0  0  0  0  0  0  0
   36.4660   28.3850   34.0970 C   0  0  0  0  0  0  0  0  0  0  0  0
   35.4770   29.2840   34.4930 C   0  0  0  0  0  0  0  0  0  0  0  0
   34.6330   29.7710   33.4990 C   0  0  0  0  0  0  0  0  0  0  0  0
   33.7400   30.5710   33.8090 O   0  0  0  0  0  0  0  0  0  0  0  0
   34.7710   29.3840   32.2180 N   0  0  0  0  0  0  0  0  0  0  0  0
   35.7320   28.5150   31.8610 C   0  0  0  0  0  0  0  0  0  0  0  0
   35.9930   28.0590   30.7240 O   0  0  0  0  0  0  0  0  0  0  0  0
   38.9360   24.2520   35.4150 N   0  0  0  0  0  0  0  0  0  0  0  0
   38.2450   24.9580   36.4130 C   0  0  0  0  0  0  0  0  0  0  0  0
   37.4500   24.1240   37.1360 N   0  0  0  0  0  0  0  0  0  0  0  0
   38.1610   26.1270   36.8160 O   0  0  0  0  0  0  0  0  0  0  0  0
   37.2478   22.9646   35.1220 H   0  0  0  0  0  0  0  0  0  0  0  0
   40.0997   22.2557   35.2453 H   0  0  0  0  0  0  0  0  0  0  0  0
   38.6573   21.1852   35.3507 H   0  0  0  0  0  0  0  0  0  0  0  0
   38.3131   20.6362   31.9777 H   0  0  0  0  0  0  0  0  0  0  0  0
   37.5168   20.6789   33.5705 H   0  0  0  0  0  0  0  0  0  0  0  0
   37.7481   22.7786   31.4685 H   0  0  0  0  0  0  0  0  0  0  0  0
   36.4646   22.5020   32.7090 H   0  0  0  0  0  0  0  0  0  0  0  0
   40.7343   26.9281   31.4020 H   0  0  0  0  0  0  0  0  0  0  0  0
   40.4499   24.5578   32.1474 H   0  0  0  0  0  0  0  0  0  0  0  0
   37.1623   27.9690   34.8401 H   0  0  0  0  0  0  0  0  0  0  0  0
   35.3685   29.5943   35.5427 H   0  0  0  0  0  0  0  0  0  0  0  0
   34.1322   29.7583   31.5020 H   0  0  0  0  0  0  0  0  0  0  0  0
   39.9160   24.4782   35.1931 H   0  0  0  0  0  0  0  0  0  0  0  0
   36.8784   24.4974   37.9072 H   0  0  0  0  0  0  0  0  0  0  0  0
   37.4196   23.1190   36.9123 H   0  0  0  0  0  0  0  0  0  0  0  0
  1  2  1  0
  2  3  1  0
  2 21  1  0
  4  3  1  0
  5  4  1  0
  6  5  1  0
  6  1  1  0
  7 12  2  0
  7  8  1  0
  8  9  2  0
  9 10  1  0
  9  1  1  0
 11 13  1  0
 11 10  2  0
 12 11  1  0
 13 14  1  0
 14 15  2  0
 16 17  2  0
 16 15  1  0
 18 16  1  0
 19 18  1  0
 19 13  1  0
 20 19  2  0
 21 22  1  0
 22 24  2  0
 22 23  1  0
  2 25  1  1
  3 26  1  0
  3 27  1  0
  5 28  1  0
  5 29  1  0
  6 30  1  0
  6 31  1  0
  7 32  1  0
  8 33  1  0
 14 34  1  0
 15 35  1  0
 18 36  1  0
 21 37  1  0
 23 38  1  0
 23 39  1  0
M  ISO  8  25  13  26  13  27  13  28  13  29  13  30  13  31  13  32  14
M  ISO  4  33  14  34  14  35  14  36   9
M  END
>  <minimizedAffinity>  (1) 
-5.01003695

>  <minimizedRMSD>  (1) 
7.99702501

$$$$
