
     RDKit          3D

 43 46  0  0  1  0  0  0  0  0999 V2000
   37.9860   24.3810   37.1640 C   0  0  0  0  0  0  0  0  0  0  0  0
   37.5770   24.9150   35.9370 C   0  0  0  0  0  0  0  0  0  0  0  0
   38.3590   24.7310   34.8000 C   0  0  0  0  0  0  0  0  0  0  0  0
   39.4840   24.0300   34.9810 N   0  0  0  0  0  0  0  0  0  0  0  0
   39.9000   23.5130   36.1230 C   0  0  0  0  0  0  0  0  0  0  0  0
   39.1370   23.6930   37.2290 N   0  0  0  0  0  0  0  0  0  0  0  0
   41.1130   22.7710   36.2550 N   0  0  0  0  0  0  0  0  0  0  0  0
   41.2610   21.5850   36.8790 C   0  0  0  0  0  0  0  0  0  0  0  0
   42.5370   21.1520   36.8260 N   0  0  0  0  0  0  0  0  0  0  0  0
   43.2130   22.0960   36.1450 C   0  0  0  0  0  0  0  0  0  0  0  0
   44.5520   22.1380   35.8100 C   0  0  0  0  0  0  0  0  0  0  0  0
   45.3300   21.2000   36.1520 O   0  0  0  0  0  0  0  0  0  0  0  0
   44.9760   23.2170   35.1130 N   0  0  0  0  0  0  0  0  0  0  0  0
   44.1060   24.1880   34.7740 C   0  0  0  0  0  0  0  0  0  0  0  0
   44.6540   25.2770   34.0420 N   0  0  0  0  0  0  0  0  0  0  0  0
   42.7910   24.1790   35.0840 N   0  0  0  0  0  0  0  0  0  0  0  0
   42.3300   23.1150   35.7810 C   0  0  0  0  0  0  0  0  0  0  0  0
   38.0860   25.2030   33.5090 N   0  0  0  0  0  0  0  0  0  0  0  0
   38.8290   26.2610   32.8620 C   0  0  1  0  0  0  0  0  0  0  0  0
   37.8960   27.4360   32.5480 C   0  0  0  0  0  0  0  0  0  0  0  0
   36.5770   27.0220   32.6930 O   0  0  0  0  0  0  0  0  0  0  0  0
   36.3560   25.8640   31.9460 C   0  0  0  0  0  0  0  0  0  0  0  0
   37.0360   24.7110   32.6590 C   0  0  0  0  0  0  0  0  0  0  0  0
   39.7560   26.7980   33.8260 N   0  0  0  0  0  0  0  0  0  0  0  0
   41.1100   26.9800   33.4240 C   0  0  0  0  0  0  0  0  0  0  0  0
   41.3250   26.8730   32.1430 N   0  0  0  0  0  0  0  0  0  0  0  0
   42.0990   27.2210   34.2000 O   0  0  0  0  0  0  0  0  0  0  0  0
   37.3714   24.5233   38.0651 H   0  0  0  0  0  0  0  0  0  0  0  0
   36.6361   25.4810   35.8707 H   0  0  0  0  0  0  0  0  0  0  0  0
   40.4425   21.0385   37.3703 H   0  0  0  0  0  0  0  0  0  0  0  0
   45.9662   23.2963   34.8409 H   0  0  0  0  0  0  0  0  0  0  0  0
   45.6563   25.2856   33.8047 H   0  0  0  0  0  0  0  0  0  0  0  0
   44.0487   26.0572   33.7490 H   0  0  0  0  0  0  0  0  0  0  0  0
   39.3051   25.8565   31.9566 H   0  0  0  0  0  0  0  0  0  0  0  0
   38.0644   27.7739   31.5148 H   0  0  0  0  0  0  0  0  0  0  0  0
   38.1013   28.2667   33.2392 H   0  0  0  0  0  0  0  0  0  0  0  0
   36.7809   25.9828   30.9383 H   0  0  0  0  0  0  0  0  0  0  0  0
   35.2774   25.6712   31.8490 H   0  0  0  0  0  0  0  0  0  0  0  0
   36.2954   24.1741   33.2700 H   0  0  0  0  0  0  0  0  0  0  0  0
   37.4690   24.0312   31.9104 H   0  0  0  0  0  0  0  0  0  0  0  0
   39.4482   27.0430   34.7779 H   0  0  0  0  0  0  0  0  0  0  0  0
   42.2775   26.9908   31.7690 H   0  0  0  0  0  0  0  0  0  0  0  0
   40.5425   26.6706   31.5046 H   0  0  0  0  0  0  0  0  0  0  0  0
  1  6  2  0
  2  1  1  0
  3  4  1  0
  3  2  2  0
  4  5  2  0
  5  7  1  0
  5  6  1  0
  7  8  1  0
  9  8  2  0
 10  9  1  0
 11 10  1  0
 11 12  2  0
 13 11  1  0
 14 16  2  0
 14 13  1  0
 15 14  1  0
 16 17  1  0
 17 10  2  0
 17  7  1  0
 18  3  1  0
 19 18  1  0
 19 24  1  0
 20 21  1  0
 20 19  1  0
 22 23  1  0
 22 21  1  0
 23 18  1  0
 25 24  1  0
 25 27  2  0
 26 25  1  0
  1 28  1  0
  2 29  1  0
  8 30  1  0
 13 31  1  0
 15 32  1  0
 15 33  1  0
 19 34  1  6
 20 35  1  0
 20 36  1  0
 22 37  1  0
 22 38  1  0
 23 39  1  0
 23 40  1  0
 24 41  1  0
 26 42  1  0
 26 43  1  0
M  ISO  8  28  14  29  14  30  14  31   9  34  13  35  13  36  13  37  13
M  ISO  3  38  13  39  13  40  13
M  END
>  <minimizedAffinity>  (1) 
-4.95283508

>  <minimizedRMSD>  (1) 
2.03159904

$$$$
