
     RDKit          3D

 37 39  0  0  1  0  0  0  0  0999 V2000
   38.8500   25.1440   33.2680 N   0  0  0  0  0  0  0  0  0  0  0  0
   39.1340   24.9430   34.6580 C   0  0  1  0  0  0  0  0  0  0  0  0
   39.4200   26.2730   35.3340 C   0  0  0  0  0  0  0  0  0  0  0  0
   39.5430   27.2670   34.3760 O   0  0  0  0  0  0  0  0  0  0  0  0
   40.5380   26.8790   33.4760 C   0  0  0  0  0  0  0  0  0  0  0  0
   39.9670   25.7970   32.6080 C   0  0  0  0  0  0  0  0  0  0  0  0
   35.5660   25.0420   31.4930 C   0  0  0  0  0  0  0  0  0  0  0  0
   36.6990   25.5920   32.0880 C   0  0  0  0  0  0  0  0  0  0  0  0
   37.6630   24.7630   32.6380 C   0  0  0  0  0  0  0  0  0  0  0  0
   37.4520   23.4420   32.5690 N   0  0  0  0  0  0  0  0  0  0  0  0
   36.3610   22.9100   31.9970 C   0  0  0  0  0  0  0  0  0  0  0  0
   35.4100   23.7130   31.4550 N   0  0  0  0  0  0  0  0  0  0  0  0
   36.1480   21.4760   31.9290 C   0  0  0  0  0  0  0  0  0  0  0  0
   35.7010   20.7580   33.0200 C   0  0  0  0  0  0  0  0  0  0  0  0
   35.4740   19.3910   33.0360 C   0  0  0  0  0  0  0  0  0  0  0  0
   35.7160   18.7320   31.8730 N   0  0  0  0  0  0  0  0  0  0  0  0
   36.1500   19.4290   30.8120 C   0  0  0  0  0  0  0  0  0  0  0  0
   36.3680   20.7640   30.8110 N   0  0  0  0  0  0  0  0  0  0  0  0
   37.9370   24.4160   35.2710 N   0  0  0  0  0  0  0  0  0  0  0  0
   38.0080   23.1870   35.9460 C   0  0  0  0  0  0  0  0  0  0  0  0
   39.1710   23.0690   36.6370 N   0  0  0  0  0  0  0  0  0  0  0  0
   37.2990   22.1780   36.0870 O   0  0  0  0  0  0  0  0  0  0  0  0
   39.9991   24.2715   34.7618 H   0  0  0  0  0  0  0  0  0  0  0  0
   38.5931   26.5221   36.0153 H   0  0  0  0  0  0  0  0  0  0  0  0
   40.3581   26.1979   35.9035 H   0  0  0  0  0  0  0  0  0  0  0  0
   40.8391   27.7369   32.8569 H   0  0  0  0  0  0  0  0  0  0  0  0
   41.4254   26.5147   34.0144 H   0  0  0  0  0  0  0  0  0  0  0  0
   40.7486   25.0517   32.3991 H   0  0  0  0  0  0  0  0  0  0  0  0
   39.6089   26.2481   31.6708 H   0  0  0  0  0  0  0  0  0  0  0  0
   34.8003   25.6990   31.0548 H   0  0  0  0  0  0  0  0  0  0  0  0
   36.8282   26.6839   32.1211 H   0  0  0  0  0  0  0  0  0  0  0  0
   35.5100   21.3145   33.9494 H   0  0  0  0  0  0  0  0  0  0  0  0
   35.1188   18.8702   33.9374 H   0  0  0  0  0  0  0  0  0  0  0  0
   36.3415   18.8775   29.8797 H   0  0  0  0  0  0  0  0  0  0  0  0
   37.0476   24.9324   35.2140 H   0  0  0  0  0  0  0  0  0  0  0  0
   39.3619   22.2162   37.1821 H   0  0  0  0  0  0  0  0  0  0  0  0
   39.8622   23.8323   36.6160 H   0  0  0  0  0  0  0  0  0  0  0  0
  1  2  1  0
  2 19  1  0
  2  3  1  0
  4  3  1  0
  5  4  1  0
  6  1  1  0
  6  5  1  0
  7  8  2  0
  8  9  1  0
  9  1  1  0
 10  9  2  0
 11 10  1  0
 12  7  1  0
 12 11  2  0
 13 11  1  0
 13 14  2  0
 14 15  1  0
 16 15  2  0
 17 16  1  0
 18 17  2  0
 18 13  1  0
 19 20  1  0
 20 22  2  0
 20 21  1  0
  2 23  1  6
  3 24  1  0
  3 25  1  0
  5 26  1  0
  5 27  1  0
  6 28  1  0
  6 29  1  0
  7 30  1  0
  8 31  1  0
 14 32  1  0
 15 33  1  0
 17 34  1  0
 19 35  1  0
 21 36  1  0
 21 37  1  0
M  ISO  8  23  13  24  13  25  13  26  13  27  13  28  13  29  13  30  14
M  ISO  4  31  14  32  14  33  14  34  14
M  END
>  <minimizedAffinity>  (1) 
-4.9770112

>  <minimizedRMSD>  (1) 
5.93131495

$$$$
