
     RDKit          3D

 42 44  0  0  1  0  0  0  0  0999 V2000
   38.0460   25.2980   33.3800 N   0  0  0  0  0  0  0  0  0  0  0  0
   38.8020   26.3460   32.7370 C   0  0  1  0  0  0  0  0  0  0  0  0
   37.8830   27.5240   32.4040 C   0  0  0  0  0  0  0  0  0  0  0  0
   36.5580   27.1210   32.5470 O   0  0  0  0  0  0  0  0  0  0  0  0
   36.3340   25.9630   31.7990 C   0  0  0  0  0  0  0  0  0  0  0  0
   36.9960   24.8080   32.5340 C   0  0  0  0  0  0  0  0  0  0  0  0
   37.9890   24.5970   37.0630 C   0  0  0  0  0  0  0  0  0  0  0  0
   37.6070   25.1410   35.8290 C   0  0  0  0  0  0  0  0  0  0  0  0
   38.3100   24.8290   34.6710 C   0  0  0  0  0  0  0  0  0  0  0  0
   39.3380   23.9960   34.8460 N   0  0  0  0  0  0  0  0  0  0  0  0
   39.7340   23.4630   35.9800 C   0  0  0  0  0  0  0  0  0  0  0  0
   39.0430   23.7700   37.1190 N   0  0  0  0  0  0  0  0  0  0  0  0
   43.0370   20.8700   36.1930 C   0  0  0  0  0  0  0  0  0  0  0  0
   42.1890   21.0360   37.2600 C   0  0  0  0  0  0  0  0  0  0  0  0
   41.0960   21.8750   37.2330 C   0  0  0  0  0  0  0  0  0  0  0  0
   40.8810   22.5610   36.0590 C   0  0  0  0  0  0  0  0  0  0  0  0
   41.7150   22.4120   34.9710 C   0  0  0  0  0  0  0  0  0  0  0  0
   42.7860   21.5730   35.0380 C   0  0  0  0  0  0  0  0  0  0  0  0
   44.4350   19.8220   36.1700 S   0  0  0  0  0  0  0  0  0  0  0  0
   44.4950   18.9240   37.3650 O   0  0  0  0  0  0  0  0  0  0  0  0
   45.6550   20.7060   36.1250 O   0  0  0  0  0  0  0  0  0  0  0  0
   39.7210   26.8860   33.7050 N   0  0  0  0  0  0  0  0  0  0  0  0
   41.1020   26.9530   33.3490 C   0  0  0  0  0  0  0  0  0  0  0  0
   41.3670   26.7290   32.0900 N   0  0  0  0  0  0  0  0  0  0  0  0
   42.0660   27.1990   34.1580 O   0  0  0  0  0  0  0  0  0  0  0  0
   39.2856   25.9295   31.8411 H   0  0  0  0  0  0  0  0  0  0  0  0
   38.0599   27.8481   31.3678 H   0  0  0  0  0  0  0  0  0  0  0  0
   38.0918   28.3619   33.0855 H   0  0  0  0  0  0  0  0  0  0  0  0
   36.7746   26.0722   30.7970 H   0  0  0  0  0  0  0  0  0  0  0  0
   35.2556   25.7802   31.6821 H   0  0  0  0  0  0  0  0  0  0  0  0
   36.2452   24.2902   33.1490 H   0  0  0  0  0  0  0  0  0  0  0  0
   37.4229   24.1108   31.7980 H   0  0  0  0  0  0  0  0  0  0  0  0
   37.4295   24.8461   37.9767 H   0  0  0  0  0  0  0  0  0  0  0  0
   36.7436   25.8206   35.7764 H   0  0  0  0  0  0  0  0  0  0  0  0
   42.3921   20.4714   38.1820 H   0  0  0  0  0  0  0  0  0  0  0  0
   40.4316   21.9902   38.1021 H   0  0  0  0  0  0  0  0  0  0  0  0
   41.5147   22.9725   34.0459 H   0  0  0  0  0  0  0  0  0  0  0  0
   43.4499   21.4578   34.1685 H   0  0  0  0  0  0  0  0  0  0  0  0
   44.3658   19.0016   35.0750 H   0  0  0  0  0  0  0  0  0  0  0  0
   39.3927   27.2134   34.6247 H   0  0  0  0  0  0  0  0  0  0  0  0
   42.3406   26.7596   31.7553 H   0  0  0  0  0  0  0  0  0  0  0  0
   40.6024   26.5218   31.4317 H   0  0  0  0  0  0  0  0  0  0  0  0
  1  9  1  0
  2  1  1  0
  2 22  1  0
  3  4  1  0
  3  2  1  0
  5  6  1  0
  5  4  1  0
  6  1  1  0
  7 12  2  0
  8  7  1  0
  9 10  1  0
  9  8  2  0
 10 11  2  0
 11 16  1  0
 11 12  1  0
 13 14  2  0
 15 14  1  0
 16 15  2  0
 17 18  2  0
 17 16  1  0
 18 13  1  0
 19 13  1  0
 19 20  2  0
 21 19  2  0
 23 22  1  0
 23 25  2  0
 24 23  1  0
  2 26  1  6
  3 27  1  0
  3 28  1  0
  5 29  1  0
  5 30  1  0
  6 31  1  0
  6 32  1  0
  7 33  1  0
  8 34  1  0
 14 35  1  0
 15 36  1  0
 17 37  1  0
 18 38  1  0
 19 39  1  0
 22 40  1  0
 24 41  1  0
 24 42  1  0
M  ISO  8  26  13  27  13  28  13  29  13  30  13  31  13  32  13  33  14
M  ISO  6  34  14  35  14  36  14  37  14  38  14  39  11
M  END
>  <minimizedAffinity>  (1) 
-4.76721191

>  <minimizedRMSD>  (1) 
1.96247566

$$$$
