
     RDKit          3D

 38 40  0  0  1  0  0  0  0  0999 V2000
   37.2620   25.2590   31.9320 N   0  0  0  0  0  0  0  0  0  0  0  0
   38.3310   26.1610   31.5690 C   0  0  1  0  0  0  0  0  0  0  0  0
   38.1490   27.4980   32.2950 C   0  0  0  0  0  0  0  0  0  0  0  0
   36.8700   27.5550   32.8360 O   0  0  0  0  0  0  0  0  0  0  0  0
   35.9270   27.2800   31.8450 C   0  0  0  0  0  0  0  0  0  0  0  0
   35.9810   25.7890   31.5580 C   0  0  0  0  0  0  0  0  0  0  0  0
   37.5610   21.6190   32.7790 C   0  0  0  0  0  0  0  0  0  0  0  0
   37.3310   22.7640   32.0080 C   0  0  0  0  0  0  0  0  0  0  0  0
   37.4600   24.0290   32.5710 C   0  0  0  0  0  0  0  0  0  0  0  0
   37.8100   24.0460   33.8620 N   0  0  0  0  0  0  0  0  0  0  0  0
   38.0330   22.9900   34.6190 C   0  0  0  0  0  0  0  0  0  0  0  0
   37.9060   21.7510   34.0640 N   0  0  0  0  0  0  0  0  0  0  0  0
   38.4100   23.1430   36.0200 C   0  0  0  0  0  0  0  0  0  0  0  0
   39.5960   22.5620   36.4700 C   0  0  0  0  0  0  0  0  0  0  0  0
   39.8830   22.7480   37.8040 C   0  0  0  0  0  0  0  0  0  0  0  0
   39.0060   23.4740   38.5810 C   0  0  0  0  0  0  0  0  0  0  0  0
   37.8360   24.0430   38.1250 C   0  0  0  0  0  0  0  0  0  0  0  0
   37.5760   23.8460   36.8090 N   0  0  0  0  0  0  0  0  0  0  0  0
   39.5550   25.6340   32.1170 N   0  0  0  0  0  0  0  0  0  0  0  0
   40.6060   25.2960   31.2200 C   0  0  0  0  0  0  0  0  0  0  0  0
   40.4520   25.7600   30.0120 N   0  0  0  0  0  0  0  0  0  0  0  0
   41.6430   24.5990   31.4800 O   0  0  0  0  0  0  0  0  0  0  0  0
   38.3400   26.2771   30.4752 H   0  0  0  0  0  0  0  0  0  0  0  0
   38.8931   27.5833   33.1006 H   0  0  0  0  0  0  0  0  0  0  0  0
   38.2862   28.3259   31.5838 H   0  0  0  0  0  0  0  0  0  0  0  0
   34.9223   27.5579   32.1962 H   0  0  0  0  0  0  0  0  0  0  0  0
   36.1459   27.8562   30.9339 H   0  0  0  0  0  0  0  0  0  0  0  0
   35.1945   25.2792   32.1338 H   0  0  0  0  0  0  0  0  0  0  0  0
   35.8243   25.6243   30.4817 H   0  0  0  0  0  0  0  0  0  0  0  0
   37.4589   20.6192   32.3318 H   0  0  0  0  0  0  0  0  0  0  0  0
   37.0465   22.6628   30.9503 H   0  0  0  0  0  0  0  0  0  0  0  0
   40.2590   21.9922   35.8024 H   0  0  0  0  0  0  0  0  0  0  0  0
   40.7981   22.3237   38.2428 H   0  0  0  0  0  0  0  0  0  0  0  0
   39.2582   23.6093   39.6431 H   0  0  0  0  0  0  0  0  0  0  0  0
   37.1629   24.6148   38.7807 H   0  0  0  0  0  0  0  0  0  0  0  0
   39.6662   25.5052   33.1329 H   0  0  0  0  0  0  0  0  0  0  0  0
   39.6229   26.3250   29.7791 H   0  0  0  0  0  0  0  0  0  0  0  0
   41.1594   25.5617   29.2901 H   0  0  0  0  0  0  0  0  0  0  0  0
  1  9  1  0
  2  1  1  0
  2 19  1  0
  2  3  1  0
  3  4  1  0
  5  4  1  0
  6  5  1  0
  6  1  1  0
  7 12  2  0
  8  9  2  0
  8  7  1  0
  9 10  1  0
 10 11  2  0
 11 13  1  0
 12 11  1  0
 13 14  2  0
 13 18  1  0
 14 15  1  0
 15 16  2  0
 17 16  1  0
 18 17  2  0
 20 22  2  0
 20 19  1  0
 21 20  1  0
  2 23  1  6
  3 24  1  0
  3 25  1  0
  5 26  1  0
  5 27  1  0
  6 28  1  0
  6 29  1  0
  7 30  1  0
  8 31  1  0
 14 32  1  0
 15 33  1  0
 16 34  1  0
 17 35  1  0
 19 36  1  0
 21 37  1  0
 21 38  1  0
M  ISO  8  23  13  24  13  25  13  26  13  27  13  28  13  29  13  30  14
M  ISO  5  31  14  32  14  33  14  34  14  35  14
M  END
>  <minimizedAffinity>  (1) 
-4.85203457

>  <minimizedRMSD>  (1) 
3.90744567

$$$$
