
     RDKit          3D

 36 38  0  0  1  0  0  0  0  0999 V2000
   38.6490   24.9720   34.4720 N   0  0  0  0  0  0  0  0  0  0  0  0
   39.6310   25.8620   33.8940 C   0  0  1  0  0  0  0  0  0  0  0  0
   39.0310   27.2530   33.6860 C   0  0  0  0  0  0  0  0  0  0  0  0
   37.6480   27.1640   33.8210 O   0  0  0  0  0  0  0  0  0  0  0  0
   37.1450   26.1620   32.9900 C   0  0  0  0  0  0  0  0  0  0  0  0
   37.5100   24.8230   33.6110 C   0  0  0  0  0  0  0  0  0  0  0  0
   38.3030   23.8560   38.0300 C   0  0  0  0  0  0  0  0  0  0  0  0
   38.0400   24.5430   36.8450 C   0  0  0  0  0  0  0  0  0  0  0  0
   38.7970   24.3490   35.7130 C   0  0  0  0  0  0  0  0  0  0  0  0
   39.7760   23.4600   35.8650 N   0  0  0  0  0  0  0  0  0  0  0  0
   40.0850   22.7780   36.9410 C   0  0  0  0  0  0  0  0  0  0  0  0
   39.3240   22.9800   38.0620 N   0  0  0  0  0  0  0  0  0  0  0  0
   41.1700   21.8450   36.9880 N   0  0  0  0  0  0  0  0  0  0  0  0
   41.7120   21.0190   37.8370 N   0  0  0  0  0  0  0  0  0  0  0  0
   42.7580   20.3900   37.2600 C   0  0  0  0  0  0  0  0  0  0  0  0
   42.8820   20.8590   35.9490 C   0  0  0  0  0  0  0  0  0  0  0  0
   41.8490   21.7910   35.8020 C   0  0  0  0  0  0  0  0  0  0  0  0
   40.6730   26.0620   34.8660 N   0  0  0  0  0  0  0  0  0  0  0  0
   42.0020   25.6830   34.5100 C   0  0  0  0  0  0  0  0  0  0  0  0
   42.1830   25.4010   33.2500 N   0  0  0  0  0  0  0  0  0  0  0  0
   42.9910   25.5950   35.3210 O   0  0  0  0  0  0  0  0  0  0  0  0
   39.9813   25.4253   32.9471 H   0  0  0  0  0  0  0  0  0  0  0  0
   39.2825   27.6185   32.6795 H   0  0  0  0  0  0  0  0  0  0  0  0
   39.4374   27.9532   34.4307 H   0  0  0  0  0  0  0  0  0  0  0  0
   37.5926   26.2455   31.9886 H   0  0  0  0  0  0  0  0  0  0  0  0
   36.0537   26.2560   32.8886 H   0  0  0  0  0  0  0  0  0  0  0  0
   36.6574   24.4494   34.1971 H   0  0  0  0  0  0  0  0  0  0  0  0
   37.7552   24.1099   32.8102 H   0  0  0  0  0  0  0  0  0  0  0  0
   37.6857   24.0275   38.9241 H   0  0  0  0  0  0  0  0  0  0  0  0
   37.2053   25.2588   36.8149 H   0  0  0  0  0  0  0  0  0  0  0  0
   43.4019   19.6378   37.7391 H   0  0  0  0  0  0  0  0  0  0  0  0
   43.6281   20.5607   35.1978 H   0  0  0  0  0  0  0  0  0  0  0  0
   41.6238   22.3743   34.8970 H   0  0  0  0  0  0  0  0  0  0  0  0
   40.4660   26.4663   35.7904 H   0  0  0  0  0  0  0  0  0  0  0  0
   43.1149   25.1188   32.9141 H   0  0  0  0  0  0  0  0  0  0  0  0
   41.3941   25.4604   32.5905 H   0  0  0  0  0  0  0  0  0  0  0  0
  1  9  1  0
  2  1  1  0
  2 18  1  0
  3  4  1  0
  3  2  1  0
  5  6  1  0
  5  4  1  0
  6  1  1  0
  7 12  2  0
  8  7  1  0
  9 10  1  0
  9  8  2  0
 10 11  2  0
 11 13  1  0
 11 12  1  0
 13 14  1  0
 15 14  2  0
 16 15  1  0
 17 16  2  0
 17 13  1  0
 19 18  1  0
 19 21  2  0
 20 19  1  0
  2 22  1  6
  3 23  1  0
  3 24  1  0
  5 25  1  0
  5 26  1  0
  6 27  1  0
  6 28  1  0
  7 29  1  0
  8 30  1  0
 15 31  1  0
 16 32  1  0
 17 33  1  0
 18 34  1  0
 20 35  1  0
 20 36  1  0
M  ISO  8  22  13  23  13  24  13  25  13  26  13  27  13  28  13  29  14
M  ISO  4  30  14  31  14  32  14  33  14
M  END
>  <minimizedAffinity>  (1) 
-4.71476126

>  <minimizedRMSD>  (1) 
0.565089583

$$$$
