
     RDKit          3D

 30 31  0  0  1  0  0  0  0  0999 V2000
   38.8580   24.7000   34.6690 N   0  0  0  0  0  0  0  0  0  0  0  0
   40.0090   25.3440   34.0810 C   0  0  1  0  0  0  0  0  0  0  0  0
   39.6280   26.7410   33.5870 C   0  0  0  0  0  0  0  0  0  0  0  0
   38.2420   26.8550   33.5660 O   0  0  0  0  0  0  0  0  0  0  0  0
   37.6870   25.7960   32.8510 C   0  0  0  0  0  0  0  0  0  0  0  0
   37.7960   24.5490   33.7130 C   0  0  0  0  0  0  0  0  0  0  0  0
   38.0150   24.2880   38.2980 C   0  0  0  0  0  0  0  0  0  0  0  0
   37.9690   24.8060   36.9970 C   0  0  0  0  0  0  0  0  0  0  0  0
   38.7910   24.2860   36.0030 C   0  0  0  0  0  0  0  0  0  0  0  0
   39.5900   23.2890   36.3920 N   0  0  0  0  0  0  0  0  0  0  0  0
   39.6630   22.7760   37.6010 C   0  0  0  0  0  0  0  0  0  0  0  0
   38.8600   23.2840   38.5750 N   0  0  0  0  0  0  0  0  0  0  0  0
   40.5370   21.7360   37.8940 O   0  0  0  0  0  0  0  0  0  0  0  0
   40.9630   25.5910   35.1340 N   0  0  0  0  0  0  0  0  0  0  0  0
   42.2950   25.1230   34.9540 C   0  0  0  0  0  0  0  0  0  0  0  0
   42.5910   24.7680   33.7340 N   0  0  0  0  0  0  0  0  0  0  0  0
   43.1980   25.0170   35.8470 O   0  0  0  0  0  0  0  0  0  0  0  0
   40.3922   24.7079   33.2695 H   0  0  0  0  0  0  0  0  0  0  0  0
   40.0495   27.4986   34.2641 H   0  0  0  0  0  0  0  0  0  0  0  0
   40.0277   26.8972   32.5741 H   0  0  0  0  0  0  0  0  0  0  0  0
   36.6305   26.0068   32.6290 H   0  0  0  0  0  0  0  0  0  0  0  0
   38.2186   25.6536   31.8986 H   0  0  0  0  0  0  0  0  0  0  0  0
   36.8467   24.3911   34.2459 H   0  0  0  0  0  0  0  0  0  0  0  0
   38.0123   23.6841   33.0687 H   0  0  0  0  0  0  0  0  0  0  0  0
   37.3650   24.7004   39.0838 H   0  0  0  0  0  0  0  0  0  0  0  0
   37.2785   25.6290   36.7604 H   0  0  0  0  0  0  0  0  0  0  0  0
   40.5753   21.3651   38.8111 H   0  0  0  0  0  0  0  0  0  0  0  0
   40.6884   26.0915   35.9913 H   0  0  0  0  0  0  0  0  0  0  0  0
   43.5341   24.4170   33.5142 H   0  0  0  0  0  0  0  0  0  0  0  0
   41.8816   24.8387   32.9906 H   0  0  0  0  0  0  0  0  0  0  0  0
  1  9  1  0
  2  1  1  0
  2 14  1  0
  3  2  1  0
  4  3  1  0
  5  4  1  0
  5  6  1  0
  6  1  1  0
  7 12  2  0
  8  7  1  0
  9 10  1  0
  9  8  2  0
 10 11  2  0
 11 13  1  0
 11 12  1  0
 15 14  1  0
 15 17  2  0
 16 15  1  0
  2 18  1  6
  3 19  1  0
  3 20  1  0
  5 21  1  0
  5 22  1  0
  6 23  1  0
  6 24  1  0
  7 25  1  0
  8 26  1  0
 13 27  1  0
 14 28  1  0
 16 29  1  0
 16 30  1  0
M  ISO  8  18  13  19  13  20  13  21  13  22  13  23  13  24  13  25  14
M  ISO  2  26  14  27   3
M  END
>  <minimizedAffinity>  (1) 
-4.6203227

>  <minimizedRMSD>  (1) 
0.280342996

$$$$
