
     RDKit          3D

 31 32  0  0  1  0  0  0  0  0999 V2000
   38.8560   24.6990   34.6710 N   0  0  0  0  0  0  0  0  0  0  0  0
   40.0080   25.3410   34.0800 C   0  0  1  0  0  0  0  0  0  0  0  0
   39.6250   26.7380   33.5810 C   0  0  0  0  0  0  0  0  0  0  0  0
   38.2410   26.8550   33.5690 O   0  0  0  0  0  0  0  0  0  0  0  0
   37.6860   25.7940   32.8530 C   0  0  0  0  0  0  0  0  0  0  0  0
   37.7920   24.5480   33.7160 C   0  0  0  0  0  0  0  0  0  0  0  0
   38.0130   24.2830   38.2990 C   0  0  0  0  0  0  0  0  0  0  0  0
   37.9640   24.7990   36.9980 C   0  0  0  0  0  0  0  0  0  0  0  0
   38.7930   24.2850   36.0050 C   0  0  0  0  0  0  0  0  0  0  0  0
   39.6030   23.2970   36.3960 N   0  0  0  0  0  0  0  0  0  0  0  0
   39.6770   22.7880   37.6070 C   0  0  0  0  0  0  0  0  0  0  0  0
   38.8670   23.2890   38.5790 N   0  0  0  0  0  0  0  0  0  0  0  0
   40.6100   21.7500   37.7830 N   0  0  0  0  0  0  0  0  0  0  0  0
   40.9600   25.5960   35.1320 N   0  0  0  0  0  0  0  0  0  0  0  0
   42.2930   25.1300   34.9550 C   0  0  0  0  0  0  0  0  0  0  0  0
   42.5880   24.7700   33.7360 N   0  0  0  0  0  0  0  0  0  0  0  0
   43.1990   25.0280   35.8470 O   0  0  0  0  0  0  0  0  0  0  0  0
   40.3922   24.7007   33.2723 H   0  0  0  0  0  0  0  0  0  0  0  0
   40.0527   27.4982   34.2512 H   0  0  0  0  0  0  0  0  0  0  0  0
   40.0174   26.8878   32.5644 H   0  0  0  0  0  0  0  0  0  0  0  0
   36.6301   26.0054   32.6285 H   0  0  0  0  0  0  0  0  0  0  0  0
   38.2198   25.6502   31.9020 H   0  0  0  0  0  0  0  0  0  0  0  0
   36.8428   24.3931   34.2499 H   0  0  0  0  0  0  0  0  0  0  0  0
   38.0048   23.6812   33.0731 H   0  0  0  0  0  0  0  0  0  0  0  0
   37.3572   24.6895   39.0830 H   0  0  0  0  0  0  0  0  0  0  0  0
   37.2663   25.6153   36.7595 H   0  0  0  0  0  0  0  0  0  0  0  0
   40.7192   21.3068   38.7063 H   0  0  0  0  0  0  0  0  0  0  0  0
   41.1839   21.4332   36.9886 H   0  0  0  0  0  0  0  0  0  0  0  0
   40.6837   26.1005   35.9864 H   0  0  0  0  0  0  0  0  0  0  0  0
   43.5314   24.4197   33.5165 H   0  0  0  0  0  0  0  0  0  0  0  0
   41.8775   24.8361   32.9933 H   0  0  0  0  0  0  0  0  0  0  0  0
  1  9  1  0
  2  1  1  0
  2 14  1  0
  3  2  1  0
  4  3  1  0
  5  4  1  0
  5  6  1  0
  6  1  1  0
  7 12  2  0
  8  7  1  0
  9 10  1  0
  9  8  2  0
 10 11  2  0
 11 13  1  0
 11 12  1  0
 15 14  1  0
 15 17  2  0
 16 15  1  0
  2 18  1  6
  3 19  1  0
  3 20  1  0
  5 21  1  0
  5 22  1  0
  6 23  1  0
  6 24  1  0
  7 25  1  0
  8 26  1  0
 13 27  1  0
 13 28  1  0
 14 29  1  0
 16 30  1  0
 16 31  1  0
M  ISO  8  18  13  19  13  20  13  21  13  22  13  23  13  24  13  25  14
M  ISO  1  26  14
M  END
>  <minimizedAffinity>  (1) 
-4.65001059

>  <minimizedRMSD>  (1) 
0.278077006

$$$$
