
     RDKit          3D

 35 37  0  0  1  0  0  0  0  0999 V2000
   38.9790   24.7500   34.4710 N   0  0  0  0  0  0  0  0  0  0  0  0
   39.8500   25.7810   33.9570 C   0  0  1  0  0  0  0  0  0  0  0  0
   39.1100   27.1200   33.9230 C   0  0  0  0  0  0  0  0  0  0  0  0
   37.7520   26.8920   34.0990 O   0  0  0  0  0  0  0  0  0  0  0  0
   37.3070   25.9380   33.1840 C   0  0  0  0  0  0  0  0  0  0  0  0
   37.8160   24.5820   33.6470 C   0  0  0  0  0  0  0  0  0  0  0  0
   38.9530   23.3120   37.9350 C   0  0  0  0  0  0  0  0  0  0  0  0
   38.5750   24.1130   36.8500 C   0  0  0  0  0  0  0  0  0  0  0  0
   39.2430   24.0170   35.6340 C   0  0  0  0  0  0  0  0  0  0  0  0
   40.2350   23.1240   35.6040 N   0  0  0  0  0  0  0  0  0  0  0  0
   40.6230   22.3540   36.5970 C   0  0  0  0  0  0  0  0  0  0  0  0
   39.9670   22.4500   37.7890 N   0  0  0  0  0  0  0  0  0  0  0  0
   41.6910   21.4120   36.5290 N   0  0  0  0  0  0  0  0  0  0  0  0
   42.3180   20.7800   37.5410 C   0  0  0  0  0  0  0  0  0  0  0  0
   43.2750   19.9670   37.0340 N   0  0  0  0  0  0  0  0  0  0  0  0
   43.2520   20.0860   35.7000 C   0  0  0  0  0  0  0  0  0  0  0  0
   42.2840   20.9650   35.4400 N   0  0  0  0  0  0  0  0  0  0  0  0
   40.9070   25.9850   34.9130 N   0  0  0  0  0  0  0  0  0  0  0  0
   42.2510   25.7810   34.4850 C   0  0  0  0  0  0  0  0  0  0  0  0
   42.4030   25.6810   33.1910 N   0  0  0  0  0  0  0  0  0  0  0  0
   43.2790   25.6820   35.2350 O   0  0  0  0  0  0  0  0  0  0  0  0
   40.2023   25.4783   32.9599 H   0  0  0  0  0  0  0  0  0  0  0  0
   39.4826   27.7676   34.7303 H   0  0  0  0  0  0  0  0  0  0  0  0
   39.2809   27.6139   32.9551 H   0  0  0  0  0  0  0  0  0  0  0  0
   37.7030   26.1652   32.1832 H   0  0  0  0  0  0  0  0  0  0  0  0
   36.2084   25.9393   33.1291 H   0  0  0  0  0  0  0  0  0  0  0  0
   37.0294   24.0758   34.2258 H   0  0  0  0  0  0  0  0  0  0  0  0
   38.0805   23.9760   32.7679 H   0  0  0  0  0  0  0  0  0  0  0  0
   38.4230   23.3902   38.8957 H   0  0  0  0  0  0  0  0  0  0  0  0
   37.7429   24.8239   36.9606 H   0  0  0  0  0  0  0  0  0  0  0  0
   42.0887   20.9048   38.6096 H   0  0  0  0  0  0  0  0  0  0  0  0
   43.8953   19.5683   34.9733 H   0  0  0  0  0  0  0  0  0  0  0  0
   40.6975   26.2707   35.8802 H   0  0  0  0  0  0  0  0  0  0  0  0
   43.3411   25.5324   32.7926 H   0  0  0  0  0  0  0  0  0  0  0  0
   41.5847   25.7507   32.5694 H   0  0  0  0  0  0  0  0  0  0  0  0
  1  9  1  0
  2  1  1  0
  2 18  1  0
  3  2  1  0
  3  4  1  0
  5  6  1  0
  5  4  1  0
  6  1  1  0
  8  7  2  0
  9  8  1  0
 10  9  2  0
 10 11  1  0
 11 12  2  0
 12  7  1  0
 13 11  1  0
 13 14  1  0
 15 14  2  0
 16 15  1  0
 17 16  2  0
 17 13  1  0
 19 18  1  0
 19 21  2  0
 20 19  1  0
  2 22  1  6
  3 23  1  0
  3 24  1  0
  5 25  1  0
  5 26  1  0
  6 27  1  0
  6 28  1  0
  7 29  1  0
  8 30  1  0
 14 31  1  0
 16 32  1  0
 18 33  1  0
 20 34  1  0
 20 35  1  0
M  ISO  8  22  13  23  13  24  13  25  13  26  13  27  13  28  13  29  14
M  ISO  3  30  14  31  14  32  14
M  END
>  <minimizedAffinity>  (1) 
-4.38618374

>  <minimizedRMSD>  (1) 
1.07916903

$$$$
