
     RDKit          3D

 36 38  0  0  1  0  0  0  0  0999 V2000
   38.7610   24.8320   34.4150 N   0  0  0  0  0  0  0  0  0  0  0  0
   39.7750   25.6870   33.8450 C   0  0  1  0  0  0  0  0  0  0  0  0
   39.1680   27.0510   33.5050 C   0  0  0  0  0  0  0  0  0  0  0  0
   37.7830   26.9610   33.5590 O   0  0  0  0  0  0  0  0  0  0  0  0
   37.3510   25.9010   32.7630 C   0  0  0  0  0  0  0  0  0  0  0  0
   37.6790   24.6110   33.4980 C   0  0  0  0  0  0  0  0  0  0  0  0
   38.1530   23.9260   38.0020 C   0  0  0  0  0  0  0  0  0  0  0  0
   37.9540   24.5370   36.7580 C   0  0  0  0  0  0  0  0  0  0  0  0
   38.8310   24.2950   35.7050 C   0  0  0  0  0  0  0  0  0  0  0  0
   39.8340   23.4600   35.9880 N   0  0  0  0  0  0  0  0  0  0  0  0
   40.0580   22.8680   37.1390 C   0  0  0  0  0  0  0  0  0  0  0  0
   39.1980   23.1060   38.1720 N   0  0  0  0  0  0  0  0  0  0  0  0
   41.2010   21.9460   37.3880 C   0  0  0  0  0  0  0  0  0  0  0  0
   41.7280   21.2310   36.1010 C   0  0  0  0  0  0  0  0  0  0  0  0
   42.5550   22.2630   36.8280 C   0  0  0  0  0  0  0  0  0  0  0  0
   40.7400   25.9800   34.8770 N   0  0  0  0  0  0  0  0  0  0  0  0
   42.0980   25.6350   34.6410 C   0  0  0  0  0  0  0  0  0  0  0  0
   42.3770   25.3720   33.3920 N   0  0  0  0  0  0  0  0  0  0  0  0
   43.0420   25.5500   35.4880 O   0  0  0  0  0  0  0  0  0  0  0  0
   40.2024   25.1885   32.9625 H   0  0  0  0  0  0  0  0  0  0  0  0
   39.4781   27.3496   32.4927 H   0  0  0  0  0  0  0  0  0  0  0  0
   39.5180   27.8019   34.2287 H   0  0  0  0  0  0  0  0  0  0  0  0
   37.8711   25.9233   31.7940 H   0  0  0  0  0  0  0  0  0  0  0  0
   36.2696   25.9745   32.5752 H   0  0  0  0  0  0  0  0  0  0  0  0
   36.7925   24.2730   34.0547 H   0  0  0  0  0  0  0  0  0  0  0  0
   37.9747   23.8435   32.7676 H   0  0  0  0  0  0  0  0  0  0  0  0
   37.4573   24.1178   38.8322 H   0  0  0  0  0  0  0  0  0  0  0  0
   37.0986   25.2129   36.6120 H   0  0  0  0  0  0  0  0  0  0  0  0
   40.8521   21.6706   38.3942 H   0  0  0  0  0  0  0  0  0  0  0  0
   41.2899   21.4630   35.1190 H   0  0  0  0  0  0  0  0  0  0  0  0
   41.8725   20.1879   35.7831 H   0  0  0  0  0  0  0  0  0  0  0  0
   43.4558   21.9488   37.3756 H   0  0  0  0  0  0  0  0  0  0  0  0
   43.0536   23.1942   36.5208 H   0  0  0  0  0  0  0  0  0  0  0  0
   40.4526   26.4265   35.7596 H   0  0  0  0  0  0  0  0  0  0  0  0
   43.3364   25.1118   33.1224 H   0  0  0  0  0  0  0  0  0  0  0  0
   41.6375   25.4249   32.6770 H   0  0  0  0  0  0  0  0  0  0  0  0
  1  9  1  0
  2  1  1  0
  2 16  1  0
  3  4  1  0
  3  2  1  0
  5  6  1  0
  5  4  1  0
  6  1  1  0
  7 12  2  0
  8  7  1  0
  9 10  1  0
  9  8  2  0
 10 11  2  0
 11 13  1  0
 11 12  1  0
 14 15  1  0
 14 13  1  0
 15 13  1  0
 17 16  1  0
 17 19  2  0
 18 17  1  0
  2 20  1  6
  3 21  1  0
  3 22  1  0
  5 23  1  0
  5 24  1  0
  6 25  1  0
  6 26  1  0
  7 27  1  0
  8 28  1  0
 13 29  1  0
 14 30  1  0
 14 31  1  0
 15 32  1  0
 15 33  1  0
 16 34  1  0
 18 35  1  0
 18 36  1  0
M  ISO  8  20  13  21  13  22  13  23  13  24  13  25  13  26  13  27  14
M  ISO  6  28  14  29  13  30  13  31  13  32  13  33  13
M  END
>  <minimizedAffinity>  (1) 
-4.38693857

>  <minimizedRMSD>  (1) 
0.713707387

$$$$
