
     RDKit          3D

 41 42  0  0  1  0  0  0  0  0999 V2000
   38.9920   24.7120   34.4560 N   0  0  0  0  0  0  0  0  0  0  0  0
   39.7860   25.7850   33.9010 C   0  0  1  0  0  0  0  0  0  0  0  0
   38.9730   27.0790   33.8820 C   0  0  0  0  0  0  0  0  0  0  0  0
   37.6350   26.7820   34.1250 O   0  0  0  0  0  0  0  0  0  0  0  0
   37.2030   25.7990   33.2350 C   0  0  0  0  0  0  0  0  0  0  0  0
   37.8090   24.4780   33.6790 C   0  0  0  0  0  0  0  0  0  0  0  0
   39.1070   23.2030   37.8850 C   0  0  0  0  0  0  0  0  0  0  0  0
   38.6310   23.9610   36.8060 C   0  0  0  0  0  0  0  0  0  0  0  0
   39.3390   24.0030   35.6110 C   0  0  0  0  0  0  0  0  0  0  0  0
   40.4640   23.2840   35.5970 N   0  0  0  0  0  0  0  0  0  0  0  0
   40.9470   22.5610   36.5820 C   0  0  0  0  0  0  0  0  0  0  0  0
   40.2520   22.5190   37.7570 N   0  0  0  0  0  0  0  0  0  0  0  0
   42.2180   21.8000   36.4440 C   0  0  0  0  0  0  0  0  0  0  0  0
   42.2610   21.1520   35.0550 C   0  0  0  0  0  0  0  0  0  0  0  0
   43.4230   22.7250   36.4820 C   0  0  0  0  0  0  0  0  0  0  0  0
   42.3740   20.6980   37.4480 C   0  0  0  0  0  0  0  0  0  0  0  0
   40.8610   26.0590   34.8220 N   0  0  0  0  0  0  0  0  0  0  0  0
   42.1980   25.9770   34.3270 C   0  0  0  0  0  0  0  0  0  0  0  0
   42.3080   25.8850   33.0300 N   0  0  0  0  0  0  0  0  0  0  0  0
   43.2580   25.9770   35.0490 O   0  0  0  0  0  0  0  0  0  0  0  0
   40.1203   25.4917   32.8949 H   0  0  0  0  0  0  0  0  0  0  0  0
   39.3463   27.7596   34.6614 H   0  0  0  0  0  0  0  0  0  0  0  0
   39.0717   27.5633   32.8993 H   0  0  0  0  0  0  0  0  0  0  0  0
   37.5388   26.0420   32.2161 H   0  0  0  0  0  0  0  0  0  0  0  0
   36.1047   25.7379   33.2306 H   0  0  0  0  0  0  0  0  0  0  0  0
   37.0765   23.9289   34.2888 H   0  0  0  0  0  0  0  0  0  0  0  0
   38.0747   23.8880   32.7895 H   0  0  0  0  0  0  0  0  0  0  0  0
   38.5446   23.1700   38.8298 H   0  0  0  0  0  0  0  0  0  0  0  0
   37.6922   24.5255   36.9058 H   0  0  0  0  0  0  0  0  0  0  0  0
   42.3335   20.0596   35.1621 H   0  0  0  0  0  0  0  0  0  0  0  0
   41.3440   21.4063   34.5032 H   0  0  0  0  0  0  0  0  0  0  0  0
   43.1364   21.5252   34.5032 H   0  0  0  0  0  0  0  0  0  0  0  0
   43.6932   22.9324   37.5279 H   0  0  0  0  0  0  0  0  0  0  0  0
   44.2709   22.2437   35.9728 H   0  0  0  0  0  0  0  0  0  0  0  0
   43.1772   23.6685   35.9728 H   0  0  0  0  0  0  0  0  0  0  0  0
   42.3148   21.1162   38.4637 H   0  0  0  0  0  0  0  0  0  0  0  0
   41.5716   19.9586   37.3086 H   0  0  0  0  0  0  0  0  0  0  0  0
   43.3501   20.2104   37.3086 H   0  0  0  0  0  0  0  0  0  0  0  0
   40.6710   26.3056   35.8038 H   0  0  0  0  0  0  0  0  0  0  0  0
   43.2397   25.8218   32.5954 H   0  0  0  0  0  0  0  0  0  0  0  0
   41.4632   25.8756   32.4409 H   0  0  0  0  0  0  0  0  0  0  0  0
  1  9  1  0
  2  1  1  0
  2 17  1  0
  3  2  1  0
  3  4  1  0
  5  6  1  0
  5  4  1  0
  6  1  1  0
  8  7  2  0
  9  8  1  0
 10  9  2  0
 10 11  1  0
 11 12  2  0
 12  7  1  0
 13 15  1  0
 13 11  1  0
 13 16  1  0
 14 13  1  0
 18 17  1  0
 18 20  2  0
 19 18  1  0
  2 21  1  6
  3 22  1  0
  3 23  1  0
  5 24  1  0
  5 25  1  0
  6 26  1  0
  6 27  1  0
  7 28  1  0
  8 29  1  0
 14 30  1  0
 14 31  1  0
 14 32  1  0
 15 33  1  0
 15 34  1  0
 15 35  1  0
 16 36  1  0
 16 37  1  0
 16 38  1  0
 17 39  1  0
 19 40  1  0
 19 41  1  0
M  ISO  8  21  13  22  13  23  13  24  13  25  13  26  13  27  13  28  14
M  ISO  8  29  14  30   8  31   8  32   8  33   8  34   8  35   8  36   8
M  ISO  2  37   8  38   8
M  END
>  <minimizedAffinity>  (1) 
-4.34542131

>  <minimizedRMSD>  (1) 
1.16522777

$$$$
