
     RDKit          3D

 45 48  0  0  1  0  0  0  0  0999 V2000
   39.5680   23.3380   36.5830 C   0  0  0  0  0  0  0  0  0  0  0  0
   39.9980   24.1840   35.5620 C   0  0  0  0  0  0  0  0  0  0  0  0
   41.2600   23.9750   34.9950 C   0  0  0  0  0  0  0  0  0  0  0  0
   41.9690   22.9460   35.4940 N   0  0  0  0  0  0  0  0  0  0  0  0
   41.5610   22.1420   36.4600 C   0  0  0  0  0  0  0  0  0  0  0  0
   40.3380   22.3390   37.0190 N   0  0  0  0  0  0  0  0  0  0  0  0
   41.8350   24.7270   33.9820 N   0  0  0  0  0  0  0  0  0  0  0  0
   42.9010   25.7010   34.2150 C   0  0  1  0  0  0  0  0  0  0  0  0
   42.4750   27.0510   33.7050 C   0  0  0  0  0  0  0  0  0  0  0  0
   41.2830   26.9510   33.0140 O   0  0  0  0  0  0  0  0  0  0  0  0
   41.4990   26.0450   31.9790 C   0  0  0  0  0  0  0  0  0  0  0  0
   41.5250   24.6610   32.5990 C   0  0  0  0  0  0  0  0  0  0  0  0
   43.1190   25.8070   35.6250 N   0  0  0  0  0  0  0  0  0  0  0  0
   44.3100   25.3710   36.2210 C   0  0  0  0  0  0  0  0  0  0  0  0
   45.2200   25.2580   35.3470 N   0  0  0  0  0  0  0  0  0  0  0  0
   44.6820   25.0730   37.3800 O   0  0  0  0  0  0  0  0  0  0  0  0
   39.1960   25.2670   35.0720 N   0  0  0  0  0  0  0  0  0  0  0  0
   39.1160   26.5660   35.4540 C   0  0  0  0  0  0  0  0  0  0  0  0
   38.2240   27.2000   34.6960 N   0  0  0  0  0  0  0  0  0  0  0  0
   37.7470   26.2810   33.8340 C   0  0  0  0  0  0  0  0  0  0  0  0
   36.8030   26.3770   32.8230 C   0  0  0  0  0  0  0  0  0  0  0  0
   36.4380   25.3240   32.0370 N   0  0  0  0  0  0  0  0  0  0  0  0
   37.0580   24.1430   32.2950 C   0  0  0  0  0  0  0  0  0  0  0  0
   37.9960   23.9790   33.2740 N   0  0  0  0  0  0  0  0  0  0  0  0
   38.3300   25.0440   34.0310 C   0  0  0  0  0  0  0  0  0  0  0  0
   36.1850   27.6610   32.6040 N   0  0  0  0  0  0  0  0  0  0  0  0
   42.4760   21.0220   36.8910 C   0  0  0  0  0  0  0  0  0  0  0  0
   43.7800   21.3790   36.7850 F   0  0  0  0  0  0  0  0  0  0  0  0
   42.0950   20.7600   38.2060 F   0  0  0  0  0  0  0  0  0  0  0  0
   42.2320   19.8740   36.1770 F   0  0  0  0  0  0  0  0  0  0  0  0
   38.5784   23.4963   37.0365 H   0  0  0  0  0  0  0  0  0  0  0  0
   43.8153   25.3762   33.6967 H   0  0  0  0  0  0  0  0  0  0  0  0
   42.3440   27.7352   34.5563 H   0  0  0  0  0  0  0  0  0  0  0  0
   43.2497   27.4364   33.0258 H   0  0  0  0  0  0  0  0  0  0  0  0
   42.4595   26.2563   31.4864 H   0  0  0  0  0  0  0  0  0  0  0  0
   40.7065   26.1201   31.2199 H   0  0  0  0  0  0  0  0  0  0  0  0
   40.5376   24.1927   32.4740 H   0  0  0  0  0  0  0  0  0  0  0  0
   42.3012   24.0666   32.0948 H   0  0  0  0  0  0  0  0  0  0  0  0
   42.3814   26.2143   36.2174 H   0  0  0  0  0  0  0  0  0  0  0  0
   46.1622   24.9456   35.6219 H   0  0  0  0  0  0  0  0  0  0  0  0
   45.0177   25.4785   34.3614 H   0  0  0  0  0  0  0  0  0  0  0  0
   39.6990   27.0253   36.2659 H   0  0  0  0  0  0  0  0  0  0  0  0
   36.7896   23.2704   31.6813 H   0  0  0  0  0  0  0  0  0  0  0  0
   35.4790   27.7730   31.8624 H   0  0  0  0  0  0  0  0  0  0  0  0
   36.4495   28.4664   33.1891 H   0  0  0  0  0  0  0  0  0  0  0  0
  1  6  2  0
  2  1  1  0
  3  4  1  0
  3  2  2  0
  4  5  2  0
  5 27  1  0
  5  6  1  0
  7  8  1  0
  7  3  1  0
  8 13  1  0
  9  8  1  0
 10  9  1  0
 11 12  1  0
 11 10  1  0
 12  7  1  0
 13 14  1  0
 14 16  2  0
 15 14  1  0
 17 18  1  0
 17  2  1  0
 19 18  2  0
 20 25  2  0
 20 19  1  0
 21 20  1  0
 22 23  1  0
 22 21  2  0
 23 24  2  0
 24 25  1  0
 25 17  1  0
 26 21  1  0
 27 29  1  0
 28 27  1  0
 30 27  1  0
  1 31  1  0
  8 32  1  6
  9 33  1  0
  9 34  1  0
 11 35  1  0
 11 36  1  0
 12 37  1  0
 12 38  1  0
 13 39  1  0
 15 40  1  0
 15 41  1  0
 18 42  1  0
 23 43  1  0
 26 44  1  0
 26 45  1  0
M  ISO  8  31  14  32  13  33  13  34  13  35  13  36  13  37  13  38  13
M  ISO  2  42  14  43  14
M  END
>  <minimizedAffinity>  (1) 
-5.50570154

>  <minimizedRMSD>  (1) 
3.29795361

$$$$
