
     RDKit          3D

 46 49  0  0  1  0  0  0  0  0999 V2000
   39.5130   23.3740   36.6280 C   0  0  0  0  0  0  0  0  0  0  0  0
   39.9400   24.2260   35.6100 C   0  0  0  0  0  0  0  0  0  0  0  0
   41.1920   24.0190   35.0340 C   0  0  0  0  0  0  0  0  0  0  0  0
   41.9050   22.9890   35.5200 N   0  0  0  0  0  0  0  0  0  0  0  0
   41.5050   22.1780   36.4830 C   0  0  0  0  0  0  0  0  0  0  0  0
   40.2840   22.3720   37.0510 N   0  0  0  0  0  0  0  0  0  0  0  0
   39.1580   25.3220   35.1090 N   0  0  0  0  0  0  0  0  0  0  0  0
   39.0950   26.6240   35.4770 C   0  0  0  0  0  0  0  0  0  0  0  0
   38.2050   27.2530   34.6970 N   0  0  0  0  0  0  0  0  0  0  0  0
   37.7270   26.3370   33.8560 C   0  0  0  0  0  0  0  0  0  0  0  0
   36.7840   26.3860   32.8220 C   0  0  0  0  0  0  0  0  0  0  0  0
   36.2190   27.4790   32.5590 O   0  0  0  0  0  0  0  0  0  0  0  0
   36.4250   25.3210   32.0640 N   0  0  0  0  0  0  0  0  0  0  0  0
   37.0240   24.1490   32.3370 C   0  0  0  0  0  0  0  0  0  0  0  0
   36.6840   22.9900   31.5680 N   0  0  0  0  0  0  0  0  0  0  0  0
   37.9420   24.0310   33.3200 N   0  0  0  0  0  0  0  0  0  0  0  0
   38.3020   25.0860   34.0760 C   0  0  0  0  0  0  0  0  0  0  0  0
   41.7640   24.7730   34.0160 N   0  0  0  0  0  0  0  0  0  0  0  0
   42.8500   25.7260   34.2390 C   0  0  1  0  0  0  0  0  0  0  0  0
   42.4420   27.0890   33.7520 C   0  0  0  0  0  0  0  0  0  0  0  0
   41.2190   27.0250   33.1050 O   0  0  0  0  0  0  0  0  0  0  0  0
   41.3820   26.1230   32.0480 C   0  0  0  0  0  0  0  0  0  0  0  0
   41.4420   24.7370   32.6420 C   0  0  0  0  0  0  0  0  0  0  0  0
   43.0990   25.8080   35.6440 N   0  0  0  0  0  0  0  0  0  0  0  0
   44.2970   25.3560   36.2120 C   0  0  0  0  0  0  0  0  0  0  0  0
   45.1890   25.2520   35.3190 N   0  0  0  0  0  0  0  0  0  0  0  0
   44.6930   25.0370   37.3570 O   0  0  0  0  0  0  0  0  0  0  0  0
   42.4220   21.0570   36.9040 C   0  0  0  0  0  0  0  0  0  0  0  0
   43.7250   21.4200   36.8100 F   0  0  0  0  0  0  0  0  0  0  0  0
   42.0360   20.7690   38.2110 F   0  0  0  0  0  0  0  0  0  0  0  0
   42.1900   19.9160   36.1760 F   0  0  0  0  0  0  0  0  0  0  0  0
   38.5264   23.5308   37.0884 H   0  0  0  0  0  0  0  0  0  0  0  0
   39.6792   27.0893   36.2846 H   0  0  0  0  0  0  0  0  0  0  0  0
   35.7251   25.4060   31.3131 H   0  0  0  0  0  0  0  0  0  0  0  0
   37.1373   22.0873   31.7692 H   0  0  0  0  0  0  0  0  0  0  0  0
   35.9862   23.0590   30.8136 H   0  0  0  0  0  0  0  0  0  0  0  0
   43.7476   25.3927   33.6975 H   0  0  0  0  0  0  0  0  0  0  0  0
   42.3623   27.7718   34.6108 H   0  0  0  0  0  0  0  0  0  0  0  0
   43.2004   27.4569   33.0453 H   0  0  0  0  0  0  0  0  0  0  0  0
   42.3152   26.3413   31.5081 H   0  0  0  0  0  0  0  0  0  0  0  0
   40.5475   26.2044   31.3360 H   0  0  0  0  0  0  0  0  0  0  0  0
   40.4621   24.2528   32.5177 H   0  0  0  0  0  0  0  0  0  0  0  0
   42.2286   24.1729   32.1194 H   0  0  0  0  0  0  0  0  0  0  0  0
   42.3762   26.2114   36.2570 H   0  0  0  0  0  0  0  0  0  0  0  0
   46.1345   24.9300   35.5706 H   0  0  0  0  0  0  0  0  0  0  0  0
   44.9690   25.4894   34.3412 H   0  0  0  0  0  0  0  0  0  0  0  0
  1  6  2  0
  2  1  1  0
  3  4  1  0
  3  2  2  0
  4  5  2  0
  5 28  1  0
  5  6  1  0
  7  8  1  0
  7  2  1  0
  9  8  2  0
 10 17  2  0
 10  9  1  0
 11 10  1  0
 12 11  2  0
 13 14  1  0
 13 11  1  0
 14 16  2  0
 15 14  1  0
 16 17  1  0
 17  7  1  0
 18 19  1  0
 18  3  1  0
 19 24  1  0
 20 19  1  0
 21 20  1  0
 22 23  1  0
 22 21  1  0
 23 18  1  0
 24 25  1  0
 25 27  2  0
 26 25  1  0
 28 30  1  0
 29 28  1  0
 31 28  1  0
  1 32  1  0
  8 33  1  0
 13 34  1  0
 15 35  1  0
 15 36  1  0
 19 37  1  6
 20 38  1  0
 20 39  1  0
 22 40  1  0
 22 41  1  0
 23 42  1  0
 23 43  1  0
 24 44  1  0
 26 45  1  0
 26 46  1  0
M  ISO  8  32  14  33  14  34   9  37  13  38  13  39  13  40  13  41  13
M  ISO  2  42  13  43  13
M  END
>  <minimizedAffinity>  (1) 
-5.72600746

>  <minimizedRMSD>  (1) 
3.52526879

$$$$
