
     RDKit          3D

 48 51  0  0  1  0  0  0  0  0999 V2000
   39.3160   23.3890   36.4810 C   0  0  0  0  0  0  0  0  0  0  0  0
   39.7380   24.2500   35.4540 C   0  0  0  0  0  0  0  0  0  0  0  0
   41.0150   24.1120   34.9120 C   0  0  0  0  0  0  0  0  0  0  0  0
   41.7690   23.1300   35.4330 N   0  0  0  0  0  0  0  0  0  0  0  0
   41.3980   22.3090   36.3950 C   0  0  0  0  0  0  0  0  0  0  0  0
   40.1530   22.4380   36.9300 N   0  0  0  0  0  0  0  0  0  0  0  0
   41.5680   24.8790   33.9010 N   0  0  0  0  0  0  0  0  0  0  0  0
   42.6430   25.8450   34.1090 C   0  0  1  0  0  0  0  0  0  0  0  0
   42.2050   27.2030   33.6360 C   0  0  0  0  0  0  0  0  0  0  0  0
   40.9830   27.1260   32.9970 O   0  0  0  0  0  0  0  0  0  0  0  0
   41.1480   26.2240   31.9320 C   0  0  0  0  0  0  0  0  0  0  0  0
   41.1990   24.8250   32.5180 C   0  0  0  0  0  0  0  0  0  0  0  0
   42.8980   25.9230   35.5140 N   0  0  0  0  0  0  0  0  0  0  0  0
   43.9430   25.2220   36.1230 C   0  0  0  0  0  0  0  0  0  0  0  0
   44.7920   24.8680   35.2520 N   0  0  0  0  0  0  0  0  0  0  0  0
   44.2600   24.8590   37.2760 O   0  0  0  0  0  0  0  0  0  0  0  0
   38.8300   25.2760   34.9530 C   0  0  0  0  0  0  0  0  0  0  0  0
   38.9260   26.4420   35.6790 C   0  0  0  0  0  0  0  0  0  0  0  0
   38.1350   27.5410   35.3210 C   0  0  0  0  0  0  0  0  0  0  0  0
   37.2610   27.4520   34.2440 C   0  0  0  0  0  0  0  0  0  0  0  0
   37.1850   26.2640   33.5290 C   0  0  0  0  0  0  0  0  0  0  0  0
   36.3390   26.1070   32.4620 C   0  0  0  0  0  0  0  0  0  0  0  0
   36.2620   24.9040   31.7540 C   0  0  0  0  0  0  0  0  0  0  0  0
   37.0760   23.8510   32.1650 C   0  0  0  0  0  0  0  0  0  0  0  0
   37.9310   23.9750   33.2250 C   0  0  0  0  0  0  0  0  0  0  0  0
   37.9650   25.1820   33.8830 C   0  0  0  0  0  0  0  0  0  0  0  0
   42.3720   21.2540   36.8550 C   0  0  0  0  0  0  0  0  0  0  0  0
   43.6430   21.7260   36.8700 F   0  0  0  0  0  0  0  0  0  0  0  0
   41.9210   20.9160   38.1350 F   0  0  0  0  0  0  0  0  0  0  0  0
   42.2830   20.1190   36.0850 F   0  0  0  0  0  0  0  0  0  0  0  0
   38.3099   23.4923   36.9136 H   0  0  0  0  0  0  0  0  0  0  0  0
   43.5398   25.5321   33.5542 H   0  0  0  0  0  0  0  0  0  0  0  0
   42.1182   27.8763   34.5015 H   0  0  0  0  0  0  0  0  0  0  0  0
   42.9518   27.5885   32.9263 H   0  0  0  0  0  0  0  0  0  0  0  0
   42.0850   26.4413   31.3984 H   0  0  0  0  0  0  0  0  0  0  0  0
   40.3158   26.3133   31.2182 H   0  0  0  0  0  0  0  0  0  0  0  0
   40.2084   24.3561   32.4247 H   0  0  0  0  0  0  0  0  0  0  0  0
   41.9483   24.2345   31.9703 H   0  0  0  0  0  0  0  0  0  0  0  0
   42.2908   26.5161   36.0974 H   0  0  0  0  0  0  0  0  0  0  0  0
   45.6293   24.3388   35.5343 H   0  0  0  0  0  0  0  0  0  0  0  0
   44.6450   25.1094   34.2615 H   0  0  0  0  0  0  0  0  0  0  0  0
   39.6173   26.5097   36.5320 H   0  0  0  0  0  0  0  0  0  0  0  0
   38.2057   28.4774   35.8939 H   0  0  0  0  0  0  0  0  0  0  0  0
   36.6368   28.3125   33.9613 H   0  0  0  0  0  0  0  0  0  0  0  0
   35.7034   26.9505   32.1545 H   0  0  0  0  0  0  0  0  0  0  0  0
   35.5795   24.7924   30.8986 H   0  0  0  0  0  0  0  0  0  0  0  0
   37.0299   22.8950   31.6229 H   0  0  0  0  0  0  0  0  0  0  0  0
   38.5702   23.1373   33.5407 H   0  0  0  0  0  0  0  0  0  0  0  0
  1  6  2  0
  2  1  1  0
  3  4  1  0
  3  2  2  0
  4  5  2  0
  5 27  1  0
  5  6  1  0
  7  8  1  0
  7  3  1  0
  8 13  1  0
  9  8  1  0
 10  9  1  0
 11 12  1  0
 11 10  1  0
 12  7  1  0
 13 14  1  0
 14 16  2  0
 15 14  1  0
 17  2  1  0
 17 18  2  0
 19 18  1  0
 20 19  2  0
 21 26  2  0
 21 20  1  0
 22 21  1  0
 23 24  1  0
 23 22  2  0
 24 25  2  0
 25 26  1  0
 26 17  1  0
 27 28  1  0
 27 29  1  0
 30 27  1  0
  1 31  1  0
  8 32  1  6
  9 33  1  0
  9 34  1  0
 11 35  1  0
 11 36  1  0
 12 37  1  0
 12 38  1  0
 13 39  1  0
 15 40  1  0
 15 41  1  0
 18 42  1  0
 19 43  1  0
 20 44  1  0
 22 45  1  0
 23 46  1  0
 24 47  1  0
 25 48  1  0
M  ISO  8  31  14  32  13  33  13  34  13  35  13  36  13  37  13  38  13
M  ISO  7  42  14  43  14  44  14  45  14  46  14  47  14  48  14
M  END
>  <minimizedAffinity>  (1) 
-6.13729429

>  <minimizedRMSD>  (1) 
3.09655428

$$$$
