
     RDKit          3D

 35 36  0  0  1  0  0  0  0  0999 V2000
   39.4250   24.5750   34.6520 N   0  0  0  0  0  0  0  0  0  0  0  0
   40.1650   25.7490   34.1960 C   0  0  1  0  0  0  0  0  0  0  0  0
   39.2450   26.9310   34.1370 C   0  0  0  0  0  0  0  0  0  0  0  0
   37.9410   26.5450   34.3530 O   0  0  0  0  0  0  0  0  0  0  0  0
   37.6070   25.5760   33.4260 C   0  0  0  0  0  0  0  0  0  0  0  0
   38.3450   24.3010   33.7540 C   0  0  0  0  0  0  0  0  0  0  0  0
   39.6060   22.9630   38.0150 C   0  0  0  0  0  0  0  0  0  0  0  0
   39.1270   23.8030   36.9860 C   0  0  0  0  0  0  0  0  0  0  0  0
   39.7750   23.8270   35.7760 C   0  0  0  0  0  0  0  0  0  0  0  0
   40.8490   23.0280   35.6620 N   0  0  0  0  0  0  0  0  0  0  0  0
   41.3280   22.2350   36.5900 C   0  0  0  0  0  0  0  0  0  0  0  0
   40.6860   22.2020   37.8030 N   0  0  0  0  0  0  0  0  0  0  0  0
   42.5480   21.4050   36.2980 C   0  0  0  0  0  0  0  0  0  0  0  0
   43.6530   22.1880   36.1240 F   0  0  0  0  0  0  0  0  0  0  0  0
   42.6730   20.5810   37.4250 F   0  0  0  0  0  0  0  0  0  0  0  0
   42.3590   20.5940   35.2180 F   0  0  0  0  0  0  0  0  0  0  0  0
   37.9650   24.6530   37.2390 C   0  0  0  0  0  0  0  0  0  0  0  0
   37.5970   24.4900   38.5910 F   0  0  0  0  0  0  0  0  0  0  0  0
   36.8260   24.3660   36.5650 F   0  0  0  0  0  0  0  0  0  0  0  0
   38.3180   26.0130   37.1950 F   0  0  0  0  0  0  0  0  0  0  0  0
   41.1920   26.0190   35.1540 N   0  0  0  0  0  0  0  0  0  0  0  0
   42.5050   25.5730   34.9810 C   0  0  0  0  0  0  0  0  0  0  0  0
   42.7050   25.2770   33.7640 N   0  0  0  0  0  0  0  0  0  0  0  0
   43.5190   25.3920   35.6850 O   0  0  0  0  0  0  0  0  0  0  0  0
   40.5906   25.5653   33.1985 H   0  0  0  0  0  0  0  0  0  0  0  0
   39.5394   27.6564   34.9097 H   0  0  0  0  0  0  0  0  0  0  0  0
   39.3179   27.3860   33.1382 H   0  0  0  0  0  0  0  0  0  0  0  0
   37.8903   25.9166   32.4192 H   0  0  0  0  0  0  0  0  0  0  0  0
   36.5226   25.3938   33.4558 H   0  0  0  0  0  0  0  0  0  0  0  0
   37.6509   23.5900   34.2259 H   0  0  0  0  0  0  0  0  0  0  0  0
   38.7489   23.8699   32.8261 H   0  0  0  0  0  0  0  0  0  0  0  0
   39.0930   22.9343   38.9876 H   0  0  0  0  0  0  0  0  0  0  0  0
   40.9563   26.5595   35.9985 H   0  0  0  0  0  0  0  0  0  0  0  0
   43.6268   24.9295   33.4633 H   0  0  0  0  0  0  0  0  0  0  0  0
   41.9456   25.3841   33.0764 H   0  0  0  0  0  0  0  0  0  0  0  0
  1  9  1  0
  2  1  1  0
  2 21  1  0
  3  2  1  0
  3  4  1  0
  5  6  1  0
  5  4  1  0
  6  1  1  0
  8 17  1  0
  8  7  2  0
  9  8  1  0
 10  9  2  0
 10 11  1  0
 11 12  2  0
 12  7  1  0
 13 11  1  0
 13 15  1  0
 14 13  1  0
 16 13  1  0
 17 18  1  0
 19 17  1  0
 20 17  1  0
 22 21  1  0
 22 24  2  0
 23 22  1  0
  2 25  1  6
  3 26  1  0
  3 27  1  0
  5 28  1  0
  5 29  1  0
  6 30  1  0
  6 31  1  0
  7 32  1  0
 21 33  1  0
 23 34  1  0
 23 35  1  0
M  ISO  8  25  13  26  13  27  13  28  13  29  13  30  13  31  13  32  14
M  END
>  <minimizedAffinity>  (1) 
-5.01632404

>  <minimizedRMSD>  (1) 
0.96896863

$$$$
