
     RDKit          3D

 44 45  0  0  1  0  0  0  0  0999 V2000
   38.0180   25.5560   34.0810 N   0  0  0  0  0  0  0  0  0  0  0  0
   38.8230   26.4050   33.2050 C   0  0  1  0  0  0  0  0  0  0  0  0
   39.7850   27.1940   34.0280 C   0  0  0  0  0  0  0  0  0  0  0  0
   39.5020   27.0300   35.3710 O   0  0  0  0  0  0  0  0  0  0  0  0
   38.2000   27.4390   35.5880 C   0  0  0  0  0  0  0  0  0  0  0  0
   37.2930   26.3740   34.9950 C   0  0  0  0  0  0  0  0  0  0  0  0
   38.1680   21.8840   34.4350 C   0  0  0  0  0  0  0  0  0  0  0  0
   38.4500   23.2390   34.7100 C   0  0  0  0  0  0  0  0  0  0  0  0
   37.9070   24.1880   33.9140 C   0  0  0  0  0  0  0  0  0  0  0  0
   37.1360   23.7470   32.9070 N   0  0  0  0  0  0  0  0  0  0  0  0
   36.8560   22.5070   32.6190 C   0  0  0  0  0  0  0  0  0  0  0  0
   37.3890   21.5480   33.4090 N   0  0  0  0  0  0  0  0  0  0  0  0
   35.9750   22.1810   31.4410 C   0  0  0  0  0  0  0  0  0  0  0  0
   36.5730   21.3150   30.5770 F   0  0  0  0  0  0  0  0  0  0  0  0
   34.8240   21.6260   32.0230 F   0  0  0  0  0  0  0  0  0  0  0  0
   35.5940   23.3120   30.7850 F   0  0  0  0  0  0  0  0  0  0  0  0
   39.3490   23.4980   35.8590 C   0  0  0  0  0  0  0  0  0  0  0  0
   39.7440   22.0890   36.3990 C   0  0  0  0  0  0  0  0  0  0  0  0
   38.7720   24.0570   37.0890 C   0  0  0  0  0  0  0  0  0  0  0  0
   40.7030   24.0440   35.4890 C   0  0  0  0  0  0  0  0  0  0  0  0
   39.5470   25.5710   32.3030 N   0  0  0  0  0  0  0  0  0  0  0  0
   39.3800   25.6630   30.9150 C   0  0  0  0  0  0  0  0  0  0  0  0
   38.8640   26.7820   30.6150 N   0  0  0  0  0  0  0  0  0  0  0  0
   39.6100   24.9220   29.9300 O   0  0  0  0  0  0  0  0  0  0  0  0
   38.1728   27.0930   32.6448 H   0  0  0  0  0  0  0  0  0  0  0  0
   40.8087   26.8457   33.8260 H   0  0  0  0  0  0  0  0  0  0  0  0
   39.6956   28.2589   33.7670 H   0  0  0  0  0  0  0  0  0  0  0  0
   38.0104   27.5381   36.6670 H   0  0  0  0  0  0  0  0  0  0  0  0
   38.0135   28.4170   35.1204 H   0  0  0  0  0  0  0  0  0  0  0  0
   36.4613   26.8607   34.4645 H   0  0  0  0  0  0  0  0  0  0  0  0
   36.9053   25.7428   35.8082 H   0  0  0  0  0  0  0  0  0  0  0  0
   38.5959   21.0979   35.0744 H   0  0  0  0  0  0  0  0  0  0  0  0
   39.7399   22.1035   37.4989 H   0  0  0  0  0  0  0  0  0  0  0  0
   39.0205   21.3425   36.0395 H   0  0  0  0  0  0  0  0  0  0  0  0
   40.7501   21.8274   36.0395 H   0  0  0  0  0  0  0  0  0  0  0  0
   39.2516   23.5923   37.9631 H   0  0  0  0  0  0  0  0  0  0  0  0
   38.9411   25.1437   37.1124 H   0  0  0  0  0  0  0  0  0  0  0  0
   37.6912   23.8535   37.1124 H   0  0  0  0  0  0  0  0  0  0  0  0
   41.2689   24.2722   36.4042 H   0  0  0  0  0  0  0  0  0  0  0  0
   41.2504   23.2963   34.8963 H   0  0  0  0  0  0  0  0  0  0  0  0
   40.5786   24.9623   34.8963 H   0  0  0  0  0  0  0  0  0  0  0  0
   40.2114   24.8815   32.6826 H   0  0  0  0  0  0  0  0  0  0  0  0
   38.6729   27.0134   29.6297 H   0  0  0  0  0  0  0  0  0  0  0  0
   38.6360   27.4594   31.3567 H   0  0  0  0  0  0  0  0  0  0  0  0
  1  6  1  0
  2  3  1  0
  2  1  1  0
  3  4  1  0
  4  5  1  0
  6  5  1  0
  7  8  2  0
  8 17  1  0
  9  1  1  0
  9  8  1  0
 10  9  2  0
 11 10  1  0
 11 12  2  0
 12  7  1  0
 13 15  1  0
 13 11  1  0
 14 13  1  0
 16 13  1  0
 17 18  1  0
 17 19  1  0
 20 17  1  0
 21  2  1  0
 22 21  1  0
 23 22  1  0
 24 22  2  0
  2 25  1  6
  3 26  1  0
  3 27  1  0
  5 28  1  0
  5 29  1  0
  6 30  1  0
  6 31  1  0
  7 32  1  0
 18 33  1  0
 18 34  1  0
 18 35  1  0
 19 36  1  0
 19 37  1  0
 19 38  1  0
 20 39  1  0
 20 40  1  0
 20 41  1  0
 21 42  1  0
 23 43  1  0
 23 44  1  0
M  ISO  8  25  13  26  13  27  13  28  13  29  13  30  13  31  13  32  14
M  ISO  8  33   8  34   8  35   8  36   8  37   8  38   8  39   8  40   8
M  ISO  1  41   8
M  END
>  <minimizedAffinity>  (1) 
-5.01915693

>  <minimizedRMSD>  (1) 
4.95172739

$$$$
