
     RDKit          3D

 34 35  0  0  1  0  0  0  0  0999 V2000
   39.1760   24.3930   34.4550 N   0  0  0  0  0  0  0  0  0  0  0  0
   39.9450   25.4930   33.8890 C   0  0  1  0  0  0  0  0  0  0  0  0
   39.0310   26.6470   33.5920 C   0  0  0  0  0  0  0  0  0  0  0  0
   37.7090   26.2810   33.7820 O   0  0  0  0  0  0  0  0  0  0  0  0
   37.4730   25.1880   32.9300 C   0  0  0  0  0  0  0  0  0  0  0  0
   38.1330   23.9770   33.5590 C   0  0  0  0  0  0  0  0  0  0  0  0
   39.0700   23.2780   38.0220 C   0  0  0  0  0  0  0  0  0  0  0  0
   38.6750   23.9370   36.8470 C   0  0  0  0  0  0  0  0  0  0  0  0
   39.4350   23.8180   35.6950 C   0  0  0  0  0  0  0  0  0  0  0  0
   40.5330   23.0530   35.7930 N   0  0  0  0  0  0  0  0  0  0  0  0
   40.9370   22.4200   36.8720 C   0  0  0  0  0  0  0  0  0  0  0  0
   40.1890   22.5330   38.0170 N   0  0  0  0  0  0  0  0  0  0  0  0
   42.2020   21.6010   36.8080 C   0  0  0  0  0  0  0  0  0  0  0  0
   43.3070   22.4010   36.8120 F   0  0  0  0  0  0  0  0  0  0  0  0
   42.1430   20.8000   37.9550 F   0  0  0  0  0  0  0  0  0  0  0  0
   42.2110   20.7660   35.7360 F   0  0  0  0  0  0  0  0  0  0  0  0
   37.5080   24.7490   36.7490 N   0  0  0  0  0  0  0  0  0  0  0  0
   40.8940   25.9120   34.8740 N   0  0  0  0  0  0  0  0  0  0  0  0
   42.2260   25.4920   34.8550 C   0  0  0  0  0  0  0  0  0  0  0  0
   42.5250   25.0520   33.7040 N   0  0  0  0  0  0  0  0  0  0  0  0
   43.1870   25.4350   35.6500 O   0  0  0  0  0  0  0  0  0  0  0  0
   40.4433   25.1706   32.9629 H   0  0  0  0  0  0  0  0  0  0  0  0
   39.1729   26.9614   32.5475 H   0  0  0  0  0  0  0  0  0  0  0  0
   39.2719   27.4758   34.2740 H   0  0  0  0  0  0  0  0  0  0  0  0
   37.9087   25.3821   31.9388 H   0  0  0  0  0  0  0  0  0  0  0  0
   36.3936   25.0205   32.8005 H   0  0  0  0  0  0  0  0  0  0  0  0
   37.3804   23.4021   34.1186 H   0  0  0  0  0  0  0  0  0  0  0  0
   38.5681   23.3514   32.7657 H   0  0  0  0  0  0  0  0  0  0  0  0
   38.4691   23.3704   38.9387 H   0  0  0  0  0  0  0  0  0  0  0  0
   37.2724   25.2065   35.8568 H   0  0  0  0  0  0  0  0  0  0  0  0
   36.9002   24.8784   37.5704 H   0  0  0  0  0  0  0  0  0  0  0  0
   40.5840   26.5461   35.6241 H   0  0  0  0  0  0  0  0  0  0  0  0
   43.4751   24.7004   33.5179 H   0  0  0  0  0  0  0  0  0  0  0  0
   41.8178   25.0462   32.9552 H   0  0  0  0  0  0  0  0  0  0  0  0
  1  9  1  0
  2  1  1  0
  2 18  1  0
  3  4  1  0
  3  2  1  0
  5  6  1  0
  5  4  1  0
  6  1  1  0
  8  7  2  0
  9 10  2  0
  9  8  1  0
 10 11  1  0
 11 12  2  0
 12  7  1  0
 13 14  1  0
 13 11  1  0
 13 15  1  0
 16 13  1  0
 17  8  1  0
 19 18  1  0
 19 21  2  0
 20 19  1  0
  2 22  1  6
  3 23  1  0
  3 24  1  0
  5 25  1  0
  5 26  1  0
  6 27  1  0
  6 28  1  0
  7 29  1  0
 17 30  1  0
 17 31  1  0
 18 32  1  0
 20 33  1  0
 20 34  1  0
M  ISO  8  22  13  23  13  24  13  25  13  26  13  27  13  28  13  29  14
M  END
>  <minimizedAffinity>  (1) 
-4.55181313

>  <minimizedRMSD>  (1) 
0.482657701

$$$$
