
     RDKit          3D

 37 39  0  0  1  0  0  0  0  0999 V2000
   41.1240   25.0900   33.8890 N   0  0  0  0  0  0  0  0  0  0  0  0
   42.3200   25.9400   33.9100 C   0  0  1  0  0  0  0  0  0  0  0  0
   41.9660   27.3320   33.4730 C   0  0  0  0  0  0  0  0  0  0  0  0
   40.6760   27.3830   33.0080 O   0  0  0  0  0  0  0  0  0  0  0  0
   40.5630   26.4640   31.9720 C   0  0  0  0  0  0  0  0  0  0  0  0
   40.5840   25.0800   32.5700 C   0  0  0  0  0  0  0  0  0  0  0  0
   39.1470   23.8230   36.7530 C   0  0  0  0  0  0  0  0  0  0  0  0
   39.4820   24.6170   35.6540 C   0  0  0  0  0  0  0  0  0  0  0  0
   40.6620   24.3920   34.9860 C   0  0  0  0  0  0  0  0  0  0  0  0
   41.4170   23.3890   35.4630 N   0  0  0  0  0  0  0  0  0  0  0  0
   41.1240   22.6250   36.4930 C   0  0  0  0  0  0  0  0  0  0  0  0
   39.9560   22.8500   37.1570 N   0  0  0  0  0  0  0  0  0  0  0  0
   38.4930   25.6230   35.2900 C   0  0  0  0  0  0  0  0  0  0  0  0
   37.3990   25.7430   34.5490 N   0  0  0  0  0  0  0  0  0  0  0  0
   36.8980   26.9360   34.5910 O   0  0  0  0  0  0  0  0  0  0  0  0
   37.6140   27.6920   35.3540 C   0  0  0  0  0  0  0  0  0  0  0  0
   38.5550   26.8790   35.7550 N   0  0  0  0  0  0  0  0  0  0  0  0
   42.0790   21.5240   36.8790 C   0  0  0  0  0  0  0  0  0  0  0  0
   43.3550   21.9780   36.9560 F   0  0  0  0  0  0  0  0  0  0  0  0
   41.5890   21.0710   38.1100 F   0  0  0  0  0  0  0  0  0  0  0  0
   42.0030   20.4590   36.0120 F   0  0  0  0  0  0  0  0  0  0  0  0
   42.7980   26.0020   35.2570 N   0  0  0  0  0  0  0  0  0  0  0  0
   44.0630   25.5230   35.6160 C   0  0  0  0  0  0  0  0  0  0  0  0
   44.8030   25.4110   34.5910 N   0  0  0  0  0  0  0  0  0  0  0  0
   44.6390   25.1850   36.6760 O   0  0  0  0  0  0  0  0  0  0  0  0
   43.0816   25.5242   33.2340 H   0  0  0  0  0  0  0  0  0  0  0  0
   42.0683   28.0157   34.3286 H   0  0  0  0  0  0  0  0  0  0  0  0
   42.6457   27.6305   32.6613 H   0  0  0  0  0  0  0  0  0  0  0  0
   41.4059   26.5820   31.2752 H   0  0  0  0  0  0  0  0  0  0  0  0
   39.6262   26.6262   31.4188 H   0  0  0  0  0  0  0  0  0  0  0  0
   39.5558   24.6910   32.6075 H   0  0  0  0  0  0  0  0  0  0  0  0
   41.2211   24.4413   31.9406 H   0  0  0  0  0  0  0  0  0  0  0  0
   38.2040   24.0052   37.2893 H   0  0  0  0  0  0  0  0  0  0  0  0
   37.4686   28.7534   35.6037 H   0  0  0  0  0  0  0  0  0  0  0  0
   42.1935   26.4111   35.9837 H   0  0  0  0  0  0  0  0  0  0  0  0
   45.7697   25.0690   34.6886 H   0  0  0  0  0  0  0  0  0  0  0  0
   44.4369   25.6621   33.6616 H   0  0  0  0  0  0  0  0  0  0  0  0
  1  2  1  0
  1  9  1  0
  2 22  1  0
  3  2  1  0
  4  3  1  0
  5  6  1  0
  5  4  1  0
  6  1  1  0
  7 12  2  0
  8  7  1  0
  9 10  1  0
  9  8  2  0
 10 11  2  0
 11 18  1  0
 11 12  1  0
 13  8  1  0
 13 17  1  0
 14 15  1  0
 14 13  2  0
 15 16  1  0
 16 17  2  0
 18 19  1  0
 18 20  1  0
 21 18  1  0
 22 23  1  0
 23 25  2  0
 24 23  1  0
  2 26  1  6
  3 27  1  0
  3 28  1  0
  5 29  1  0
  5 30  1  0
  6 31  1  0
  6 32  1  0
  7 33  1  0
 16 34  1  0
 22 35  1  0
 24 36  1  0
 24 37  1  0
M  ISO  8  26  13  27  13  28  13  29  13  30  13  31  13  32  13  33  14
M  ISO  1  34  14
M  END
>  <minimizedAffinity>  (1) 
-4.86201286

>  <minimizedRMSD>  (1) 
2.19728804

$$$$
