
     RDKit          3D

 41 42  0  0  1  0  0  0  0  0999 V2000
   40.5940   25.1250   33.9450 N   0  0  0  0  0  0  0  0  0  0  0  0
   41.7680   25.9840   33.8290 C   0  0  1  0  0  0  0  0  0  0  0  0
   41.3440   27.3650   33.4180 C   0  0  0  0  0  0  0  0  0  0  0  0
   40.0100   27.3890   33.0930 O   0  0  0  0  0  0  0  0  0  0  0  0
   39.7780   26.4530   32.1050 C   0  0  0  0  0  0  0  0  0  0  0  0
   39.9060   25.0740   32.6970 C   0  0  0  0  0  0  0  0  0  0  0  0
   38.9240   23.8400   37.0250 C   0  0  0  0  0  0  0  0  0  0  0  0
   39.1390   24.6310   35.8880 C   0  0  0  0  0  0  0  0  0  0  0  0
   40.2510   24.4390   35.1100 C   0  0  0  0  0  0  0  0  0  0  0  0
   41.0860   23.4670   35.5130 N   0  0  0  0  0  0  0  0  0  0  0  0
   40.9250   22.7040   36.5680 C   0  0  0  0  0  0  0  0  0  0  0  0
   39.8170   22.8930   37.3430 N   0  0  0  0  0  0  0  0  0  0  0  0
   41.9620   21.6520   36.8810 C   0  0  0  0  0  0  0  0  0  0  0  0
   43.2080   22.1900   36.9730 F   0  0  0  0  0  0  0  0  0  0  0  0
   41.5370   21.0980   38.0890 F   0  0  0  0  0  0  0  0  0  0  0  0
   41.9460   20.6370   35.9550 F   0  0  0  0  0  0  0  0  0  0  0  0
   38.1420   25.6460   35.5830 C   0  0  0  0  0  0  0  0  0  0  0  0
   38.7730   27.0190   35.6070 C   0  0  0  0  0  0  0  0  0  0  0  0
   37.6560   25.4320   34.1360 C   0  0  0  0  0  0  0  0  0  0  0  0
   42.3870   26.0690   35.1160 N   0  0  0  0  0  0  0  0  0  0  0  0
   43.6860   25.6100   35.3480 C   0  0  0  0  0  0  0  0  0  0  0  0
   44.3080   25.5000   34.2490 N   0  0  0  0  0  0  0  0  0  0  0  0
   44.3880   25.2860   36.3280 O   0  0  0  0  0  0  0  0  0  0  0  0
   42.4611   25.5705   33.0816 H   0  0  0  0  0  0  0  0  0  0  0  0
   41.5249   28.0606   34.2507 H   0  0  0  0  0  0  0  0  0  0  0  0
   41.9275   27.6649   32.5350 H   0  0  0  0  0  0  0  0  0  0  0  0
   40.5151   26.5779   31.2981 H   0  0  0  0  0  0  0  0  0  0  0  0
   38.7667   26.5889   31.6941 H   0  0  0  0  0  0  0  0  0  0  0  0
   38.9018   24.6538   32.8548 H   0  0  0  0  0  0  0  0  0  0  0  0
   40.4784   24.4418   32.0023 H   0  0  0  0  0  0  0  0  0  0  0  0
   38.0318   23.9950   37.6495 H   0  0  0  0  0  0  0  0  0  0  0  0
   37.3286   25.5715   36.3198 H   0  0  0  0  0  0  0  0  0  0  0  0
   38.9192   27.3372   36.6498 H   0  0  0  0  0  0  0  0  0  0  0  0
   39.7456   26.9846   35.0943 H   0  0  0  0  0  0  0  0  0  0  0  0
   38.1134   27.7347   35.0943 H   0  0  0  0  0  0  0  0  0  0  0  0
   36.6493   24.9887   34.1491 H   0  0  0  0  0  0  0  0  0  0  0  0
   37.6240   26.3993   33.6131 H   0  0  0  0  0  0  0  0  0  0  0  0
   38.3479   24.7553   33.6131 H   0  0  0  0  0  0  0  0  0  0  0  0
   41.8577   26.4821   35.8971 H   0  0  0  0  0  0  0  0  0  0  0  0
   45.2842   25.1717   34.2404 H   0  0  0  0  0  0  0  0  0  0  0  0
   43.8372   25.7390   33.3646 H   0  0  0  0  0  0  0  0  0  0  0  0
  1  9  1  0
  2  1  1  0
  2 20  1  0
  3  2  1  0
  4  3  1  0
  5  6  1  0
  5  4  1  0
  6  1  1  0
  7 12  2  0
  8  7  1  0
  9 10  1  0
  9  8  2  0
 10 11  2  0
 11 13  1  0
 11 12  1  0
 13 14  1  0
 13 15  1  0
 16 13  1  0
 17 18  1  0
 17  8  1  0
 19 17  1  0
 20 21  1  0
 21 23  2  0
 22 21  1  0
  2 24  1  6
  3 25  1  0
  3 26  1  0
  5 27  1  0
  5 28  1  0
  6 29  1  0
  6 30  1  0
  7 31  1  0
 17 32  1  0
 18 33  1  0
 18 34  1  0
 18 35  1  0
 19 36  1  0
 19 37  1  0
 19 38  1  0
 20 39  1  0
 22 40  1  0
 22 41  1  0
M  ISO  8  24  13  25  13  26  13  27  13  28  13  29  13  30  13  31  14
M  ISO  7  32   8  33   8  34   8  35   8  36   8  37   8  38   8
M  END
>  <minimizedAffinity>  (1) 
-4.84156609

>  <minimizedRMSD>  (1) 
1.72001553

$$$$
