
     RDKit          3D

 35 36  0  0  1  0  0  0  0  0999 V2000
   37.9870   25.5210   33.8460 N   0  0  0  0  0  0  0  0  0  0  0  0
   38.6950   26.3580   32.8810 C   0  0  1  0  0  0  0  0  0  0  0  0
   39.7690   27.1390   33.5830 C   0  0  0  0  0  0  0  0  0  0  0  0
   39.6660   26.9990   34.9440 O   0  0  0  0  0  0  0  0  0  0  0  0
   38.3780   27.4110   35.3110 C   0  0  0  0  0  0  0  0  0  0  0  0
   37.4190   26.3290   34.8840 C   0  0  0  0  0  0  0  0  0  0  0  0
   38.2650   21.8370   34.2870 C   0  0  0  0  0  0  0  0  0  0  0  0
   38.4870   23.2020   34.4960 C   0  0  0  0  0  0  0  0  0  0  0  0
   37.8620   24.1530   33.7390 C   0  0  0  0  0  0  0  0  0  0  0  0
   37.0340   23.6670   32.8010 N   0  0  0  0  0  0  0  0  0  0  0  0
   36.7880   22.4000   32.5630 C   0  0  0  0  0  0  0  0  0  0  0  0
   37.4170   21.4600   33.3210 N   0  0  0  0  0  0  0  0  0  0  0  0
   35.8080   22.0410   31.4670 C   0  0  0  0  0  0  0  0  0  0  0  0
   35.3720   23.1370   30.8000 F   0  0  0  0  0  0  0  0  0  0  0  0
   36.5340   21.1590   30.6510 F   0  0  0  0  0  0  0  0  0  0  0  0
   34.7360   21.3350   31.9580 F   0  0  0  0  0  0  0  0  0  0  0  0
   39.3760   23.4890   35.5800 C   0  0  0  0  0  0  0  0  0  0  0  0
   39.4740   23.3060   36.7960 O   0  0  0  0  0  0  0  0  0  0  0  0
   40.5680   24.1740   35.5060 O   0  0  0  0  0  0  0  0  0  0  0  0
   39.3190   25.4960   31.9260 N   0  0  0  0  0  0  0  0  0  0  0  0
   38.9050   25.4340   30.5930 C   0  0  0  0  0  0  0  0  0  0  0  0
   38.2260   26.4680   30.3010 N   0  0  0  0  0  0  0  0  0  0  0  0
   39.0250   24.6460   29.6300 O   0  0  0  0  0  0  0  0  0  0  0  0
   37.9915   27.0503   32.3954 H   0  0  0  0  0  0  0  0  0  0  0  0
   40.7531   26.7717   33.2566 H   0  0  0  0  0  0  0  0  0  0  0  0
   39.6526   28.2030   33.3293 H   0  0  0  0  0  0  0  0  0  0  0  0
   38.3247   27.5519   36.4006 H   0  0  0  0  0  0  0  0  0  0  0  0
   38.1242   28.3668   34.8292 H   0  0  0  0  0  0  0  0  0  0  0  0
   36.4939   26.7941   34.5126 H   0  0  0  0  0  0  0  0  0  0  0  0
   37.2057   25.6870   35.7513 H   0  0  0  0  0  0  0  0  0  0  0  0
   38.7781   21.0858   34.9054 H   0  0  0  0  0  0  0  0  0  0  0  0
   41.1082   24.3172   36.3232 H   0  0  0  0  0  0  0  0  0  0  0  0
   40.1013   24.8997   32.2315 H   0  0  0  0  0  0  0  0  0  0  0  0
   37.8427   26.5813   29.3517 H   0  0  0  0  0  0  0  0  0  0  0  0
   38.0590   27.1926   31.0137 H   0  0  0  0  0  0  0  0  0  0  0  0
  1  6  1  0
  2  3  1  0
  2  1  1  0
  3  4  1  0
  4  5  1  0
  6  5  1  0
  7  8  2  0
  8 17  1  0
  9  1  1  0
  9  8  1  0
 10  9  2  0
 11 10  1  0
 11 12  2  0
 12  7  1  0
 13 16  1  0
 13 11  1  0
 14 13  1  0
 15 13  1  0
 17 18  2  0
 19 17  1  0
 20  2  1  0
 21 20  1  0
 22 21  1  0
 23 21  2  0
  2 24  1  6
  3 25  1  0
  3 26  1  0
  5 27  1  0
  5 28  1  0
  6 29  1  0
  6 30  1  0
  7 31  1  0
 19 32  1  0
 20 33  1  0
 22 34  1  0
 22 35  1  0
M  ISO  8  24  13  25  13  26  13  27  13  28  13  29  13  30  13  31  14
M  ISO  1  32   3
M  END
>  <minimizedAffinity>  (1) 
-4.77230024

>  <minimizedRMSD>  (1) 
5.13141108

$$$$
