
     RDKit          3D

 41 43  0  0  1  0  0  0  0  0999 V2000
   36.2580   29.6170   32.3000 C   0  0  0  0  0  0  0  0  0  0  0  0
   37.0140   28.6100   31.7600 C   0  0  0  0  0  0  0  0  0  0  0  0
   37.2890   27.5000   32.5590 C   0  0  0  0  0  0  0  0  0  0  0  0
   36.8180   27.4250   33.8390 C   0  0  0  0  0  0  0  0  0  0  0  0
   36.0650   28.4260   34.3790 C   0  0  0  0  0  0  0  0  0  0  0  0
   35.7790   29.5320   33.6130 C   0  0  0  0  0  0  0  0  0  0  0  0
   37.2120   26.1800   34.5230 C   0  0  0  0  0  0  0  0  0  0  0  0
   38.6180   26.1470   34.9640 C   0  0  2  0  0  0  0  0  0  0  0  0
   40.5050   23.2070   36.0790 C   0  0  0  0  0  0  0  0  0  0  0  0
   39.6910   22.6680   37.1160 C   0  0  0  0  0  0  0  0  0  0  0  0
   38.4880   23.3320   37.4230 C   0  0  0  0  0  0  0  0  0  0  0  0
   38.1910   24.4550   36.6920 N   0  0  0  0  0  0  0  0  0  0  0  0
   39.0040   24.9300   35.7080 C   0  0  0  0  0  0  0  0  0  0  0  0
   40.1520   24.3270   35.3910 N   0  0  0  0  0  0  0  0  0  0  0  0
   38.8760   27.3600   35.8950 C   0  0  0  0  0  0  0  0  0  0  0  0
   35.8950   31.0230   31.3240 S   0  0  0  0  0  0  0  0  0  0  0  0
   36.4560   30.7730   29.9460 O   0  0  0  0  0  0  0  0  0  0  0  0
   36.5700   32.2520   31.8730 O   0  0  0  0  0  0  0  0  0  0  0  0
   34.1790   31.2920   31.2490 C   0  0  0  0  0  0  0  0  0  0  0  0
   33.1070   30.6470   31.7030 N   0  0  0  0  0  0  0  0  0  0  0  0
   32.0180   31.2790   31.3700 O   0  0  0  0  0  0  0  0  0  0  0  0
   32.3380   32.3550   30.6900 C   0  0  0  0  0  0  0  0  0  0  0  0
   33.6600   32.3740   30.6080 N   0  0  0  0  0  0  0  0  0  0  0  0
   31.3350   33.2800   30.1720 C   0  0  0  0  0  0  0  0  0  0  0  0
   30.1560   32.8580   30.0260 O   0  0  0  0  0  0  0  0  0  0  0  0
   31.7240   34.6200   29.8510 N   0  0  0  0  0  0  0  0  0  0  0  0
   37.3922   28.6747   30.7291 H   0  0  0  0  0  0  0  0  0  0  0  0
   37.8927   26.6748   32.1532 H   0  0  0  0  0  0  0  0  0  0  0  0
   35.6923   28.3499   35.4111 H   0  0  0  0  0  0  0  0  0  0  0  0
   35.1740   30.3497   34.0318 H   0  0  0  0  0  0  0  0  0  0  0  0
   36.5707   26.0558   35.4081 H   0  0  0  0  0  0  0  0  0  0  0  0
   37.0933   25.3680   33.7905 H   0  0  0  0  0  0  0  0  0  0  0  0
   39.2200   26.1687   34.0436 H   0  0  0  0  0  0  0  0  0  0  0  0
   41.4490   22.7020   35.8261 H   0  0  0  0  0  0  0  0  0  0  0  0
   39.9929   21.7610   37.6602 H   0  0  0  0  0  0  0  0  0  0  0  0
   37.8160   22.9669   38.2136 H   0  0  0  0  0  0  0  0  0  0  0  0
   38.8075   27.0378   36.9445 H   0  0  0  0  0  0  0  0  0  0  0  0
   39.8803   27.7645   35.7004 H   0  0  0  0  0  0  0  0  0  0  0  0
   38.1233   28.1382   35.7004 H   0  0  0  0  0  0  0  0  0  0  0  0
   31.0277   35.2846   29.4845 H   0  0  0  0  0  0  0  0  0  0  0  0
   32.7002   34.9194   29.9866 H   0  0  0  0  0  0  0  0  0  0  0  0
  1  6  1  0
  2  1  2  0
  2  3  1  0
  3  4  2  0
  4  5  1  0
  4  7  1  0
  6  5  2  0
  7  8  1  0
  8 13  1  0
  8 15  1  0
  9 10  2  0
 10 11  1  0
 12 11  2  0
 13 12  1  0
 14 13  2  0
 14  9  1  0
 16 18  2  0
 16  1  1  0
 17 16  2  0
 19 16  1  0
 19 20  2  0
 21 20  1  0
 22 21  1  0
 23 22  2  0
 23 19  1  0
 24 22  1  0
 25 24  2  0
 26 24  1  0
  2 27  1  0
  3 28  1  0
  5 29  1  0
  6 30  1  0
  7 31  1  0
  7 32  1  0
  8 33  1  6
  9 34  1  0
 10 35  1  0
 11 36  1  0
 15 37  1  0
 15 38  1  0
 15 39  1  0
 26 40  1  0
 26 41  1  0
M  ISO  8  27  14  28  14  29  14  30  14  31   8  32   8  33   8  34  14
M  ISO  5  35  14  36  14  37   8  38   8  39   8
M  END
>  <minimizedAffinity>  (1) 
-4.8934207

>  <minimizedRMSD>  (1) 
0.0143489689

$$$$
