
     RDKit          3D

 43 45  0  0  1  0  0  0  0  0999 V2000
   40.4890   24.6290   33.4940 N   0  0  0  0  0  0  0  0  0  0  0  0
   41.9520   24.4720   33.5600 C   0  0  1  0  0  0  0  0  0  0  0  0
   42.5900   25.2580   32.4750 C   0  0  0  0  0  0  0  0  0  0  0  0
   41.6720   25.8480   31.6610 O   0  0  0  0  0  0  0  0  0  0  0  0
   40.9110   24.8170   31.1190 C   0  0  0  0  0  0  0  0  0  0  0  0
   40.0230   24.2520   32.2130 C   0  0  0  0  0  0  0  0  0  0  0  0
   38.3660   26.5980   35.8490 C   0  0  0  0  0  0  0  0  0  0  0  0
   39.1250   26.3070   34.7050 C   0  0  0  0  0  0  0  0  0  0  0  0
   39.7130   25.0700   34.5620 C   0  0  0  0  0  0  0  0  0  0  0  0
   39.5300   24.1790   35.5530 N   0  0  0  0  0  0  0  0  0  0  0  0
   38.8210   24.4210   36.6460 C   0  0  0  0  0  0  0  0  0  0  0  0
   38.2230   25.6510   36.8050 N   0  0  0  0  0  0  0  0  0  0  0  0
   42.3890   24.9150   34.8390 N   0  0  0  0  0  0  0  0  0  0  0  0
   43.1460   24.1620   35.7230 C   0  0  0  0  0  0  0  0  0  0  0  0
   43.7200   23.2920   35.0320 N   0  0  0  0  0  0  0  0  0  0  0  0
   43.4760   24.0090   36.9060 O   0  0  0  0  0  0  0  0  0  0  0  0
   38.7150   23.3250   37.6780 C   0  0  0  0  0  0  0  0  0  0  0  0
   38.8210   23.8300   38.9440 F   0  0  0  0  0  0  0  0  0  0  0  0
   37.4420   22.7830   37.4600 F   0  0  0  0  0  0  0  0  0  0  0  0
   39.6210   22.3440   37.4810 F   0  0  0  0  0  0  0  0  0  0  0  0
   39.2800   27.2740   33.6100 C   0  0  0  0  0  0  0  0  0  0  0  0
   38.0670   27.2030   32.7090 C   0  0  0  0  0  0  0  0  0  0  0  0
   36.8000   26.7160   32.7300 C   0  0  0  0  0  0  0  0  0  0  0  0
   35.9210   26.7970   31.6850 C   0  0  0  0  0  0  0  0  0  0  0  0
   36.3450   27.4030   30.5500 N   0  0  0  0  0  0  0  0  0  0  0  0
   37.5770   27.9040   30.4570 C   0  0  0  0  0  0  0  0  0  0  0  0
   38.3740   27.7900   31.5100 N   0  0  0  0  0  0  0  0  0  0  0  0
   42.2367   23.4184   33.4230 H   0  0  0  0  0  0  0  0  0  0  0  0
   43.2183   26.0401   32.9262 H   0  0  0  0  0  0  0  0  0  0  0  0
   43.1893   24.5669   31.8641 H   0  0  0  0  0  0  0  0  0  0  0  0
   40.2891   25.2055   30.2991 H   0  0  0  0  0  0  0  0  0  0  0  0
   41.5687   24.0300   30.7214 H   0  0  0  0  0  0  0  0  0  0  0  0
   38.9998   24.6321   32.0770 H   0  0  0  0  0  0  0  0  0  0  0  0
   40.0406   23.1543   32.1445 H   0  0  0  0  0  0  0  0  0  0  0  0
   37.8930   27.5841   35.9672 H   0  0  0  0  0  0  0  0  0  0  0  0
   42.1231   25.8665   35.1301 H   0  0  0  0  0  0  0  0  0  0  0  0
   44.3456   22.6079   35.4809 H   0  0  0  0  0  0  0  0  0  0  0  0
   43.5672   23.2595   34.0139 H   0  0  0  0  0  0  0  0  0  0  0  0
   39.3712   28.2886   34.0252 H   0  0  0  0  0  0  0  0  0  0  0  0
   40.1848   27.0357   33.0315 H   0  0  0  0  0  0  0  0  0  0  0  0
   36.4565   26.2222   33.6509 H   0  0  0  0  0  0  0  0  0  0  0  0
   34.9045   26.3841   31.7636 H   0  0  0  0  0  0  0  0  0  0  0  0
   37.9212   28.3964   29.5356 H   0  0  0  0  0  0  0  0  0  0  0  0
  1  2  1  0
  1  9  1  0
  2 13  1  0
  3  2  1  0
  4  3  1  0
  5  4  1  0
  5  6  1  0
  6  1  1  0
  7 12  2  0
  8  7  1  0
  9  8  2  0
  9 10  1  0
 10 11  2  0
 11 12  1  0
 11 17  1  0
 13 14  1  0
 14 16  2  0
 15 14  1  0
 17 18  1  0
 19 17  1  0
 20 17  1  0
 21  8  1  0
 22 23  2  0
 22 21  1  0
 24 23  1  0
 25 24  2  0
 26 25  1  0
 26 27  2  0
 27 22  1  0
  2 28  1  6
  3 29  1  0
  3 30  1  0
  5 31  1  0
  5 32  1  0
  6 33  1  0
  6 34  1  0
  7 35  1  0
 13 36  1  0
 15 37  1  0
 15 38  1  0
 21 39  1  0
 21 40  1  0
 23 41  1  0
 24 42  1  0
 26 43  1  0
M  ISO  8  28  13  29  13  30  13  31  13  32  13  33  13  34  13  35  14
M  ISO  5  39   8  40   8  41  14  42  14  43  14
M  END
>  <minimizedAffinity>  (1) 
-5.17728186

>  <minimizedRMSD>  (1) 
4.45511436

$$$$
