
     RDKit          3D

 42 44  0  0  1  0  0  0  0  0999 V2000
   39.1120   24.3310   33.3600 N   0  0  0  0  0  0  0  0  0  0  0  0
   39.3330   23.9930   34.7790 C   0  0  1  0  0  0  0  0  0  0  0  0
   40.0040   25.1240   35.4560 C   0  0  0  0  0  0  0  0  0  0  0  0
   40.3210   26.1290   34.5860 O   0  0  0  0  0  0  0  0  0  0  0  0
   41.1740   25.5540   33.6420 C   0  0  0  0  0  0  0  0  0  0  0  0
   40.3450   24.6830   32.7380 C   0  0  0  0  0  0  0  0  0  0  0  0
   35.8410   25.1650   31.7570 C   0  0  0  0  0  0  0  0  0  0  0  0
   37.0820   25.3820   32.3740 C   0  0  0  0  0  0  0  0  0  0  0  0
   37.8700   24.2930   32.7400 C   0  0  0  0  0  0  0  0  0  0  0  0
   37.3840   23.0670   32.4790 N   0  0  0  0  0  0  0  0  0  0  0  0
   36.2170   22.8380   31.8990 C   0  0  0  0  0  0  0  0  0  0  0  0
   35.4220   23.9060   31.5260 N   0  0  0  0  0  0  0  0  0  0  0  0
   38.0670   23.7200   35.3620 N   0  0  0  0  0  0  0  0  0  0  0  0
   37.7020   22.5190   35.9500 C   0  0  0  0  0  0  0  0  0  0  0  0
   38.7730   21.9570   36.2620 N   0  0  0  0  0  0  0  0  0  0  0  0
   36.7680   21.7790   36.2880 O   0  0  0  0  0  0  0  0  0  0  0  0
   35.8060   21.4000   31.6750 C   0  0  0  0  0  0  0  0  0  0  0  0
   36.7360   20.5450   32.1980 F   0  0  0  0  0  0  0  0  0  0  0  0
   34.5910   21.2900   32.3520 F   0  0  0  0  0  0  0  0  0  0  0  0
   35.5620   21.1360   30.3750 F   0  0  0  0  0  0  0  0  0  0  0  0
   37.6330   26.7180   32.6190 C   0  0  0  0  0  0  0  0  0  0  0  0
   37.4260   27.5030   31.3660 N   0  0  0  0  0  0  0  0  0  0  0  0
   37.6930   27.5680   30.0920 N   0  0  0  0  0  0  0  0  0  0  0  0
   37.1710   28.6590   29.5230 C   0  0  0  0  0  0  0  0  0  0  0  0
   36.5060   29.3790   30.4900 C   0  0  0  0  0  0  0  0  0  0  0  0
   36.6790   28.6280   31.6550 C   0  0  0  0  0  0  0  0  0  0  0  0
   39.9804   23.1097   34.8822 H   0  0  0  0  0  0  0  0  0  0  0  0
   39.3318   25.5235   36.2297 H   0  0  0  0  0  0  0  0  0  0  0  0
   40.9399   24.7486   35.8955 H   0  0  0  0  0  0  0  0  0  0  0  0
   41.6654   26.3426   33.0532 H   0  0  0  0  0  0  0  0  0  0  0  0
   41.9510   24.9569   34.1417 H   0  0  0  0  0  0  0  0  0  0  0  0
   40.9067   23.7657   32.5077 H   0  0  0  0  0  0  0  0  0  0  0  0
   40.1261   25.2418   31.8161 H   0  0  0  0  0  0  0  0  0  0  0  0
   35.2131   26.0190   31.4632 H   0  0  0  0  0  0  0  0  0  0  0  0
   37.3650   24.4736   35.3467 H   0  0  0  0  0  0  0  0  0  0  0  0
   38.7561   21.0352   36.7211 H   0  0  0  0  0  0  0  0  0  0  0  0
   39.6730   22.4154   36.0601 H   0  0  0  0  0  0  0  0  0  0  0  0
   37.1071   27.1971   33.4579 H   0  0  0  0  0  0  0  0  0  0  0  0
   38.7000   26.6644   32.8810 H   0  0  0  0  0  0  0  0  0  0  0  0
   37.2580   28.9350   28.4617 H   0  0  0  0  0  0  0  0  0  0  0  0
   35.9629   30.3283   30.3721 H   0  0  0  0  0  0  0  0  0  0  0  0
   36.2826   28.8913   32.6467 H   0  0  0  0  0  0  0  0  0  0  0  0
  1  2  1  0
  2 13  1  0
  2  3  1  0
  4  3  1  0
  5  4  1  0
  6  1  1  0
  6  5  1  0
  7  8  2  0
  8 21  1  0
  8  9  1  0
  9  1  1  0
 10  9  2  0
 11 10  1  0
 12  7  1  0
 12 11  2  0
 13 14  1  0
 14 15  1  0
 14 16  2  0
 17 11  1  0
 17 18  1  0
 17 19  1  0
 20 17  1  0
 22 26  1  0
 22 21  1  0
 23 22  1  0
 24 23  2  0
 24 25  1  0
 25 26  2  0
  2 27  1  6
  3 28  1  0
  3 29  1  0
  5 30  1  0
  5 31  1  0
  6 32  1  0
  6 33  1  0
  7 34  1  0
 13 35  1  0
 15 36  1  0
 15 37  1  0
 21 38  1  0
 21 39  1  0
 24 40  1  0
 25 41  1  0
 26 42  1  0
M  ISO  8  27  13  28  13  29  13  30  13  31  13  32  13  33  13  34  14
M  ISO  5  38   8  39   8  40  14  41  14  42  14
M  END
>  <minimizedAffinity>  (1) 
-5.37011766

>  <minimizedRMSD>  (1) 
6.62921

$$$$
