
     RDKit          3D

 41 44  0  0  0  0  0  0  0  0999 V2000
   38.7370   23.3420   38.2820 C   0  0  0  0  0  0  0  0  0  0  0  0
   38.0420   24.0410   37.2880 C   0  0  0  0  0  0  0  0  0  0  0  0
   38.5780   24.2070   36.0270 C   0  0  0  0  0  0  0  0  0  0  0  0
   39.8010   23.6660   35.7920 N   0  0  0  0  0  0  0  0  0  0  0  0
   40.4650   22.9990   36.7440 C   0  0  0  0  0  0  0  0  0  0  0  0
   39.9590   22.8280   37.9740 N   0  0  0  0  0  0  0  0  0  0  0  0
   41.7470   22.4040   36.5750 N   0  0  0  0  0  0  0  0  0  0  0  0
   42.0340   21.0890   36.6510 C   0  0  0  0  0  0  0  0  0  0  0  0
   43.3550   20.9180   36.4350 N   0  0  0  0  0  0  0  0  0  0  0  0
   43.9100   22.1120   36.2200 C   0  0  0  0  0  0  0  0  0  0  0  0
   45.2160   22.4680   35.9560 C   0  0  0  0  0  0  0  0  0  0  0  0
   45.5080   23.7890   35.7760 N   0  0  0  0  0  0  0  0  0  0  0  0
   44.5070   24.7140   35.8630 C   0  0  0  0  0  0  0  0  0  0  0  0
   43.2400   24.3420   36.1230 N   0  0  0  0  0  0  0  0  0  0  0  0
   42.8920   23.0600   36.3090 C   0  0  0  0  0  0  0  0  0  0  0  0
   46.2650   21.5040   35.8630 N   0  0  0  0  0  0  0  0  0  0  0  0
   37.7110   25.0940   34.7460 S   0  0  0  0  0  0  0  0  0  0  0  0
   38.1080   26.8220   34.6430 C   0  0  0  0  0  0  0  0  0  0  0  0
   38.4070   27.5040   35.9450 C   0  0  0  0  0  0  0  0  0  0  0  0
   37.0720   27.6440   33.9060 C   0  0  0  0  0  0  0  0  0  0  0  0
   39.3640   26.9370   33.7710 C   0  0  0  0  0  0  0  0  0  0  0  0
   39.0330   26.7520   32.3200 C   0  0  0  0  0  0  0  0  0  0  0  0
   38.9010   25.5490   31.7270 N   0  0  0  0  0  0  0  0  0  0  0  0
   38.6150   25.7470   30.4790 O   0  0  0  0  0  0  0  0  0  0  0  0
   38.5470   27.0200   30.2050 C   0  0  0  0  0  0  0  0  0  0  0  0
   38.8080   27.6620   31.3530 N   0  0  0  0  0  0  0  0  0  0  0  0
   38.3067   23.2116   39.2859 H   0  0  0  0  0  0  0  0  0  0  0  0
   37.0528   24.4648   37.5156 H   0  0  0  0  0  0  0  0  0  0  0  0
   41.3098   20.2867   36.8556 H   0  0  0  0  0  0  0  0  0  0  0  0
   44.7399   25.7793   35.7184 H   0  0  0  0  0  0  0  0  0  0  0  0
   47.2285   21.8089   35.6642 H   0  0  0  0  0  0  0  0  0  0  0  0
   46.0583   20.5036   35.9947 H   0  0  0  0  0  0  0  0  0  0  0  0
   38.1186   26.8462   36.7782 H   0  0  0  0  0  0  0  0  0  0  0  0
   39.4834   27.7223   36.0058 H   0  0  0  0  0  0  0  0  0  0  0  0
   37.8383   28.4436   36.0058 H   0  0  0  0  0  0  0  0  0  0  0  0
   36.4256   28.1569   34.6334 H   0  0  0  0  0  0  0  0  0  0  0  0
   37.5771   28.3898   33.2745 H   0  0  0  0  0  0  0  0  0  0  0  0
   36.4606   26.9826   33.2745 H   0  0  0  0  0  0  0  0  0  0  0  0
   39.8104   27.9322   33.9136 H   0  0  0  0  0  0  0  0  0  0  0  0
   40.0709   26.1495   34.0712 H   0  0  0  0  0  0  0  0  0  0  0  0
   38.3212   27.4752   29.2294 H   0  0  0  0  0  0  0  0  0  0  0  0
  2  1  2  0
  3  2  1  0
  4  3  2  0
  4  5  1  0
  5  6  2  0
  6  1  1  0
  7  8  1  0
  7  5  1  0
  9  8  2  0
 10 15  2  0
 10  9  1  0
 11 10  1  0
 12 13  1  0
 12 11  2  0
 13 14  2  0
 14 15  1  0
 15  7  1  0
 16 11  1  0
 17  3  1  0
 18 17  1  0
 18 19  1  0
 20 18  1  0
 21 18  1  0
 22 21  1  0
 23 22  2  0
 24 23  1  0
 25 24  1  0
 25 26  2  0
 26 22  1  0
  1 27  1  0
  2 28  1  0
  8 29  1  0
 13 30  1  0
 16 31  1  0
 16 32  1  0
 19 33  1  0
 19 34  1  0
 19 35  1  0
 20 36  1  0
 20 37  1  0
 20 38  1  0
 21 39  1  0
 21 40  1  0
 25 41  1  0
M  ISO  8  27  14  28  14  29  14  30  14  33   8  34   8  35   8  36   8
M  ISO  5  37   8  38   8  39   8  40   8  41  14
M  END
>  <minimizedAffinity>  (1) 
-5.27780437

>  <minimizedRMSD>  (1) 
2.57831883

$$$$
