
     RDKit          3D

 48 51  0  0  1  0  0  0  0  0999 V2000
   41.7480   24.4520   34.1850 N   0  0  0  0  0  0  0  0  0  0  0  0
   42.6250   25.6290   34.2860 C   0  0  1  0  0  0  0  0  0  0  0  0
   41.8200   26.8640   34.1030 C   0  0  0  0  0  0  0  0  0  0  0  0
   40.5160   26.5890   33.8190 O   0  0  0  0  0  0  0  0  0  0  0  0
   40.5470   25.8400   32.6270 C   0  0  0  0  0  0  0  0  0  0  0  0
   41.0390   24.4560   32.9550 C   0  0  0  0  0  0  0  0  0  0  0  0
   40.6730   22.2580   37.0190 C   0  0  0  0  0  0  0  0  0  0  0  0
   40.6090   23.2900   36.0740 C   0  0  0  0  0  0  0  0  0  0  0  0
   41.6560   23.4730   35.1780 C   0  0  0  0  0  0  0  0  0  0  0  0
   42.7050   22.6340   35.2670 N   0  0  0  0  0  0  0  0  0  0  0  0
   42.7840   21.6520   36.1560 C   0  0  0  0  0  0  0  0  0  0  0  0
   41.7540   21.4540   37.0510 N   0  0  0  0  0  0  0  0  0  0  0  0
   43.2520   25.6090   35.5600 N   0  0  0  0  0  0  0  0  0  0  0  0
   44.6190   25.5000   35.7710 C   0  0  0  0  0  0  0  0  0  0  0  0
   45.1590   25.8820   34.7110 N   0  0  0  0  0  0  0  0  0  0  0  0
   45.5050   25.1840   36.5730 O   0  0  0  0  0  0  0  0  0  0  0  0
   44.0290   20.7940   36.1390 C   0  0  0  0  0  0  0  0  0  0  0  0
   45.1580   21.5640   36.2520 F   0  0  0  0  0  0  0  0  0  0  0  0
   43.8610   19.9530   37.2440 F   0  0  0  0  0  0  0  0  0  0  0  0
   44.1030   20.0060   35.0510 F   0  0  0  0  0  0  0  0  0  0  0  0
   39.4340   24.1580   35.9100 C   0  0  0  0  0  0  0  0  0  0  0  0
   38.4070   23.5040   36.7910 N   0  0  0  0  0  0  0  0  0  0  0  0
   37.9380   23.4810   38.0380 C   0  0  0  0  0  0  0  0  0  0  0  0
   36.8750   22.6490   38.1590 N   0  0  0  0  0  0  0  0  0  0  0  0
   36.6380   22.1020   36.9460 C   0  0  0  0  0  0  0  0  0  0  0  0
   35.6720   21.1910   36.5960 C   0  0  0  0  0  0  0  0  0  0  0  0
   35.6760   20.7890   35.2970 N   0  0  0  0  0  0  0  0  0  0  0  0
   36.6050   21.3070   34.4780 C   0  0  0  0  0  0  0  0  0  0  0  0
   37.5210   22.1890   34.8600 N   0  0  0  0  0  0  0  0  0  0  0  0
   37.5840   22.6370   36.1300 C   0  0  0  0  0  0  0  0  0  0  0  0
   34.6770   20.6350   37.4160 N   0  0  0  0  0  0  0  0  0  0  0  0
   43.3978   25.6098   33.5034 H   0  0  0  0  0  0  0  0  0  0  0  0
   41.8640   27.4564   35.0288 H   0  0  0  0  0  0  0  0  0  0  0  0
   42.2417   27.4200   33.2527 H   0  0  0  0  0  0  0  0  0  0  0  0
   41.2274   26.3160   31.9055 H   0  0  0  0  0  0  0  0  0  0  0  0
   39.5421   25.7910   32.1824 H   0  0  0  0  0  0  0  0  0  0  0  0
   40.1779   23.7760   33.0328 H   0  0  0  0  0  0  0  0  0  0  0  0
   41.7176   24.1240   32.1555 H   0  0  0  0  0  0  0  0  0  0  0  0
   39.8473   22.1051   37.7295 H   0  0  0  0  0  0  0  0  0  0  0  0
   42.6463   25.6808   36.3900 H   0  0  0  0  0  0  0  0  0  0  0  0
   46.1858   25.8893   34.6296 H   0  0  0  0  0  0  0  0  0  0  0  0
   44.5774   26.1896   33.9185 H   0  0  0  0  0  0  0  0  0  0  0  0
   39.6491   25.1829   36.2467 H   0  0  0  0  0  0  0  0  0  0  0  0
   39.1093   24.2559   34.8636 H   0  0  0  0  0  0  0  0  0  0  0  0
   38.3618   24.0658   38.8677 H   0  0  0  0  0  0  0  0  0  0  0  0
   36.6075   20.9812   33.4274 H   0  0  0  0  0  0  0  0  0  0  0  0
   34.0079   19.9561   37.0257 H   0  0  0  0  0  0  0  0  0  0  0  0
   34.6162   20.9060   38.4078 H   0  0  0  0  0  0  0  0  0  0  0  0
  1  2  1  0
  1  9  1  0
  2 13  1  0
  3  2  1  0
  4  3  1  0
  5  6  1  0
  5  4  1  0
  6  1  1  0
  7 12  2  0
  8  7  1  0
  9 10  1  0
  9  8  2  0
 10 11  2  0
 11 12  1  0
 13 14  1  0
 14 16  2  0
 15 14  1  0
 17 11  1  0
 17 18  1  0
 17 19  1  0
 20 17  1  0
 21  8  1  0
 21 22  1  0
 22 23  1  0
 23 24  2  0
 25 24  1  0
 26 25  2  0
 26 31  1  0
 27 26  1  0
 28 29  1  0
 28 27  2  0
 29 30  2  0
 30 22  1  0
 30 25  1  0
  2 32  1  6
  3 33  1  0
  3 34  1  0
  5 35  1  0
  5 36  1  0
  6 37  1  0
  6 38  1  0
  7 39  1  0
 13 40  1  0
 15 41  1  0
 15 42  1  0
 21 43  1  0
 21 44  1  0
 23 45  1  0
 28 46  1  0
 31 47  1  0
 31 48  1  0
M  ISO  8  32  13  33  13  34  13  35  13  36  13  37  13  38  13  39  14
M  ISO  4  43   8  44   8  45  14  46  14
M  END
>  <minimizedAffinity>  (1) 
-5.99085951

>  <minimizedRMSD>  (1) 
2.28645706

$$$$
