
     RDKit          3D

 36 37  0  0  1  0  0  0  0  0999 V2000
   40.1780   24.7770   33.8840 N   0  0  0  0  0  0  0  0  0  0  0  0
   41.2080   25.7860   33.6020 C   0  0  1  0  0  0  0  0  0  0  0  0
   40.5690   26.9910   33.0210 C   0  0  0  0  0  0  0  0  0  0  0  0
   39.2200   26.8160   32.8320 O   0  0  0  0  0  0  0  0  0  0  0  0
   39.1040   25.7480   31.9460 C   0  0  0  0  0  0  0  0  0  0  0  0
   39.4340   24.4850   32.6960 C   0  0  0  0  0  0  0  0  0  0  0  0
   38.8830   23.6910   37.2020 C   0  0  0  0  0  0  0  0  0  0  0  0
   38.9490   24.3920   35.9900 C   0  0  0  0  0  0  0  0  0  0  0  0
   39.9810   24.1910   35.1190 C   0  0  0  0  0  0  0  0  0  0  0  0
   40.9060   23.2900   35.5050 N   0  0  0  0  0  0  0  0  0  0  0  0
   40.8960   22.6070   36.6240 C   0  0  0  0  0  0  0  0  0  0  0  0
   39.8560   22.8100   37.4990 N   0  0  0  0  0  0  0  0  0  0  0  0
   41.8700   26.0770   34.8260 N   0  0  0  0  0  0  0  0  0  0  0  0
   43.0590   25.5120   35.2490 C   0  0  0  0  0  0  0  0  0  0  0  0
   43.6240   25.1100   34.2110 N   0  0  0  0  0  0  0  0  0  0  0  0
   43.7850   25.2440   36.2080 O   0  0  0  0  0  0  0  0  0  0  0  0
   42.0140   21.6280   36.8960 C   0  0  0  0  0  0  0  0  0  0  0  0
   43.2120   22.2590   36.9630 F   0  0  0  0  0  0  0  0  0  0  0  0
   41.6600   21.0460   38.1150 F   0  0  0  0  0  0  0  0  0  0  0  0
   42.0450   20.6220   35.9660 F   0  0  0  0  0  0  0  0  0  0  0  0
   37.9130   25.3900   35.5960 C   0  0  0  0  0  0  0  0  0  0  0  0
   38.3170   27.0720   36.1070 S   0  0  0  0  0  0  0  0  0  0  0  0
   41.9446   25.4205   32.8714 H   0  0  0  0  0  0  0  0  0  0  0  0
   40.7251   27.8398   33.7030 H   0  0  0  0  0  0  0  0  0  0  0  0
   41.0284   27.1802   32.0396 H   0  0  0  0  0  0  0  0  0  0  0  0
   39.8053   25.8793   31.1088 H   0  0  0  0  0  0  0  0  0  0  0  0
   38.0828   25.6965   31.5404 H   0  0  0  0  0  0  0  0  0  0  0  0
   38.4992   23.9754   32.9724 H   0  0  0  0  0  0  0  0  0  0  0  0
   40.0453   23.8402   32.0475 H   0  0  0  0  0  0  0  0  0  0  0  0
   38.0490   23.8584   37.8994 H   0  0  0  0  0  0  0  0  0  0  0  0
   41.4268   26.7664   35.4499 H   0  0  0  0  0  0  0  0  0  0  0  0
   44.5413   24.6454   34.2709 H   0  0  0  0  0  0  0  0  0  0  0  0
   43.1729   25.2429   33.2946 H   0  0  0  0  0  0  0  0  0  0  0  0
   37.8092   25.3726   34.5011 H   0  0  0  0  0  0  0  0  0  0  0  0
   36.9785   25.1093   36.1039 H   0  0  0  0  0  0  0  0  0  0  0  0
   38.3338   27.1420   37.4751 H   0  0  0  0  0  0  0  0  0  0  0  0
  1  9  1  0
  2  1  1  0
  2 13  1  0
  3  2  1  0
  4  3  1  0
  5  6  1  0
  5  4  1  0
  6  1  1  0
  7 12  2  0
  8  7  1  0
  9 10  1  0
  9  8  2  0
 10 11  2  0
 11 17  1  0
 11 12  1  0
 13 14  1  0
 14 16  2  0
 15 14  1  0
 17 18  1  0
 17 19  1  0
 20 17  1  0
 21  8  1  0
 21 22  1  0
  2 23  1  6
  3 24  1  0
  3 25  1  0
  5 26  1  0
  5 27  1  0
  6 28  1  0
  6 29  1  0
  7 30  1  0
 13 31  1  0
 15 32  1  0
 15 33  1  0
 21 34  1  0
 21 35  1  0
 22 36  1  0
M  ISO  8  23  13  24  13  25  13  26  13  27  13  28  13  29  13  30  14
M  ISO  3  34   8  35   8  36  11
M  END
>  <minimizedAffinity>  (1) 
-4.66361809

>  <minimizedRMSD>  (1) 
1.10828745

$$$$
