
     RDKit          3D

 36 37  0  0  1  0  0  0  0  0999 V2000
   39.7270   24.3470   34.2890 N   0  0  0  0  0  0  0  0  0  0  0  0
   40.6030   25.4220   33.8110 C   0  0  1  0  0  0  0  0  0  0  0  0
   39.7840   26.5770   33.3800 C   0  0  0  0  0  0  0  0  0  0  0  0
   38.4360   26.3010   33.4600 O   0  0  0  0  0  0  0  0  0  0  0  0
   38.2340   25.2270   32.5920 C   0  0  0  0  0  0  0  0  0  0  0  0
   38.7870   23.9920   33.2600 C   0  0  0  0  0  0  0  0  0  0  0  0
   39.1900   23.2120   37.7930 C   0  0  0  0  0  0  0  0  0  0  0  0
   38.9540   23.9120   36.5890 C   0  0  0  0  0  0  0  0  0  0  0  0
   39.8170   23.7640   35.5400 C   0  0  0  0  0  0  0  0  0  0  0  0
   40.8700   22.9360   35.7280 N   0  0  0  0  0  0  0  0  0  0  0  0
   41.1220   22.2700   36.8330 C   0  0  0  0  0  0  0  0  0  0  0  0
   40.2700   22.4050   37.8940 N   0  0  0  0  0  0  0  0  0  0  0  0
   41.4710   25.7810   34.8750 N   0  0  0  0  0  0  0  0  0  0  0  0
   42.8410   25.5960   34.9090 C   0  0  0  0  0  0  0  0  0  0  0  0
   43.1860   25.5300   33.7080 N   0  0  0  0  0  0  0  0  0  0  0  0
   43.8570   25.4710   35.5960 O   0  0  0  0  0  0  0  0  0  0  0  0
   42.3410   21.3760   36.8740 C   0  0  0  0  0  0  0  0  0  0  0  0
   43.4830   22.1000   36.7950 F   0  0  0  0  0  0  0  0  0  0  0  0
   42.2250   20.7100   38.0980 F   0  0  0  0  0  0  0  0  0  0  0  0
   42.3160   20.4240   35.8880 F   0  0  0  0  0  0  0  0  0  0  0  0
   37.8120   24.8020   36.4070 C   0  0  0  0  0  0  0  0  0  0  0  0
   38.1430   26.1120   36.4890 O   0  0  0  0  0  0  0  0  0  0  0  0
   41.1971   25.0909   32.9465 H   0  0  0  0  0  0  0  0  0  0  0  0
   40.0365   26.8248   32.3384 H   0  0  0  0  0  0  0  0  0  0  0  0
   40.0024   27.4225   34.0489 H   0  0  0  0  0  0  0  0  0  0  0  0
   38.7597   25.4076   31.6428 H   0  0  0  0  0  0  0  0  0  0  0  0
   37.1631   25.1021   32.3737 H   0  0  0  0  0  0  0  0  0  0  0  0
   37.9593   23.4228   33.7081 H   0  0  0  0  0  0  0  0  0  0  0  0
   39.3043   23.3831   32.5039 H   0  0  0  0  0  0  0  0  0  0  0  0
   38.4999   23.3227   38.6424 H   0  0  0  0  0  0  0  0  0  0  0  0
   41.0395   26.2211   35.7002 H   0  0  0  0  0  0  0  0  0  0  0  0
   44.1770   25.3919   33.4637 H   0  0  0  0  0  0  0  0  0  0  0  0
   42.4790   25.6138   32.9637 H   0  0  0  0  0  0  0  0  0  0  0  0
   37.0669   24.5795   37.1851 H   0  0  0  0  0  0  0  0  0  0  0  0
   37.4159   24.6258   35.3961 H   0  0  0  0  0  0  0  0  0  0  0  0
   38.2098   26.3765   37.4407 H   0  0  0  0  0  0  0  0  0  0  0  0
  1  9  1  0
  2  1  1  0
  2 13  1  0
  3  4  1  0
  3  2  1  0
  5  6  1  0
  5  4  1  0
  6  1  1  0
  7 12  2  0
  8  7  1  0
  9 10  1  0
  9  8  2  0
 10 11  2  0
 11 17  1  0
 11 12  1  0
 13 14  1  0
 14 16  2  0
 15 14  1  0
 17 19  1  0
 18 17  1  0
 20 17  1  0
 21 22  1  0
 21  8  1  0
  2 23  1  6
  3 24  1  0
  3 25  1  0
  5 26  1  0
  5 27  1  0
  6 28  1  0
  6 29  1  0
  7 30  1  0
 13 31  1  0
 15 32  1  0
 15 33  1  0
 21 34  1  0
 21 35  1  0
 22 36  1  0
M  ISO  8  23  13  24  13  25  13  26  13  27  13  28  13  29  13  30  14
M  ISO  3  34   8  35   8  36   3
M  END
>  <minimizedAffinity>  (1) 
-4.69518423

>  <minimizedRMSD>  (1) 
0.52751106

$$$$
