
     RDKit          3D

 38 40  0  0  0  0  0  0  0  0999 V2000
   38.1490   26.6630   34.2400 C   0  0  0  0  0  0  0  0  0  0  0  0
   36.9370   27.4260   34.7000 C   0  0  0  0  0  0  0  0  0  0  0  0
   38.5770   27.1990   32.8940 C   0  0  0  0  0  0  0  0  0  0  0  0
   39.3040   27.0420   35.1940 C   0  0  0  0  0  0  0  0  0  0  0  0
   40.6160   26.8870   34.5130 C   0  0  0  0  0  0  0  0  0  0  0  0
   41.5340   25.9440   34.8550 N   0  0  0  0  0  0  0  0  0  0  0  0
   42.5600   26.0830   34.0680 O   0  0  0  0  0  0  0  0  0  0  0  0
   42.3840   27.0580   33.2240 C   0  0  0  0  0  0  0  0  0  0  0  0
   41.1770   27.5620   33.4960 N   0  0  0  0  0  0  0  0  0  0  0  0
   37.9900   24.9000   34.2880 S   0  0  0  0  0  0  0  0  0  0  0  0
   38.3850   23.7670   38.1720 C   0  0  0  0  0  0  0  0  0  0  0  0
   37.9280   24.3760   36.9930 C   0  0  0  0  0  0  0  0  0  0  0  0
   38.5590   24.1340   35.7930 C   0  0  0  0  0  0  0  0  0  0  0  0
   39.6270   23.2890   35.8090 N   0  0  0  0  0  0  0  0  0  0  0  0
   40.0630   22.7070   36.9340 C   0  0  0  0  0  0  0  0  0  0  0  0
   39.4550   22.9380   38.1050 N   0  0  0  0  0  0  0  0  0  0  0  0
   41.1910   21.8620   36.7280 N   0  0  0  0  0  0  0  0  0  0  0  0
   41.7220   21.0120   37.6290 C   0  0  0  0  0  0  0  0  0  0  0  0
   42.8320   20.2530   37.2630 C   0  0  0  0  0  0  0  0  0  0  0  0
   43.3740   20.3770   35.9960 C   0  0  0  0  0  0  0  0  0  0  0  0
   44.3830   19.6700   35.7030 O   0  0  0  0  0  0  0  0  0  0  0  0
   42.8160   21.2390   35.1220 N   0  0  0  0  0  0  0  0  0  0  0  0
   41.7280   21.9760   35.4920 C   0  0  0  0  0  0  0  0  0  0  0  0
   41.3060   22.7390   34.5850 O   0  0  0  0  0  0  0  0  0  0  0  0
   36.9100   27.4430   35.7995 H   0  0  0  0  0  0  0  0  0  0  0  0
   36.9859   28.4565   34.3184 H   0  0  0  0  0  0  0  0  0  0  0  0
   36.0289   26.9364   34.3184 H   0  0  0  0  0  0  0  0  0  0  0  0
   39.2575   28.0512   33.0382 H   0  0  0  0  0  0  0  0  0  0  0  0
   39.0944   26.4076   32.3319 H   0  0  0  0  0  0  0  0  0  0  0  0
   37.6907   27.5285   32.3319 H   0  0  0  0  0  0  0  0  0  0  0  0
   39.1825   28.0882   35.5112 H   0  0  0  0  0  0  0  0  0  0  0  0
   39.2764   26.3743   36.0677 H   0  0  0  0  0  0  0  0  0  0  0  0
   43.0847   27.3972   32.4468 H   0  0  0  0  0  0  0  0  0  0  0  0
   37.8841   23.9590   39.1324 H   0  0  0  0  0  0  0  0  0  0  0  0
   37.0602   25.0510   37.0276 H   0  0  0  0  0  0  0  0  0  0  0  0
   41.2871   20.9190   38.6351 H   0  0  0  0  0  0  0  0  0  0  0  0
   43.2789   19.5527   37.9841 H   0  0  0  0  0  0  0  0  0  0  0  0
   43.2103   21.3413   34.1760 H   0  0  0  0  0  0  0  0  0  0  0  0
  1 10  1  0
  1  2  1  0
  1  4  1  0
  3  1  1  0
  5  6  2  0
  5  4  1  0
  7  6  1  0
  8  9  2  0
  8  7  1  0
  9  5  1  0
 10 13  1  0
 12 11  2  0
 13 14  2  0
 13 12  1  0
 14 15  1  0
 15 16  2  0
 16 11  1  0
 17 15  1  0
 17 18  1  0
 19 18  2  0
 20 19  1  0
 21 20  2  0
 22 23  1  0
 22 20  1  0
 23 17  1  0
 24 23  2  0
  2 25  1  0
  2 26  1  0
  2 27  1  0
  3 28  1  0
  3 29  1  0
  3 30  1  0
  4 31  1  0
  4 32  1  0
  8 33  1  0
 11 34  1  0
 12 35  1  0
 18 36  1  0
 19 37  1  0
 22 38  1  0
M  ISO  8  25   8  26   8  27   8  28   8  29   8  30   8  31   8  32   8
M  ISO  6  33  14  34  14  35  14  36  14  37  14  38   9
M  END
>  <minimizedAffinity>  (1) 
-5.23149347

>  <minimizedRMSD>  (1) 
0.863549411

$$$$
