
     RDKit          3D

 42 44  0  0  1  0  0  0  0  0999 V2000
   39.8480   23.5960   33.7990 N   0  0  0  0  0  0  0  0  0  0  0  0
   40.8000   24.4410   33.0730 C   0  0  1  0  0  0  0  0  0  0  0  0
   40.0600   25.5120   32.3630 C   0  0  0  0  0  0  0  0  0  0  0  0
   38.7060   25.3730   32.4890 O   0  0  0  0  0  0  0  0  0  0  0  0
   38.3940   24.1320   31.9430 C   0  0  0  0  0  0  0  0  0  0  0  0
   38.8550   23.0750   32.9020 C   0  0  0  0  0  0  0  0  0  0  0  0
   39.2950   23.3930   37.4720 C   0  0  0  0  0  0  0  0  0  0  0  0
   39.1010   23.7880   36.1380 C   0  0  0  0  0  0  0  0  0  0  0  0
   39.9210   23.3330   35.1530 C   0  0  0  0  0  0  0  0  0  0  0  0
   40.8950   22.4990   35.5570 N   0  0  0  0  0  0  0  0  0  0  0  0
   41.1230   22.0960   36.7790 C   0  0  0  0  0  0  0  0  0  0  0  0
   40.2970   22.5570   37.7720 N   0  0  0  0  0  0  0  0  0  0  0  0
   41.7110   24.9740   34.0260 N   0  0  0  0  0  0  0  0  0  0  0  0
   42.9580   24.4470   34.3170 C   0  0  0  0  0  0  0  0  0  0  0  0
   43.2790   23.7680   33.3170 N   0  0  0  0  0  0  0  0  0  0  0  0
   43.8700   24.3710   35.1430 O   0  0  0  0  0  0  0  0  0  0  0  0
   42.2630   21.1470   37.0470 C   0  0  0  0  0  0  0  0  0  0  0  0
   43.4660   21.7620   36.9230 F   0  0  0  0  0  0  0  0  0  0  0  0
   42.0360   20.7040   38.3520 F   0  0  0  0  0  0  0  0  0  0  0  0
   42.2140   20.0480   36.2320 F   0  0  0  0  0  0  0  0  0  0  0  0
   38.0090   24.7280   35.7480 C   0  0  0  0  0  0  0  0  0  0  0  0
   38.2110   26.0960   36.3320 C   0  0  0  0  0  0  0  0  0  0  0  0
   37.7650   27.3010   35.5820 C   0  0  0  0  0  0  0  0  0  0  0  0
   39.2030   27.0150   35.5430 C   0  0  0  0  0  0  0  0  0  0  0  0
   41.3587   23.8687   32.3178 H   0  0  0  0  0  0  0  0  0  0  0  0
   40.3222   25.4762   31.2953 H   0  0  0  0  0  0  0  0  0  0  0  0
   40.3445   26.4749   32.8123 H   0  0  0  0  0  0  0  0  0  0  0  0
   37.3071   24.0524   31.7938 H   0  0  0  0  0  0  0  0  0  0  0  0
   38.8900   24.0072   30.9691 H   0  0  0  0  0  0  0  0  0  0  0  0
   37.9939   22.7179   33.4859 H   0  0  0  0  0  0  0  0  0  0  0  0
   39.2987   22.2483   32.3278 H   0  0  0  0  0  0  0  0  0  0  0  0
   38.6293   23.7674   38.2636 H   0  0  0  0  0  0  0  0  0  0  0  0
   41.4206   25.8180   34.5400 H   0  0  0  0  0  0  0  0  0  0  0  0
   44.1813   23.2715   33.2997 H   0  0  0  0  0  0  0  0  0  0  0  0
   42.6411   23.7053   32.5107 H   0  0  0  0  0  0  0  0  0  0  0  0
   37.9853   24.8097   34.6513 H   0  0  0  0  0  0  0  0  0  0  0  0
   37.0609   24.3284   36.1372 H   0  0  0  0  0  0  0  0  0  0  0  0
   38.0641   25.7381   37.3617 H   0  0  0  0  0  0  0  0  0  0  0  0
   37.1659   27.1754   34.6681 H   0  0  0  0  0  0  0  0  0  0  0  0
   37.1808   28.1898   35.8626 H   0  0  0  0  0  0  0  0  0  0  0  0
   39.6711   26.6559   34.6146 H   0  0  0  0  0  0  0  0  0  0  0  0
   40.1213   27.5701   35.7852 H   0  0  0  0  0  0  0  0  0  0  0  0
  1  9  1  0
  2  1  1  0
  2 13  1  0
  3  4  1  0
  3  2  1  0
  5  4  1  0
  5  6  1  0
  6  1  1  0
  7 12  2  0
  8  7  1  0
  9 10  1  0
  9  8  2  0
 10 11  2  0
 11 17  1  0
 11 12  1  0
 13 14  1  0
 14 16  2  0
 15 14  1  0
 17 19  1  0
 18 17  1  0
 20 17  1  0
 21  8  1  0
 21 22  1  0
 23 22  1  0
 24 23  1  0
 24 22  1  0
  2 25  1  6
  3 26  1  0
  3 27  1  0
  5 28  1  0
  5 29  1  0
  6 30  1  0
  6 31  1  0
  7 32  1  0
 13 33  1  0
 15 34  1  0
 15 35  1  0
 21 36  1  0
 21 37  1  0
 22 38  1  0
 23 39  1  0
 23 40  1  0
 24 41  1  0
 24 42  1  0
M  ISO  8  25  13  26  13  27  13  28  13  29  13  30  13  31  13  32  14
M  ISO  7  36   8  37   8  38  13  39  13  40  13  41  13  42  13
M  END
>  <minimizedAffinity>  (1) 
-4.88697529

>  <minimizedRMSD>  (1) 
1.2263298

$$$$
