
     RDKit          3D

 49 51  0  0  1  0  0  0  0  0999 V2000
   38.6900   24.8960   32.6410 N   0  0  0  0  0  0  0  0  0  0  0  0
   39.9800   25.3110   32.0730 C   0  0  1  0  0  0  0  0  0  0  0  0
   40.8350   24.1170   31.8700 C   0  0  0  0  0  0  0  0  0  0  0  0
   40.2370   22.9740   32.3350 O   0  0  0  0  0  0  0  0  0  0  0  0
   40.0370   23.1890   33.6980 C   0  0  0  0  0  0  0  0  0  0  0  0
   38.8920   24.1590   33.8490 C   0  0  0  0  0  0  0  0  0  0  0  0
   35.3700   24.8270   30.9470 C   0  0  0  0  0  0  0  0  0  0  0  0
   36.6020   24.3520   31.4410 C   0  0  0  0  0  0  0  0  0  0  0  0
   37.4600   25.1980   32.0830 C   0  0  0  0  0  0  0  0  0  0  0  0
   37.0560   26.4810   32.2050 N   0  0  0  0  0  0  0  0  0  0  0  0
   35.9200   26.9710   31.7630 C   0  0  0  0  0  0  0  0  0  0  0  0
   35.0510   26.1230   31.1150 N   0  0  0  0  0  0  0  0  0  0  0  0
   39.7150   25.9860   30.8510 N   0  0  0  0  0  0  0  0  0  0  0  0
   40.0440   27.2960   30.5660 C   0  0  0  0  0  0  0  0  0  0  0  0
   40.9760   27.5800   31.3470 N   0  0  0  0  0  0  0  0  0  0  0  0
   39.8150   28.2920   29.8810 O   0  0  0  0  0  0  0  0  0  0  0  0
   35.6150   28.4300   31.9840 C   0  0  0  0  0  0  0  0  0  0  0  0
   35.7950   29.1520   30.8510 F   0  0  0  0  0  0  0  0  0  0  0  0
   34.2810   28.4390   32.4000 F   0  0  0  0  0  0  0  0  0  0  0  0
   36.3640   28.9610   32.9990 F   0  0  0  0  0  0  0  0  0  0  0  0
   37.0170   22.9360   31.2980 C   0  0  0  0  0  0  0  0  0  0  0  0
   36.2400   22.0460   32.1350 N   0  0  0  0  0  0  0  0  0  0  0  0
   37.0570   21.0850   32.8330 C   0  0  0  0  0  0  0  0  0  0  0  0
   37.1390   19.7420   32.1560 C   0  0  0  0  0  0  0  0  0  0  0  0
   35.8460   19.0980   32.0550 N   0  0  0  0  0  0  0  0  0  0  0  0
   34.7950   20.0960   32.0840 C   0  0  0  0  0  0  0  0  0  0  0  0
   35.2720   21.2970   31.3320 C   0  0  0  0  0  0  0  0  0  0  0  0
   40.5203   25.9899   32.7492 H   0  0  0  0  0  0  0  0  0  0  0  0
   41.0347   24.0014   30.7945 H   0  0  0  0  0  0  0  0  0  0  0  0
   41.7680   24.2665   32.4331 H   0  0  0  0  0  0  0  0  0  0  0  0
   39.7903   22.2389   34.1944 H   0  0  0  0  0  0  0  0  0  0  0  0
   40.9484   23.5957   34.1605 H   0  0  0  0  0  0  0  0  0  0  0  0
   39.1183   24.8601   34.6659 H   0  0  0  0  0  0  0  0  0  0  0  0
   37.9765   23.5923   34.0742 H   0  0  0  0  0  0  0  0  0  0  0  0
   34.6778   24.1459   30.4303 H   0  0  0  0  0  0  0  0  0  0  0  0
   39.2353   25.4509   30.1131 H   0  0  0  0  0  0  0  0  0  0  0  0
   41.3982   28.5193   31.3251 H   0  0  0  0  0  0  0  0  0  0  0  0
   41.3226   26.8750   32.0131 H   0  0  0  0  0  0  0  0  0  0  0  0
   36.8891   22.6347   30.2478 H   0  0  0  0  0  0  0  0  0  0  0  0
   38.0681   22.8610   31.6137 H   0  0  0  0  0  0  0  0  0  0  0  0
   38.0752   21.4928   32.9164 H   0  0  0  0  0  0  0  0  0  0  0  0
   36.5850   20.9187   33.8125 H   0  0  0  0  0  0  0  0  0  0  0  0
   37.5453   19.8805   31.1432 H   0  0  0  0  0  0  0  0  0  0  0  0
   37.7896   19.0972   32.7650 H   0  0  0  0  0  0  0  0  0  0  0  0
   35.7241   18.4504   32.8466 H   0  0  0  0  0  0  0  0  0  0  0  0
   33.8874   19.6952   31.6090 H   0  0  0  0  0  0  0  0  0  0  0  0
   34.5567   20.3675   33.1230 H   0  0  0  0  0  0  0  0  0  0  0  0
   35.7501   20.9730   30.3958 H   0  0  0  0  0  0  0  0  0  0  0  0
   34.4119   21.9459   31.1101 H   0  0  0  0  0  0  0  0  0  0  0  0
  1  6  1  0
  2  1  1  0
  3  2  1  0
  3  4  1  0
  4  5  1  0
  5  6  1  0
  7 12  2  0
  7  8  1  0
  8  9  2  0
  9 10  1  0
  9  1  1  0
 11 17  1  0
 11 10  2  0
 12 11  1  0
 13  2  1  0
 14 13  1  0
 14 15  1  0
 16 14  2  0
 17 19  1  0
 17 20  1  0
 18 17  1  0
 21  8  1  0
 21 22  1  0
 22 23  1  0
 24 23  1  0
 25 26  1  0
 25 24  1  0
 27 26  1  0
 27 22  1  0
  2 28  1  1
  3 29  1  0
  3 30  1  0
  5 31  1  0
  5 32  1  0
  6 33  1  0
  6 34  1  0
  7 35  1  0
 13 36  1  0
 15 37  1  0
 15 38  1  0
 21 39  1  0
 21 40  1  0
 23 41  1  0
 23 42  1  0
 24 43  1  0
 24 44  1  0
 25 45  1  0
 26 46  1  0
 26 47  1  0
 27 48  1  0
 27 49  1  0
M  ISO  8  28  13  29  13  30  13  31  13  32  13  33  13  34  13  35  14
M  ISO  8  39   8  40   8  41  13  42  13  43  13  44  13  45   5  46  13
M  ISO  3  47  13  48  13  49  13
M  END
>  <minimizedAffinity>  (1) 
-4.78914452

>  <minimizedRMSD>  (1) 
7.3018856

$$$$
