
     RDKit          3D

 32 34  0  0  0  0  0  0  0  0999 V2000
   38.1880   24.1150   35.5540 C   0  0  0  0  0  0  0  0  0  0  0  0
   38.2030   24.7430   36.7940 C   0  0  0  0  0  0  0  0  0  0  0  0
   38.2700   26.1410   36.8390 C   0  0  0  0  0  0  0  0  0  0  0  0
   38.3150   26.8220   35.6740 N   0  0  0  0  0  0  0  0  0  0  0  0
   38.2990   26.2040   34.4850 C   0  0  0  0  0  0  0  0  0  0  0  0
   38.2360   24.8860   34.4440 N   0  0  0  0  0  0  0  0  0  0  0  0
   38.3490   26.8330   33.1590 C   0  0  0  0  0  0  0  0  0  0  0  0
   39.4160   26.5460   32.3050 C   0  0  0  0  0  0  0  0  0  0  0  0
   39.5540   27.0820   31.0440 C   0  0  0  0  0  0  0  0  0  0  0  0
   38.6100   27.9530   30.5590 C   0  0  0  0  0  0  0  0  0  0  0  0
   37.5440   28.2630   31.3620 C   0  0  0  0  0  0  0  0  0  0  0  0
   36.5910   29.1280   30.8890 C   0  0  0  0  0  0  0  0  0  0  0  0
   35.4910   29.4810   31.6430 C   0  0  0  0  0  0  0  0  0  0  0  0
   35.4050   28.9050   32.9160 C   0  0  0  0  0  0  0  0  0  0  0  0
   36.3720   28.0490   33.3480 C   0  0  0  0  0  0  0  0  0  0  0  0
   37.4690   27.6920   32.6080 C   0  0  0  0  0  0  0  0  0  0  0  0
   38.1520   23.9780   38.0580 C   0  0  0  0  0  0  0  0  0  0  0  0
   39.3530   23.3690   38.2390 F   0  0  0  0  0  0  0  0  0  0  0  0
   37.1750   23.0450   38.1100 F   0  0  0  0  0  0  0  0  0  0  0  0
   38.0570   24.8660   39.1610 F   0  0  0  0  0  0  0  0  0  0  0  0
   38.1350   22.6680   35.2870 C   0  0  0  0  0  0  0  0  0  0  0  0
   38.1720   22.4070   33.9230 F   0  0  0  0  0  0  0  0  0  0  0  0
   39.1870   22.0090   35.9250 F   0  0  0  0  0  0  0  0  0  0  0  0
   37.0150   22.0590   35.7640 F   0  0  0  0  0  0  0  0  0  0  0  0
   38.2856   26.6725   37.8020 H   0  0  0  0  0  0  0  0  0  0  0  0
   40.1914   25.8513   32.6602 H   0  0  0  0  0  0  0  0  0  0  0  0
   40.4218   26.8119   30.4244 H   0  0  0  0  0  0  0  0  0  0  0  0
   38.7068   28.3897   29.5540 H   0  0  0  0  0  0  0  0  0  0  0  0
   36.7068   29.5521   29.8807 H   0  0  0  0  0  0  0  0  0  0  0  0
   34.7256   30.1751   31.2657 H   0  0  0  0  0  0  0  0  0  0  0  0
   34.5533   29.1447   33.5696 H   0  0  0  0  0  0  0  0  0  0  0  0
   36.2660   27.6170   34.3540 H   0  0  0  0  0  0  0  0  0  0  0  0
  1  2  2  0
  2  3  1  0
  2 17  1  0
  4  3  2  0
  5  4  1  0
  6  5  2  0
  6  1  1  0
  7  5  1  0
  8  7  2  0
  9  8  1  0
 10  9  2  0
 10 11  1  0
 11 16  2  0
 12 11  1  0
 12 13  2  0
 13 14  1  0
 14 15  2  0
 16  7  1  0
 16 15  1  0
 17 19  1  0
 17 18  1  0
 17 20  1  0
 21  1  1  0
 21 24  1  0
 21 23  1  0
 22 21  1  0
  3 25  1  0
  8 26  1  0
  9 27  1  0
 10 28  1  0
 12 29  1  0
 13 30  1  0
 14 31  1  0
 15 32  1  0
M  ISO  8  25  14  26  14  27  14  28  14  29  14  30  14  31  14  32  14
M  END
>  <minimizedAffinity>  (1) 
-6.30091619

>  <minimizedRMSD>  (1) 
2.84879899

$$$$
