
     RDKit          3D

 35 37  0  0  0  0  0  0  0  0999 V2000
   38.1690   26.7660   34.3330 C   0  0  0  0  0  0  0  0  0  0  0  0
   37.0550   27.6880   34.7440 C   0  0  0  0  0  0  0  0  0  0  0  0
   38.6440   27.2050   32.9500 C   0  0  0  0  0  0  0  0  0  0  0  0
   39.3730   27.0700   35.2540 C   0  0  0  0  0  0  0  0  0  0  0  0
   40.6670   26.8400   34.5390 C   0  0  0  0  0  0  0  0  0  0  0  0
   41.4390   25.7560   34.7360 N   0  0  0  0  0  0  0  0  0  0  0  0
   42.4820   25.8690   33.9620 O   0  0  0  0  0  0  0  0  0  0  0  0
   42.4400   26.9640   33.2680 C   0  0  0  0  0  0  0  0  0  0  0  0
   41.3040   27.5810   33.6220 N   0  0  0  0  0  0  0  0  0  0  0  0
   37.8350   25.0340   34.4490 S   0  0  0  0  0  0  0  0  0  0  0  0
   38.0780   23.8740   38.3530 C   0  0  0  0  0  0  0  0  0  0  0  0
   37.6500   24.4770   37.1510 C   0  0  0  0  0  0  0  0  0  0  0  0
   38.3560   24.2850   35.9740 C   0  0  0  0  0  0  0  0  0  0  0  0
   39.4620   23.5000   36.0350 N   0  0  0  0  0  0  0  0  0  0  0  0
   39.8640   22.9300   37.1770 C   0  0  0  0  0  0  0  0  0  0  0  0
   39.1940   23.1040   38.3320 N   0  0  0  0  0  0  0  0  0  0  0  0
   41.0650   22.1020   37.1500 C   0  0  0  0  0  0  0  0  0  0  0  0
   42.1830   22.3020   36.3350 C   0  0  0  0  0  0  0  0  0  0  0  0
   43.0830   21.3280   36.6010 N   0  0  0  0  0  0  0  0  0  0  0  0
   42.5080   20.5610   37.5620 C   0  0  0  0  0  0  0  0  0  0  0  0
   41.2840   21.0130   37.9080 N   0  0  0  0  0  0  0  0  0  0  0  0
   37.0017   27.7321   35.8418 H   0  0  0  0  0  0  0  0  0  0  0  0
   37.2467   28.6952   34.3455 H   0  0  0  0  0  0  0  0  0  0  0  0
   36.1014   27.3114   34.3455 H   0  0  0  0  0  0  0  0  0  0  0  0
   39.4480   27.9480   33.0572 H   0  0  0  0  0  0  0  0  0  0  0  0
   39.0227   26.3320   32.3982 H   0  0  0  0  0  0  0  0  0  0  0  0
   37.8035   27.6512   32.3982 H   0  0  0  0  0  0  0  0  0  0  0  0
   39.3224   28.1202   35.5772 H   0  0  0  0  0  0  0  0  0  0  0  0
   39.3283   26.3967   36.1227 H   0  0  0  0  0  0  0  0  0  0  0  0
   43.1845   27.3146   32.5381 H   0  0  0  0  0  0  0  0  0  0  0  0
   37.5179   24.0255   39.2876 H   0  0  0  0  0  0  0  0  0  0  0  0
   36.7472   25.1055   37.1483 H   0  0  0  0  0  0  0  0  0  0  0  0
   42.3092   23.1129   35.6025 H   0  0  0  0  0  0  0  0  0  0  0  0
   42.9839   19.6746   38.0069 H   0  0  0  0  0  0  0  0  0  0  0  0
   40.6480   20.6069   38.6091 H   0  0  0  0  0  0  0  0  0  0  0  0
  1 10  1  0
  1  2  1  0
  1  4  1  0
  3  1  1  0
  5  6  2  0
  5  4  1  0
  7  6  1  0
  8  9  2  0
  8  7  1  0
  9  5  1  0
 10 13  1  0
 12 11  2  0
 13 14  2  0
 13 12  1  0
 14 15  1  0
 15 16  2  0
 16 11  1  0
 17 15  1  0
 17 21  1  0
 18 19  1  0
 18 17  2  0
 19 20  2  0
 20 21  1  0
  2 22  1  0
  2 23  1  0
  2 24  1  0
  3 25  1  0
  3 26  1  0
  3 27  1  0
  4 28  1  0
  4 29  1  0
  8 30  1  0
 11 31  1  0
 12 32  1  0
 18 33  1  0
 20 34  1  0
 21 35  1  0
M  ISO  8  22   8  23   8  24   8  25   8  26   8  27   8  28   8  29   8
M  ISO  6  30  14  31  14  32  14  33  14  34  14  35   9
M  END
>  <minimizedAffinity>  (1) 
-5.16743994

>  <minimizedRMSD>  (1) 
0.630638421

$$$$
