
     RDKit          3D

 29 30  0  0  0  0  0  0  0  0999 V2000
   38.0720   23.7840   35.7180 C   0  0  0  0  0  0  0  0  0  0  0  0
   38.1430   24.5290   36.9020 C   0  0  0  0  0  0  0  0  0  0  0  0
   38.1170   25.9290   36.8160 C   0  0  0  0  0  0  0  0  0  0  0  0
   38.0270   26.5100   35.5990 N   0  0  0  0  0  0  0  0  0  0  0  0
   37.9590   25.7470   34.4660 C   0  0  0  0  0  0  0  0  0  0  0  0
   37.9820   24.4330   34.5350 N   0  0  0  0  0  0  0  0  0  0  0  0
   37.8650   26.4440   33.2240 N   0  0  0  0  0  0  0  0  0  0  0  0
   37.0570   27.4810   32.9560 C   0  0  0  0  0  0  0  0  0  0  0  0
   37.1180   28.0190   31.6810 C   0  0  0  0  0  0  0  0  0  0  0  0
   36.2260   29.1680   31.3780 C   0  0  0  0  0  0  0  0  0  0  0  0
   37.9730   27.5110   30.7280 C   0  0  0  0  0  0  0  0  0  0  0  0
   38.0150   28.0190   29.5610 O   0  0  0  0  0  0  0  0  0  0  0  0
   38.7620   26.4700   31.0490 N   0  0  0  0  0  0  0  0  0  0  0  0
   38.6990   25.9530   32.2860 C   0  0  0  0  0  0  0  0  0  0  0  0
   39.4990   24.9730   32.4520 O   0  0  0  0  0  0  0  0  0  0  0  0
   38.2440   23.8700   38.2270 C   0  0  0  0  0  0  0  0  0  0  0  0
   39.4980   23.3320   38.3360 F   0  0  0  0  0  0  0  0  0  0  0  0
   37.3150   22.9280   38.4490 F   0  0  0  0  0  0  0  0  0  0  0  0
   38.2400   24.8660   39.2460 F   0  0  0  0  0  0  0  0  0  0  0  0
   38.0920   22.3110   35.5930 C   0  0  0  0  0  0  0  0  0  0  0  0
   38.0820   21.9280   34.2660 F   0  0  0  0  0  0  0  0  0  0  0  0
   39.2020   21.7750   36.2450 F   0  0  0  0  0  0  0  0  0  0  0  0
   37.0230   21.7040   36.1770 F   0  0  0  0  0  0  0  0  0  0  0  0
   38.1691   26.5450   37.7259 H   0  0  0  0  0  0  0  0  0  0  0  0
   36.3745   27.8871   33.7171 H   0  0  0  0  0  0  0  0  0  0  0  0
   35.8762   29.6186   32.3185 H   0  0  0  0  0  0  0  0  0  0  0  0
   36.7802   29.9188   30.7956 H   0  0  0  0  0  0  0  0  0  0  0  0
   35.3613   28.8173   30.7956 H   0  0  0  0  0  0  0  0  0  0  0  0
   39.4084   26.0733   30.3521 H   0  0  0  0  0  0  0  0  0  0  0  0
  1  2  2  0
  2 16  1  0
  3  2  1  0
  4  3  2  0
  5  6  2  0
  5  4  1  0
  6  1  1  0
  7  5  1  0
  8  7  1  0
  9  8  2  0
 10  9  1  0
 11 13  1  0
 11  9  1  0
 12 11  2  0
 13 14  1  0
 14 15  2  0
 14  7  1  0
 16 17  1  0
 16 18  1  0
 16 19  1  0
 20  1  1  0
 20 23  1  0
 20 22  1  0
 21 20  1  0
  3 24  1  0
  8 25  1  0
 10 26  1  0
 10 27  1  0
 10 28  1  0
 13 29  1  0
M  ISO  6  24  14  25  14  26   8  27   8  28   8  29   9
M  END
>  <minimizedAffinity>  (1) 
-6.05435801

>  <minimizedRMSD>  (1) 
2.44086695

$$$$
