
     RDKit          3D

 29 30  0  0  0  0  0  0  0  0999 V2000
   38.0940   23.8460   35.7230 C   0  0  0  0  0  0  0  0  0  0  0  0
   38.1540   24.5290   36.9370 C   0  0  0  0  0  0  0  0  0  0  0  0
   38.0920   25.9390   36.9270 C   0  0  0  0  0  0  0  0  0  0  0  0
   37.9740   26.5730   35.7180 N   0  0  0  0  0  0  0  0  0  0  0  0
   37.9180   25.8700   34.5670 C   0  0  0  0  0  0  0  0  0  0  0  0
   37.9770   24.5480   34.5720 N   0  0  0  0  0  0  0  0  0  0  0  0
   37.5780   28.0120   31.0020 C   0  0  0  0  0  0  0  0  0  0  0  0
   38.4470   26.9220   30.9960 C   0  0  0  0  0  0  0  0  0  0  0  0
   38.5210   26.2440   32.2120 C   0  0  0  0  0  0  0  0  0  0  0  0
   37.7910   26.6300   33.3180 C   0  0  0  0  0  0  0  0  0  0  0  0
   36.9630   27.7120   33.2310 C   0  0  0  0  0  0  0  0  0  0  0  0
   36.8330   28.4360   32.0690 C   0  0  0  0  0  0  0  0  0  0  0  0
   37.4410   28.9080   29.4990 S   0  0  0  0  0  0  0  0  0  0  0  0
   38.3390   28.3320   28.4620 O   0  0  0  0  0  0  0  0  0  0  0  0
   37.6920   30.3730   29.7320 O   0  0  0  0  0  0  0  0  0  0  0  0
   38.2820   23.8300   38.2290 C   0  0  0  0  0  0  0  0  0  0  0  0
   39.5080   23.2620   38.2900 F   0  0  0  0  0  0  0  0  0  0  0  0
   37.3320   22.8860   38.4410 F   0  0  0  0  0  0  0  0  0  0  0  0
   38.2900   24.7730   39.2940 F   0  0  0  0  0  0  0  0  0  0  0  0
   38.1430   22.3880   35.5330 C   0  0  0  0  0  0  0  0  0  0  0  0
   38.1530   22.0640   34.1850 F   0  0  0  0  0  0  0  0  0  0  0  0
   39.2450   21.8300   36.1720 F   0  0  0  0  0  0  0  0  0  0  0  0
   37.0760   21.7260   36.0670 F   0  0  0  0  0  0  0  0  0  0  0  0
   38.1372   26.5132   37.8641 H   0  0  0  0  0  0  0  0  0  0  0  0
   39.0243   26.6228   30.1088 H   0  0  0  0  0  0  0  0  0  0  0  0
   39.1847   25.3705   32.2928 H   0  0  0  0  0  0  0  0  0  0  0  0
   36.3831   28.0134   34.1158 H   0  0  0  0  0  0  0  0  0  0  0  0
   36.1665   29.3084   32.0008 H   0  0  0  0  0  0  0  0  0  0  0  0
   36.1608   28.7932   29.0249 H   0  0  0  0  0  0  0  0  0  0  0  0
  1  2  2  0
  2 16  1  0
  3  2  1  0
  4  3  2  0
  5  6  2  0
  5  4  1  0
  6  1  1  0
  7 12  2  0
  8  7  1  0
  8  9  2  0
  9 10  1  0
 10  5  1  0
 11 10  2  0
 12 11  1  0
 13 15  2  0
 13  7  1  0
 14 13  2  0
 16 17  1  0
 16 18  1  0
 16 19  1  0
 20  1  1  0
 20 23  1  0
 20 22  1  0
 21 20  1  0
  3 24  1  0
  8 25  1  0
  9 26  1  0
 11 27  1  0
 12 28  1  0
 13 29  1  0
M  ISO  6  24  14  25  14  26  14  27  14  28  14  29  11
M  END
>  <minimizedAffinity>  (1) 
-5.66871786

>  <minimizedRMSD>  (1) 
2.64894199

$$$$
