
     RDKit          3D

 32 33  0  0  0  0  0  0  0  0999 V2000
   39.4150   23.6510   36.1800 C   0  0  0  0  0  0  0  0  0  0  0  0
   38.4880   24.2340   37.0570 C   0  0  0  0  0  0  0  0  0  0  0  0
   37.6320   25.2340   36.5640 C   0  0  0  0  0  0  0  0  0  0  0  0
   37.7390   25.5960   35.2500 N   0  0  0  0  0  0  0  0  0  0  0  0
   38.6460   25.0070   34.4440 C   0  0  0  0  0  0  0  0  0  0  0  0
   39.4590   24.0630   34.8970 N   0  0  0  0  0  0  0  0  0  0  0  0
   38.6430   25.5090   33.0330 C   0  0  0  0  0  0  0  0  0  0  0  0
   37.4240   24.9790   32.3620 C   0  0  0  0  0  0  0  0  0  0  0  0
   37.1180   25.5870   31.0310 C   0  0  0  0  0  0  0  0  0  0  0  0
   37.5800   26.9910   30.8560 C   0  0  0  0  0  0  0  0  0  0  0  0
   37.8120   27.7250   32.1500 C   0  0  0  0  0  0  0  0  0  0  0  0
   38.8100   26.9970   32.9880 C   0  0  0  0  0  0  0  0  0  0  0  0
   38.3870   23.8310   38.4700 C   0  0  0  0  0  0  0  0  0  0  0  0
   39.6490   23.7290   38.9850 F   0  0  0  0  0  0  0  0  0  0  0  0
   37.7340   22.6600   38.6670 F   0  0  0  0  0  0  0  0  0  0  0  0
   37.7980   24.8750   39.2330 F   0  0  0  0  0  0  0  0  0  0  0  0
   40.3930   22.5960   36.5010 C   0  0  0  0  0  0  0  0  0  0  0  0
   40.9140   22.0360   35.3470 F   0  0  0  0  0  0  0  0  0  0  0  0
   41.3990   23.0790   37.3330 F   0  0  0  0  0  0  0  0  0  0  0  0
   39.8600   21.5560   37.2080 F   0  0  0  0  0  0  0  0  0  0  0  0
   36.8923   25.7148   37.2210 H   0  0  0  0  0  0  0  0  0  0  0  0
   39.5094   25.1377   32.4660 H   0  0  0  0  0  0  0  0  0  0  0  0
   37.5567   23.8963   32.2197 H   0  0  0  0  0  0  0  0  0  0  0  0
   36.5781   25.2341   33.0172 H   0  0  0  0  0  0  0  0  0  0  0  0
   37.5988   24.9712   30.2566 H   0  0  0  0  0  0  0  0  0  0  0  0
   36.0212   25.6137   30.9518 H   0  0  0  0  0  0  0  0  0  0  0  0
   38.5245   26.9767   30.2923 H   0  0  0  0  0  0  0  0  0  0  0  0
   36.7784   27.5261   30.3258 H   0  0  0  0  0  0  0  0  0  0  0  0
   38.1896   28.7348   31.9315 H   0  0  0  0  0  0  0  0  0  0  0  0
   36.8616   27.7884   32.7003 H   0  0  0  0  0  0  0  0  0  0  0  0
   39.8119   27.2148   32.5896 H   0  0  0  0  0  0  0  0  0  0  0  0
   38.6592   27.3517   34.0183 H   0  0  0  0  0  0  0  0  0  0  0  0
  1 17  1  0
  1  2  2  0
  2 13  1  0
  3  2  1  0
  4  3  2  0
  5  6  2  0
  5  4  1  0
  6  1  1  0
  7  5  1  0
  8  7  1  0
  9  8  1  0
 10  9  1  0
 10 11  1  0
 11 12  1  0
 12  7  1  0
 13 15  1  0
 13 14  1  0
 13 16  1  0
 17 20  1  0
 17 19  1  0
 18 17  1  0
  3 21  1  0
  7 22  1  0
  8 23  1  0
  8 24  1  0
  9 25  1  0
  9 26  1  0
 10 27  1  0
 10 28  1  0
 11 29  1  0
 11 30  1  0
 12 31  1  0
 12 32  1  0
M  ISO  8  21  14  22  13  23  13  24  13  25  13  26  13  27  13  28  13
M  ISO  4  29  13  30  13  31  13  32  13
M  END
>  <minimizedAffinity>  (1) 
-4.96232843

>  <minimizedRMSD>  (1) 
1.02975178

$$$$
