
     RDKit          3D

 26 27  0  0  0  0  0  0  0  0999 V2000
   38.0870   23.9940   35.6010 C   0  0  0  0  0  0  0  0  0  0  0  0
   38.1540   24.6540   36.8360 C   0  0  0  0  0  0  0  0  0  0  0  0
   38.1500   26.0690   36.8340 C   0  0  0  0  0  0  0  0  0  0  0  0
   38.0820   26.7190   35.6440 N   0  0  0  0  0  0  0  0  0  0  0  0
   38.0200   26.0370   34.4790 C   0  0  0  0  0  0  0  0  0  0  0  0
   38.0220   24.7170   34.4670 N   0  0  0  0  0  0  0  0  0  0  0  0
   37.9490   26.8250   33.2470 C   0  0  0  0  0  0  0  0  0  0  0  0
   36.8860   27.6770   33.0210 C   0  0  0  0  0  0  0  0  0  0  0  0
   36.8690   28.3970   31.8470 C   0  0  0  0  0  0  0  0  0  0  0  0
   37.8690   28.2900   30.9040 C   0  0  0  0  0  0  0  0  0  0  0  0
   38.9490   27.4330   31.1180 C   0  0  0  0  0  0  0  0  0  0  0  0
   38.9650   26.7060   32.3110 C   0  0  0  0  0  0  0  0  0  0  0  0
   38.2270   23.9290   38.1190 C   0  0  0  0  0  0  0  0  0  0  0  0
   39.4490   23.3440   38.2140 F   0  0  0  0  0  0  0  0  0  0  0  0
   37.2570   22.9840   38.2690 F   0  0  0  0  0  0  0  0  0  0  0  0
   38.2120   24.8500   39.1980 F   0  0  0  0  0  0  0  0  0  0  0  0
   38.0780   22.5330   35.3900 C   0  0  0  0  0  0  0  0  0  0  0  0
   38.0550   22.2300   34.0370 F   0  0  0  0  0  0  0  0  0  0  0  0
   39.1710   21.9300   36.0050 F   0  0  0  0  0  0  0  0  0  0  0  0
   36.9870   21.9120   35.9260 F   0  0  0  0  0  0  0  0  0  0  0  0
   38.2010   26.6313   37.7780 H   0  0  0  0  0  0  0  0  0  0  0  0
   36.0756   27.7778   33.7579 H   0  0  0  0  0  0  0  0  0  0  0  0
   36.0289   29.0807   31.6552 H   0  0  0  0  0  0  0  0  0  0  0  0
   37.8152   28.8828   29.9790 H   0  0  0  0  0  0  0  0  0  0  0  0
   39.7558   27.3337   30.3769 H   0  0  0  0  0  0  0  0  0  0  0  0
   39.8035   26.0231   32.5125 H   0  0  0  0  0  0  0  0  0  0  0  0
  1  2  2  0
  2 13  1  0
  3  2  1  0
  4  3  2  0
  5  4  1  0
  6  5  2  0
  6  1  1  0
  7  5  1  0
  8  7  2  0
  9  8  1  0
 10 11  1  0
 10  9  2  0
 11 12  2  0
 12  7  1  0
 13 14  1  0
 13 15  1  0
 13 16  1  0
 17  1  1  0
 17 20  1  0
 17 19  1  0
 18 17  1  0
  3 21  1  0
  8 22  1  0
  9 23  1  0
 10 24  1  0
 11 25  1  0
 12 26  1  0
M  ISO  6  21  14  22  14  23  14  24  14  25  14  26  14
M  END
>  <minimizedAffinity>  (1) 
-5.43313074

>  <minimizedRMSD>  (1) 
2.52959275

$$$$
