
     RDKit          3D

 28 29  0  0  0  0  0  0  0  0999 V2000
   39.6310   23.4300   36.3250 C   0  0  0  0  0  0  0  0  0  0  0  0
   38.6100   24.0390   37.0720 C   0  0  0  0  0  0  0  0  0  0  0  0
   37.7170   24.8920   36.4170 C   0  0  0  0  0  0  0  0  0  0  0  0
   37.8670   25.1020   35.0790 N   0  0  0  0  0  0  0  0  0  0  0  0
   38.8630   24.4960   34.3970 C   0  0  0  0  0  0  0  0  0  0  0  0
   39.7170   23.6840   35.0090 N   0  0  0  0  0  0  0  0  0  0  0  0
   38.9640   24.7610   32.9910 N   0  0  0  0  0  0  0  0  0  0  0  0
   39.4520   25.9540   32.3660 C   0  0  0  0  0  0  0  0  0  0  0  0
   38.6120   26.1780   31.1290 C   0  0  0  0  0  0  0  0  0  0  0  0
   37.9810   24.8320   30.8680 C   0  0  0  0  0  0  0  0  0  0  0  0
   38.6010   23.9050   31.8890 C   0  0  0  0  0  0  0  0  0  0  0  0
   38.4610   23.8010   38.5220 C   0  0  0  0  0  0  0  0  0  0  0  0
   39.6880   23.8510   39.1070 F   0  0  0  0  0  0  0  0  0  0  0  0
   37.8770   22.6180   38.8340 F   0  0  0  0  0  0  0  0  0  0  0  0
   37.7600   24.8840   39.1240 F   0  0  0  0  0  0  0  0  0  0  0  0
   40.6640   22.5050   36.8320 C   0  0  0  0  0  0  0  0  0  0  0  0
   41.0620   21.6260   35.8240 F   0  0  0  0  0  0  0  0  0  0  0  0
   41.7500   23.2010   37.3490 F   0  0  0  0  0  0  0  0  0  0  0  0
   40.2330   21.7130   37.8540 F   0  0  0  0  0  0  0  0  0  0  0  0
   36.9062   25.3858   36.9727 H   0  0  0  0  0  0  0  0  0  0  0  0
   39.3510   26.8084   33.0514 H   0  0  0  0  0  0  0  0  0  0  0  0
   40.5163   25.8548   32.1061 H   0  0  0  0  0  0  0  0  0  0  0  0
   37.8420   26.9419   31.3122 H   0  0  0  0  0  0  0  0  0  0  0  0
   39.2033   26.5412   30.2755 H   0  0  0  0  0  0  0  0  0  0  0  0
   36.8906   24.8832   31.0040 H   0  0  0  0  0  0  0  0  0  0  0  0
   38.1539   24.4872   29.8378 H   0  0  0  0  0  0  0  0  0  0  0  0
   37.8757   23.1438   32.2122 H   0  0  0  0  0  0  0  0  0  0  0  0
   39.4664   23.3602   31.4838 H   0  0  0  0  0  0  0  0  0  0  0  0
  1 16  1  0
  1  2  2  0
  2 12  1  0
  3  2  1  0
  4  3  2  0
  5  6  2  0
  5  4  1  0
  6  1  1  0
  7  5  1  0
  8  7  1  0
  9  8  1  0
 10  9  1  0
 10 11  1  0
 11  7  1  0
 12 14  1  0
 12 13  1  0
 12 15  1  0
 16 18  1  0
 16 19  1  0
 17 16  1  0
  3 20  1  0
  8 21  1  0
  8 22  1  0
  9 23  1  0
  9 24  1  0
 10 25  1  0
 10 26  1  0
 11 27  1  0
 11 28  1  0
M  ISO  8  20  14  21  13  22  13  23  13  24  13  25  13  26  13  27  13
M  ISO  1  28  13
M  END
>  <minimizedAffinity>  (1) 
-4.88733912

>  <minimizedRMSD>  (1) 
0.087032482

$$$$
