
     RDKit          3D

 23 24  0  0  0  0  0  0  0  0999 V2000
   39.6050   23.4420   36.3170 C   0  0  0  0  0  0  0  0  0  0  0  0
   38.5970   24.0510   37.0760 C   0  0  0  0  0  0  0  0  0  0  0  0
   37.7030   24.9170   36.4370 C   0  0  0  0  0  0  0  0  0  0  0  0
   37.8440   25.1370   35.1000 N   0  0  0  0  0  0  0  0  0  0  0  0
   38.8370   24.5250   34.4000 C   0  0  0  0  0  0  0  0  0  0  0  0
   39.6830   23.7100   34.9940 N   0  0  0  0  0  0  0  0  0  0  0  0
   38.9040   24.8200   32.9960 N   0  0  0  0  0  0  0  0  0  0  0  0
   39.9750   24.8190   32.2540 N   0  0  0  0  0  0  0  0  0  0  0  0
   39.7280   25.1330   30.9840 C   0  0  0  0  0  0  0  0  0  0  0  0
   38.3610   25.3480   30.9580 C   0  0  0  0  0  0  0  0  0  0  0  0
   37.8250   25.1520   32.2340 C   0  0  0  0  0  0  0  0  0  0  0  0
   38.4570   23.8040   38.5190 C   0  0  0  0  0  0  0  0  0  0  0  0
   39.6900   23.8480   39.0990 F   0  0  0  0  0  0  0  0  0  0  0  0
   37.8610   22.6180   38.8230 F   0  0  0  0  0  0  0  0  0  0  0  0
   37.7590   24.8830   39.1280 F   0  0  0  0  0  0  0  0  0  0  0  0
   40.6370   22.5060   36.8030 C   0  0  0  0  0  0  0  0  0  0  0  0
   41.0440   21.6510   35.7940 F   0  0  0  0  0  0  0  0  0  0  0  0
   41.7300   23.1950   37.3210 F   0  0  0  0  0  0  0  0  0  0  0  0
   40.2150   21.7170   37.8310 F   0  0  0  0  0  0  0  0  0  0  0  0
   36.9005   25.4114   37.0041 H   0  0  0  0  0  0  0  0  0  0  0  0
   40.4427   25.2047   30.1509 H   0  0  0  0  0  0  0  0  0  0  0  0
   37.7826   25.6309   30.0662 H   0  0  0  0  0  0  0  0  0  0  0  0
   36.7753   25.2444   32.5495 H   0  0  0  0  0  0  0  0  0  0  0  0
  1 16  1  0
  1  2  2  0
  2 12  1  0
  3  2  1  0
  4  3  2  0
  5  6  2  0
  5  4  1  0
  6  1  1  0
  7  5  1  0
  8  7  1  0
  9  8  2  0
 10  9  1  0
 10 11  2  0
 11  7  1  0
 12 14  1  0
 12 13  1  0
 12 15  1  0
 16 18  1  0
 16 19  1  0
 17 16  1  0
  3 20  1  0
  9 21  1  0
 10 22  1  0
 11 23  1  0
M  ISO  4  20  14  21  14  22  14  23  14
M  END
>  <minimizedAffinity>  (1) 
-4.82489109

>  <minimizedRMSD>  (1) 
0.129562199

$$$$
