
     RDKit          3D

 22 23  0  0  0  0  0  0  0  0999 V2000
   39.6310   23.3810   36.3480 C   0  0  0  0  0  0  0  0  0  0  0  0
   38.6170   24.0050   37.0970 C   0  0  0  0  0  0  0  0  0  0  0  0
   37.7170   24.8540   36.4270 C   0  0  0  0  0  0  0  0  0  0  0  0
   37.8680   25.0300   35.0830 N   0  0  0  0  0  0  0  0  0  0  0  0
   38.8530   24.4120   34.4060 C   0  0  0  0  0  0  0  0  0  0  0  0
   39.7070   23.6140   35.0170 N   0  0  0  0  0  0  0  0  0  0  0  0
   38.9050   24.6870   32.9650 C   0  0  0  0  0  0  0  0  0  0  0  0
   40.1230   24.8660   32.3250 C   0  0  0  0  0  0  0  0  0  0  0  0
   39.5730   25.1740   30.5540 S   0  0  0  0  0  0  0  0  0  0  0  0
   37.7510   24.9860   31.0840 C   0  0  0  0  0  0  0  0  0  0  0  0
   37.8240   24.7790   32.2060 N   0  0  0  0  0  0  0  0  0  0  0  0
   38.4750   23.7930   38.5540 C   0  0  0  0  0  0  0  0  0  0  0  0
   39.7000   23.8630   39.1160 F   0  0  0  0  0  0  0  0  0  0  0  0
   37.8910   22.6040   38.8750 F   0  0  0  0  0  0  0  0  0  0  0  0
   37.7780   24.8840   39.1220 F   0  0  0  0  0  0  0  0  0  0  0  0
   40.6710   22.4690   36.8640 C   0  0  0  0  0  0  0  0  0  0  0  0
   41.0790   21.5840   35.8850 F   0  0  0  0  0  0  0  0  0  0  0  0
   41.7570   23.1920   37.3550 F   0  0  0  0  0  0  0  0  0  0  0  0
   40.2590   21.7150   37.9220 F   0  0  0  0  0  0  0  0  0  0  0  0
   36.9105   25.3638   36.9744 H   0  0  0  0  0  0  0  0  0  0  0  0
   41.1401   24.8357   32.7429 H   0  0  0  0  0  0  0  0  0  0  0  0
   36.8476   25.0591   30.4606 H   0  0  0  0  0  0  0  0  0  0  0  0
  1 16  1  0
  1  2  2  0
  2 12  1  0
  3  2  1  0
  4  3  2  0
  5  6  2  0
  5  4  1  0
  6  1  1  0
  7  5  1  0
  8  7  2  0
  9 10  1  0
  9  8  1  0
 10 11  2  0
 11  7  1  0
 12 14  1  0
 12 13  1  0
 12 15  1  0
 16 18  1  0
 16 19  1  0
 17 16  1  0
  3 20  1  0
  8 21  1  0
 10 22  1  0
M  ISO  3  20  14  21  14  22  14
M  END
>  <minimizedAffinity>  (1) 
-4.59875727

>  <minimizedRMSD>  (1) 
0.0663818344

$$$$
