
     RDKit          3D

 23 24  0  0  0  0  0  0  0  0999 V2000
   39.4400   23.8530   36.1070 C   0  0  0  0  0  0  0  0  0  0  0  0
   38.5040   24.4100   36.9770 C   0  0  0  0  0  0  0  0  0  0  0  0
   37.7930   25.5500   36.5500 C   0  0  0  0  0  0  0  0  0  0  0  0
   38.0460   26.0570   35.3180 N   0  0  0  0  0  0  0  0  0  0  0  0
   38.9600   25.4860   34.5070 C   0  0  0  0  0  0  0  0  0  0  0  0
   39.6360   24.4150   34.8920 N   0  0  0  0  0  0  0  0  0  0  0  0
   39.1690   26.1000   33.1920 C   0  0  0  0  0  0  0  0  0  0  0  0
   40.1080   27.0500   32.8050 C   0  0  0  0  0  0  0  0  0  0  0  0
   39.8390   27.2460   31.4830 C   0  0  0  0  0  0  0  0  0  0  0  0
   38.7820   26.4410   31.1140 C   0  0  0  0  0  0  0  0  0  0  0  0
   38.3870   25.7450   32.1790 O   0  0  0  0  0  0  0  0  0  0  0  0
   38.2410   23.8460   38.3160 C   0  0  0  0  0  0  0  0  0  0  0  0
   39.4320   23.6190   38.9250 F   0  0  0  0  0  0  0  0  0  0  0  0
   37.5140   22.7050   38.3050 F   0  0  0  0  0  0  0  0  0  0  0  0
   37.6310   24.8320   39.1420 F   0  0  0  0  0  0  0  0  0  0  0  0
   40.2850   22.6690   36.3590 C   0  0  0  0  0  0  0  0  0  0  0  0
   40.9310   22.2630   35.2090 F   0  0  0  0  0  0  0  0  0  0  0  0
   41.2040   22.9220   37.3770 F   0  0  0  0  0  0  0  0  0  0  0  0
   39.5860   21.5870   36.8050 F   0  0  0  0  0  0  0  0  0  0  0  0
   37.0453   26.0205   37.2054 H   0  0  0  0  0  0  0  0  0  0  0  0
   40.8839   27.5296   33.4198 H   0  0  0  0  0  0  0  0  0  0  0  0
   40.3786   27.9357   30.8174 H   0  0  0  0  0  0  0  0  0  0  0  0
   38.3392   26.3832   30.1087 H   0  0  0  0  0  0  0  0  0  0  0  0
  1 16  1  0
  1  2  2  0
  2 12  1  0
  3  2  1  0
  4  3  2  0
  5  6  2  0
  5  4  1  0
  6  1  1  0
  7  5  1  0
  8  7  2  0
  9  8  1  0
 10  9  2  0
 10 11  1  0
 11  7  1  0
 12 13  1  0
 12 15  1  0
 14 12  1  0
 16 19  1  0
 16 18  1  0
 17 16  1  0
  3 20  1  0
  8 21  1  0
  9 22  1  0
 10 23  1  0
M  ISO  4  20  14  21  14  22  14  23  14
M  END
>  <minimizedAffinity>  (1) 
-4.6249094

>  <minimizedRMSD>  (1) 
1.10945916

$$$$
