
     RDKit          3D

 17 17  0  0  0  0  0  0  0  0999 V2000
   39.6490   23.4020   36.3700 C   0  0  0  0  0  0  0  0  0  0  0  0
   38.6200   24.0180   37.0960 C   0  0  0  0  0  0  0  0  0  0  0  0
   37.7390   24.8640   36.4130 C   0  0  0  0  0  0  0  0  0  0  0  0
   37.9080   25.0580   35.0790 N   0  0  0  0  0  0  0  0  0  0  0  0
   38.9090   24.4470   34.4160 C   0  0  0  0  0  0  0  0  0  0  0  0
   39.7590   23.6390   35.0400 N   0  0  0  0  0  0  0  0  0  0  0  0
   38.4430   23.8020   38.5470 C   0  0  0  0  0  0  0  0  0  0  0  0
   39.6660   23.8650   39.1460 F   0  0  0  0  0  0  0  0  0  0  0  0
   37.8680   22.6190   38.8630 F   0  0  0  0  0  0  0  0  0  0  0  0
   37.7360   24.8770   39.1200 F   0  0  0  0  0  0  0  0  0  0  0  0
   40.6680   22.4880   36.8910 C   0  0  0  0  0  0  0  0  0  0  0  0
   41.0870   21.5900   35.9210 F   0  0  0  0  0  0  0  0  0  0  0  0
   41.7590   23.1820   37.4080 F   0  0  0  0  0  0  0  0  0  0  0  0
   40.2450   21.7210   37.9360 F   0  0  0  0  0  0  0  0  0  0  0  0
   39.0350   24.7780   32.6540 S   0  0  0  0  0  0  0  0  0  0  0  0
   36.9200   25.3656   36.9494 H   0  0  0  0  0  0  0  0  0  0  0  0
   39.5175   26.0456   32.4608 H   0  0  0  0  0  0  0  0  0  0  0  0
  1 11  1  0
  1  2  2  0
  2  7  1  0
  3  2  1  0
  4  3  2  0
  5  6  2  0
  5  4  1  0
  6  1  1  0
  7  9  1  0
  7 10  1  0
  7  8  1  0
 11 13  1  0
 11 14  1  0
 12 11  1  0
 15  5  1  0
  3 16  1  0
 15 17  1  0
M  ISO  2  16  14  17  11
M  END
>  <minimizedAffinity>  (1) 
-4.27617359

>  <minimizedRMSD>  (1) 
0.0128459027

$$$$
