
     RDKit          3D

 17 17  0  0  0  0  0  0  0  0999 V2000
   39.6420   23.4020   36.3680 C   0  0  0  0  0  0  0  0  0  0  0  0
   38.6210   24.0140   37.0960 C   0  0  0  0  0  0  0  0  0  0  0  0
   37.7350   24.8600   36.4160 C   0  0  0  0  0  0  0  0  0  0  0  0
   37.8970   25.0560   35.0820 N   0  0  0  0  0  0  0  0  0  0  0  0
   38.9040   24.4400   34.4140 C   0  0  0  0  0  0  0  0  0  0  0  0
   39.7470   23.6400   35.0400 N   0  0  0  0  0  0  0  0  0  0  0  0
   38.4510   23.7980   38.5430 C   0  0  0  0  0  0  0  0  0  0  0  0
   39.6760   23.8650   39.1410 F   0  0  0  0  0  0  0  0  0  0  0  0
   37.8760   22.6190   38.8640 F   0  0  0  0  0  0  0  0  0  0  0  0
   37.7410   24.8800   39.1220 F   0  0  0  0  0  0  0  0  0  0  0  0
   40.6740   22.4820   36.8900 C   0  0  0  0  0  0  0  0  0  0  0  0
   41.0770   21.5880   35.9200 F   0  0  0  0  0  0  0  0  0  0  0  0
   41.7620   23.1910   37.3970 F   0  0  0  0  0  0  0  0  0  0  0  0
   40.2400   21.7210   37.9350 F   0  0  0  0  0  0  0  0  0  0  0  0
   38.9970   24.6980   33.0430 O   0  0  0  0  0  0  0  0  0  0  0  0
   36.9176   25.3597   36.9565 H   0  0  0  0  0  0  0  0  0  0  0  0
   38.3461   25.3040   32.6081 H   0  0  0  0  0  0  0  0  0  0  0  0
  1 11  1  0
  1  2  2  0
  2  7  1  0
  3  2  1  0
  4  3  2  0
  5  6  2  0
  5  4  1  0
  6  1  1  0
  7  9  1  0
  7 10  1  0
  7  8  1  0
 11 13  1  0
 11 14  1  0
 12 11  1  0
 15  5  1  0
  3 16  1  0
 15 17  1  0
M  ISO  2  16  14  17   3
M  END
>  <minimizedAffinity>  (1) 
-4.25929165

>  <minimizedRMSD>  (1) 
0.014021663

$$$$
