
     RDKit          3D

 38 40  0  0  1  0  0  0  0  0999 V2000
   39.6370   23.3570   36.2090 C   0  0  0  0  0  0  0  0  0  0  0  0
   38.6210   24.0360   36.8850 C   0  0  0  0  0  0  0  0  0  0  0  0
   37.7740   24.8570   36.1360 C   0  0  0  0  0  0  0  0  0  0  0  0
   37.9640   24.9680   34.7950 N   0  0  0  0  0  0  0  0  0  0  0  0
   38.9620   24.2910   34.1870 C   0  0  0  0  0  0  0  0  0  0  0  0
   39.7720   23.5100   34.8750 N   0  0  0  0  0  0  0  0  0  0  0  0
   39.0970   24.4610   32.7630 N   0  0  0  0  0  0  0  0  0  0  0  0
   40.4010   24.3870   32.1970 C   0  0  0  0  0  0  0  0  0  0  0  0
   40.3510   25.1410   30.8880 C   0  0  0  0  0  0  0  0  0  0  0  0
   39.3240   24.6010   29.9370 C   0  0  0  0  0  0  0  0  0  0  0  0
   38.0140   24.2700   30.5510 C   0  0  0  0  0  0  0  0  0  0  0  0
   37.9260   24.6980   31.9690 C   0  0  2  0  0  0  0  0  0  0  0  0
   37.3290   26.0480   32.1640 C   0  0  0  0  0  0  0  0  0  0  0  0
   36.0040   26.4500   31.9490 C   0  0  0  0  0  0  0  0  0  0  0  0
   35.8420   27.7770   32.2420 C   0  0  0  0  0  0  0  0  0  0  0  0
   37.0680   28.1910   32.6370 N   0  0  0  0  0  0  0  0  0  0  0  0
   37.9010   27.1920   32.5860 N   0  0  0  0  0  0  0  0  0  0  0  0
   38.4180   23.9150   38.3330 C   0  0  0  0  0  0  0  0  0  0  0  0
   39.6320   23.8600   38.9400 F   0  0  0  0  0  0  0  0  0  0  0  0
   37.6960   22.8120   38.7000 F   0  0  0  0  0  0  0  0  0  0  0  0
   37.8290   25.0810   38.8470 F   0  0  0  0  0  0  0  0  0  0  0  0
   40.6370   22.4450   36.7960 C   0  0  0  0  0  0  0  0  0  0  0  0
   41.0830   21.5190   35.8800 F   0  0  0  0  0  0  0  0  0  0  0  0
   41.7120   23.1650   37.3370 F   0  0  0  0  0  0  0  0  0  0  0  0
   40.1620   21.7300   37.8630 F   0  0  0  0  0  0  0  0  0  0  0  0
   36.9597   25.4092   36.6280 H   0  0  0  0  0  0  0  0  0  0  0  0
   41.1345   24.8503   32.8733 H   0  0  0  0  0  0  0  0  0  0  0  0
   40.7047   23.3416   32.0395 H   0  0  0  0  0  0  0  0  0  0  0  0
   40.1131   26.1940   31.0993 H   0  0  0  0  0  0  0  0  0  0  0  0
   41.3341   25.0294   30.4073 H   0  0  0  0  0  0  0  0  0  0  0  0
   39.7287   23.6851   29.4816 H   0  0  0  0  0  0  0  0  0  0  0  0
   39.1287   25.4014   29.2081 H   0  0  0  0  0  0  0  0  0  0  0  0
   37.2198   24.7739   29.9806 H   0  0  0  0  0  0  0  0  0  0  0  0
   37.8996   23.1763   30.5246 H   0  0  0  0  0  0  0  0  0  0  0  0
   37.1906   23.9961   32.3892 H   0  0  0  0  0  0  0  0  0  0  0  0
   35.2014   25.7876   31.5924 H   0  0  0  0  0  0  0  0  0  0  0  0
   34.9206   28.3738   32.1720 H   0  0  0  0  0  0  0  0  0  0  0  0
   37.3055   29.1487   32.9324 H   0  0  0  0  0  0  0  0  0  0  0  0
  1 22  1  0
  1  2  2  0
  2 18  1  0
  3  2  1  0
  4  3  2  0
  5  4  1  0
  5  6  2  0
  6  1  1  0
  7  5  1  0
  8  7  1  0
  9  8  1  0
 10 11  1  0
 10  9  1  0
 11 12  1  0
 12 13  1  0
 12  7  1  0
 13 17  2  0
 14 13  1  0
 14 15  2  0
 15 16  1  0
 17 16  1  0
 18 20  1  0
 18 21  1  0
 18 19  1  0
 22 24  1  0
 22 25  1  0
 23 22  1  0
  3 26  1  0
  8 27  1  0
  8 28  1  0
  9 29  1  0
  9 30  1  0
 10 31  1  0
 10 32  1  0
 11 33  1  0
 11 34  1  0
 12 35  1  1
 14 36  1  0
 15 37  1  0
 16 38  1  0
M  ISO  8  26  14  27  13  28  13  29  13  30  13  31  13  32  13  33  13
M  ISO  5  34  13  35  13  36  14  37  14  38   9
M  END
>  <minimizedAffinity>  (1) 
-5.68442202

>  <minimizedRMSD>  (1) 
0.437307686

$$$$
