
     RDKit          3D

 32 33  0  0  1  0  0  0  0  0999 V2000
   38.1960   23.7340   35.5790 C   0  0  0  0  0  0  0  0  0  0  0  0
   38.2280   24.5450   36.7230 C   0  0  0  0  0  0  0  0  0  0  0  0
   38.3230   25.9280   36.5580 C   0  0  0  0  0  0  0  0  0  0  0  0
   38.3820   26.4450   35.3070 N   0  0  0  0  0  0  0  0  0  0  0  0
   38.3490   25.6270   34.2270 C   0  0  0  0  0  0  0  0  0  0  0  0
   38.2590   24.3160   34.3650 N   0  0  0  0  0  0  0  0  0  0  0  0
   38.4170   26.2600   32.9360 N   0  0  0  0  0  0  0  0  0  0  0  0
   39.0080   25.5280   31.8600 C   0  0  0  0  0  0  0  0  0  0  0  0
   39.4780   26.5620   30.8550 C   0  0  0  0  0  0  0  0  0  0  0  0
   38.3660   27.4150   30.3390 C   0  0  0  0  0  0  0  0  0  0  0  0
   37.4030   27.8760   31.3720 C   0  0  0  0  0  0  0  0  0  0  0  0
   37.9050   27.5780   32.7550 C   0  0  1  0  0  0  0  0  0  0  0  0
   38.1630   23.9750   38.0850 C   0  0  0  0  0  0  0  0  0  0  0  0
   39.3790   23.4160   38.3730 F   0  0  0  0  0  0  0  0  0  0  0  0
   37.1890   23.0580   38.2650 F   0  0  0  0  0  0  0  0  0  0  0  0
   38.0750   25.0230   39.0380 F   0  0  0  0  0  0  0  0  0  0  0  0
   38.1000   22.2670   35.5380 C   0  0  0  0  0  0  0  0  0  0  0  0
   38.1120   21.8040   34.2340 F   0  0  0  0  0  0  0  0  0  0  0  0
   39.1170   21.6730   36.2690 F   0  0  0  0  0  0  0  0  0  0  0  0
   36.9640   21.7780   36.1010 F   0  0  0  0  0  0  0  0  0  0  0  0
   36.4780   27.7500   33.8900 S   0  0  0  0  0  0  0  0  0  0  0  0
   38.3497   26.5915   37.4350 H   0  0  0  0  0  0  0  0  0  0  0  0
   39.8599   24.9351   32.2243 H   0  0  0  0  0  0  0  0  0  0  0  0
   38.2901   24.8271   31.4091 H   0  0  0  0  0  0  0  0  0  0  0  0
   40.2224   27.2105   31.3401 H   0  0  0  0  0  0  0  0  0  0  0  0
   39.9051   26.0206   29.9980 H   0  0  0  0  0  0  0  0  0  0  0  0
   38.8083   28.3027   29.8632 H   0  0  0  0  0  0  0  0  0  0  0  0
   37.7934   26.7875   29.6402 H   0  0  0  0  0  0  0  0  0  0  0  0
   37.2589   28.9616   31.2690 H   0  0  0  0  0  0  0  0  0  0  0  0
   36.4525   27.3424   31.2244 H   0  0  0  0  0  0  0  0  0  0  0  0
   38.7352   28.2736   32.9471 H   0  0  0  0  0  0  0  0  0  0  0  0
   36.9169   27.6971   35.1867 H   0  0  0  0  0  0  0  0  0  0  0  0
  1  2  2  0
  2 13  1  0
  3  2  1  0
  4  3  2  0
  5  6  2  0
  5  4  1  0
  6  1  1  0
  7  5  1  0
  8  7  1  0
  9  8  1  0
 10  9  1  0
 10 11  1  0
 11 12  1  0
 12  7  1  0
 12 21  1  0
 13 15  1  0
 13 14  1  0
 13 16  1  0
 17  1  1  0
 17 20  1  0
 17 19  1  0
 18 17  1  0
  3 22  1  0
  8 23  1  0
  8 24  1  0
  9 25  1  0
  9 26  1  0
 10 27  1  0
 10 28  1  0
 11 29  1  0
 11 30  1  0
 12 31  1  1
 21 32  1  0
M  ISO  8  22  14  23  13  24  13  25  13  26  13  27  13  28  13  29  13
M  ISO  3  30  13  31  13  32  11
M  END
>  <minimizedAffinity>  (1) 
-5.59801435

>  <minimizedRMSD>  (1) 
2.21055675

$$$$
