
     RDKit          3D

 38 40  0  0  1  0  0  0  0  0999 V2000
   39.2750   23.8820   36.0190 C   0  0  0  0  0  0  0  0  0  0  0  0
   38.4800   24.5450   36.9580 C   0  0  0  0  0  0  0  0  0  0  0  0
   38.0310   25.8290   36.6380 C   0  0  0  0  0  0  0  0  0  0  0  0
   38.3740   26.3810   35.4480 N   0  0  0  0  0  0  0  0  0  0  0  0
   39.1470   25.6990   34.5670 C   0  0  0  0  0  0  0  0  0  0  0  0
   39.5760   24.4930   34.8530 N   0  0  0  0  0  0  0  0  0  0  0  0
   39.4610   26.3590   33.3330 N   0  0  0  0  0  0  0  0  0  0  0  0
   40.6790   26.0080   32.6680 C   0  0  0  0  0  0  0  0  0  0  0  0
   41.0340   27.2150   31.8040 C   0  0  0  0  0  0  0  0  0  0  0  0
   39.9750   27.5190   30.7910 C   0  0  0  0  0  0  0  0  0  0  0  0
   38.5750   27.3980   31.2860 C   0  0  0  0  0  0  0  0  0  0  0  0
   38.5640   27.3400   32.7970 C   0  0  1  0  0  0  0  0  0  0  0  0
   38.1100   23.9450   38.2470 C   0  0  0  0  0  0  0  0  0  0  0  0
   39.2560   23.5800   38.8950 F   0  0  0  0  0  0  0  0  0  0  0  0
   37.2920   22.8530   38.1340 F   0  0  0  0  0  0  0  0  0  0  0  0
   37.5490   24.9140   39.0950 F   0  0  0  0  0  0  0  0  0  0  0  0
   39.8550   22.5270   36.1470 C   0  0  0  0  0  0  0  0  0  0  0  0
   40.5330   22.1630   34.9960 F   0  0  0  0  0  0  0  0  0  0  0  0
   40.6680   22.4240   37.2640 F   0  0  0  0  0  0  0  0  0  0  0  0
   38.9180   21.5520   36.3450 F   0  0  0  0  0  0  0  0  0  0  0  0
   37.1640   27.2000   33.3440 C   0  0  0  0  0  0  0  0  0  0  0  0
   36.0560   27.6770   32.4650 C   0  0  0  0  0  0  0  0  0  0  0  0
   36.3760   28.4760   33.6790 C   0  0  0  0  0  0  0  0  0  0  0  0
   37.4032   26.3885   37.3471 H   0  0  0  0  0  0  0  0  0  0  0  0
   41.4751   25.8128   33.4016 H   0  0  0  0  0  0  0  0  0  0  0  0
   40.5668   25.0941   32.0662 H   0  0  0  0  0  0  0  0  0  0  0  0
   41.1619   28.0916   32.4561 H   0  0  0  0  0  0  0  0  0  0  0  0
   41.9614   26.9795   31.2613 H   0  0  0  0  0  0  0  0  0  0  0  0
   40.0999   26.8235   29.9480 H   0  0  0  0  0  0  0  0  0  0  0  0
   40.1115   28.5741   30.5116 H   0  0  0  0  0  0  0  0  0  0  0  0
   37.9934   28.2694   30.9506 H   0  0  0  0  0  0  0  0  0  0  0  0
   38.1290   26.4755   30.8859 H   0  0  0  0  0  0  0  0  0  0  0  0
   38.9505   28.3103   33.1423 H   0  0  0  0  0  0  0  0  0  0  0  0
   37.4076   26.2762   33.8891 H   0  0  0  0  0  0  0  0  0  0  0  0
   36.2877   28.0834   31.4694 H   0  0  0  0  0  0  0  0  0  0  0  0
   35.1378   27.2158   32.0723 H   0  0  0  0  0  0  0  0  0  0  0  0
   35.6808   28.4882   34.5314 H   0  0  0  0  0  0  0  0  0  0  0  0
   36.6348   29.5262   33.8795 H   0  0  0  0  0  0  0  0  0  0  0  0
  1 17  1  0
  1  2  2  0
  2 13  1  0
  3  2  1  0
  4  3  2  0
  5  6  2  0
  5  4  1  0
  6  1  1  0
  7  5  1  0
  8  7  1  0
  9  8  1  0
 10 11  1  0
 10  9  1  0
 11 12  1  0
 12  7  1  0
 12 21  1  0
 13 14  1  0
 13 16  1  0
 15 13  1  0
 17 20  1  0
 17 19  1  0
 18 17  1  0
 21 23  1  0
 22 21  1  0
 22 23  1  0
  3 24  1  0
  8 25  1  0
  8 26  1  0
  9 27  1  0
  9 28  1  0
 10 29  1  0
 10 30  1  0
 11 31  1  0
 11 32  1  0
 12 33  1  1
 21 34  1  0
 22 35  1  0
 22 36  1  0
 23 37  1  0
 23 38  1  0
M  ISO  8  24  14  25  13  26  13  27  13  28  13  29  13  30  13  31  13
M  ISO  7  32  13  33  13  34  13  35  13  36  13  37  13  38  13
M  END
>  <minimizedAffinity>  (1) 
-5.57098866

>  <minimizedRMSD>  (1) 
2.14796829

$$$$
