
     RDKit          3D

 33 34  0  0  1  0  0  0  0  0999 V2000
   39.5360   23.9290   36.0990 C   0  0  0  0  0  0  0  0  0  0  0  0
   38.5840   24.5210   36.9420 C   0  0  0  0  0  0  0  0  0  0  0  0
   38.0200   25.7390   36.5510 C   0  0  0  0  0  0  0  0  0  0  0  0
   38.4100   26.3030   35.3760 N   0  0  0  0  0  0  0  0  0  0  0  0
   39.3310   25.6970   34.5940 C   0  0  0  0  0  0  0  0  0  0  0  0
   39.8710   24.5440   34.9560 N   0  0  0  0  0  0  0  0  0  0  0  0
   39.6870   26.3520   33.3700 N   0  0  0  0  0  0  0  0  0  0  0  0
   41.0200   26.2030   32.8780 C   0  0  0  0  0  0  0  0  0  0  0  0
   41.2750   27.4220   32.0040 C   0  0  0  0  0  0  0  0  0  0  0  0
   40.3390   27.5090   30.8510 C   0  0  0  0  0  0  0  0  0  0  0  0
   38.9160   27.2530   31.2000 C   0  0  0  0  0  0  0  0  0  0  0  0
   38.7000   27.1390   32.6720 C   0  0  1  0  0  0  0  0  0  0  0  0
   38.1650   23.9040   38.2150 C   0  0  0  0  0  0  0  0  0  0  0  0
   39.2780   23.5440   38.9080 F   0  0  0  0  0  0  0  0  0  0  0  0
   37.3730   22.7970   38.0580 F   0  0  0  0  0  0  0  0  0  0  0  0
   37.5420   24.8550   39.0370 F   0  0  0  0  0  0  0  0  0  0  0  0
   40.2490   22.6540   36.3260 C   0  0  0  0  0  0  0  0  0  0  0  0
   40.9730   22.2710   35.2270 F   0  0  0  0  0  0  0  0  0  0  0  0
   41.1000   22.7640   37.4380 F   0  0  0  0  0  0  0  0  0  0  0  0
   39.4360   21.6150   36.6580 F   0  0  0  0  0  0  0  0  0  0  0  0
   37.3140   26.6020   32.9210 C   0  0  0  0  0  0  0  0  0  0  0  0
   36.4430   25.8760   32.4900 O   0  0  0  0  0  0  0  0  0  0  0  0
   37.2705   26.2350   37.1853 H   0  0  0  0  0  0  0  0  0  0  0  0
   41.7358   26.1731   33.7127 H   0  0  0  0  0  0  0  0  0  0  0  0
   41.1423   25.2665   32.3142 H   0  0  0  0  0  0  0  0  0  0  0  0
   41.1598   28.3264   32.6195 H   0  0  0  0  0  0  0  0  0  0  0  0
   42.2936   27.3322   31.5984 H   0  0  0  0  0  0  0  0  0  0  0  0
   40.6483   26.7683   30.0989 H   0  0  0  0  0  0  0  0  0  0  0  0
   40.3920   28.5426   30.4783 H   0  0  0  0  0  0  0  0  0  0  0  0
   38.3041   28.0830   30.8170 H   0  0  0  0  0  0  0  0  0  0  0  0
   38.6276   26.2941   30.7447 H   0  0  0  0  0  0  0  0  0  0  0  0
   38.8112   28.1520   33.0860 H   0  0  0  0  0  0  0  0  0  0  0  0
   36.9495   27.0398   33.8620 H   0  0  0  0  0  0  0  0  0  0  0  0
  1 17  1  0
  1  2  2  0
  2 13  1  0
  3  2  1  0
  4  3  2  0
  5  6  2  0
  5  4  1  0
  6  1  1  0
  7  5  1  0
  8  7  1  0
  9  8  1  0
 10 11  1  0
 10  9  1  0
 11 12  1  0
 12 21  1  0
 12  7  1  0
 13 14  1  0
 13 16  1  0
 15 13  1  0
 17 20  1  0
 17 19  1  0
 18 17  1  0
 22 21  2  0
  3 23  1  0
  8 24  1  0
  8 25  1  0
  9 26  1  0
  9 27  1  0
 10 28  1  0
 10 29  1  0
 11 30  1  0
 11 31  1  0
 12 32  1  1
 21 33  1  0
M  ISO  8  23  14  24  13  25  13  26  13  27  13  28  13  29  13  30  13
M  ISO  3  31  13  32  13  33   6
M  END
>  <minimizedAffinity>  (1) 
-5.23867416

>  <minimizedRMSD>  (1) 
1.64104605

$$$$
