
     RDKit          3D

 44 46  0  0  0  0  0  0  0  0999 V2000
   38.3530   26.4790   34.2020 C   0  0  0  0  0  0  0  0  0  0  0  0
   37.0680   26.6460   34.9610 C   0  0  0  0  0  0  0  0  0  0  0  0
   38.3680   27.4680   33.0540 C   0  0  0  0  0  0  0  0  0  0  0  0
   39.4740   26.9790   35.1270 C   0  0  0  0  0  0  0  0  0  0  0  0
   40.8270   26.7360   34.5200 C   0  0  0  0  0  0  0  0  0  0  0  0
   41.6650   25.7520   34.9180 N   0  0  0  0  0  0  0  0  0  0  0  0
   42.7350   25.8290   34.1880 O   0  0  0  0  0  0  0  0  0  0  0  0
   42.6670   26.7940   33.3310 C   0  0  0  0  0  0  0  0  0  0  0  0
   41.4760   27.3710   33.5300 N   0  0  0  0  0  0  0  0  0  0  0  0
   38.7700   24.8230   33.7350 S   0  0  0  0  0  0  0  0  0  0  0  0
   35.6160   23.9870   31.2920 C   0  0  0  0  0  0  0  0  0  0  0  0
   36.5940   24.6670   32.0350 C   0  0  0  0  0  0  0  0  0  0  0  0
   37.5280   23.9780   32.7900 C   0  0  0  0  0  0  0  0  0  0  0  0
   37.4390   22.6300   32.7650 N   0  0  0  0  0  0  0  0  0  0  0  0
   36.5130   21.9800   32.0610 C   0  0  0  0  0  0  0  0  0  0  0  0
   35.6040   22.6180   31.3280 N   0  0  0  0  0  0  0  0  0  0  0  0
   36.4890   20.4880   32.0920 C   0  0  0  0  0  0  0  0  0  0  0  0
   35.6000   19.9370   33.1570 C   0  0  0  0  0  0  0  0  0  0  0  0
   35.1460   18.5600   32.7210 C   0  0  0  0  0  0  0  0  0  0  0  0
   36.2580   17.7980   32.0570 C   0  0  0  0  0  0  0  0  0  0  0  0
   36.6760   18.4470   30.7750 C   0  0  0  0  0  0  0  0  0  0  0  0
   36.1870   19.8990   30.7160 C   0  0  0  0  0  0  0  0  0  0  0  0
   37.2740   26.6192   36.0412 H   0  0  0  0  0  0  0  0  0  0  0  0
   36.6101   27.6112   34.6989 H   0  0  0  0  0  0  0  0  0  0  0  0
   36.3786   25.8299   34.6989 H   0  0  0  0  0  0  0  0  0  0  0  0
   38.3835   28.4929   33.4532 H   0  0  0  0  0  0  0  0  0  0  0  0
   39.2637   27.3009   32.4377 H   0  0  0  0  0  0  0  0  0  0  0  0
   37.4676   27.3281   32.4377 H   0  0  0  0  0  0  0  0  0  0  0  0
   39.3451   28.0582   35.2963 H   0  0  0  0  0  0  0  0  0  0  0  0
   39.4140   26.4279   36.0771 H   0  0  0  0  0  0  0  0  0  0  0  0
   43.4294   27.0813   32.5919 H   0  0  0  0  0  0  0  0  0  0  0  0
   34.8766   24.5408   30.6949 H   0  0  0  0  0  0  0  0  0  0  0  0
   36.6187   25.7666   32.0170 H   0  0  0  0  0  0  0  0  0  0  0  0
   37.5055   20.1679   32.3646 H   0  0  0  0  0  0  0  0  0  0  0  0
   36.1534   19.8649   34.1049 H   0  0  0  0  0  0  0  0  0  0  0  0
   34.7320   20.5954   33.3088 H   0  0  0  0  0  0  0  0  0  0  0  0
   34.8063   17.9993   33.6043 H   0  0  0  0  0  0  0  0  0  0  0  0
   34.3284   18.6800   31.9950 H   0  0  0  0  0  0  0  0  0  0  0  0
   37.1217   17.7603   32.7371 H   0  0  0  0  0  0  0  0  0  0  0  0
   35.8953   16.7847   31.8295 H   0  0  0  0  0  0  0  0  0  0  0  0
   37.7737   18.4328   30.7046 H   0  0  0  0  0  0  0  0  0  0  0  0
   36.2317   17.8906   29.9365 H   0  0  0  0  0  0  0  0  0  0  0  0
   36.7252   20.4543   29.9337 H   0  0  0  0  0  0  0  0  0  0  0  0
   35.1159   19.9591   30.4728 H   0  0  0  0  0  0  0  0  0  0  0  0
  1  2  1  0
  1  4  1  0
  3  1  1  0
  5  6  2  0
  5  4  1  0
  7  6  1  0
  8  9  2  0
  8  7  1  0
  9  5  1  0
 10  1  1  0
 11 16  2  0
 11 12  1  0
 12 13  2  0
 13 10  1  0
 14 13  1  0
 15 17  1  0
 15 14  2  0
 16 15  1  0
 17 18  1  0
 19 18  1  0
 20 19  1  0
 21 20  1  0
 22 21  1  0
 22 17  1  0
  2 23  1  0
  2 24  1  0
  2 25  1  0
  3 26  1  0
  3 27  1  0
  3 28  1  0
  4 29  1  0
  4 30  1  0
  8 31  1  0
 11 32  1  0
 12 33  1  0
 17 34  1  0
 18 35  1  0
 18 36  1  0
 19 37  1  0
 19 38  1  0
 20 39  1  0
 20 40  1  0
 21 41  1  0
 21 42  1  0
 22 43  1  0
 22 44  1  0
M  ISO  8  23   8  24   8  25   8  26   8  27   8  28   8  29   8  30   8
M  ISO  8  31  14  32  14  33  14  34  13  35  13  36  13  37  13  38  13
M  ISO  6  39  13  40  13  41  13  42  13  43  13  44  13
M  END
>  <minimizedAffinity>  (1) 
-5.03581429

>  <minimizedRMSD>  (1) 
5.81979656

$$$$
