
     RDKit          3D

 44 46  0  0  1  0  0  0  0  0999 V2000
   40.0190   23.5550   35.4040 C   0  0  0  0  0  0  0  0  0  0  0  0
   38.7720   24.0860   35.7380 C   0  0  0  0  0  0  0  0  0  0  0  0
   38.1900   25.0290   34.8840 C   0  0  0  0  0  0  0  0  0  0  0  0
   38.8660   25.3920   33.7560 N   0  0  0  0  0  0  0  0  0  0  0  0
   40.0610   24.8590   33.4690 C   0  0  0  0  0  0  0  0  0  0  0  0
   40.6220   23.9640   34.2720 N   0  0  0  0  0  0  0  0  0  0  0  0
   40.6950   25.3040   32.2600 N   0  0  0  0  0  0  0  0  0  0  0  0
   42.1350   25.3490   32.2390 C   0  0  0  0  0  0  0  0  0  0  0  0
   42.4970   26.3820   31.1760 C   0  0  0  0  0  0  0  0  0  0  0  0
   41.9970   25.9910   29.8220 C   0  0  0  0  0  0  0  0  0  0  0  0
   40.5910   25.5110   29.8050 C   0  0  0  0  0  0  0  0  0  0  0  0
   39.9170   25.6810   31.1320 C   0  0  1  0  0  0  0  0  0  0  0  0
   38.7300   24.8440   31.0900 N   0  0  0  0  0  0  0  0  0  0  0  0
   37.4660   25.3000   31.1760 C   0  0  0  0  0  0  0  0  0  0  0  0
   36.4120   24.4200   31.1250 C   0  0  0  0  0  0  0  0  0  0  0  0
   35.0060   24.9390   31.2220 C   0  0  0  0  0  0  0  0  0  0  0  0
   36.5630   23.0580   30.9880 C   0  0  0  0  0  0  0  0  0  0  0  0
   35.5890   22.2640   30.9420 O   0  0  0  0  0  0  0  0  0  0  0  0
   37.8500   22.6440   30.9050 N   0  0  0  0  0  0  0  0  0  0  0  0
   38.8860   23.5000   30.9530 C   0  0  0  0  0  0  0  0  0  0  0  0
   40.0270   23.0030   30.8680 O   0  0  0  0  0  0  0  0  0  0  0  0
   38.0450   23.6870   36.9630 C   0  0  0  0  0  0  0  0  0  0  0  0
   38.8880   23.8590   38.0310 F   0  0  0  0  0  0  0  0  0  0  0  0
   37.6190   22.3910   36.9460 F   0  0  0  0  0  0  0  0  0  0  0  0
   36.9840   24.5770   37.2160 F   0  0  0  0  0  0  0  0  0  0  0  0
   40.8000   22.5530   36.1660 C   0  0  0  0  0  0  0  0  0  0  0  0
   41.7880   21.9850   35.3770 F   0  0  0  0  0  0  0  0  0  0  0  0
   41.3390   23.1110   37.3160 F   0  0  0  0  0  0  0  0  0  0  0  0
   40.0350   21.5080   36.6190 F   0  0  0  0  0  0  0  0  0  0  0  0
   37.2087   25.4682   35.1170 H   0  0  0  0  0  0  0  0  0  0  0  0
   42.5241   25.6559   33.2211 H   0  0  0  0  0  0  0  0  0  0  0  0
   42.5701   24.3639   32.0146 H   0  0  0  0  0  0  0  0  0  0  0  0
   42.0513   27.3486   31.4537 H   0  0  0  0  0  0  0  0  0  0  0  0
   43.5939   26.4491   31.1269 H   0  0  0  0  0  0  0  0  0  0  0  0
   42.0699   26.8675   29.1614 H   0  0  0  0  0  0  0  0  0  0  0  0
   42.6213   25.1498   29.4863 H   0  0  0  0  0  0  0  0  0  0  0  0
   40.0316   26.0808   29.0484 H   0  0  0  0  0  0  0  0  0  0  0  0
   40.6046   24.4366   29.5693 H   0  0  0  0  0  0  0  0  0  0  0  0
   39.7143   26.7536   31.2680 H   0  0  0  0  0  0  0  0  0  0  0  0
   37.2770   26.3779   31.2872 H   0  0  0  0  0  0  0  0  0  0  0  0
   34.7256   25.0425   32.2806 H   0  0  0  0  0  0  0  0  0  0  0  0
   34.9423   25.9199   30.7282 H   0  0  0  0  0  0  0  0  0  0  0  0
   34.3203   24.2347   30.7282 H   0  0  0  0  0  0  0  0  0  0  0  0
   38.0421   21.6374   30.8014 H   0  0  0  0  0  0  0  0  0  0  0  0
  1  2  2  0
  1 26  1  0
  2 22  1  0
  3  2  1  0
  4  3  2  0
  5  4  1  0
  5  6  2  0
  6  1  1  0
  7  5  1  0
  8  7  1  0
  9  8  1  0
 10  9  1  0
 11 10  1  0
 11 12  1  0
 12  7  1  0
 13 12  1  0
 13 14  1  0
 15 14  2  0
 15 16  1  0
 17 15  1  0
 18 17  2  0
 19 20  1  0
 19 17  1  0
 20 13  1  0
 21 20  2  0
 22 25  1  0
 22 23  1  0
 24 22  1  0
 26 29  1  0
 26 28  1  0
 27 26  1  0
  3 30  1  0
  8 31  1  0
  8 32  1  0
  9 33  1  0
  9 34  1  0
 10 35  1  0
 10 36  1  0
 11 37  1  0
 11 38  1  0
 12 39  1  1
 14 40  1  0
 16 41  1  0
 16 42  1  0
 16 43  1  0
 19 44  1  0
M  ISO  8  30  14  31  13  32  13  33  13  34  13  35  13  36  13  37  13
M  ISO  7  38  13  39  13  40  14  41   8  42   8  43   8  44   9
M  END
>  <minimizedAffinity>  (1) 
-5.37567568

>  <minimizedRMSD>  (1) 
2.48902249

$$$$
