
     RDKit          3D

 31 32  0  0  0  0  0  0  0  0999 V2000
   38.2010   26.6480   34.2070 C   0  0  0  0  0  0  0  0  0  0  0  0
   37.0040   27.4590   34.6050 C   0  0  0  0  0  0  0  0  0  0  0  0
   38.6700   27.1470   32.8550 C   0  0  0  0  0  0  0  0  0  0  0  0
   39.3410   27.0560   35.1600 C   0  0  0  0  0  0  0  0  0  0  0  0
   40.6760   26.8450   34.5240 C   0  0  0  0  0  0  0  0  0  0  0  0
   41.4840   25.8050   34.8190 N   0  0  0  0  0  0  0  0  0  0  0  0
   42.5630   25.9010   34.1070 O   0  0  0  0  0  0  0  0  0  0  0  0
   42.5110   26.9600   33.3460 C   0  0  0  0  0  0  0  0  0  0  0  0
   41.3400   27.5530   33.6000 N   0  0  0  0  0  0  0  0  0  0  0  0
   38.0300   24.8900   34.3220 S   0  0  0  0  0  0  0  0  0  0  0  0
   37.8850   23.8550   38.2600 C   0  0  0  0  0  0  0  0  0  0  0  0
   37.5650   24.4050   36.9990 C   0  0  0  0  0  0  0  0  0  0  0  0
   38.4060   24.2120   35.9200 C   0  0  0  0  0  0  0  0  0  0  0  0
   39.5300   23.4820   36.1360 N   0  0  0  0  0  0  0  0  0  0  0  0
   39.8250   22.9680   37.3280 C   0  0  0  0  0  0  0  0  0  0  0  0
   39.0390   23.1320   38.3920 N   0  0  0  0  0  0  0  0  0  0  0  0
   41.0680   22.2070   37.4100 C   0  0  0  0  0  0  0  0  0  0  0  0
   42.1110   22.6510   36.8670 O   0  0  0  0  0  0  0  0  0  0  0  0
   41.2100   20.9880   38.0590 O   0  0  0  0  0  0  0  0  0  0  0  0
   36.9392   27.5029   35.7022 H   0  0  0  0  0  0  0  0  0  0  0  0
   37.1012   28.4780   34.2024 H   0  0  0  0  0  0  0  0  0  0  0  0
   36.0936   26.9909   34.2024 H   0  0  0  0  0  0  0  0  0  0  0  0
   39.4171   27.9419   32.9965 H   0  0  0  0  0  0  0  0  0  0  0  0
   39.1211   26.3155   32.2936 H   0  0  0  0  0  0  0  0  0  0  0  0
   37.8122   27.5458   32.2936 H   0  0  0  0  0  0  0  0  0  0  0  0
   39.2301   28.1196   35.4179 H   0  0  0  0  0  0  0  0  0  0  0  0
   39.2818   26.4306   36.0630 H   0  0  0  0  0  0  0  0  0  0  0  0
   43.2795   27.2982   32.6354 H   0  0  0  0  0  0  0  0  0  0  0  0
   37.2176   24.0054   39.1214 H   0  0  0  0  0  0  0  0  0  0  0  0
   36.6416   24.9899   36.8754 H   0  0  0  0  0  0  0  0  0  0  0  0
   42.0890   20.5326   38.0702 H   0  0  0  0  0  0  0  0  0  0  0  0
  1 10  1  0
  1  2  1  0
  1  4  1  0
  3  1  1  0
  5  6  2  0
  5  4  1  0
  7  6  1  0
  8  9  2  0
  8  7  1  0
  9  5  1  0
 10 13  1  0
 11 16  2  0
 12 11  1  0
 13 14  1  0
 13 12  2  0
 14 15  2  0
 15 17  1  0
 15 16  1  0
 17 19  1  0
 18 17  2  0
  2 20  1  0
  2 21  1  0
  2 22  1  0
  3 23  1  0
  3 24  1  0
  3 25  1  0
  4 26  1  0
  4 27  1  0
  8 28  1  0
 11 29  1  0
 12 30  1  0
 19 31  1  0
M  ISO  8  20   8  21   8  22   8  23   8  24   8  25   8  26   8  27   8
M  ISO  4  28  14  29  14  30  14  31   3
M  END
>  <minimizedAffinity>  (1) 
-4.95108128

>  <minimizedRMSD>  (1) 
0.334386796

$$$$
