
     RDKit          3D

 45 48  0  0  1  0  0  0  0  0999 V2000
   38.1840   23.8130   35.6400 C   0  0  0  0  0  0  0  0  0  0  0  0
   38.1490   24.5310   36.8360 C   0  0  0  0  0  0  0  0  0  0  0  0
   38.0760   25.9250   36.7600 C   0  0  0  0  0  0  0  0  0  0  0  0
   38.0410   26.5080   35.5370 N   0  0  0  0  0  0  0  0  0  0  0  0
   38.0740   25.8040   34.4160 C   0  0  0  0  0  0  0  0  0  0  0  0
   38.1450   24.4780   34.4670 N   0  0  0  0  0  0  0  0  0  0  0  0
   38.0240   26.4990   33.1750 N   0  0  0  0  0  0  0  0  0  0  0  0
   38.6920   25.9440   32.0410 C   0  0  0  0  0  0  0  0  0  0  0  0
   38.9990   27.0930   31.1100 C   0  0  0  0  0  0  0  0  0  0  0  0
   37.7950   27.8350   30.6720 C   0  0  0  0  0  0  0  0  0  0  0  0
   36.7300   28.0190   31.7240 C   0  0  0  0  0  0  0  0  0  0  0  0
   37.2900   27.7340   33.0770 C   0  0  1  0  0  0  0  0  0  0  0  0
   38.1890   23.8670   38.1540 C   0  0  0  0  0  0  0  0  0  0  0  0
   39.4080   23.3110   38.3150 F   0  0  0  0  0  0  0  0  0  0  0  0
   37.2400   22.8930   38.3120 F   0  0  0  0  0  0  0  0  0  0  0  0
   38.0850   24.8230   39.1780 F   0  0  0  0  0  0  0  0  0  0  0  0
   38.2640   22.3370   35.4840 C   0  0  0  0  0  0  0  0  0  0  0  0
   38.3950   21.9760   34.1520 F   0  0  0  0  0  0  0  0  0  0  0  0
   39.3360   21.8250   36.2100 F   0  0  0  0  0  0  0  0  0  0  0  0
   37.1970   21.6670   35.9790 F   0  0  0  0  0  0  0  0  0  0  0  0
   36.2170   27.8960   34.1070 C   0  0  0  0  0  0  0  0  0  0  0  0
   35.4060   29.1080   33.8170 N   0  0  0  0  0  0  0  0  0  0  0  0
   34.4870   29.1560   32.8090 C   0  0  0  0  0  0  0  0  0  0  0  0
   33.9200   30.3830   32.8020 N   0  0  0  0  0  0  0  0  0  0  0  0
   34.4880   31.0820   33.7990 C   0  0  0  0  0  0  0  0  0  0  0  0
   34.3500   32.3570   34.2980 C   0  0  0  0  0  0  0  0  0  0  0  0
   35.0690   32.8290   35.3480 N   0  0  0  0  0  0  0  0  0  0  0  0
   35.9760   32.0120   35.9450 C   0  0  0  0  0  0  0  0  0  0  0  0
   36.1380   30.7480   35.4810 N   0  0  0  0  0  0  0  0  0  0  0  0
   35.4210   30.2960   34.4430 C   0  0  0  0  0  0  0  0  0  0  0  0
   38.0475   26.5362   37.6741 H   0  0  0  0  0  0  0  0  0  0  0  0
   39.6241   25.4510   32.3543 H   0  0  0  0  0  0  0  0  0  0  0  0
   38.0648   25.1896   31.5435 H   0  0  0  0  0  0  0  0  0  0  0  0
   39.6696   27.7930   31.6299 H   0  0  0  0  0  0  0  0  0  0  0  0
   39.4614   26.6648   30.2084 H   0  0  0  0  0  0  0  0  0  0  0  0
   38.1148   28.8320   30.3349 H   0  0  0  0  0  0  0  0  0  0  0  0
   37.3358   27.2264   29.8791 H   0  0  0  0  0  0  0  0  0  0  0  0
   36.3636   29.0557   31.6931 H   0  0  0  0  0  0  0  0  0  0  0  0
   35.9023   27.3228   31.5234 H   0  0  0  0  0  0  0  0  0  0  0  0
   38.0709   28.4820   33.2786 H   0  0  0  0  0  0  0  0  0  0  0  0
   35.5645   27.0105   34.0944 H   0  0  0  0  0  0  0  0  0  0  0  0
   36.6834   28.0046   35.0973 H   0  0  0  0  0  0  0  0  0  0  0  0
   34.2479   28.3340   32.1182 H   0  0  0  0  0  0  0  0  0  0  0  0
   33.6198   33.0278   33.8217 H   0  0  0  0  0  0  0  0  0  0  0  0
   36.5727   32.3722   36.7960 H   0  0  0  0  0  0  0  0  0  0  0  0
  1  2  2  0
  2 13  1  0
  3  2  1  0
  4  3  2  0
  5  6  2  0
  5  4  1  0
  6  1  1  0
  7  5  1  0
  8  7  1  0
  9  8  1  0
 10  9  1  0
 10 11  1  0
 11 12  1  0
 12  7  1  0
 12 21  1  0
 13 15  1  0
 13 14  1  0
 13 16  1  0
 17  1  1  0
 17 20  1  0
 17 19  1  0
 18 17  1  0
 22 21  1  0
 22 30  1  0
 23 22  1  0
 24 23  2  0
 24 25  1  0
 25 26  2  0
 25 30  1  0
 26 27  1  0
 27 28  2  0
 29 28  1  0
 30 29  2  0
  3 31  1  0
  8 32  1  0
  8 33  1  0
  9 34  1  0
  9 35  1  0
 10 36  1  0
 10 37  1  0
 11 38  1  0
 11 39  1  0
 12 40  1  1
 21 41  1  0
 21 42  1  0
 23 43  1  0
 26 44  1  0
 28 45  1  0
M  ISO  8  31  14  32  13  33  13  34  13  35  13  36  13  37  13  38  13
M  ISO  7  39  13  40  13  41   8  42   8  43  14  44  14  45  14
M  END
>  <minimizedAffinity>  (1) 
-6.84611845

>  <minimizedRMSD>  (1) 
0.471113741

$$$$
