
     RDKit          3D

 50 53  0  0  1  0  0  0  0  0999 V2000
   38.1290   23.9610   35.6790 C   0  0  0  0  0  0  0  0  0  0  0  0
   38.1320   24.6570   36.8920 C   0  0  0  0  0  0  0  0  0  0  0  0
   38.0780   26.0580   36.8470 C   0  0  0  0  0  0  0  0  0  0  0  0
   38.0260   26.6660   35.6370 N   0  0  0  0  0  0  0  0  0  0  0  0
   38.0240   25.9880   34.4980 C   0  0  0  0  0  0  0  0  0  0  0  0
   38.0750   24.6610   34.5170 N   0  0  0  0  0  0  0  0  0  0  0  0
   37.9600   26.7170   33.2780 N   0  0  0  0  0  0  0  0  0  0  0  0
   38.5820   26.1710   32.1140 C   0  0  0  0  0  0  0  0  0  0  0  0
   38.8510   27.3320   31.1920 C   0  0  0  0  0  0  0  0  0  0  0  0
   37.6550   28.1250   30.8260 C   0  0  0  0  0  0  0  0  0  0  0  0
   36.6290   28.2860   31.9080 C   0  0  0  0  0  0  0  0  0  0  0  0
   37.2610   27.9790   33.2540 C   0  0  1  0  0  0  0  0  0  0  0  0
   38.1900   23.9660   38.1950 C   0  0  0  0  0  0  0  0  0  0  0  0
   39.4320   23.4170   38.3190 F   0  0  0  0  0  0  0  0  0  0  0  0
   37.2650   22.9910   38.3510 F   0  0  0  0  0  0  0  0  0  0  0  0
   38.0990   24.8980   39.2430 F   0  0  0  0  0  0  0  0  0  0  0  0
   38.1850   22.4940   35.4910 C   0  0  0  0  0  0  0  0  0  0  0  0
   38.2870   22.1630   34.1470 F   0  0  0  0  0  0  0  0  0  0  0  0
   39.2520   21.9470   36.1970 F   0  0  0  0  0  0  0  0  0  0  0  0
   37.1090   21.8400   35.9860 F   0  0  0  0  0  0  0  0  0  0  0  0
   36.1860   28.1090   34.2830 C   0  0  0  0  0  0  0  0  0  0  0  0
   35.2360   29.2300   33.9190 C   0  0  0  0  0  0  0  0  0  0  0  0
   34.2560   29.0140   32.9440 C   0  0  0  0  0  0  0  0  0  0  0  0
   33.3470   29.9460   32.4920 C   0  0  0  0  0  0  0  0  0  0  0  0
   33.4210   31.1920   33.0590 C   0  0  0  0  0  0  0  0  0  0  0  0
   34.3660   31.4570   34.0230 C   0  0  0  0  0  0  0  0  0  0  0  0
   34.4160   32.7220   34.5880 C   0  0  0  0  0  0  0  0  0  0  0  0
   35.3720   32.9700   35.5700 C   0  0  0  0  0  0  0  0  0  0  0  0
   36.2690   32.0040   35.9970 C   0  0  0  0  0  0  0  0  0  0  0  0
   36.1840   30.7630   35.4110 C   0  0  0  0  0  0  0  0  0  0  0  0
   35.2530   30.4900   34.4400 C   0  0  0  0  0  0  0  0  0  0  0  0
   38.0779   26.6503   37.7739 H   0  0  0  0  0  0  0  0  0  0  0  0
   39.5250   25.6733   32.3844 H   0  0  0  0  0  0  0  0  0  0  0  0
   37.9383   25.4200   31.6327 H   0  0  0  0  0  0  0  0  0  0  0  0
   39.5681   28.0032   31.6873 H   0  0  0  0  0  0  0  0  0  0  0  0
   39.2350   26.9010   30.2556 H   0  0  0  0  0  0  0  0  0  0  0  0
   37.9925   29.1285   30.5274 H   0  0  0  0  0  0  0  0  0  0  0  0
   37.1576   27.5654   30.0201 H   0  0  0  0  0  0  0  0  0  0  0  0
   36.2535   29.3199   31.9064 H   0  0  0  0  0  0  0  0  0  0  0  0
   35.7942   27.5927   31.7280 H   0  0  0  0  0  0  0  0  0  0  0  0
   38.0622   28.6991   33.4766 H   0  0  0  0  0  0  0  0  0  0  0  0
   35.6254   27.1644   34.3421 H   0  0  0  0  0  0  0  0  0  0  0  0
   36.6492   28.3367   35.2544 H   0  0  0  0  0  0  0  0  0  0  0  0
   34.2066   28.0097   32.4980 H   0  0  0  0  0  0  0  0  0  0  0  0
   32.6030   29.7035   31.7189 H   0  0  0  0  0  0  0  0  0  0  0  0
   32.7234   31.9814   32.7425 H   0  0  0  0  0  0  0  0  0  0  0  0
   33.7181   33.5101   34.2687 H   0  0  0  0  0  0  0  0  0  0  0  0
   35.4167   33.9710   36.0240 H   0  0  0  0  0  0  0  0  0  0  0  0
   37.0181   32.2210   36.7727 H   0  0  0  0  0  0  0  0  0  0  0  0
   36.8782   29.9706   35.7277 H   0  0  0  0  0  0  0  0  0  0  0  0
  1  2  2  0
  2 13  1  0
  3  2  1  0
  4  3  2  0
  5  6  2  0
  5  4  1  0
  6  1  1  0
  7  5  1  0
  8  7  1  0
  9  8  1  0
 10  9  1  0
 10 11  1  0
 11 12  1  0
 12  7  1  0
 12 21  1  0
 13 14  1  0
 13 15  1  0
 13 16  1  0
 17  1  1  0
 17 20  1  0
 17 19  1  0
 18 17  1  0
 22 21  1  0
 22 31  1  0
 23 22  2  0
 24 23  1  0
 24 25  2  0
 25 26  1  0
 26 31  2  0
 26 27  1  0
 27 28  2  0
 28 29  1  0
 30 29  2  0
 31 30  1  0
  3 32  1  0
  8 33  1  0
  8 34  1  0
  9 35  1  0
  9 36  1  0
 10 37  1  0
 10 38  1  0
 11 39  1  0
 11 40  1  0
 12 41  1  1
 21 42  1  0
 21 43  1  0
 23 44  1  0
 24 45  1  0
 25 46  1  0
 27 47  1  0
 28 48  1  0
 29 49  1  0
 30 50  1  0
M  ISO  8  32  14  33  13  34  13  35  13  36  13  37  13  38  13  39  13
M  ISO  8  40  13  41  13  42   8  43   8  44  14  45  14  46  14  47  14
M  ISO  3  48  14  49  14  50  14
M  END
>  <minimizedAffinity>  (1) 
-7.33326483

>  <minimizedRMSD>  (1) 
0.872390628

$$$$
