
     RDKit          3D

 44 46  0  0  1  0  0  0  0  0999 V2000
   38.1420   23.8780   35.7150 C   0  0  0  0  0  0  0  0  0  0  0  0
   38.1660   24.5820   36.9240 C   0  0  0  0  0  0  0  0  0  0  0  0
   38.1270   25.9770   36.8700 C   0  0  0  0  0  0  0  0  0  0  0  0
   38.0680   26.5830   35.6580 N   0  0  0  0  0  0  0  0  0  0  0  0
   38.0470   25.8950   34.5250 C   0  0  0  0  0  0  0  0  0  0  0  0
   38.0830   24.5660   34.5550 N   0  0  0  0  0  0  0  0  0  0  0  0
   37.9740   26.6090   33.2970 N   0  0  0  0  0  0  0  0  0  0  0  0
   38.5850   26.0590   32.1320 C   0  0  0  0  0  0  0  0  0  0  0  0
   38.8870   27.2260   31.2150 C   0  0  0  0  0  0  0  0  0  0  0  0
   37.6690   27.9800   30.8240 C   0  0  0  0  0  0  0  0  0  0  0  0
   36.6930   28.2200   31.9240 C   0  0  0  0  0  0  0  0  0  0  0  0
   37.2740   27.8710   33.2630 C   0  0  1  0  0  0  0  0  0  0  0  0
   38.2290   23.8940   38.2280 C   0  0  0  0  0  0  0  0  0  0  0  0
   39.4360   23.3010   38.3380 F   0  0  0  0  0  0  0  0  0  0  0  0
   37.2590   22.9410   38.4030 F   0  0  0  0  0  0  0  0  0  0  0  0
   38.1640   24.8290   39.2690 F   0  0  0  0  0  0  0  0  0  0  0  0
   38.1790   22.4050   35.5340 C   0  0  0  0  0  0  0  0  0  0  0  0
   38.2500   22.0660   34.1910 F   0  0  0  0  0  0  0  0  0  0  0  0
   39.2590   21.8540   36.2070 F   0  0  0  0  0  0  0  0  0  0  0  0
   37.1090   21.7590   36.0550 F   0  0  0  0  0  0  0  0  0  0  0  0
   36.2130   28.0120   34.3010 C   0  0  0  0  0  0  0  0  0  0  0  0
   35.3640   29.2000   34.0300 N   0  0  0  0  0  0  0  0  0  0  0  0
   34.3990   29.2060   33.0970 C   0  0  0  0  0  0  0  0  0  0  0  0
   33.6100   30.2850   32.8420 C   0  0  0  0  0  0  0  0  0  0  0  0
   33.8050   31.4480   33.5830 C   0  0  0  0  0  0  0  0  0  0  0  0
   33.0840   32.4510   33.3590 O   0  0  0  0  0  0  0  0  0  0  0  0
   34.7800   31.4110   34.5120 N   0  0  0  0  0  0  0  0  0  0  0  0
   35.5490   30.3360   34.7480 C   0  0  0  0  0  0  0  0  0  0  0  0
   36.4340   30.3970   35.6370 O   0  0  0  0  0  0  0  0  0  0  0  0
   38.1438   26.5737   37.7940 H   0  0  0  0  0  0  0  0  0  0  0  0
   39.5147   25.5362   32.4010 H   0  0  0  0  0  0  0  0  0  0  0  0
   37.9241   25.3284   31.6427 H   0  0  0  0  0  0  0  0  0  0  0  0
   39.5737   27.9116   31.7330 H   0  0  0  0  0  0  0  0  0  0  0  0
   39.3338   26.8185   30.2961 H   0  0  0  0  0  0  0  0  0  0  0  0
   37.9851   28.9571   30.4299 H   0  0  0  0  0  0  0  0  0  0  0  0
   37.1476   27.3562   30.0830 H   0  0  0  0  0  0  0  0  0  0  0  0
   36.4091   29.2827   31.9239 H   0  0  0  0  0  0  0  0  0  0  0  0
   35.8156   27.5793   31.7518 H   0  0  0  0  0  0  0  0  0  0  0  0
   38.0777   28.5873   33.4888 H   0  0  0  0  0  0  0  0  0  0  0  0
   35.5830   27.1103   34.2974 H   0  0  0  0  0  0  0  0  0  0  0  0
   36.6943   28.1392   35.2819 H   0  0  0  0  0  0  0  0  0  0  0  0
   34.2376   28.2912   32.5079 H   0  0  0  0  0  0  0  0  0  0  0  0
   32.8326   30.2395   32.0651 H   0  0  0  0  0  0  0  0  0  0  0  0
   34.9453   32.2577   35.0747 H   0  0  0  0  0  0  0  0  0  0  0  0
  1  2  2  0
  2 13  1  0
  3  2  1  0
  4  3  2  0
  5  6  2  0
  5  4  1  0
  6  1  1  0
  7  5  1  0
  8  7  1  0
  9  8  1  0
 10  9  1  0
 10 11  1  0
 11 12  1  0
 12  7  1  0
 12 21  1  0
 13 14  1  0
 13 15  1  0
 13 16  1  0
 17  1  1  0
 17 20  1  0
 17 19  1  0
 18 17  1  0
 22 21  1  0
 22 28  1  0
 23 22  1  0
 24 23  2  0
 24 25  1  0
 25 27  1  0
 26 25  2  0
 27 28  1  0
 28 29  2  0
  3 30  1  0
  8 31  1  0
  8 32  1  0
  9 33  1  0
  9 34  1  0
 10 35  1  0
 10 36  1  0
 11 37  1  0
 11 38  1  0
 12 39  1  1
 21 40  1  0
 21 41  1  0
 23 42  1  0
 24 43  1  0
 27 44  1  0
M  ISO  8  30  14  31  13  32  13  33  13  34  13  35  13  36  13  37  13
M  ISO  7  38  13  39  13  40   8  41   8  42  14  43  14  44   9
M  END
>  <minimizedAffinity>  (1) 
-6.46782017

>  <minimizedRMSD>  (1) 
0.684923768

$$$$
