
     RDKit          3D

 35 36  0  0  1  0  0  0  0  0999 V2000
   38.1470   23.7440   35.6890 C   0  0  0  0  0  0  0  0  0  0  0  0
   38.2110   24.4970   36.8630 C   0  0  0  0  0  0  0  0  0  0  0  0
   38.2510   25.8900   36.7370 C   0  0  0  0  0  0  0  0  0  0  0  0
   38.2280   26.4340   35.4990 N   0  0  0  0  0  0  0  0  0  0  0  0
   38.1660   25.6950   34.4000 C   0  0  0  0  0  0  0  0  0  0  0  0
   38.1270   24.3700   34.4930 N   0  0  0  0  0  0  0  0  0  0  0  0
   38.1360   26.3520   33.1380 N   0  0  0  0  0  0  0  0  0  0  0  0
   38.7150   25.7030   32.0080 C   0  0  0  0  0  0  0  0  0  0  0  0
   39.0540   26.7770   31.0070 C   0  0  0  0  0  0  0  0  0  0  0  0
   37.8760   27.5940   30.5870 C   0  0  0  0  0  0  0  0  0  0  0  0
   36.9210   27.9500   31.6860 C   0  0  0  0  0  0  0  0  0  0  0  0
   37.5180   27.6470   33.0230 C   0  0  1  0  0  0  0  0  0  0  0  0
   38.2350   23.8710   38.1960 C   0  0  0  0  0  0  0  0  0  0  0  0
   39.4380   23.2810   38.3700 F   0  0  0  0  0  0  0  0  0  0  0  0
   37.2550   22.9460   38.4000 F   0  0  0  0  0  0  0  0  0  0  0  0
   38.1650   24.8700   39.1900 F   0  0  0  0  0  0  0  0  0  0  0  0
   38.0980   22.2620   35.5840 C   0  0  0  0  0  0  0  0  0  0  0  0
   38.1110   21.8510   34.2590 F   0  0  0  0  0  0  0  0  0  0  0  0
   39.1750   21.6930   36.2520 F   0  0  0  0  0  0  0  0  0  0  0  0
   37.0190   21.6970   36.1740 F   0  0  0  0  0  0  0  0  0  0  0  0
   36.5030   27.9380   34.0870 C   0  0  0  0  0  0  0  0  0  0  0  0
   35.7430   29.0740   33.8210 O   0  0  0  0  0  0  0  0  0  0  0  0
   38.3003   26.5314   37.6293 H   0  0  0  0  0  0  0  0  0  0  0  0
   39.6265   25.1650   32.3077 H   0  0  0  0  0  0  0  0  0  0  0  0
   38.0167   24.9710   31.5761 H   0  0  0  0  0  0  0  0  0  0  0  0
   39.8008   27.4482   31.4561 H   0  0  0  0  0  0  0  0  0  0  0  0
   39.4345   26.2717   30.1070 H   0  0  0  0  0  0  0  0  0  0  0  0
   38.2507   28.5293   30.1457 H   0  0  0  0  0  0  0  0  0  0  0  0
   37.3088   26.9705   29.8802 H   0  0  0  0  0  0  0  0  0  0  0  0
   36.6888   29.0237   31.6291 H   0  0  0  0  0  0  0  0  0  0  0  0
   36.0041   27.3546   31.5647 H   0  0  0  0  0  0  0  0  0  0  0  0
   38.3796   28.3166   33.1621 H   0  0  0  0  0  0  0  0  0  0  0  0
   35.8257   27.0752   34.1700 H   0  0  0  0  0  0  0  0  0  0  0  0
   37.0519   28.1223   35.0223 H   0  0  0  0  0  0  0  0  0  0  0  0
   35.4637   29.4914   34.6742 H   0  0  0  0  0  0  0  0  0  0  0  0
  1  2  2  0
  2 13  1  0
  3  2  1  0
  4  3  2  0
  5  6  2  0
  5  4  1  0
  6  1  1  0
  7  5  1  0
  8  7  1  0
  9  8  1  0
 10  9  1  0
 10 11  1  0
 11 12  1  0
 12  7  1  0
 12 21  1  0
 13 14  1  0
 13 15  1  0
 13 16  1  0
 17  1  1  0
 17 20  1  0
 17 19  1  0
 18 17  1  0
 22 21  1  0
  3 23  1  0
  8 24  1  0
  8 25  1  0
  9 26  1  0
  9 27  1  0
 10 28  1  0
 10 29  1  0
 11 30  1  0
 11 31  1  0
 12 32  1  1
 21 33  1  0
 21 34  1  0
 22 35  1  0
M  ISO  8  23  14  24  13  25  13  26  13  27  13  28  13  29  13  30  13
M  ISO  5  31  13  32  13  33   8  34   8  35   3
M  END
>  <minimizedAffinity>  (1) 
-5.69559526

>  <minimizedRMSD>  (1) 
0.480851501

$$$$
