
     RDKit          3D

 36 37  0  0  1  0  0  0  0  0999 V2000
   38.1380   23.7680   35.6730 C   0  0  0  0  0  0  0  0  0  0  0  0
   38.2030   24.5300   36.8370 C   0  0  0  0  0  0  0  0  0  0  0  0
   38.2480   25.9200   36.7020 C   0  0  0  0  0  0  0  0  0  0  0  0
   38.2290   26.4590   35.4570 N   0  0  0  0  0  0  0  0  0  0  0  0
   38.1680   25.7080   34.3670 C   0  0  0  0  0  0  0  0  0  0  0  0
   38.1240   24.3820   34.4760 N   0  0  0  0  0  0  0  0  0  0  0  0
   38.1490   26.3540   33.0980 N   0  0  0  0  0  0  0  0  0  0  0  0
   38.7420   25.6950   31.9780 C   0  0  0  0  0  0  0  0  0  0  0  0
   39.1050   26.7760   30.9860 C   0  0  0  0  0  0  0  0  0  0  0  0
   37.9340   27.5910   30.5450 C   0  0  0  0  0  0  0  0  0  0  0  0
   36.9490   27.9330   31.6180 C   0  0  0  0  0  0  0  0  0  0  0  0
   37.5330   27.6430   32.9670 C   0  0  1  0  0  0  0  0  0  0  0  0
   38.2220   23.9210   38.1780 C   0  0  0  0  0  0  0  0  0  0  0  0
   39.4380   23.3420   38.3630 F   0  0  0  0  0  0  0  0  0  0  0  0
   37.2540   22.9800   38.3810 F   0  0  0  0  0  0  0  0  0  0  0  0
   38.1420   24.9120   39.1650 F   0  0  0  0  0  0  0  0  0  0  0  0
   38.0830   22.2860   35.5880 C   0  0  0  0  0  0  0  0  0  0  0  0
   38.0840   21.8600   34.2620 F   0  0  0  0  0  0  0  0  0  0  0  0
   39.1540   21.7120   36.2540 F   0  0  0  0  0  0  0  0  0  0  0  0
   36.9980   21.7300   36.1750 F   0  0  0  0  0  0  0  0  0  0  0  0
   36.5010   27.9410   34.0140 C   0  0  0  0  0  0  0  0  0  0  0  0
   35.6620   29.0620   33.6400 N   0  0  0  0  0  0  0  0  0  0  0  0
   38.2980   26.5666   37.5905 H   0  0  0  0  0  0  0  0  0  0  0  0
   39.6439   25.1493   32.2921 H   0  0  0  0  0  0  0  0  0  0  0  0
   38.0496   24.9645   31.5342 H   0  0  0  0  0  0  0  0  0  0  0  0
   39.8406   27.4466   31.4542 H   0  0  0  0  0  0  0  0  0  0  0  0
   39.5087   26.2763   30.0931 H   0  0  0  0  0  0  0  0  0  0  0  0
   38.3156   28.5321   30.1222 H   0  0  0  0  0  0  0  0  0  0  0  0
   37.3883   26.9695   29.8198 H   0  0  0  0  0  0  0  0  0  0  0  0
   36.6972   29.0018   31.5530 H   0  0  0  0  0  0  0  0  0  0  0  0
   36.0426   27.3250   31.4807 H   0  0  0  0  0  0  0  0  0  0  0  0
   38.3922   28.3139   33.1141 H   0  0  0  0  0  0  0  0  0  0  0  0
   35.8672   27.0526   34.1521 H   0  0  0  0  0  0  0  0  0  0  0  0
   37.0248   28.2021   34.9454 H   0  0  0  0  0  0  0  0  0  0  0  0
   35.3131   29.5282   34.4896 H   0  0  0  0  0  0  0  0  0  0  0  0
   36.2116   29.7312   33.0823 H   0  0  0  0  0  0  0  0  0  0  0  0
  1  2  2  0
  2 13  1  0
  3  2  1  0
  4  3  2  0
  5  6  2  0
  5  4  1  0
  6  1  1  0
  7  5  1  0
  8  7  1  0
  9  8  1  0
 10  9  1  0
 10 11  1  0
 11 12  1  0
 12  7  1  0
 12 21  1  0
 13 14  1  0
 13 15  1  0
 13 16  1  0
 17  1  1  0
 17 20  1  0
 17 19  1  0
 18 17  1  0
 22 21  1  0
  3 23  1  0
  8 24  1  0
  8 25  1  0
  9 26  1  0
  9 27  1  0
 10 28  1  0
 10 29  1  0
 11 30  1  0
 11 31  1  0
 12 32  1  1
 21 33  1  0
 21 34  1  0
 22 35  1  0
 22 36  1  0
M  ISO  8  23  14  24  13  25  13  26  13  27  13  28  13  29  13  30  13
M  ISO  6  31  13  32  13  33   8  34   8  35   5  36   5
M  END
>  <minimizedAffinity>  (1) 
-5.69854307

>  <minimizedRMSD>  (1) 
0.479754776

$$$$
