
     RDKit          3D

 46 48  0  0  1  0  0  0  0  0999 V2000
   38.1880   23.9140   35.4780 C   0  0  0  0  0  0  0  0  0  0  0  0
   38.1280   24.7500   36.5890 C   0  0  0  0  0  0  0  0  0  0  0  0
   38.1280   26.1190   36.3770 C   0  0  0  0  0  0  0  0  0  0  0  0
   38.1830   26.5860   35.0980 N   0  0  0  0  0  0  0  0  0  0  0  0
   38.2380   25.7790   34.0580 C   0  0  0  0  0  0  0  0  0  0  0  0
   38.2410   24.4550   34.2410 N   0  0  0  0  0  0  0  0  0  0  0  0
   38.2780   26.3630   32.7630 N   0  0  0  0  0  0  0  0  0  0  0  0
   38.9900   25.6680   31.7260 C   0  0  0  0  0  0  0  0  0  0  0  0
   39.3370   26.7010   30.6860 C   0  0  0  0  0  0  0  0  0  0  0  0
   38.1680   27.4170   30.1210 C   0  0  0  0  0  0  0  0  0  0  0  0
   37.1050   27.7730   31.0970 C   0  0  0  0  0  0  0  0  0  0  0  0
   37.5830   27.5860   32.5000 C   0  0  1  0  0  0  0  0  0  0  0  0
   38.0620   24.2230   37.9670 C   0  0  0  0  0  0  0  0  0  0  0  0
   39.2320   23.6070   38.2410 F   0  0  0  0  0  0  0  0  0  0  0  0
   37.0430   23.3250   38.1750 F   0  0  0  0  0  0  0  0  0  0  0  0
   37.9540   25.2720   38.8890 F   0  0  0  0  0  0  0  0  0  0  0  0
   38.2110   22.4260   35.4690 C   0  0  0  0  0  0  0  0  0  0  0  0
   38.3340   21.9310   34.1780 F   0  0  0  0  0  0  0  0  0  0  0  0
   39.2610   21.9520   36.2450 F   0  0  0  0  0  0  0  0  0  0  0  0
   37.1180   21.8540   36.0240 F   0  0  0  0  0  0  0  0  0  0  0  0
   36.4810   27.9000   33.4390 C   0  0  0  0  0  0  0  0  0  0  0  0
   36.2040   29.1220   34.0120 N   0  0  0  0  0  0  0  0  0  0  0  0
   34.8210   29.0450   34.5410 C   0  0  0  0  0  0  0  0  0  0  0  0
   33.9170   29.0980   33.3430 C   0  0  0  0  0  0  0  0  0  0  0  0
   34.7170   29.8930   32.3420 C   0  0  0  0  0  0  0  0  0  0  0  0
   35.9930   30.2170   33.0650 C   0  0  0  0  0  0  0  0  0  0  0  0
   38.0844   26.8168   37.2262 H   0  0  0  0  0  0  0  0  0  0  0  0
   39.9058   25.2134   32.1317 H   0  0  0  0  0  0  0  0  0  0  0  0
   38.3819   24.8578   31.2974 H   0  0  0  0  0  0  0  0  0  0  0  0
   40.0050   27.4431   31.1475 H   0  0  0  0  0  0  0  0  0  0  0  0
   39.8081   26.1609   29.8515 H   0  0  0  0  0  0  0  0  0  0  0  0
   38.5305   28.3475   29.6598 H   0  0  0  0  0  0  0  0  0  0  0  0
   37.7029   26.7214   29.4070 H   0  0  0  0  0  0  0  0  0  0  0  0
   36.8203   28.8255   30.9511 H   0  0  0  0  0  0  0  0  0  0  0  0
   36.2405   27.1136   30.9301 H   0  0  0  0  0  0  0  0  0  0  0  0
   38.3928   28.3108   32.6702 H   0  0  0  0  0  0  0  0  0  0  0  0
   35.5623   27.6245   32.9004 H   0  0  0  0  0  0  0  0  0  0  0  0
   36.8484   27.3666   34.3281 H   0  0  0  0  0  0  0  0  0  0  0  0
   34.6735   28.1033   35.0900 H   0  0  0  0  0  0  0  0  0  0  0  0
   34.6108   29.8667   35.2415 H   0  0  0  0  0  0  0  0  0  0  0  0
   33.7043   28.0873   32.9644 H   0  0  0  0  0  0  0  0  0  0  0  0
   32.9358   29.5440   33.5626 H   0  0  0  0  0  0  0  0  0  0  0  0
   34.1844   30.8129   32.0591 H   0  0  0  0  0  0  0  0  0  0  0  0
   34.8909   29.3403   31.4069 H   0  0  0  0  0  0  0  0  0  0  0  0
   36.8311   30.2762   32.3550 H   0  0  0  0  0  0  0  0  0  0  0  0
   35.9326   31.1888   33.5769 H   0  0  0  0  0  0  0  0  0  0  0  0
  1  2  2  0
  2 13  1  0
  3  2  1  0
  4  3  2  0
  5  6  2  0
  5  4  1  0
  6  1  1  0
  7  5  1  0
  8  7  1  0
  9  8  1  0
 10  9  1  0
 10 11  1  0
 11 12  1  0
 12  7  1  0
 12 21  1  0
 13 15  1  0
 13 14  1  0
 13 16  1  0
 17  1  1  0
 17 20  1  0
 17 19  1  0
 18 17  1  0
 21 22  1  0
 22 23  1  0
 24 23  1  0
 25 26  1  0
 25 24  1  0
 26 22  1  0
  3 27  1  0
  8 28  1  0
  8 29  1  0
  9 30  1  0
  9 31  1  0
 10 32  1  0
 10 33  1  0
 11 34  1  0
 11 35  1  0
 12 36  1  1
 21 37  1  0
 21 38  1  0
 23 39  1  0
 23 40  1  0
 24 41  1  0
 24 42  1  0
 25 43  1  0
 25 44  1  0
 26 45  1  0
 26 46  1  0
M  ISO  8  27  14  28  13  29  13  30  13  31  13  32  13  33  13  34  13
M  ISO  8  35  13  36  13  37   8  38   8  39  13  40  13  41  13  42  13
M  ISO  4  43  13  44  13  45  13  46  13
M  END
>  <minimizedAffinity>  (1) 
-5.44850254

>  <minimizedRMSD>  (1) 
1.0588789

$$$$
