
     RDKit          3D

 42 44  0  0  1  0  0  0  0  0999 V2000
   38.1050   23.8440   35.7310 C   0  0  0  0  0  0  0  0  0  0  0  0
   38.1570   24.5260   36.9510 C   0  0  0  0  0  0  0  0  0  0  0  0
   38.0750   25.9210   36.9160 C   0  0  0  0  0  0  0  0  0  0  0  0
   37.9500   26.5400   35.7160 N   0  0  0  0  0  0  0  0  0  0  0  0
   37.9030   25.8660   34.5750 C   0  0  0  0  0  0  0  0  0  0  0  0
   37.9790   24.5440   34.5800 N   0  0  0  0  0  0  0  0  0  0  0  0
   37.7620   26.5980   33.3620 N   0  0  0  0  0  0  0  0  0  0  0  0
   38.3520   26.0810   32.1670 C   0  0  0  0  0  0  0  0  0  0  0  0
   38.5900   27.2570   31.2550 C   0  0  0  0  0  0  0  0  0  0  0  0
   37.3510   28.0010   30.9200 C   0  0  0  0  0  0  0  0  0  0  0  0
   36.3690   28.1600   32.0510 C   0  0  0  0  0  0  0  0  0  0  0  0
   37.0180   27.8350   33.3520 C   0  0  1  0  0  0  0  0  0  0  0  0
   38.2940   23.8240   38.2370 C   0  0  0  0  0  0  0  0  0  0  0  0
   39.5090   23.2340   38.2750 F   0  0  0  0  0  0  0  0  0  0  0  0
   37.3310   22.8750   38.4580 F   0  0  0  0  0  0  0  0  0  0  0  0
   38.2910   24.7510   39.2930 F   0  0  0  0  0  0  0  0  0  0  0  0
   38.1760   22.3730   35.5230 C   0  0  0  0  0  0  0  0  0  0  0  0
   38.2320   22.0540   34.1760 F   0  0  0  0  0  0  0  0  0  0  0  0
   39.2870   21.8440   36.1730 F   0  0  0  0  0  0  0  0  0  0  0  0
   37.1380   21.6890   36.0580 F   0  0  0  0  0  0  0  0  0  0  0  0
   36.0380   27.9710   34.4690 C   0  0  0  0  0  0  0  0  0  0  0  0
   35.3570   29.3170   34.2970 C   0  0  0  0  0  0  0  0  0  0  0  0
   35.9560   30.4770   34.7440 C   0  0  0  0  0  0  0  0  0  0  0  0
   35.3930   31.7290   34.6060 C   0  0  0  0  0  0  0  0  0  0  0  0
   34.1950   31.8270   34.0030 N   0  0  0  0  0  0  0  0  0  0  0  0
   33.6140   30.6940   33.5690 C   0  0  0  0  0  0  0  0  0  0  0  0
   34.1580   29.4720   33.7020 N   0  0  0  0  0  0  0  0  0  0  0  0
   38.1113   26.5068   37.8463 H   0  0  0  0  0  0  0  0  0  0  0  0
   39.3050   25.5833   32.3998 H   0  0  0  0  0  0  0  0  0  0  0  0
   37.6940   25.3391   31.6909 H   0  0  0  0  0  0  0  0  0  0  0  0
   39.2884   27.9473   31.7507 H   0  0  0  0  0  0  0  0  0  0  0  0
   38.9967   26.8610   30.3127 H   0  0  0  0  0  0  0  0  0  0  0  0
   37.6401   29.0055   30.5774 H   0  0  0  0  0  0  0  0  0  0  0  0
   36.8364   27.4042   30.1525 H   0  0  0  0  0  0  0  0  0  0  0  0
   36.0091   29.1992   32.0751 H   0  0  0  0  0  0  0  0  0  0  0  0
   35.5261   27.4716   31.8910 H   0  0  0  0  0  0  0  0  0  0  0  0
   37.8073   28.5841   33.5131 H   0  0  0  0  0  0  0  0  0  0  0  0
   35.2944   27.1619   34.4204 H   0  0  0  0  0  0  0  0  0  0  0  0
   36.5418   27.9065   35.4447 H   0  0  0  0  0  0  0  0  0  0  0  0
   36.9361   30.3992   35.2374 H   0  0  0  0  0  0  0  0  0  0  0  0
   35.9110   32.6245   34.9798 H   0  0  0  0  0  0  0  0  0  0  0  0
   32.6342   30.7723   33.0753 H   0  0  0  0  0  0  0  0  0  0  0  0
  1  2  2  0
  2 13  1  0
  3  2  1  0
  4  3  2  0
  5  6  2  0
  5  4  1  0
  6  1  1  0
  7  5  1  0
  8  7  1  0
  9  8  1  0
 10  9  1  0
 10 11  1  0
 11 12  1  0
 12  7  1  0
 12 21  1  0
 13 14  1  0
 13 15  1  0
 13 16  1  0
 17  1  1  0
 17 20  1  0
 17 19  1  0
 18 17  1  0
 22 21  1  0
 22 23  2  0
 24 23  1  0
 25 24  2  0
 26 27  2  0
 26 25  1  0
 27 22  1  0
  3 28  1  0
  8 29  1  0
  8 30  1  0
  9 31  1  0
  9 32  1  0
 10 33  1  0
 10 34  1  0
 11 35  1  0
 11 36  1  0
 12 37  1  1
 21 38  1  0
 21 39  1  0
 23 40  1  0
 24 41  1  0
 26 42  1  0
M  ISO  8  28  14  29  13  30  13  31  13  32  13  33  13  34  13  35  13
M  ISO  7  36  13  37  13  38   8  39   8  40  14  41  14  42  14
M  END
>  <minimizedAffinity>  (1) 
-6.16497517

>  <minimizedRMSD>  (1) 
0.800506353

$$$$
