
     RDKit          3D

 24 25  0  0  0  0  0  0  0  0999 V2000
   38.9500   24.4240   36.1470 C   0  0  0  0  0  0  0  0  0  0  0  0
   40.2210   23.9250   35.8090 C   0  0  0  0  0  0  0  0  0  0  0  0
   40.8160   22.9920   36.6590 C   0  0  0  0  0  0  0  0  0  0  0  0
   40.1180   22.6240   37.7730 N   0  0  0  0  0  0  0  0  0  0  0  0
   38.9060   23.1190   38.0670 C   0  0  0  0  0  0  0  0  0  0  0  0
   38.3310   24.0140   37.2560 N   0  0  0  0  0  0  0  0  0  0  0  0
   38.2930   25.3800   35.3130 N   0  0  0  0  0  0  0  0  0  0  0  0
   38.2020   26.6630   35.7260 C   0  0  0  0  0  0  0  0  0  0  0  0
   37.5540   27.5730   34.8890 C   0  0  0  0  0  0  0  0  0  0  0  0
   37.0560   27.0830   33.7000 C   0  0  0  0  0  0  0  0  0  0  0  0
   36.3920   27.9590   32.8170 N   0  0  0  0  0  0  0  0  0  0  0  0
   37.1740   25.7930   33.3350 N   0  0  0  0  0  0  0  0  0  0  0  0
   37.8050   24.9030   34.1500 C   0  0  0  0  0  0  0  0  0  0  0  0
   37.9210   23.6990   33.8190 O   0  0  0  0  0  0  0  0  0  0  0  0
   42.1640   22.4280   36.3490 C   0  0  0  0  0  0  0  0  0  0  0  0
   40.7338   24.2623   34.8962 H   0  0  0  0  0  0  0  0  0  0  0  0
   38.3841   22.7881   38.9770 H   0  0  0  0  0  0  0  0  0  0  0  0
   38.6248   26.9803   36.6906 H   0  0  0  0  0  0  0  0  0  0  0  0
   37.4456   28.6322   35.1651 H   0  0  0  0  0  0  0  0  0  0  0  0
   36.0158   27.6047   31.9260 H   0  0  0  0  0  0  0  0  0  0  0  0
   36.2831   28.9533   33.0629 H   0  0  0  0  0  0  0  0  0  0  0  0
   42.6934   22.2065   37.2874 H   0  0  0  0  0  0  0  0  0  0  0  0
   42.0490   21.5025   35.7656 H   0  0  0  0  0  0  0  0  0  0  0  0
   42.7423   23.1596   35.7656 H   0  0  0  0  0  0  0  0  0  0  0  0
  1  6  1  0
  2  1  2  0
  2  3  1  0
  3  4  2  0
  4  5  1  0
  6  5  2  0
  7  8  1  0
  7  1  1  0
  9  8  2  0
 10  9  1  0
 11 10  1  0
 12 10  2  0
 12 13  1  0
 13  7  1  0
 14 13  2  0
 15  3  1  0
  2 16  1  0
  5 17  1  0
  8 18  1  0
  9 19  1  0
 11 20  1  0
 11 21  1  0
 15 22  1  0
 15 23  1  0
 15 24  1  0
M  ISO  7  16  14  17  14  18  14  19  14  22   8  23   8  24   8
M  END
>  <minimizedAffinity>  (1) 
-4.2009573

>  <minimizedRMSD>  (1) 
6.89439917

$$$$
