
     RDKit          3D

 27 28  0  0  0  0  0  0  0  0999 V2000
   37.9060   22.8600   34.8860 C   0  0  0  0  0  0  0  0  0  0  0  0
   37.0650   21.7440   34.9030 C   0  0  0  0  0  0  0  0  0  0  0  0
   36.5290   21.2880   33.6800 C   0  0  0  0  0  0  0  0  0  0  0  0
   36.8790   21.9820   32.5670 N   0  0  0  0  0  0  0  0  0  0  0  0
   37.6930   23.0530   32.5820 C   0  0  0  0  0  0  0  0  0  0  0  0
   38.1960   23.4780   33.7480 N   0  0  0  0  0  0  0  0  0  0  0  0
   38.4640   23.3470   36.1060 N   0  0  0  0  0  0  0  0  0  0  0  0
   39.9070   23.5270   36.2430 C   0  0  0  0  0  0  0  0  0  0  0  0
   40.3230   22.4510   37.2400 C   0  0  0  0  0  0  0  0  0  0  0  0
   39.4730   22.4110   38.3900 N   0  0  0  0  0  0  0  0  0  0  0  0
   38.5850   23.5420   38.4910 C   0  0  0  0  0  0  0  0  0  0  0  0
   37.7040   23.6950   37.2680 C   0  0  0  0  0  0  0  0  0  0  0  0
   35.6270   20.1030   33.6440 C   0  0  0  0  0  0  0  0  0  0  0  0
   36.8265   21.2331   35.8475 H   0  0  0  0  0  0  0  0  0  0  0  0
   37.9428   23.5742   31.6461 H   0  0  0  0  0  0  0  0  0  0  0  0
   40.4122   23.3805   35.2769 H   0  0  0  0  0  0  0  0  0  0  0  0
   40.1762   24.5396   36.5779 H   0  0  0  0  0  0  0  0  0  0  0  0
   40.2849   21.4724   36.7391 H   0  0  0  0  0  0  0  0  0  0  0  0
   41.3400   22.6900   37.5845 H   0  0  0  0  0  0  0  0  0  0  0  0
   38.9042   21.5535   38.3448 H   0  0  0  0  0  0  0  0  0  0  0  0
   37.9432   23.4095   39.3745 H   0  0  0  0  0  0  0  0  0  0  0  0
   39.2035   24.4478   38.5745 H   0  0  0  0  0  0  0  0  0  0  0  0
   37.3612   24.7371   37.1872 H   0  0  0  0  0  0  0  0  0  0  0  0
   36.8280   23.0351   37.3533 H   0  0  0  0  0  0  0  0  0  0  0  0
   35.3898   19.7914   34.6719 H   0  0  0  0  0  0  0  0  0  0  0  0
   34.6979   20.3653   33.1167 H   0  0  0  0  0  0  0  0  0  0  0  0
   36.1272   19.2773   33.1167 H   0  0  0  0  0  0  0  0  0  0  0  0
  1  2  2  0
  1  7  1  0
  3  2  1  0
  4  5  1  0
  4  3  2  0
  5  6  2  0
  6  1  1  0
  7  8  1  0
  7 12  1  0
  8  9  1  0
  9 10  1  0
 10 11  1  0
 12 11  1  0
 13  3  1  0
  2 14  1  0
  5 15  1  0
  8 16  1  0
  8 17  1  0
  9 18  1  0
  9 19  1  0
 10 20  1  0
 11 21  1  0
 11 22  1  0
 12 23  1  0
 12 24  1  0
 13 25  1  0
 13 26  1  0
 13 27  1  0
M  ISO  8  14  14  15  14  16  13  17  13  18  13  19  13  20   5  21  13
M  ISO  6  22  13  23  13  24  13  25   8  26   8  27   8
M  END
>  <minimizedAffinity>  (1) 
-4.19539642

>  <minimizedRMSD>  (1) 
4.75952816

$$$$
