
     RDKit          3D

 34 36  0  0  0  0  0  0  0  0999 V2000
   38.2010   26.7290   34.3560 C   0  0  0  0  0  0  0  0  0  0  0  0
   37.0910   27.6270   34.8050 C   0  0  0  0  0  0  0  0  0  0  0  0
   38.6670   27.1880   32.9860 C   0  0  0  0  0  0  0  0  0  0  0  0
   39.4080   27.0210   35.2700 C   0  0  0  0  0  0  0  0  0  0  0  0
   40.6960   26.8250   34.5520 C   0  0  0  0  0  0  0  0  0  0  0  0
   41.5050   25.7510   34.7320 N   0  0  0  0  0  0  0  0  0  0  0  0
   42.5360   25.8920   33.9580 O   0  0  0  0  0  0  0  0  0  0  0  0
   42.4700   26.9910   33.2710 C   0  0  0  0  0  0  0  0  0  0  0  0
   41.3210   27.5840   33.6350 N   0  0  0  0  0  0  0  0  0  0  0  0
   37.8890   24.9830   34.4450 S   0  0  0  0  0  0  0  0  0  0  0  0
   38.2840   23.7580   38.3060 C   0  0  0  0  0  0  0  0  0  0  0  0
   37.8040   24.3790   37.1400 C   0  0  0  0  0  0  0  0  0  0  0  0
   38.4600   24.2170   35.9400 C   0  0  0  0  0  0  0  0  0  0  0  0
   39.5790   23.4330   35.9510 N   0  0  0  0  0  0  0  0  0  0  0  0
   40.0310   22.8450   37.0590 C   0  0  0  0  0  0  0  0  0  0  0  0
   39.4060   22.9900   38.2400 N   0  0  0  0  0  0  0  0  0  0  0  0
   41.2130   22.0460   36.9530 N   0  0  0  0  0  0  0  0  0  0  0  0
   42.1840   22.1310   36.0280 C   0  0  0  0  0  0  0  0  0  0  0  0
   43.1380   21.2060   36.2610 N   0  0  0  0  0  0  0  0  0  0  0  0
   42.7390   20.5340   37.3600 C   0  0  0  0  0  0  0  0  0  0  0  0
   41.5590   21.0510   37.7830 N   0  0  0  0  0  0  0  0  0  0  0  0
   37.0609   27.6513   35.9043 H   0  0  0  0  0  0  0  0  0  0  0  0
   37.2630   28.6431   34.4203 H   0  0  0  0  0  0  0  0  0  0  0  0
   36.1332   27.2466   34.4203 H   0  0  0  0  0  0  0  0  0  0  0  0
   39.4463   27.9556   33.1019 H   0  0  0  0  0  0  0  0  0  0  0  0
   39.0764   26.3306   32.4317 H   0  0  0  0  0  0  0  0  0  0  0  0
   37.8159   27.6104   32.4317 H   0  0  0  0  0  0  0  0  0  0  0  0
   39.3483   28.0625   35.6190 H   0  0  0  0  0  0  0  0  0  0  0  0
   39.3758   26.3212   36.1181 H   0  0  0  0  0  0  0  0  0  0  0  0
   43.2044   27.3610   32.5404 H   0  0  0  0  0  0  0  0  0  0  0  0
   37.7580   23.8913   39.2628 H   0  0  0  0  0  0  0  0  0  0  0  0
   36.8969   24.9995   37.1864 H   0  0  0  0  0  0  0  0  0  0  0  0
   42.1989   22.8528   35.1981 H   0  0  0  0  0  0  0  0  0  0  0  0
   43.2814   19.7033   37.8350 H   0  0  0  0  0  0  0  0  0  0  0  0
  1 10  1  0
  1  2  1  0
  1  4  1  0
  3  1  1  0
  5  6  2  0
  5  4  1  0
  7  6  1  0
  8  9  2  0
  8  7  1  0
  9  5  1  0
 10 13  1  0
 12 11  2  0
 13 14  2  0
 13 12  1  0
 14 15  1  0
 15 16  2  0
 16 11  1  0
 17 15  1  0
 17 21  1  0
 18 19  2  0
 18 17  1  0
 19 20  1  0
 20 21  2  0
  2 22  1  0
  2 23  1  0
  2 24  1  0
  3 25  1  0
  3 26  1  0
  3 27  1  0
  4 28  1  0
  4 29  1  0
  8 30  1  0
 11 31  1  0
 12 32  1  0
 18 33  1  0
 20 34  1  0
M  ISO  8  22   8  23   8  24   8  25   8  26   8  27   8  28   8  29   8
M  ISO  5  30  14  31  14  32  14  33  14  34  14
M  END
>  <minimizedAffinity>  (1) 
-4.9129982

>  <minimizedRMSD>  (1) 
0.651858211

$$$$
