
     RDKit          3D

 41 43  0  0  0  0  0  0  0  0999 V2000
   38.1750   26.5590   34.2380 C   0  0  0  0  0  0  0  0  0  0  0  0
   36.9100   27.2130   34.7120 C   0  0  0  0  0  0  0  0  0  0  0  0
   38.5070   27.1090   32.8590 C   0  0  0  0  0  0  0  0  0  0  0  0
   39.3160   27.0490   35.1370 C   0  0  0  0  0  0  0  0  0  0  0  0
   40.6390   26.9190   34.4360 C   0  0  0  0  0  0  0  0  0  0  0  0
   41.5730   26.0090   34.7640 N   0  0  0  0  0  0  0  0  0  0  0  0
   42.5940   26.1590   33.9710 O   0  0  0  0  0  0  0  0  0  0  0  0
   42.3790   27.1310   33.1250 C   0  0  0  0  0  0  0  0  0  0  0  0
   41.1570   27.6140   33.4080 N   0  0  0  0  0  0  0  0  0  0  0  0
   38.1840   24.7770   34.2960 S   0  0  0  0  0  0  0  0  0  0  0  0
   38.0620   23.5430   38.1800 C   0  0  0  0  0  0  0  0  0  0  0  0
   37.7010   24.0860   36.9320 C   0  0  0  0  0  0  0  0  0  0  0  0
   38.6060   24.0970   35.8930 C   0  0  0  0  0  0  0  0  0  0  0  0
   39.8290   23.5720   36.1300 N   0  0  0  0  0  0  0  0  0  0  0  0
   40.1750   23.0540   37.3200 C   0  0  0  0  0  0  0  0  0  0  0  0
   39.3080   23.0370   38.3390 N   0  0  0  0  0  0  0  0  0  0  0  0
   41.5380   22.4870   37.5310 C   0  0  0  0  0  0  0  0  0  0  0  0
   42.4120   23.1330   36.4650 C   0  0  0  0  0  0  0  0  0  0  0  0
   43.5340   22.1050   36.3690 C   0  0  0  0  0  0  0  0  0  0  0  0
   42.7090   20.8150   36.3090 C   0  0  0  0  0  0  0  0  0  0  0  0
   41.6240   21.0140   37.3360 C   0  0  0  0  0  0  0  0  0  0  0  0
   36.8919   27.2224   35.8118 H   0  0  0  0  0  0  0  0  0  0  0  0
   36.8680   28.2458   34.3358 H   0  0  0  0  0  0  0  0  0  0  0  0
   36.0430   26.6502   34.3358 H   0  0  0  0  0  0  0  0  0  0  0  0
   39.0728   28.0464   32.9646 H   0  0  0  0  0  0  0  0  0  0  0  0
   39.1130   26.3750   32.3077 H   0  0  0  0  0  0  0  0  0  0  0  0
   37.5752   27.3033   32.3077 H   0  0  0  0  0  0  0  0  0  0  0  0
   39.1455   28.1051   35.3932 H   0  0  0  0  0  0  0  0  0  0  0  0
   39.3370   26.4333   36.0483 H   0  0  0  0  0  0  0  0  0  0  0  0
   43.0618   27.4838   32.3380 H   0  0  0  0  0  0  0  0  0  0  0  0
   37.3433   23.5300   39.0126 H   0  0  0  0  0  0  0  0  0  0  0  0
   36.6935   24.5027   36.7861 H   0  0  0  0  0  0  0  0  0  0  0  0
   41.8394   22.6848   38.5702 H   0  0  0  0  0  0  0  0  0  0  0  0
   41.8763   23.2404   35.5103 H   0  0  0  0  0  0  0  0  0  0  0  0
   42.7441   24.1549   36.7005 H   0  0  0  0  0  0  0  0  0  0  0  0
   44.1393   22.2450   35.4612 H   0  0  0  0  0  0  0  0  0  0  0  0
   44.2708   22.1460   37.1847 H   0  0  0  0  0  0  0  0  0  0  0  0
   42.2759   20.6765   35.3074 H   0  0  0  0  0  0  0  0  0  0  0  0
   43.3162   19.9200   36.5095 H   0  0  0  0  0  0  0  0  0  0  0  0
   40.6665   20.6169   36.9677 H   0  0  0  0  0  0  0  0  0  0  0  0
   41.8451   20.4867   38.2757 H   0  0  0  0  0  0  0  0  0  0  0  0
  1 10  1  0
  1  2  1  0
  1  4  1  0
  3  1  1  0
  5  6  2  0
  5  4  1  0
  7  6  1  0
  8  9  2  0
  8  7  1  0
  9  5  1  0
 10 13  1  0
 11 16  2  0
 12 11  1  0
 13 14  1  0
 13 12  2  0
 14 15  2  0
 15 17  1  0
 15 16  1  0
 18 17  1  0
 19 18  1  0
 20 19  1  0
 20 21  1  0
 21 17  1  0
  2 22  1  0
  2 23  1  0
  2 24  1  0
  3 25  1  0
  3 26  1  0
  3 27  1  0
  4 28  1  0
  4 29  1  0
  8 30  1  0
 11 31  1  0
 12 32  1  0
 17 33  1  0
 18 34  1  0
 18 35  1  0
 19 36  1  0
 19 37  1  0
 20 38  1  0
 20 39  1  0
 21 40  1  0
 21 41  1  0
M  ISO  8  22   8  23   8  24   8  25   8  26   8  27   8  28   8  29   8
M  ISO  8  30  14  31  14  32  14  33  13  34  13  35  13  36  13  37  13
M  ISO  4  38  13  39  13  40  13  41  13
M  END
>  <minimizedAffinity>  (1) 
-4.90453339

>  <minimizedRMSD>  (1) 
0.953582525

$$$$
