
     RDKit          3D

 19 20  0  0  0  0  0  0  0  0999 V2000
   38.3840   24.4010   36.2320 C   0  0  0  0  0  0  0  0  0  0  0  0
   39.4490   23.5020   36.2370 C   0  0  0  0  0  0  0  0  0  0  0  0
   39.8390   22.8560   37.4060 C   0  0  0  0  0  0  0  0  0  0  0  0
   39.1250   23.1530   38.5210 N   0  0  0  0  0  0  0  0  0  0  0  0
   38.1020   24.0160   38.5190 C   0  0  0  0  0  0  0  0  0  0  0  0
   37.7520   24.6210   37.3800 N   0  0  0  0  0  0  0  0  0  0  0  0
   38.0180   25.0540   34.9690 C   0  0  0  0  0  0  0  0  0  0  0  0
   38.3250   24.3410   33.7130 C   0  0  0  0  0  0  0  0  0  0  0  0
   37.7390   25.4440   32.4910 S   0  0  0  0  0  0  0  0  0  0  0  0
   37.1500   26.7340   33.7800 C   0  0  0  0  0  0  0  0  0  0  0  0
   37.4360   26.2210   34.7710 N   0  0  0  0  0  0  0  0  0  0  0  0
   40.9730   21.8930   37.4290 C   0  0  0  0  0  0  0  0  0  0  0  0
   39.9903   23.2998   35.3010 H   0  0  0  0  0  0  0  0  0  0  0  0
   37.5529   24.2259   39.4488 H   0  0  0  0  0  0  0  0  0  0  0  0
   38.8036   23.3596   33.5797 H   0  0  0  0  0  0  0  0  0  0  0  0
   36.6660   27.7082   33.6166 H   0  0  0  0  0  0  0  0  0  0  0  0
   41.2402   21.6661   38.4716 H   0  0  0  0  0  0  0  0  0  0  0  0
   40.6772   20.9659   36.9162 H   0  0  0  0  0  0  0  0  0  0  0  0
   41.8399   22.3351   36.9162 H   0  0  0  0  0  0  0  0  0  0  0  0
  1  2  2  0
  1  6  1  0
  2  3  1  0
  3 12  1  0
  3  4  2  0
  5  4  1  0
  6  5  2  0
  7  1  1  0
  8  7  2  0
  9  8  1  0
  9 10  1  0
 10 11  2  0
 11  7  1  0
  2 13  1  0
  5 14  1  0
  8 15  1  0
 10 16  1  0
 12 17  1  0
 12 18  1  0
 12 19  1  0
M  ISO  7  13  14  14  14  15  14  16  14  17   8  18   8  19   8
M  END
>  <minimizedAffinity>  (1) 
-3.80736661

>  <minimizedRMSD>  (1) 
5.74506092

$$$$
