
     RDKit          3D

 23 24  0  0  0  0  0  0  0  0999 V2000
   37.9750   25.1270   34.9270 C   0  0  0  0  0  0  0  0  0  0  0  0
   37.8600   25.1160   36.3160 C   0  0  0  0  0  0  0  0  0  0  0  0
   38.3250   24.0170   37.0310 C   0  0  0  0  0  0  0  0  0  0  0  0
   38.8770   22.9940   36.3310 N   0  0  0  0  0  0  0  0  0  0  0  0
   38.9770   23.0260   34.9850 C   0  0  0  0  0  0  0  0  0  0  0  0
   38.5270   24.0860   34.3130 N   0  0  0  0  0  0  0  0  0  0  0  0
   37.4940   26.2680   34.1620 C   0  0  0  0  0  0  0  0  0  0  0  0
   36.8030   27.3370   34.6580 C   0  0  0  0  0  0  0  0  0  0  0  0
   36.3650   28.3960   33.9050 C   0  0  0  0  0  0  0  0  0  0  0  0
   36.6490   28.3760   32.5380 C   0  0  0  0  0  0  0  0  0  0  0  0
   37.3440   27.3340   31.9480 C   0  0  0  0  0  0  0  0  0  0  0  0
   37.7350   26.3230   32.8010 C   0  0  0  0  0  0  0  0  0  0  0  0
   38.2270   23.9570   38.5160 C   0  0  0  0  0  0  0  0  0  0  0  0
   37.4057   25.9686   36.8421 H   0  0  0  0  0  0  0  0  0  0  0  0
   39.4281   22.1806   34.4447 H   0  0  0  0  0  0  0  0  0  0  0  0
   36.5828   27.3491   35.7357 H   0  0  0  0  0  0  0  0  0  0  0  0
   35.8108   29.2298   34.3607 H   0  0  0  0  0  0  0  0  0  0  0  0
   36.3102   29.2137   31.9107 H   0  0  0  0  0  0  0  0  0  0  0  0
   37.5692   27.3137   30.8715 H   0  0  0  0  0  0  0  0  0  0  0  0
   38.2898   25.4828   32.3580 H   0  0  0  0  0  0  0  0  0  0  0  0
   39.0847   24.4821   38.9616 H   0  0  0  0  0  0  0  0  0  0  0  0
   37.2930   24.4383   38.8416 H   0  0  0  0  0  0  0  0  0  0  0  0
   38.2309   22.9063   38.8416 H   0  0  0  0  0  0  0  0  0  0  0  0
  1  2  2  0
  2  3  1  0
  3 13  1  0
  4  3  2  0
  5  4  1  0
  6  1  1  0
  6  5  2  0
  7  8  2  0
  7  1  1  0
  9  8  1  0
 10  9  2  0
 11 10  1  0
 11 12  2  0
 12  7  1  0
  2 14  1  0
  5 15  1  0
  8 16  1  0
  9 17  1  0
 10 18  1  0
 11 19  1  0
 12 20  1  0
 13 21  1  0
 13 22  1  0
 13 23  1  0
M  ISO  8  14  14  15  14  16  14  17  14  18  14  19  14  20  14  21   8
M  ISO  2  22   8  23   8
M  END
>  <minimizedAffinity>  (1) 
-4.07080317

>  <minimizedRMSD>  (1) 
7.15521097

$$$$
