
     RDKit          3D

 18 19  0  0  0  0  0  0  0  0999 V2000
   38.3790   24.3470   36.1840 C   0  0  0  0  0  0  0  0  0  0  0  0
   39.4570   23.4570   36.1670 C   0  0  0  0  0  0  0  0  0  0  0  0
   39.8400   22.8470   37.3640 C   0  0  0  0  0  0  0  0  0  0  0  0
   39.1210   23.1750   38.4780 N   0  0  0  0  0  0  0  0  0  0  0  0
   38.0910   24.0320   38.4650 C   0  0  0  0  0  0  0  0  0  0  0  0
   37.7250   24.6160   37.3100 N   0  0  0  0  0  0  0  0  0  0  0  0
   37.9840   24.9790   34.9290 C   0  0  0  0  0  0  0  0  0  0  0  0
   38.1160   24.4980   33.6790 N   0  0  0  0  0  0  0  0  0  0  0  0
   37.6420   25.3600   32.8220 O   0  0  0  0  0  0  0  0  0  0  0  0
   37.1850   26.4250   33.4680 C   0  0  0  0  0  0  0  0  0  0  0  0
   37.4010   26.1850   34.7930 N   0  0  0  0  0  0  0  0  0  0  0  0
   40.9830   21.8860   37.4210 C   0  0  0  0  0  0  0  0  0  0  0  0
   39.9925   23.2415   35.2306 H   0  0  0  0  0  0  0  0  0  0  0  0
   37.5474   24.2568   39.3945 H   0  0  0  0  0  0  0  0  0  0  0  0
   36.7250   27.3204   33.0246 H   0  0  0  0  0  0  0  0  0  0  0  0
   41.2332   21.6757   38.4713 H   0  0  0  0  0  0  0  0  0  0  0  0
   40.7006   20.9500   36.9168 H   0  0  0  0  0  0  0  0  0  0  0  0
   41.8566   22.3249   36.9168 H   0  0  0  0  0  0  0  0  0  0  0  0
  1  6  1  0
  2  1  2  0
  2  3  1  0
  3 12  1  0
  3  4  2  0
  5  4  1  0
  6  5  2  0
  7  1  1  0
  8  7  2  0
  9 10  1  0
  9  8  1  0
 10 11  2  0
 11  7  1  0
  2 13  1  0
  5 14  1  0
 10 15  1  0
 12 16  1  0
 12 17  1  0
 12 18  1  0
M  ISO  6  13  14  14  14  15  14  16   8  17   8  18   8
M  END
>  <minimizedAffinity>  (1) 
-3.80928397

>  <minimizedRMSD>  (1) 
5.7062149

$$$$
