
     RDKit          3D

 26 27  0  0  0  0  0  0  0  0999 V2000
   40.4370   22.8420   36.0370 C   0  0  0  0  0  0  0  0  0  0  0  0
   39.7870   23.2930   37.1910 C   0  0  0  0  0  0  0  0  0  0  0  0
   38.3990   23.1690   37.2720 C   0  0  0  0  0  0  0  0  0  0  0  0
   37.7480   22.6120   36.2180 N   0  0  0  0  0  0  0  0  0  0  0  0
   38.3980   22.1810   35.1070 C   0  0  0  0  0  0  0  0  0  0  0  0
   39.7340   22.3060   35.0400 N   0  0  0  0  0  0  0  0  0  0  0  0
   41.8510   22.9950   36.0140 N   0  0  0  0  0  0  0  0  0  0  0  0
   42.4380   24.1680   35.7230 C   0  0  0  0  0  0  0  0  0  0  0  0
   43.8290   24.2610   35.7130 C   0  0  0  0  0  0  0  0  0  0  0  0
   44.5120   25.5440   35.3960 C   0  0  0  0  0  0  0  0  0  0  0  0
   44.5890   23.1470   36.0040 C   0  0  0  0  0  0  0  0  0  0  0  0
   45.8520   23.1910   36.0050 O   0  0  0  0  0  0  0  0  0  0  0  0
   44.0080   21.9470   36.3020 N   0  0  0  0  0  0  0  0  0  0  0  0
   42.6630   21.9580   36.2850 C   0  0  0  0  0  0  0  0  0  0  0  0
   42.0840   20.8560   36.5580 O   0  0  0  0  0  0  0  0  0  0  0  0
   37.6540   23.6330   38.4800 C   0  0  0  0  0  0  0  0  0  0  0  0
   40.3591   23.7370   38.0190 H   0  0  0  0  0  0  0  0  0  0  0  0
   37.8379   21.7350   34.2720 H   0  0  0  0  0  0  0  0  0  0  0  0
   41.8237   25.0512   35.4936 H   0  0  0  0  0  0  0  0  0  0  0  0
   44.7842   26.0553   36.3311 H   0  0  0  0  0  0  0  0  0  0  0  0
   45.4212   25.3406   34.8112 H   0  0  0  0  0  0  0  0  0  0  0  0
   43.8356   26.1847   34.8112 H   0  0  0  0  0  0  0  0  0  0  0  0
   44.5553   21.1026   36.5218 H   0  0  0  0  0  0  0  0  0  0  0  0
   38.1832   23.3034   39.3862 H   0  0  0  0  0  0  0  0  0  0  0  0
   37.5898   24.7311   38.4718 H   0  0  0  0  0  0  0  0  0  0  0  0
   36.6401   23.2063   38.4718 H   0  0  0  0  0  0  0  0  0  0  0  0
  1  2  2  0
  2  3  1  0
  3 16  1  0
  4  3  2  0
  5  4  1  0
  6  5  2  0
  6  1  1  0
  7  1  1  0
  7 14  1  0
  8  7  1  0
  9  8  2  0
  9 11  1  0
 10  9  1  0
 11 12  2  0
 11 13  1  0
 14 13  1  0
 14 15  2  0
  2 17  1  0
  5 18  1  0
  8 19  1  0
 10 20  1  0
 10 21  1  0
 10 22  1  0
 13 23  1  0
 16 24  1  0
 16 25  1  0
 16 26  1  0
M  ISO  8  17  14  18  14  19  14  20   8  21   8  22   8  23   9  24   8
M  ISO  2  25   8  26   8
M  END
>  <minimizedAffinity>  (1) 
-3.65458727

>  <minimizedRMSD>  (1) 
2.47576451

$$$$
