
     RDKit          3D

 20 20  0  0  0  0  0  0  0  0999 V2000
   39.8120   23.0970   35.4600 C   0  0  0  0  0  0  0  0  0  0  0  0
   39.0460   22.5220   34.4440 C   0  0  0  0  0  0  0  0  0  0  0  0
   38.0650   23.2910   33.8240 C   0  0  0  0  0  0  0  0  0  0  0  0
   37.9070   24.5770   34.2460 N   0  0  0  0  0  0  0  0  0  0  0  0
   38.6500   25.1140   35.2210 C   0  0  0  0  0  0  0  0  0  0  0  0
   39.5960   24.3590   35.8130 N   0  0  0  0  0  0  0  0  0  0  0  0
   40.8200   22.3290   36.1090 N   0  0  0  0  0  0  0  0  0  0  0  0
   40.7530   21.9110   37.4590 C   0  0  0  0  0  0  0  0  0  0  0  0
   39.8290   22.5270   38.1540 N   0  0  0  0  0  0  0  0  0  0  0  0
   41.6500   20.8970   37.9480 N   0  0  0  0  0  0  0  0  0  0  0  0
   39.7450   22.2450   39.1630 H   0  0  0  0  0  0  0  0  0  0  0  0
   37.2260   22.7120   32.7370 C   0  0  0  0  0  0  0  0  0  0  0  0
   39.2148   21.4788   34.1386 H   0  0  0  0  0  0  0  0  0  0  0  0
   38.4907   26.1563   35.5344 H   0  0  0  0  0  0  0  0  0  0  0  0
   41.6501   22.0609   35.5613 H   0  0  0  0  0  0  0  0  0  0  0  0
   41.5988   20.5948   38.9313 H   0  0  0  0  0  0  0  0  0  0  0  0
   42.3431   20.4736   37.3146 H   0  0  0  0  0  0  0  0  0  0  0  0
   36.3970   22.1399   33.1790 H   0  0  0  0  0  0  0  0  0  0  0  0
   36.8207   23.5236   32.1148 H   0  0  0  0  0  0  0  0  0  0  0  0
   37.8410   22.0452   32.1148 H   0  0  0  0  0  0  0  0  0  0  0  0
  1  6  2  0
  1  7  1  0
  2  1  1  0
  3  4  1  0
  3  2  2  0
  4  5  2  0
  5  6  1  0
  7  8  1  0
  8 10  1  0
  8  9  2  0
  9 11  1  0
 12  3  1  0
  2 13  1  0
  5 14  1  0
  7 15  1  0
 10 16  1  0
 10 17  1  0
 12 18  1  0
 12 19  1  0
 12 20  1  0
M  ISO  5  13  14  14  14  18   8  19   8  20   8
M  END
>  <minimizedAffinity>  (1) 
-3.52365327

>  <minimizedRMSD>  (1) 
3.26673341

$$$$
