
     RDKit          3D

 22 22  0  0  0  0  0  0  0  0999 V2000
   38.3400   25.4460   36.2080 C   0  0  0  0  0  0  0  0  0  0  0  0
   38.2880   24.4580   35.2200 C   0  0  0  0  0  0  0  0  0  0  0  0
   37.9800   23.1410   35.5960 C   0  0  0  0  0  0  0  0  0  0  0  0
   37.7500   22.9150   36.9150 N   0  0  0  0  0  0  0  0  0  0  0  0
   37.8080   23.8940   37.8520 C   0  0  0  0  0  0  0  0  0  0  0  0
   38.1030   25.1500   37.4860 N   0  0  0  0  0  0  0  0  0  0  0  0
   37.9090   22.0440   34.5880 C   0  0  0  0  0  0  0  0  0  0  0  0
   38.6660   26.8270   35.7920 C   0  0  0  0  0  0  0  0  0  0  0  0
   37.4480   27.4320   35.0920 C   0  0  0  0  0  0  0  0  0  0  0  0
   39.8630   26.9110   34.8900 C   0  0  0  0  0  0  0  0  0  0  0  0
   38.4849   24.7082   34.1671 H   0  0  0  0  0  0  0  0  0  0  0  0
   37.6137   23.6585   38.9088 H   0  0  0  0  0  0  0  0  0  0  0  0
   37.8463   21.0749   35.1046 H   0  0  0  0  0  0  0  0  0  0  0  0
   37.0179   22.1820   33.9580 H   0  0  0  0  0  0  0  0  0  0  0  0
   38.8104   22.0660   33.9580 H   0  0  0  0  0  0  0  0  0  0  0  0
   38.9225   27.3911   36.7008 H   0  0  0  0  0  0  0  0  0  0  0  0
   36.7310   27.7882   35.8463 H   0  0  0  0  0  0  0  0  0  0  0  0
   37.7681   28.2758   34.4631 H   0  0  0  0  0  0  0  0  0  0  0  0
   36.9690   26.6671   34.4631 H   0  0  0  0  0  0  0  0  0  0  0  0
   40.7770   26.9751   35.4987 H   0  0  0  0  0  0  0  0  0  0  0  0
   39.9074   26.0138   34.2552 H   0  0  0  0  0  0  0  0  0  0  0  0
   39.7817   27.8056   34.2552 H   0  0  0  0  0  0  0  0  0  0  0  0
  1  6  2  0
  2  3  2  0
  2  1  1  0
  3  4  1  0
  4  5  2  0
  6  5  1  0
  7  3  1  0
  8  1  1  0
  9  8  1  0
 10  8  1  0
  2 11  1  0
  5 12  1  0
  7 13  1  0
  7 14  1  0
  7 15  1  0
  8 16  1  0
  9 17  1  0
  9 18  1  0
  9 19  1  0
 10 20  1  0
 10 21  1  0
 10 22  1  0
M  ISO  8  11  14  12  14  13   8  14   8  15   8  16   8  17   8  18   8
M  ISO  4  19   8  20   8  21   8  22   8
M  END
>  <minimizedAffinity>  (1) 
-3.46117616

>  <minimizedRMSD>  (1) 
4.97748709

$$$$
