
     RDKit          3D

 29 30  0  0  0  0  0  0  0  0999 V2000
   38.3200   26.4600   34.3070 C   0  0  0  0  0  0  0  0  0  0  0  0
   37.0780   27.2010   34.7150 C   0  0  0  0  0  0  0  0  0  0  0  0
   38.7080   26.9050   32.9130 C   0  0  0  0  0  0  0  0  0  0  0  0
   39.4580   27.0080   35.2040 C   0  0  0  0  0  0  0  0  0  0  0  0
   40.7940   26.7660   34.5900 C   0  0  0  0  0  0  0  0  0  0  0  0
   41.5620   25.6860   34.8700 N   0  0  0  0  0  0  0  0  0  0  0  0
   42.6540   25.7810   34.1710 O   0  0  0  0  0  0  0  0  0  0  0  0
   42.6600   26.8540   33.4460 C   0  0  0  0  0  0  0  0  0  0  0  0
   41.4980   27.4810   33.6990 N   0  0  0  0  0  0  0  0  0  0  0  0
   38.3030   24.7050   34.5190 S   0  0  0  0  0  0  0  0  0  0  0  0
   37.9880   24.2420   38.5490 C   0  0  0  0  0  0  0  0  0  0  0  0
   37.7990   24.6840   37.2390 C   0  0  0  0  0  0  0  0  0  0  0  0
   38.5300   24.1530   36.1970 C   0  0  0  0  0  0  0  0  0  0  0  0
   39.4340   23.1880   36.5070 N   0  0  0  0  0  0  0  0  0  0  0  0
   39.6200   22.7590   37.7680 C   0  0  0  0  0  0  0  0  0  0  0  0
   38.9120   23.2720   38.7880 N   0  0  0  0  0  0  0  0  0  0  0  0
   40.5810   21.7650   37.9260 O   0  0  0  0  0  0  0  0  0  0  0  0
   37.0168   27.2375   35.8127 H   0  0  0  0  0  0  0  0  0  0  0  0
   37.1142   28.2252   34.3155 H   0  0  0  0  0  0  0  0  0  0  0  0
   36.1939   26.6826   34.3155 H   0  0  0  0  0  0  0  0  0  0  0  0
   39.4296   27.7326   32.9798 H   0  0  0  0  0  0  0  0  0  0  0  0
   39.1651   26.0626   32.3731 H   0  0  0  0  0  0  0  0  0  0  0  0
   37.8112   27.2431   32.3731 H   0  0  0  0  0  0  0  0  0  0  0  0
   39.3170   28.0903   35.3408 H   0  0  0  0  0  0  0  0  0  0  0  0
   39.4202   26.4858   36.1714 H   0  0  0  0  0  0  0  0  0  0  0  0
   43.4549   27.1853   32.7617 H   0  0  0  0  0  0  0  0  0  0  0  0
   37.4002   24.6703   39.3743 H   0  0  0  0  0  0  0  0  0  0  0  0
   37.0553   25.4682   37.0342 H   0  0  0  0  0  0  0  0  0  0  0  0
   40.7723   21.4001   38.8262 H   0  0  0  0  0  0  0  0  0  0  0  0
  1 10  1  0
  1  2  1  0
  1  4  1  0
  3  1  1  0
  5  6  2  0
  5  4  1  0
  7  6  1  0
  8  9  2  0
  8  7  1  0
  9  5  1  0
 10 13  1  0
 11 16  2  0
 12 11  1  0
 13 14  1  0
 13 12  2  0
 14 15  2  0
 15 17  1  0
 15 16  1  0
  2 18  1  0
  2 19  1  0
  2 20  1  0
  3 21  1  0
  3 22  1  0
  3 23  1  0
  4 24  1  0
  4 25  1  0
  8 26  1  0
 11 27  1  0
 12 28  1  0
 17 29  1  0
M  ISO  8  18   8  19   8  20   8  21   8  22   8  23   8  24   8  25   8
M  ISO  4  26  14  27  14  28  14  29   3
M  END
>  <minimizedAffinity>  (1) 
-4.88021326

>  <minimizedRMSD>  (1) 
0.184094474

$$$$
