
     RDKit          3D

 14 14  0  0  0  0  0  0  0  0999 V2000
   40.3540   22.1110   36.8130 C   0  0  0  0  0  0  0  0  0  0  0  0
   39.7970   22.8810   37.8410 C   0  0  0  0  0  0  0  0  0  0  0  0
   38.5590   23.5000   37.6220 C   0  0  0  0  0  0  0  0  0  0  0  0
   37.9700   23.3050   36.3940 N   0  0  0  0  0  0  0  0  0  0  0  0
   38.5420   22.5570   35.4380 C   0  0  0  0  0  0  0  0  0  0  0  0
   39.7280   21.9650   35.6520 N   0  0  0  0  0  0  0  0  0  0  0  0
   37.9100   24.3360   38.6800 C   0  0  0  0  0  0  0  0  0  0  0  0
   41.9410   21.3000   37.0550 S   0  0  0  0  0  0  0  0  0  0  0  0
   40.3206   22.9978   38.8013 H   0  0  0  0  0  0  0  0  0  0  0  0
   38.0348   22.4277   34.4705 H   0  0  0  0  0  0  0  0  0  0  0  0
   38.2006   23.9617   39.6727 H   0  0  0  0  0  0  0  0  0  0  0  0
   38.2356   25.3812   38.5725 H   0  0  0  0  0  0  0  0  0  0  0  0
   36.8167   24.2797   38.5725 H   0  0  0  0  0  0  0  0  0  0  0  0
   42.1892   21.1732   38.3963 H   0  0  0  0  0  0  0  0  0  0  0  0
  1  8  1  0
  1  2  2  0
  3  2  1  0
  3  7  1  0
  4  3  2  0
  5  6  2  0
  5  4  1  0
  6  1  1  0
  2  9  1  0
  5 10  1  0
  7 11  1  0
  7 12  1  0
  7 13  1  0
  8 14  1  0
M  ISO  6   9  14  10  14  11   8  12   8  13   8  14  11
M  END
>  <minimizedAffinity>  (1) 
-3.01055551

>  <minimizedRMSD>  (1) 
0.462805241

$$$$
