
     RDKit          3D

 14 14  0  0  0  0  0  0  0  0999 V2000
   40.3370   22.0160   37.1240 C   0  0  0  0  0  0  0  0  0  0  0  0
   39.7100   22.8510   38.0610 C   0  0  0  0  0  0  0  0  0  0  0  0
   38.6100   23.6260   37.6390 C   0  0  0  0  0  0  0  0  0  0  0  0
   38.2200   23.5180   36.3390 N   0  0  0  0  0  0  0  0  0  0  0  0
   38.8530   22.6990   35.4630 C   0  0  0  0  0  0  0  0  0  0  0  0
   39.8950   21.9630   35.8600 N   0  0  0  0  0  0  0  0  0  0  0  0
   37.9070   24.5340   38.6050 C   0  0  0  0  0  0  0  0  0  0  0  0
   41.3980   21.3010   37.6300 O   0  0  0  0  0  0  0  0  0  0  0  0
   40.0679   22.9000   39.1000 H   0  0  0  0  0  0  0  0  0  0  0  0
   38.5069   22.6403   34.4205 H   0  0  0  0  0  0  0  0  0  0  0  0
   38.1439   24.2280   39.6347 H   0  0  0  0  0  0  0  0  0  0  0  0
   38.2410   25.5696   38.4442 H   0  0  0  0  0  0  0  0  0  0  0  0
   36.8207   24.4700   38.4442 H   0  0  0  0  0  0  0  0  0  0  0  0
   41.9037   20.6841   37.0437 H   0  0  0  0  0  0  0  0  0  0  0  0
  1  8  1  0
  1  2  2  0
  3  2  1  0
  3  7  1  0
  4  3  2  0
  5  6  2  0
  5  4  1  0
  6  1  1  0
  2  9  1  0
  5 10  1  0
  7 11  1  0
  7 12  1  0
  7 13  1  0
  8 14  1  0
M  ISO  6   9  14  10  14  11   8  12   8  13   8  14   3
M  END
>  <minimizedAffinity>  (1) 
-3.1429317

>  <minimizedRMSD>  (1) 
0.393086612

$$$$
