
     RDKit          3D

 16 16  0  0  0  0  0  0  0  0999 V2000
   40.2510   22.1530   36.9720 C   0  0  0  0  0  0  0  0  0  0  0  0
   39.7500   22.9920   37.9680 C   0  0  0  0  0  0  0  0  0  0  0  0
   38.5060   23.6030   37.7390 C   0  0  0  0  0  0  0  0  0  0  0  0
   37.8650   23.3440   36.5660 N   0  0  0  0  0  0  0  0  0  0  0  0
   38.3790   22.5310   35.6300 C   0  0  0  0  0  0  0  0  0  0  0  0
   39.5730   21.9390   35.8410 N   0  0  0  0  0  0  0  0  0  0  0  0
   37.9110   24.5160   38.7720 C   0  0  0  0  0  0  0  0  0  0  0  0
   41.5820   21.5290   37.2710 C   0  0  0  0  0  0  0  0  0  0  0  0
   40.3089   23.1686   38.8988 H   0  0  0  0  0  0  0  0  0  0  0  0
   37.8293   22.3481   34.6949 H   0  0  0  0  0  0  0  0  0  0  0  0
   38.1553   24.1412   39.7769 H   0  0  0  0  0  0  0  0  0  0  0  0
   38.3234   25.5282   38.6479 H   0  0  0  0  0  0  0  0  0  0  0  0
   36.8185   24.5474   38.6479 H   0  0  0  0  0  0  0  0  0  0  0  0
   41.7202   21.4642   38.3604 H   0  0  0  0  0  0  0  0  0  0  0  0
   41.6197   20.5194   36.8359 H   0  0  0  0  0  0  0  0  0  0  0  0
   42.3822   22.1458   36.8359 H   0  0  0  0  0  0  0  0  0  0  0  0
  1  8  1  0
  1  2  2  0
  3  2  1  0
  3  7  1  0
  4  3  2  0
  5  6  2  0
  5  4  1  0
  6  1  1  0
  2  9  1  0
  5 10  1  0
  7 11  1  0
  7 12  1  0
  7 13  1  0
  8 14  1  0
  8 15  1  0
  8 16  1  0
M  ISO  8   9  14  10  14  11   8  12   8  13   8  14   8  15   8  16   8
M  END
>  <minimizedAffinity>  (1) 
-3.15029001

>  <minimizedRMSD>  (1) 
0.444039404

$$$$
