
     RDKit          3D

 15 15  0  0  0  0  0  0  0  0999 V2000
   38.4440   24.3890   36.1610 C   0  0  0  0  0  0  0  0  0  0  0  0
   39.5090   23.4850   36.1920 C   0  0  0  0  0  0  0  0  0  0  0  0
   39.8410   22.8570   37.3900 C   0  0  0  0  0  0  0  0  0  0  0  0
   39.0930   23.1680   38.4800 N   0  0  0  0  0  0  0  0  0  0  0  0
   38.0730   24.0400   38.4380 C   0  0  0  0  0  0  0  0  0  0  0  0
   37.7560   24.6440   37.2810 N   0  0  0  0  0  0  0  0  0  0  0  0
   40.9710   21.8810   37.4680 C   0  0  0  0  0  0  0  0  0  0  0  0
   38.1110   25.0420   34.8860 C   0  0  0  0  0  0  0  0  0  0  0  0
   37.3270   26.0380   34.8680 O   0  0  0  0  0  0  0  0  0  0  0  0
   40.0809   23.2709   35.2771 H   0  0  0  0  0  0  0  0  0  0  0  0
   37.4979   24.2594   39.3496 H   0  0  0  0  0  0  0  0  0  0  0  0
   41.2072   21.6770   38.5228 H   0  0  0  0  0  0  0  0  0  0  0  0
   40.6815   20.9443   36.9693 H   0  0  0  0  0  0  0  0  0  0  0  0
   41.8557   22.3037   36.9693 H   0  0  0  0  0  0  0  0  0  0  0  0
   38.5428   24.6657   33.9469 H   0  0  0  0  0  0  0  0  0  0  0  0
  1  2  2  0
  1  6  1  0
  2  3  1  0
  3  7  1  0
  3  4  2  0
  5  4  1  0
  6  5  2  0
  8  1  1  0
  9  8  2  0
  2 10  1  0
  5 11  1  0
  7 12  1  0
  7 13  1  0
  7 14  1  0
  8 15  1  0
M  ISO  6  10  14  11  14  12   8  13   8  14   8  15   6
M  END
>  <minimizedAffinity>  (1) 
-3.15204644

>  <minimizedRMSD>  (1) 
4.13129807

$$$$
