
     RDKit          3D

 19 19  0  0  0  0  0  0  0  0999 V2000
   40.3200   22.1610   37.0350 C   0  0  0  0  0  0  0  0  0  0  0  0
   39.7750   23.0000   38.0090 C   0  0  0  0  0  0  0  0  0  0  0  0
   38.5290   23.5850   37.7430 C   0  0  0  0  0  0  0  0  0  0  0  0
   37.9290   23.2940   36.5460 N   0  0  0  0  0  0  0  0  0  0  0  0
   38.4900   22.4830   35.6400 C   0  0  0  0  0  0  0  0  0  0  0  0
   39.6880   21.9170   35.8890 N   0  0  0  0  0  0  0  0  0  0  0  0
   37.8910   24.4940   38.7460 C   0  0  0  0  0  0  0  0  0  0  0  0
   41.6170   21.5030   37.2200 C   0  0  0  0  0  0  0  0  0  0  0  0
   42.7630   22.2450   36.5960 C   0  0  0  0  0  0  0  0  0  0  0  0
   40.3052   23.1953   38.9528 H   0  0  0  0  0  0  0  0  0  0  0  0
   37.9725   22.2783   34.6911 H   0  0  0  0  0  0  0  0  0  0  0  0
   38.1340   24.1478   39.7614 H   0  0  0  0  0  0  0  0  0  0  0  0
   38.2701   25.5172   38.6069 H   0  0  0  0  0  0  0  0  0  0  0  0
   36.7999   24.4852   38.6069 H   0  0  0  0  0  0  0  0  0  0  0  0
   41.8091   21.4108   38.2992 H   0  0  0  0  0  0  0  0  0  0  0  0
   41.5562   20.5250   36.7202 H   0  0  0  0  0  0  0  0  0  0  0  0
   43.4048   22.6606   37.3868 H   0  0  0  0  0  0  0  0  0  0  0  0
   43.3501   21.5552   35.9720 H   0  0  0  0  0  0  0  0  0  0  0  0
   42.3739   23.0630   35.9720 H   0  0  0  0  0  0  0  0  0  0  0  0
  1  8  1  0
  1  2  2  0
  3  2  1  0
  3  7  1  0
  4  3  2  0
  5  6  2  0
  5  4  1  0
  6  1  1  0
  9  8  1  0
  2 10  1  0
  5 11  1  0
  7 12  1  0
  7 13  1  0
  7 14  1  0
  8 15  1  0
  8 16  1  0
  9 17  1  0
  9 18  1  0
  9 19  1  0
M  ISO  8  10  14  11  14  12   8  13   8  14   8  15   8  16   8  17   8
M  ISO  2  18   8  19   8
M  END
>  <minimizedAffinity>  (1) 
-3.29729867

>  <minimizedRMSD>  (1) 
0.381813347

$$$$
