
     RDKit          3D

 20 21  0  0  0  0  0  0  0  0999 V2000
   40.9230   22.5390   37.1270 C   0  0  0  0  0  0  0  0  0  0  0  0
   41.8450   23.3280   36.4370 C   0  0  0  0  0  0  0  0  0  0  0  0
   43.1120   22.7810   36.1600 C   0  0  0  0  0  0  0  0  0  0  0  0
   43.3640   21.5030   36.5860 N   0  0  0  0  0  0  0  0  0  0  0  0
   42.4420   20.7700   37.2530 C   0  0  0  0  0  0  0  0  0  0  0  0
   41.2280   21.3050   37.5140 N   0  0  0  0  0  0  0  0  0  0  0  0
   39.6120   23.1180   37.4070 C   0  0  0  0  0  0  0  0  0  0  0  0
   38.7170   23.5590   36.4330 C   0  0  0  0  0  0  0  0  0  0  0  0
   37.6340   24.0190   37.1390 C   0  0  0  0  0  0  0  0  0  0  0  0
   37.8870   23.8540   38.4850 C   0  0  0  0  0  0  0  0  0  0  0  0
   39.0830   23.3110   38.5900 O   0  0  0  0  0  0  0  0  0  0  0  0
   44.1360   23.5800   35.4260 C   0  0  0  0  0  0  0  0  0  0  0  0
   41.5884   24.3491   36.1185 H   0  0  0  0  0  0  0  0  0  0  0  0
   42.6786   19.7468   37.5802 H   0  0  0  0  0  0  0  0  0  0  0  0
   38.8496   23.5419   35.3412 H   0  0  0  0  0  0  0  0  0  0  0  0
   36.7185   24.4471   36.7048 H   0  0  0  0  0  0  0  0  0  0  0  0
   37.2168   24.1247   39.3142 H   0  0  0  0  0  0  0  0  0  0  0  0
   44.7899   24.0903   36.1485 H   0  0  0  0  0  0  0  0  0  0  0  0
   44.7390   22.9113   34.7942 H   0  0  0  0  0  0  0  0  0  0  0  0
   43.6340   24.3275   34.7942 H   0  0  0  0  0  0  0  0  0  0  0  0
  1  7  1  0
  1  6  1  0
  2  1  2  0
  3  2  1  0
  3  4  2  0
  4  5  1  0
  5  6  2  0
  7 11  1  0
  8  9  1  0
  8  7  2  0
  9 10  2  0
 10 11  1  0
 12  3  1  0
  2 13  1  0
  5 14  1  0
  8 15  1  0
  9 16  1  0
 10 17  1  0
 12 18  1  0
 12 19  1  0
 12 20  1  0
M  ISO  8  13  14  14  14  15  14  16  14  17  14  18   8  19   8  20   8
M  END
>  <minimizedAffinity>  (1) 
-3.62505221

>  <minimizedRMSD>  (1) 
4.79112387

$$$$
