
     RDKit          3D

 35 37  0  0  0  0  0  0  0  0999 V2000
   38.3290   26.7240   34.3450 C   0  0  0  0  0  0  0  0  0  0  0  0
   37.3040   27.6430   34.9550 C   0  0  0  0  0  0  0  0  0  0  0  0
   38.6220   27.2220   32.9450 C   0  0  0  0  0  0  0  0  0  0  0  0
   39.6480   26.9490   35.1180 C   0  0  0  0  0  0  0  0  0  0  0  0
   40.8310   26.7260   34.2310 C   0  0  0  0  0  0  0  0  0  0  0  0
   41.4380   25.5280   34.0890 N   0  0  0  0  0  0  0  0  0  0  0  0
   42.4210   25.6760   33.2550 O   0  0  0  0  0  0  0  0  0  0  0  0
   42.5030   26.9030   32.8330 C   0  0  0  0  0  0  0  0  0  0  0  0
   41.5080   27.5710   33.4400 N   0  0  0  0  0  0  0  0  0  0  0  0
   37.9580   24.9910   34.4340 S   0  0  0  0  0  0  0  0  0  0  0  0
   38.3210   23.7760   38.3030 C   0  0  0  0  0  0  0  0  0  0  0  0
   37.8810   24.4090   37.1270 C   0  0  0  0  0  0  0  0  0  0  0  0
   38.5160   24.1910   35.9140 C   0  0  0  0  0  0  0  0  0  0  0  0
   39.5740   23.3420   35.9250 N   0  0  0  0  0  0  0  0  0  0  0  0
   39.9960   22.7380   37.0350 C   0  0  0  0  0  0  0  0  0  0  0  0
   39.3910   22.9360   38.2250 N   0  0  0  0  0  0  0  0  0  0  0  0
   41.1180   21.8610   36.9410 N   0  0  0  0  0  0  0  0  0  0  0  0
   41.6220   21.7400   35.6790 C   0  0  0  0  0  0  0  0  0  0  0  0
   42.7060   20.8580   35.7470 C   0  0  0  0  0  0  0  0  0  0  0  0
   42.8140   20.4820   37.0510 N   0  0  0  0  0  0  0  0  0  0  0  0
   41.8500   21.0940   37.7650 C   0  0  0  0  0  0  0  0  0  0  0  0
   37.3672   27.5863   36.0517 H   0  0  0  0  0  0  0  0  0  0  0  0
   37.4976   28.6757   34.6295 H   0  0  0  0  0  0  0  0  0  0  0  0
   36.2984   27.3383   34.6295 H   0  0  0  0  0  0  0  0  0  0  0  0
   39.1791   28.1688   33.0017 H   0  0  0  0  0  0  0  0  0  0  0  0
   39.2240   26.4740   32.4082 H   0  0  0  0  0  0  0  0  0  0  0  0
   37.6758   27.3849   32.4082 H   0  0  0  0  0  0  0  0  0  0  0  0
   39.6716   27.9813   35.4971 H   0  0  0  0  0  0  0  0  0  0  0  0
   39.6936   26.2325   35.9514 H   0  0  0  0  0  0  0  0  0  0  0  0
   43.2377   27.3111   32.1233 H   0  0  0  0  0  0  0  0  0  0  0  0
   37.8137   23.9546   39.2626 H   0  0  0  0  0  0  0  0  0  0  0  0
   37.0176   25.0892   37.1702 H   0  0  0  0  0  0  0  0  0  0  0  0
   41.2459   22.2426   34.7757 H   0  0  0  0  0  0  0  0  0  0  0  0
   43.3444   20.5328   34.9123 H   0  0  0  0  0  0  0  0  0  0  0  0
   41.6885   20.9835   38.8475 H   0  0  0  0  0  0  0  0  0  0  0  0
  1 10  1  0
  1  2  1  0
  1  4  1  0
  3  1  1  0
  5  4  1  0
  6  5  2  0
  7  6  1  0
  8  7  1  0
  8  9  2  0
  9  5  1  0
 10 13  1  0
 12 11  2  0
 13 14  2  0
 13 12  1  0
 14 15  1  0
 15 16  2  0
 16 11  1  0
 17 15  1  0
 17 21  1  0
 18 19  2  0
 18 17  1  0
 19 20  1  0
 20 21  2  0
  2 22  1  0
  2 23  1  0
  2 24  1  0
  3 25  1  0
  3 26  1  0
  3 27  1  0
  4 28  1  0
  4 29  1  0
  8 30  1  0
 11 31  1  0
 12 32  1  0
 18 33  1  0
 19 34  1  0
 21 35  1  0
M  ISO  8  22   8  23   8  24   8  25   8  26   8  27   8  28   8  29   8
M  ISO  6  30  14  31  14  32  14  33  14  34  14  35  14
M  END
>  <minimizedAffinity>  (1) 
-4.76865864

>  <minimizedRMSD>  (1) 
0.728453696

$$$$
