
     RDKit          3D

 27 29  0  0  0  0  0  0  0  0999 V2000
   41.1070   22.4980   37.0180 C   0  0  0  0  0  0  0  0  0  0  0  0
   42.0280   23.4960   36.6760 C   0  0  0  0  0  0  0  0  0  0  0  0
   43.3530   23.1340   36.4090 C   0  0  0  0  0  0  0  0  0  0  0  0
   43.6740   21.7960   36.4990 N   0  0  0  0  0  0  0  0  0  0  0  0
   42.7550   20.8530   36.8340 C   0  0  0  0  0  0  0  0  0  0  0  0
   41.4720   21.2230   37.0920 N   0  0  0  0  0  0  0  0  0  0  0  0
   39.7430   22.9110   37.2890 C   0  0  0  0  0  0  0  0  0  0  0  0
   38.7570   23.1050   36.3330 C   0  0  0  0  0  0  0  0  0  0  0  0
   37.6400   23.4850   37.0180 C   0  0  0  0  0  0  0  0  0  0  0  0
   37.9580   23.5190   38.3660 C   0  0  0  0  0  0  0  0  0  0  0  0
   39.2290   23.1680   38.4730 O   0  0  0  0  0  0  0  0  0  0  0  0
   44.3800   24.1350   36.0410 C   0  0  0  0  0  0  0  0  0  0  0  0
   45.0410   24.7320   37.2250 C   0  0  0  0  0  0  0  0  0  0  0  0
   44.6680   25.6380   38.1630 C   0  0  0  0  0  0  0  0  0  0  0  0
   45.7510   25.7720   39.0130 C   0  0  0  0  0  0  0  0  0  0  0  0
   46.7400   24.9440   38.5620 C   0  0  0  0  0  0  0  0  0  0  0  0
   46.2850   24.3480   37.5070 O   0  0  0  0  0  0  0  0  0  0  0  0
   41.7145   24.5488   36.6181 H   0  0  0  0  0  0  0  0  0  0  0  0
   43.0476   19.7944   36.8963 H   0  0  0  0  0  0  0  0  0  0  0  0
   38.8555   22.9783   35.2448 H   0  0  0  0  0  0  0  0  0  0  0  0
   36.6602   23.7224   36.5779 H   0  0  0  0  0  0  0  0  0  0  0  0
   37.2817   23.7871   39.1911 H   0  0  0  0  0  0  0  0  0  0  0  0
   45.1443   23.6444   35.4204 H   0  0  0  0  0  0  0  0  0  0  0  0
   43.8755   24.9462   35.4956 H   0  0  0  0  0  0  0  0  0  0  0  0
   43.7020   26.1594   38.2333 H   0  0  0  0  0  0  0  0  0  0  0  0
   45.8062   26.4278   39.8944 H   0  0  0  0  0  0  0  0  0  0  0  0
   47.7352   24.8094   39.0109 H   0  0  0  0  0  0  0  0  0  0  0  0
  1  6  1  0
  1  7  1  0
  2  1  2  0
  3  4  2  0
  3  2  1  0
  4  5  1  0
  5  6  2  0
  7 11  1  0
  8  9  1  0
  8  7  2  0
  9 10  2  0
 10 11  1  0
 12  3  1  0
 12 13  1  0
 13 17  1  0
 13 14  2  0
 14 15  1  0
 16 15  2  0
 17 16  1  0
  2 18  1  0
  5 19  1  0
  8 20  1  0
  9 21  1  0
 10 22  1  0
 12 23  1  0
 12 24  1  0
 14 25  1  0
 15 26  1  0
 16 27  1  0
M  ISO  8  18  14  19  14  20  14  21  14  22  14  23   8  24   8  25  14
M  ISO  2  26  14  27  14
M  END
>  <minimizedAffinity>  (1) 
-5.0001626

>  <minimizedRMSD>  (1) 
0.817086279

$$$$
