
     RDKit          3D

 31 34  0  0  0  0  0  0  0  0999 V2000
   40.8770   22.5110   37.0700 C   0  0  0  0  0  0  0  0  0  0  0  0
   41.7670   23.2530   36.2810 C   0  0  0  0  0  0  0  0  0  0  0  0
   43.0220   22.6910   35.9850 C   0  0  0  0  0  0  0  0  0  0  0  0
   43.2990   21.4450   36.4900 N   0  0  0  0  0  0  0  0  0  0  0  0
   42.4060   20.7550   37.2560 C   0  0  0  0  0  0  0  0  0  0  0  0
   41.2170   21.3190   37.5190 N   0  0  0  0  0  0  0  0  0  0  0  0
   39.5790   23.1120   37.3680 C   0  0  0  0  0  0  0  0  0  0  0  0
   38.6800   23.5660   36.4190 C   0  0  0  0  0  0  0  0  0  0  0  0
   37.6160   24.0440   37.1400 C   0  0  0  0  0  0  0  0  0  0  0  0
   37.8990   23.8670   38.4880 C   0  0  0  0  0  0  0  0  0  0  0  0
   39.0910   23.3030   38.5790 O   0  0  0  0  0  0  0  0  0  0  0  0
   44.0150   23.4240   35.1520 C   0  0  0  0  0  0  0  0  0  0  0  0
   45.2490   23.5310   35.9320 N   0  0  0  0  0  0  0  0  0  0  0  0
   46.4120   22.8740   35.7760 C   0  0  0  0  0  0  0  0  0  0  0  0
   47.2510   23.3280   36.7530 N   0  0  0  0  0  0  0  0  0  0  0  0
   46.5980   24.2540   37.4970 C   0  0  0  0  0  0  0  0  0  0  0  0
   46.9530   25.0230   38.5910 C   0  0  0  0  0  0  0  0  0  0  0  0
   46.0740   25.8960   39.1510 N   0  0  0  0  0  0  0  0  0  0  0  0
   44.8270   25.9920   38.6060 C   0  0  0  0  0  0  0  0  0  0  0  0
   44.4510   25.2560   37.5400 N   0  0  0  0  0  0  0  0  0  0  0  0
   45.3190   24.3890   36.9790 C   0  0  0  0  0  0  0  0  0  0  0  0
   41.4911   24.2486   35.9033 H   0  0  0  0  0  0  0  0  0  0  0  0
   42.6549   19.7584   37.6495 H   0  0  0  0  0  0  0  0  0  0  0  0
   38.7940   23.5475   35.3251 H   0  0  0  0  0  0  0  0  0  0  0  0
   36.7001   24.4890   36.7241 H   0  0  0  0  0  0  0  0  0  0  0  0
   37.2478   24.1462   39.3294 H   0  0  0  0  0  0  0  0  0  0  0  0
   43.6350   24.4276   34.9105 H   0  0  0  0  0  0  0  0  0  0  0  0
   44.1982   22.8904   34.2077 H   0  0  0  0  0  0  0  0  0  0  0  0
   46.6425   22.1183   35.0106 H   0  0  0  0  0  0  0  0  0  0  0  0
   47.9635   24.9264   39.0148 H   0  0  0  0  0  0  0  0  0  0  0  0
   44.1046   26.6925   39.0504 H   0  0  0  0  0  0  0  0  0  0  0  0
  1  7  1  0
  1  6  1  0
  2  1  2  0
  3  2  1  0
  3  4  2  0
  4  5  1  0
  5  6  2  0
  7 11  1  0
  8  9  1  0
  8  7  2  0
  9 10  2  0
 10 11  1  0
 12 13  1  0
 12  3  1  0
 13 21  1  0
 14 13  1  0
 14 15  2  0
 15 16  1  0
 16 17  2  0
 17 18  1  0
 19 18  2  0
 20 19  1  0
 21 16  1  0
 21 20  2  0
  2 22  1  0
  5 23  1  0
  8 24  1  0
  9 25  1  0
 10 26  1  0
 12 27  1  0
 12 28  1  0
 14 29  1  0
 17 30  1  0
 19 31  1  0
M  ISO  8  22  14  23  14  24  14  25  14  26  14  27   8  28   8  29  14
M  ISO  2  30  14  31  14
M  END
>  <minimizedAffinity>  (1) 
-5.25177622

>  <minimizedRMSD>  (1) 
1.34640455

$$$$
