
     RDKit          3D

 28 30  0  0  0  0  0  0  0  0999 V2000
   41.0020   22.4690   37.0260 C   0  0  0  0  0  0  0  0  0  0  0  0
   41.8720   23.4390   36.5200 C   0  0  0  0  0  0  0  0  0  0  0  0
   43.1950   23.0730   36.2330 C   0  0  0  0  0  0  0  0  0  0  0  0
   43.5550   21.7800   36.4670 N   0  0  0  0  0  0  0  0  0  0  0  0
   42.6860   20.8580   36.9590 C   0  0  0  0  0  0  0  0  0  0  0  0
   41.4140   21.2270   37.2310 N   0  0  0  0  0  0  0  0  0  0  0  0
   39.6260   22.8790   37.3170 C   0  0  0  0  0  0  0  0  0  0  0  0
   38.5970   22.9140   36.3750 C   0  0  0  0  0  0  0  0  0  0  0  0
   37.5090   23.3500   37.0880 C   0  0  0  0  0  0  0  0  0  0  0  0
   37.8890   23.5600   38.3940 C   0  0  0  0  0  0  0  0  0  0  0  0
   39.1720   23.2640   38.4900 O   0  0  0  0  0  0  0  0  0  0  0  0
   44.1550   24.0660   35.6950 C   0  0  0  0  0  0  0  0  0  0  0  0
   45.1310   24.3990   36.7500 C   0  0  0  0  0  0  0  0  0  0  0  0
   44.6720   25.2470   37.7390 C   0  0  0  0  0  0  0  0  0  0  0  0
   45.5260   25.6140   38.7730 C   0  0  0  0  0  0  0  0  0  0  0  0
   46.7840   25.1300   38.7850 N   0  0  0  0  0  0  0  0  0  0  0  0
   47.1910   24.3070   37.8040 C   0  0  0  0  0  0  0  0  0  0  0  0
   46.3990   23.9220   36.7770 N   0  0  0  0  0  0  0  0  0  0  0  0
   41.5257   24.4692   36.3503 H   0  0  0  0  0  0  0  0  0  0  0  0
   43.0140   19.8227   37.1340 H   0  0  0  0  0  0  0  0  0  0  0  0
   38.6467   22.6525   35.3077 H   0  0  0  0  0  0  0  0  0  0  0  0
   36.4985   23.5061   36.6823 H   0  0  0  0  0  0  0  0  0  0  0  0
   37.2408   23.9111   39.2104 H   0  0  0  0  0  0  0  0  0  0  0  0
   44.6793   23.6412   34.8263 H   0  0  0  0  0  0  0  0  0  0  0  0
   43.6190   24.9734   35.3799 H   0  0  0  0  0  0  0  0  0  0  0  0
   43.6407   25.6283   37.7088 H   0  0  0  0  0  0  0  0  0  0  0  0
   45.1802   26.2893   39.5695 H   0  0  0  0  0  0  0  0  0  0  0  0
   48.2224   23.9262   37.8377 H   0  0  0  0  0  0  0  0  0  0  0  0
  1  6  1  0
  1  7  1  0
  2  1  2  0
  3  4  2  0
  3  2  1  0
  4  5  1  0
  5  6  2  0
  7 11  1  0
  8  9  1  0
  8  7  2  0
  9 10  2  0
 10 11  1  0
 12  3  1  0
 12 13  1  0
 13 18  1  0
 13 14  2  0
 14 15  1  0
 15 16  2  0
 17 16  1  0
 18 17  2  0
  2 19  1  0
  5 20  1  0
  8 21  1  0
  9 22  1  0
 10 23  1  0
 12 24  1  0
 12 25  1  0
 14 26  1  0
 15 27  1  0
 17 28  1  0
M  ISO  8  19  14  20  14  21  14  22  14  23  14  24   8  25   8  26  14
M  ISO  2  27  14  28  14
M  END
>  <minimizedAffinity>  (1) 
-4.87319231

>  <minimizedRMSD>  (1) 
0.743068933

$$$$
