
     RDKit          3D

 28 30  0  0  0  0  0  0  0  0999 V2000
   40.9610   22.5370   37.0600 C   0  0  0  0  0  0  0  0  0  0  0  0
   41.9100   23.4640   36.5980 C   0  0  0  0  0  0  0  0  0  0  0  0
   43.2090   22.9640   36.3330 C   0  0  0  0  0  0  0  0  0  0  0  0
   43.4500   21.6370   36.5400 N   0  0  0  0  0  0  0  0  0  0  0  0
   42.5030   20.7910   36.9850 C   0  0  0  0  0  0  0  0  0  0  0  0
   41.2500   21.2420   37.2480 N   0  0  0  0  0  0  0  0  0  0  0  0
   39.6220   23.0430   37.3350 C   0  0  0  0  0  0  0  0  0  0  0  0
   38.7230   23.4770   36.3750 C   0  0  0  0  0  0  0  0  0  0  0  0
   37.6070   23.8600   37.0570 C   0  0  0  0  0  0  0  0  0  0  0  0
   37.8420   23.6570   38.4120 C   0  0  0  0  0  0  0  0  0  0  0  0
   39.0530   23.1720   38.4950 O   0  0  0  0  0  0  0  0  0  0  0  0
   44.2640   23.8870   35.8400 C   0  0  0  0  0  0  0  0  0  0  0  0
   45.1840   24.3530   36.8990 C   0  0  0  0  0  0  0  0  0  0  0  0
   44.8780   25.2160   37.9130 C   0  0  0  0  0  0  0  0  0  0  0  0
   45.8560   25.5420   38.8100 C   0  0  0  0  0  0  0  0  0  0  0  0
   47.0890   25.0330   38.7110 N   0  0  0  0  0  0  0  0  0  0  0  0
   47.3630   24.1920   37.7120 C   0  0  0  0  0  0  0  0  0  0  0  0
   46.4250   23.8540   36.8160 N   0  0  0  0  0  0  0  0  0  0  0  0
   41.6575   24.5243   36.4495 H   0  0  0  0  0  0  0  0  0  0  0  0
   42.7454   19.7288   37.1364 H   0  0  0  0  0  0  0  0  0  0  0  0
   38.8779   23.5065   35.2864 H   0  0  0  0  0  0  0  0  0  0  0  0
   36.6830   24.2594   36.6134 H   0  0  0  0  0  0  0  0  0  0  0  0
   37.1512   23.8622   39.2431 H   0  0  0  0  0  0  0  0  0  0  0  0
   44.8534   23.3635   35.0728 H   0  0  0  0  0  0  0  0  0  0  0  0
   43.7542   24.7763   35.4410 H   0  0  0  0  0  0  0  0  0  0  0  0
   43.8668   25.6390   38.0053 H   0  0  0  0  0  0  0  0  0  0  0  0
   45.6245   26.2373   39.6303 H   0  0  0  0  0  0  0  0  0  0  0  0
   48.3746   23.7694   37.6223 H   0  0  0  0  0  0  0  0  0  0  0  0
  1  6  1  0
  1  7  1  0
  2  1  2  0
  3  4  2  0
  3  2  1  0
  4  5  1  0
  5  6  2  0
  7 11  1  0
  8  9  1  0
  8  7  2  0
  9 10  2  0
 10 11  1  0
 12  3  1  0
 12 13  1  0
 13 14  2  0
 14 15  1  0
 16 15  2  0
 17 16  1  0
 18 13  1  0
 18 17  2  0
  2 19  1  0
  5 20  1  0
  8 21  1  0
  9 22  1  0
 10 23  1  0
 12 24  1  0
 12 25  1  0
 14 26  1  0
 15 27  1  0
 17 28  1  0
M  ISO  8  19  14  20  14  21  14  22  14  23  14  24   8  25   8  26  14
M  ISO  2  27  14  28  14
M  END
>  <minimizedAffinity>  (1) 
-4.83578062

>  <minimizedRMSD>  (1) 
0.542138457

$$$$
