
     RDKit          3D

 30 32  0  0  0  0  0  0  0  0999 V2000
   40.8990   22.4730   37.0940 C   0  0  0  0  0  0  0  0  0  0  0  0
   41.7440   23.1480   36.2070 C   0  0  0  0  0  0  0  0  0  0  0  0
   42.9880   22.5650   35.8970 C   0  0  0  0  0  0  0  0  0  0  0  0
   43.2930   21.3630   36.4900 N   0  0  0  0  0  0  0  0  0  0  0  0
   42.4390   20.7430   37.3480 C   0  0  0  0  0  0  0  0  0  0  0  0
   41.2430   21.3100   37.6410 N   0  0  0  0  0  0  0  0  0  0  0  0
   39.6190   23.0970   37.3980 C   0  0  0  0  0  0  0  0  0  0  0  0
   38.7260   23.5800   36.4350 C   0  0  0  0  0  0  0  0  0  0  0  0
   37.6690   24.0770   37.1390 C   0  0  0  0  0  0  0  0  0  0  0  0
   37.9320   23.8920   38.4810 C   0  0  0  0  0  0  0  0  0  0  0  0
   39.1150   23.3000   38.5990 O   0  0  0  0  0  0  0  0  0  0  0  0
   43.9430   23.2130   34.9670 C   0  0  0  0  0  0  0  0  0  0  0  0
   43.3990   24.4650   34.5370 N   0  0  0  0  0  0  0  0  0  0  0  0
   42.5430   24.3960   33.4820 C   0  0  0  0  0  0  0  0  0  0  0  0
   41.9720   25.5680   33.0040 C   0  0  0  0  0  0  0  0  0  0  0  0
   42.2780   26.7820   33.6010 C   0  0  0  0  0  0  0  0  0  0  0  0
   41.7470   27.8310   33.1490 O   0  0  0  0  0  0  0  0  0  0  0  0
   43.1370   26.8290   34.6550 N   0  0  0  0  0  0  0  0  0  0  0  0
   43.6540   25.6670   35.0700 C   0  0  0  0  0  0  0  0  0  0  0  0
   44.4470   25.7080   36.0440 O   0  0  0  0  0  0  0  0  0  0  0  0
   41.4448   24.1090   35.7632 H   0  0  0  0  0  0  0  0  0  0  0  0
   42.7187   19.7818   37.8040 H   0  0  0  0  0  0  0  0  0  0  0  0
   38.8502   23.5625   35.3422 H   0  0  0  0  0  0  0  0  0  0  0  0
   36.7678   24.5422   36.7132 H   0  0  0  0  0  0  0  0  0  0  0  0
   37.2736   24.1851   39.3120 H   0  0  0  0  0  0  0  0  0  0  0  0
   44.9001   23.3841   35.4815 H   0  0  0  0  0  0  0  0  0  0  0  0
   44.1122   22.5629   34.0960 H   0  0  0  0  0  0  0  0  0  0  0  0
   42.3072   23.4282   33.0155 H   0  0  0  0  0  0  0  0  0  0  0  0
   41.2771   25.5337   32.1520 H   0  0  0  0  0  0  0  0  0  0  0  0
   43.3785   27.7194   35.1130 H   0  0  0  0  0  0  0  0  0  0  0  0
  1  7  1  0
  1  6  1  0
  2  1  2  0
  3  2  1  0
  3  4  2  0
  4  5  1  0
  5  6  2  0
  7 11  1  0
  8  9  1  0
  8  7  2  0
  9 10  2  0
 10 11  1  0
 12  3  1  0
 13 12  1  0
 13 19  1  0
 14 13  1  0
 15 14  2  0
 15 16  1  0
 16 18  1  0
 17 16  2  0
 18 19  1  0
 19 20  2  0
  2 21  1  0
  5 22  1  0
  8 23  1  0
  9 24  1  0
 10 25  1  0
 12 26  1  0
 12 27  1  0
 14 28  1  0
 15 29  1  0
 18 30  1  0
M  ISO  8  21  14  22  14  23  14  24  14  25  14  26   8  27   8  28  14
M  ISO  2  29  14  30   9
M  END
>  <minimizedAffinity>  (1) 
-4.59772921

>  <minimizedRMSD>  (1) 
2.45114565

$$$$
