
     RDKit          3D

 27 29  0  0  0  0  0  0  0  0999 V2000
   41.0180   22.4810   37.0000 C   0  0  0  0  0  0  0  0  0  0  0  0
   41.8840   23.4860   36.5650 C   0  0  0  0  0  0  0  0  0  0  0  0
   43.2130   23.1540   36.2610 C   0  0  0  0  0  0  0  0  0  0  0  0
   43.5870   21.8520   36.4100 N   0  0  0  0  0  0  0  0  0  0  0  0
   42.7260   20.8920   36.8350 C   0  0  0  0  0  0  0  0  0  0  0  0
   41.4490   21.2360   37.1220 N   0  0  0  0  0  0  0  0  0  0  0  0
   39.6450   22.8490   37.3100 C   0  0  0  0  0  0  0  0  0  0  0  0
   38.5920   22.8210   36.3900 C   0  0  0  0  0  0  0  0  0  0  0  0
   37.5000   23.2370   37.0990 C   0  0  0  0  0  0  0  0  0  0  0  0
   37.8910   23.5020   38.3930 C   0  0  0  0  0  0  0  0  0  0  0  0
   39.1890   23.2510   38.4640 O   0  0  0  0  0  0  0  0  0  0  0  0
   44.1720   24.1830   35.7940 C   0  0  0  0  0  0  0  0  0  0  0  0
   45.0550   24.5760   36.9070 C   0  0  0  0  0  0  0  0  0  0  0  0
   44.8090   25.3510   38.0100 C   0  0  0  0  0  0  0  0  0  0  0  0
   45.8420   25.5470   38.8890 C   0  0  0  0  0  0  0  0  0  0  0  0
   47.0630   24.9600   38.6210 C   0  0  0  0  0  0  0  0  0  0  0  0
   46.7330   24.0770   37.0300 S   0  0  0  0  0  0  0  0  0  0  0  0
   41.5298   24.5223   36.4622 H   0  0  0  0  0  0  0  0  0  0  0  0
   43.0615   19.8501   36.9444 H   0  0  0  0  0  0  0  0  0  0  0  0
   38.6335   22.5288   35.3303 H   0  0  0  0  0  0  0  0  0  0  0  0
   36.4794   23.3426   36.7025 H   0  0  0  0  0  0  0  0  0  0  0  0
   37.2470   23.8551   39.2119 H   0  0  0  0  0  0  0  0  0  0  0  0
   44.7782   23.7729   34.9728 H   0  0  0  0  0  0  0  0  0  0  0  0
   43.6183   25.0642   35.4378 H   0  0  0  0  0  0  0  0  0  0  0  0
   43.8194   25.7990   38.1834 H   0  0  0  0  0  0  0  0  0  0  0  0
   45.7012   26.1604   39.7912 H   0  0  0  0  0  0  0  0  0  0  0  0
   47.9941   25.0059   39.2049 H   0  0  0  0  0  0  0  0  0  0  0  0
  1  6  1  0
  1  7  1  0
  2  1  2  0
  3  4  2  0
  3  2  1  0
  4  5  1  0
  5  6  2  0
  7 11  1  0
  8  9  1  0
  8  7  2  0
  9 10  2  0
 10 11  1  0
 12  3  1  0
 12 13  1  0
 13 17  1  0
 13 14  2  0
 14 15  1  0
 16 15  2  0
 17 16  1  0
  2 18  1  0
  5 19  1  0
  8 20  1  0
  9 21  1  0
 10 22  1  0
 12 23  1  0
 12 24  1  0
 14 25  1  0
 15 26  1  0
 16 27  1  0
M  ISO  8  18  14  19  14  20  14  21  14  22  14  23   8  24   8  25  14
M  ISO  2  26  14  27  14
M  END
>  <minimizedAffinity>  (1) 
-4.84899282

>  <minimizedRMSD>  (1) 
0.627109051

$$$$
