
     RDKit          3D

 33 35  0  0  0  0  0  0  0  0999 V2000
   40.9170   22.4640   37.1560 C   0  0  0  0  0  0  0  0  0  0  0  0
   41.8140   23.2850   36.4900 C   0  0  0  0  0  0  0  0  0  0  0  0
   43.0980   22.8130   36.1870 C   0  0  0  0  0  0  0  0  0  0  0  0
   43.3890   21.5390   36.5780 N   0  0  0  0  0  0  0  0  0  0  0  0
   42.4900   20.7500   37.2320 C   0  0  0  0  0  0  0  0  0  0  0  0
   41.2650   21.2360   37.5070 N   0  0  0  0  0  0  0  0  0  0  0  0
   39.5900   23.0000   37.4510 C   0  0  0  0  0  0  0  0  0  0  0  0
   38.6030   23.2470   36.5000 C   0  0  0  0  0  0  0  0  0  0  0  0
   37.5460   23.7380   37.2290 C   0  0  0  0  0  0  0  0  0  0  0  0
   37.9040   23.7780   38.5600 C   0  0  0  0  0  0  0  0  0  0  0  0
   39.1330   23.3270   38.6350 O   0  0  0  0  0  0  0  0  0  0  0  0
   44.0940   23.6480   35.4770 C   0  0  0  0  0  0  0  0  0  0  0  0
   42.2990   26.2410   32.6430 C   0  0  0  0  0  0  0  0  0  0  0  0
   42.8100   26.7040   33.8260 C   0  0  0  0  0  0  0  0  0  0  0  0
   43.3960   25.8500   34.7480 C   0  0  0  0  0  0  0  0  0  0  0  0
   43.4650   24.5010   34.4650 C   0  0  0  0  0  0  0  0  0  0  0  0
   42.9480   24.0630   33.2770 C   0  0  0  0  0  0  0  0  0  0  0  0
   42.3510   24.8950   32.3260 C   0  0  0  0  0  0  0  0  0  0  0  0
   41.5880   27.4390   31.5710 S   0  0  0  0  0  0  0  0  0  0  0  0
   40.0990   27.4280   31.7790 O   0  0  0  0  0  0  0  0  0  0  0  0
   41.8740   27.0960   30.1340 O   0  0  0  0  0  0  0  0  0  0  0  0
   41.5185   24.3042   36.2003 H   0  0  0  0  0  0  0  0  0  0  0  0
   42.7626   19.7273   37.5318 H   0  0  0  0  0  0  0  0  0  0  0  0
   38.6569   23.0859   35.4132 H   0  0  0  0  0  0  0  0  0  0  0  0
   36.5740   24.0481   36.8179 H   0  0  0  0  0  0  0  0  0  0  0  0
   37.2791   24.1219   39.3974 H   0  0  0  0  0  0  0  0  0  0  0  0
   44.6110   24.2858   36.2091 H   0  0  0  0  0  0  0  0  0  0  0  0
   44.8021   22.9777   34.9677 H   0  0  0  0  0  0  0  0  0  0  0  0
   42.7543   27.7794   34.0504 H   0  0  0  0  0  0  0  0  0  0  0  0
   43.8006   26.2426   35.6926 H   0  0  0  0  0  0  0  0  0  0  0  0
   43.0058   22.9870   33.0559 H   0  0  0  0  0  0  0  0  0  0  0  0
   41.9463   24.5031   31.3812 H   0  0  0  0  0  0  0  0  0  0  0  0
   42.1198   28.6707   31.8488 H   0  0  0  0  0  0  0  0  0  0  0  0
  1  7  1  0
  1  6  1  0
  2  1  2  0
  3  2  1  0
  3  4  2  0
  4  5  1  0
  5  6  2  0
  7 11  1  0
  8  9  1  0
  8  7  2  0
  9 10  2  0
 10 11  1  0
 12  3  1  0
 13 14  2  0
 14 15  1  0
 16 15  2  0
 16 12  1  0
 17 16  1  0
 18 13  1  0
 18 17  2  0
 19 20  2  0
 19 13  1  0
 21 19  2  0
  2 22  1  0
  5 23  1  0
  8 24  1  0
  9 25  1  0
 10 26  1  0
 12 27  1  0
 12 28  1  0
 14 29  1  0
 15 30  1  0
 17 31  1  0
 18 32  1  0
 19 33  1  0
M  ISO  8  22  14  23  14  24  14  25  14  26  14  27   8  28   8  29  14
M  ISO  4  30  14  31  14  32  14  33  11
M  END
>  <minimizedAffinity>  (1) 
-4.1092658

>  <minimizedRMSD>  (1) 
2.61635637

$$$$
