
     RDKit          3D

 26 28  0  0  0  0  0  0  0  0999 V2000
   40.9880   22.4520   37.0470 C   0  0  0  0  0  0  0  0  0  0  0  0
   41.8720   23.4170   36.5510 C   0  0  0  0  0  0  0  0  0  0  0  0
   43.1970   23.0040   36.2850 C   0  0  0  0  0  0  0  0  0  0  0  0
   43.5350   21.7040   36.5220 N   0  0  0  0  0  0  0  0  0  0  0  0
   42.6470   20.8060   37.0020 C   0  0  0  0  0  0  0  0  0  0  0  0
   41.3770   21.1950   37.2600 N   0  0  0  0  0  0  0  0  0  0  0  0
   39.6200   22.8830   37.3220 C   0  0  0  0  0  0  0  0  0  0  0  0
   38.5970   22.9350   36.3930 C   0  0  0  0  0  0  0  0  0  0  0  0
   37.5120   23.3950   37.1120 C   0  0  0  0  0  0  0  0  0  0  0  0
   37.8940   23.6000   38.4120 C   0  0  0  0  0  0  0  0  0  0  0  0
   39.1660   23.2800   38.4930 O   0  0  0  0  0  0  0  0  0  0  0  0
   44.1820   23.9960   35.7530 C   0  0  0  0  0  0  0  0  0  0  0  0
   45.1600   24.4170   36.8200 C   0  0  0  0  0  0  0  0  0  0  0  0
   46.5180   23.9600   36.8100 C   0  0  0  0  0  0  0  0  0  0  0  0
   47.1590   24.7870   38.3070 S   0  0  0  0  0  0  0  0  0  0  0  0
   45.5400   25.5960   38.6990 C   0  0  0  0  0  0  0  0  0  0  0  0
   44.6330   25.2260   37.7330 N   0  0  0  0  0  0  0  0  0  0  0  0
   41.5489   24.4537   36.3755 H   0  0  0  0  0  0  0  0  0  0  0  0
   42.9545   19.7653   37.1819 H   0  0  0  0  0  0  0  0  0  0  0  0
   38.6383   22.6705   35.3261 H   0  0  0  0  0  0  0  0  0  0  0  0
   36.5041   23.5688   36.7070 H   0  0  0  0  0  0  0  0  0  0  0  0
   37.2570   23.9633   39.2319 H   0  0  0  0  0  0  0  0  0  0  0  0
   44.7352   23.5405   34.9184 H   0  0  0  0  0  0  0  0  0  0  0  0
   43.6320   24.8859   35.4131 H   0  0  0  0  0  0  0  0  0  0  0  0
   47.0314   23.2961   36.0989 H   0  0  0  0  0  0  0  0  0  0  0  0
   45.3386   26.2570   39.5549 H   0  0  0  0  0  0  0  0  0  0  0  0
  1  6  1  0
  1  7  1  0
  2  1  2  0
  3  4  2  0
  3  2  1  0
  4  5  1  0
  5  6  2  0
  7 11  1  0
  8  9  1  0
  8  7  2  0
  9 10  2  0
 10 11  1  0
 12  3  1  0
 12 13  1  0
 13 17  1  0
 14 13  2  0
 14 15  1  0
 15 16  1  0
 17 16  2  0
  2 18  1  0
  5 19  1  0
  8 20  1  0
  9 21  1  0
 10 22  1  0
 12 23  1  0
 12 24  1  0
 14 25  1  0
 16 26  1  0
M  ISO  8  18  14  19  14  20  14  21  14  22  14  23   8  24   8  25  14
M  ISO  1  26  14
M  END
>  <minimizedAffinity>  (1) 
-4.53545237

>  <minimizedRMSD>  (1) 
0.657544315

$$$$
