
     RDKit          3D

 22 23  0  0  0  0  0  0  0  0999 V2000
   40.9240   22.5440   37.1310 C   0  0  0  0  0  0  0  0  0  0  0  0
   41.8470   23.3360   36.4430 C   0  0  0  0  0  0  0  0  0  0  0  0
   43.1140   22.7750   36.1650 C   0  0  0  0  0  0  0  0  0  0  0  0
   43.3590   21.4880   36.5880 N   0  0  0  0  0  0  0  0  0  0  0  0
   42.4400   20.7630   37.2470 C   0  0  0  0  0  0  0  0  0  0  0  0
   41.2230   21.3020   37.5140 N   0  0  0  0  0  0  0  0  0  0  0  0
   39.6170   23.1170   37.4190 C   0  0  0  0  0  0  0  0  0  0  0  0
   38.7220   23.5580   36.4370 C   0  0  0  0  0  0  0  0  0  0  0  0
   37.6370   24.0170   37.1210 C   0  0  0  0  0  0  0  0  0  0  0  0
   37.8880   23.8520   38.4760 C   0  0  0  0  0  0  0  0  0  0  0  0
   39.0920   23.3070   38.5990 O   0  0  0  0  0  0  0  0  0  0  0  0
   44.1400   23.5730   35.4340 C   0  0  0  0  0  0  0  0  0  0  0  0
   45.1370   24.1060   36.3400 N   0  0  0  0  0  0  0  0  0  0  0  0
   41.5963   24.3599   36.1289 H   0  0  0  0  0  0  0  0  0  0  0  0
   42.6725   19.7372   37.5688 H   0  0  0  0  0  0  0  0  0  0  0  0
   38.8644   23.5381   35.3464 H   0  0  0  0  0  0  0  0  0  0  0  0
   36.7244   24.4426   36.6782 H   0  0  0  0  0  0  0  0  0  0  0  0
   37.2112   24.1238   39.2994 H   0  0  0  0  0  0  0  0  0  0  0  0
   44.6365   22.9270   34.6949 H   0  0  0  0  0  0  0  0  0  0  0  0
   43.6357   24.4157   34.9385 H   0  0  0  0  0  0  0  0  0  0  0  0
   44.8377   23.9460   37.3125 H   0  0  0  0  0  0  0  0  0  0  0  0
   46.0375   23.6338   36.1758 H   0  0  0  0  0  0  0  0  0  0  0  0
  1  7  1  0
  1  6  1  0
  2  1  2  0
  3  2  1  0
  3  4  2  0
  4  5  1  0
  5  6  2  0
  7 11  1  0
  8  9  1  0
  8  7  2  0
  9 10  2  0
 10 11  1  0
 12  3  1  0
 12 13  1  0
  2 14  1  0
  5 15  1  0
  8 16  1  0
  9 17  1  0
 10 18  1  0
 12 19  1  0
 12 20  1  0
 13 21  1  0
 13 22  1  0
M  ISO  8  14  14  15  14  16  14  17  14  18  14  19   8  20   8  21   5
M  ISO  1  22   5
M  END
>  <minimizedAffinity>  (1) 
-3.57012987

>  <minimizedRMSD>  (1) 
0.0804406777

$$$$
