
     RDKit          3D

 35 37  0  0  0  0  0  0  0  0999 V2000
   38.1980   26.5960   34.2540 C   0  0  0  0  0  0  0  0  0  0  0  0
   36.9890   27.3750   34.6630 C   0  0  0  0  0  0  0  0  0  0  0  0
   38.6280   27.0920   32.8790 C   0  0  0  0  0  0  0  0  0  0  0  0
   39.3440   27.0250   35.1860 C   0  0  0  0  0  0  0  0  0  0  0  0
   40.6780   26.8300   34.5240 C   0  0  0  0  0  0  0  0  0  0  0  0
   41.5040   25.7850   34.7890 N   0  0  0  0  0  0  0  0  0  0  0  0
   42.5660   25.9170   34.0520 O   0  0  0  0  0  0  0  0  0  0  0  0
   42.5040   26.9780   33.3150 C   0  0  0  0  0  0  0  0  0  0  0  0
   41.3250   27.5610   33.5990 N   0  0  0  0  0  0  0  0  0  0  0  0
   38.0770   24.8270   34.3420 S   0  0  0  0  0  0  0  0  0  0  0  0
   37.9230   23.7980   38.2840 C   0  0  0  0  0  0  0  0  0  0  0  0
   37.6050   24.3420   37.0300 C   0  0  0  0  0  0  0  0  0  0  0  0
   38.4540   24.1490   35.9440 C   0  0  0  0  0  0  0  0  0  0  0  0
   39.5810   23.4200   36.1560 N   0  0  0  0  0  0  0  0  0  0  0  0
   39.8760   22.9060   37.3500 C   0  0  0  0  0  0  0  0  0  0  0  0
   39.0690   23.0810   38.4190 N   0  0  0  0  0  0  0  0  0  0  0  0
   41.1340   22.1140   37.5190 C   0  0  0  0  0  0  0  0  0  0  0  0
   42.3940   22.5360   36.8760 C   0  0  0  0  0  0  0  0  0  0  0  0
   41.6370   21.3510   36.3140 C   0  0  0  0  0  0  0  0  0  0  0  0
   36.9310   27.4124   35.7608 H   0  0  0  0  0  0  0  0  0  0  0  0
   37.0598   28.3978   34.2645 H   0  0  0  0  0  0  0  0  0  0  0  0
   36.0868   26.8879   34.2645 H   0  0  0  0  0  0  0  0  0  0  0  0
   39.3445   27.9185   32.9949 H   0  0  0  0  0  0  0  0  0  0  0  0
   39.1036   26.2695   32.3247 H   0  0  0  0  0  0  0  0  0  0  0  0
   37.7463   27.4461   32.3247 H   0  0  0  0  0  0  0  0  0  0  0  0
   39.2212   28.0879   35.4415 H   0  0  0  0  0  0  0  0  0  0  0  0
   39.3089   26.4040   36.0933 H   0  0  0  0  0  0  0  0  0  0  0  0
   43.2618   27.3321   32.6006 H   0  0  0  0  0  0  0  0  0  0  0  0
   37.2546   23.9498   39.1444 H   0  0  0  0  0  0  0  0  0  0  0  0
   36.6800   24.9239   36.9047 H   0  0  0  0  0  0  0  0  0  0  0  0
   40.8671   21.8738   38.5588 H   0  0  0  0  0  0  0  0  0  0  0  0
   42.4320   23.4795   36.3118 H   0  0  0  0  0  0  0  0  0  0  0  0
   43.4237   22.7005   37.2262 H   0  0  0  0  0  0  0  0  0  0  0  0
   41.1160   21.4331   35.3487 H   0  0  0  0  0  0  0  0  0  0  0  0
   41.8734   20.3003   36.0900 H   0  0  0  0  0  0  0  0  0  0  0  0
  1 10  1  0
  1  2  1  0
  1  4  1  0
  3  1  1  0
  5  6  2  0
  5  4  1  0
  7  6  1  0
  8  9  2  0
  8  7  1  0
  9  5  1  0
 10 13  1  0
 11 16  2  0
 12 11  1  0
 13 14  1  0
 13 12  2  0
 14 15  2  0
 15 17  1  0
 15 16  1  0
 18 17  1  0
 19 18  1  0
 19 17  1  0
  2 20  1  0
  2 21  1  0
  2 22  1  0
  3 23  1  0
  3 24  1  0
  3 25  1  0
  4 26  1  0
  4 27  1  0
  8 28  1  0
 11 29  1  0
 12 30  1  0
 17 31  1  0
 18 32  1  0
 18 33  1  0
 19 34  1  0
 19 35  1  0
M  ISO  8  20   8  21   8  22   8  23   8  24   8  25   8  26   8  27   8
M  ISO  8  28  14  29  14  30  14  31  13  32  13  33  13  34  13  35  13
M  END
>  <minimizedAffinity>  (1) 
-4.72399712

>  <minimizedRMSD>  (1) 
0.668849826

$$$$
