
     RDKit          3D

 41 45  0  0  0  0  0  0  0  0999 V2000
   44.8010   23.8560   36.0920 C   0  0  0  0  0  0  0  0  0  0  0  0
   41.4570   22.3090   36.9460 C   0  0  0  0  0  0  0  0  0  0  0  0
   42.4220   23.2790   36.6690 C   0  0  0  0  0  0  0  0  0  0  0  0
   43.7400   22.8450   36.3930 C   0  0  0  0  0  0  0  0  0  0  0  0
   43.9800   21.4940   36.4180 N   0  0  0  0  0  0  0  0  0  0  0  0
   43.0280   20.5850   36.6890 C   0  0  0  0  0  0  0  0  0  0  0  0
   41.7890   21.0310   36.9470 N   0  0  0  0  0  0  0  0  0  0  0  0
   40.1060   22.7670   37.2290 C   0  0  0  0  0  0  0  0  0  0  0  0
   39.1040   22.9140   36.2980 C   0  0  0  0  0  0  0  0  0  0  0  0
   38.0270   23.3640   37.0290 C   0  0  0  0  0  0  0  0  0  0  0  0
   38.3960   23.4740   38.3560 C   0  0  0  0  0  0  0  0  0  0  0  0
   39.6630   23.1030   38.4310 O   0  0  0  0  0  0  0  0  0  0  0  0
   45.0310   24.7430   37.2100 N   0  0  0  0  0  0  0  0  0  0  0  0
   44.2070   25.4960   37.9030 N   0  0  0  0  0  0  0  0  0  0  0  0
   44.8110   26.1780   38.8640 C   0  0  0  0  0  0  0  0  0  0  0  0
   46.1530   25.8550   38.8120 C   0  0  0  0  0  0  0  0  0  0  0  0
   46.2450   24.9450   37.7520 C   0  0  0  0  0  0  0  0  0  0  0  0
   47.4880   24.3300   37.3030 C   0  0  0  0  0  0  0  0  0  0  0  0
   47.7220   24.1850   35.9770 N   0  0  0  0  0  0  0  0  0  0  0  0
   48.8300   23.6390   35.4840 C   0  0  0  0  0  0  0  0  0  0  0  0
   49.8310   23.1780   36.2810 N   0  0  0  0  0  0  0  0  0  0  0  0
   49.6740   23.2860   37.6120 C   0  0  0  0  0  0  0  0  0  0  0  0
   50.6410   22.8530   38.5050 C   0  0  0  0  0  0  0  0  0  0  0  0
   50.4940   22.9710   39.8910 C   0  0  0  0  0  0  0  0  0  0  0  0
   49.3130   23.5530   40.3630 C   0  0  0  0  0  0  0  0  0  0  0  0
   48.3710   23.9720   39.4490 C   0  0  0  0  0  0  0  0  0  0  0  0
   48.5140   23.8560   38.0840 C   0  0  0  0  0  0  0  0  0  0  0  0
   45.7378   23.3296   35.8568 H   0  0  0  0  0  0  0  0  0  0  0  0
   44.4628   24.4624   35.2388 H   0  0  0  0  0  0  0  0  0  0  0  0
   42.1653   24.3486   36.6654 H   0  0  0  0  0  0  0  0  0  0  0  0
   43.2572   19.5092   36.6990 H   0  0  0  0  0  0  0  0  0  0  0  0
   39.1520   22.7171   35.2168 H   0  0  0  0  0  0  0  0  0  0  0  0
   37.0324   23.5983   36.6217 H   0  0  0  0  0  0  0  0  0  0  0  0
   37.7589   23.8060   39.1890 H   0  0  0  0  0  0  0  0  0  0  0  0
   44.3334   26.8719   39.5714 H   0  0  0  0  0  0  0  0  0  0  0  0
   46.9635   26.2273   39.4558 H   0  0  0  0  0  0  0  0  0  0  0  0
   48.9408   23.5573   34.3926 H   0  0  0  0  0  0  0  0  0  0  0  0
   51.5607   22.3984   38.1082 H   0  0  0  0  0  0  0  0  0  0  0  0
   51.2752   22.6204   40.5815 H   0  0  0  0  0  0  0  0  0  0  0  0
   49.1397   23.6738   41.4425 H   0  0  0  0  0  0  0  0  0  0  0  0
   47.4467   24.4278   39.8336 H   0  0  0  0  0  0  0  0  0  0  0  0
  1  4  1  0
  1 13  1  0
  2  7  1  0
  2  8  1  0
  3  2  2  0
  4  5  2  0
  4  3  1  0
  5  6  1  0
  6  7  2  0
  8 12  1  0
  9 10  1  0
  9  8  2  0
 10 11  2  0
 11 12  1  0
 13 17  1  0
 13 14  1  0
 14 15  2  0
 16 15  1  0
 17 16  2  0
 18 17  1  0
 18 27  1  0
 19 18  2  0
 20 19  1  0
 20 21  2  0
 21 22  1  0
 22 27  2  0
 22 23  1  0
 23 24  2  0
 24 25  1  0
 26 25  2  0
 27 26  1  0
  1 28  1  0
  1 29  1  0
  3 30  1  0
  6 31  1  0
  9 32  1  0
 10 33  1  0
 11 34  1  0
 15 35  1  0
 16 36  1  0
 20 37  1  0
 23 38  1  0
 24 39  1  0
 25 40  1  0
 26 41  1  0
M  ISO  8  28   8  29   8  30  14  31  14  32  14  33  14  34  14  35  14
M  ISO  6  36  14  37  14  38  14  39  14  40  14  41  14
M  END
>  <minimizedAffinity>  (1) 
-5.6135149

>  <minimizedRMSD>  (1) 
1.26686704

$$$$
