
     RDKit          3D

 36 38  0  0  0  0  0  0  0  0999 V2000
   38.2860   26.7580   34.4150 C   0  0  0  0  0  0  0  0  0  0  0  0
   37.3260   27.7370   35.0390 C   0  0  0  0  0  0  0  0  0  0  0  0
   38.5390   27.1850   32.9840 C   0  0  0  0  0  0  0  0  0  0  0  0
   39.6450   26.9340   35.1190 C   0  0  0  0  0  0  0  0  0  0  0  0
   40.7670   26.7380   34.1620 C   0  0  0  0  0  0  0  0  0  0  0  0
   41.2970   25.5200   33.8660 N   0  0  0  0  0  0  0  0  0  0  0  0
   42.2510   25.6900   33.0080 O   0  0  0  0  0  0  0  0  0  0  0  0
   42.3950   26.9540   32.7060 C   0  0  0  0  0  0  0  0  0  0  0  0
   41.4740   27.6120   33.4220 N   0  0  0  0  0  0  0  0  0  0  0  0
   37.8340   25.0460   34.5770 S   0  0  0  0  0  0  0  0  0  0  0  0
   38.3990   23.6260   38.3590 C   0  0  0  0  0  0  0  0  0  0  0  0
   37.8560   24.2700   37.2380 C   0  0  0  0  0  0  0  0  0  0  0  0
   38.5050   24.2380   36.0020 C   0  0  0  0  0  0  0  0  0  0  0  0
   39.6800   23.5530   35.9480 N   0  0  0  0  0  0  0  0  0  0  0  0
   40.1920   22.9410   37.0230 C   0  0  0  0  0  0  0  0  0  0  0  0
   39.5860   22.9610   38.2120 N   0  0  0  0  0  0  0  0  0  0  0  0
   41.4570   22.2320   36.8670 C   0  0  0  0  0  0  0  0  0  0  0  0
   42.5490   22.7970   36.2320 C   0  0  0  0  0  0  0  0  0  0  0  0
   43.7440   22.1150   36.0890 C   0  0  0  0  0  0  0  0  0  0  0  0
   43.8090   20.8830   36.5900 N   0  0  0  0  0  0  0  0  0  0  0  0
   42.7730   20.2980   37.2120 C   0  0  0  0  0  0  0  0  0  0  0  0
   41.6160   20.9830   37.3410 N   0  0  0  0  0  0  0  0  0  0  0  0
   37.3931   27.6686   36.1348 H   0  0  0  0  0  0  0  0  0  0  0  0
   37.5832   28.7575   34.7189 H   0  0  0  0  0  0  0  0  0  0  0  0
   36.3007   27.4998   34.7189 H   0  0  0  0  0  0  0  0  0  0  0  0
   39.0997   28.1313   32.9774 H   0  0  0  0  0  0  0  0  0  0  0  0
   39.1232   26.4091   32.4677 H   0  0  0  0  0  0  0  0  0  0  0  0
   37.5778   27.3247   32.4677 H   0  0  0  0  0  0  0  0  0  0  0  0
   39.7038   27.9484   35.5403 H   0  0  0  0  0  0  0  0  0  0  0  0
   39.7278   26.1816   35.9171 H   0  0  0  0  0  0  0  0  0  0  0  0
   43.1241   27.3885   32.0063 H   0  0  0  0  0  0  0  0  0  0  0  0
   37.8845   23.6546   39.3308 H   0  0  0  0  0  0  0  0  0  0  0  0
   36.9023   24.8097   37.3339 H   0  0  0  0  0  0  0  0  0  0  0  0
   42.4644   23.8172   35.8296 H   0  0  0  0  0  0  0  0  0  0  0  0
   44.6062   22.5722   35.5816 H   0  0  0  0  0  0  0  0  0  0  0  0
   42.8649   19.2768   37.6104 H   0  0  0  0  0  0  0  0  0  0  0  0
  1 10  1  0
  1  2  1  0
  1  4  1  0
  3  1  1  0
  5  4  1  0
  6  5  2  0
  7  6  1  0
  8  7  1  0
  8  9  2  0
  9  5  1  0
 10 13  1  0
 12 11  2  0
 13 12  1  0
 14 13  2  0
 14 15  1  0
 15 16  2  0
 16 11  1  0
 17 15  1  0
 17 22  1  0
 18 17  2  0
 19 18  1  0
 19 20  2  0
 20 21  1  0
 21 22  2  0
  2 23  1  0
  2 24  1  0
  2 25  1  0
  3 26  1  0
  3 27  1  0
  3 28  1  0
  4 29  1  0
  4 30  1  0
  8 31  1  0
 11 32  1  0
 12 33  1  0
 18 34  1  0
 19 35  1  0
 21 36  1  0
M  ISO  8  23   8  24   8  25   8  26   8  27   8  28   8  29   8  30   8
M  ISO  6  31  14  32  14  33  14  34  14  35  14  36  14
M  END
>  <minimizedAffinity>  (1) 
-4.68900347

>  <minimizedRMSD>  (1) 
1.11939418

$$$$
