
     RDKit          3D

 37 40  0  0  0  0  0  0  0  0999 V2000
   44.4620   24.0210   36.0430 C   0  0  0  0  0  0  0  0  0  0  0  0
   41.1670   22.4370   37.0060 C   0  0  0  0  0  0  0  0  0  0  0  0
   42.1050   23.4110   36.6710 C   0  0  0  0  0  0  0  0  0  0  0  0
   43.4210   23.0020   36.4080 C   0  0  0  0  0  0  0  0  0  0  0  0
   43.7150   21.6530   36.4950 N   0  0  0  0  0  0  0  0  0  0  0  0
   42.7720   20.7410   36.8230 C   0  0  0  0  0  0  0  0  0  0  0  0
   41.5200   21.1650   37.0690 N   0  0  0  0  0  0  0  0  0  0  0  0
   39.8000   22.8840   37.2770 C   0  0  0  0  0  0  0  0  0  0  0  0
   38.8280   23.0780   36.3010 C   0  0  0  0  0  0  0  0  0  0  0  0
   37.7320   23.4900   37.0300 C   0  0  0  0  0  0  0  0  0  0  0  0
   38.0580   23.5320   38.3700 C   0  0  0  0  0  0  0  0  0  0  0  0
   39.3250   23.1550   38.4730 O   0  0  0  0  0  0  0  0  0  0  0  0
   44.9120   24.7690   37.1820 N   0  0  0  0  0  0  0  0  0  0  0  0
   44.3170   25.6830   37.9110 N   0  0  0  0  0  0  0  0  0  0  0  0
   45.0570   26.1490   38.8990 C   0  0  0  0  0  0  0  0  0  0  0  0
   46.2830   25.4750   38.8300 C   0  0  0  0  0  0  0  0  0  0  0  0
   46.1340   24.6210   37.7300 C   0  0  0  0  0  0  0  0  0  0  0  0
   47.3000   23.7900   37.4460 C   0  0  0  0  0  0  0  0  0  0  0  0
   47.1990   22.7460   36.5180 C   0  0  0  0  0  0  0  0  0  0  0  0
   48.1990   21.8660   36.1460 C   0  0  0  0  0  0  0  0  0  0  0  0
   49.4160   22.0400   36.7570 C   0  0  0  0  0  0  0  0  0  0  0  0
   49.5850   23.0370   37.6690 C   0  0  0  0  0  0  0  0  0  0  0  0
   48.5570   23.8850   38.0030 C   0  0  0  0  0  0  0  0  0  0  0  0
   45.3236   23.5028   35.5967 H   0  0  0  0  0  0  0  0  0  0  0  0
   44.0079   24.7279   35.3331 H   0  0  0  0  0  0  0  0  0  0  0  0
   41.8214   24.4723   36.6142 H   0  0  0  0  0  0  0  0  0  0  0  0
   43.0245   19.6723   36.8873 H   0  0  0  0  0  0  0  0  0  0  0  0
   38.9128   22.9372   35.2133 H   0  0  0  0  0  0  0  0  0  0  0  0
   36.7490   23.7458   36.6079 H   0  0  0  0  0  0  0  0  0  0  0  0
   37.3928   23.8231   39.1963 H   0  0  0  0  0  0  0  0  0  0  0  0
   44.7680   26.9160   39.6326 H   0  0  0  0  0  0  0  0  0  0  0  0
   47.1582   25.5897   39.4864 H   0  0  0  0  0  0  0  0  0  0  0  0
   46.2206   22.6117   36.0336 H   0  0  0  0  0  0  0  0  0  0  0  0
   48.0290   21.0725   35.4034 H   0  0  0  0  0  0  0  0  0  0  0  0
   50.2554   21.3735   36.5096 H   0  0  0  0  0  0  0  0  0  0  0  0
   50.5663   23.1663   38.1489 H   0  0  0  0  0  0  0  0  0  0  0  0
   48.7452   24.6734   38.7467 H   0  0  0  0  0  0  0  0  0  0  0  0
  1  4  1  0
  1 13  1  0
  2  7  1  0
  2  8  1  0
  3  2  2  0
  4  5  2  0
  4  3  1  0
  5  6  1  0
  6  7  2  0
  8 12  1  0
  9 10  1  0
  9  8  2  0
 10 11  2  0
 11 12  1  0
 13 17  1  0
 13 14  1  0
 14 15  2  0
 16 15  1  0
 17 16  2  0
 18 17  1  0
 18 23  1  0
 19 18  2  0
 20 19  1  0
 20 21  2  0
 21 22  1  0
 22 23  2  0
  1 24  1  0
  1 25  1  0
  3 26  1  0
  6 27  1  0
  9 28  1  0
 10 29  1  0
 11 30  1  0
 15 31  1  0
 16 32  1  0
 19 33  1  0
 20 34  1  0
 21 35  1  0
 22 36  1  0
 23 37  1  0
M  ISO  8  24   8  25   8  26  14  27  14  28  14  29  14  30  14  31  14
M  ISO  6  32  14  33  14  34  14  35  14  36  14  37  14
M  END
>  <minimizedAffinity>  (1) 
-5.21865082

>  <minimizedRMSD>  (1) 
0.693995774

$$$$
