
     RDKit          3D

 40 43  0  0  0  0  0  0  0  0999 V2000
   44.6760   24.0080   36.0410 C   0  0  0  0  0  0  0  0  0  0  0  0
   41.4040   22.3100   36.9240 C   0  0  0  0  0  0  0  0  0  0  0  0
   42.3280   23.3060   36.6440 C   0  0  0  0  0  0  0  0  0  0  0  0
   43.6480   22.9540   36.3480 C   0  0  0  0  0  0  0  0  0  0  0  0
   43.9480   21.6110   36.3560 N   0  0  0  0  0  0  0  0  0  0  0  0
   43.0320   20.6650   36.6290 C   0  0  0  0  0  0  0  0  0  0  0  0
   41.7760   21.0530   36.9070 N   0  0  0  0  0  0  0  0  0  0  0  0
   40.0330   22.7200   37.2270 C   0  0  0  0  0  0  0  0  0  0  0  0
   38.9960   22.7580   36.3130 C   0  0  0  0  0  0  0  0  0  0  0  0
   37.9230   23.1990   37.0490 C   0  0  0  0  0  0  0  0  0  0  0  0
   38.3260   23.4090   38.3520 C   0  0  0  0  0  0  0  0  0  0  0  0
   39.6090   23.1060   38.4110 O   0  0  0  0  0  0  0  0  0  0  0  0
   44.9830   24.8090   37.1910 N   0  0  0  0  0  0  0  0  0  0  0  0
   44.2790   25.7200   37.8260 N   0  0  0  0  0  0  0  0  0  0  0  0
   44.9040   26.2470   38.8640 C   0  0  0  0  0  0  0  0  0  0  0  0
   46.1550   25.6290   38.9370 C   0  0  0  0  0  0  0  0  0  0  0  0
   46.1540   24.7320   37.8600 C   0  0  0  0  0  0  0  0  0  0  0  0
   49.8290   22.5260   37.6850 C   0  0  0  0  0  0  0  0  0  0  0  0
   48.8290   22.2600   36.7730 C   0  0  0  0  0  0  0  0  0  0  0  0
   47.6420   22.9580   36.8040 C   0  0  0  0  0  0  0  0  0  0  0  0
   47.3730   23.9470   37.7250 C   0  0  0  0  0  0  0  0  0  0  0  0
   48.4390   24.1530   38.6130 C   0  0  0  0  0  0  0  0  0  0  0  0
   49.6530   23.4990   38.6450 C   0  0  0  0  0  0  0  0  0  0  0  0
   51.3240   21.6390   37.6370 S   0  0  0  0  0  0  0  0  0  0  0  0
   51.1650   20.2380   38.1470 O   0  0  0  0  0  0  0  0  0  0  0  0
   52.4290   22.3210   38.3630 O   0  0  0  0  0  0  0  0  0  0  0  0
   45.5968   23.5160   35.6946 H   0  0  0  0  0  0  0  0  0  0  0  0
   44.2633   24.6701   35.2655 H   0  0  0  0  0  0  0  0  0  0  0  0
   42.0247   24.3633   36.6548 H   0  0  0  0  0  0  0  0  0  0  0  0
   43.3044   19.5993   36.6248 H   0  0  0  0  0  0  0  0  0  0  0  0
   39.0238   22.4961   35.2450 H   0  0  0  0  0  0  0  0  0  0  0  0
   36.9059   23.3590   36.6618 H   0  0  0  0  0  0  0  0  0  0  0  0
   37.6976   23.7617   39.1830 H   0  0  0  0  0  0  0  0  0  0  0  0
   44.5147   27.0225   39.5401 H   0  0  0  0  0  0  0  0  0  0  0  0
   46.9557   25.8056   39.6703 H   0  0  0  0  0  0  0  0  0  0  0  0
   48.9813   21.4809   36.0116 H   0  0  0  0  0  0  0  0  0  0  0  0
   46.8717   22.7142   36.0576 H   0  0  0  0  0  0  0  0  0  0  0  0
   48.2886   24.9304   39.3765 H   0  0  0  0  0  0  0  0  0  0  0  0
   50.4289   23.7381   39.3872 H   0  0  0  0  0  0  0  0  0  0  0  0
   51.6692   21.5862   36.3123 H   0  0  0  0  0  0  0  0  0  0  0  0
  1  4  1  0
  1 13  1  0
  2  8  1  0
  3  2  2  0
  4  5  2  0
  4  3  1  0
  5  6  1  0
  6  7  2  0
  7  2  1  0
  8 12  1  0
  9 10  1  0
  9  8  2  0
 10 11  2  0
 11 12  1  0
 13 14  1  0
 13 17  1  0
 14 15  2  0
 15 16  1  0
 17 16  2  0
 18 23  2  0
 19 20  2  0
 19 18  1  0
 20 21  1  0
 21 17  1  0
 21 22  2  0
 22 23  1  0
 24 18  1  0
 24 25  2  0
 24 26  2  0
  1 27  1  0
  1 28  1  0
  3 29  1  0
  6 30  1  0
  9 31  1  0
 10 32  1  0
 11 33  1  0
 15 34  1  0
 16 35  1  0
 19 36  1  0
 20 37  1  0
 22 38  1  0
 23 39  1  0
 24 40  1  0
M  ISO  8  27   8  28   8  29  14  30  14  31  14  32  14  33  14  34  14
M  ISO  6  35  14  36  14  37  14  38  14  39  14  40  11
M  END
>  <minimizedAffinity>  (1) 
-5.17730665

>  <minimizedRMSD>  (1) 
1.45684612

$$$$
