
     RDKit          3D

 42 45  0  0  0  0  0  0  0  0999 V2000
   44.2520   24.2520   35.9780 C   0  0  0  0  0  0  0  0  0  0  0  0
   41.0590   22.4800   36.9990 C   0  0  0  0  0  0  0  0  0  0  0  0
   41.9310   23.5010   36.6450 C   0  0  0  0  0  0  0  0  0  0  0  0
   43.2790   23.1890   36.3650 C   0  0  0  0  0  0  0  0  0  0  0  0
   43.6370   21.8600   36.4700 N   0  0  0  0  0  0  0  0  0  0  0  0
   42.7590   20.8960   36.8170 C   0  0  0  0  0  0  0  0  0  0  0  0
   41.4900   21.2460   37.0710 N   0  0  0  0  0  0  0  0  0  0  0  0
   39.6610   22.8530   37.2800 C   0  0  0  0  0  0  0  0  0  0  0  0
   38.6390   22.8580   36.3520 C   0  0  0  0  0  0  0  0  0  0  0  0
   37.5360   23.2670   37.0560 C   0  0  0  0  0  0  0  0  0  0  0  0
   37.9170   23.4990   38.3830 C   0  0  0  0  0  0  0  0  0  0  0  0
   39.2120   23.2340   38.4690 O   0  0  0  0  0  0  0  0  0  0  0  0
   44.9640   24.7610   37.1340 N   0  0  0  0  0  0  0  0  0  0  0  0
   44.6220   25.5630   38.1200 N   0  0  0  0  0  0  0  0  0  0  0  0
   45.5850   25.7860   38.9880 C   0  0  0  0  0  0  0  0  0  0  0  0
   46.6900   25.0600   38.5450 C   0  0  0  0  0  0  0  0  0  0  0  0
   46.2400   24.4440   37.3870 C   0  0  0  0  0  0  0  0  0  0  0  0
   47.2230   23.6280   36.7550 N   0  0  0  0  0  0  0  0  0  0  0  0
   47.1690   22.5080   35.8260 C   0  0  0  0  0  0  0  0  0  0  0  0
   47.7820   21.2650   36.4330 C   0  0  0  0  0  0  0  0  0  0  0  0
   49.0870   21.4850   37.1100 C   0  0  0  0  0  0  0  0  0  0  0  0
   49.2260   22.7800   37.8420 C   0  0  0  0  0  0  0  0  0  0  0  0
   48.6180   23.9310   37.0620 C   0  0  0  0  0  0  0  0  0  0  0  0
   44.9780   23.8314   35.2667 H   0  0  0  0  0  0  0  0  0  0  0  0
   43.6948   25.0826   35.5202 H   0  0  0  0  0  0  0  0  0  0  0  0
   41.5757   24.5402   36.5835 H   0  0  0  0  0  0  0  0  0  0  0  0
   43.0775   19.8457   36.8899 H   0  0  0  0  0  0  0  0  0  0  0  0
   38.6967   22.5930   35.2860 H   0  0  0  0  0  0  0  0  0  0  0  0
   36.5225   23.3918   36.6471 H   0  0  0  0  0  0  0  0  0  0  0  0
   37.2637   23.8377   39.2006 H   0  0  0  0  0  0  0  0  0  0  0  0
   45.5295   26.4196   39.8855 H   0  0  0  0  0  0  0  0  0  0  0  0
   47.6862   24.9918   39.0064 H   0  0  0  0  0  0  0  0  0  0  0  0
   47.7225   22.7720   34.9128 H   0  0  0  0  0  0  0  0  0  0  0  0
   46.1145   22.2987   35.5929 H   0  0  0  0  0  0  0  0  0  0  0  0
   47.0757   20.8606   37.1729 H   0  0  0  0  0  0  0  0  0  0  0  0
   47.9763   20.5745   35.5990 H   0  0  0  0  0  0  0  0  0  0  0  0
   49.2340   20.6699   37.8339 H   0  0  0  0  0  0  0  0  0  0  0  0
   49.8403   21.5107   36.3088 H   0  0  0  0  0  0  0  0  0  0  0  0
   48.7156   22.6978   38.8129 H   0  0  0  0  0  0  0  0  0  0  0  0
   50.2982   22.9849   37.9778 H   0  0  0  0  0  0  0  0  0  0  0  0
   49.1767   24.0748   36.1254 H   0  0  0  0  0  0  0  0  0  0  0  0
   48.6695   24.8499   37.6645 H   0  0  0  0  0  0  0  0  0  0  0  0
  1  4  1  0
  1 13  1  0
  2  7  1  0
  2  8  1  0
  3  2  2  0
  4  5  2  0
  4  3  1  0
  5  6  1  0
  6  7  2  0
  8 12  1  0
  9 10  1  0
  9  8  2  0
 10 11  2  0
 11 12  1  0
 13 17  1  0
 13 14  1  0
 14 15  2  0
 16 15  1  0
 17 16  2  0
 18 23  1  0
 18 17  1  0
 19 20  1  0
 19 18  1  0
 20 21  1  0
 21 22  1  0
 23 22  1  0
  1 24  1  0
  1 25  1  0
  3 26  1  0
  6 27  1  0
  9 28  1  0
 10 29  1  0
 11 30  1  0
 15 31  1  0
 16 32  1  0
 19 33  1  0
 19 34  1  0
 20 35  1  0
 20 36  1  0
 21 37  1  0
 21 38  1  0
 22 39  1  0
 22 40  1  0
 23 41  1  0
 23 42  1  0
M  ISO  8  24   8  25   8  26  14  27  14  28  14  29  14  30  14  31  14
M  ISO  8  32  14  33  13  34  13  35  13  36  13  37  13  38  13  39  13
M  ISO  3  40  13  41  13  42  13
M  END
>  <minimizedAffinity>  (1) 
-5.13863754

>  <minimizedRMSD>  (1) 
0.134825766

$$$$
