
     RDKit          3D

 39 42  0  0  0  0  0  0  0  0999 V2000
   41.0800   22.4760   37.0300 C   0  0  0  0  0  0  0  0  0  0  0  0
   42.0260   23.4290   36.6580 C   0  0  0  0  0  0  0  0  0  0  0  0
   43.3530   23.0150   36.4050 C   0  0  0  0  0  0  0  0  0  0  0  0
   43.6260   21.6780   36.5430 N   0  0  0  0  0  0  0  0  0  0  0  0
   42.6890   20.7710   36.9050 C   0  0  0  0  0  0  0  0  0  0  0  0
   41.4360   21.2080   37.1370 N   0  0  0  0  0  0  0  0  0  0  0  0
   39.7200   22.9270   37.2860 C   0  0  0  0  0  0  0  0  0  0  0  0
   38.7510   23.1240   36.3330 C   0  0  0  0  0  0  0  0  0  0  0  0
   37.6510   23.5430   37.0350 C   0  0  0  0  0  0  0  0  0  0  0  0
   37.9720   23.5880   38.3850 C   0  0  0  0  0  0  0  0  0  0  0  0
   39.2310   23.2070   38.4830 O   0  0  0  0  0  0  0  0  0  0  0  0
   44.3830   24.0180   36.0030 C   0  0  0  0  0  0  0  0  0  0  0  0
   44.9180   24.7140   37.1510 N   0  0  0  0  0  0  0  0  0  0  0  0
   44.4330   25.6350   37.9470 N   0  0  0  0  0  0  0  0  0  0  0  0
   45.2660   26.0110   38.8990 C   0  0  0  0  0  0  0  0  0  0  0  0
   46.4340   25.2730   38.7310 C   0  0  0  0  0  0  0  0  0  0  0  0
   46.1610   24.4790   37.6240 C   0  0  0  0  0  0  0  0  0  0  0  0
   47.1660   23.5700   37.1580 N   0  0  0  0  0  0  0  0  0  0  0  0
   47.0710   22.5580   36.1130 C   0  0  0  0  0  0  0  0  0  0  0  0
   48.3590   21.7720   36.2720 C   0  0  0  0  0  0  0  0  0  0  0  0
   49.3400   22.7930   36.8150 C   0  0  0  0  0  0  0  0  0  0  0  0
   48.4910   23.5880   37.7490 C   0  0  0  0  0  0  0  0  0  0  0  0
   41.7439   24.4879   36.5627 H   0  0  0  0  0  0  0  0  0  0  0  0
   42.9437   19.7058   37.0070 H   0  0  0  0  0  0  0  0  0  0  0  0
   38.8384   22.9778   35.2463 H   0  0  0  0  0  0  0  0  0  0  0  0
   36.6741   23.8013   36.6002 H   0  0  0  0  0  0  0  0  0  0  0  0
   37.3073   23.8832   39.2103 H   0  0  0  0  0  0  0  0  0  0  0  0
   45.2032   23.5003   35.4842 H   0  0  0  0  0  0  0  0  0  0  0  0
   43.9070   24.7567   35.3414 H   0  0  0  0  0  0  0  0  0  0  0  0
   45.0738   26.7643   39.6772 H   0  0  0  0  0  0  0  0  0  0  0  0
   47.3546   25.3096   39.3319 H   0  0  0  0  0  0  0  0  0  0  0  0
   47.0132   23.0231   35.1178 H   0  0  0  0  0  0  0  0  0  0  0  0
   46.1706   21.9321   36.1998 H   0  0  0  0  0  0  0  0  0  0  0  0
   48.2261   20.9408   36.9801 H   0  0  0  0  0  0  0  0  0  0  0  0
   48.6978   21.3148   35.3306 H   0  0  0  0  0  0  0  0  0  0  0  0
   50.1685   22.3042   37.3486 H   0  0  0  0  0  0  0  0  0  0  0  0
   49.8204   23.3998   36.0333 H   0  0  0  0  0  0  0  0  0  0  0  0
   48.8650   24.6194   37.8288 H   0  0  0  0  0  0  0  0  0  0  0  0
   48.4953   23.1722   38.7674 H   0  0  0  0  0  0  0  0  0  0  0  0
  1  6  1  0
  1  7  1  0
  2  1  2  0
  3  4  2  0
  3  2  1  0
  4  5  1  0
  5  6  2  0
  7 11  1  0
  8  9  1  0
  8  7  2  0
  9 10  2  0
 10 11  1  0
 12  3  1  0
 12 13  1  0
 13 17  1  0
 13 14  1  0
 14 15  2  0
 16 15  1  0
 17 16  2  0
 18 17  1  0
 18 22  1  0
 19 20  1  0
 19 18  1  0
 20 21  1  0
 21 22  1  0
  2 23  1  0
  5 24  1  0
  8 25  1  0
  9 26  1  0
 10 27  1  0
 12 28  1  0
 12 29  1  0
 15 30  1  0
 16 31  1  0
 19 32  1  0
 19 33  1  0
 20 34  1  0
 20 35  1  0
 21 36  1  0
 21 37  1  0
 22 38  1  0
 22 39  1  0
M  ISO  8  23  14  24  14  25  14  26  14  27  14  28   8  29   8  30  14
M  ISO  8  31  14  32  13  33  13  34  13  35  13  36  13  37  13  38  13
M  ISO  1  39  13
M  END
>  <minimizedAffinity>  (1) 
-5.00864458

>  <minimizedRMSD>  (1) 
0.463668495

$$$$
