
     RDKit          3D

 34 37  0  0  0  0  0  0  0  0999 V2000
   44.3280   24.1100   36.0060 C   0  0  0  0  0  0  0  0  0  0  0  0
   41.0830   22.4440   36.9970 C   0  0  0  0  0  0  0  0  0  0  0  0
   41.9870   23.4380   36.6460 C   0  0  0  0  0  0  0  0  0  0  0  0
   43.3320   23.0730   36.3860 C   0  0  0  0  0  0  0  0  0  0  0  0
   43.6630   21.7470   36.4990 N   0  0  0  0  0  0  0  0  0  0  0  0
   42.7520   20.8060   36.8450 C   0  0  0  0  0  0  0  0  0  0  0  0
   41.4820   21.1880   37.0850 N   0  0  0  0  0  0  0  0  0  0  0  0
   39.7050   22.8410   37.2600 C   0  0  0  0  0  0  0  0  0  0  0  0
   38.6930   22.8670   36.3160 C   0  0  0  0  0  0  0  0  0  0  0  0
   37.5950   23.3010   37.0330 C   0  0  0  0  0  0  0  0  0  0  0  0
   37.9720   23.5170   38.3590 C   0  0  0  0  0  0  0  0  0  0  0  0
   39.2500   23.2270   38.4460 O   0  0  0  0  0  0  0  0  0  0  0  0
   44.9000   24.7650   37.1630 N   0  0  0  0  0  0  0  0  0  0  0  0
   44.4300   25.6970   37.9620 N   0  0  0  0  0  0  0  0  0  0  0  0
   45.2760   26.0300   38.9180 C   0  0  0  0  0  0  0  0  0  0  0  0
   46.4220   25.2540   38.7490 C   0  0  0  0  0  0  0  0  0  0  0  0
   46.1340   24.4750   37.6310 C   0  0  0  0  0  0  0  0  0  0  0  0
   47.1100   23.5430   37.1670 N   0  0  0  0  0  0  0  0  0  0  0  0
   47.0670   22.5110   36.3120 N   0  0  0  0  0  0  0  0  0  0  0  0
   48.2910   21.9570   36.2300 C   0  0  0  0  0  0  0  0  0  0  0  0
   49.1400   22.6680   37.0680 C   0  0  0  0  0  0  0  0  0  0  0  0
   48.3700   23.6730   37.6540 C   0  0  0  0  0  0  0  0  0  0  0  0
   45.1364   23.6324   35.4330 H   0  0  0  0  0  0  0  0  0  0  0  0
   43.8106   24.8730   35.4059 H   0  0  0  0  0  0  0  0  0  0  0  0
   41.6659   24.4874   36.5712 H   0  0  0  0  0  0  0  0  0  0  0  0
   43.0437   19.7487   36.9286 H   0  0  0  0  0  0  0  0  0  0  0  0
   38.7496   22.6046   35.2493 H   0  0  0  0  0  0  0  0  0  0  0  0
   36.5851   23.4521   36.6241 H   0  0  0  0  0  0  0  0  0  0  0  0
   37.3224   23.8641   39.1760 H   0  0  0  0  0  0  0  0  0  0  0  0
   45.1082   26.7814   39.7036 H   0  0  0  0  0  0  0  0  0  0  0  0
   47.3390   25.2565   39.3565 H   0  0  0  0  0  0  0  0  0  0  0  0
   48.5697   21.0932   35.6086 H   0  0  0  0  0  0  0  0  0  0  0  0
   50.2100   22.4763   37.2367 H   0  0  0  0  0  0  0  0  0  0  0  0
   48.7182   24.4278   38.3744 H   0  0  0  0  0  0  0  0  0  0  0  0
  1  4  1  0
  1 13  1  0
  2  7  1  0
  2  8  1  0
  3  2  2  0
  4  5  2  0
  4  3  1  0
  5  6  1  0
  6  7  2  0
  8 12  1  0
  9 10  1  0
  9  8  2  0
 10 11  2  0
 11 12  1  0
 13 17  1  0
 13 14  1  0
 14 15  2  0
 16 15  1  0
 17 16  2  0
 18 17  1  0
 18 22  1  0
 19 18  1  0
 20 19  2  0
 20 21  1  0
 21 22  2  0
  1 23  1  0
  1 24  1  0
  3 25  1  0
  6 26  1  0
  9 27  1  0
 10 28  1  0
 11 29  1  0
 15 30  1  0
 16 31  1  0
 20 32  1  0
 21 33  1  0
 22 34  1  0
M  ISO  8  23   8  24   8  25  14  26  14  27  14  28  14  29  14  30  14
M  ISO  4  31  14  32  14  33  14  34  14
M  END
>  <minimizedAffinity>  (1) 
-4.99324036

>  <minimizedRMSD>  (1) 
0.426007628

$$$$
