
     RDKit          3D

 35 38  0  0  0  0  0  0  0  0999 V2000
   44.2820   24.1910   35.9810 C   0  0  0  0  0  0  0  0  0  0  0  0
   41.0820   22.4410   37.0110 C   0  0  0  0  0  0  0  0  0  0  0  0
   41.9850   23.4270   36.6470 C   0  0  0  0  0  0  0  0  0  0  0  0
   43.3220   23.1100   36.3740 C   0  0  0  0  0  0  0  0  0  0  0  0
   43.6590   21.7840   36.4930 N   0  0  0  0  0  0  0  0  0  0  0  0
   42.7660   20.8430   36.8480 C   0  0  0  0  0  0  0  0  0  0  0  0
   41.4960   21.2030   37.0970 N   0  0  0  0  0  0  0  0  0  0  0  0
   39.7010   22.8360   37.2800 C   0  0  0  0  0  0  0  0  0  0  0  0
   38.6850   22.8540   36.3570 C   0  0  0  0  0  0  0  0  0  0  0  0
   37.5850   23.2840   37.0470 C   0  0  0  0  0  0  0  0  0  0  0  0
   37.9510   23.5140   38.3560 C   0  0  0  0  0  0  0  0  0  0  0  0
   39.2380   23.2280   38.4390 O   0  0  0  0  0  0  0  0  0  0  0  0
   44.9300   24.7540   37.1310 N   0  0  0  0  0  0  0  0  0  0  0  0
   44.4710   25.6370   38.0200 N   0  0  0  0  0  0  0  0  0  0  0  0
   45.3600   25.9350   38.9460 C   0  0  0  0  0  0  0  0  0  0  0  0
   46.5120   25.2220   38.6970 C   0  0  0  0  0  0  0  0  0  0  0  0
   46.1970   24.4910   37.5470 C   0  0  0  0  0  0  0  0  0  0  0  0
   47.1930   23.5730   36.9410 C   0  0  0  0  0  0  0  0  0  0  0  0
   48.4170   23.3730   37.5410 C   0  0  0  0  0  0  0  0  0  0  0  0
   49.4080   22.5580   37.0820 C   0  0  0  0  0  0  0  0  0  0  0  0
   49.1730   21.8870   35.9390 N   0  0  0  0  0  0  0  0  0  0  0  0
   47.9670   22.0750   35.3370 C   0  0  0  0  0  0  0  0  0  0  0  0
   47.0110   22.8850   35.8140 N   0  0  0  0  0  0  0  0  0  0  0  0
   45.0447   23.7672   35.3112 H   0  0  0  0  0  0  0  0  0  0  0  0
   43.7193   24.9884   35.4735 H   0  0  0  0  0  0  0  0  0  0  0  0
   41.6479   24.4714   36.5715 H   0  0  0  0  0  0  0  0  0  0  0  0
   43.0723   19.7900   36.9335 H   0  0  0  0  0  0  0  0  0  0  0  0
   38.7429   22.5816   35.2928 H   0  0  0  0  0  0  0  0  0  0  0  0
   36.5776   23.4229   36.6278 H   0  0  0  0  0  0  0  0  0  0  0  0
   37.3003   23.8659   39.1701 H   0  0  0  0  0  0  0  0  0  0  0  0
   45.2075   26.6366   39.7794 H   0  0  0  0  0  0  0  0  0  0  0  0
   47.4534   25.2265   39.2659 H   0  0  0  0  0  0  0  0  0  0  0  0
   48.6119   23.9206   38.4749 H   0  0  0  0  0  0  0  0  0  0  0  0
   50.3601   22.4529   37.6229 H   0  0  0  0  0  0  0  0  0  0  0  0
   47.7645   21.5298   34.4033 H   0  0  0  0  0  0  0  0  0  0  0  0
  1  4  1  0
  1 13  1  0
  2  7  1  0
  2  8  1  0
  3  2  2  0
  4  5  2  0
  4  3  1  0
  5  6  1  0
  6  7  2  0
  8 12  1  0
  9 10  1  0
  9  8  2  0
 10 11  2  0
 11 12  1  0
 13 17  1  0
 13 14  1  0
 14 15  2  0
 16 15  1  0
 17 16  2  0
 18 19  2  0
 18 17  1  0
 20 19  1  0
 21 20  2  0
 22 23  2  0
 22 21  1  0
 23 18  1  0
  1 24  1  0
  1 25  1  0
  3 26  1  0
  6 27  1  0
  9 28  1  0
 10 29  1  0
 11 30  1  0
 15 31  1  0
 16 32  1  0
 19 33  1  0
 20 34  1  0
 22 35  1  0
M  ISO  8  24   8  25   8  26  14  27  14  28  14  29  14  30  14  31  14
M  ISO  4  32  14  33  14  34  14  35  14
M  END
>  <minimizedAffinity>  (1) 
-4.99051332

>  <minimizedRMSD>  (1) 
0.316336662

$$$$
