
     RDKit          3D

 30 32  0  0  0  0  0  0  0  0999 V2000
   41.0660   22.4640   37.0050 C   0  0  0  0  0  0  0  0  0  0  0  0
   41.9610   23.4650   36.6390 C   0  0  0  0  0  0  0  0  0  0  0  0
   43.2940   23.1310   36.3630 C   0  0  0  0  0  0  0  0  0  0  0  0
   43.6420   21.7990   36.4760 N   0  0  0  0  0  0  0  0  0  0  0  0
   42.7560   20.8530   36.8310 C   0  0  0  0  0  0  0  0  0  0  0  0
   41.4870   21.2180   37.0860 N   0  0  0  0  0  0  0  0  0  0  0  0
   39.6910   22.8460   37.2820 C   0  0  0  0  0  0  0  0  0  0  0  0
   38.6680   22.8620   36.3550 C   0  0  0  0  0  0  0  0  0  0  0  0
   37.5690   23.2800   37.0570 C   0  0  0  0  0  0  0  0  0  0  0  0
   37.9450   23.5060   38.3740 C   0  0  0  0  0  0  0  0  0  0  0  0
   39.2330   23.2280   38.4510 O   0  0  0  0  0  0  0  0  0  0  0  0
   44.2740   24.1920   35.9690 C   0  0  0  0  0  0  0  0  0  0  0  0
   44.9510   24.7410   37.1180 N   0  0  0  0  0  0  0  0  0  0  0  0
   44.5830   25.6020   38.0360 N   0  0  0  0  0  0  0  0  0  0  0  0
   45.5160   25.8460   38.9380 C   0  0  0  0  0  0  0  0  0  0  0  0
   46.6240   25.0810   38.6030 C   0  0  0  0  0  0  0  0  0  0  0  0
   46.2150   24.4150   37.4640 C   0  0  0  0  0  0  0  0  0  0  0  0
   47.1510   23.4590   36.7680 C   0  0  0  0  0  0  0  0  0  0  0  0
   41.6249   24.5099   36.5669 H   0  0  0  0  0  0  0  0  0  0  0  0
   43.0630   19.7998   36.9115 H   0  0  0  0  0  0  0  0  0  0  0  0
   38.7234   22.5976   35.2887 H   0  0  0  0  0  0  0  0  0  0  0  0
   36.5575   23.4142   36.6460 H   0  0  0  0  0  0  0  0  0  0  0  0
   37.2964   23.8496   39.1933 H   0  0  0  0  0  0  0  0  0  0  0  0
   45.0205   23.7543   35.2900 H   0  0  0  0  0  0  0  0  0  0  0  0
   43.7218   25.0043   35.4738 H   0  0  0  0  0  0  0  0  0  0  0  0
   45.4306   26.5291   39.7959 H   0  0  0  0  0  0  0  0  0  0  0  0
   47.5933   25.0197   39.1194 H   0  0  0  0  0  0  0  0  0  0  0  0
   47.7134   22.8846   37.5188 H   0  0  0  0  0  0  0  0  0  0  0  0
   46.5694   22.7692   36.1388 H   0  0  0  0  0  0  0  0  0  0  0  0
   47.8529   24.0259   36.1388 H   0  0  0  0  0  0  0  0  0  0  0  0
  1  6  1  0
  1  7  1  0
  2  1  2  0
  3  4  2  0
  3  2  1  0
  4  5  1  0
  5  6  2  0
  7 11  1  0
  8  9  1  0
  8  7  2  0
  9 10  2  0
 10 11  1  0
 12  3  1  0
 12 13  1  0
 13 17  1  0
 13 14  1  0
 14 15  2  0
 16 15  1  0
 17 16  2  0
 18 17  1  0
  2 19  1  0
  5 20  1  0
  8 21  1  0
  9 22  1  0
 10 23  1  0
 12 24  1  0
 12 25  1  0
 15 26  1  0
 16 27  1  0
 18 28  1  0
 18 29  1  0
 18 30  1  0
M  ISO  8  19  14  20  14  21  14  22  14  23  14  24   8  25   8  26  14
M  ISO  4  27  14  28   8  29   8  30   8
M  END
>  <minimizedAffinity>  (1) 
-4.90016794

>  <minimizedRMSD>  (1) 
0.109329753

$$$$
