
     RDKit          3D

 34 36  0  0  0  0  0  0  0  0999 V2000
   44.1410   24.4600   36.0750 C   0  0  0  0  0  0  0  0  0  0  0  0
   41.0230   22.5300   37.0230 C   0  0  0  0  0  0  0  0  0  0  0  0
   41.8630   23.5860   36.7110 C   0  0  0  0  0  0  0  0  0  0  0  0
   43.2050   23.3290   36.4230 C   0  0  0  0  0  0  0  0  0  0  0  0
   43.6130   22.0180   36.4700 N   0  0  0  0  0  0  0  0  0  0  0  0
   42.7710   21.0130   36.7770 C   0  0  0  0  0  0  0  0  0  0  0  0
   41.4900   21.3080   37.0470 N   0  0  0  0  0  0  0  0  0  0  0  0
   39.6200   22.8500   37.3160 C   0  0  0  0  0  0  0  0  0  0  0  0
   38.5960   22.8030   36.3840 C   0  0  0  0  0  0  0  0  0  0  0  0
   37.4760   23.1790   37.1080 C   0  0  0  0  0  0  0  0  0  0  0  0
   37.8630   23.4360   38.4280 C   0  0  0  0  0  0  0  0  0  0  0  0
   39.1580   23.2220   38.4920 O   0  0  0  0  0  0  0  0  0  0  0  0
   44.9580   24.8410   37.1790 N   0  0  0  0  0  0  0  0  0  0  0  0
   44.6630   25.5550   38.2630 N   0  0  0  0  0  0  0  0  0  0  0  0
   45.7000   25.6850   39.0810 C   0  0  0  0  0  0  0  0  0  0  0  0
   46.7670   25.0190   38.5200 C   0  0  0  0  0  0  0  0  0  0  0  0
   46.2500   24.4990   37.3110 C   0  0  0  0  0  0  0  0  0  0  0  0
   47.2420   23.8200   36.5440 N   0  0  0  0  0  0  0  0  0  0  0  0
   47.5790   22.4430   36.5850 C   0  0  0  0  0  0  0  0  0  0  0  0
   46.5470   21.7550   36.1190 N   0  0  0  0  0  0  0  0  0  0  0  0
   48.8670   21.9970   37.0640 N   0  0  0  0  0  0  0  0  0  0  0  0
   46.5940   20.7240   36.0670 H   0  0  0  0  0  0  0  0  0  0  0  0
   44.7908   24.1402   35.2470 H   0  0  0  0  0  0  0  0  0  0  0  0
   43.5297   25.3293   35.7910 H   0  0  0  0  0  0  0  0  0  0  0  0
   41.4772   24.6159   36.6903 H   0  0  0  0  0  0  0  0  0  0  0  0
   43.1257   19.9722   36.8059 H   0  0  0  0  0  0  0  0  0  0  0  0
   38.6576   22.5312   35.3199 H   0  0  0  0  0  0  0  0  0  0  0  0
   36.4533   23.2617   36.7113 H   0  0  0  0  0  0  0  0  0  0  0  0
   37.2093   23.7555   39.2530 H   0  0  0  0  0  0  0  0  0  0  0  0
   45.7062   26.2283   40.0374 H   0  0  0  0  0  0  0  0  0  0  0  0
   47.7864   24.9155   38.9202 H   0  0  0  0  0  0  0  0  0  0  0  0
   47.7776   24.3986   35.8812 H   0  0  0  0  0  0  0  0  0  0  0  0
   49.0889   20.9914   37.0844 H   0  0  0  0  0  0  0  0  0  0  0  0
   49.5634   22.6846   37.3851 H   0  0  0  0  0  0  0  0  0  0  0  0
  1  4  1  0
  1 13  1  0
  2  7  1  0
  2  8  1  0
  3  2  2  0
  4  5  2  0
  4  3  1  0
  5  6  1  0
  6  7  2  0
  8 12  1  0
  9 10  1  0
  9  8  2  0
 10 11  2  0
 11 12  1  0
 13 17  1  0
 13 14  1  0
 14 15  2  0
 16 15  1  0
 17 16  2  0
 18 19  1  0
 18 17  1  0
 19 21  1  0
 20 19  2  0
 22 20  1  0
  1 23  1  0
  1 24  1  0
  3 25  1  0
  6 26  1  0
  9 27  1  0
 10 28  1  0
 11 29  1  0
 15 30  1  0
 16 31  1  0
 18 32  1  0
 21 33  1  0
 21 34  1  0
M  ISO  8  23   8  24   8  25  14  26  14  27  14  28  14  29  14  30  14
M  ISO  1  31  14
M  END
>  <minimizedAffinity>  (1) 
-4.92174816

>  <minimizedRMSD>  (1) 
0.19229871

$$$$
