
     RDKit          3D

 34 37  0  0  0  0  0  0  0  0999 V2000
   41.0580   22.4680   36.9910 C   0  0  0  0  0  0  0  0  0  0  0  0
   41.9440   23.4800   36.6300 C   0  0  0  0  0  0  0  0  0  0  0  0
   43.2890   23.1440   36.3570 C   0  0  0  0  0  0  0  0  0  0  0  0
   43.6400   21.8240   36.4680 N   0  0  0  0  0  0  0  0  0  0  0  0
   42.7440   20.8620   36.8250 C   0  0  0  0  0  0  0  0  0  0  0  0
   41.4730   21.2290   37.0740 N   0  0  0  0  0  0  0  0  0  0  0  0
   39.6720   22.8500   37.2660 C   0  0  0  0  0  0  0  0  0  0  0  0
   38.6550   22.8750   36.3320 C   0  0  0  0  0  0  0  0  0  0  0  0
   37.5550   23.2910   37.0530 C   0  0  0  0  0  0  0  0  0  0  0  0
   37.9290   23.5030   38.3760 C   0  0  0  0  0  0  0  0  0  0  0  0
   39.2210   23.2220   38.4530 O   0  0  0  0  0  0  0  0  0  0  0  0
   44.2750   24.1990   35.9660 C   0  0  0  0  0  0  0  0  0  0  0  0
   44.9990   24.6980   37.1130 N   0  0  0  0  0  0  0  0  0  0  0  0
   44.6100   25.4010   38.1590 N   0  0  0  0  0  0  0  0  0  0  0  0
   45.6170   25.6530   38.9970 C   0  0  0  0  0  0  0  0  0  0  0  0
   46.7660   25.0810   38.4830 C   0  0  0  0  0  0  0  0  0  0  0  0
   46.3280   24.4910   37.2980 C   0  0  0  0  0  0  0  0  0  0  0  0
   47.2780   23.7410   36.3990 C   0  0  0  0  0  0  0  0  0  0  0  0
   47.2420   22.2620   36.3890 C   0  0  0  0  0  0  0  0  0  0  0  0
   48.3260   22.9130   37.1700 C   0  0  0  0  0  0  0  0  0  0  0  0
   41.6025   24.5232   36.5586 H   0  0  0  0  0  0  0  0  0  0  0  0
   43.0521   19.8093   36.9079 H   0  0  0  0  0  0  0  0  0  0  0  0
   38.7094   22.6222   35.2628 H   0  0  0  0  0  0  0  0  0  0  0  0
   36.5428   23.4326   36.6463 H   0  0  0  0  0  0  0  0  0  0  0  0
   37.2789   23.8384   39.1975 H   0  0  0  0  0  0  0  0  0  0  0  0
   44.9915   23.7708   35.2496 H   0  0  0  0  0  0  0  0  0  0  0  0
   43.7234   25.0368   35.5146 H   0  0  0  0  0  0  0  0  0  0  0  0
   45.5453   26.2196   39.9371 H   0  0  0  0  0  0  0  0  0  0  0  0
   47.7811   25.0894   38.9068 H   0  0  0  0  0  0  0  0  0  0  0  0
   47.2596   24.5001   35.6031 H   0  0  0  0  0  0  0  0  0  0  0  0
   46.4337   21.7355   36.9175 H   0  0  0  0  0  0  0  0  0  0  0  0
   47.2271   21.5057   35.5904 H   0  0  0  0  0  0  0  0  0  0  0  0
   49.3668   22.8691   36.8167 H   0  0  0  0  0  0  0  0  0  0  0  0
   48.6832   22.8675   38.2094 H   0  0  0  0  0  0  0  0  0  0  0  0
  1  6  1  0
  1  7  1  0
  2  1  2  0
  3  4  2  0
  3  2  1  0
  4  5  1  0
  5  6  2  0
  7 11  1  0
  8  9  1  0
  8  7  2  0
  9 10  2  0
 10 11  1  0
 12  3  1  0
 12 13  1  0
 13 17  1  0
 13 14  1  0
 14 15  2  0
 16 15  1  0
 17 16  2  0
 18 20  1  0
 18 17  1  0
 19 18  1  0
 19 20  1  0
  2 21  1  0
  5 22  1  0
  8 23  1  0
  9 24  1  0
 10 25  1  0
 12 26  1  0
 12 27  1  0
 15 28  1  0
 16 29  1  0
 18 30  1  0
 19 31  1  0
 19 32  1  0
 20 33  1  0
 20 34  1  0
M  ISO  8  21  14  22  14  23  14  24  14  25  14  26   8  27   8  28  14
M  ISO  6  29  14  30  13  31  13  32  13  33  13  34  13
M  END
>  <minimizedAffinity>  (1) 
-4.90254354

>  <minimizedRMSD>  (1) 
0.263497651

$$$$
