
     RDKit          3D

 36 38  0  0  0  0  0  0  0  0999 V2000
   38.2710   26.7700   34.4250 C   0  0  0  0  0  0  0  0  0  0  0  0
   37.3360   27.7550   35.0360 C   0  0  0  0  0  0  0  0  0  0  0  0
   38.5410   27.1840   32.9830 C   0  0  0  0  0  0  0  0  0  0  0  0
   39.6350   26.9390   35.1280 C   0  0  0  0  0  0  0  0  0  0  0  0
   40.7620   26.7330   34.1600 C   0  0  0  0  0  0  0  0  0  0  0  0
   41.2800   25.5250   33.8600 N   0  0  0  0  0  0  0  0  0  0  0  0
   42.2390   25.6980   32.9910 O   0  0  0  0  0  0  0  0  0  0  0  0
   42.3790   26.9630   32.7050 C   0  0  0  0  0  0  0  0  0  0  0  0
   41.4640   27.6170   33.4270 N   0  0  0  0  0  0  0  0  0  0  0  0
   37.8140   25.0630   34.5850 S   0  0  0  0  0  0  0  0  0  0  0  0
   38.4200   23.5990   38.3330 C   0  0  0  0  0  0  0  0  0  0  0  0
   37.8680   24.2520   37.2230 C   0  0  0  0  0  0  0  0  0  0  0  0
   38.5030   24.2400   35.9970 C   0  0  0  0  0  0  0  0  0  0  0  0
   39.6800   23.5680   35.9310 N   0  0  0  0  0  0  0  0  0  0  0  0
   40.2070   22.9440   36.9890 C   0  0  0  0  0  0  0  0  0  0  0  0
   39.5990   22.9490   38.1840 N   0  0  0  0  0  0  0  0  0  0  0  0
   41.4910   22.2340   36.8380 C   0  0  0  0  0  0  0  0  0  0  0  0
   42.5500   22.8280   36.2180 C   0  0  0  0  0  0  0  0  0  0  0  0
   43.7400   22.0980   36.1080 C   0  0  0  0  0  0  0  0  0  0  0  0
   43.8400   20.8370   36.6020 N   0  0  0  0  0  0  0  0  0  0  0  0
   42.7700   20.2620   37.2180 C   0  0  0  0  0  0  0  0  0  0  0  0
   41.6380   20.9830   37.3120 N   0  0  0  0  0  0  0  0  0  0  0  0
   37.3987   27.6889   36.1322 H   0  0  0  0  0  0  0  0  0  0  0  0
   37.6107   28.7702   34.7135 H   0  0  0  0  0  0  0  0  0  0  0  0
   36.3079   27.5335   34.7135 H   0  0  0  0  0  0  0  0  0  0  0  0
   39.1419   28.1053   32.9724 H   0  0  0  0  0  0  0  0  0  0  0  0
   39.0903   26.3821   32.4680 H   0  0  0  0  0  0  0  0  0  0  0  0
   37.5857   27.3633   32.4680 H   0  0  0  0  0  0  0  0  0  0  0  0
   39.7011   27.9536   35.5479 H   0  0  0  0  0  0  0  0  0  0  0  0
   39.7151   26.1878   35.9276 H   0  0  0  0  0  0  0  0  0  0  0  0
   43.1063   27.4042   32.0076 H   0  0  0  0  0  0  0  0  0  0  0  0
   37.9064   23.6139   39.3056 H   0  0  0  0  0  0  0  0  0  0  0  0
   36.9112   24.7840   37.3303 H   0  0  0  0  0  0  0  0  0  0  0  0
   42.4721   23.8492   35.8166 H   0  0  0  0  0  0  0  0  0  0  0  0
   44.6096   22.5543   35.6124 H   0  0  0  0  0  0  0  0  0  0  0  0
   42.8294   19.2419   37.6252 H   0  0  0  0  0  0  0  0  0  0  0  0
  1 10  1  0
  1  2  1  0
  1  4  1  0
  3  1  1  0
  5  4  1  0
  6  5  2  0
  7  6  1  0
  8  7  1  0
  8  9  2  0
  9  5  1  0
 10 13  1  0
 12 11  2  0
 13 12  1  0
 14 13  2  0
 14 15  1  0
 15 16  2  0
 16 11  1  0
 17 15  1  0
 17 22  1  0
 18 17  2  0
 19 18  1  0
 19 20  2  0
 20 21  1  0
 21 22  2  0
  2 23  1  0
  2 24  1  0
  2 25  1  0
  3 26  1  0
  3 27  1  0
  3 28  1  0
  4 29  1  0
  4 30  1  0
  8 31  1  0
 11 32  1  0
 12 33  1  0
 18 34  1  0
 19 35  1  0
 21 36  1  0
M  ISO  8  23   8  24   8  25   8  26   8  27   8  28   8  29   8  30   8
M  ISO  6  31  14  32  14  33  14  34  14  35  14  36  14
M  END
>  <minimizedAffinity>  (1) 
-4.67005301

>  <minimizedRMSD>  (1) 
1.15372682

$$$$
