
     RDKit          3D

 29 31  0  0  0  0  0  0  0  0999 V2000
   41.0790   22.4600   36.9970 C   0  0  0  0  0  0  0  0  0  0  0  0
   41.9750   23.4650   36.6330 C   0  0  0  0  0  0  0  0  0  0  0  0
   43.3130   23.1300   36.3630 C   0  0  0  0  0  0  0  0  0  0  0  0
   43.6580   21.7960   36.4790 N   0  0  0  0  0  0  0  0  0  0  0  0
   42.7650   20.8550   36.8330 C   0  0  0  0  0  0  0  0  0  0  0  0
   41.4910   21.2100   37.0840 N   0  0  0  0  0  0  0  0  0  0  0  0
   39.6980   22.8430   37.2690 C   0  0  0  0  0  0  0  0  0  0  0  0
   38.6750   22.8600   36.3390 C   0  0  0  0  0  0  0  0  0  0  0  0
   37.5780   23.2830   37.0580 C   0  0  0  0  0  0  0  0  0  0  0  0
   37.9600   23.5080   38.3810 C   0  0  0  0  0  0  0  0  0  0  0  0
   39.2440   23.2250   38.4380 O   0  0  0  0  0  0  0  0  0  0  0  0
   44.2850   24.1850   35.9740 C   0  0  0  0  0  0  0  0  0  0  0  0
   44.9610   24.7360   37.1280 N   0  0  0  0  0  0  0  0  0  0  0  0
   44.5820   25.5980   38.0420 N   0  0  0  0  0  0  0  0  0  0  0  0
   45.5180   25.8380   38.9410 C   0  0  0  0  0  0  0  0  0  0  0  0
   46.6310   25.0780   38.6170 C   0  0  0  0  0  0  0  0  0  0  0  0
   46.2220   24.4150   37.4800 C   0  0  0  0  0  0  0  0  0  0  0  0
   47.0790   23.4900   36.7780 N   0  0  0  0  0  0  0  0  0  0  0  0
   41.6378   24.5094   36.5580 H   0  0  0  0  0  0  0  0  0  0  0  0
   43.0734   19.8025   36.9169 H   0  0  0  0  0  0  0  0  0  0  0  0
   38.7251   22.5968   35.2721 H   0  0  0  0  0  0  0  0  0  0  0  0
   36.5643   23.4210   36.6539 H   0  0  0  0  0  0  0  0  0  0  0  0
   37.3195   23.8514   39.2067 H   0  0  0  0  0  0  0  0  0  0  0  0
   45.0334   23.7488   35.2961 H   0  0  0  0  0  0  0  0  0  0  0  0
   43.7325   24.9967   35.4781 H   0  0  0  0  0  0  0  0  0  0  0  0
   45.4302   26.5219   39.7980 H   0  0  0  0  0  0  0  0  0  0  0  0
   47.5985   25.0188   39.1371 H   0  0  0  0  0  0  0  0  0  0  0  0
   48.0319   23.3071   37.1235 H   0  0  0  0  0  0  0  0  0  0  0  0
   46.7377   23.0127   35.9315 H   0  0  0  0  0  0  0  0  0  0  0  0
  1  6  1  0
  1  7  1  0
  2  1  2  0
  3  4  2  0
  3  2  1  0
  4  5  1  0
  5  6  2  0
  7 11  1  0
  8  9  1  0
  8  7  2  0
  9 10  2  0
 10 11  1  0
 12  3  1  0
 12 13  1  0
 13 17  1  0
 13 14  1  0
 14 15  2  0
 16 15  1  0
 17 16  2  0
 18 17  1  0
  2 19  1  0
  5 20  1  0
  8 21  1  0
  9 22  1  0
 10 23  1  0
 12 24  1  0
 12 25  1  0
 15 26  1  0
 16 27  1  0
 18 28  1  0
 18 29  1  0
M  ISO  8  19  14  20  14  21  14  22  14  23  14  24   8  25   8  26  14
M  ISO  1  27  14
M  END
>  <minimizedAffinity>  (1) 
-4.85281467

>  <minimizedRMSD>  (1) 
0.107346259

$$$$
