
     RDKit          3D

 28 30  0  0  0  0  0  0  0  0999 V2000
   41.0800   22.4580   37.0010 C   0  0  0  0  0  0  0  0  0  0  0  0
   41.9650   23.4700   36.6380 C   0  0  0  0  0  0  0  0  0  0  0  0
   43.3060   23.1260   36.3650 C   0  0  0  0  0  0  0  0  0  0  0  0
   43.6600   21.7940   36.4780 N   0  0  0  0  0  0  0  0  0  0  0  0
   42.7680   20.8410   36.8340 C   0  0  0  0  0  0  0  0  0  0  0  0
   41.4950   21.2130   37.0850 N   0  0  0  0  0  0  0  0  0  0  0  0
   39.7010   22.8420   37.2760 C   0  0  0  0  0  0  0  0  0  0  0  0
   38.6780   22.8570   36.3550 C   0  0  0  0  0  0  0  0  0  0  0  0
   37.5780   23.2790   37.0600 C   0  0  0  0  0  0  0  0  0  0  0  0
   37.9560   23.5080   38.3770 C   0  0  0  0  0  0  0  0  0  0  0  0
   39.2370   23.2290   38.4420 O   0  0  0  0  0  0  0  0  0  0  0  0
   44.2920   24.1760   35.9720 C   0  0  0  0  0  0  0  0  0  0  0  0
   44.9550   24.7380   37.1320 N   0  0  0  0  0  0  0  0  0  0  0  0
   44.5760   25.6160   38.0320 N   0  0  0  0  0  0  0  0  0  0  0  0
   45.5030   25.8570   38.9410 C   0  0  0  0  0  0  0  0  0  0  0  0
   46.6120   25.0810   38.6430 C   0  0  0  0  0  0  0  0  0  0  0  0
   46.2170   24.4050   37.5070 C   0  0  0  0  0  0  0  0  0  0  0  0
   47.0500   23.4870   36.8450 O   0  0  0  0  0  0  0  0  0  0  0  0
   41.6263   24.5141   36.5657 H   0  0  0  0  0  0  0  0  0  0  0  0
   43.0732   19.7874   36.9170 H   0  0  0  0  0  0  0  0  0  0  0  0
   38.7303   22.5898   35.2892 H   0  0  0  0  0  0  0  0  0  0  0  0
   36.5660   23.4134   36.6503 H   0  0  0  0  0  0  0  0  0  0  0  0
   37.3120   23.8533   39.1992 H   0  0  0  0  0  0  0  0  0  0  0  0
   45.0475   23.7279   35.3098 H   0  0  0  0  0  0  0  0  0  0  0  0
   43.7515   24.9835   35.4564 H   0  0  0  0  0  0  0  0  0  0  0  0
   45.4110   26.5530   39.7879 H   0  0  0  0  0  0  0  0  0  0  0  0
   47.5703   25.0193   39.1796 H   0  0  0  0  0  0  0  0  0  0  0  0
   47.9596   23.3051   37.1910 H   0  0  0  0  0  0  0  0  0  0  0  0
  1  6  1  0
  1  7  1  0
  2  1  2  0
  3  4  2  0
  3  2  1  0
  4  5  1  0
  5  6  2  0
  7 11  1  0
  8  9  1  0
  8  7  2  0
  9 10  2  0
 10 11  1  0
 12  3  1  0
 12 13  1  0
 13 17  1  0
 13 14  1  0
 14 15  2  0
 16 15  1  0
 17 16  2  0
 18 17  1  0
  2 19  1  0
  5 20  1  0
  8 21  1  0
  9 22  1  0
 10 23  1  0
 12 24  1  0
 12 25  1  0
 15 26  1  0
 16 27  1  0
 18 28  1  0
M  ISO  8  19  14  20  14  21  14  22  14  23  14  24   8  25   8  26  14
M  ISO  2  27  14  28   3
M  END
>  <minimizedAffinity>  (1) 
-4.84192038

>  <minimizedRMSD>  (1) 
0.12081518

$$$$
