
     RDKit          3D

 46 51  0  0  0  0  0  0  0  0999 V2000
   44.9440   24.7630   37.1000 N   0  0  0  0  0  0  0  0  0  0  0  0
   44.5610   25.5500   38.0960 N   0  0  0  0  0  0  0  0  0  0  0  0
   45.5190   25.7950   38.9590 C   0  0  0  0  0  0  0  0  0  0  0  0
   46.6620   25.1330   38.5430 C   0  0  0  0  0  0  0  0  0  0  0  0
   46.2490   24.4890   37.3560 C   0  0  0  0  0  0  0  0  0  0  0  0
   47.1590   23.6350   36.5260 C   0  0  0  0  0  0  0  0  0  0  0  0
   47.8790   24.2150   35.4420 C   0  0  0  0  0  0  0  0  0  0  0  0
   48.8090   22.7890   34.7830 S   0  0  0  0  0  0  0  0  0  0  0  0
   48.0550   21.6330   36.1050 C   0  0  0  0  0  0  0  0  0  0  0  0
   47.3980   22.3390   36.6740 N   0  0  0  0  0  0  0  0  0  0  0  0
   48.3510   20.2350   36.2180 N   0  0  0  0  0  0  0  0  0  0  0  0
   49.5670   19.6370   36.0760 C   0  0  0  0  0  0  0  0  0  0  0  0
   49.4020   18.3050   36.2620 N   0  0  0  0  0  0  0  0  0  0  0  0
   48.0990   18.0830   36.5170 C   0  0  0  0  0  0  0  0  0  0  0  0
   47.3100   16.9830   36.7850 C   0  0  0  0  0  0  0  0  0  0  0  0
   45.9680   17.0850   37.0090 N   0  0  0  0  0  0  0  0  0  0  0  0
   45.3650   18.2970   36.9720 C   0  0  0  0  0  0  0  0  0  0  0  0
   46.1050   19.3760   36.7150 N   0  0  0  0  0  0  0  0  0  0  0  0
   47.4290   19.2910   36.4920 C   0  0  0  0  0  0  0  0  0  0  0  0
   47.9240   15.7060   36.8280 N   0  0  0  0  0  0  0  0  0  0  0  0
   44.2040   24.2680   35.9700 C   0  0  0  0  0  0  0  0  0  0  0  0
   41.0370   22.4920   37.0200 C   0  0  0  0  0  0  0  0  0  0  0  0
   41.9270   23.4750   36.6550 C   0  0  0  0  0  0  0  0  0  0  0  0
   43.2650   23.1800   36.3620 C   0  0  0  0  0  0  0  0  0  0  0  0
   43.6160   21.8680   36.4630 N   0  0  0  0  0  0  0  0  0  0  0  0
   42.7340   20.9040   36.8240 C   0  0  0  0  0  0  0  0  0  0  0  0
   41.4610   21.2500   37.0930 N   0  0  0  0  0  0  0  0  0  0  0  0
   39.6510   22.8830   37.3110 C   0  0  0  0  0  0  0  0  0  0  0  0
   38.6360   22.9140   36.3850 C   0  0  0  0  0  0  0  0  0  0  0  0
   37.5420   23.3290   37.0970 C   0  0  0  0  0  0  0  0  0  0  0  0
   37.9110   23.5360   38.4010 C   0  0  0  0  0  0  0  0  0  0  0  0
   39.1920   23.2520   38.4710 O   0  0  0  0  0  0  0  0  0  0  0  0
   45.4293   26.4200   39.8597 H   0  0  0  0  0  0  0  0  0  0  0  0
   47.6523   25.1135   39.0215 H   0  0  0  0  0  0  0  0  0  0  0  0
   47.8754   25.2575   35.0912 H   0  0  0  0  0  0  0  0  0  0  0  0
   50.5157   20.1459   35.8501 H   0  0  0  0  0  0  0  0  0  0  0  0
   44.2836   18.3897   37.1508 H   0  0  0  0  0  0  0  0  0  0  0  0
   47.3577   14.8687   37.0260 H   0  0  0  0  0  0  0  0  0  0  0  0
   48.9364   15.6154   36.6613 H   0  0  0  0  0  0  0  0  0  0  0  0
   44.9114   23.8771   35.2238 H   0  0  0  0  0  0  0  0  0  0  0  0
   43.6137   25.0985   35.5554 H   0  0  0  0  0  0  0  0  0  0  0  0
   41.5803   24.5170   36.5916 H   0  0  0  0  0  0  0  0  0  0  0  0
   43.0538   19.8540   36.8961 H   0  0  0  0  0  0  0  0  0  0  0  0
   38.6899   22.6627   35.3154 H   0  0  0  0  0  0  0  0  0  0  0  0
   36.5308   23.4729   36.6886 H   0  0  0  0  0  0  0  0  0  0  0  0
   37.2639   23.8726   39.2243 H   0  0  0  0  0  0  0  0  0  0  0  0
  1  5  1  0
  1  2  1  0
  2  3  2  0
  4  3  1  0
  5  4  2  0
  6 10  1  0
  6  5  1  0
  7  6  2  0
  8  7  1  0
  8  9  1  0
  9 11  1  0
  9 10  2  0
 11 19  1  0
 12 11  1  0
 12 13  2  0
 13 14  1  0
 14 15  2  0
 15 20  1  0
 15 16  1  0
 17 16  2  0
 18 17  1  0
 19 14  1  0
 19 18  2  0
 21 24  1  0
 21  1  1  0
 22 27  1  0
 22 28  1  0
 23 22  2  0
 24 25  2  0
 24 23  1  0
 25 26  1  0
 26 27  2  0
 28 32  1  0
 29 30  1  0
 29 28  2  0
 30 31  2  0
 31 32  1  0
  3 33  1  0
  4 34  1  0
  7 35  1  0
 12 36  1  0
 17 37  1  0
 20 38  1  0
 20 39  1  0
 21 40  1  0
 21 41  1  0
 23 42  1  0
 26 43  1  0
 29 44  1  0
 30 45  1  0
 31 46  1  0
M  ISO  8  33  14  34  14  35  14  36  14  37  14  40   8  41   8  42  14
M  ISO  4  43  14  44  14  45  14  46  14
M  END
>  <minimizedAffinity>  (1) 
-5.47189569

>  <minimizedRMSD>  (1) 
0.527777672

$$$$
