
     RDKit          3D

 35 37  0  0  0  0  0  0  0  0999 V2000
   38.3080   26.7370   34.3790 C   0  0  0  0  0  0  0  0  0  0  0  0
   37.2960   27.6640   34.9610 C   0  0  0  0  0  0  0  0  0  0  0  0
   38.6380   27.2170   32.9750 C   0  0  0  0  0  0  0  0  0  0  0  0
   39.6170   26.9580   35.1490 C   0  0  0  0  0  0  0  0  0  0  0  0
   40.8030   26.7630   34.2630 C   0  0  0  0  0  0  0  0  0  0  0  0
   41.4690   25.5820   34.1410 N   0  0  0  0  0  0  0  0  0  0  0  0
   42.4390   25.7540   33.3000 O   0  0  0  0  0  0  0  0  0  0  0  0
   42.4700   26.9740   32.8460 C   0  0  0  0  0  0  0  0  0  0  0  0
   41.4510   27.6080   33.4440 N   0  0  0  0  0  0  0  0  0  0  0  0
   37.9290   25.0100   34.4870 S   0  0  0  0  0  0  0  0  0  0  0  0
   38.4440   23.6580   38.2950 C   0  0  0  0  0  0  0  0  0  0  0  0
   37.9260   24.3010   37.1630 C   0  0  0  0  0  0  0  0  0  0  0  0
   38.5690   24.2020   35.9340 C   0  0  0  0  0  0  0  0  0  0  0  0
   39.7150   23.4550   35.8830 N   0  0  0  0  0  0  0  0  0  0  0  0
   40.1890   22.8490   36.9770 C   0  0  0  0  0  0  0  0  0  0  0  0
   39.5920   22.9290   38.1690 N   0  0  0  0  0  0  0  0  0  0  0  0
   41.4390   22.0850   36.7320 C   0  0  0  0  0  0  0  0  0  0  0  0
   41.7790   20.9540   37.5210 C   0  0  0  0  0  0  0  0  0  0  0  0
   42.9540   20.3160   37.2160 C   0  0  0  0  0  0  0  0  0  0  0  0
   43.7810   20.7670   36.1670 C   0  0  0  0  0  0  0  0  0  0  0  0
   42.7920   22.2510   35.5470 S   0  0  0  0  0  0  0  0  0  0  0  0
   37.3457   27.6185   36.0589 H   0  0  0  0  0  0  0  0  0  0  0  0
   37.5045   28.6911   34.6268 H   0  0  0  0  0  0  0  0  0  0  0  0
   36.2911   27.3665   34.6268 H   0  0  0  0  0  0  0  0  0  0  0  0
   39.2603   28.1222   33.0338 H   0  0  0  0  0  0  0  0  0  0  0  0
   39.1864   26.4293   32.4376 H   0  0  0  0  0  0  0  0  0  0  0  0
   37.7061   27.4469   32.4376 H   0  0  0  0  0  0  0  0  0  0  0  0
   39.6308   27.9835   35.5468 H   0  0  0  0  0  0  0  0  0  0  0  0
   39.6685   26.2245   35.9671 H   0  0  0  0  0  0  0  0  0  0  0  0
   43.1832   27.3963   32.1229 H   0  0  0  0  0  0  0  0  0  0  0  0
   37.9355   23.7388   39.2671 H   0  0  0  0  0  0  0  0  0  0  0  0
   37.0010   24.8903   37.2474 H   0  0  0  0  0  0  0  0  0  0  0  0
   41.1303   20.6061   38.3384 H   0  0  0  0  0  0  0  0  0  0  0  0
   43.2571   19.4353   37.8012 H   0  0  0  0  0  0  0  0  0  0  0  0
   44.7398   20.3645   35.8081 H   0  0  0  0  0  0  0  0  0  0  0  0
  1 10  1  0
  1  2  1  0
  1  4  1  0
  3  1  1  0
  5  4  1  0
  6  5  2  0
  7  6  1  0
  8  7  1  0
  8  9  2  0
  9  5  1  0
 10 13  1  0
 12 11  2  0
 13 12  1  0
 14 13  2  0
 14 15  1  0
 15 16  2  0
 16 11  1  0
 17 15  1  0
 17 18  2  0
 19 18  1  0
 20 19  2  0
 21 20  1  0
 21 17  1  0
  2 22  1  0
  2 23  1  0
  2 24  1  0
  3 25  1  0
  3 26  1  0
  3 27  1  0
  4 28  1  0
  4 29  1  0
  8 30  1  0
 11 31  1  0
 12 32  1  0
 18 33  1  0
 19 34  1  0
 20 35  1  0
M  ISO  8  22   8  23   8  24   8  25   8  26   8  27   8  28   8  29   8
M  ISO  6  30  14  31  14  32  14  33  14  34  14  35  14
M  END
>  <minimizedAffinity>  (1) 
-4.6236949

>  <minimizedRMSD>  (1) 
0.894189

$$$$
