
     RDKit          3D

 43 47  0  0  0  0  0  0  0  0999 V2000
   44.9460   24.7710   37.0940 N   0  0  0  0  0  0  0  0  0  0  0  0
   44.5490   25.5710   38.0850 N   0  0  0  0  0  0  0  0  0  0  0  0
   45.5030   25.8260   38.9590 C   0  0  0  0  0  0  0  0  0  0  0  0
   46.6410   25.1650   38.5580 C   0  0  0  0  0  0  0  0  0  0  0  0
   46.2440   24.5100   37.3740 C   0  0  0  0  0  0  0  0  0  0  0  0
   47.1640   23.6490   36.5630 C   0  0  0  0  0  0  0  0  0  0  0  0
   47.8350   24.1870   35.4250 C   0  0  0  0  0  0  0  0  0  0  0  0
   48.8010   22.7630   34.8200 S   0  0  0  0  0  0  0  0  0  0  0  0
   48.1360   21.6690   36.2140 C   0  0  0  0  0  0  0  0  0  0  0  0
   47.4680   22.3740   36.7650 N   0  0  0  0  0  0  0  0  0  0  0  0
   48.4260   20.2610   36.4950 N   0  0  0  0  0  0  0  0  0  0  0  0
   49.7350   19.9790   36.5560 C   0  0  0  0  0  0  0  0  0  0  0  0
   50.1250   18.6710   36.8170 C   0  0  0  0  0  0  0  0  0  0  0  0
   49.1470   17.7000   37.0060 C   0  0  0  0  0  0  0  0  0  0  0  0
   49.2650   16.4830   37.2490 O   0  0  0  0  0  0  0  0  0  0  0  0
   47.8370   18.0680   36.9280 N   0  0  0  0  0  0  0  0  0  0  0  0
   47.4640   19.3370   36.6750 C   0  0  0  0  0  0  0  0  0  0  0  0
   46.2620   19.7050   36.5960 O   0  0  0  0  0  0  0  0  0  0  0  0
   44.2190   24.2670   35.9650 C   0  0  0  0  0  0  0  0  0  0  0  0
   41.0620   22.4720   37.0100 C   0  0  0  0  0  0  0  0  0  0  0  0
   41.9460   23.4600   36.6470 C   0  0  0  0  0  0  0  0  0  0  0  0
   43.2810   23.1730   36.3570 C   0  0  0  0  0  0  0  0  0  0  0  0
   43.6370   21.8530   36.4610 N   0  0  0  0  0  0  0  0  0  0  0  0
   42.7610   20.8950   36.8180 C   0  0  0  0  0  0  0  0  0  0  0  0
   41.4890   21.2340   37.0840 N   0  0  0  0  0  0  0  0  0  0  0  0
   39.6680   22.8570   37.3010 C   0  0  0  0  0  0  0  0  0  0  0  0
   38.6580   22.8590   36.3470 C   0  0  0  0  0  0  0  0  0  0  0  0
   37.5650   23.2780   37.0680 C   0  0  0  0  0  0  0  0  0  0  0  0
   37.9240   23.5100   38.3770 C   0  0  0  0  0  0  0  0  0  0  0  0
   39.2120   23.2380   38.4660 O   0  0  0  0  0  0  0  0  0  0  0  0
   45.4057   26.4580   39.8540 H   0  0  0  0  0  0  0  0  0  0  0  0
   47.6270   25.1508   39.0455 H   0  0  0  0  0  0  0  0  0  0  0  0
   47.7829   25.2063   35.0147 H   0  0  0  0  0  0  0  0  0  0  0  0
   50.4861   20.7678   36.4024 H   0  0  0  0  0  0  0  0  0  0  0  0
   51.1914   18.4073   36.8733 H   0  0  0  0  0  0  0  0  0  0  0  0
   47.1091   17.3527   37.0670 H   0  0  0  0  0  0  0  0  0  0  0  0
   44.9339   23.8761   35.2260 H   0  0  0  0  0  0  0  0  0  0  0  0
   43.6269   25.0918   35.5419 H   0  0  0  0  0  0  0  0  0  0  0  0
   41.5936   24.5001   36.5836 H   0  0  0  0  0  0  0  0  0  0  0  0
   43.0836   19.8459   36.8910 H   0  0  0  0  0  0  0  0  0  0  0  0
   38.7179   22.5921   35.2815 H   0  0  0  0  0  0  0  0  0  0  0  0
   36.5522   23.4088   36.6592 H   0  0  0  0  0  0  0  0  0  0  0  0
   37.2664   23.8543   39.1887 H   0  0  0  0  0  0  0  0  0  0  0  0
  1  5  1  0
  1  2  1  0
  2  3  2  0
  4  3  1  0
  5  4  2  0
  6 10  1  0
  6  5  1  0
  7  6  2  0
  8  7  1  0
  8  9  1  0
  9 11  1  0
  9 10  2  0
 11 12  1  0
 11 17  1  0
 12 13  2  0
 13 14  1  0
 14 15  2  0
 16 14  1  0
 17 16  1  0
 18 17  2  0
 19 22  1  0
 19  1  1  0
 20 25  1  0
 20 26  1  0
 21 20  2  0
 22 23  2  0
 22 21  1  0
 23 24  1  0
 24 25  2  0
 26 30  1  0
 27 28  1  0
 27 26  2  0
 28 29  2  0
 29 30  1  0
  3 31  1  0
  4 32  1  0
  7 33  1  0
 12 34  1  0
 13 35  1  0
 16 36  1  0
 19 37  1  0
 19 38  1  0
 21 39  1  0
 24 40  1  0
 27 41  1  0
 28 42  1  0
 29 43  1  0
M  ISO  8  31  14  32  14  33  14  34  14  35  14  36   9  37   8  38   8
M  ISO  5  39  14  40  14  41  14  42  14  43  14
M  END
>  <minimizedAffinity>  (1) 
-5.31401634

>  <minimizedRMSD>  (1) 
0.633124888

$$$$
