
     RDKit          3D

 47 51  0  0  0  0  0  0  0  0999 V2000
   44.9600   24.7410   37.0920 N   0  0  0  0  0  0  0  0  0  0  0  0
   44.6310   25.5910   38.0590 N   0  0  0  0  0  0  0  0  0  0  0  0
   45.6050   25.7900   38.9310 C   0  0  0  0  0  0  0  0  0  0  0  0
   46.6910   25.0290   38.5470 C   0  0  0  0  0  0  0  0  0  0  0  0
   46.2440   24.3800   37.3800 C   0  0  0  0  0  0  0  0  0  0  0  0
   47.0860   23.4340   36.5930 C   0  0  0  0  0  0  0  0  0  0  0  0
   48.3070   23.8690   35.9930 C   0  0  0  0  0  0  0  0  0  0  0  0
   48.9270   22.3730   35.1740 S   0  0  0  0  0  0  0  0  0  0  0  0
   47.4230   21.3700   35.7720 C   0  0  0  0  0  0  0  0  0  0  0  0
   46.8590   22.1510   36.3430 N   0  0  0  0  0  0  0  0  0  0  0  0
   47.1130   19.9970   35.5430 N   0  0  0  0  0  0  0  0  0  0  0  0
   47.5540   19.3540   34.3190 C   0  0  0  0  0  0  0  0  0  0  0  0
   47.0340   17.9340   34.2730 C   0  0  0  0  0  0  0  0  0  0  0  0
   45.6490   17.9130   34.6310 N   0  0  0  0  0  0  0  0  0  0  0  0
   45.4810   18.1980   36.0250 C   0  0  0  0  0  0  0  0  0  0  0  0
   46.3540   19.2790   36.5640 C   0  0  0  0  0  0  0  0  0  0  0  0
   44.1970   24.2690   35.9750 C   0  0  0  0  0  0  0  0  0  0  0  0
   41.0350   22.4890   37.0280 C   0  0  0  0  0  0  0  0  0  0  0  0
   41.9240   23.4840   36.6610 C   0  0  0  0  0  0  0  0  0  0  0  0
   43.2550   23.1830   36.3680 C   0  0  0  0  0  0  0  0  0  0  0  0
   43.5990   21.8690   36.4720 N   0  0  0  0  0  0  0  0  0  0  0  0
   42.7200   20.9070   36.8320 C   0  0  0  0  0  0  0  0  0  0  0  0
   41.4540   21.2520   37.1010 N   0  0  0  0  0  0  0  0  0  0  0  0
   39.6510   22.8830   37.3210 C   0  0  0  0  0  0  0  0  0  0  0  0
   38.6300   22.9220   36.3920 C   0  0  0  0  0  0  0  0  0  0  0  0
   37.5430   23.3360   37.1020 C   0  0  0  0  0  0  0  0  0  0  0  0
   37.9090   23.5390   38.4170 C   0  0  0  0  0  0  0  0  0  0  0  0
   39.1950   23.2510   38.4960 O   0  0  0  0  0  0  0  0  0  0  0  0
   45.5580   26.4485   39.8109 H   0  0  0  0  0  0  0  0  0  0  0  0
   47.6728   24.9487   39.0366 H   0  0  0  0  0  0  0  0  0  0  0  0
   48.7621   24.8701   36.0207 H   0  0  0  0  0  0  0  0  0  0  0  0
   47.1688   19.9127   33.4532 H   0  0  0  0  0  0  0  0  0  0  0  0
   48.6535   19.3404   34.2904 H   0  0  0  0  0  0  0  0  0  0  0  0
   47.1542   17.5339   33.2554 H   0  0  0  0  0  0  0  0  0  0  0  0
   47.6022   17.3161   34.9839 H   0  0  0  0  0  0  0  0  0  0  0  0
   45.1462   18.6219   34.0781 H   0  0  0  0  0  0  0  0  0  0  0  0
   44.4341   18.4939   36.1876 H   0  0  0  0  0  0  0  0  0  0  0  0
   45.7679   17.2805   36.5597 H   0  0  0  0  0  0  0  0  0  0  0  0
   47.0662   18.8279   37.2706 H   0  0  0  0  0  0  0  0  0  0  0  0
   45.6901   20.0145   37.0417 H   0  0  0  0  0  0  0  0  0  0  0  0
   44.8868   23.8826   35.2103 H   0  0  0  0  0  0  0  0  0  0  0  0
   43.6055   25.1103   35.5847 H   0  0  0  0  0  0  0  0  0  0  0  0
   41.5770   24.5260   36.5994 H   0  0  0  0  0  0  0  0  0  0  0  0
   43.0396   19.8569   36.9029 H   0  0  0  0  0  0  0  0  0  0  0  0
   38.6823   22.6749   35.3214 H   0  0  0  0  0  0  0  0  0  0  0  0
   36.5333   23.4849   36.6917 H   0  0  0  0  0  0  0  0  0  0  0  0
   37.2577   23.8746   39.2375 H   0  0  0  0  0  0  0  0  0  0  0  0
  1  5  1  0
  1  2  1  0
  2  3  2  0
  4  3  1  0
  5  4  2  0
  6  5  1  0
  7  6  2  0
  8  9  1  0
  8  7  1  0
  9 10  2  0
 10  6  1  0
 11  9  1  0
 11 16  1  0
 12 11  1  0
 13 12  1  0
 13 14  1  0
 14 15  1  0
 15 16  1  0
 17 20  1  0
 17  1  1  0
 18 23  1  0
 18 24  1  0
 19 18  2  0
 20 21  2  0
 20 19  1  0
 21 22  1  0
 22 23  2  0
 24 28  1  0
 25 26  1  0
 25 24  2  0
 26 27  2  0
 27 28  1  0
  3 29  1  0
  4 30  1  0
  7 31  1  0
 12 32  1  0
 12 33  1  0
 13 34  1  0
 13 35  1  0
 14 36  1  0
 15 37  1  0
 15 38  1  0
 16 39  1  0
 16 40  1  0
 17 41  1  0
 17 42  1  0
 19 43  1  0
 22 44  1  0
 25 45  1  0
 26 46  1  0
 27 47  1  0
M  ISO  8  29  14  30  14  31  14  32  13  33  13  34  13  35  13  36   5
M  ISO  8  37  13  38  13  39  13  40  13  41   8  42   8  43  14  44  14
M  ISO  3  45  14  46  14  47  14
M  END
>  <minimizedAffinity>  (1) 
-5.21484518

>  <minimizedRMSD>  (1) 
0.6705814

$$$$
