
     RDKit          3D

 42 46  0  0  0  0  0  0  0  0999 V2000
   44.9490   24.7890   37.1040 N   0  0  0  0  0  0  0  0  0  0  0  0
   44.5630   25.6040   38.0800 N   0  0  0  0  0  0  0  0  0  0  0  0
   45.5160   25.8420   38.9580 C   0  0  0  0  0  0  0  0  0  0  0  0
   46.6450   25.1450   38.5700 C   0  0  0  0  0  0  0  0  0  0  0  0
   46.2470   24.4940   37.3960 C   0  0  0  0  0  0  0  0  0  0  0  0
   47.1350   23.6060   36.5970 C   0  0  0  0  0  0  0  0  0  0  0  0
   48.1280   24.1810   35.7160 C   0  0  0  0  0  0  0  0  0  0  0  0
   48.9200   22.6880   34.9970 S   0  0  0  0  0  0  0  0  0  0  0  0
   47.7890   21.5610   35.9980 C   0  0  0  0  0  0  0  0  0  0  0  0
   47.1550   22.2790   36.5690 N   0  0  0  0  0  0  0  0  0  0  0  0
   47.8830   20.0490   35.9020 C   0  0  0  0  0  0  0  0  0  0  0  0
   46.8740   19.3500   36.5350 C   0  0  0  0  0  0  0  0  0  0  0  0
   46.9890   17.9810   36.4270 C   0  0  0  0  0  0  0  0  0  0  0  0
   48.0420   17.4080   35.7360 C   0  0  0  0  0  0  0  0  0  0  0  0
   49.0060   18.1900   35.1330 C   0  0  0  0  0  0  0  0  0  0  0  0
   48.9350   19.5350   35.2120 N   0  0  0  0  0  0  0  0  0  0  0  0
   44.2110   24.3000   35.9810 C   0  0  0  0  0  0  0  0  0  0  0  0
   41.0680   22.4670   37.0030 C   0  0  0  0  0  0  0  0  0  0  0  0
   41.9460   23.4850   36.6480 C   0  0  0  0  0  0  0  0  0  0  0  0
   43.2840   23.1980   36.3600 C   0  0  0  0  0  0  0  0  0  0  0  0
   43.6430   21.8920   36.4530 N   0  0  0  0  0  0  0  0  0  0  0  0
   42.7690   20.9130   36.8020 C   0  0  0  0  0  0  0  0  0  0  0  0
   41.4970   21.2460   37.0670 N   0  0  0  0  0  0  0  0  0  0  0  0
   39.6730   22.8480   37.2910 C   0  0  0  0  0  0  0  0  0  0  0  0
   38.6590   22.8500   36.3540 C   0  0  0  0  0  0  0  0  0  0  0  0
   37.5610   23.2680   37.0720 C   0  0  0  0  0  0  0  0  0  0  0  0
   37.9280   23.5010   38.3810 C   0  0  0  0  0  0  0  0  0  0  0  0
   39.2120   23.2320   38.4570 O   0  0  0  0  0  0  0  0  0  0  0  0
   45.4284   26.4845   39.8465 H   0  0  0  0  0  0  0  0  0  0  0  0
   47.6258   25.1100   39.0669 H   0  0  0  0  0  0  0  0  0  0  0  0
   48.3515   25.2411   35.5255 H   0  0  0  0  0  0  0  0  0  0  0  0
   46.0525   19.8418   37.0766 H   0  0  0  0  0  0  0  0  0  0  0  0
   46.2330   17.3346   36.8968 H   0  0  0  0  0  0  0  0  0  0  0  0
   48.1118   16.3124   35.6663 H   0  0  0  0  0  0  0  0  0  0  0  0
   49.8344   17.7155   34.5865 H   0  0  0  0  0  0  0  0  0  0  0  0
   44.9187   23.9253   35.2268 H   0  0  0  0  0  0  0  0  0  0  0  0
   43.6081   25.1296   35.5832 H   0  0  0  0  0  0  0  0  0  0  0  0
   41.5858   24.5229   36.5933 H   0  0  0  0  0  0  0  0  0  0  0  0
   43.0984   19.8654   36.8662 H   0  0  0  0  0  0  0  0  0  0  0  0
   38.7149   22.5818   35.2887 H   0  0  0  0  0  0  0  0  0  0  0  0
   36.5474   23.3963   36.6645 H   0  0  0  0  0  0  0  0  0  0  0  0
   37.2761   23.8436   39.1981 H   0  0  0  0  0  0  0  0  0  0  0  0
  1  5  1  0
  1  2  1  0
  2  3  2  0
  4  3  1  0
  5  4  2  0
  6  5  1  0
  7  6  2  0
  8  7  1  0
  8  9  1  0
  9 10  2  0
 10  6  1  0
 11  9  1  0
 11 12  2  0
 13 12  1  0
 14 13  2  0
 15 16  2  0
 15 14  1  0
 16 11  1  0
 17 20  1  0
 17  1  1  0
 18 23  1  0
 18 24  1  0
 19 18  2  0
 20 21  2  0
 20 19  1  0
 21 22  1  0
 22 23  2  0
 24 28  1  0
 25 26  1  0
 25 24  2  0
 26 27  2  0
 27 28  1  0
  3 29  1  0
  4 30  1  0
  7 31  1  0
 12 32  1  0
 13 33  1  0
 14 34  1  0
 15 35  1  0
 17 36  1  0
 17 37  1  0
 19 38  1  0
 22 39  1  0
 25 40  1  0
 26 41  1  0
 27 42  1  0
M  ISO  8  29  14  30  14  31  14  32  14  33  14  34  14  35  14  36   8
M  ISO  6  37   8  38  14  39  14  40  14  41  14  42  14
M  END
>  <minimizedAffinity>  (1) 
-4.9512949

>  <minimizedRMSD>  (1) 
0.285859436

$$$$
