
     RDKit          3D

 34 37  0  0  0  0  0  0  0  0999 V2000
   44.2220   24.2760   35.9780 C   0  0  0  0  0  0  0  0  0  0  0  0
   41.0670   22.4680   37.0090 C   0  0  0  0  0  0  0  0  0  0  0  0
   41.9460   23.4600   36.6540 C   0  0  0  0  0  0  0  0  0  0  0  0
   43.2940   23.1790   36.3600 C   0  0  0  0  0  0  0  0  0  0  0  0
   43.6460   21.8640   36.4560 N   0  0  0  0  0  0  0  0  0  0  0  0
   42.7730   20.8900   36.8070 C   0  0  0  0  0  0  0  0  0  0  0  0
   41.5000   21.2390   37.0740 N   0  0  0  0  0  0  0  0  0  0  0  0
   39.6780   22.8510   37.3000 C   0  0  0  0  0  0  0  0  0  0  0  0
   38.6620   22.8560   36.3520 C   0  0  0  0  0  0  0  0  0  0  0  0
   37.5670   23.2690   37.0550 C   0  0  0  0  0  0  0  0  0  0  0  0
   37.9320   23.4990   38.3770 C   0  0  0  0  0  0  0  0  0  0  0  0
   39.2240   23.2260   38.4530 O   0  0  0  0  0  0  0  0  0  0  0  0
   44.9600   24.7610   37.1110 N   0  0  0  0  0  0  0  0  0  0  0  0
   44.5850   25.5540   38.1020 N   0  0  0  0  0  0  0  0  0  0  0  0
   45.5430   25.7880   38.9740 C   0  0  0  0  0  0  0  0  0  0  0  0
   46.6750   25.1040   38.5600 C   0  0  0  0  0  0  0  0  0  0  0  0
   46.2680   24.4720   37.3870 C   0  0  0  0  0  0  0  0  0  0  0  0
   47.1680   23.6020   36.5630 C   0  0  0  0  0  0  0  0  0  0  0  0
   48.0810   24.1910   35.6400 C   0  0  0  0  0  0  0  0  0  0  0  0
   48.9110   22.7440   34.9170 S   0  0  0  0  0  0  0  0  0  0  0  0
   47.8850   21.5650   35.9850 C   0  0  0  0  0  0  0  0  0  0  0  0
   47.2480   22.2770   36.5620 N   0  0  0  0  0  0  0  0  0  0  0  0
   47.8390   20.1100   36.1150 O   0  0  0  0  0  0  0  0  0  0  0  0
   44.9300   23.8991   35.2252 H   0  0  0  0  0  0  0  0  0  0  0  0
   43.6254   25.1071   35.5738 H   0  0  0  0  0  0  0  0  0  0  0  0
   41.5892   24.4990   36.5978 H   0  0  0  0  0  0  0  0  0  0  0  0
   43.0955   19.8404   36.8724 H   0  0  0  0  0  0  0  0  0  0  0  0
   38.7251   22.5900   35.2865 H   0  0  0  0  0  0  0  0  0  0  0  0
   36.5561   23.3992   36.6413 H   0  0  0  0  0  0  0  0  0  0  0  0
   37.2786   23.8391   39.1940 H   0  0  0  0  0  0  0  0  0  0  0  0
   45.4597   26.4161   39.8732 H   0  0  0  0  0  0  0  0  0  0  0  0
   47.6623   25.0685   39.0436 H   0  0  0  0  0  0  0  0  0  0  0  0
   48.2431   25.2565   35.4199 H   0  0  0  0  0  0  0  0  0  0  0  0
   47.2092   19.6897   36.7528 H   0  0  0  0  0  0  0  0  0  0  0  0
  1  4  1  0
  1 13  1  0
  2  7  1  0
  2  8  1  0
  3  2  2  0
  4  5  2  0
  4  3  1  0
  5  6  1  0
  6  7  2  0
  8 12  1  0
  9 10  1  0
  9  8  2  0
 10 11  2  0
 11 12  1  0
 13 17  1  0
 13 14  1  0
 14 15  2  0
 16 15  1  0
 17 16  2  0
 18 17  1  0
 19 18  2  0
 20 19  1  0
 20 21  1  0
 21 23  1  0
 21 22  2  0
 22 18  1  0
  1 24  1  0
  1 25  1  0
  3 26  1  0
  6 27  1  0
  9 28  1  0
 10 29  1  0
 11 30  1  0
 15 31  1  0
 16 32  1  0
 19 33  1  0
 23 34  1  0
M  ISO  8  24   8  25   8  26  14  27  14  28  14  29  14  30  14  31  14
M  ISO  3  32  14  33  14  34   3
M  END
>  <minimizedAffinity>  (1) 
-4.94241524

>  <minimizedRMSD>  (1) 
0.0699904338

$$$$
