
     RDKit          3D

 43 47  0  0  0  0  0  0  0  0999 V2000
   44.9450   24.7890   37.0970 N   0  0  0  0  0  0  0  0  0  0  0  0
   44.5560   25.6050   38.0690 N   0  0  0  0  0  0  0  0  0  0  0  0
   45.5120   25.8440   38.9560 C   0  0  0  0  0  0  0  0  0  0  0  0
   46.6340   25.1470   38.5730 C   0  0  0  0  0  0  0  0  0  0  0  0
   46.2350   24.4900   37.3880 C   0  0  0  0  0  0  0  0  0  0  0  0
   47.1430   23.5980   36.5970 C   0  0  0  0  0  0  0  0  0  0  0  0
   48.1330   24.1780   35.7440 C   0  0  0  0  0  0  0  0  0  0  0  0
   48.9300   22.6860   35.0460 S   0  0  0  0  0  0  0  0  0  0  0  0
   47.7900   21.5420   36.0260 C   0  0  0  0  0  0  0  0  0  0  0  0
   47.1530   22.2720   36.5820 N   0  0  0  0  0  0  0  0  0  0  0  0
   47.9050   20.0880   35.9200 C   0  0  0  0  0  0  0  0  0  0  0  0
   48.9080   19.4830   35.1820 C   0  0  0  0  0  0  0  0  0  0  0  0
   48.9530   18.1210   35.1270 C   0  0  0  0  0  0  0  0  0  0  0  0
   48.0410   17.3180   35.7770 C   0  0  0  0  0  0  0  0  0  0  0  0
   47.0540   17.9030   36.5040 C   0  0  0  0  0  0  0  0  0  0  0  0
   46.9920   19.2790   36.5710 C   0  0  0  0  0  0  0  0  0  0  0  0
   44.2160   24.2950   35.9630 C   0  0  0  0  0  0  0  0  0  0  0  0
   41.0620   22.4730   37.0080 C   0  0  0  0  0  0  0  0  0  0  0  0
   41.9440   23.4680   36.6460 C   0  0  0  0  0  0  0  0  0  0  0  0
   43.2800   23.1920   36.3540 C   0  0  0  0  0  0  0  0  0  0  0  0
   43.6440   21.8800   36.4510 N   0  0  0  0  0  0  0  0  0  0  0  0
   42.7670   20.9140   36.8070 C   0  0  0  0  0  0  0  0  0  0  0  0
   41.4950   21.2510   37.0750 N   0  0  0  0  0  0  0  0  0  0  0  0
   39.6740   22.8520   37.2980 C   0  0  0  0  0  0  0  0  0  0  0  0
   38.6530   22.8550   36.3680 C   0  0  0  0  0  0  0  0  0  0  0  0
   37.5600   23.2700   37.0790 C   0  0  0  0  0  0  0  0  0  0  0  0
   37.9280   23.5010   38.3840 C   0  0  0  0  0  0  0  0  0  0  0  0
   39.2130   23.2320   38.4520 O   0  0  0  0  0  0  0  0  0  0  0  0
   45.4232   26.4876   39.8436 H   0  0  0  0  0  0  0  0  0  0  0  0
   47.6132   25.1099   39.0727 H   0  0  0  0  0  0  0  0  0  0  0  0
   48.3562   25.2388   35.5571 H   0  0  0  0  0  0  0  0  0  0  0  0
   49.6552   20.0899   34.6496 H   0  0  0  0  0  0  0  0  0  0  0  0
   49.7507   17.6434   34.5391 H   0  0  0  0  0  0  0  0  0  0  0  0
   48.1111   16.2224   35.7083 H   0  0  0  0  0  0  0  0  0  0  0  0
   46.3127   17.2863   37.0332 H   0  0  0  0  0  0  0  0  0  0  0  0
   46.1908   19.7479   37.1611 H   0  0  0  0  0  0  0  0  0  0  0  0
   44.9291   23.9122   35.2180 H   0  0  0  0  0  0  0  0  0  0  0  0
   43.6223   25.1217   35.5457 H   0  0  0  0  0  0  0  0  0  0  0  0
   41.5856   24.5062   36.5857 H   0  0  0  0  0  0  0  0  0  0  0  0
   43.0916   19.8653   36.8762 H   0  0  0  0  0  0  0  0  0  0  0  0
   38.7061   22.5861   35.3027 H   0  0  0  0  0  0  0  0  0  0  0  0
   36.5466   23.3986   36.6711 H   0  0  0  0  0  0  0  0  0  0  0  0
   37.2789   23.8416   39.2042 H   0  0  0  0  0  0  0  0  0  0  0  0
  1  5  1  0
  1  2  1  0
  2  3  2  0
  4  3  1  0
  5  4  2  0
  6  5  1  0
  7  6  2  0
  8  7  1  0
  8  9  1  0
  9 10  2  0
 10  6  1  0
 11  9  1  0
 11 16  1  0
 12 11  2  0
 13 12  1  0
 13 14  2  0
 14 15  1  0
 15 16  2  0
 17 20  1  0
 17  1  1  0
 18 23  1  0
 18 24  1  0
 19 18  2  0
 20 21  2  0
 20 19  1  0
 21 22  1  0
 22 23  2  0
 24 28  1  0
 25 26  1  0
 25 24  2  0
 26 27  2  0
 27 28  1  0
  3 29  1  0
  4 30  1  0
  7 31  1  0
 12 32  1  0
 13 33  1  0
 14 34  1  0
 15 35  1  0
 16 36  1  0
 17 37  1  0
 17 38  1  0
 19 39  1  0
 22 40  1  0
 25 41  1  0
 26 42  1  0
 27 43  1  0
M  ISO  8  29  14  30  14  31  14  32  14  33  14  34  14  35  14  36  14
M  ISO  7  37   8  38   8  39  14  40  14  41  14  42  14  43  14
M  END
>  <minimizedAffinity>  (1) 
-4.96614838

>  <minimizedRMSD>  (1) 
0.508952081

$$$$
