
     RDKit          3D

 41 45  0  0  0  0  0  0  0  0999 V2000
   44.9480   24.7920   37.1100 N   0  0  0  0  0  0  0  0  0  0  0  0
   44.5710   25.6060   38.0840 N   0  0  0  0  0  0  0  0  0  0  0  0
   45.5320   25.8390   38.9600 C   0  0  0  0  0  0  0  0  0  0  0  0
   46.6540   25.1380   38.5640 C   0  0  0  0  0  0  0  0  0  0  0  0
   46.2380   24.4860   37.3840 C   0  0  0  0  0  0  0  0  0  0  0  0
   47.1260   23.5980   36.5850 C   0  0  0  0  0  0  0  0  0  0  0  0
   48.0940   24.1740   35.6770 C   0  0  0  0  0  0  0  0  0  0  0  0
   48.8990   22.6880   34.9690 S   0  0  0  0  0  0  0  0  0  0  0  0
   47.8030   21.5560   36.0090 C   0  0  0  0  0  0  0  0  0  0  0  0
   47.1660   22.2730   36.5800 N   0  0  0  0  0  0  0  0  0  0  0  0
   47.9330   20.0580   35.9240 C   0  0  0  0  0  0  0  0  0  0  0  0
   47.0400   19.2560   36.5800 C   0  0  0  0  0  0  0  0  0  0  0  0
   47.2060   17.9120   36.4690 C   0  0  0  0  0  0  0  0  0  0  0  0
   48.2030   17.3570   35.7470 N   0  0  0  0  0  0  0  0  0  0  0  0
   49.0670   18.1700   35.1130 C   0  0  0  0  0  0  0  0  0  0  0  0
   48.9330   19.5270   35.2010 N   0  0  0  0  0  0  0  0  0  0  0  0
   44.2050   24.3050   35.9870 C   0  0  0  0  0  0  0  0  0  0  0  0
   41.0610   22.4740   37.0110 C   0  0  0  0  0  0  0  0  0  0  0  0
   41.9410   23.4830   36.6570 C   0  0  0  0  0  0  0  0  0  0  0  0
   43.2770   23.2020   36.3660 C   0  0  0  0  0  0  0  0  0  0  0  0
   43.6410   21.8920   36.4530 N   0  0  0  0  0  0  0  0  0  0  0  0
   42.7680   20.9160   36.8000 C   0  0  0  0  0  0  0  0  0  0  0  0
   41.4960   21.2460   37.0710 N   0  0  0  0  0  0  0  0  0  0  0  0
   39.6720   22.8530   37.3030 C   0  0  0  0  0  0  0  0  0  0  0  0
   38.6520   22.8570   36.3650 C   0  0  0  0  0  0  0  0  0  0  0  0
   37.5540   23.2710   37.0730 C   0  0  0  0  0  0  0  0  0  0  0  0
   37.9210   23.4980   38.3770 C   0  0  0  0  0  0  0  0  0  0  0  0
   39.2080   23.2310   38.4610 O   0  0  0  0  0  0  0  0  0  0  0  0
   45.4523   26.4801   39.8503 H   0  0  0  0  0  0  0  0  0  0  0  0
   47.6386   25.0976   39.0527 H   0  0  0  0  0  0  0  0  0  0  0  0
   48.2955   25.2345   35.4654 H   0  0  0  0  0  0  0  0  0  0  0  0
   46.2189   19.6828   37.1747 H   0  0  0  0  0  0  0  0  0  0  0  0
   46.4990   17.2487   36.9888 H   0  0  0  0  0  0  0  0  0  0  0  0
   49.8871   17.7395   34.5196 H   0  0  0  0  0  0  0  0  0  0  0  0
   44.9101   23.9312   35.2300 H   0  0  0  0  0  0  0  0  0  0  0  0
   43.6014   25.1361   35.5934 H   0  0  0  0  0  0  0  0  0  0  0  0
   41.5818   24.5214   36.6043 H   0  0  0  0  0  0  0  0  0  0  0  0
   43.0972   19.8681   36.8587 H   0  0  0  0  0  0  0  0  0  0  0  0
   38.7101   22.5899   35.2995 H   0  0  0  0  0  0  0  0  0  0  0  0
   36.5416   23.4007   36.6629 H   0  0  0  0  0  0  0  0  0  0  0  0
   37.2665   23.8372   39.1934 H   0  0  0  0  0  0  0  0  0  0  0  0
  1  5  1  0
  1  2  1  0
  2  3  2  0
  4  3  1  0
  5  4  2  0
  6  5  1  0
  7  6  2  0
  8  7  1  0
  8  9  1  0
  9 10  2  0
 10  6  1  0
 11  9  1  0
 11 12  2  0
 13 12  1  0
 14 13  2  0
 15 16  2  0
 15 14  1  0
 16 11  1  0
 17 20  1  0
 17  1  1  0
 18 23  1  0
 18 24  1  0
 19 18  2  0
 20 21  2  0
 20 19  1  0
 21 22  1  0
 22 23  2  0
 24 28  1  0
 25 26  1  0
 25 24  2  0
 26 27  2  0
 27 28  1  0
  3 29  1  0
  4 30  1  0
  7 31  1  0
 12 32  1  0
 13 33  1  0
 15 34  1  0
 17 35  1  0
 17 36  1  0
 19 37  1  0
 22 38  1  0
 25 39  1  0
 26 40  1  0
 27 41  1  0
M  ISO  8  29  14  30  14  31  14  32  14  33  14  34  14  35   8  36   8
M  ISO  5  37  14  38  14  39  14  40  14  41  14
M  END
>  <minimizedAffinity>  (1) 
-4.94369268

>  <minimizedRMSD>  (1) 
0.237188756

$$$$
