
     RDKit          3D

 45 48  0  0  0  0  0  0  0  0999 V2000
   44.2080   24.3070   35.9530 C   0  0  0  0  0  0  0  0  0  0  0  0
   41.0640   22.4780   37.0120 C   0  0  0  0  0  0  0  0  0  0  0  0
   41.9410   23.4770   36.6460 C   0  0  0  0  0  0  0  0  0  0  0  0
   43.2770   23.2040   36.3470 C   0  0  0  0  0  0  0  0  0  0  0  0
   43.6430   21.8890   36.4460 N   0  0  0  0  0  0  0  0  0  0  0  0
   42.7700   20.9190   36.8070 C   0  0  0  0  0  0  0  0  0  0  0  0
   41.4990   21.2480   37.0810 N   0  0  0  0  0  0  0  0  0  0  0  0
   39.6740   22.8540   37.3090 C   0  0  0  0  0  0  0  0  0  0  0  0
   38.6570   22.8510   36.3650 C   0  0  0  0  0  0  0  0  0  0  0  0
   37.5610   23.2610   37.0720 C   0  0  0  0  0  0  0  0  0  0  0  0
   37.9220   23.4920   38.3760 C   0  0  0  0  0  0  0  0  0  0  0  0
   39.2130   23.2300   38.4620 O   0  0  0  0  0  0  0  0  0  0  0  0
   44.9400   24.8020   37.0900 N   0  0  0  0  0  0  0  0  0  0  0  0
   44.5610   25.6230   38.0610 N   0  0  0  0  0  0  0  0  0  0  0  0
   45.5120   25.8560   38.9450 C   0  0  0  0  0  0  0  0  0  0  0  0
   46.6340   25.1480   38.5660 C   0  0  0  0  0  0  0  0  0  0  0  0
   46.2300   24.4930   37.3830 C   0  0  0  0  0  0  0  0  0  0  0  0
   47.1320   23.5920   36.5970 C   0  0  0  0  0  0  0  0  0  0  0  0
   48.0730   24.1530   35.6840 C   0  0  0  0  0  0  0  0  0  0  0  0
   48.8800   22.6440   35.0250 S   0  0  0  0  0  0  0  0  0  0  0  0
   47.8090   21.5280   36.0970 C   0  0  0  0  0  0  0  0  0  0  0  0
   47.1730   22.2650   36.6440 N   0  0  0  0  0  0  0  0  0  0  0  0
   47.9630   20.0460   36.0450 C   0  0  0  0  0  0  0  0  0  0  0  0
   48.4090   19.5580   34.6820 C   0  0  0  0  0  0  0  0  0  0  0  0
   48.9130   19.5580   37.1180 C   0  0  0  0  0  0  0  0  0  0  0  0
   46.6080   19.4990   36.3300 C   0  0  0  0  0  0  0  0  0  0  0  0
   44.9200   23.9259   35.2062 H   0  0  0  0  0  0  0  0  0  0  0  0
   43.6128   25.1326   35.5357 H   0  0  0  0  0  0  0  0  0  0  0  0
   41.5792   24.5142   36.5882 H   0  0  0  0  0  0  0  0  0  0  0  0
   43.0999   19.8718   36.8749 H   0  0  0  0  0  0  0  0  0  0  0  0
   38.7181   22.5824   35.3001 H   0  0  0  0  0  0  0  0  0  0  0  0
   36.5486   23.3861   36.6604 H   0  0  0  0  0  0  0  0  0  0  0  0
   37.2640   23.8295   39.1903 H   0  0  0  0  0  0  0  0  0  0  0  0
   45.4255   26.5026   39.8307 H   0  0  0  0  0  0  0  0  0  0  0  0
   47.6121   25.1044   39.0674 H   0  0  0  0  0  0  0  0  0  0  0  0
   48.2637   25.2086   35.4403 H   0  0  0  0  0  0  0  0  0  0  0  0
   49.1465   18.7511   34.8047 H   0  0  0  0  0  0  0  0  0  0  0  0
   47.5392   19.1784   34.1258 H   0  0  0  0  0  0  0  0  0  0  0  0
   48.8652   20.3902   34.1258 H   0  0  0  0  0  0  0  0  0  0  0  0
   48.4893   19.7757   38.1095 H   0  0  0  0  0  0  0  0  0  0  0  0
   49.0596   18.4730   37.0121 H   0  0  0  0  0  0  0  0  0  0  0  0
   49.8804   20.0708   37.0121 H   0  0  0  0  0  0  0  0  0  0  0  0
   46.4584   19.4386   37.4181 H   0  0  0  0  0  0  0  0  0  0  0  0
   45.8460   20.1600   35.8912 H   0  0  0  0  0  0  0  0  0  0  0  0
   46.5184   18.4943   35.8912 H   0  0  0  0  0  0  0  0  0  0  0  0
  1  4  1  0
  1 13  1  0
  2  7  1  0
  2  8  1  0
  3  2  2  0
  4  5  2  0
  4  3  1  0
  5  6  1  0
  6  7  2  0
  8 12  1  0
  9 10  1  0
  9  8  2  0
 10 11  2  0
 11 12  1  0
 13 17  1  0
 13 14  1  0
 14 15  2  0
 16 15  1  0
 17 16  2  0
 18 22  1  0
 18 17  1  0
 19 18  2  0
 20 19  1  0
 20 21  1  0
 21 22  2  0
 23 21  1  0
 23 26  1  0
 23 25  1  0
 24 23  1  0
  1 27  1  0
  1 28  1  0
  3 29  1  0
  6 30  1  0
  9 31  1  0
 10 32  1  0
 11 33  1  0
 15 34  1  0
 16 35  1  0
 19 36  1  0
 24 37  1  0
 24 38  1  0
 24 39  1  0
 25 40  1  0
 25 41  1  0
 25 42  1  0
 26 43  1  0
 26 44  1  0
 26 45  1  0
M  ISO  8  27   8  28   8  29  14  30  14  31  14  32  14  33  14  34  14
M  ISO  8  35  14  36  14  37   8  38   8  39   8  40   8  41   8  42   8
M  ISO  3  43   8  44   8  45   8
M  END
>  <minimizedAffinity>  (1) 
-4.94394064

>  <minimizedRMSD>  (1) 
0.523804963

$$$$
