
     RDKit          3D

 40 44  0  0  0  0  0  0  0  0999 V2000
   44.2080   24.2940   35.9840 C   0  0  0  0  0  0  0  0  0  0  0  0
   41.0610   22.4710   37.0090 C   0  0  0  0  0  0  0  0  0  0  0  0
   41.9400   23.4740   36.6550 C   0  0  0  0  0  0  0  0  0  0  0  0
   43.2780   23.1970   36.3640 C   0  0  0  0  0  0  0  0  0  0  0  0
   43.6420   21.8840   36.4540 N   0  0  0  0  0  0  0  0  0  0  0  0
   42.7680   20.9110   36.8020 C   0  0  0  0  0  0  0  0  0  0  0  0
   41.4940   21.2460   37.0700 N   0  0  0  0  0  0  0  0  0  0  0  0
   39.6700   22.8540   37.2990 C   0  0  0  0  0  0  0  0  0  0  0  0
   38.6500   22.8600   36.3530 C   0  0  0  0  0  0  0  0  0  0  0  0
   37.5550   23.2760   37.0700 C   0  0  0  0  0  0  0  0  0  0  0  0
   37.9210   23.5030   38.3770 C   0  0  0  0  0  0  0  0  0  0  0  0
   39.2110   23.2330   38.4670 O   0  0  0  0  0  0  0  0  0  0  0  0
   44.9540   24.7810   37.1150 N   0  0  0  0  0  0  0  0  0  0  0  0
   44.5760   25.5780   38.0950 N   0  0  0  0  0  0  0  0  0  0  0  0
   45.5340   25.8120   38.9660 C   0  0  0  0  0  0  0  0  0  0  0  0
   46.6570   25.1250   38.5600 C   0  0  0  0  0  0  0  0  0  0  0  0
   46.2480   24.4790   37.3760 C   0  0  0  0  0  0  0  0  0  0  0  0
   47.1490   23.6010   36.5630 C   0  0  0  0  0  0  0  0  0  0  0  0
   48.0800   24.1830   35.6550 C   0  0  0  0  0  0  0  0  0  0  0  0
   48.8900   22.7140   34.9560 S   0  0  0  0  0  0  0  0  0  0  0  0
   47.8350   21.5570   36.0090 C   0  0  0  0  0  0  0  0  0  0  0  0
   47.2000   22.2780   36.5780 N   0  0  0  0  0  0  0  0  0  0  0  0
   48.1010   20.1130   35.8250 C   0  0  0  0  0  0  0  0  0  0  0  0
   48.0170   19.1440   36.8550 C   0  0  0  0  0  0  0  0  0  0  0  0
   48.3060   17.8780   36.4500 C   0  0  0  0  0  0  0  0  0  0  0  0
   48.6500   17.5440   35.1640 C   0  0  0  0  0  0  0  0  0  0  0  0
   48.5620   19.2400   34.3850 S   0  0  0  0  0  0  0  0  0  0  0  0
   44.9131   23.9169   35.2286 H   0  0  0  0  0  0  0  0  0  0  0  0
   43.6090   25.1266   35.5865 H   0  0  0  0  0  0  0  0  0  0  0  0
   41.5801   24.5121   36.6009 H   0  0  0  0  0  0  0  0  0  0  0  0
   43.0950   19.8626   36.8646 H   0  0  0  0  0  0  0  0  0  0  0  0
   38.7069   22.5952   35.2869 H   0  0  0  0  0  0  0  0  0  0  0  0
   36.5418   23.4075   36.6624 H   0  0  0  0  0  0  0  0  0  0  0  0
   37.2648   23.8441   39.1912 H   0  0  0  0  0  0  0  0  0  0  0  0
   45.4525   26.4454   39.8617 H   0  0  0  0  0  0  0  0  0  0  0  0
   47.6429   25.0890   39.0464 H   0  0  0  0  0  0  0  0  0  0  0  0
   48.2614   25.2453   35.4344 H   0  0  0  0  0  0  0  0  0  0  0  0
   47.7424   19.3933   37.8906 H   0  0  0  0  0  0  0  0  0  0  0  0
   48.2613   17.0732   37.1985 H   0  0  0  0  0  0  0  0  0  0  0  0
   48.9024   16.5683   34.7232 H   0  0  0  0  0  0  0  0  0  0  0  0
  1  4  1  0
  1 13  1  0
  2  7  1  0
  2  8  1  0
  3  2  2  0
  4  5  2  0
  4  3  1  0
  5  6  1  0
  6  7  2  0
  8 12  1  0
  9 10  1  0
  9  8  2  0
 10 11  2  0
 11 12  1  0
 13 17  1  0
 13 14  1  0
 14 15  2  0
 16 15  1  0
 17 16  2  0
 18 22  1  0
 18 17  1  0
 19 18  2  0
 20 19  1  0
 20 21  1  0
 21 22  2  0
 23 21  1  0
 23 24  2  0
 25 24  1  0
 26 25  2  0
 27 26  1  0
 27 23  1  0
  1 28  1  0
  1 29  1  0
  3 30  1  0
  6 31  1  0
  9 32  1  0
 10 33  1  0
 11 34  1  0
 15 35  1  0
 16 36  1  0
 19 37  1  0
 24 38  1  0
 25 39  1  0
 26 40  1  0
M  ISO  8  28   8  29   8  30  14  31  14  32  14  33  14  34  14  35  14
M  ISO  5  36  14  37  14  38  14  39  14  40  14
M  END
>  <minimizedAffinity>  (1) 
-4.86343813

>  <minimizedRMSD>  (1) 
0.112981632

$$$$
