
     RDKit          3D

 39 43  0  0  0  0  0  0  0  0999 V2000
   44.2030   24.3040   35.9630 C   0  0  0  0  0  0  0  0  0  0  0  0
   41.0560   22.4830   37.0110 C   0  0  0  0  0  0  0  0  0  0  0  0
   41.9340   23.4870   36.6470 C   0  0  0  0  0  0  0  0  0  0  0  0
   43.2720   23.2030   36.3530 C   0  0  0  0  0  0  0  0  0  0  0  0
   43.6350   21.8970   36.4490 N   0  0  0  0  0  0  0  0  0  0  0  0
   42.7620   20.9220   36.8060 C   0  0  0  0  0  0  0  0  0  0  0  0
   41.4900   21.2560   37.0770 N   0  0  0  0  0  0  0  0  0  0  0  0
   39.6660   22.8590   37.3050 C   0  0  0  0  0  0  0  0  0  0  0  0
   38.6490   22.8560   36.3530 C   0  0  0  0  0  0  0  0  0  0  0  0
   37.5550   23.2670   37.0670 C   0  0  0  0  0  0  0  0  0  0  0  0
   37.9170   23.5020   38.3870 C   0  0  0  0  0  0  0  0  0  0  0  0
   39.2060   23.2350   38.4610 O   0  0  0  0  0  0  0  0  0  0  0  0
   44.9440   24.7930   37.0960 N   0  0  0  0  0  0  0  0  0  0  0  0
   44.5700   25.6110   38.0770 N   0  0  0  0  0  0  0  0  0  0  0  0
   45.5180   25.8420   38.9480 C   0  0  0  0  0  0  0  0  0  0  0  0
   46.6460   25.1400   38.5590 C   0  0  0  0  0  0  0  0  0  0  0  0
   46.2350   24.4870   37.3760 C   0  0  0  0  0  0  0  0  0  0  0  0
   47.1310   23.5950   36.5820 C   0  0  0  0  0  0  0  0  0  0  0  0
   48.0590   24.1580   35.6590 C   0  0  0  0  0  0  0  0  0  0  0  0
   48.8740   22.6750   34.9870 S   0  0  0  0  0  0  0  0  0  0  0  0
   47.8300   21.5270   36.0610 C   0  0  0  0  0  0  0  0  0  0  0  0
   47.1870   22.2760   36.6220 N   0  0  0  0  0  0  0  0  0  0  0  0
   47.9970   20.0560   36.0060 C   0  0  0  0  0  0  0  0  0  0  0  0
   48.8990   19.5240   35.0880 C   0  0  0  0  0  0  0  0  0  0  0  0
   48.7540   17.7170   35.3930 S   0  0  0  0  0  0  0  0  0  0  0  0
   47.4610   18.0130   36.7490 C   0  0  0  0  0  0  0  0  0  0  0  0
   47.3790   19.1540   36.7410 N   0  0  0  0  0  0  0  0  0  0  0  0
   44.9097   23.9249   35.2101 H   0  0  0  0  0  0  0  0  0  0  0  0
   43.6060   25.1336   35.5563 H   0  0  0  0  0  0  0  0  0  0  0  0
   41.5750   24.5251   36.5876 H   0  0  0  0  0  0  0  0  0  0  0  0
   43.0909   19.8744   36.8724 H   0  0  0  0  0  0  0  0  0  0  0  0
   38.7098   22.5887   35.2877 H   0  0  0  0  0  0  0  0  0  0  0  0
   36.5421   23.3921   36.6567 H   0  0  0  0  0  0  0  0  0  0  0  0
   37.2625   23.8413   39.2034 H   0  0  0  0  0  0  0  0  0  0  0  0
   45.4335   26.4840   39.8372 H   0  0  0  0  0  0  0  0  0  0  0  0
   47.6279   25.1003   39.0532 H   0  0  0  0  0  0  0  0  0  0  0  0
   48.2371   25.2158   35.4153 H   0  0  0  0  0  0  0  0  0  0  0  0
   49.5369   20.0516   34.3636 H   0  0  0  0  0  0  0  0  0  0  0  0
   46.9307   17.2816   37.3765 H   0  0  0  0  0  0  0  0  0  0  0  0
  1  4  1  0
  1 13  1  0
  2  7  1  0
  2  8  1  0
  3  2  2  0
  4  5  2  0
  4  3  1  0
  5  6  1  0
  6  7  2  0
  8 12  1  0
  9 10  1  0
  9  8  2  0
 10 11  2  0
 11 12  1  0
 13 17  1  0
 13 14  1  0
 14 15  2  0
 16 15  1  0
 17 16  2  0
 18 22  1  0
 18 17  1  0
 19 18  2  0
 20 19  1  0
 20 21  1  0
 21 22  2  0
 23 21  1  0
 23 27  1  0
 24 25  1  0
 24 23  2  0
 25 26  1  0
 27 26  2  0
  1 28  1  0
  1 29  1  0
  3 30  1  0
  6 31  1  0
  9 32  1  0
 10 33  1  0
 11 34  1  0
 15 35  1  0
 16 36  1  0
 19 37  1  0
 24 38  1  0
 26 39  1  0
M  ISO  8  28   8  29   8  30  14  31  14  32  14  33  14  34  14  35  14
M  ISO  4  36  14  37  14  38  14  39  14
M  END
>  <minimizedAffinity>  (1) 
-4.8831563

>  <minimizedRMSD>  (1) 
0.155462623

$$$$
