
     RDKit          3D

 35 38  0  0  0  0  0  0  0  0999 V2000
   44.2270   24.2770   35.9810 C   0  0  0  0  0  0  0  0  0  0  0  0
   41.0660   22.4600   37.0060 C   0  0  0  0  0  0  0  0  0  0  0  0
   41.9510   23.4750   36.6490 C   0  0  0  0  0  0  0  0  0  0  0  0
   43.2870   23.1710   36.3650 C   0  0  0  0  0  0  0  0  0  0  0  0
   43.6470   21.8650   36.4570 N   0  0  0  0  0  0  0  0  0  0  0  0
   42.7690   20.8980   36.8050 C   0  0  0  0  0  0  0  0  0  0  0  0
   41.4970   21.2400   37.0690 N   0  0  0  0  0  0  0  0  0  0  0  0
   39.6800   22.8450   37.2920 C   0  0  0  0  0  0  0  0  0  0  0  0
   38.6620   22.8560   36.3630 C   0  0  0  0  0  0  0  0  0  0  0  0
   37.5640   23.2720   37.0570 C   0  0  0  0  0  0  0  0  0  0  0  0
   37.9320   23.5010   38.3690 C   0  0  0  0  0  0  0  0  0  0  0  0
   39.2240   23.2270   38.4550 O   0  0  0  0  0  0  0  0  0  0  0  0
   44.9670   24.7600   37.1140 N   0  0  0  0  0  0  0  0  0  0  0  0
   44.5860   25.5470   38.1030 N   0  0  0  0  0  0  0  0  0  0  0  0
   45.5460   25.7840   38.9800 C   0  0  0  0  0  0  0  0  0  0  0  0
   46.6800   25.1030   38.5600 C   0  0  0  0  0  0  0  0  0  0  0  0
   46.2680   24.4720   37.3810 C   0  0  0  0  0  0  0  0  0  0  0  0
   47.1660   23.6100   36.5580 C   0  0  0  0  0  0  0  0  0  0  0  0
   48.0840   24.1910   35.6330 C   0  0  0  0  0  0  0  0  0  0  0  0
   48.9150   22.7290   34.9110 S   0  0  0  0  0  0  0  0  0  0  0  0
   47.8790   21.5650   35.9830 C   0  0  0  0  0  0  0  0  0  0  0  0
   47.2410   22.2860   36.5600 N   0  0  0  0  0  0  0  0  0  0  0  0
   47.9440   20.1230   36.0010 N   0  0  0  0  0  0  0  0  0  0  0  0
   44.9340   23.8991   35.2277 H   0  0  0  0  0  0  0  0  0  0  0  0
   43.6318   25.1099   35.5785 H   0  0  0  0  0  0  0  0  0  0  0  0
   41.5994   24.5157   36.5904 H   0  0  0  0  0  0  0  0  0  0  0  0
   43.0908   19.8482   36.8709 H   0  0  0  0  0  0  0  0  0  0  0  0
   38.7218   22.5885   35.2977 H   0  0  0  0  0  0  0  0  0  0  0  0
   36.5540   23.4033   36.6415 H   0  0  0  0  0  0  0  0  0  0  0  0
   37.2780   23.8445   39.1840 H   0  0  0  0  0  0  0  0  0  0  0  0
   45.4613   26.4090   39.8812 H   0  0  0  0  0  0  0  0  0  0  0  0
   47.6689   25.0676   39.0404 H   0  0  0  0  0  0  0  0  0  0  0  0
   48.2510   25.2550   35.4091 H   0  0  0  0  0  0  0  0  0  0  0  0
   47.3282   19.5875   36.6294 H   0  0  0  0  0  0  0  0  0  0  0  0
   48.6062   19.6296   35.3854 H   0  0  0  0  0  0  0  0  0  0  0  0
  1  4  1  0
  1 13  1  0
  2  7  1  0
  2  8  1  0
  3  2  2  0
  4  5  2  0
  4  3  1  0
  5  6  1  0
  6  7  2  0
  8 12  1  0
  9 10  1  0
  9  8  2  0
 10 11  2  0
 11 12  1  0
 13 17  1  0
 13 14  1  0
 14 15  2  0
 16 15  1  0
 17 16  2  0
 18 22  1  0
 18 17  1  0
 19 18  2  0
 20 19  1  0
 20 21  1  0
 21 23  1  0
 21 22  2  0
  1 24  1  0
  1 25  1  0
  3 26  1  0
  6 27  1  0
  9 28  1  0
 10 29  1  0
 11 30  1  0
 15 31  1  0
 16 32  1  0
 19 33  1  0
 23 34  1  0
 23 35  1  0
M  ISO  8  24   8  25   8  26  14  27  14  28  14  29  14  30  14  31  14
M  ISO  2  32  14  33  14
M  END
>  <minimizedAffinity>  (1) 
-4.93764925

>  <minimizedRMSD>  (1) 
0.0667265877

$$$$
