
     RDKit          3D

 40 44  0  0  0  0  0  0  0  0999 V2000
   44.2280   24.2790   35.9720 C   0  0  0  0  0  0  0  0  0  0  0  0
   41.0680   22.4630   37.0010 C   0  0  0  0  0  0  0  0  0  0  0  0
   41.9520   23.4770   36.6430 C   0  0  0  0  0  0  0  0  0  0  0  0
   43.2900   23.1760   36.3560 C   0  0  0  0  0  0  0  0  0  0  0  0
   43.6450   21.8670   36.4510 N   0  0  0  0  0  0  0  0  0  0  0  0
   42.7640   20.9000   36.8020 C   0  0  0  0  0  0  0  0  0  0  0  0
   41.4960   21.2350   37.0670 N   0  0  0  0  0  0  0  0  0  0  0  0
   39.6790   22.8470   37.2890 C   0  0  0  0  0  0  0  0  0  0  0  0
   38.6620   22.8550   36.3660 C   0  0  0  0  0  0  0  0  0  0  0  0
   37.5640   23.2720   37.0620 C   0  0  0  0  0  0  0  0  0  0  0  0
   37.9340   23.5010   38.3630 C   0  0  0  0  0  0  0  0  0  0  0  0
   39.2250   23.2320   38.4570 O   0  0  0  0  0  0  0  0  0  0  0  0
   44.9340   24.7940   37.1150 N   0  0  0  0  0  0  0  0  0  0  0  0
   44.5250   25.6150   38.0680 N   0  0  0  0  0  0  0  0  0  0  0  0
   45.4560   25.8680   38.9640 C   0  0  0  0  0  0  0  0  0  0  0  0
   46.5970   25.1730   38.6100 C   0  0  0  0  0  0  0  0  0  0  0  0
   46.2190   24.5060   37.4310 C   0  0  0  0  0  0  0  0  0  0  0  0
   47.1420   23.6110   36.6630 C   0  0  0  0  0  0  0  0  0  0  0  0
   48.2450   24.1800   35.9250 C   0  0  0  0  0  0  0  0  0  0  0  0
   49.0230   22.6920   35.2000 S   0  0  0  0  0  0  0  0  0  0  0  0
   47.7410   21.5660   36.0090 C   0  0  0  0  0  0  0  0  0  0  0  0
   47.0910   22.2890   36.5590 N   0  0  0  0  0  0  0  0  0  0  0  0
   47.8500   20.0770   35.7690 C   0  0  0  0  0  0  0  0  0  0  0  0
   46.9170   19.2290   36.5480 C   0  0  0  0  0  0  0  0  0  0  0  0
   48.3430   19.3190   36.9500 C   0  0  0  0  0  0  0  0  0  0  0  0
   44.9579   23.8908   35.2464 H   0  0  0  0  0  0  0  0  0  0  0  0
   43.6372   25.0972   35.5344 H   0  0  0  0  0  0  0  0  0  0  0  0
   41.5992   24.5173   36.5853 H   0  0  0  0  0  0  0  0  0  0  0  0
   43.0874   19.8507   36.8685 H   0  0  0  0  0  0  0  0  0  0  0  0
   38.7194   22.5851   35.3012 H   0  0  0  0  0  0  0  0  0  0  0  0
   36.5528   23.4024   36.6491 H   0  0  0  0  0  0  0  0  0  0  0  0
   37.2784   23.8446   39.1767 H   0  0  0  0  0  0  0  0  0  0  0  0
   45.3449   26.5201   39.8429 H   0  0  0  0  0  0  0  0  0  0  0  0
   47.5679   25.1476   39.1265 H   0  0  0  0  0  0  0  0  0  0  0  0
   48.5406   25.2348   35.8248 H   0  0  0  0  0  0  0  0  0  0  0  0
   48.1166   20.1470   34.7041 H   0  0  0  0  0  0  0  0  0  0  0  0
   46.1399   19.6959   37.1710 H   0  0  0  0  0  0  0  0  0  0  0  0
   46.2289   18.4058   36.3054 H   0  0  0  0  0  0  0  0  0  0  0  0
   49.0098   18.4553   36.8106 H   0  0  0  0  0  0  0  0  0  0  0  0
   48.8761   19.5803   37.8760 H   0  0  0  0  0  0  0  0  0  0  0  0
  1  4  1  0
  1 13  1  0
  2  7  1  0
  2  8  1  0
  3  2  2  0
  4  5  2  0
  4  3  1  0
  5  6  1  0
  6  7  2  0
  8 12  1  0
  9 10  1  0
  9  8  2  0
 10 11  2  0
 11 12  1  0
 13 17  1  0
 13 14  1  0
 14 15  2  0
 16 15  1  0
 17 16  2  0
 18 17  1  0
 19 18  2  0
 20 19  1  0
 20 21  1  0
 21 22  2  0
 22 18  1  0
 23 21  1  0
 23 24  1  0
 23 25  1  0
 24 25  1  0
  1 26  1  0
  1 27  1  0
  3 28  1  0
  6 29  1  0
  9 30  1  0
 10 31  1  0
 11 32  1  0
 15 33  1  0
 16 34  1  0
 19 35  1  0
 23 36  1  0
 24 37  1  0
 24 38  1  0
 25 39  1  0
 25 40  1  0
M  ISO  8  26   8  27   8  28  14  29  14  30  14  31  14  32  14  33  14
M  ISO  7  34  14  35  14  36  13  37  13  38  13  39  13  40  13
M  END
>  <minimizedAffinity>  (1) 
-4.93792677

>  <minimizedRMSD>  (1) 
0.329182416

$$$$
