
     RDKit          3D

 36 39  0  0  0  0  0  0  0  0999 V2000
   44.2050   24.3020   35.9710 C   0  0  0  0  0  0  0  0  0  0  0  0
   41.0550   22.4910   37.0050 C   0  0  0  0  0  0  0  0  0  0  0  0
   41.9360   23.4830   36.6470 C   0  0  0  0  0  0  0  0  0  0  0  0
   43.2710   23.2020   36.3570 C   0  0  0  0  0  0  0  0  0  0  0  0
   43.6400   21.8860   36.4510 N   0  0  0  0  0  0  0  0  0  0  0  0
   42.7660   20.9190   36.8020 C   0  0  0  0  0  0  0  0  0  0  0  0
   41.4910   21.2560   37.0700 N   0  0  0  0  0  0  0  0  0  0  0  0
   39.6650   22.8600   37.2970 C   0  0  0  0  0  0  0  0  0  0  0  0
   38.6480   22.8590   36.3600 C   0  0  0  0  0  0  0  0  0  0  0  0
   37.5520   23.2660   37.0780 C   0  0  0  0  0  0  0  0  0  0  0  0
   37.9190   23.4930   38.3830 C   0  0  0  0  0  0  0  0  0  0  0  0
   39.2120   23.2310   38.4560 O   0  0  0  0  0  0  0  0  0  0  0  0
   44.9480   24.7880   37.1100 N   0  0  0  0  0  0  0  0  0  0  0  0
   44.5790   25.5940   38.0970 N   0  0  0  0  0  0  0  0  0  0  0  0
   45.5340   25.8200   38.9690 C   0  0  0  0  0  0  0  0  0  0  0  0
   46.6530   25.1260   38.5680 C   0  0  0  0  0  0  0  0  0  0  0  0
   46.2410   24.4820   37.3830 C   0  0  0  0  0  0  0  0  0  0  0  0
   47.1370   23.5960   36.5720 C   0  0  0  0  0  0  0  0  0  0  0  0
   48.0940   24.1700   35.6820 C   0  0  0  0  0  0  0  0  0  0  0  0
   48.8870   22.6750   34.9770 S   0  0  0  0  0  0  0  0  0  0  0  0
   47.7890   21.5340   36.0080 C   0  0  0  0  0  0  0  0  0  0  0  0
   47.1650   22.2700   36.5710 N   0  0  0  0  0  0  0  0  0  0  0  0
   47.8940   20.0520   35.9370 C   0  0  0  0  0  0  0  0  0  0  0  0
   47.5130   19.5750   34.6970 F   0  0  0  0  0  0  0  0  0  0  0  0
   47.0210   19.5730   36.8970 F   0  0  0  0  0  0  0  0  0  0  0  0
   49.1640   19.6080   36.2910 F   0  0  0  0  0  0  0  0  0  0  0  0
   44.9118   23.9233   35.2180 H   0  0  0  0  0  0  0  0  0  0  0  0
   43.6104   25.1340   35.5656 H   0  0  0  0  0  0  0  0  0  0  0  0
   41.5803   24.5222   36.5878 H   0  0  0  0  0  0  0  0  0  0  0  0
   43.0914   19.8703   36.8680 H   0  0  0  0  0  0  0  0  0  0  0  0
   38.7043   22.5949   35.2936 H   0  0  0  0  0  0  0  0  0  0  0  0
   36.5372   23.3912   36.6723 H   0  0  0  0  0  0  0  0  0  0  0  0
   37.2663   23.8264   39.2032 H   0  0  0  0  0  0  0  0  0  0  0  0
   45.4539   26.4538   39.8645 H   0  0  0  0  0  0  0  0  0  0  0  0
   47.6374   25.0837   39.0570 H   0  0  0  0  0  0  0  0  0  0  0  0
   48.3011   25.2301   35.4740 H   0  0  0  0  0  0  0  0  0  0  0  0
  1  4  1  0
  1 13  1  0
  2  7  1  0
  2  8  1  0
  3  2  2  0
  4  5  2  0
  4  3  1  0
  5  6  1  0
  6  7  2  0
  8 12  1  0
  9 10  1  0
  9  8  2  0
 10 11  2  0
 11 12  1  0
 13 17  1  0
 13 14  1  0
 14 15  2  0
 16 15  1  0
 17 16  2  0
 18 17  1  0
 19 18  2  0
 20 19  1  0
 20 21  1  0
 21 22  2  0
 22 18  1  0
 23 21  1  0
 23 26  1  0
 23 25  1  0
 24 23  1  0
  1 27  1  0
  1 28  1  0
  3 29  1  0
  6 30  1  0
  9 31  1  0
 10 32  1  0
 11 33  1  0
 15 34  1  0
 16 35  1  0
 19 36  1  0
M  ISO  8  27   8  28   8  29  14  30  14  31  14  32  14  33  14  34  14
M  ISO  2  35  14  36  14
M  END
>  <minimizedAffinity>  (1) 
-4.8904953

>  <minimizedRMSD>  (1) 
0.119219042

$$$$
