
     RDKit          3D

 40 44  0  0  0  0  0  0  0  0999 V2000
   44.1840   24.3390   35.9770 C   0  0  0  0  0  0  0  0  0  0  0  0
   41.0540   22.4970   37.0090 C   0  0  0  0  0  0  0  0  0  0  0  0
   41.9240   23.5000   36.6530 C   0  0  0  0  0  0  0  0  0  0  0  0
   43.2600   23.2400   36.3590 C   0  0  0  0  0  0  0  0  0  0  0  0
   43.6360   21.9260   36.4480 N   0  0  0  0  0  0  0  0  0  0  0  0
   42.7700   20.9460   36.8000 C   0  0  0  0  0  0  0  0  0  0  0  0
   41.4980   21.2680   37.0690 N   0  0  0  0  0  0  0  0  0  0  0  0
   39.6600   22.8620   37.3030 C   0  0  0  0  0  0  0  0  0  0  0  0
   38.6380   22.8550   36.3830 C   0  0  0  0  0  0  0  0  0  0  0  0
   37.5410   23.2540   37.0790 C   0  0  0  0  0  0  0  0  0  0  0  0
   37.9110   23.4930   38.3970 C   0  0  0  0  0  0  0  0  0  0  0  0
   39.1950   23.2360   38.4550 O   0  0  0  0  0  0  0  0  0  0  0  0
   44.9360   24.8240   37.1100 N   0  0  0  0  0  0  0  0  0  0  0  0
   44.5680   25.6450   38.0730 N   0  0  0  0  0  0  0  0  0  0  0  0
   45.5330   25.8670   38.9530 C   0  0  0  0  0  0  0  0  0  0  0  0
   46.6400   25.1460   38.5650 C   0  0  0  0  0  0  0  0  0  0  0  0
   46.2210   24.4940   37.3870 C   0  0  0  0  0  0  0  0  0  0  0  0
   47.1010   23.5800   36.5910 C   0  0  0  0  0  0  0  0  0  0  0  0
   48.0790   24.1300   35.6930 C   0  0  0  0  0  0  0  0  0  0  0  0
   48.8430   22.6130   35.0060 S   0  0  0  0  0  0  0  0  0  0  0  0
   47.7140   21.5130   36.0450 C   0  0  0  0  0  0  0  0  0  0  0  0
   47.0960   22.2540   36.6050 N   0  0  0  0  0  0  0  0  0  0  0  0
   47.9160   20.0350   35.8720 C   0  0  0  0  0  0  0  0  0  0  0  0
   48.7460   19.3690   35.0350 C   0  0  0  0  0  0  0  0  0  0  0  0
   48.4880   18.0330   35.3300 C   0  0  0  0  0  0  0  0  0  0  0  0
   47.5130   17.9730   36.3330 C   0  0  0  0  0  0  0  0  0  0  0  0
   47.2170   19.2430   36.6080 O   0  0  0  0  0  0  0  0  0  0  0  0
   44.8860   23.9661   35.2167 H   0  0  0  0  0  0  0  0  0  0  0  0
   43.5819   25.1715   35.5840 H   0  0  0  0  0  0  0  0  0  0  0  0
   41.5552   24.5349   36.5990 H   0  0  0  0  0  0  0  0  0  0  0  0
   43.1064   19.9007   36.8641 H   0  0  0  0  0  0  0  0  0  0  0  0
   38.6957   22.5857   35.3180 H   0  0  0  0  0  0  0  0  0  0  0  0
   36.5275   23.3688   36.6671 H   0  0  0  0  0  0  0  0  0  0  0  0
   37.2620   23.8279   39.2196 H   0  0  0  0  0  0  0  0  0  0  0  0
   45.4622   26.5146   39.8394 H   0  0  0  0  0  0  0  0  0  0  0  0
   47.6216   25.0914   39.0585 H   0  0  0  0  0  0  0  0  0  0  0  0
   48.3083   25.1836   35.4755 H   0  0  0  0  0  0  0  0  0  0  0  0
   49.4525   19.7828   34.3004 H   0  0  0  0  0  0  0  0  0  0  0  0
   48.9708   17.1671   34.8534 H   0  0  0  0  0  0  0  0  0  0  0  0
   47.0837   17.0716   36.7947 H   0  0  0  0  0  0  0  0  0  0  0  0
  1  4  1  0
  1 13  1  0
  2  7  1  0
  2  8  1  0
  3  2  2  0
  4  5  2  0
  4  3  1  0
  5  6  1  0
  6  7  2  0
  8 12  1  0
  9 10  1  0
  9  8  2  0
 10 11  2  0
 11 12  1  0
 13 17  1  0
 13 14  1  0
 14 15  2  0
 16 15  1  0
 17 16  2  0
 18 22  1  0
 18 17  1  0
 19 18  2  0
 20 19  1  0
 20 21  1  0
 21 22  2  0
 23 21  1  0
 23 27  1  0
 24 25  1  0
 24 23  2  0
 25 26  2  0
 26 27  1  0
  1 28  1  0
  1 29  1  0
  3 30  1  0
  6 31  1  0
  9 32  1  0
 10 33  1  0
 11 34  1  0
 15 35  1  0
 16 36  1  0
 19 37  1  0
 24 38  1  0
 25 39  1  0
 26 40  1  0
M  ISO  8  28   8  29   8  30  14  31  14  32  14  33  14  34  14  35  14
M  ISO  5  36  14  37  14  38  14  39  14  40  14
M  END
>  <minimizedAffinity>  (1) 
-4.85200119

>  <minimizedRMSD>  (1) 
0.216318503

$$$$
