
     RDKit          3D

 43 47  0  0  0  0  0  0  0  0999 V2000
   44.8320   24.8390   37.1700 N   0  0  0  0  0  0  0  0  0  0  0  0
   44.2730   25.6180   38.0870 N   0  0  0  0  0  0  0  0  0  0  0  0
   45.1080   26.0070   39.0210 C   0  0  0  0  0  0  0  0  0  0  0  0
   46.3360   25.4660   38.7420 C   0  0  0  0  0  0  0  0  0  0  0  0
   46.1350   24.7290   37.5640 C   0  0  0  0  0  0  0  0  0  0  0  0
   47.2100   23.9530   36.8720 C   0  0  0  0  0  0  0  0  0  0  0  0
   48.3030   24.6240   36.2730 C   0  0  0  0  0  0  0  0  0  0  0  0
   49.2760   23.2400   35.5970 S   0  0  0  0  0  0  0  0  0  0  0  0
   48.0320   21.9600   36.2430 C   0  0  0  0  0  0  0  0  0  0  0  0
   47.2900   22.6460   36.7310 N   0  0  0  0  0  0  0  0  0  0  0  0
   48.6400   25.9830   36.1700 N   0  0  0  0  0  0  0  0  0  0  0  0
   48.1210   26.8110   35.3020 N   0  0  0  0  0  0  0  0  0  0  0  0
   48.6540   28.0530   35.4590 C   0  0  0  0  0  0  0  0  0  0  0  0
   49.5600   27.9170   36.5160 C   0  0  0  0  0  0  0  0  0  0  0  0
   49.5430   26.6040   36.9590 C   0  0  0  0  0  0  0  0  0  0  0  0
   48.2070   20.5020   36.0340 C   0  0  0  0  0  0  0  0  0  0  0  0
   48.0580   20.1540   34.7170 F   0  0  0  0  0  0  0  0  0  0  0  0
   47.2100   19.9150   36.8010 F   0  0  0  0  0  0  0  0  0  0  0  0
   49.4190   20.0530   36.5690 F   0  0  0  0  0  0  0  0  0  0  0  0
   44.2710   24.2100   35.9980 C   0  0  0  0  0  0  0  0  0  0  0  0
   41.0770   22.4410   36.9990 C   0  0  0  0  0  0  0  0  0  0  0  0
   41.9860   23.4190   36.6500 C   0  0  0  0  0  0  0  0  0  0  0  0
   43.3150   23.1140   36.3730 C   0  0  0  0  0  0  0  0  0  0  0  0
   43.6570   21.7960   36.4650 N   0  0  0  0  0  0  0  0  0  0  0  0
   42.7650   20.8480   36.8050 C   0  0  0  0  0  0  0  0  0  0  0  0
   41.4940   21.2060   37.0620 N   0  0  0  0  0  0  0  0  0  0  0  0
   39.6950   22.8320   37.2780 C   0  0  0  0  0  0  0  0  0  0  0  0
   38.6840   22.8440   36.3330 C   0  0  0  0  0  0  0  0  0  0  0  0
   37.5870   23.2690   37.0310 C   0  0  0  0  0  0  0  0  0  0  0  0
   37.9490   23.4940   38.3340 C   0  0  0  0  0  0  0  0  0  0  0  0
   39.2430   23.2150   38.4390 O   0  0  0  0  0  0  0  0  0  0  0  0
   44.8653   26.6535   39.8773 H   0  0  0  0  0  0  0  0  0  0  0  0
   47.2691   25.5829   39.3126 H   0  0  0  0  0  0  0  0  0  0  0  0
   48.4238   28.9615   34.8831 H   0  0  0  0  0  0  0  0  0  0  0  0
   50.1852   28.7224   36.9290 H   0  0  0  0  0  0  0  0  0  0  0  0
   50.1354   26.1640   37.7748 H   0  0  0  0  0  0  0  0  0  0  0  0
   45.0862   23.7838   35.3949 H   0  0  0  0  0  0  0  0  0  0  0  0
   43.7204   24.9707   35.4251 H   0  0  0  0  0  0  0  0  0  0  0  0
   41.6517   24.4652   36.5893 H   0  0  0  0  0  0  0  0  0  0  0  0
   43.0711   19.7936   36.8720 H   0  0  0  0  0  0  0  0  0  0  0  0
   38.7477   22.5745   35.2684 H   0  0  0  0  0  0  0  0  0  0  0  0
   36.5784   23.4077   36.6145 H   0  0  0  0  0  0  0  0  0  0  0  0
   37.2895   23.8414   39.1429 H   0  0  0  0  0  0  0  0  0  0  0  0
  1  5  1  0
  1  2  1  0
  2  3  2  0
  4  3  1  0
  5  4  2  0
  6  5  1  0
  7  6  2  0
  8  9  1  0
  8  7  1  0
  9 10  2  0
 10  6  1  0
 11  7  1  0
 11 15  1  0
 12 13  2  0
 12 11  1  0
 13 14  1  0
 14 15  2  0
 16  9  1  0
 16 19  1  0
 16 18  1  0
 17 16  1  0
 20 23  1  0
 20  1  1  0
 21 26  1  0
 21 27  1  0
 22 21  2  0
 23 24  2  0
 23 22  1  0
 24 25  1  0
 25 26  2  0
 27 31  1  0
 28 29  1  0
 28 27  2  0
 29 30  2  0
 30 31  1  0
  3 32  1  0
  4 33  1  0
 13 34  1  0
 14 35  1  0
 15 36  1  0
 20 37  1  0
 20 38  1  0
 22 39  1  0
 25 40  1  0
 28 41  1  0
 29 42  1  0
 30 43  1  0
M  ISO  8  32  14  33  14  34  14  35  14  36  14  37   8  38   8  39  14
M  ISO  4  40  14  41  14  42  14  43  14
M  END
>  <minimizedAffinity>  (1) 
-5.30313969

>  <minimizedRMSD>  (1) 
0.594182968

$$$$
