
     RDKit          3D

 43 47  0  0  0  0  0  0  0  0999 V2000
   44.9150   24.8220   37.2090 N   0  0  0  0  0  0  0  0  0  0  0  0
   44.5000   25.5820   38.2110 N   0  0  0  0  0  0  0  0  0  0  0  0
   45.4300   25.8210   39.0950 C   0  0  0  0  0  0  0  0  0  0  0  0
   46.5790   25.1870   38.6900 C   0  0  0  0  0  0  0  0  0  0  0  0
   46.2080   24.5610   37.4820 C   0  0  0  0  0  0  0  0  0  0  0  0
   47.1490   23.7360   36.6580 C   0  0  0  0  0  0  0  0  0  0  0  0
   48.0690   24.3670   35.7730 C   0  0  0  0  0  0  0  0  0  0  0  0
   48.9430   22.9310   35.0440 S   0  0  0  0  0  0  0  0  0  0  0  0
   47.9180   21.7160   36.0570 C   0  0  0  0  0  0  0  0  0  0  0  0
   47.2600   22.4190   36.6270 N   0  0  0  0  0  0  0  0  0  0  0  0
   48.2660   25.7760   35.5150 C   0  0  0  0  0  0  0  0  0  0  0  0
   49.0910   26.6400   36.2020 C   0  0  0  0  0  0  0  0  0  0  0  0
   48.9450   27.8690   35.5950 C   0  0  0  0  0  0  0  0  0  0  0  0
   48.0720   27.7550   34.5860 N   0  0  0  0  0  0  0  0  0  0  0  0
   47.6690   26.5180   34.5370 N   0  0  0  0  0  0  0  0  0  0  0  0
   48.1040   20.2440   35.9650 C   0  0  0  0  0  0  0  0  0  0  0  0
   47.8360   19.7830   34.6970 F   0  0  0  0  0  0  0  0  0  0  0  0
   47.1880   19.7040   36.8630 F   0  0  0  0  0  0  0  0  0  0  0  0
   49.3680   19.8660   36.3940 F   0  0  0  0  0  0  0  0  0  0  0  0
   44.2000   24.3370   36.0450 C   0  0  0  0  0  0  0  0  0  0  0  0
   41.0500   22.4940   37.0150 C   0  0  0  0  0  0  0  0  0  0  0  0
   41.9260   23.4910   36.6920 C   0  0  0  0  0  0  0  0  0  0  0  0
   43.2690   23.2310   36.3930 C   0  0  0  0  0  0  0  0  0  0  0  0
   43.6360   21.9090   36.4500 N   0  0  0  0  0  0  0  0  0  0  0  0
   42.7630   20.9390   36.7700 C   0  0  0  0  0  0  0  0  0  0  0  0
   41.4920   21.2610   37.0440 N   0  0  0  0  0  0  0  0  0  0  0  0
   39.6560   22.8530   37.3150 C   0  0  0  0  0  0  0  0  0  0  0  0
   38.6370   22.8240   36.3700 C   0  0  0  0  0  0  0  0  0  0  0  0
   37.5380   23.2280   37.0900 C   0  0  0  0  0  0  0  0  0  0  0  0
   37.9050   23.4770   38.3850 C   0  0  0  0  0  0  0  0  0  0  0  0
   39.2020   23.2330   38.4690 O   0  0  0  0  0  0  0  0  0  0  0  0
   45.3137   26.4256   40.0066 H   0  0  0  0  0  0  0  0  0  0  0  0
   47.5585   25.1712   39.1903 H   0  0  0  0  0  0  0  0  0  0  0  0
   49.7351   26.3981   37.0603 H   0  0  0  0  0  0  0  0  0  0  0  0
   49.4619   28.7936   35.8915 H   0  0  0  0  0  0  0  0  0  0  0  0
   47.7716   28.5140   33.9579 H   0  0  0  0  0  0  0  0  0  0  0  0
   44.9282   23.9709   35.3063 H   0  0  0  0  0  0  0  0  0  0  0  0
   43.6072   25.1683   35.6356 H   0  0  0  0  0  0  0  0  0  0  0  0
   41.5654   24.5299   36.6660 H   0  0  0  0  0  0  0  0  0  0  0  0
   43.0894   19.8892   36.8067 H   0  0  0  0  0  0  0  0  0  0  0  0
   38.6957   22.5461   35.3073 H   0  0  0  0  0  0  0  0  0  0  0  0
   36.5199   23.3348   36.6874 H   0  0  0  0  0  0  0  0  0  0  0  0
   37.2474   23.8151   39.1994 H   0  0  0  0  0  0  0  0  0  0  0  0
  1  5  1  0
  1  2  1  0
  2  3  2  0
  4  3  1  0
  5  4  2  0
  6  5  1  0
  7  6  2  0
  8  7  1  0
  8  9  1  0
  9 10  2  0
 10  6  1  0
 11  7  1  0
 11 12  1  0
 13 12  2  0
 14 13  1  0
 15 14  1  0
 15 11  2  0
 16  9  1  0
 16 19  1  0
 16 18  1  0
 17 16  1  0
 20 23  1  0
 20  1  1  0
 21 26  1  0
 21 27  1  0
 22 21  2  0
 23 24  2  0
 23 22  1  0
 24 25  1  0
 25 26  2  0
 27 31  1  0
 28 29  1  0
 28 27  2  0
 29 30  2  0
 30 31  1  0
  3 32  1  0
  4 33  1  0
 12 34  1  0
 13 35  1  0
 14 36  1  0
 20 37  1  0
 20 38  1  0
 22 39  1  0
 25 40  1  0
 28 41  1  0
 29 42  1  0
 30 43  1  0
M  ISO  8  32  14  33  14  34  14  35  14  36   9  37   8  38   8  39  14
M  ISO  4  40  14  41  14  42  14  43  14
M  END
>  <minimizedAffinity>  (1) 
-5.15144491

>  <minimizedRMSD>  (1) 
0.201470077

$$$$
