
     RDKit          3D

 43 47  0  0  0  0  0  0  0  0999 V2000
   44.9310   24.8270   37.1990 N   0  0  0  0  0  0  0  0  0  0  0  0
   44.5900   25.5800   38.2450 N   0  0  0  0  0  0  0  0  0  0  0  0
   45.5660   25.7550   39.0990 C   0  0  0  0  0  0  0  0  0  0  0  0
   46.6740   25.0860   38.6370 C   0  0  0  0  0  0  0  0  0  0  0  0
   46.2290   24.5030   37.4200 C   0  0  0  0  0  0  0  0  0  0  0  0
   47.1040   23.6670   36.5490 C   0  0  0  0  0  0  0  0  0  0  0  0
   47.9690   24.2680   35.6080 C   0  0  0  0  0  0  0  0  0  0  0  0
   48.7760   22.8130   34.8470 S   0  0  0  0  0  0  0  0  0  0  0  0
   47.7970   21.6170   35.9420 C   0  0  0  0  0  0  0  0  0  0  0  0
   47.1860   22.3370   36.5410 N   0  0  0  0  0  0  0  0  0  0  0  0
   48.2360   25.6240   35.2490 C   0  0  0  0  0  0  0  0  0  0  0  0
   49.4940   26.2210   35.2860 C   0  0  0  0  0  0  0  0  0  0  0  0
   49.3570   27.5030   34.8810 N   0  0  0  0  0  0  0  0  0  0  0  0
   48.0430   27.7370   34.5880 C   0  0  0  0  0  0  0  0  0  0  0  0
   47.3960   26.5820   34.8200 N   0  0  0  0  0  0  0  0  0  0  0  0
   47.9630   20.1520   35.8550 C   0  0  0  0  0  0  0  0  0  0  0  0
   47.4460   19.6410   34.6910 F   0  0  0  0  0  0  0  0  0  0  0  0
   47.2610   19.6410   36.9300 F   0  0  0  0  0  0  0  0  0  0  0  0
   49.2980   19.7710   36.0350 F   0  0  0  0  0  0  0  0  0  0  0  0
   44.1560   24.4100   36.0630 C   0  0  0  0  0  0  0  0  0  0  0  0
   41.0370   22.5080   37.0280 C   0  0  0  0  0  0  0  0  0  0  0  0
   41.8990   23.5380   36.7070 C   0  0  0  0  0  0  0  0  0  0  0  0
   43.2400   23.2760   36.4100 C   0  0  0  0  0  0  0  0  0  0  0  0
   43.6330   21.9760   36.4590 N   0  0  0  0  0  0  0  0  0  0  0  0
   42.7720   20.9780   36.7780 C   0  0  0  0  0  0  0  0  0  0  0  0
   41.4870   21.2860   37.0550 N   0  0  0  0  0  0  0  0  0  0  0  0
   39.6330   22.8570   37.3300 C   0  0  0  0  0  0  0  0  0  0  0  0
   38.6110   22.8030   36.3890 C   0  0  0  0  0  0  0  0  0  0  0  0
   37.5180   23.2040   37.1080 C   0  0  0  0  0  0  0  0  0  0  0  0
   37.8800   23.4770   38.4000 C   0  0  0  0  0  0  0  0  0  0  0  0
   39.1890   23.2490   38.4870 O   0  0  0  0  0  0  0  0  0  0  0  0
   45.5091   26.3389   40.0295 H   0  0  0  0  0  0  0  0  0  0  0  0
   47.6696   25.0180   39.0998 H   0  0  0  0  0  0  0  0  0  0  0  0
   50.4326   25.7351   35.5908 H   0  0  0  0  0  0  0  0  0  0  0  0
   47.6032   28.6809   34.2335 H   0  0  0  0  0  0  0  0  0  0  0  0
   46.3836   26.4477   34.6859 H   0  0  0  0  0  0  0  0  0  0  0  0
   44.8389   24.0862   35.2637 H   0  0  0  0  0  0  0  0  0  0  0  0
   43.5422   25.2609   35.7326 H   0  0  0  0  0  0  0  0  0  0  0  0
   41.5276   24.5732   36.6848 H   0  0  0  0  0  0  0  0  0  0  0  0
   43.1153   19.9335   36.8106 H   0  0  0  0  0  0  0  0  0  0  0  0
   38.6671   22.5107   35.3300 H   0  0  0  0  0  0  0  0  0  0  0  0
   36.4978   23.2939   36.7067 H   0  0  0  0  0  0  0  0  0  0  0  0
   37.2178   23.8185   39.2092 H   0  0  0  0  0  0  0  0  0  0  0  0
  1  5  1  0
  1  2  1  0
  2  3  2  0
  4  3  1  0
  5  4  2  0
  6  5  1  0
  7  6  2  0
  8  7  1  0
  8  9  1  0
  9 10  2  0
 10  6  1  0
 11 12  2  0
 11  7  1  0
 13 12  1  0
 14 15  1  0
 14 13  2  0
 15 11  1  0
 16  9  1  0
 16 19  1  0
 16 18  1  0
 17 16  1  0
 20 23  1  0
 20  1  1  0
 21 26  1  0
 21 27  1  0
 22 21  2  0
 23 24  2  0
 23 22  1  0
 24 25  1  0
 25 26  2  0
 27 31  1  0
 28 29  1  0
 28 27  2  0
 29 30  2  0
 30 31  1  0
  3 32  1  0
  4 33  1  0
 12 34  1  0
 14 35  1  0
 15 36  1  0
 20 37  1  0
 20 38  1  0
 22 39  1  0
 25 40  1  0
 28 41  1  0
 29 42  1  0
 30 43  1  0
M  ISO  8  32  14  33  14  34  14  35  14  36   9  37   8  38   8  39  14
M  ISO  4  40  14  41  14  42  14  43  14
M  END
>  <minimizedAffinity>  (1) 
-5.07989883

>  <minimizedRMSD>  (1) 
0.230201289

$$$$
