
     RDKit          3D

 37 40  0  0  0  0  0  0  0  0999 V2000
   38.6290   22.4750   35.6050 C   0  0  0  0  0  0  0  0  0  0  0  0
   39.9570   22.1110   35.6730 C   0  0  0  0  0  0  0  0  0  0  0  0
   40.7330   22.2400   36.7860 C   0  0  0  0  0  0  0  0  0  0  0  0
   40.1000   22.7630   37.8480 N   0  0  0  0  0  0  0  0  0  0  0  0
   38.8090   23.1330   37.8260 C   0  0  0  0  0  0  0  0  0  0  0  0
   38.0580   22.9920   36.7040 N   0  0  0  0  0  0  0  0  0  0  0  0
   42.0960   21.7730   36.5640 C   0  0  0  0  0  0  0  0  0  0  0  0
   42.4520   20.4700   36.5070 N   0  0  0  0  0  0  0  0  0  0  0  0
   43.6950   20.0400   36.3030 C   0  0  0  0  0  0  0  0  0  0  0  0
   44.7250   20.8870   36.1340 N   0  0  0  0  0  0  0  0  0  0  0  0
   44.4770   22.2260   36.1730 C   0  0  0  0  0  0  0  0  0  0  0  0
   45.5320   23.0610   36.0000 C   0  0  0  0  0  0  0  0  0  0  0  0
   45.3250   24.4230   36.0330 C   0  0  0  0  0  0  0  0  0  0  0  0
   44.0280   24.8660   36.2450 C   0  0  0  0  0  0  0  0  0  0  0  0
   43.0160   23.9640   36.4110 C   0  0  0  0  0  0  0  0  0  0  0  0
   43.1710   22.6020   36.3870 C   0  0  0  0  0  0  0  0  0  0  0  0
   37.7840   22.3270   34.4360 C   0  0  0  0  0  0  0  0  0  0  0  0
   36.8410   21.2990   34.3700 C   0  0  0  0  0  0  0  0  0  0  0  0
   36.1790   21.3740   33.1750 C   0  0  0  0  0  0  0  0  0  0  0  0
   36.7590   22.4670   32.5560 C   0  0  0  0  0  0  0  0  0  0  0  0
   37.7020   22.9960   33.3390 O   0  0  0  0  0  0  0  0  0  0  0  0
   35.0920   20.5090   32.6400 C   0  0  0  0  0  0  0  0  0  0  0  0
   35.4150   19.0200   32.8380 C   0  0  0  0  0  0  0  0  0  0  0  0
   40.4209   21.6886   34.7694 H   0  0  0  0  0  0  0  0  0  0  0  0
   38.3526   23.5574   38.7324 H   0  0  0  0  0  0  0  0  0  0  0  0
   43.8854   18.9571   36.2717 H   0  0  0  0  0  0  0  0  0  0  0  0
   46.5412   22.6555   35.8353 H   0  0  0  0  0  0  0  0  0  0  0  0
   46.1558   25.1310   35.8966 H   0  0  0  0  0  0  0  0  0  0  0  0
   43.8142   25.9445   36.2795 H   0  0  0  0  0  0  0  0  0  0  0  0
   42.0027   24.3591   36.5760 H   0  0  0  0  0  0  0  0  0  0  0  0
   36.6595   20.5488   35.1537 H   0  0  0  0  0  0  0  0  0  0  0  0
   36.4826   22.8459   31.5610 H   0  0  0  0  0  0  0  0  0  0  0  0
   34.9707   20.7095   31.5653 H   0  0  0  0  0  0  0  0  0  0  0  0
   34.1650   20.7388   33.1858 H   0  0  0  0  0  0  0  0  0  0  0  0
   35.4637   18.7953   33.9137 H   0  0  0  0  0  0  0  0  0  0  0  0
   34.6285   18.4089   32.3710 H   0  0  0  0  0  0  0  0  0  0  0  0
   36.3840   18.7897   32.3710 H   0  0  0  0  0  0  0  0  0  0  0  0
  1  2  2  0
  1  6  1  0
  2  3  1  0
  3  4  2  0
  5  4  1  0
  6  5  2  0
  7  3  1  0
  8  7  2  0
  9  8  1  0
 10 11  1  0
 10  9  2  0
 11 16  2  0
 12 13  2  0
 12 11  1  0
 13 14  1  0
 14 15  2  0
 16 15  1  0
 16  7  1  0
 17  1  1  0
 18 17  2  0
 19 18  1  0
 20 19  2  0
 20 21  1  0
 21 17  1  0
 22 23  1  0
 22 19  1  0
  2 24  1  0
  5 25  1  0
  9 26  1  0
 12 27  1  0
 13 28  1  0
 14 29  1  0
 15 30  1  0
 18 31  1  0
 20 32  1  0
 22 33  1  0
 22 34  1  0
 23 35  1  0
 23 36  1  0
 23 37  1  0
M  ISO  8  24  14  25  14  26  14  27  14  28  14  29  14  30  14  31  14
M  ISO  6  32  14  33   8  34   8  35   8  36   8  37   8
M  END
>  <minimizedAffinity>  (1) 
-5.40154839

>  <minimizedRMSD>  (1) 
1.22610378

$$$$
