
     RDKit          3D

 35 37  0  0  0  0  0  0  0  0999 V2000
   37.3530   22.1360   34.2770 C   0  0  0  0  0  0  0  0  0  0  0  0
   36.4590   21.0740   34.2010 C   0  0  0  0  0  0  0  0  0  0  0  0
   35.8940   21.0620   32.9430 C   0  0  0  0  0  0  0  0  0  0  0  0
   36.4790   22.1380   32.2960 C   0  0  0  0  0  0  0  0  0  0  0  0
   37.3370   22.7450   33.1250 O   0  0  0  0  0  0  0  0  0  0  0  0
   38.1150   22.4180   35.4840 C   0  0  0  0  0  0  0  0  0  0  0  0
   39.4730   22.1880   35.6350 C   0  0  0  0  0  0  0  0  0  0  0  0
   40.0810   22.4970   36.8280 C   0  0  0  0  0  0  0  0  0  0  0  0
   39.3400   23.0180   37.8260 N   0  0  0  0  0  0  0  0  0  0  0  0
   38.0000   23.2420   37.6690 C   0  0  0  0  0  0  0  0  0  0  0  0
   37.4050   22.9390   36.5000 N   0  0  0  0  0  0  0  0  0  0  0  0
   41.4570   22.2770   37.0140 N   0  0  0  0  0  0  0  0  0  0  0  0
   42.5920   23.1440   36.7670 C   0  0  0  0  0  0  0  0  0  0  0  0
   43.4390   22.2220   35.8820 C   0  0  0  0  0  0  0  0  0  0  0  0
   43.1210   20.8240   36.4270 C   0  0  0  0  0  0  0  0  0  0  0  0
   42.1020   21.0810   37.5190 C   0  0  0  0  0  0  0  0  0  0  0  0
   34.8910   20.1330   32.3770 C   0  0  0  0  0  0  0  0  0  0  0  0
   35.2560   18.6630   32.6370 C   0  0  0  0  0  0  0  0  0  0  0  0
   36.2389   20.3617   35.0098 H   0  0  0  0  0  0  0  0  0  0  0  0
   36.2707   22.4461   31.2608 H   0  0  0  0  0  0  0  0  0  0  0  0
   40.0591   21.7619   34.8074 H   0  0  0  0  0  0  0  0  0  0  0  0
   37.4108   23.6680   38.4945 H   0  0  0  0  0  0  0  0  0  0  0  0
   42.2976   24.0619   36.2372 H   0  0  0  0  0  0  0  0  0  0  0  0
   43.0985   23.5151   37.6702 H   0  0  0  0  0  0  0  0  0  0  0  0
   44.5099   22.4512   35.9848 H   0  0  0  0  0  0  0  0  0  0  0  0
   43.2156   22.3283   34.8102 H   0  0  0  0  0  0  0  0  0  0  0  0
   42.6972   20.1840   35.6391 H   0  0  0  0  0  0  0  0  0  0  0  0
   44.0147   20.2994   36.7959 H   0  0  0  0  0  0  0  0  0  0  0  0
   42.5863   21.2617   38.4900 H   0  0  0  0  0  0  0  0  0  0  0  0
   41.4178   20.2410   37.7098 H   0  0  0  0  0  0  0  0  0  0  0  0
   34.8285   20.2966   31.2910 H   0  0  0  0  0  0  0  0  0  0  0  0
   33.9267   20.3351   32.8662 H   0  0  0  0  0  0  0  0  0  0  0  0
   35.3008   18.4826   33.7212 H   0  0  0  0  0  0  0  0  0  0  0  0
   34.4926   18.0107   32.1880 H   0  0  0  0  0  0  0  0  0  0  0  0
   36.2359   18.4436   32.1880 H   0  0  0  0  0  0  0  0  0  0  0  0
  1  6  1  0
  2  1  2  0
  3  2  1  0
  4  3  2  0
  4  5  1  0
  5  1  1  0
  6  7  2  0
  6 11  1  0
  7  8  1  0
  8 12  1  0
  8  9  2  0
 10  9  1  0
 11 10  2  0
 12 16  1  0
 13 12  1  0
 14 15  1  0
 14 13  1  0
 15 16  1  0
 17 18  1  0
 17  3  1  0
  2 19  1  0
  4 20  1  0
  7 21  1  0
 10 22  1  0
 13 23  1  0
 13 24  1  0
 14 25  1  0
 14 26  1  0
 15 27  1  0
 15 28  1  0
 16 29  1  0
 16 30  1  0
 17 31  1  0
 17 32  1  0
 18 33  1  0
 18 34  1  0
 18 35  1  0
M  ISO  8  19  14  20  14  21  14  22  14  23  13  24  13  25  13  26  13
M  ISO  8  27  13  28  13  29  13  30  13  31   8  32   8  33   8  34   8
M  ISO  1  35   8
M  END
>  <minimizedAffinity>  (1) 
-4.99476576

>  <minimizedRMSD>  (1) 
0.779642761

$$$$
