
     RDKit          3D

 35 37  0  0  0  0  0  0  0  0999 V2000
   38.1220   26.8630   34.5150 C   0  0  0  0  0  0  0  0  0  0  0  0
   38.4220   27.5210   35.8290 C   0  0  0  0  0  0  0  0  0  0  0  0
   37.0910   27.7050   33.7870 C   0  0  0  0  0  0  0  0  0  0  0  0
   39.3950   26.9950   33.6400 C   0  0  0  0  0  0  0  0  0  0  0  0
   39.0710   26.8530   32.1940 C   0  0  0  0  0  0  0  0  0  0  0  0
   38.9790   25.6600   31.5550 N   0  0  0  0  0  0  0  0  0  0  0  0
   38.6830   25.8870   30.3090 O   0  0  0  0  0  0  0  0  0  0  0  0
   38.5730   27.1670   30.0830 C   0  0  0  0  0  0  0  0  0  0  0  0
   38.8120   27.7770   31.2510 N   0  0  0  0  0  0  0  0  0  0  0  0
   37.7190   25.1310   34.5870 S   0  0  0  0  0  0  0  0  0  0  0  0
   38.2990   23.5480   38.3040 C   0  0  0  0  0  0  0  0  0  0  0  0
   37.7580   24.2260   37.1940 C   0  0  0  0  0  0  0  0  0  0  0  0
   38.4080   24.2750   35.9780 C   0  0  0  0  0  0  0  0  0  0  0  0
   39.6000   23.6320   35.9110 N   0  0  0  0  0  0  0  0  0  0  0  0
   40.1310   22.9850   36.9470 C   0  0  0  0  0  0  0  0  0  0  0  0
   39.5080   22.9280   38.1420 N   0  0  0  0  0  0  0  0  0  0  0  0
   41.4210   22.3120   36.8060 C   0  0  0  0  0  0  0  0  0  0  0  0
   42.6390   22.5360   36.1990 C   0  0  0  0  0  0  0  0  0  0  0  0
   43.4360   21.4350   36.4910 C   0  0  0  0  0  0  0  0  0  0  0  0
   42.6410   20.5980   37.2690 C   0  0  0  0  0  0  0  0  0  0  0  0
   41.4610   21.1430   37.4380 O   0  0  0  0  0  0  0  0  0  0  0  0
   38.1184   26.8551   36.6503 H   0  0  0  0  0  0  0  0  0  0  0  0
   39.5010   27.7226   35.9002 H   0  0  0  0  0  0  0  0  0  0  0  0
   37.8666   28.4678   35.9002 H   0  0  0  0  0  0  0  0  0  0  0  0
   36.4564   28.2233   34.5210 H   0  0  0  0  0  0  0  0  0  0  0  0
   37.6027   28.4467   33.1561 H   0  0  0  0  0  0  0  0  0  0  0  0
   36.4664   27.0555   33.1561 H   0  0  0  0  0  0  0  0  0  0  0  0
   39.8472   27.9830   33.8111 H   0  0  0  0  0  0  0  0  0  0  0  0
   40.0952   26.1943   33.9205 H   0  0  0  0  0  0  0  0  0  0  0  0
   38.3320   27.6492   29.1242 H   0  0  0  0  0  0  0  0  0  0  0  0
   37.7682   23.5181   39.2670 H   0  0  0  0  0  0  0  0  0  0  0  0
   36.7871   24.7321   37.3000 H   0  0  0  0  0  0  0  0  0  0  0  0
   42.9241   23.4140   35.6008 H   0  0  0  0  0  0  0  0  0  0  0  0
   44.4751   21.2618   36.1743 H   0  0  0  0  0  0  0  0  0  0  0  0
   42.9553   19.6270   37.6795 H   0  0  0  0  0  0  0  0  0  0  0  0
  1 10  1  0
  1  2  1  0
  3  1  1  0
  4  1  1  0
  5  4  1  0
  6  5  2  0
  7  6  1  0
  8  7  1  0
  8  9  2  0
  9  5  1  0
 10 13  1  0
 12 11  2  0
 13 12  1  0
 14 13  2  0
 14 15  1  0
 15 16  2  0
 16 11  1  0
 17 15  1  0
 17 21  1  0
 18 19  1  0
 18 17  2  0
 19 20  2  0
 20 21  1  0
  2 22  1  0
  2 23  1  0
  2 24  1  0
  3 25  1  0
  3 26  1  0
  3 27  1  0
  4 28  1  0
  4 29  1  0
  8 30  1  0
 11 31  1  0
 12 32  1  0
 18 33  1  0
 19 34  1  0
 20 35  1  0
M  ISO  8  22   8  23   8  24   8  25   8  26   8  27   8  28   8  29   8
M  ISO  6  30  14  31  14  32  14  33  14  34  14  35  14
M  END
>  <minimizedAffinity>  (1) 
-4.76557827

>  <minimizedRMSD>  (1) 
2.41675568

$$$$
