
     RDKit          3D

 30 32  0  0  0  0  0  0  0  0999 V2000
   37.3760   22.0460   33.6970 C   0  0  0  0  0  0  0  0  0  0  0  0
   36.4100   21.0530   33.7990 C   0  0  0  0  0  0  0  0  0  0  0  0
   35.8510   20.8540   32.5530 C   0  0  0  0  0  0  0  0  0  0  0  0
   36.5100   21.7460   31.7400 C   0  0  0  0  0  0  0  0  0  0  0  0
   37.4020   22.4300   32.4550 O   0  0  0  0  0  0  0  0  0  0  0  0
   38.1500   22.4870   34.8410 C   0  0  0  0  0  0  0  0  0  0  0  0
   39.5020   22.7780   34.8270 C   0  0  0  0  0  0  0  0  0  0  0  0
   40.1300   23.1920   35.9890 C   0  0  0  0  0  0  0  0  0  0  0  0
   39.3810   23.2950   37.1100 N   0  0  0  0  0  0  0  0  0  0  0  0
   38.0630   23.0110   37.1270 C   0  0  0  0  0  0  0  0  0  0  0  0
   37.4640   22.6110   35.9920 N   0  0  0  0  0  0  0  0  0  0  0  0
   41.5410   23.5020   36.0000 C   0  0  0  0  0  0  0  0  0  0  0  0
   42.5190   22.7370   36.6070 C   0  0  0  0  0  0  0  0  0  0  0  0
   43.7600   23.3320   36.4200 C   0  0  0  0  0  0  0  0  0  0  0  0
   43.4420   24.4660   35.6800 C   0  0  0  0  0  0  0  0  0  0  0  0
   42.1440   24.5090   35.4690 O   0  0  0  0  0  0  0  0  0  0  0  0
   34.7820   19.9070   32.1430 C   0  0  0  0  0  0  0  0  0  0  0  0
   35.1570   18.4590   32.4900 C   0  0  0  0  0  0  0  0  0  0  0  0
   36.1364   20.5153   34.7188 H   0  0  0  0  0  0  0  0  0  0  0  0
   36.3282   21.8752   30.6628 H   0  0  0  0  0  0  0  0  0  0  0  0
   40.0771   22.6807   33.8944 H   0  0  0  0  0  0  0  0  0  0  0  0
   37.4851   23.1055   38.0582 H   0  0  0  0  0  0  0  0  0  0  0  0
   42.3416   21.7997   37.1547 H   0  0  0  0  0  0  0  0  0  0  0  0
   44.7461   22.9920   36.7692 H   0  0  0  0  0  0  0  0  0  0  0  0
   44.1663   25.2139   35.3248 H   0  0  0  0  0  0  0  0  0  0  0  0
   34.6294   19.9872   31.0566 H   0  0  0  0  0  0  0  0  0  0  0  0
   33.8609   20.1668   32.6853 H   0  0  0  0  0  0  0  0  0  0  0  0
   35.1878   18.3401   33.5831 H   0  0  0  0  0  0  0  0  0  0  0  0
   34.4065   17.7746   32.0677 H   0  0  0  0  0  0  0  0  0  0  0  0
   36.1454   18.2250   32.0677 H   0  0  0  0  0  0  0  0  0  0  0  0
  1  2  2  0
  1  6  1  0
  3  2  1  0
  4  5  1  0
  4  3  2  0
  5  1  1  0
  6 11  1  0
  7  6  2  0
  7  8  1  0
  8 12  1  0
  8  9  2  0
  9 10  1  0
 11 10  2  0
 12 13  2  0
 14 13  1  0
 15 14  2  0
 16 15  1  0
 16 12  1  0
 17 18  1  0
 17  3  1  0
  2 19  1  0
  4 20  1  0
  7 21  1  0
 10 22  1  0
 13 23  1  0
 14 24  1  0
 15 25  1  0
 17 26  1  0
 17 27  1  0
 18 28  1  0
 18 29  1  0
 18 30  1  0
M  ISO  8  19  14  20  14  21  14  22  14  23  14  24  14  25  14  26   8
M  ISO  4  27   8  28   8  29   8  30   8
M  END
>  <minimizedAffinity>  (1) 
-4.51818705

>  <minimizedRMSD>  (1) 
1.74069071

$$$$
