
     RDKit          3D

 32 33  0  0  0  0  0  0  0  0999 V2000
   37.4240   22.0540   34.4930 C   0  0  0  0  0  0  0  0  0  0  0  0
   36.4470   21.0680   34.4650 C   0  0  0  0  0  0  0  0  0  0  0  0
   35.9740   20.9460   33.1790 C   0  0  0  0  0  0  0  0  0  0  0  0
   36.7010   21.8850   32.4670 C   0  0  0  0  0  0  0  0  0  0  0  0
   37.5460   22.5150   33.2920 O   0  0  0  0  0  0  0  0  0  0  0  0
   38.1150   22.4120   35.7290 C   0  0  0  0  0  0  0  0  0  0  0  0
   39.4920   22.2950   35.9190 C   0  0  0  0  0  0  0  0  0  0  0  0
   40.0400   22.6620   37.1270 C   0  0  0  0  0  0  0  0  0  0  0  0
   39.2230   23.1260   38.0930 N   0  0  0  0  0  0  0  0  0  0  0  0
   37.8750   23.2370   37.8930 C   0  0  0  0  0  0  0  0  0  0  0  0
   37.3130   22.8850   36.7200 N   0  0  0  0  0  0  0  0  0  0  0  0
   41.4990   22.5420   37.3420 C   0  0  0  0  0  0  0  0  0  0  0  0
   42.2830   23.3070   36.2990 C   0  0  0  0  0  0  0  0  0  0  0  0
   41.8670   21.0830   37.3580 C   0  0  0  0  0  0  0  0  0  0  0  0
   34.9410   20.0500   32.6280 C   0  0  0  0  0  0  0  0  0  0  0  0
   35.3350   18.5800   32.7270 C   0  0  0  0  0  0  0  0  0  0  0  0
   36.1066   20.4801   35.3302 H   0  0  0  0  0  0  0  0  0  0  0  0
   36.5997   22.0827   31.3897 H   0  0  0  0  0  0  0  0  0  0  0  0
   40.1336   21.9131   35.1112 H   0  0  0  0  0  0  0  0  0  0  0  0
   37.2382   23.6204   38.7038 H   0  0  0  0  0  0  0  0  0  0  0  0
   41.7613   22.9919   38.3109 H   0  0  0  0  0  0  0  0  0  0  0  0
   42.9849   23.9919   36.7972 H   0  0  0  0  0  0  0  0  0  0  0  0
   42.8444   22.5999   35.6706 H   0  0  0  0  0  0  0  0  0  0  0  0
   41.5899   23.8856   35.6706 H   0  0  0  0  0  0  0  0  0  0  0  0
   41.9540   20.7382   38.3989 H   0  0  0  0  0  0  0  0  0  0  0  0
   41.0871   20.5025   36.8434 H   0  0  0  0  0  0  0  0  0  0  0  0
   42.8289   20.9418   36.8434 H   0  0  0  0  0  0  0  0  0  0  0  0
   34.7820   20.3028   31.5693 H   0  0  0  0  0  0  0  0  0  0  0  0
   34.0236   20.1923   33.2180 H   0  0  0  0  0  0  0  0  0  0  0  0
   35.4123   18.2916   33.7857 H   0  0  0  0  0  0  0  0  0  0  0  0
   34.5709   17.9615   32.2333 H   0  0  0  0  0  0  0  0  0  0  0  0
   36.3060   18.4266   32.2333 H   0  0  0  0  0  0  0  0  0  0  0  0
  1  6  1  0
  2  1  2  0
  3  2  1  0
  4  3  2  0
  4  5  1  0
  5  1  1  0
  6  7  2  0
  6 11  1  0
  7  8  1  0
  8 12  1  0
  8  9  2  0
 10  9  1  0
 11 10  2  0
 12 14  1  0
 13 12  1  0
 15 16  1  0
 15  3  1  0
  2 17  1  0
  4 18  1  0
  7 19  1  0
 10 20  1  0
 12 21  1  0
 13 22  1  0
 13 23  1  0
 13 24  1  0
 14 25  1  0
 14 26  1  0
 14 27  1  0
 15 28  1  0
 15 29  1  0
 16 30  1  0
 16 31  1  0
 16 32  1  0
M  ISO  8  17  14  18  14  19  14  20  14  21   8  22   8  23   8  24   8
M  ISO  8  25   8  26   8  27   8  28   8  29   8  30   8  31   8  32   8
M  END
>  <minimizedAffinity>  (1) 
-4.64573288

>  <minimizedRMSD>  (1) 
0.437770337

$$$$
