
     RDKit          3D

 30 32  0  0  0  0  0  0  0  0999 V2000
   37.3640   22.1030   33.6530 C   0  0  0  0  0  0  0  0  0  0  0  0
   36.4250   21.0760   33.7600 C   0  0  0  0  0  0  0  0  0  0  0  0
   35.8410   20.8670   32.5450 C   0  0  0  0  0  0  0  0  0  0  0  0
   36.4570   21.7920   31.7270 C   0  0  0  0  0  0  0  0  0  0  0  0
   37.3440   22.4940   32.4270 O   0  0  0  0  0  0  0  0  0  0  0  0
   38.1430   22.5440   34.7980 C   0  0  0  0  0  0  0  0  0  0  0  0
   39.4830   22.8790   34.7620 C   0  0  0  0  0  0  0  0  0  0  0  0
   40.1090   23.2810   35.9170 C   0  0  0  0  0  0  0  0  0  0  0  0
   39.4050   23.3390   37.0620 N   0  0  0  0  0  0  0  0  0  0  0  0
   38.0910   23.0110   37.1010 C   0  0  0  0  0  0  0  0  0  0  0  0
   37.4810   22.6180   35.9650 N   0  0  0  0  0  0  0  0  0  0  0  0
   41.4930   23.6320   35.9030 C   0  0  0  0  0  0  0  0  0  0  0  0
   42.5370   23.0480   36.5760 C   0  0  0  0  0  0  0  0  0  0  0  0
   43.7930   23.5100   36.4470 C   0  0  0  0  0  0  0  0  0  0  0  0
   43.9330   24.6740   35.5350 C   0  0  0  0  0  0  0  0  0  0  0  0
   42.1560   24.9640   34.9570 S   0  0  0  0  0  0  0  0  0  0  0  0
   34.7880   19.8850   32.1580 C   0  0  0  0  0  0  0  0  0  0  0  0
   35.1720   18.4610   32.5160 C   0  0  0  0  0  0  0  0  0  0  0  0
   36.1920   20.5213   34.6809 H   0  0  0  0  0  0  0  0  0  0  0  0
   36.2461   21.9285   30.6561 H   0  0  0  0  0  0  0  0  0  0  0  0
   40.0435   22.8243   33.8171 H   0  0  0  0  0  0  0  0  0  0  0  0
   37.5302   23.0646   38.0458 H   0  0  0  0  0  0  0  0  0  0  0  0
   42.3427   22.1869   37.2324 H   0  0  0  0  0  0  0  0  0  0  0  0
   44.6481   23.0620   36.9744 H   0  0  0  0  0  0  0  0  0  0  0  0
   44.8432   25.2289   35.2636 H   0  0  0  0  0  0  0  0  0  0  0  0
   34.6288   19.9463   31.0713 H   0  0  0  0  0  0  0  0  0  0  0  0
   33.8717   20.1369   32.7120 H   0  0  0  0  0  0  0  0  0  0  0  0
   35.2011   18.3532   33.6103 H   0  0  0  0  0  0  0  0  0  0  0  0
   34.4295   17.7650   32.0986 H   0  0  0  0  0  0  0  0  0  0  0  0
   36.1638   18.2327   32.0986 H   0  0  0  0  0  0  0  0  0  0  0  0
  1  2  2  0
  1  6  1  0
  3  2  1  0
  4  5  1  0
  4  3  2  0
  5  1  1  0
  6 11  1  0
  7  6  2  0
  7  8  1  0
  8  9  2  0
  9 10  1  0
 11 10  2  0
 12  8  1  0
 12 13  2  0
 14 13  1  0
 15 14  2  0
 16 15  1  0
 16 12  1  0
 17 18  1  0
 17  3  1  0
  2 19  1  0
  4 20  1  0
  7 21  1  0
 10 22  1  0
 13 23  1  0
 14 24  1  0
 15 25  1  0
 17 26  1  0
 17 27  1  0
 18 28  1  0
 18 29  1  0
 18 30  1  0
M  ISO  8  19  14  20  14  21  14  22  14  23  14  24  14  25  14  26   8
M  ISO  4  27   8  28   8  29   8  30   8
M  END
>  <minimizedAffinity>  (1) 
-4.53542328

>  <minimizedRMSD>  (1) 
1.87159348

$$$$
