
     RDKit          3D

 29 31  0  0  0  0  0  0  0  0999 V2000
   37.1600   22.0790   33.9790 C   0  0  0  0  0  0  0  0  0  0  0  0
   36.3280   20.9780   33.9290 C   0  0  0  0  0  0  0  0  0  0  0  0
   35.6710   20.9690   32.7160 C   0  0  0  0  0  0  0  0  0  0  0  0
   36.1470   22.0960   32.0670 C   0  0  0  0  0  0  0  0  0  0  0  0
   37.0300   22.7280   32.8520 O   0  0  0  0  0  0  0  0  0  0  0  0
   37.9890   22.3660   35.1330 C   0  0  0  0  0  0  0  0  0  0  0  0
   39.3640   22.2300   35.1860 C   0  0  0  0  0  0  0  0  0  0  0  0
   40.0490   22.5340   36.3400 C   0  0  0  0  0  0  0  0  0  0  0  0
   39.3460   22.9640   37.4080 N   0  0  0  0  0  0  0  0  0  0  0  0
   37.9860   23.0980   37.3540 C   0  0  0  0  0  0  0  0  0  0  0  0
   37.3190   22.8030   36.2310 N   0  0  0  0  0  0  0  0  0  0  0  0
   41.4580   22.4020   36.4160 N   0  0  0  0  0  0  0  0  0  0  0  0
   42.1360   21.2750   36.7060 C   0  0  0  0  0  0  0  0  0  0  0  0
   43.4600   21.5740   36.6750 N   0  0  0  0  0  0  0  0  0  0  0  0
   43.5720   22.8850   36.3670 C   0  0  0  0  0  0  0  0  0  0  0  0
   42.3370   23.3710   36.2120 N   0  0  0  0  0  0  0  0  0  0  0  0
   34.6790   19.9920   32.1970 C   0  0  0  0  0  0  0  0  0  0  0  0
   35.1320   18.5510   32.4470 C   0  0  0  0  0  0  0  0  0  0  0  0
   36.2086   20.2299   34.7266 H   0  0  0  0  0  0  0  0  0  0  0  0
   35.8461   22.4225   31.0606 H   0  0  0  0  0  0  0  0  0  0  0  0
   39.9133   21.8769   34.3008 H   0  0  0  0  0  0  0  0  0  0  0  0
   37.4363   23.4505   38.2392 H   0  0  0  0  0  0  0  0  0  0  0  0
   41.6969   20.2911   36.9277 H   0  0  0  0  0  0  0  0  0  0  0  0
   44.5101   23.4499   36.2627 H   0  0  0  0  0  0  0  0  0  0  0  0
   34.5569   20.1463   31.1147 H   0  0  0  0  0  0  0  0  0  0  0  0
   33.7266   20.1522   32.7236 H   0  0  0  0  0  0  0  0  0  0  0  0
   35.1897   18.3675   33.5300 H   0  0  0  0  0  0  0  0  0  0  0  0
   34.4091   17.8558   31.9953 H   0  0  0  0  0  0  0  0  0  0  0  0
   36.1227   18.3945   31.9953 H   0  0  0  0  0  0  0  0  0  0  0  0
  1  6  1  0
  2  1  2  0
  3  2  1  0
  4  3  2  0
  4  5  1  0
  5  1  1  0
  6  7  2  0
  6 11  1  0
  7  8  1  0
  8 12  1  0
  8  9  2  0
 10  9  1  0
 11 10  2  0
 12 13  1  0
 14 13  2  0
 15 14  1  0
 16 15  2  0
 16 12  1  0
 17 18  1  0
 17  3  1  0
  2 19  1  0
  4 20  1  0
  7 21  1  0
 10 22  1  0
 13 23  1  0
 15 24  1  0
 17 25  1  0
 17 26  1  0
 18 27  1  0
 18 28  1  0
 18 29  1  0
M  ISO  8  19  14  20  14  21  14  22  14  23  14  24  14  25   8  26   8
M  ISO  3  27   8  28   8  29   8
M  END
>  <minimizedAffinity>  (1) 
-4.57409477

>  <minimizedRMSD>  (1) 
1.24173319

$$$$
