
     RDKit          3D

 26 27  0  0  0  0  0  0  0  0999 V2000
   37.4540   22.1170   34.5130 C   0  0  0  0  0  0  0  0  0  0  0  0
   36.4880   21.1160   34.4440 C   0  0  0  0  0  0  0  0  0  0  0  0
   36.0040   21.0430   33.1560 C   0  0  0  0  0  0  0  0  0  0  0  0
   36.7130   22.0240   32.4860 C   0  0  0  0  0  0  0  0  0  0  0  0
   37.5500   22.6250   33.3280 O   0  0  0  0  0  0  0  0  0  0  0  0
   38.1430   22.4240   35.7520 C   0  0  0  0  0  0  0  0  0  0  0  0
   39.4880   22.1230   35.9970 C   0  0  0  0  0  0  0  0  0  0  0  0
   40.0350   22.4650   37.2170 C   0  0  0  0  0  0  0  0  0  0  0  0
   39.2500   23.0790   38.1330 N   0  0  0  0  0  0  0  0  0  0  0  0
   37.9570   23.3630   37.8830 C   0  0  0  0  0  0  0  0  0  0  0  0
   37.3870   23.0420   36.6970 N   0  0  0  0  0  0  0  0  0  0  0  0
   41.4670   22.1210   37.4220 C   0  0  0  0  0  0  0  0  0  0  0  0
   34.9640   20.1250   32.6170 C   0  0  0  0  0  0  0  0  0  0  0  0
   35.3650   18.6600   32.7690 C   0  0  0  0  0  0  0  0  0  0  0  0
   36.1632   20.4843   35.2840 H   0  0  0  0  0  0  0  0  0  0  0  0
   36.6018   22.2698   31.4196 H   0  0  0  0  0  0  0  0  0  0  0  0
   40.0982   21.6227   35.2306 H   0  0  0  0  0  0  0  0  0  0  0  0
   37.3542   23.8639   38.6549 H   0  0  0  0  0  0  0  0  0  0  0  0
   41.6811   22.0696   38.4997 H   0  0  0  0  0  0  0  0  0  0  0  0
   41.6798   21.1462   36.9590 H   0  0  0  0  0  0  0  0  0  0  0  0
   42.0994   22.8928   36.9590 H   0  0  0  0  0  0  0  0  0  0  0  0
   34.8148   20.3441   31.5494 H   0  0  0  0  0  0  0  0  0  0  0  0
   34.0376   20.2862   33.1877 H   0  0  0  0  0  0  0  0  0  0  0  0
   35.4341   18.4077   33.8374 H   0  0  0  0  0  0  0  0  0  0  0  0
   34.6087   18.0212   32.2895 H   0  0  0  0  0  0  0  0  0  0  0  0
   36.3412   18.4954   32.2895 H   0  0  0  0  0  0  0  0  0  0  0  0
  1  6  1  0
  2  1  2  0
  3  2  1  0
  4  3  2  0
  4  5  1  0
  5  1  1  0
  6  7  2  0
  6 11  1  0
  7  8  1  0
  8 12  1  0
  8  9  2  0
 10  9  1  0
 11 10  2  0
 13 14  1  0
 13  3  1  0
  2 15  1  0
  4 16  1  0
  7 17  1  0
 10 18  1  0
 12 19  1  0
 12 20  1  0
 12 21  1  0
 13 22  1  0
 13 23  1  0
 14 24  1  0
 14 25  1  0
 14 26  1  0
M  ISO  8  15  14  16  14  17  14  18  14  19   8  20   8  21   8  22   8
M  ISO  4  23   8  24   8  25   8  26   8
M  END
>  <minimizedAffinity>  (1) 
-4.28812456

>  <minimizedRMSD>  (1) 
0.347195983

$$$$
