
     RDKit          3D

 30 32  0  0  0  0  0  0  0  0999 V2000
   37.1790   22.0820   33.9810 C   0  0  0  0  0  0  0  0  0  0  0  0
   36.3500   20.9670   33.9500 C   0  0  0  0  0  0  0  0  0  0  0  0
   35.6990   20.9260   32.7410 C   0  0  0  0  0  0  0  0  0  0  0  0
   36.1680   22.0380   32.0790 C   0  0  0  0  0  0  0  0  0  0  0  0
   37.0420   22.6920   32.8540 O   0  0  0  0  0  0  0  0  0  0  0  0
   37.9940   22.3820   35.1450 C   0  0  0  0  0  0  0  0  0  0  0  0
   39.3800   22.2490   35.1890 C   0  0  0  0  0  0  0  0  0  0  0  0
   40.0680   22.5580   36.3360 C   0  0  0  0  0  0  0  0  0  0  0  0
   39.3690   22.9890   37.4050 N   0  0  0  0  0  0  0  0  0  0  0  0
   38.0100   23.1180   37.3580 C   0  0  0  0  0  0  0  0  0  0  0  0
   37.3430   22.8150   36.2350 N   0  0  0  0  0  0  0  0  0  0  0  0
   41.5010   22.4240   36.3920 C   0  0  0  0  0  0  0  0  0  0  0  0
   42.2100   21.2470   36.5160 C   0  0  0  0  0  0  0  0  0  0  0  0
   43.5140   21.5000   36.5340 N   0  0  0  0  0  0  0  0  0  0  0  0
   43.6530   22.8450   36.4230 C   0  0  0  0  0  0  0  0  0  0  0  0
   42.4290   23.3970   36.3380 N   0  0  0  0  0  0  0  0  0  0  0  0
   34.7170   19.9290   32.2420 C   0  0  0  0  0  0  0  0  0  0  0  0
   35.1790   18.4910   32.5230 C   0  0  0  0  0  0  0  0  0  0  0  0
   36.2338   20.2350   34.7628 H   0  0  0  0  0  0  0  0  0  0  0  0
   35.8695   22.3434   31.0653 H   0  0  0  0  0  0  0  0  0  0  0  0
   39.9251   21.8951   34.3015 H   0  0  0  0  0  0  0  0  0  0  0  0
   37.4614   23.4713   38.2436 H   0  0  0  0  0  0  0  0  0  0  0  0
   41.7611   20.2454   36.5893 H   0  0  0  0  0  0  0  0  0  0  0  0
   44.6069   23.3926   36.4054 H   0  0  0  0  0  0  0  0  0  0  0  0
   42.2334   24.4041   36.2462 H   0  0  0  0  0  0  0  0  0  0  0  0
   34.5960   20.0594   31.1565 H   0  0  0  0  0  0  0  0  0  0  0  0
   33.7637   20.0928   32.7659 H   0  0  0  0  0  0  0  0  0  0  0  0
   35.2312   18.3284   33.6097 H   0  0  0  0  0  0  0  0  0  0  0  0
   34.4632   17.7828   32.0803 H   0  0  0  0  0  0  0  0  0  0  0  0
   36.1734   18.3322   32.0803 H   0  0  0  0  0  0  0  0  0  0  0  0
  1  6  1  0
  2  1  2  0
  3  2  1  0
  4  3  2  0
  4  5  1  0
  5  1  1  0
  6  7  2  0
  6 11  1  0
  7  8  1  0
  8 12  1  0
  8  9  2  0
 10  9  1  0
 11 10  2  0
 12 13  2  0
 13 14  1  0
 15 14  2  0
 16 12  1  0
 16 15  1  0
 17 18  1  0
 17  3  1  0
  2 19  1  0
  4 20  1  0
  7 21  1  0
 10 22  1  0
 13 23  1  0
 15 24  1  0
 16 25  1  0
 17 26  1  0
 17 27  1  0
 18 28  1  0
 18 29  1  0
 18 30  1  0
M  ISO  8  19  14  20  14  21  14  22  14  23  14  24  14  25   9  26   8
M  ISO  4  27   8  28   8  29   8  30   8
M  END
>  <minimizedAffinity>  (1) 
-4.36975002

>  <minimizedRMSD>  (1) 
1.25128126

$$$$
