
     RDKit          3D

 25 26  0  0  0  0  0  0  0  0999 V2000
   37.4310   22.0820   34.5020 C   0  0  0  0  0  0  0  0  0  0  0  0
   36.4570   21.0860   34.4470 C   0  0  0  0  0  0  0  0  0  0  0  0
   35.9770   20.9890   33.1680 C   0  0  0  0  0  0  0  0  0  0  0  0
   36.6930   21.9510   32.4780 C   0  0  0  0  0  0  0  0  0  0  0  0
   37.5420   22.5710   33.3120 O   0  0  0  0  0  0  0  0  0  0  0  0
   38.1200   22.4080   35.7380 C   0  0  0  0  0  0  0  0  0  0  0  0
   39.4610   22.1620   35.9890 C   0  0  0  0  0  0  0  0  0  0  0  0
   40.0000   22.5190   37.2060 C   0  0  0  0  0  0  0  0  0  0  0  0
   39.2080   23.1020   38.1260 N   0  0  0  0  0  0  0  0  0  0  0  0
   37.8900   23.3400   37.8710 C   0  0  0  0  0  0  0  0  0  0  0  0
   37.3390   22.9990   36.6870 N   0  0  0  0  0  0  0  0  0  0  0  0
   41.4160   22.2310   37.4010 C   0  0  0  0  0  0  0  0  0  0  0  0
   41.8730   21.0790   37.6090 O   0  0  0  0  0  0  0  0  0  0  0  0
   34.9410   20.0910   32.6040 C   0  0  0  0  0  0  0  0  0  0  0  0
   35.3440   18.6230   32.7390 C   0  0  0  0  0  0  0  0  0  0  0  0
   36.1256   20.4734   35.2984 H   0  0  0  0  0  0  0  0  0  0  0  0
   36.5828   22.1741   31.4065 H   0  0  0  0  0  0  0  0  0  0  0  0
   40.0900   21.6855   35.2226 H   0  0  0  0  0  0  0  0  0  0  0  0
   37.2665   23.8170   38.6415 H   0  0  0  0  0  0  0  0  0  0  0  0
   42.1254   23.0709   37.3639 H   0  0  0  0  0  0  0  0  0  0  0  0
   34.8030   20.3280   31.5387 H   0  0  0  0  0  0  0  0  0  0  0  0
   34.0060   20.2467   33.1621 H   0  0  0  0  0  0  0  0  0  0  0  0
   35.4164   18.3591   33.8044 H   0  0  0  0  0  0  0  0  0  0  0  0
   34.5867   17.9889   32.2549 H   0  0  0  0  0  0  0  0  0  0  0  0
   36.3189   18.4644   32.2549 H   0  0  0  0  0  0  0  0  0  0  0  0
  1  6  1  0
  2  1  2  0
  3  2  1  0
  4  3  2  0
  4  5  1  0
  5  1  1  0
  6  7  2  0
  6 11  1  0
  7  8  1  0
  8 12  1  0
  8  9  2  0
 10  9  1  0
 11 10  2  0
 12 13  2  0
 14 15  1  0
 14  3  1  0
  2 16  1  0
  4 17  1  0
  7 18  1  0
 10 19  1  0
 12 20  1  0
 14 21  1  0
 14 22  1  0
 15 23  1  0
 15 24  1  0
 15 25  1  0
M  ISO  8  16  14  17  14  18  14  19  14  20   6  21   8  22   8  23   8
M  ISO  2  24   8  25   8
M  END
>  <minimizedAffinity>  (1) 
-4.26789522

>  <minimizedRMSD>  (1) 
0.351044565

$$$$
