
     RDKit          3D

 24 25  0  0  0  0  0  0  0  0999 V2000
   37.3950   22.1900   34.3110 C   0  0  0  0  0  0  0  0  0  0  0  0
   36.4870   21.1340   34.2180 C   0  0  0  0  0  0  0  0  0  0  0  0
   35.9210   21.1560   32.9620 C   0  0  0  0  0  0  0  0  0  0  0  0
   36.5110   22.2290   32.3390 C   0  0  0  0  0  0  0  0  0  0  0  0
   37.3860   22.8220   33.1770 O   0  0  0  0  0  0  0  0  0  0  0  0
   38.1520   22.4270   35.5250 C   0  0  0  0  0  0  0  0  0  0  0  0
   39.4690   22.0080   35.7310 C   0  0  0  0  0  0  0  0  0  0  0  0
   40.0710   22.3050   36.9400 C   0  0  0  0  0  0  0  0  0  0  0  0
   39.3720   22.9840   37.8810 N   0  0  0  0  0  0  0  0  0  0  0  0
   38.0980   23.3820   37.6670 C   0  0  0  0  0  0  0  0  0  0  0  0
   37.4840   23.1090   36.4970 N   0  0  0  0  0  0  0  0  0  0  0  0
   41.7390   21.7320   37.1040 S   0  0  0  0  0  0  0  0  0  0  0  0
   34.9130   20.2630   32.3640 C   0  0  0  0  0  0  0  0  0  0  0  0
   35.2360   18.7830   32.6100 C   0  0  0  0  0  0  0  0  0  0  0  0
   36.2616   20.4075   35.0126 H   0  0  0  0  0  0  0  0  0  0  0  0
   36.3011   22.5559   31.3099 H   0  0  0  0  0  0  0  0  0  0  0  0
   40.0134   21.4557   34.9509 H   0  0  0  0  0  0  0  0  0  0  0  0
   37.5583   23.9321   38.4519 H   0  0  0  0  0  0  0  0  0  0  0  0
   42.0559   21.6231   38.4324 H   0  0  0  0  0  0  0  0  0  0  0  0
   34.8781   20.4431   31.2794 H   0  0  0  0  0  0  0  0  0  0  0  0
   33.9436   20.4816   32.8357 H   0  0  0  0  0  0  0  0  0  0  0  0
   35.2777   18.5918   33.6925 H   0  0  0  0  0  0  0  0  0  0  0  0
   34.4534   18.1567   32.1569 H   0  0  0  0  0  0  0  0  0  0  0  0
   36.2084   18.5397   32.1569 H   0  0  0  0  0  0  0  0  0  0  0  0
  1  6  1  0
  2  1  2  0
  3  2  1  0
  4  3  2  0
  4  5  1  0
  5  1  1  0
  6  7  2  0
  6 11  1  0
  7  8  1  0
  8 12  1  0
  8  9  2  0
 10  9  1  0
 11 10  2  0
 13 14  1  0
 13  3  1  0
  2 15  1  0
  4 16  1  0
  7 17  1  0
 10 18  1  0
 12 19  1  0
 13 20  1  0
 13 21  1  0
 14 22  1  0
 14 23  1  0
 14 24  1  0
M  ISO  8  15  14  16  14  17  14  18  14  19  11  20   8  21   8  22   8
M  ISO  2  23   8  24   8
M  END
>  <minimizedAffinity>  (1) 
-4.08110905

>  <minimizedRMSD>  (1) 
0.623652339

$$$$
