
     RDKit          3D

 50 52  0  0  0  0  0  0  0  0999 V2000
   37.7930   23.1130   33.8910 C   0  0  0  0  0  0  0  0  0  0  0  0
   38.1370   24.4410   33.8350 C   0  0  0  0  0  0  0  0  0  0  0  0
   38.9130   25.0340   34.7940 C   0  0  0  0  0  0  0  0  0  0  0  0
   39.3330   24.2590   35.8080 N   0  0  0  0  0  0  0  0  0  0  0  0
   39.0030   22.9390   35.8830 C   0  0  0  0  0  0  0  0  0  0  0  0
   38.2410   22.3630   34.9390 N   0  0  0  0  0  0  0  0  0  0  0  0
   36.9800   22.4050   32.9260 C   0  0  0  0  0  0  0  0  0  0  0  0
   36.2920   21.2440   33.2700 C   0  0  0  0  0  0  0  0  0  0  0  0
   35.6090   20.7810   32.1860 C   0  0  0  0  0  0  0  0  0  0  0  0
   35.9170   21.7070   31.1900 C   0  0  0  0  0  0  0  0  0  0  0  0
   36.7310   22.6490   31.6770 O   0  0  0  0  0  0  0  0  0  0  0  0
   34.7310   19.6030   31.9980 C   0  0  0  0  0  0  0  0  0  0  0  0
   35.3030   18.3740   32.7270 C   0  0  0  0  0  0  0  0  0  0  0  0
   35.7310   17.3440   31.9050 N   0  0  0  0  0  0  0  0  0  0  0  0
   36.6200   17.6270   30.8440 C   0  0  0  0  0  0  0  0  0  0  0  0
   38.0250   17.3410   31.3220 C   0  0  0  0  0  0  0  0  0  0  0  0
   37.9080   16.1640   32.2920 C   0  0  0  0  0  0  0  0  0  0  0  0
   36.7660   15.2350   31.8640 C   0  0  0  0  0  0  0  0  0  0  0  0
   35.4760   15.9980   32.2020 C   0  0  0  0  0  0  0  0  0  0  0  0
   39.2880   26.4520   34.7440 C   0  0  0  0  0  0  0  0  0  0  0  0
   38.6890   27.2470   35.8920 C   0  0  0  0  0  0  0  0  0  0  0  0
   38.8220   27.0910   33.4310 C   0  0  0  0  0  0  0  0  0  0  0  0
   40.7900   26.5540   34.7630 C   0  0  0  0  0  0  0  0  0  0  0  0
   37.7771   25.0485   32.9915 H   0  0  0  0  0  0  0  0  0  0  0  0
   39.3659   22.3366   36.7288 H   0  0  0  0  0  0  0  0  0  0  0  0
   36.2990   20.7732   34.2641 H   0  0  0  0  0  0  0  0  0  0  0  0
   35.5449   21.6681   30.1556 H   0  0  0  0  0  0  0  0  0  0  0  0
   33.7327   19.8291   32.4008 H   0  0  0  0  0  0  0  0  0  0  0  0
   34.6678   19.3779   30.9231 H   0  0  0  0  0  0  0  0  0  0  0  0
   36.1606   18.7057   33.3307 H   0  0  0  0  0  0  0  0  0  0  0  0
   34.4761   17.9627   33.3245 H   0  0  0  0  0  0  0  0  0  0  0  0
   36.5321   18.6849   30.5556 H   0  0  0  0  0  0  0  0  0  0  0  0
   36.3804   17.0050   29.9689 H   0  0  0  0  0  0  0  0  0  0  0  0
   38.6709   17.0737   30.4726 H   0  0  0  0  0  0  0  0  0  0  0  0
   38.4727   18.2207   31.8075 H   0  0  0  0  0  0  0  0  0  0  0  0
   38.8527   15.6006   32.2949 H   0  0  0  0  0  0  0  0  0  0  0  0
   37.6972   16.5501   33.3002 H   0  0  0  0  0  0  0  0  0  0  0  0
   36.8106   14.2874   32.4209 H   0  0  0  0  0  0  0  0  0  0  0  0
   36.8236   14.9788   30.7958 H   0  0  0  0  0  0  0  0  0  0  0  0
   35.2321   15.8820   33.2683 H   0  0  0  0  0  0  0  0  0  0  0  0
   34.6202   15.6148   31.6269 H   0  0  0  0  0  0  0  0  0  0  0  0
   39.0160   26.8130   36.8484 H   0  0  0  0  0  0  0  0  0  0  0  0
   39.0260   28.2922   35.8293 H   0  0  0  0  0  0  0  0  0  0  0  0
   37.5914   27.2113   35.8293 H   0  0  0  0  0  0  0  0  0  0  0  0
   38.1871   27.9616   33.6520 H   0  0  0  0  0  0  0  0  0  0  0  0
   39.6979   27.4142   32.8494 H   0  0  0  0  0  0  0  0  0  0  0  0
   38.2466   26.3558   32.8494 H   0  0  0  0  0  0  0  0  0  0  0  0
   41.1427   26.5780   35.8046 H   0  0  0  0  0  0  0  0  0  0  0  0
   41.2232   25.6832   34.2491 H   0  0  0  0  0  0  0  0  0  0  0  0
   41.1015   27.4754   34.2491 H   0  0  0  0  0  0  0  0  0  0  0  0
  1  6  1  0
  2  1  2  0
  2  3  1  0
  3  4  2  0
  4  5  1  0
  6  5  2  0
  7  8  2  0
  7  1  1  0
  9  8  1  0
 10 11  1  0
 10  9  2  0
 11  7  1  0
 12  9  1  0
 12 13  1  0
 14 19  1  0
 14 13  1  0
 15 16  1  0
 15 14  1  0
 16 17  1  0
 18 19  1  0
 18 17  1  0
 20 23  1  0
 20  3  1  0
 20 21  1  0
 22 20  1  0
  2 24  1  0
  5 25  1  0
  8 26  1  0
 10 27  1  0
 12 28  1  0
 12 29  1  0
 13 30  1  0
 13 31  1  0
 15 32  1  0
 15 33  1  0
 16 34  1  0
 16 35  1  0
 17 36  1  0
 17 37  1  0
 18 38  1  0
 18 39  1  0
 19 40  1  0
 19 41  1  0
 21 42  1  0
 21 43  1  0
 21 44  1  0
 22 45  1  0
 22 46  1  0
 22 47  1  0
 23 48  1  0
 23 49  1  0
 23 50  1  0
M  ISO  8  24  14  25  14  26  14  27  14  28   8  29   8  30   8  31   8
M  ISO  8  32  13  33  13  34  13  35  13  36  13  37  13  38  13  39  13
M  ISO  8  40  13  41  13  42   8  43   8  44   8  45   8  46   8  47   8
M  ISO  3  48   8  49   8  50   8
M  END
>  <minimizedAffinity>  (1) 
-5.17170143

>  <minimizedRMSD>  (1) 
1.3170296

$$$$
