
     RDKit          3D

 43 45  0  0  0  0  0  0  0  0999 V2000
   37.7950   23.1170   33.9020 C   0  0  0  0  0  0  0  0  0  0  0  0
   38.1340   24.4570   33.8300 C   0  0  0  0  0  0  0  0  0  0  0  0
   38.9150   25.0460   34.7920 C   0  0  0  0  0  0  0  0  0  0  0  0
   39.3340   24.2560   35.8070 N   0  0  0  0  0  0  0  0  0  0  0  0
   39.0030   22.9420   35.8810 C   0  0  0  0  0  0  0  0  0  0  0  0
   38.2390   22.3670   34.9360 N   0  0  0  0  0  0  0  0  0  0  0  0
   36.9750   22.4220   32.9230 C   0  0  0  0  0  0  0  0  0  0  0  0
   36.3190   21.2330   33.2600 C   0  0  0  0  0  0  0  0  0  0  0  0
   35.6210   20.7910   32.1640 C   0  0  0  0  0  0  0  0  0  0  0  0
   35.8840   21.7380   31.2050 C   0  0  0  0  0  0  0  0  0  0  0  0
   36.6910   22.6870   31.6970 O   0  0  0  0  0  0  0  0  0  0  0  0
   34.7750   19.5950   31.9950 C   0  0  0  0  0  0  0  0  0  0  0  0
   35.2790   18.4180   32.8550 C   0  0  0  0  0  0  0  0  0  0  0  0
   35.7080   17.2940   31.9850 C   0  0  0  0  0  0  0  0  0  0  0  0
   36.6440   17.5020   30.9840 C   0  0  0  0  0  0  0  0  0  0  0  0
   37.0640   16.4660   30.1560 C   0  0  0  0  0  0  0  0  0  0  0  0
   36.5700   15.2220   30.3030 N   0  0  0  0  0  0  0  0  0  0  0  0
   35.6610   15.0370   31.2810 C   0  0  0  0  0  0  0  0  0  0  0  0
   35.2470   16.0340   32.0890 N   0  0  0  0  0  0  0  0  0  0  0  0
   39.2870   26.4660   34.7380 C   0  0  0  0  0  0  0  0  0  0  0  0
   38.6950   27.2620   35.8860 C   0  0  0  0  0  0  0  0  0  0  0  0
   38.8190   27.1130   33.4360 C   0  0  0  0  0  0  0  0  0  0  0  0
   40.7970   26.5540   34.7670 C   0  0  0  0  0  0  0  0  0  0  0  0
   37.7704   25.0611   32.9856 H   0  0  0  0  0  0  0  0  0  0  0  0
   39.3651   22.3386   36.7265 H   0  0  0  0  0  0  0  0  0  0  0  0
   36.3564   20.7353   34.2402 H   0  0  0  0  0  0  0  0  0  0  0  0
   35.4882   21.7198   30.1788 H   0  0  0  0  0  0  0  0  0  0  0  0
   33.7454   19.8407   32.2942 H   0  0  0  0  0  0  0  0  0  0  0  0
   34.8148   19.2914   30.9385 H   0  0  0  0  0  0  0  0  0  0  0  0
   36.1319   18.7521   33.4640 H   0  0  0  0  0  0  0  0  0  0  0  0
   34.4627   18.0752   33.5078 H   0  0  0  0  0  0  0  0  0  0  0  0
   37.0640   18.5086   30.8412 H   0  0  0  0  0  0  0  0  0  0  0  0
   37.8088   16.6655   29.3715 H   0  0  0  0  0  0  0  0  0  0  0  0
   35.2396   14.0313   31.4259 H   0  0  0  0  0  0  0  0  0  0  0  0
   39.0202   26.8247   36.8415 H   0  0  0  0  0  0  0  0  0  0  0  0
   39.0385   28.3052   35.8244 H   0  0  0  0  0  0  0  0  0  0  0  0
   37.5971   27.2332   35.8244 H   0  0  0  0  0  0  0  0  0  0  0  0
   38.1885   27.9846   33.6656 H   0  0  0  0  0  0  0  0  0  0  0  0
   39.6934   27.4366   32.8523 H   0  0  0  0  0  0  0  0  0  0  0  0
   38.2380   26.3838   32.8523 H   0  0  0  0  0  0  0  0  0  0  0  0
   41.1431   26.5742   35.8109 H   0  0  0  0  0  0  0  0  0  0  0  0
   41.2252   25.6793   34.2556 H   0  0  0  0  0  0  0  0  0  0  0  0
   41.1207   27.4725   34.2556 H   0  0  0  0  0  0  0  0  0  0  0  0
  1  6  1  0
  2  1  2  0
  2  3  1  0
  3  4  2  0
  4  5  1  0
  6  5  2  0
  7  8  2  0
  7  1  1  0
  9  8  1  0
 10 11  1  0
 10  9  2  0
 11  7  1  0
 12  9  1  0
 12 13  1  0
 14 19  1  0
 14 13  1  0
 15 14  2  0
 16 17  2  0
 16 15  1  0
 17 18  1  0
 18 19  2  0
 20 23  1  0
 20  3  1  0
 20 21  1  0
 22 20  1  0
  2 24  1  0
  5 25  1  0
  8 26  1  0
 10 27  1  0
 12 28  1  0
 12 29  1  0
 13 30  1  0
 13 31  1  0
 15 32  1  0
 16 33  1  0
 18 34  1  0
 21 35  1  0
 21 36  1  0
 21 37  1  0
 22 38  1  0
 22 39  1  0
 22 40  1  0
 23 41  1  0
 23 42  1  0
 23 43  1  0
M  ISO  8  24  14  25  14  26  14  27  14  28   8  29   8  30   8  31   8
M  ISO  8  32  14  33  14  34  14  35   8  36   8  37   8  38   8  39   8
M  ISO  4  40   8  41   8  42   8  43   8
M  END
>  <minimizedAffinity>  (1) 
-5.15057468

>  <minimizedRMSD>  (1) 
1.64626205

$$$$
