
     RDKit          3D

 42 44  0  0  0  0  0  0  0  0999 V2000
   37.8120   23.1350   33.8870 C   0  0  0  0  0  0  0  0  0  0  0  0
   38.1530   24.4780   33.8180 C   0  0  0  0  0  0  0  0  0  0  0  0
   38.9250   25.0610   34.7940 C   0  0  0  0  0  0  0  0  0  0  0  0
   39.3340   24.2850   35.8110 N   0  0  0  0  0  0  0  0  0  0  0  0
   39.0010   22.9660   35.8800 C   0  0  0  0  0  0  0  0  0  0  0  0
   38.2470   22.3910   34.9310 N   0  0  0  0  0  0  0  0  0  0  0  0
   37.0000   22.4430   32.8980 C   0  0  0  0  0  0  0  0  0  0  0  0
   36.3730   21.2340   33.2250 C   0  0  0  0  0  0  0  0  0  0  0  0
   35.6700   20.7820   32.1280 C   0  0  0  0  0  0  0  0  0  0  0  0
   35.9200   21.7700   31.1780 C   0  0  0  0  0  0  0  0  0  0  0  0
   36.7080   22.7280   31.6800 O   0  0  0  0  0  0  0  0  0  0  0  0
   34.8490   19.5820   31.9400 C   0  0  0  0  0  0  0  0  0  0  0  0
   35.2100   18.4980   32.9770 C   0  0  0  0  0  0  0  0  0  0  0  0
   35.5430   17.2670   32.2330 C   0  0  0  0  0  0  0  0  0  0  0  0
   36.8410   16.9510   31.8260 C   0  0  0  0  0  0  0  0  0  0  0  0
   36.8330   15.7720   31.1720 N   0  0  0  0  0  0  0  0  0  0  0  0
   35.5600   15.3240   31.1500 C   0  0  0  0  0  0  0  0  0  0  0  0
   34.8130   16.2320   31.7870 N   0  0  0  0  0  0  0  0  0  0  0  0
   39.2980   26.4840   34.7430 C   0  0  0  0  0  0  0  0  0  0  0  0
   38.6990   27.2810   35.8870 C   0  0  0  0  0  0  0  0  0  0  0  0
   38.8370   27.1280   33.4330 C   0  0  0  0  0  0  0  0  0  0  0  0
   40.8000   26.5830   34.7610 C   0  0  0  0  0  0  0  0  0  0  0  0
   37.8006   25.0844   32.9706 H   0  0  0  0  0  0  0  0  0  0  0  0
   39.3563   22.3622   36.7281 H   0  0  0  0  0  0  0  0  0  0  0  0
   36.4318   20.7269   34.1994 H   0  0  0  0  0  0  0  0  0  0  0  0
   35.5227   21.7634   30.1523 H   0  0  0  0  0  0  0  0  0  0  0  0
   33.7883   19.8502   32.0541 H   0  0  0  0  0  0  0  0  0  0  0  0
   35.0387   19.1814   30.9333 H   0  0  0  0  0  0  0  0  0  0  0  0
   36.0754   18.8221   33.5737 H   0  0  0  0  0  0  0  0  0  0  0  0
   34.3680   18.3212   33.6624 H   0  0  0  0  0  0  0  0  0  0  0  0
   37.7323   17.5687   32.0105 H   0  0  0  0  0  0  0  0  0  0  0  0
   35.2041   14.3884   30.6940 H   0  0  0  0  0  0  0  0  0  0  0  0
   33.7952   16.1472   31.9202 H   0  0  0  0  0  0  0  0  0  0  0  0
   39.0240   26.8486   36.8448 H   0  0  0  0  0  0  0  0  0  0  0  0
   39.0374   28.3257   35.8227 H   0  0  0  0  0  0  0  0  0  0  0  0
   37.6014   27.2465   35.8227 H   0  0  0  0  0  0  0  0  0  0  0  0
   38.2100   28.0039   33.6558 H   0  0  0  0  0  0  0  0  0  0  0  0
   39.7152   27.4442   32.8509 H   0  0  0  0  0  0  0  0  0  0  0  0
   38.2546   26.3986   32.8509 H   0  0  0  0  0  0  0  0  0  0  0  0
   41.1535   26.6063   35.8024 H   0  0  0  0  0  0  0  0  0  0  0  0
   41.2311   25.7113   34.2469 H   0  0  0  0  0  0  0  0  0  0  0  0
   41.1130   27.5037   34.2469 H   0  0  0  0  0  0  0  0  0  0  0  0
  1  6  1  0
  2  1  2  0
  2  3  1  0
  3  4  2  0
  4  5  1  0
  6  5  2  0
  7  8  2  0
  7  1  1  0
  9  8  1  0
 10 11  1  0
 10  9  2  0
 11  7  1  0
 12  9  1  0
 12 13  1  0
 14 13  1  0
 15 14  2  0
 16 15  1  0
 17 16  2  0
 17 18  1  0
 18 14  1  0
 19 22  1  0
 19  3  1  0
 19 20  1  0
 21 19  1  0
  2 23  1  0
  5 24  1  0
  8 25  1  0
 10 26  1  0
 12 27  1  0
 12 28  1  0
 13 29  1  0
 13 30  1  0
 15 31  1  0
 17 32  1  0
 18 33  1  0
 20 34  1  0
 20 35  1  0
 20 36  1  0
 21 37  1  0
 21 38  1  0
 21 39  1  0
 22 40  1  0
 22 41  1  0
 22 42  1  0
M  ISO  8  23  14  24  14  25  14  26  14  27   8  28   8  29   8  30   8
M  ISO  8  31  14  32  14  33   9  34   8  35   8  36   8  37   8  38   8
M  ISO  4  39   8  40   8  41   8  42   8
M  END
>  <minimizedAffinity>  (1) 
-5.27589989

>  <minimizedRMSD>  (1) 
1.31439757

$$$$
