
     RDKit          3D

 41 43  0  0  0  0  0  0  0  0999 V2000
   37.7800   23.1070   33.9080 C   0  0  0  0  0  0  0  0  0  0  0  0
   38.1150   24.4500   33.8460 C   0  0  0  0  0  0  0  0  0  0  0  0
   38.8940   25.0470   34.8060 C   0  0  0  0  0  0  0  0  0  0  0  0
   39.3170   24.2620   35.8080 N   0  0  0  0  0  0  0  0  0  0  0  0
   38.9970   22.9410   35.8840 C   0  0  0  0  0  0  0  0  0  0  0  0
   38.2340   22.3640   34.9430 N   0  0  0  0  0  0  0  0  0  0  0  0
   36.9560   22.4220   32.9220 C   0  0  0  0  0  0  0  0  0  0  0  0
   36.3660   21.1960   33.2460 C   0  0  0  0  0  0  0  0  0  0  0  0
   35.6460   20.7540   32.1640 C   0  0  0  0  0  0  0  0  0  0  0  0
   35.8350   21.7500   31.2200 C   0  0  0  0  0  0  0  0  0  0  0  0
   36.6190   22.7110   31.7230 O   0  0  0  0  0  0  0  0  0  0  0  0
   34.8440   19.5280   31.9880 C   0  0  0  0  0  0  0  0  0  0  0  0
   35.3470   18.3880   32.8630 C   0  0  0  0  0  0  0  0  0  0  0  0
   35.6950   17.2060   31.9890 C   0  0  0  0  0  0  0  0  0  0  0  0
   35.2640   15.8310   32.0840 C   0  0  0  0  0  0  0  0  0  0  0  0
   36.1720   15.1360   30.6350 S   0  0  0  0  0  0  0  0  0  0  0  0
   36.9270   16.7260   30.1840 C   0  0  0  0  0  0  0  0  0  0  0  0
   36.5160   17.6030   31.0340 N   0  0  0  0  0  0  0  0  0  0  0  0
   39.2600   26.4570   34.7610 C   0  0  0  0  0  0  0  0  0  0  0  0
   38.6700   27.2590   35.8960 C   0  0  0  0  0  0  0  0  0  0  0  0
   38.7950   27.1000   33.4450 C   0  0  0  0  0  0  0  0  0  0  0  0
   40.7820   26.5470   34.7610 C   0  0  0  0  0  0  0  0  0  0  0  0
   37.7466   25.0547   33.0042 H   0  0  0  0  0  0  0  0  0  0  0  0
   39.3683   22.3395   36.7268 H   0  0  0  0  0  0  0  0  0  0  0  0
   36.4629   20.6725   34.2086 H   0  0  0  0  0  0  0  0  0  0  0  0
   35.4047   21.7509   30.2076 H   0  0  0  0  0  0  0  0  0  0  0  0
   33.7991   19.7457   32.2540 H   0  0  0  0  0  0  0  0  0  0  0  0
   34.9294   19.2136   30.9374 H   0  0  0  0  0  0  0  0  0  0  0  0
   36.2416   18.7142   33.4136 H   0  0  0  0  0  0  0  0  0  0  0  0
   34.5639   18.0994   33.5795 H   0  0  0  0  0  0  0  0  0  0  0  0
   34.5932   15.3425   32.8061 H   0  0  0  0  0  0  0  0  0  0  0  0
   37.6095   16.9067   29.3404 H   0  0  0  0  0  0  0  0  0  0  0  0
   38.9887   26.8258   36.8555 H   0  0  0  0  0  0  0  0  0  0  0  0
   39.0192   28.3000   35.8297 H   0  0  0  0  0  0  0  0  0  0  0  0
   37.5723   27.2355   35.8297 H   0  0  0  0  0  0  0  0  0  0  0  0
   38.1636   27.9731   33.6665 H   0  0  0  0  0  0  0  0  0  0  0  0
   39.6720   27.4199   32.8632 H   0  0  0  0  0  0  0  0  0  0  0  0
   38.2165   26.3673   32.8632 H   0  0  0  0  0  0  0  0  0  0  0  0
   41.1480   26.5686   35.7981 H   0  0  0  0  0  0  0  0  0  0  0  0
   41.2010   25.6721   34.2425 H   0  0  0  0  0  0  0  0  0  0  0  0
   41.0950   27.4652   34.2425 H   0  0  0  0  0  0  0  0  0  0  0  0
  1  6  1  0
  2  1  2  0
  2  3  1  0
  3  4  2  0
  4  5  1  0
  6  5  2  0
  7  8  2  0
  7  1  1  0
  9  8  1  0
 10 11  1  0
 10  9  2  0
 11  7  1  0
 12  9  1  0
 12 13  1  0
 14 15  2  0
 14 13  1  0
 16 15  1  0
 17 16  1  0
 17 18  2  0
 18 14  1  0
 19 22  1  0
 19  3  1  0
 19 20  1  0
 21 19  1  0
  2 23  1  0
  5 24  1  0
  8 25  1  0
 10 26  1  0
 12 27  1  0
 12 28  1  0
 13 29  1  0
 13 30  1  0
 15 31  1  0
 17 32  1  0
 20 33  1  0
 20 34  1  0
 20 35  1  0
 21 36  1  0
 21 37  1  0
 21 38  1  0
 22 39  1  0
 22 40  1  0
 22 41  1  0
M  ISO  8  23  14  24  14  25  14  26  14  27   8  28   8  29   8  30   8
M  ISO  8  31  14  32  14  33   8  34   8  35   8  36   8  37   8  38   8
M  ISO  3  39   8  40   8  41   8
M  END
>  <minimizedAffinity>  (1) 
-5.02611256

>  <minimizedRMSD>  (1) 
1.33082533

$$$$
