
     RDKit          3D

 42 44  0  0  0  0  0  0  0  0999 V2000
   37.8090   23.1250   33.8870 C   0  0  0  0  0  0  0  0  0  0  0  0
   38.1550   24.4550   33.8260 C   0  0  0  0  0  0  0  0  0  0  0  0
   38.9220   25.0550   34.7860 C   0  0  0  0  0  0  0  0  0  0  0  0
   39.3330   24.2680   35.8180 N   0  0  0  0  0  0  0  0  0  0  0  0
   38.9960   22.9510   35.8870 C   0  0  0  0  0  0  0  0  0  0  0  0
   38.2390   22.3750   34.9320 N   0  0  0  0  0  0  0  0  0  0  0  0
   36.9970   22.4260   32.9000 C   0  0  0  0  0  0  0  0  0  0  0  0
   36.3100   21.2600   33.2360 C   0  0  0  0  0  0  0  0  0  0  0  0
   35.6290   20.8090   32.1310 C   0  0  0  0  0  0  0  0  0  0  0  0
   35.9410   21.7440   31.1560 C   0  0  0  0  0  0  0  0  0  0  0  0
   36.7510   22.6790   31.6560 O   0  0  0  0  0  0  0  0  0  0  0  0
   34.7640   19.6200   31.9870 C   0  0  0  0  0  0  0  0  0  0  0  0
   35.2440   18.4570   32.8740 C   0  0  0  0  0  0  0  0  0  0  0  0
   35.8680   17.4430   31.9700 C   0  0  0  0  0  0  0  0  0  0  0  0
   35.9360   16.0870   32.2010 C   0  0  0  0  0  0  0  0  0  0  0  0
   36.5930   15.4750   31.1270 C   0  0  0  0  0  0  0  0  0  0  0  0
   36.8910   16.5350   30.2890 C   0  0  0  0  0  0  0  0  0  0  0  0
   36.4510   17.6470   30.8220 O   0  0  0  0  0  0  0  0  0  0  0  0
   39.3010   26.4620   34.7440 C   0  0  0  0  0  0  0  0  0  0  0  0
   38.6910   27.2550   35.9000 C   0  0  0  0  0  0  0  0  0  0  0  0
   38.8210   27.1150   33.4360 C   0  0  0  0  0  0  0  0  0  0  0  0
   40.8060   26.5640   34.7660 C   0  0  0  0  0  0  0  0  0  0  0  0
   37.8024   25.0568   32.9754 H   0  0  0  0  0  0  0  0  0  0  0  0
   39.3473   22.3467   36.7363 H   0  0  0  0  0  0  0  0  0  0  0  0
   36.3128   20.7791   34.2253 H   0  0  0  0  0  0  0  0  0  0  0  0
   35.5737   21.7187   30.1195 H   0  0  0  0  0  0  0  0  0  0  0  0
   33.7373   19.8888   32.2761 H   0  0  0  0  0  0  0  0  0  0  0  0
   34.8044   19.2911   30.9381 H   0  0  0  0  0  0  0  0  0  0  0  0
   35.9841   18.8189   33.6028 H   0  0  0  0  0  0  0  0  0  0  0  0
   34.4042   18.0188   33.4332 H   0  0  0  0  0  0  0  0  0  0  0  0
   35.5384   15.5688   33.0861 H   0  0  0  0  0  0  0  0  0  0  0  0
   36.8182   14.4079   30.9837 H   0  0  0  0  0  0  0  0  0  0  0  0
   37.4157   16.4558   29.3254 H   0  0  0  0  0  0  0  0  0  0  0  0
   39.0228   26.8236   36.8559 H   0  0  0  0  0  0  0  0  0  0  0  0
   39.0175   28.3036   35.8379 H   0  0  0  0  0  0  0  0  0  0  0  0
   37.5937   27.2084   35.8379 H   0  0  0  0  0  0  0  0  0  0  0  0
   38.1845   27.9809   33.6705 H   0  0  0  0  0  0  0  0  0  0  0  0
   39.6914   27.4474   32.8512 H   0  0  0  0  0  0  0  0  0  0  0  0
   38.2440   26.3835   32.8512 H   0  0  0  0  0  0  0  0  0  0  0  0
   41.1567   26.5878   35.8083 H   0  0  0  0  0  0  0  0  0  0  0  0
   41.2401   25.6932   34.2529 H   0  0  0  0  0  0  0  0  0  0  0  0
   41.1186   27.4854   34.2529 H   0  0  0  0  0  0  0  0  0  0  0  0
  1  6  1  0
  2  1  2  0
  2  3  1  0
  3  4  2  0
  4  5  1  0
  6  5  2  0
  7  8  2  0
  7  1  1  0
  9  8  1  0
 10 11  1  0
 10  9  2  0
 11  7  1  0
 12  9  1  0
 12 13  1  0
 14 15  2  0
 14 13  1  0
 16 15  1  0
 17 18  1  0
 17 16  2  0
 18 14  1  0
 19 22  1  0
 19  3  1  0
 19 20  1  0
 21 19  1  0
  2 23  1  0
  5 24  1  0
  8 25  1  0
 10 26  1  0
 12 27  1  0
 12 28  1  0
 13 29  1  0
 13 30  1  0
 15 31  1  0
 16 32  1  0
 17 33  1  0
 20 34  1  0
 20 35  1  0
 20 36  1  0
 21 37  1  0
 21 38  1  0
 21 39  1  0
 22 40  1  0
 22 41  1  0
 22 42  1  0
M  ISO  8  23  14  24  14  25  14  26  14  27   8  28   8  29   8  30   8
M  ISO  8  31  14  32  14  33  14  34   8  35   8  36   8  37   8  38   8
M  ISO  4  39   8  40   8  41   8  42   8
M  END
>  <minimizedAffinity>  (1) 
-5.08532047

>  <minimizedRMSD>  (1) 
0.918108165

$$$$
