
     RDKit          3D

 40 42  0  0  0  0  0  0  0  0999 V2000
   37.8230   23.1110   33.9070 C   0  0  0  0  0  0  0  0  0  0  0  0
   38.1530   24.4430   33.8400 C   0  0  0  0  0  0  0  0  0  0  0  0
   38.9140   25.0510   34.7980 C   0  0  0  0  0  0  0  0  0  0  0  0
   39.3340   24.2710   35.8290 N   0  0  0  0  0  0  0  0  0  0  0  0
   39.0100   22.9480   35.9020 C   0  0  0  0  0  0  0  0  0  0  0  0
   38.2630   22.3660   34.9550 N   0  0  0  0  0  0  0  0  0  0  0  0
   37.0150   22.3950   32.9230 C   0  0  0  0  0  0  0  0  0  0  0  0
   36.2970   21.2510   33.2780 C   0  0  0  0  0  0  0  0  0  0  0  0
   35.6350   20.7840   32.1820 C   0  0  0  0  0  0  0  0  0  0  0  0
   35.9830   21.6810   31.1800 C   0  0  0  0  0  0  0  0  0  0  0  0
   36.8050   22.6210   31.6670 O   0  0  0  0  0  0  0  0  0  0  0  0
   34.7530   19.6270   32.0150 C   0  0  0  0  0  0  0  0  0  0  0  0
   35.2430   18.4030   32.8080 C   0  0  0  0  0  0  0  0  0  0  0  0
   35.7310   17.3280   31.9290 C   0  0  0  0  0  0  0  0  0  0  0  0
   36.5870   17.3380   30.8920 N   0  0  0  0  0  0  0  0  0  0  0  0
   36.7170   16.1380   30.4120 O   0  0  0  0  0  0  0  0  0  0  0  0
   35.9710   15.3350   31.1050 C   0  0  0  0  0  0  0  0  0  0  0  0
   35.3340   16.0290   32.0640 N   0  0  0  0  0  0  0  0  0  0  0  0
   39.2810   26.4620   34.7540 C   0  0  0  0  0  0  0  0  0  0  0  0
   38.6860   27.2590   35.8940 C   0  0  0  0  0  0  0  0  0  0  0  0
   38.8130   27.0990   33.4360 C   0  0  0  0  0  0  0  0  0  0  0  0
   40.7880   26.5670   34.7590 C   0  0  0  0  0  0  0  0  0  0  0  0
   37.7931   25.0387   32.9882 H   0  0  0  0  0  0  0  0  0  0  0  0
   39.3681   22.3494   36.7525 H   0  0  0  0  0  0  0  0  0  0  0  0
   36.2701   20.7995   34.2807 H   0  0  0  0  0  0  0  0  0  0  0  0
   35.6345   21.6276   30.1380 H   0  0  0  0  0  0  0  0  0  0  0  0
   33.7457   19.8960   32.3655 H   0  0  0  0  0  0  0  0  0  0  0  0
   34.7474   19.3580   30.9484 H   0  0  0  0  0  0  0  0  0  0  0  0
   36.0620   18.7163   33.4722 H   0  0  0  0  0  0  0  0  0  0  0  0
   34.3904   18.0091   33.3806 H   0  0  0  0  0  0  0  0  0  0  0  0
   35.8743   14.2526   30.9344 H   0  0  0  0  0  0  0  0  0  0  0  0
   39.0093   26.8259   36.8521 H   0  0  0  0  0  0  0  0  0  0  0  0
   39.0277   28.3026   35.8294 H   0  0  0  0  0  0  0  0  0  0  0  0
   37.5883   27.2280   35.8294 H   0  0  0  0  0  0  0  0  0  0  0  0
   38.1747   27.9677   33.6550 H   0  0  0  0  0  0  0  0  0  0  0  0
   39.6884   27.4244   32.8548 H   0  0  0  0  0  0  0  0  0  0  0  0
   38.2408   26.3608   32.8548 H   0  0  0  0  0  0  0  0  0  0  0  0
   41.1503   26.5922   35.7973 H   0  0  0  0  0  0  0  0  0  0  0  0
   41.2179   25.6966   34.2417 H   0  0  0  0  0  0  0  0  0  0  0  0
   41.0931   27.4886   34.2417 H   0  0  0  0  0  0  0  0  0  0  0  0
  1  6  1  0
  2  1  2  0
  2  3  1  0
  3  4  2  0
  4  5  1  0
  6  5  2  0
  7  8  2  0
  7  1  1  0
  9  8  1  0
 10 11  1  0
 10  9  2  0
 11  7  1  0
 12  9  1  0
 12 13  1  0
 14 18  1  0
 14 13  1  0
 15 14  2  0
 16 15  1  0
 16 17  1  0
 17 18  2  0
 19 22  1  0
 19  3  1  0
 19 20  1  0
 21 19  1  0
  2 23  1  0
  5 24  1  0
  8 25  1  0
 10 26  1  0
 12 27  1  0
 12 28  1  0
 13 29  1  0
 13 30  1  0
 17 31  1  0
 20 32  1  0
 20 33  1  0
 20 34  1  0
 21 35  1  0
 21 36  1  0
 21 37  1  0
 22 38  1  0
 22 39  1  0
 22 40  1  0
M  ISO  8  23  14  24  14  25  14  26  14  27   8  28   8  29   8  30   8
M  ISO  8  31  14  32   8  33   8  34   8  35   8  36   8  37   8  38   8
M  ISO  2  39   8  40   8
M  END
>  <minimizedAffinity>  (1) 
-5.03120422

>  <minimizedRMSD>  (1) 
0.990036428

$$$$
