
     RDKit          3D

 48 50  0  0  0  0  0  0  0  0999 V2000
   37.7910   23.0110   33.9350 C   0  0  0  0  0  0  0  0  0  0  0  0
   38.1120   24.3520   33.8560 C   0  0  0  0  0  0  0  0  0  0  0  0
   38.8850   24.9710   34.8120 C   0  0  0  0  0  0  0  0  0  0  0  0
   39.3180   24.2080   35.8380 N   0  0  0  0  0  0  0  0  0  0  0  0
   39.0020   22.8840   35.9180 C   0  0  0  0  0  0  0  0  0  0  0  0
   38.2490   22.2880   34.9830 N   0  0  0  0  0  0  0  0  0  0  0  0
   36.9770   22.2910   32.9670 C   0  0  0  0  0  0  0  0  0  0  0  0
   36.3470   21.0960   33.3210 C   0  0  0  0  0  0  0  0  0  0  0  0
   35.6460   20.6250   32.2330 C   0  0  0  0  0  0  0  0  0  0  0  0
   35.8990   21.5840   31.2580 C   0  0  0  0  0  0  0  0  0  0  0  0
   36.6850   22.5370   31.7450 O   0  0  0  0  0  0  0  0  0  0  0  0
   34.8270   19.4050   32.1320 C   0  0  0  0  0  0  0  0  0  0  0  0
   35.6260   18.1510   32.4840 C   0  0  0  0  0  0  0  0  0  0  0  0
   36.3230   17.6050   31.3750 N   0  0  0  0  0  0  0  0  0  0  0  0
   36.0860   16.2110   31.1060 C   0  0  0  0  0  0  0  0  0  0  0  0
   36.3110   15.4160   32.3490 C   0  0  0  0  0  0  0  0  0  0  0  0
   37.6040   15.5990   32.7830 O   0  0  0  0  0  0  0  0  0  0  0  0
   38.3940   16.3870   31.9650 C   0  0  0  0  0  0  0  0  0  0  0  0
   37.7560   17.7270   31.6760 C   0  0  0  0  0  0  0  0  0  0  0  0
   39.2360   26.3990   34.7380 C   0  0  0  0  0  0  0  0  0  0  0  0
   38.6350   27.1910   35.8820 C   0  0  0  0  0  0  0  0  0  0  0  0
   38.7570   27.0100   33.4170 C   0  0  0  0  0  0  0  0  0  0  0  0
   40.7390   26.5100   34.7560 C   0  0  0  0  0  0  0  0  0  0  0  0
   37.7396   24.9418   33.0054 H   0  0  0  0  0  0  0  0  0  0  0  0
   39.3730   22.2924   36.7680 H   0  0  0  0  0  0  0  0  0  0  0  0
   36.4016   20.6107   34.3067 H   0  0  0  0  0  0  0  0  0  0  0  0
   35.5048   21.5569   30.2314 H   0  0  0  0  0  0  0  0  0  0  0  0
   33.9758   19.4900   32.8235 H   0  0  0  0  0  0  0  0  0  0  0  0
   34.4846   19.3097   31.0910 H   0  0  0  0  0  0  0  0  0  0  0  0
   36.3571   18.4094   33.2642 H   0  0  0  0  0  0  0  0  0  0  0  0
   34.9087   17.3908   32.8269 H   0  0  0  0  0  0  0  0  0  0  0  0
   35.0484   16.0748   30.7671 H   0  0  0  0  0  0  0  0  0  0  0  0
   36.7774   15.8674   30.3224 H   0  0  0  0  0  0  0  0  0  0  0  0
   35.6115   15.7500   33.1295 H   0  0  0  0  0  0  0  0  0  0  0  0
   36.1427   14.3497   32.1377 H   0  0  0  0  0  0  0  0  0  0  0  0
   39.3614   16.5546   32.4611 H   0  0  0  0  0  0  0  0  0  0  0  0
   38.5216   15.8597   31.0081 H   0  0  0  0  0  0  0  0  0  0  0  0
   38.2623   18.1816   30.8117 H   0  0  0  0  0  0  0  0  0  0  0  0
   37.8606   18.3522   32.5750 H   0  0  0  0  0  0  0  0  0  0  0  0
   38.9628   26.7590   36.8390 H   0  0  0  0  0  0  0  0  0  0  0  0
   38.9685   28.2373   35.8186 H   0  0  0  0  0  0  0  0  0  0  0  0
   37.5375   27.1515   35.8186 H   0  0  0  0  0  0  0  0  0  0  0  0
   38.0907   27.8599   33.6264 H   0  0  0  0  0  0  0  0  0  0  0  0
   39.6250   27.3585   32.8381 H   0  0  0  0  0  0  0  0  0  0  0  0
   38.2114   26.2503   32.8381 H   0  0  0  0  0  0  0  0  0  0  0  0
   41.0923   26.5361   35.7974 H   0  0  0  0  0  0  0  0  0  0  0  0
   41.1770   25.6418   34.2419 H   0  0  0  0  0  0  0  0  0  0  0  0
   41.0447   27.4332   34.2419 H   0  0  0  0  0  0  0  0  0  0  0  0
  1  6  1  0
  2  1  2  0
  2  3  1  0
  3  4  2  0
  4  5  1  0
  6  5  2  0
  7  8  2  0
  7  1  1  0
  9  8  1  0
 10 11  1  0
 10  9  2  0
 11  7  1  0
 12  9  1  0
 12 13  1  0
 14 19  1  0
 14 13  1  0
 15 14  1  0
 15 16  1  0
 16 17  1  0
 18 17  1  0
 19 18  1  0
 20 23  1  0
 20  3  1  0
 20 21  1  0
 22 20  1  0
  2 24  1  0
  5 25  1  0
  8 26  1  0
 10 27  1  0
 12 28  1  0
 12 29  1  0
 13 30  1  0
 13 31  1  0
 15 32  1  0
 15 33  1  0
 16 34  1  0
 16 35  1  0
 18 36  1  0
 18 37  1  0
 19 38  1  0
 19 39  1  0
 21 40  1  0
 21 41  1  0
 21 42  1  0
 22 43  1  0
 22 44  1  0
 22 45  1  0
 23 46  1  0
 23 47  1  0
 23 48  1  0
M  ISO  8  24  14  25  14  26  14  27  14  28   8  29   8  30   8  31   8
M  ISO  8  32  13  33  13  34  13  35  13  36  13  37  13  38  13  39  13
M  ISO  8  40   8  41   8  42   8  43   8  44   8  45   8  46   8  47   8
M  ISO  1  48   8
M  END
>  <minimizedAffinity>  (1) 
-4.94317436

>  <minimizedRMSD>  (1) 
0.441618443

$$$$
