
     RDKit          3D

 42 44  0  0  0  0  0  0  0  0999 V2000
   37.7150   23.1560   33.6650 C   0  0  0  0  0  0  0  0  0  0  0  0
   38.1040   24.4750   33.6630 C   0  0  0  0  0  0  0  0  0  0  0  0
   38.8070   25.0180   34.7050 C   0  0  0  0  0  0  0  0  0  0  0  0
   39.1060   24.1930   35.7470 N   0  0  0  0  0  0  0  0  0  0  0  0
   38.7260   22.8850   35.7580 C   0  0  0  0  0  0  0  0  0  0  0  0
   38.0350   22.3620   34.7290 N   0  0  0  0  0  0  0  0  0  0  0  0
   36.9730   22.4910   32.6170 C   0  0  0  0  0  0  0  0  0  0  0  0
   37.3900   21.2740   32.0660 C   0  0  0  0  0  0  0  0  0  0  0  0
   36.5050   20.8860   31.1070 C   0  0  0  0  0  0  0  0  0  0  0  0
   35.5570   21.9030   31.1040 C   0  0  0  0  0  0  0  0  0  0  0  0
   35.8760   22.8300   32.0140 O   0  0  0  0  0  0  0  0  0  0  0  0
   36.4990   19.6960   30.2510 C   0  0  0  0  0  0  0  0  0  0  0  0
   37.5350   18.6510   30.7130 C   0  0  0  0  0  0  0  0  0  0  0  0
   36.7240   17.4930   31.1220 N   0  0  0  0  0  0  0  0  0  0  0  0
   35.9820   17.3940   32.2410 C   0  0  0  0  0  0  0  0  0  0  0  0
   35.3540   16.1680   32.3010 C   0  0  0  0  0  0  0  0  0  0  0  0
   35.7430   15.5220   31.1740 N   0  0  0  0  0  0  0  0  0  0  0  0
   36.5710   16.3310   30.4670 C   0  0  0  0  0  0  0  0  0  0  0  0
   39.2360   26.4150   34.7360 C   0  0  0  0  0  0  0  0  0  0  0  0
   38.6440   27.1810   35.9010 C   0  0  0  0  0  0  0  0  0  0  0  0
   38.8220   27.1300   33.4500 C   0  0  0  0  0  0  0  0  0  0  0  0
   40.7440   26.4480   34.8010 C   0  0  0  0  0  0  0  0  0  0  0  0
   37.8439   25.1096   32.8030 H   0  0  0  0  0  0  0  0  0  0  0  0
   38.9869   22.2497   36.6173 H   0  0  0  0  0  0  0  0  0  0  0  0
   38.2919   20.7179   32.3616 H   0  0  0  0  0  0  0  0  0  0  0  0
   34.6739   21.9399   30.4492 H   0  0  0  0  0  0  0  0  0  0  0  0
   36.7341   19.9983   29.2198 H   0  0  0  0  0  0  0  0  0  0  0  0
   35.5011   19.2371   30.3115 H   0  0  0  0  0  0  0  0  0  0  0  0
   38.2114   18.3816   29.8884 H   0  0  0  0  0  0  0  0  0  0  0  0
   38.1755   19.0242   31.5257 H   0  0  0  0  0  0  0  0  0  0  0  0
   35.8895   18.1825   33.0024 H   0  0  0  0  0  0  0  0  0  0  0  0
   34.6842   15.7956   33.0901 H   0  0  0  0  0  0  0  0  0  0  0  0
   37.0433   16.0751   29.5071 H   0  0  0  0  0  0  0  0  0  0  0  0
   38.9885   26.7353   36.8458 H   0  0  0  0  0  0  0  0  0  0  0  0
   38.9675   28.2312   35.8516 H   0  0  0  0  0  0  0  0  0  0  0  0
   37.5462   27.1328   35.8516 H   0  0  0  0  0  0  0  0  0  0  0  0
   38.2855   28.0566   33.7021 H   0  0  0  0  0  0  0  0  0  0  0  0
   39.7185   27.3740   32.8612 H   0  0  0  0  0  0  0  0  0  0  0  0
   38.1640   26.4739   32.8612 H   0  0  0  0  0  0  0  0  0  0  0  0
   41.0656   26.4550   35.8529 H   0  0  0  0  0  0  0  0  0  0  0  0
   41.1522   25.5586   34.2987 H   0  0  0  0  0  0  0  0  0  0  0  0
   41.1129   27.3544   34.2987 H   0  0  0  0  0  0  0  0  0  0  0  0
  1  6  1  0
  2  1  2  0
  2  3  1  0
  3 19  1  0
  3  4  2  0
  4  5  1  0
  6  5  2  0
  7  1  1  0
  8  7  2  0
  9  8  1  0
 10  9  2  0
 10 11  1  0
 11  7  1  0
 12 13  1  0
 12  9  1  0
 13 14  1  0
 14 15  1  0
 15 16  2  0
 17 16  1  0
 18 14  1  0
 18 17  2  0
 19 22  1  0
 19 20  1  0
 21 19  1  0
  2 23  1  0
  5 24  1  0
  8 25  1  0
 10 26  1  0
 12 27  1  0
 12 28  1  0
 13 29  1  0
 13 30  1  0
 15 31  1  0
 16 32  1  0
 18 33  1  0
 20 34  1  0
 20 35  1  0
 20 36  1  0
 21 37  1  0
 21 38  1  0
 21 39  1  0
 22 40  1  0
 22 41  1  0
 22 42  1  0
M  ISO  8  23  14  24  14  25  14  26  14  27   8  28   8  29   8  30   8
M  ISO  8  31  14  32  14  33  14  34   8  35   8  36   8  37   8  38   8
M  ISO  4  39   8  40   8  41   8  42   8
M  END
>  <minimizedAffinity>  (1) 
-4.63552141

>  <minimizedRMSD>  (1) 
1.68148637

$$$$
