
     RDKit          3D

 36 37  0  0  0  0  0  0  0  0999 V2000
   37.8220   23.0550   33.9100 C   0  0  0  0  0  0  0  0  0  0  0  0
   38.1250   24.4120   33.8330 C   0  0  0  0  0  0  0  0  0  0  0  0
   38.8620   25.0250   34.8200 C   0  0  0  0  0  0  0  0  0  0  0  0
   39.2720   24.2590   35.8550 N   0  0  0  0  0  0  0  0  0  0  0  0
   38.9730   22.9330   35.9240 C   0  0  0  0  0  0  0  0  0  0  0  0
   38.2560   22.3310   34.9670 N   0  0  0  0  0  0  0  0  0  0  0  0
   37.0440   22.3480   32.9090 C   0  0  0  0  0  0  0  0  0  0  0  0
   36.2600   21.2520   33.2840 C   0  0  0  0  0  0  0  0  0  0  0  0
   35.6250   20.7550   32.1780 C   0  0  0  0  0  0  0  0  0  0  0  0
   36.0650   21.5930   31.1590 C   0  0  0  0  0  0  0  0  0  0  0  0
   36.8990   22.5120   31.6510 O   0  0  0  0  0  0  0  0  0  0  0  0
   34.6970   19.6260   32.0170 C   0  0  0  0  0  0  0  0  0  0  0  0
   35.2750   18.3410   32.6460 C   0  0  0  0  0  0  0  0  0  0  0  0
   36.4250   18.0300   31.8850 O   0  0  0  0  0  0  0  0  0  0  0  0
   39.2040   26.4450   34.7790 C   0  0  0  0  0  0  0  0  0  0  0  0
   38.6220   27.2200   35.9360 C   0  0  0  0  0  0  0  0  0  0  0  0
   38.7110   27.0840   33.4830 C   0  0  0  0  0  0  0  0  0  0  0  0
   40.7220   26.5700   34.7560 C   0  0  0  0  0  0  0  0  0  0  0  0
   37.7712   25.0004   32.9736 H   0  0  0  0  0  0  0  0  0  0  0  0
   39.3274   22.3444   36.7830 H   0  0  0  0  0  0  0  0  0  0  0  0
   36.1684   20.8531   34.3050 H   0  0  0  0  0  0  0  0  0  0  0  0
   35.7692   21.5107   30.1027 H   0  0  0  0  0  0  0  0  0  0  0  0
   33.7443   19.8705   32.5095 H   0  0  0  0  0  0  0  0  0  0  0  0
   34.5415   19.4507   30.9422 H   0  0  0  0  0  0  0  0  0  0  0  0
   35.5462   18.5165   33.6975 H   0  0  0  0  0  0  0  0  0  0  0  0
   34.5449   17.5183   32.6354 H   0  0  0  0  0  0  0  0  0  0  0  0
   37.1785   17.8262   32.4939 H   0  0  0  0  0  0  0  0  0  0  0  0
   38.9580   26.7726   36.8830 H   0  0  0  0  0  0  0  0  0  0  0  0
   38.9601   28.2655   35.8841 H   0  0  0  0  0  0  0  0  0  0  0  0
   37.5237   27.1868   35.8841 H   0  0  0  0  0  0  0  0  0  0  0  0
   38.0548   27.9345   33.7200 H   0  0  0  0  0  0  0  0  0  0  0  0
   39.5726   27.4376   32.8976 H   0  0  0  0  0  0  0  0  0  0  0  0
   38.1504   26.3403   32.8976 H   0  0  0  0  0  0  0  0  0  0  0  0
   41.1030   26.6014   35.7874 H   0  0  0  0  0  0  0  0  0  0  0  0
   41.1533   25.7043   34.2320 H   0  0  0  0  0  0  0  0  0  0  0  0
   41.0059   27.4946   34.2320 H   0  0  0  0  0  0  0  0  0  0  0  0
  1  6  1  0
  2  1  2  0
  2  3  1  0
  3  4  2  0
  4  5  1  0
  6  5  2  0
  7  8  2  0
  7  1  1  0
  9  8  1  0
 10 11  1  0
 10  9  2  0
 11  7  1  0
 12  9  1  0
 12 13  1  0
 14 13  1  0
 15  3  1  0
 15 16  1  0
 17 15  1  0
 18 15  1  0
  2 19  1  0
  5 20  1  0
  8 21  1  0
 10 22  1  0
 12 23  1  0
 12 24  1  0
 13 25  1  0
 13 26  1  0
 14 27  1  0
 16 28  1  0
 16 29  1  0
 16 30  1  0
 17 31  1  0
 17 32  1  0
 17 33  1  0
 18 34  1  0
 18 35  1  0
 18 36  1  0
M  ISO  8  19  14  20  14  21  14  22  14  23   8  24   8  25   8  26   8
M  ISO  8  27   3  28   8  29   8  30   8  31   8  32   8  33   8  34   8
M  ISO  2  35   8  36   8
M  END
>  <minimizedAffinity>  (1) 
-4.63766098

>  <minimizedRMSD>  (1) 
0.0756344423

$$$$
