
     RDKit          3D

 47 49  0  0  0  0  0  0  0  0999 V2000
   37.8030   23.0670   33.9010 C   0  0  0  0  0  0  0  0  0  0  0  0
   38.1350   24.4130   33.8350 C   0  0  0  0  0  0  0  0  0  0  0  0
   38.8920   25.0100   34.8040 C   0  0  0  0  0  0  0  0  0  0  0  0
   39.3050   24.2330   35.8270 N   0  0  0  0  0  0  0  0  0  0  0  0
   38.9820   22.9070   35.8980 C   0  0  0  0  0  0  0  0  0  0  0  0
   38.2410   22.3270   34.9490 N   0  0  0  0  0  0  0  0  0  0  0  0
   37.0060   22.3630   32.9170 C   0  0  0  0  0  0  0  0  0  0  0  0
   36.2990   21.2220   33.2580 C   0  0  0  0  0  0  0  0  0  0  0  0
   35.6350   20.7530   32.1580 C   0  0  0  0  0  0  0  0  0  0  0  0
   35.9790   21.6610   31.1610 C   0  0  0  0  0  0  0  0  0  0  0  0
   36.7870   22.5840   31.6700 O   0  0  0  0  0  0  0  0  0  0  0  0
   34.7550   19.5800   31.9830 C   0  0  0  0  0  0  0  0  0  0  0  0
   35.2560   18.3830   32.7700 C   0  0  0  0  0  0  0  0  0  0  0  0
   35.7990   17.3350   31.9350 N   0  0  0  0  0  0  0  0  0  0  0  0
   35.4540   16.0140   32.4120 C   0  0  0  0  0  0  0  0  0  0  0  0
   36.3720   15.1400   31.5680 C   0  0  0  0  0  0  0  0  0  0  0  0
   37.5010   16.0300   31.1000 C   0  0  0  0  0  0  0  0  0  0  0  0
   37.2460   17.3210   31.8880 C   0  0  0  0  0  0  0  0  0  0  0  0
   39.2540   26.4310   34.7530 C   0  0  0  0  0  0  0  0  0  0  0  0
   38.6610   27.2150   35.9070 C   0  0  0  0  0  0  0  0  0  0  0  0
   38.7710   27.0730   33.4560 C   0  0  0  0  0  0  0  0  0  0  0  0
   40.7700   26.5280   34.7680 C   0  0  0  0  0  0  0  0  0  0  0  0
   37.7809   25.0129   32.9837 H   0  0  0  0  0  0  0  0  0  0  0  0
   39.3374   22.3079   36.7493 H   0  0  0  0  0  0  0  0  0  0  0  0
   36.2752   20.7642   34.2579 H   0  0  0  0  0  0  0  0  0  0  0  0
   35.6360   21.6206   30.1166 H   0  0  0  0  0  0  0  0  0  0  0  0
   33.7436   19.8376   32.3304 H   0  0  0  0  0  0  0  0  0  0  0  0
   34.7477   19.3116   30.9163 H   0  0  0  0  0  0  0  0  0  0  0  0
   36.0430   18.7231   33.4592 H   0  0  0  0  0  0  0  0  0  0  0  0
   34.3921   17.9594   33.3032 H   0  0  0  0  0  0  0  0  0  0  0  0
   35.6694   15.9048   33.4852 H   0  0  0  0  0  0  0  0  0  0  0  0
   34.3863   15.7667   32.3178 H   0  0  0  0  0  0  0  0  0  0  0  0
   36.7676   14.3102   32.1720 H   0  0  0  0  0  0  0  0  0  0  0  0
   35.8315   14.7019   30.7160 H   0  0  0  0  0  0  0  0  0  0  0  0
   38.4804   15.5967   31.3511 H   0  0  0  0  0  0  0  0  0  0  0  0
   37.5245   16.1761   30.0100 H   0  0  0  0  0  0  0  0  0  0  0  0
   37.6824   17.2715   32.8965 H   0  0  0  0  0  0  0  0  0  0  0  0
   37.6938   18.2209   31.4411 H   0  0  0  0  0  0  0  0  0  0  0  0
   38.9938   26.7750   36.8586 H   0  0  0  0  0  0  0  0  0  0  0  0
   38.9958   28.2613   35.8499 H   0  0  0  0  0  0  0  0  0  0  0  0
   37.5631   27.1777   35.8499 H   0  0  0  0  0  0  0  0  0  0  0  0
   38.1249   27.9318   33.6904 H   0  0  0  0  0  0  0  0  0  0  0  0
   39.6377   27.4150   32.8712 H   0  0  0  0  0  0  0  0  0  0  0  0
   38.2022   26.3351   32.8712 H   0  0  0  0  0  0  0  0  0  0  0  0
   41.1257   26.5508   35.8087 H   0  0  0  0  0  0  0  0  0  0  0  0
   41.1984   25.6554   34.2531 H   0  0  0  0  0  0  0  0  0  0  0  0
   41.0837   27.4481   34.2531 H   0  0  0  0  0  0  0  0  0  0  0  0
  1  6  1  0
  2  1  2  0
  2  3  1  0
  3  4  2  0
  4  5  1  0
  6  5  2  0
  7  8  2  0
  7  1  1  0
  9  8  1  0
 10 11  1  0
 10  9  2  0
 11  7  1  0
 12  9  1  0
 12 13  1  0
 14 15  1  0
 14 13  1  0
 16 15  1  0
 17 16  1  0
 17 18  1  0
 18 14  1  0
 19 22  1  0
 19  3  1  0
 19 20  1  0
 21 19  1  0
  2 23  1  0
  5 24  1  0
  8 25  1  0
 10 26  1  0
 12 27  1  0
 12 28  1  0
 13 29  1  0
 13 30  1  0
 15 31  1  0
 15 32  1  0
 16 33  1  0
 16 34  1  0
 17 35  1  0
 17 36  1  0
 18 37  1  0
 18 38  1  0
 20 39  1  0
 20 40  1  0
 20 41  1  0
 21 42  1  0
 21 43  1  0
 21 44  1  0
 22 45  1  0
 22 46  1  0
 22 47  1  0
M  ISO  8  23  14  24  14  25  14  26  14  27   8  28   8  29   8  30   8
M  ISO  8  31  13  32  13  33  13  34  13  35  13  36  13  37  13  38  13
M  ISO  8  39   8  40   8  41   8  42   8  43   8  44   8  45   8  46   8
M  ISO  1  47   8
M  END
>  <minimizedAffinity>  (1) 
-4.95878124

>  <minimizedRMSD>  (1) 
1.19792736

$$$$
