
     RDKit          3D

 37 38  0  0  0  0  0  0  0  0999 V2000
   37.8200   23.0700   33.9030 C   0  0  0  0  0  0  0  0  0  0  0  0
   38.1420   24.4050   33.8460 C   0  0  0  0  0  0  0  0  0  0  0  0
   38.8730   25.0330   34.8130 C   0  0  0  0  0  0  0  0  0  0  0  0
   39.2810   24.2660   35.8620 N   0  0  0  0  0  0  0  0  0  0  0  0
   38.9750   22.9480   35.9390 C   0  0  0  0  0  0  0  0  0  0  0  0
   38.2520   22.3360   34.9770 N   0  0  0  0  0  0  0  0  0  0  0  0
   37.0530   22.3310   32.9230 C   0  0  0  0  0  0  0  0  0  0  0  0
   36.2740   21.2310   33.2900 C   0  0  0  0  0  0  0  0  0  0  0  0
   35.6610   20.7290   32.1600 C   0  0  0  0  0  0  0  0  0  0  0  0
   36.1030   21.5570   31.1580 C   0  0  0  0  0  0  0  0  0  0  0  0
   36.9250   22.4910   31.6540 O   0  0  0  0  0  0  0  0  0  0  0  0
   34.7510   19.5940   32.0020 C   0  0  0  0  0  0  0  0  0  0  0  0
   35.2580   18.3190   32.6900 C   0  0  0  0  0  0  0  0  0  0  0  0
   36.4340   17.8110   32.0590 N   0  0  0  0  0  0  0  0  0  0  0  0
   39.2170   26.4510   34.7590 C   0  0  0  0  0  0  0  0  0  0  0  0
   38.6270   27.2310   35.9200 C   0  0  0  0  0  0  0  0  0  0  0  0
   38.7200   27.0760   33.4550 C   0  0  0  0  0  0  0  0  0  0  0  0
   40.7230   26.5740   34.7520 C   0  0  0  0  0  0  0  0  0  0  0  0
   37.7955   24.9932   32.9834 H   0  0  0  0  0  0  0  0  0  0  0  0
   39.3232   22.3643   36.8039 H   0  0  0  0  0  0  0  0  0  0  0  0
   36.1671   20.8317   34.3094 H   0  0  0  0  0  0  0  0  0  0  0  0
   35.8220   21.4662   30.0984 H   0  0  0  0  0  0  0  0  0  0  0  0
   33.7766   19.8628   32.4360 H   0  0  0  0  0  0  0  0  0  0  0  0
   34.6758   19.3797   30.9257 H   0  0  0  0  0  0  0  0  0  0  0  0
   35.4879   18.5483   33.7410 H   0  0  0  0  0  0  0  0  0  0  0  0
   34.4714   17.5536   32.6168 H   0  0  0  0  0  0  0  0  0  0  0  0
   37.1107   17.5187   32.7784 H   0  0  0  0  0  0  0  0  0  0  0  0
   36.1863   17.0019   31.4717 H   0  0  0  0  0  0  0  0  0  0  0  0
   38.9630   26.7868   36.8686 H   0  0  0  0  0  0  0  0  0  0  0  0
   38.9615   28.2775   35.8664 H   0  0  0  0  0  0  0  0  0  0  0  0
   37.5289   27.1939   35.8664 H   0  0  0  0  0  0  0  0  0  0  0  0
   38.0503   27.9181   33.6839 H   0  0  0  0  0  0  0  0  0  0  0  0
   39.5790   27.4388   32.8715 H   0  0  0  0  0  0  0  0  0  0  0  0
   38.1731   26.3207   32.8715 H   0  0  0  0  0  0  0  0  0  0  0  0
   41.0932   26.6042   35.7874 H   0  0  0  0  0  0  0  0  0  0  0  0
   41.1592   25.7085   34.2318 H   0  0  0  0  0  0  0  0  0  0  0  0
   41.0129   27.4988   34.2318 H   0  0  0  0  0  0  0  0  0  0  0  0
  1  6  1  0
  2  1  2  0
  2  3  1  0
  3  4  2  0
  4  5  1  0
  6  5  2  0
  7  8  2  0
  7  1  1  0
  9  8  1  0
 10 11  1  0
 10  9  2  0
 11  7  1  0
 12  9  1  0
 12 13  1  0
 14 13  1  0
 15  3  1  0
 15 16  1  0
 17 15  1  0
 18 15  1  0
  2 19  1  0
  5 20  1  0
  8 21  1  0
 10 22  1  0
 12 23  1  0
 12 24  1  0
 13 25  1  0
 13 26  1  0
 14 27  1  0
 14 28  1  0
 16 29  1  0
 16 30  1  0
 16 31  1  0
 17 32  1  0
 17 33  1  0
 17 34  1  0
 18 35  1  0
 18 36  1  0
 18 37  1  0
M  ISO  8  19  14  20  14  21  14  22  14  23   8  24   8  25   8  26   8
M  ISO  8  27   5  28   5  29   8  30   8  31   8  32   8  33   8  34   8
M  ISO  3  35   8  36   8  37   8
M  END
>  <minimizedAffinity>  (1) 
-4.65336084

>  <minimizedRMSD>  (1) 
0.0775369778

$$$$
