
     RDKit          3D

 47 49  0  0  0  0  0  0  0  0999 V2000
   37.8340   23.0790   33.7750 C   0  0  0  0  0  0  0  0  0  0  0  0
   37.9380   24.4410   33.9090 C   0  0  0  0  0  0  0  0  0  0  0  0
   38.7570   25.0370   34.8080 C   0  0  0  0  0  0  0  0  0  0  0  0
   39.5040   24.2130   35.6050 N   0  0  0  0  0  0  0  0  0  0  0  0
   39.4200   22.8590   35.4930 C   0  0  0  0  0  0  0  0  0  0  0  0
   38.5990   22.2790   34.5910 N   0  0  0  0  0  0  0  0  0  0  0  0
   36.9820   22.3670   32.8380 C   0  0  0  0  0  0  0  0  0  0  0  0
   36.2700   21.2250   33.2390 C   0  0  0  0  0  0  0  0  0  0  0  0
   35.5560   20.7620   32.1630 C   0  0  0  0  0  0  0  0  0  0  0  0
   35.8710   21.6520   31.1550 C   0  0  0  0  0  0  0  0  0  0  0  0
   36.7240   22.5870   31.6080 O   0  0  0  0  0  0  0  0  0  0  0  0
   34.6600   19.6110   32.0470 C   0  0  0  0  0  0  0  0  0  0  0  0
   35.2580   18.3270   32.6320 C   0  0  0  0  0  0  0  0  0  0  0  0
   36.3600   17.8730   31.8320 N   0  0  0  0  0  0  0  0  0  0  0  0
   38.8820   26.4720   34.9660 C   0  0  0  0  0  0  0  0  0  0  0  0
   38.4000   26.9730   36.3070 C   0  0  0  0  0  0  0  0  0  0  0  0
   38.0600   27.2000   33.8990 C   0  0  0  0  0  0  0  0  0  0  0  0
   40.3260   26.8750   34.7570 C   0  0  0  0  0  0  0  0  0  0  0  0
   40.6470   27.1730   33.3640 C   0  0  0  0  0  0  0  0  0  0  0  0
   39.8180   27.0590   32.2640 C   0  0  0  0  0  0  0  0  0  0  0  0
   40.2390   27.3720   30.9860 C   0  0  0  0  0  0  0  0  0  0  0  0
   41.5220   27.8180   30.7430 C   0  0  0  0  0  0  0  0  0  0  0  0
   42.3710   27.9410   31.8250 C   0  0  0  0  0  0  0  0  0  0  0  0
   41.9460   27.6260   33.1080 C   0  0  0  0  0  0  0  0  0  0  0  0
   37.3265   25.0795   33.2545 H   0  0  0  0  0  0  0  0  0  0  0  0
   40.0330   22.2246   36.1502 H   0  0  0  0  0  0  0  0  0  0  0  0
   36.2826   20.7781   34.2440 H   0  0  0  0  0  0  0  0  0  0  0  0
   35.4798   21.6028   30.1281 H   0  0  0  0  0  0  0  0  0  0  0  0
   33.7260   19.8383   32.5817 H   0  0  0  0  0  0  0  0  0  0  0  0
   34.4864   19.4352   30.9751 H   0  0  0  0  0  0  0  0  0  0  0  0
   35.6113   18.5259   33.6545 H   0  0  0  0  0  0  0  0  0  0  0  0
   34.4823   17.5471   32.6425 H   0  0  0  0  0  0  0  0  0  0  0  0
   37.1240   17.5583   32.4470 H   0  0  0  0  0  0  0  0  0  0  0  0
   36.0530   17.0899   31.2375 H   0  0  0  0  0  0  0  0  0  0  0  0
   38.9213   26.4311   37.1098 H   0  0  0  0  0  0  0  0  0  0  0  0
   38.6111   28.0491   36.3939 H   0  0  0  0  0  0  0  0  0  0  0  0
   37.3166   26.8037   36.3939 H   0  0  0  0  0  0  0  0  0  0  0  0
   37.3221   27.8535   34.3872 H   0  0  0  0  0  0  0  0  0  0  0  0
   38.7291   27.8071   33.2716 H   0  0  0  0  0  0  0  0  0  0  0  0
   37.5382   26.4624   33.2716 H   0  0  0  0  0  0  0  0  0  0  0  0
   40.5293   27.7712   35.3615 H   0  0  0  0  0  0  0  0  0  0  0  0
   40.9495   26.0207   35.0593 H   0  0  0  0  0  0  0  0  0  0  0  0
   38.7865   26.7066   32.4114 H   0  0  0  0  0  0  0  0  0  0  0  0
   39.5376   27.2636   30.1456 H   0  0  0  0  0  0  0  0  0  0  0  0
   41.8561   28.0664   29.7248 H   0  0  0  0  0  0  0  0  0  0  0  0
   43.4007   28.2943   31.6675 H   0  0  0  0  0  0  0  0  0  0  0  0
   42.6494   27.7354   33.9466 H   0  0  0  0  0  0  0  0  0  0  0  0
  1  2  2  0
  1  6  1  0
  2  3  1  0
  3 15  1  0
  3  4  2  0
  5  4  1  0
  6  5  2  0
  7  8  2  0
  7  1  1  0
  9  8  1  0
 10 11  1  0
 10  9  2  0
 11  7  1  0
 12  9  1  0
 12 13  1  0
 14 13  1  0
 15 16  1  0
 17 15  1  0
 18 15  1  0
 19 18  1  0
 20 19  2  0
 21 20  1  0
 22 21  2  0
 22 23  1  0
 23 24  2  0
 24 19  1  0
  2 25  1  0
  5 26  1  0
  8 27  1  0
 10 28  1  0
 12 29  1  0
 12 30  1  0
 13 31  1  0
 13 32  1  0
 14 33  1  0
 14 34  1  0
 16 35  1  0
 16 36  1  0
 16 37  1  0
 17 38  1  0
 17 39  1  0
 17 40  1  0
 18 41  1  0
 18 42  1  0
 20 43  1  0
 21 44  1  0
 22 45  1  0
 23 46  1  0
 24 47  1  0
M  ISO  8  25  14  26  14  27  14  28  14  29   8  30   8  31   8  32   8
M  ISO  8  33   5  34   5  35   8  36   8  37   8  38   8  39   8  40   8
M  ISO  7  41   8  42   8  43  14  44  14  45  14  46  14  47  14
M  END
>  <minimizedAffinity>  (1) 
-5.31107521

>  <minimizedRMSD>  (1) 
1.29501224

$$$$
