
     RDKit          3D

 44 46  0  0  0  0  0  0  0  0999 V2000
   37.7680   23.0730   33.9090 C   0  0  0  0  0  0  0  0  0  0  0  0
   38.0940   24.4110   33.8620 C   0  0  0  0  0  0  0  0  0  0  0  0
   38.8670   25.0090   34.8230 C   0  0  0  0  0  0  0  0  0  0  0  0
   39.3040   24.2120   35.8400 N   0  0  0  0  0  0  0  0  0  0  0  0
   38.9870   22.8980   35.8930 C   0  0  0  0  0  0  0  0  0  0  0  0
   38.2290   22.3160   34.9490 N   0  0  0  0  0  0  0  0  0  0  0  0
   36.9550   22.3740   32.9300 C   0  0  0  0  0  0  0  0  0  0  0  0
   36.2820   21.1920   33.2740 C   0  0  0  0  0  0  0  0  0  0  0  0
   35.5990   20.7480   32.1700 C   0  0  0  0  0  0  0  0  0  0  0  0
   35.8890   21.6770   31.2100 C   0  0  0  0  0  0  0  0  0  0  0  0
   36.6980   22.6280   31.7030 O   0  0  0  0  0  0  0  0  0  0  0  0
   34.7490   19.5740   31.9930 C   0  0  0  0  0  0  0  0  0  0  0  0
   35.2990   18.3160   32.6960 C   0  0  0  0  0  0  0  0  0  0  0  0
   34.7380   17.1360   32.1250 N   0  0  0  0  0  0  0  0  0  0  0  0
   39.2330   26.4200   34.8060 C   0  0  0  0  0  0  0  0  0  0  0  0
   38.5970   27.2100   35.9200 C   0  0  0  0  0  0  0  0  0  0  0  0
   38.8020   27.0550   33.4720 C   0  0  0  0  0  0  0  0  0  0  0  0
   40.7290   26.5300   34.8550 C   0  0  0  0  0  0  0  0  0  0  0  0
   41.3440   26.6240   33.5250 C   0  0  0  0  0  0  0  0  0  0  0  0
   41.8270   27.7030   32.7490 C   0  0  0  0  0  0  0  0  0  0  0  0
   42.3450   27.3960   31.5380 C   0  0  0  0  0  0  0  0  0  0  0  0
   42.3850   26.0760   31.1110 C   0  0  0  0  0  0  0  0  0  0  0  0
   41.6500   25.0860   32.4600 S   0  0  0  0  0  0  0  0  0  0  0  0
   37.7213   25.0197   33.0250 H   0  0  0  0  0  0  0  0  0  0  0  0
   39.3596   22.2904   36.7308 H   0  0  0  0  0  0  0  0  0  0  0  0
   36.2990   20.7047   34.2600 H   0  0  0  0  0  0  0  0  0  0  0  0
   35.5118   21.6491   30.1771 H   0  0  0  0  0  0  0  0  0  0  0  0
   33.7535   19.7976   32.4042 H   0  0  0  0  0  0  0  0  0  0  0  0
   34.7108   19.3567   30.9153 H   0  0  0  0  0  0  0  0  0  0  0  0
   36.3928   18.2876   32.5826 H   0  0  0  0  0  0  0  0  0  0  0  0
   35.0277   18.3579   33.7612 H   0  0  0  0  0  0  0  0  0  0  0  0
   34.4359   16.5007   32.8773 H   0  0  0  0  0  0  0  0  0  0  0  0
   33.9269   17.3886   31.5426 H   0  0  0  0  0  0  0  0  0  0  0  0
   38.9231   26.8049   36.8893 H   0  0  0  0  0  0  0  0  0  0  0  0
   38.9014   28.2642   35.8420 H   0  0  0  0  0  0  0  0  0  0  0  0
   37.5021   27.1377   35.8420 H   0  0  0  0  0  0  0  0  0  0  0  0
   38.1945   27.9501   33.6713 H   0  0  0  0  0  0  0  0  0  0  0  0
   39.6949   27.3388   32.8956 H   0  0  0  0  0  0  0  0  0  0  0  0
   38.2086   26.3300   32.8956 H   0  0  0  0  0  0  0  0  0  0  0  0
   40.9951   27.4304   35.4281 H   0  0  0  0  0  0  0  0  0  0  0  0
   41.1098   25.6128   35.3281 H   0  0  0  0  0  0  0  0  0  0  0  0
   41.7836   28.7404   33.1122 H   0  0  0  0  0  0  0  0  0  0  0  0
   42.7356   28.1944   30.8899 H   0  0  0  0  0  0  0  0  0  0  0  0
   42.7791   25.7017   30.1547 H   0  0  0  0  0  0  0  0  0  0  0  0
  1  6  1  0
  2  1  2  0
  2  3  1  0
  3  4  2  0
  4  5  1  0
  6  5  2  0
  7  8  2  0
  7  1  1  0
  9  8  1  0
 10 11  1  0
 10  9  2  0
 11  7  1  0
 12  9  1  0
 12 13  1  0
 14 13  1  0
 15  3  1  0
 15 18  1  0
 15 16  1  0
 17 15  1  0
 19 18  1  0
 20 19  2  0
 21 20  1  0
 22 21  2  0
 22 23  1  0
 23 19  1  0
  2 24  1  0
  5 25  1  0
  8 26  1  0
 10 27  1  0
 12 28  1  0
 12 29  1  0
 13 30  1  0
 13 31  1  0
 14 32  1  0
 14 33  1  0
 16 34  1  0
 16 35  1  0
 16 36  1  0
 17 37  1  0
 17 38  1  0
 17 39  1  0
 18 40  1  0
 18 41  1  0
 20 42  1  0
 21 43  1  0
 22 44  1  0
M  ISO  8  24  14  25  14  26  14  27  14  28   8  29   8  30   8  31   8
M  ISO  8  32   5  33   5  34   8  35   8  36   8  37   8  38   8  39   8
M  ISO  5  40   8  41   8  42  14  43  14  44  14
M  END
>  <minimizedAffinity>  (1) 
-5.13939333

>  <minimizedRMSD>  (1) 
0.847513378

$$$$
