
     RDKit          3D

 50 53  0  0  0  0  0  0  0  0999 V2000
   37.7720   23.0610   33.9230 C   0  0  0  0  0  0  0  0  0  0  0  0
   38.1100   24.3880   33.9020 C   0  0  0  0  0  0  0  0  0  0  0  0
   38.8660   24.9980   34.8460 C   0  0  0  0  0  0  0  0  0  0  0  0
   39.2940   24.1950   35.8650 N   0  0  0  0  0  0  0  0  0  0  0  0
   38.9760   22.8730   35.9160 C   0  0  0  0  0  0  0  0  0  0  0  0
   38.2220   22.2950   34.9610 N   0  0  0  0  0  0  0  0  0  0  0  0
   36.9630   22.3700   32.9300 C   0  0  0  0  0  0  0  0  0  0  0  0
   36.2810   21.1920   33.2710 C   0  0  0  0  0  0  0  0  0  0  0  0
   35.5980   20.7450   32.1610 C   0  0  0  0  0  0  0  0  0  0  0  0
   35.9040   21.6790   31.1990 C   0  0  0  0  0  0  0  0  0  0  0  0
   36.7130   22.6190   31.7040 O   0  0  0  0  0  0  0  0  0  0  0  0
   34.7440   19.5700   31.9960 C   0  0  0  0  0  0  0  0  0  0  0  0
   35.2980   18.3150   32.6900 C   0  0  0  0  0  0  0  0  0  0  0  0
   34.7410   17.1290   32.1300 N   0  0  0  0  0  0  0  0  0  0  0  0
   39.2200   26.4040   34.8170 C   0  0  0  0  0  0  0  0  0  0  0  0
   38.5830   27.1820   35.9480 C   0  0  0  0  0  0  0  0  0  0  0  0
   38.8150   27.0430   33.5010 C   0  0  0  0  0  0  0  0  0  0  0  0
   40.7320   26.5130   34.9230 C   0  0  0  0  0  0  0  0  0  0  0  0
   41.3740   26.4770   33.6470 N   0  0  0  0  0  0  0  0  0  0  0  0
   41.7220   27.5890   32.9740 C   0  0  0  0  0  0  0  0  0  0  0  0
   42.3100   27.2730   31.8020 N   0  0  0  0  0  0  0  0  0  0  0  0
   42.3500   25.9120   31.7070 C   0  0  0  0  0  0  0  0  0  0  0  0
   42.8200   25.0160   30.7620 C   0  0  0  0  0  0  0  0  0  0  0  0
   42.7070   23.6760   30.9690 N   0  0  0  0  0  0  0  0  0  0  0  0
   42.1220   23.2600   32.1210 C   0  0  0  0  0  0  0  0  0  0  0  0
   41.6470   24.1130   33.0760 N   0  0  0  0  0  0  0  0  0  0  0  0
   41.7570   25.4440   32.8750 C   0  0  0  0  0  0  0  0  0  0  0  0
   43.4030   25.6330   29.6160 N   0  0  0  0  0  0  0  0  0  0  0  0
   37.7435   24.9985   33.0636 H   0  0  0  0  0  0  0  0  0  0  0  0
   39.3424   22.2632   36.7550 H   0  0  0  0  0  0  0  0  0  0  0  0
   36.2901   20.7071   34.2583 H   0  0  0  0  0  0  0  0  0  0  0  0
   35.5365   21.6570   30.1624 H   0  0  0  0  0  0  0  0  0  0  0  0
   33.7541   19.7953   32.4195 H   0  0  0  0  0  0  0  0  0  0  0  0
   34.6934   19.3519   30.9190 H   0  0  0  0  0  0  0  0  0  0  0  0
   36.3910   18.2904   32.5682 H   0  0  0  0  0  0  0  0  0  0  0  0
   35.0277   18.3578   33.7554 H   0  0  0  0  0  0  0  0  0  0  0  0
   34.4446   16.4978   32.8880 H   0  0  0  0  0  0  0  0  0  0  0  0
   33.9267   17.3735   31.5486 H   0  0  0  0  0  0  0  0  0  0  0  0
   38.9197   26.7708   36.9111 H   0  0  0  0  0  0  0  0  0  0  0  0
   38.8781   28.2393   35.8775 H   0  0  0  0  0  0  0  0  0  0  0  0
   37.4882   27.1014   35.8775 H   0  0  0  0  0  0  0  0  0  0  0  0
   38.2358   27.9568   33.7000 H   0  0  0  0  0  0  0  0  0  0  0  0
   39.7164   27.2984   32.9247 H   0  0  0  0  0  0  0  0  0  0  0  0
   38.1992   26.3368   32.9247 H   0  0  0  0  0  0  0  0  0  0  0  0
   40.9834   27.4628   35.4177 H   0  0  0  0  0  0  0  0  0  0  0  0
   41.0897   25.6485   35.5016 H   0  0  0  0  0  0  0  0  0  0  0  0
   41.5504   28.6153   33.3308 H   0  0  0  0  0  0  0  0  0  0  0  0
   42.0253   22.1781   32.2947 H   0  0  0  0  0  0  0  0  0  0  0  0
   43.4435   26.6600   29.5486 H   0  0  0  0  0  0  0  0  0  0  0  0
   43.7836   25.0516   28.8557 H   0  0  0  0  0  0  0  0  0  0  0  0
  1  6  1  0
  2  1  2  0
  2  3  1  0
  3  4  2  0
  4  5  1  0
  6  5  2  0
  7  8  2  0
  7  1  1  0
  9  8  1  0
 10 11  1  0
 10  9  2  0
 11  7  1  0
 12  9  1  0
 12 13  1  0
 14 13  1  0
 15  3  1  0
 15 18  1  0
 15 16  1  0
 17 15  1  0
 19 18  1  0
 20 19  1  0
 21 20  2  0
 22 21  1  0
 22 27  2  0
 23 24  2  0
 23 22  1  0
 24 25  1  0
 25 26  2  0
 27 26  1  0
 27 19  1  0
 28 23  1  0
  2 29  1  0
  5 30  1  0
  8 31  1  0
 10 32  1  0
 12 33  1  0
 12 34  1  0
 13 35  1  0
 13 36  1  0
 14 37  1  0
 14 38  1  0
 16 39  1  0
 16 40  1  0
 16 41  1  0
 17 42  1  0
 17 43  1  0
 17 44  1  0
 18 45  1  0
 18 46  1  0
 20 47  1  0
 25 48  1  0
 28 49  1  0
 28 50  1  0
M  ISO  8  29  14  30  14  31  14  32  14  33   8  34   8  35   8  36   8
M  ISO  8  37   5  38   5  39   8  40   8  41   8  42   8  43   8  44   8
M  ISO  4  45   8  46   8  47  14  48  14
M  END
>  <minimizedAffinity>  (1) 
-5.14506245

>  <minimizedRMSD>  (1) 
1.19658792

$$$$
