
     RDKit          3D

 44 45  0  0  0  0  0  0  0  0999 V2000
   37.7440   23.1080   33.7300 C   0  0  0  0  0  0  0  0  0  0  0  0
   37.8550   24.4790   33.6910 C   0  0  0  0  0  0  0  0  0  0  0  0
   38.5580   25.1930   34.6280 C   0  0  0  0  0  0  0  0  0  0  0  0
   39.1470   24.4750   35.6090 N   0  0  0  0  0  0  0  0  0  0  0  0
   39.0550   23.1290   35.6720 C   0  0  0  0  0  0  0  0  0  0  0  0
   38.3630   22.4330   34.7500 N   0  0  0  0  0  0  0  0  0  0  0  0
   37.0300   22.2680   32.7960 C   0  0  0  0  0  0  0  0  0  0  0  0
   36.2190   21.2170   33.2220 C   0  0  0  0  0  0  0  0  0  0  0  0
   35.6790   20.6080   32.0950 C   0  0  0  0  0  0  0  0  0  0  0  0
   36.1920   21.3230   31.0530 C   0  0  0  0  0  0  0  0  0  0  0  0
   36.9860   22.2980   31.5110 O   0  0  0  0  0  0  0  0  0  0  0  0
   34.7680   19.4630   32.0090 C   0  0  0  0  0  0  0  0  0  0  0  0
   35.2910   18.2080   32.7100 C   0  0  0  0  0  0  0  0  0  0  0  0
   36.4930   17.7420   32.0710 N   0  0  0  0  0  0  0  0  0  0  0  0
   38.6720   26.6390   34.5810 C   0  0  0  0  0  0  0  0  0  0  0  0
   38.5980   27.2700   35.9640 C   0  0  0  0  0  0  0  0  0  0  0  0
   37.5680   27.2520   33.7350 C   0  0  0  0  0  0  0  0  0  0  0  0
   39.9750   27.0080   33.9260 C   0  0  0  0  0  0  0  0  0  0  0  0
   41.1340   26.7930   34.7560 N   0  0  0  0  0  0  0  0  0  0  0  0
   42.3810   27.0850   34.0950 C   0  0  0  0  0  0  0  0  0  0  0  0
   42.5470   27.8610   33.0780 N   0  0  0  0  0  0  0  0  0  0  0  0
   43.6150   26.4940   34.5480 N   0  0  0  0  0  0  0  0  0  0  0  0
   41.7610   28.3590   32.6360 H   0  0  0  0  0  0  0  0  0  0  0  0
   37.3595   25.0251   32.8747 H   0  0  0  0  0  0  0  0  0  0  0  0
   39.5545   22.5914   36.4915 H   0  0  0  0  0  0  0  0  0  0  0  0
   36.0382   20.9216   34.2661 H   0  0  0  0  0  0  0  0  0  0  0  0
   35.9835   21.1268   29.9909 H   0  0  0  0  0  0  0  0  0  0  0  0
   33.8105   19.7454   32.4709 H   0  0  0  0  0  0  0  0  0  0  0  0
   34.6622   19.2154   30.9425 H   0  0  0  0  0  0  0  0  0  0  0  0
   35.5078   18.4441   33.7623 H   0  0  0  0  0  0  0  0  0  0  0  0
   34.5258   17.4200   32.6499 H   0  0  0  0  0  0  0  0  0  0  0  0
   37.1819   17.4749   32.7886 H   0  0  0  0  0  0  0  0  0  0  0  0
   36.2748   16.9246   31.4835 H   0  0  0  0  0  0  0  0  0  0  0  0
   38.6899   26.4860   36.7301 H   0  0  0  0  0  0  0  0  0  0  0  0
   39.4173   27.9946   36.0807 H   0  0  0  0  0  0  0  0  0  0  0  0
   37.6333   27.7854   36.0807 H   0  0  0  0  0  0  0  0  0  0  0  0
   36.7970   27.6801   34.3925 H   0  0  0  0  0  0  0  0  0  0  0  0
   37.9900   28.0450   33.1001 H   0  0  0  0  0  0  0  0  0  0  0  0
   37.1180   26.4745   33.1001 H   0  0  0  0  0  0  0  0  0  0  0  0
   40.0864   26.4031   33.0141 H   0  0  0  0  0  0  0  0  0  0  0  0
   39.9303   28.0872   33.7179 H   0  0  0  0  0  0  0  0  0  0  0  0
   41.0763   26.4619   35.7296 H   0  0  0  0  0  0  0  0  0  0  0  0
   44.4983   26.7124   34.0653 H   0  0  0  0  0  0  0  0  0  0  0  0
   43.6136   25.8533   35.3545 H   0  0  0  0  0  0  0  0  0  0  0  0
  1  6  1  0
  2  1  2  0
  2  3  1  0
  3  4  2  0
  4  5  1  0
  6  5  2  0
  7  8  2  0
  7  1  1  0
  9  8  1  0
 10 11  1  0
 10  9  2  0
 11  7  1  0
 12  9  1  0
 12 13  1  0
 14 13  1  0
 15  3  1  0
 15 16  1  0
 17 15  1  0
 18 15  1  0
 18 19  1  0
 20 22  1  0
 20 19  1  0
 21 20  2  0
 23 21  1  0
  2 24  1  0
  5 25  1  0
  8 26  1  0
 10 27  1  0
 12 28  1  0
 12 29  1  0
 13 30  1  0
 13 31  1  0
 14 32  1  0
 14 33  1  0
 16 34  1  0
 16 35  1  0
 16 36  1  0
 17 37  1  0
 17 38  1  0
 17 39  1  0
 18 40  1  0
 18 41  1  0
 19 42  1  0
 22 43  1  0
 22 44  1  0
M  ISO  8  24  14  25  14  26  14  27  14  28   8  29   8  30   8  31   8
M  ISO  8  32   5  33   5  34   8  35   8  36   8  37   8  38   8  39   8
M  ISO  2  40   8  41   8
M  END
>  <minimizedAffinity>  (1) 
-5.02168655

>  <minimizedRMSD>  (1) 
1.01064265

$$$$
