
     RDKit          3D

 50 52  0  0  0  0  0  0  0  0999 V2000
   37.8110   23.0460   33.9170 C   0  0  0  0  0  0  0  0  0  0  0  0
   38.1940   24.3760   33.8510 C   0  0  0  0  0  0  0  0  0  0  0  0
   38.9580   24.9610   34.8020 C   0  0  0  0  0  0  0  0  0  0  0  0
   39.3450   24.1660   35.8520 N   0  0  0  0  0  0  0  0  0  0  0  0
   38.9790   22.8680   35.9300 C   0  0  0  0  0  0  0  0  0  0  0  0
   38.2190   22.2980   34.9770 N   0  0  0  0  0  0  0  0  0  0  0  0
   36.9920   22.3640   32.9280 C   0  0  0  0  0  0  0  0  0  0  0  0
   36.2220   21.2510   33.2990 C   0  0  0  0  0  0  0  0  0  0  0  0
   35.5470   20.7960   32.1900 C   0  0  0  0  0  0  0  0  0  0  0  0
   35.9460   21.6660   31.1910 C   0  0  0  0  0  0  0  0  0  0  0  0
   36.8010   22.5750   31.6830 O   0  0  0  0  0  0  0  0  0  0  0  0
   34.6230   19.6780   32.0340 C   0  0  0  0  0  0  0  0  0  0  0  0
   35.2050   18.3390   32.4710 C   0  0  0  0  0  0  0  0  0  0  0  0
   35.7520   17.6200   31.3530 N   0  0  0  0  0  0  0  0  0  0  0  0
   39.3820   26.3550   34.7620 C   0  0  0  0  0  0  0  0  0  0  0  0
   38.7160   27.1910   35.8550 C   0  0  0  0  0  0  0  0  0  0  0  0
   38.9900   26.9790   33.4220 C   0  0  0  0  0  0  0  0  0  0  0  0
   40.8680   26.4290   34.9000 C   0  0  0  0  0  0  0  0  0  0  0  0
   41.5990   26.4920   33.6650 N   0  0  0  0  0  0  0  0  0  0  0  0
   41.8670   27.6160   32.9810 C   0  0  0  0  0  0  0  0  0  0  0  0
   42.5650   27.7130   31.8050 C   0  0  0  0  0  0  0  0  0  0  0  0
   42.8170   28.9960   31.1150 C   0  0  0  0  0  0  0  0  0  0  0  0
   43.0540   26.5440   31.2460 C   0  0  0  0  0  0  0  0  0  0  0  0
   43.6990   26.5940   30.1680 O   0  0  0  0  0  0  0  0  0  0  0  0
   42.8060   25.4080   31.8980 N   0  0  0  0  0  0  0  0  0  0  0  0
   42.1120   25.3950   33.0490 C   0  0  0  0  0  0  0  0  0  0  0  0
   41.9630   24.2470   33.5360 O   0  0  0  0  0  0  0  0  0  0  0  0
   37.8642   24.9794   32.9924 H   0  0  0  0  0  0  0  0  0  0  0  0
   39.3086   22.2654   36.7892 H   0  0  0  0  0  0  0  0  0  0  0  0
   36.1673   20.8154   34.3076 H   0  0  0  0  0  0  0  0  0  0  0  0
   35.6106   21.6191   30.1444 H   0  0  0  0  0  0  0  0  0  0  0  0
   33.7264   19.8811   32.6381 H   0  0  0  0  0  0  0  0  0  0  0  0
   34.3951   19.5956   30.9610 H   0  0  0  0  0  0  0  0  0  0  0  0
   36.0023   18.5176   33.2075 H   0  0  0  0  0  0  0  0  0  0  0  0
   34.3977   17.7356   32.9118 H   0  0  0  0  0  0  0  0  0  0  0  0
   36.3400   16.8471   31.6963 H   0  0  0  0  0  0  0  0  0  0  0  0
   34.9847   17.2396   30.7808 H   0  0  0  0  0  0  0  0  0  0  0  0
   39.0183   26.8116   36.8422 H   0  0  0  0  0  0  0  0  0  0  0  0
   39.0277   28.2411   35.7546 H   0  0  0  0  0  0  0  0  0  0  0  0
   37.6228   27.1219   35.7546 H   0  0  0  0  0  0  0  0  0  0  0  0
   38.4126   27.8981   33.6005 H   0  0  0  0  0  0  0  0  0  0  0  0
   39.8982   27.2216   32.8508 H   0  0  0  0  0  0  0  0  0  0  0  0
   38.3772   26.2661   32.8508 H   0  0  0  0  0  0  0  0  0  0  0  0
   41.1102   27.3291   35.4840 H   0  0  0  0  0  0  0  0  0  0  0  0
   41.1744   25.4910   35.3861 H   0  0  0  0  0  0  0  0  0  0  0  0
   41.4874   28.5558   33.4083 H   0  0  0  0  0  0  0  0  0  0  0  0
   42.9728   29.7892   31.8611 H   0  0  0  0  0  0  0  0  0  0  0  0
   43.7142   28.9036   30.4853 H   0  0  0  0  0  0  0  0  0  0  0  0
   41.9515   29.2498   30.4853 H   0  0  0  0  0  0  0  0  0  0  0  0
   43.1544   24.5194   31.5107 H   0  0  0  0  0  0  0  0  0  0  0  0
  1  6  1  0
  2  1  2  0
  2  3  1  0
  3  4  2  0
  4  5  1  0
  6  5  2  0
  7  8  2  0
  7  1  1  0
  9  8  1  0
 10 11  1  0
 10  9  2  0
 11  7  1  0
 12  9  1  0
 12 13  1  0
 14 13  1  0
 15  3  1  0
 15 18  1  0
 15 16  1  0
 17 15  1  0
 19 18  1  0
 20 19  1  0
 21 20  2  0
 22 21  1  0
 23 21  1  0
 23 25  1  0
 24 23  2  0
 25 26  1  0
 26 27  2  0
 26 19  1  0
  2 28  1  0
  5 29  1  0
  8 30  1  0
 10 31  1  0
 12 32  1  0
 12 33  1  0
 13 34  1  0
 13 35  1  0
 14 36  1  0
 14 37  1  0
 16 38  1  0
 16 39  1  0
 16 40  1  0
 17 41  1  0
 17 42  1  0
 17 43  1  0
 18 44  1  0
 18 45  1  0
 20 46  1  0
 22 47  1  0
 22 48  1  0
 22 49  1  0
 25 50  1  0
M  ISO  8  28  14  29  14  30  14  31  14  32   8  33   8  34   8  35   8
M  ISO  8  36   5  37   5  38   8  39   8  40   8  41   8  42   8  43   8
M  ISO  7  44   8  45   8  46  14  47   8  48   8  49   8  50   9
M  END
>  <minimizedAffinity>  (1) 
-5.15691185

>  <minimizedRMSD>  (1) 
1.18845272

$$$$
