
     RDKit          3D

 44 46  0  0  0  0  0  0  0  0999 V2000
   37.8130   23.1270   33.8620 C   0  0  0  0  0  0  0  0  0  0  0  0
   38.1320   24.4570   33.8460 C   0  0  0  0  0  0  0  0  0  0  0  0
   38.9240   25.0480   34.7740 C   0  0  0  0  0  0  0  0  0  0  0  0
   39.4150   24.2430   35.7670 N   0  0  0  0  0  0  0  0  0  0  0  0
   39.1110   22.9180   35.8030 C   0  0  0  0  0  0  0  0  0  0  0  0
   38.3170   22.3460   34.8660 N   0  0  0  0  0  0  0  0  0  0  0  0
   36.9810   22.4230   32.9160 C   0  0  0  0  0  0  0  0  0  0  0  0
   36.3070   21.2490   33.2520 C   0  0  0  0  0  0  0  0  0  0  0  0
   35.6000   20.8070   32.1620 C   0  0  0  0  0  0  0  0  0  0  0  0
   35.8800   21.7510   31.1900 C   0  0  0  0  0  0  0  0  0  0  0  0
   36.7010   22.6840   31.6880 O   0  0  0  0  0  0  0  0  0  0  0  0
   34.7430   19.6300   32.0140 C   0  0  0  0  0  0  0  0  0  0  0  0
   35.3060   18.3800   32.6890 C   0  0  0  0  0  0  0  0  0  0  0  0
   34.7410   17.1810   32.1540 N   0  0  0  0  0  0  0  0  0  0  0  0
   39.2670   26.4620   34.7640 C   0  0  0  0  0  0  0  0  0  0  0  0
   38.6330   27.2320   35.9020 C   0  0  0  0  0  0  0  0  0  0  0  0
   38.8470   27.1130   33.4450 C   0  0  0  0  0  0  0  0  0  0  0  0
   40.7760   26.5930   34.8360 C   0  0  0  0  0  0  0  0  0  0  0  0
   41.3420   26.5800   33.4650 C   0  0  0  0  0  0  0  0  0  0  0  0
   41.5820   25.4730   32.6500 C   0  0  0  0  0  0  0  0  0  0  0  0
   42.1140   25.9100   31.4610 C   0  0  0  0  0  0  0  0  0  0  0  0
   42.1790   27.2420   31.5900 N   0  0  0  0  0  0  0  0  0  0  0  0
   41.7280   27.6670   32.7670 N   0  0  0  0  0  0  0  0  0  0  0  0
   37.7240   25.0804   33.0368 H   0  0  0  0  0  0  0  0  0  0  0  0
   39.5197   22.2955   36.6126 H   0  0  0  0  0  0  0  0  0  0  0  0
   36.3373   20.7557   34.2347 H   0  0  0  0  0  0  0  0  0  0  0  0
   35.4872   21.7371   30.1626 H   0  0  0  0  0  0  0  0  0  0  0  0
   33.7624   19.8547   32.4588 H   0  0  0  0  0  0  0  0  0  0  0  0
   34.6719   19.4136   30.9378 H   0  0  0  0  0  0  0  0  0  0  0  0
   36.3956   18.3563   32.5399 H   0  0  0  0  0  0  0  0  0  0  0  0
   35.0512   18.4276   33.7580 H   0  0  0  0  0  0  0  0  0  0  0  0
   34.4503   16.5642   32.9260 H   0  0  0  0  0  0  0  0  0  0  0  0
   33.9220   17.4159   31.5752 H   0  0  0  0  0  0  0  0  0  0  0  0
   38.9751   26.8165   36.8613 H   0  0  0  0  0  0  0  0  0  0  0  0
   38.9249   28.2905   35.8360 H   0  0  0  0  0  0  0  0  0  0  0  0
   37.5381   27.1487   35.8360 H   0  0  0  0  0  0  0  0  0  0  0  0
   38.2615   28.0205   33.6541 H   0  0  0  0  0  0  0  0  0  0  0  0
   39.7434   27.3802   32.8662 H   0  0  0  0  0  0  0  0  0  0  0  0
   38.2340   26.4064   32.8662 H   0  0  0  0  0  0  0  0  0  0  0  0
   41.0382   27.5395   35.3314 H   0  0  0  0  0  0  0  0  0  0  0  0
   41.1891   25.7505   35.4100 H   0  0  0  0  0  0  0  0  0  0  0  0
   41.3790   24.4249   32.9153 H   0  0  0  0  0  0  0  0  0  0  0  0
   42.4185   25.3021   30.5963 H   0  0  0  0  0  0  0  0  0  0  0  0
   42.5394   27.8693   30.8568 H   0  0  0  0  0  0  0  0  0  0  0  0
  1  6  1  0
  2  1  2  0
  2  3  1  0
  3  4  2  0
  4  5  1  0
  6  5  2  0
  7  8  2  0
  7  1  1  0
  9  8  1  0
 10 11  1  0
 10  9  2  0
 11  7  1  0
 12  9  1  0
 12 13  1  0
 14 13  1  0
 15  3  1  0
 15 18  1  0
 15 16  1  0
 17 15  1  0
 19 18  1  0
 20 19  1  0
 21 22  1  0
 21 20  2  0
 22 23  1  0
 23 19  2  0
  2 24  1  0
  5 25  1  0
  8 26  1  0
 10 27  1  0
 12 28  1  0
 12 29  1  0
 13 30  1  0
 13 31  1  0
 14 32  1  0
 14 33  1  0
 16 34  1  0
 16 35  1  0
 16 36  1  0
 17 37  1  0
 17 38  1  0
 17 39  1  0
 18 40  1  0
 18 41  1  0
 20 42  1  0
 21 43  1  0
 22 44  1  0
M  ISO  8  24  14  25  14  26  14  27  14  28   8  29   8  30   8  31   8
M  ISO  8  32   5  33   5  34   8  35   8  36   8  37   8  38   8  39   8
M  ISO  5  40   8  41   8  42  14  43  14  44   9
M  END
>  <minimizedAffinity>  (1) 
-5.01640797

>  <minimizedRMSD>  (1) 
0.821116745

$$$$
