
     RDKit          3D

 42 44  0  0  0  0  0  0  0  0999 V2000
   37.1710   23.4380   32.7440 C   0  0  0  0  0  0  0  0  0  0  0  0
   36.8670   24.7110   32.3310 C   0  0  0  0  0  0  0  0  0  0  0  0
   37.2930   25.8340   32.9810 C   0  0  0  0  0  0  0  0  0  0  0  0
   38.0480   25.6150   34.0810 N   0  0  0  0  0  0  0  0  0  0  0  0
   38.3650   24.3800   34.5160 C   0  0  0  0  0  0  0  0  0  0  0  0
   37.9340   23.2790   33.8590 N   0  0  0  0  0  0  0  0  0  0  0  0
   36.7440   22.2080   32.0910 C   0  0  0  0  0  0  0  0  0  0  0  0
   35.7850   21.3760   32.6910 C   0  0  0  0  0  0  0  0  0  0  0  0
   35.5730   20.2940   31.8620 C   0  0  0  0  0  0  0  0  0  0  0  0
   36.4150   20.5240   30.8000 C   0  0  0  0  0  0  0  0  0  0  0  0
   37.0890   21.6690   30.9790 O   0  0  0  0  0  0  0  0  0  0  0  0
   34.6820   19.1450   32.0170 C   0  0  0  0  0  0  0  0  0  0  0  0
   35.4030   17.8960   32.5400 C   0  0  0  0  0  0  0  0  0  0  0  0
   34.8550   16.6990   32.0170 N   0  0  0  0  0  0  0  0  0  0  0  0
   36.9820   27.1860   32.5550 C   0  0  0  0  0  0  0  0  0  0  0  0
   36.5670   28.0810   33.6930 C   0  0  0  0  0  0  0  0  0  0  0  0
   35.8300   27.1650   31.5360 C   0  0  0  0  0  0  0  0  0  0  0  0
   38.1680   27.7530   31.8310 C   0  0  0  0  0  0  0  0  0  0  0  0
   37.8090   28.5910   30.6730 C   0  0  0  0  0  0  0  0  0  0  0  0
   37.1600   29.7610   30.4880 N   0  0  0  0  0  0  0  0  0  0  0  0
   37.1220   30.0600   29.2210 O   0  0  0  0  0  0  0  0  0  0  0  0
   37.7230   29.1340   28.5210 C   0  0  0  0  0  0  0  0  0  0  0  0
   38.1530   28.2220   29.4080 N   0  0  0  0  0  0  0  0  0  0  0  0
   36.2482   24.8331   31.4298 H   0  0  0  0  0  0  0  0  0  0  0  0
   38.9833   24.2653   35.4185 H   0  0  0  0  0  0  0  0  0  0  0  0
   35.2884   21.5560   33.6559 H   0  0  0  0  0  0  0  0  0  0  0  0
   36.5207   19.8626   29.9274 H   0  0  0  0  0  0  0  0  0  0  0  0
   33.8846   19.4125   32.7259 H   0  0  0  0  0  0  0  0  0  0  0  0
   34.2810   18.9020   31.0219 H   0  0  0  0  0  0  0  0  0  0  0  0
   36.4635   17.9540   32.2536 H   0  0  0  0  0  0  0  0  0  0  0  0
   35.2822   17.8713   33.6331 H   0  0  0  0  0  0  0  0  0  0  0  0
   34.5729   16.0829   32.7927 H   0  0  0  0  0  0  0  0  0  0  0  0
   34.0321   16.9219   31.4390 H   0  0  0  0  0  0  0  0  0  0  0  0
   36.7956   27.5880   34.6494 H   0  0  0  0  0  0  0  0  0  0  0  0
   37.1160   29.0322   33.6304 H   0  0  0  0  0  0  0  0  0  0  0  0
   35.4863   28.2765   33.6304 H   0  0  0  0  0  0  0  0  0  0  0  0
   34.8684   27.1475   32.0700 H   0  0  0  0  0  0  0  0  0  0  0  0
   35.8825   28.0643   30.9047 H   0  0  0  0  0  0  0  0  0  0  0  0
   35.9152   26.2683   30.9047 H   0  0  0  0  0  0  0  0  0  0  0  0
   38.7460   28.3664   32.5379 H   0  0  0  0  0  0  0  0  0  0  0  0
   38.7468   26.9011   31.4447 H   0  0  0  0  0  0  0  0  0  0  0  0
   37.8505   29.1073   27.4287 H   0  0  0  0  0  0  0  0  0  0  0  0
  1  6  1  0
  2  1  2  0
  2  3  1  0
  3  4  2  0
  4  5  1  0
  6  5  2  0
  7  8  2  0
  7  1  1  0
  9 12  1  0
  9  8  1  0
 10 11  1  0
 10  9  2  0
 11  7  1  0
 12 13  1  0
 14 13  1  0
 15  3  1  0
 15 16  1  0
 17 15  1  0
 18 15  1  0
 19 18  1  0
 20 19  2  0
 21 20  1  0
 22 21  1  0
 22 23  2  0
 23 19  1  0
  2 24  1  0
  5 25  1  0
  8 26  1  0
 10 27  1  0
 12 28  1  0
 12 29  1  0
 13 30  1  0
 13 31  1  0
 14 32  1  0
 14 33  1  0
 16 34  1  0
 16 35  1  0
 16 36  1  0
 17 37  1  0
 17 38  1  0
 17 39  1  0
 18 40  1  0
 18 41  1  0
 22 42  1  0
M  ISO  8  24  14  25  14  26  14  27  14  28   8  29   8  30   8  31   8
M  ISO  8  32   5  33   5  34   8  35   8  36   8  37   8  38   8  39   8
M  ISO  3  40   8  41   8  42  14
M  END
>  <minimizedAffinity>  (1) 
-4.94121885

>  <minimizedRMSD>  (1) 
4.76052761

$$$$
