
     RDKit          3D

 52 54  0  0  0  0  0  0  0  0999 V2000
   37.7360   22.9400   34.0480 C   0  0  0  0  0  0  0  0  0  0  0  0
   38.0410   24.2720   33.9690 C   0  0  0  0  0  0  0  0  0  0  0  0
   38.6850   24.9400   34.9580 C   0  0  0  0  0  0  0  0  0  0  0  0
   39.0270   24.2130   36.0700 N   0  0  0  0  0  0  0  0  0  0  0  0
   38.7320   22.8860   36.1640 C   0  0  0  0  0  0  0  0  0  0  0  0
   38.0920   22.2440   35.1700 N   0  0  0  0  0  0  0  0  0  0  0  0
   37.0510   22.1660   33.0280 C   0  0  0  0  0  0  0  0  0  0  0  0
   36.2010   21.1070   33.3780 C   0  0  0  0  0  0  0  0  0  0  0  0
   35.6970   20.5610   32.2080 C   0  0  0  0  0  0  0  0  0  0  0  0
   36.2710   21.3230   31.2070 C   0  0  0  0  0  0  0  0  0  0  0  0
   37.0630   22.2600   31.7390 O   0  0  0  0  0  0  0  0  0  0  0  0
   34.7680   19.4410   32.0260 C   0  0  0  0  0  0  0  0  0  0  0  0
   35.2750   18.1380   32.6390 C   0  0  0  0  0  0  0  0  0  0  0  0
   35.4330   17.1140   31.6470 N   0  0  0  0  0  0  0  0  0  0  0  0
   39.0400   26.3420   34.9210 C   0  0  0  0  0  0  0  0  0  0  0  0
   38.4970   27.1270   36.1100 C   0  0  0  0  0  0  0  0  0  0  0  0
   38.4340   26.9950   33.6540 C   0  0  0  0  0  0  0  0  0  0  0  0
   40.5100   26.5190   34.8060 C   0  0  0  0  0  0  0  0  0  0  0  0
   41.1420   26.3590   33.5590 N   0  0  0  0  0  0  0  0  0  0  0  0
   41.8250   25.1550   33.3010 C   0  0  0  0  0  0  0  0  0  0  0  0
   42.9060   25.3380   32.2160 C   0  0  0  0  0  0  0  0  0  0  0  0
   42.4020   26.3160   31.1530 C   0  0  0  0  0  0  0  0  0  0  0  0
   42.2730   27.6690   31.8160 C   0  0  0  0  0  0  0  0  0  0  0  0
   41.9710   27.5110   33.2870 C   0  0  0  0  0  0  0  0  0  0  0  0
   37.7510   24.8250   33.0634 H   0  0  0  0  0  0  0  0  0  0  0  0
   39.0221   22.3303   37.0679 H   0  0  0  0  0  0  0  0  0  0  0  0
   35.9744   20.7694   34.4001 H   0  0  0  0  0  0  0  0  0  0  0  0
   36.1009   21.1793   30.1298 H   0  0  0  0  0  0  0  0  0  0  0  0
   33.8093   19.7008   32.4987 H   0  0  0  0  0  0  0  0  0  0  0  0
   34.6615   19.2752   30.9438 H   0  0  0  0  0  0  0  0  0  0  0  0
   36.2475   18.3237   33.1184 H   0  0  0  0  0  0  0  0  0  0  0  0
   34.5338   17.7927   33.3748 H   0  0  0  0  0  0  0  0  0  0  0  0
   35.5732   16.2052   32.1110 H   0  0  0  0  0  0  0  0  0  0  0  0
   34.5885   17.0725   31.0588 H   0  0  0  0  0  0  0  0  0  0  0  0
   38.8265   26.6507   37.0452 H   0  0  0  0  0  0  0  0  0  0  0  0
   38.8750   28.1593   36.0713 H   0  0  0  0  0  0  0  0  0  0  0  0
   37.3977   27.1374   36.0713 H   0  0  0  0  0  0  0  0  0  0  0  0
   37.7134   27.7714   33.9506 H   0  0  0  0  0  0  0  0  0  0  0  0
   39.2374   27.4496   33.0558 H   0  0  0  0  0  0  0  0  0  0  0  0
   37.9207   26.2277   33.0558 H   0  0  0  0  0  0  0  0  0  0  0  0
   40.7346   27.5403   35.1473 H   0  0  0  0  0  0  0  0  0  0  0  0
   40.9125   25.6869   35.4024 H   0  0  0  0  0  0  0  0  0  0  0  0
   42.3050   24.8107   34.2289 H   0  0  0  0  0  0  0  0  0  0  0  0
   41.0953   24.4157   32.9391 H   0  0  0  0  0  0  0  0  0  0  0  0
   43.8227   25.7363   32.6754 H   0  0  0  0  0  0  0  0  0  0  0  0
   43.1226   24.3668   31.7471 H   0  0  0  0  0  0  0  0  0  0  0  0
   41.4235   25.9878   30.7725 H   0  0  0  0  0  0  0  0  0  0  0  0
   43.0987   26.3623   30.3031 H   0  0  0  0  0  0  0  0  0  0  0  0
   43.2168   28.2215   31.6976 H   0  0  0  0  0  0  0  0  0  0  0  0
   41.4483   28.2205   31.3410 H   0  0  0  0  0  0  0  0  0  0  0  0
   42.9198   27.4000   33.8324 H   0  0  0  0  0  0  0  0  0  0  0  0
   41.4200   28.4052   33.6140 H   0  0  0  0  0  0  0  0  0  0  0  0
  1  6  1  0
  2  1  2  0
  2  3  1  0
  3  4  2  0
  4  5  1  0
  6  5  2  0
  7  8  2  0
  7  1  1  0
  9  8  1  0
 10 11  1  0
 10  9  2  0
 11  7  1  0
 12  9  1  0
 12 13  1  0
 14 13  1  0
 15  3  1  0
 15 16  1  0
 17 15  1  0
 18 15  1  0
 19 18  1  0
 20 19  1  0
 21 20  1  0
 22 23  1  0
 22 21  1  0
 23 24  1  0
 24 19  1  0
  2 25  1  0
  5 26  1  0
  8 27  1  0
 10 28  1  0
 12 29  1  0
 12 30  1  0
 13 31  1  0
 13 32  1  0
 14 33  1  0
 14 34  1  0
 16 35  1  0
 16 36  1  0
 16 37  1  0
 17 38  1  0
 17 39  1  0
 17 40  1  0
 18 41  1  0
 18 42  1  0
 20 43  1  0
 20 44  1  0
 21 45  1  0
 21 46  1  0
 22 47  1  0
 22 48  1  0
 23 49  1  0
 23 50  1  0
 24 51  1  0
 24 52  1  0
M  ISO  8  25  14  26  14  27  14  28  14  29   8  30   8  31   8  32   8
M  ISO  8  33   5  34   5  35   8  36   8  37   8  38   8  39   8  40   8
M  ISO  8  41   8  42   8  43  13  44  13  45  13  46  13  47  13  48  13
M  ISO  4  49  13  50  13  51  13  52  13
M  END
>  <minimizedAffinity>  (1) 
-4.87496042

>  <minimizedRMSD>  (1) 
1.04646909

$$$$
