
     RDKit          3D

 38 39  0  0  0  0  0  0  0  0999 V2000
   37.6140   23.0380   33.7060 C   0  0  0  0  0  0  0  0  0  0  0  0
   37.7090   24.4070   33.6150 C   0  0  0  0  0  0  0  0  0  0  0  0
   38.3410   25.1780   34.5330 C   0  0  0  0  0  0  0  0  0  0  0  0
   38.9030   24.5170   35.5940 N   0  0  0  0  0  0  0  0  0  0  0  0
   38.8270   23.1650   35.7120 C   0  0  0  0  0  0  0  0  0  0  0  0
   38.1870   22.4220   34.7760 N   0  0  0  0  0  0  0  0  0  0  0  0
   36.9580   22.1570   32.7660 C   0  0  0  0  0  0  0  0  0  0  0  0
   36.1350   21.1180   33.1870 C   0  0  0  0  0  0  0  0  0  0  0  0
   35.6540   20.4550   32.0810 C   0  0  0  0  0  0  0  0  0  0  0  0
   36.2170   21.1340   31.0180 C   0  0  0  0  0  0  0  0  0  0  0  0
   36.9790   22.1290   31.4790 O   0  0  0  0  0  0  0  0  0  0  0  0
   34.7600   19.3060   31.9980 C   0  0  0  0  0  0  0  0  0  0  0  0
   35.2990   18.0570   32.6900 C   0  0  0  0  0  0  0  0  0  0  0  0
   36.5210   17.6140   32.0890 N   0  0  0  0  0  0  0  0  0  0  0  0
   38.4540   26.6250   34.4600 C   0  0  0  0  0  0  0  0  0  0  0  0
   38.9190   27.2410   35.7570 C   0  0  0  0  0  0  0  0  0  0  0  0
   37.0860   27.2370   34.1150 C   0  0  0  0  0  0  0  0  0  0  0  0
   39.3690   26.9980   33.3240 C   0  0  0  0  0  0  0  0  0  0  0  0
   41.0760   26.9780   33.9390 S   0  0  0  0  0  0  0  0  0  0  0  0
   37.2465   24.9036   32.7493 H   0  0  0  0  0  0  0  0  0  0  0  0
   39.2902   22.6680   36.5771 H   0  0  0  0  0  0  0  0  0  0  0  0
   35.9059   20.8671   34.2332 H   0  0  0  0  0  0  0  0  0  0  0  0
   36.0617   20.8925   29.9561 H   0  0  0  0  0  0  0  0  0  0  0  0
   33.8024   19.5767   32.4668 H   0  0  0  0  0  0  0  0  0  0  0  0
   34.6510   19.0604   30.9313 H   0  0  0  0  0  0  0  0  0  0  0  0
   35.4838   18.2864   33.7498 H   0  0  0  0  0  0  0  0  0  0  0  0
   34.5525   17.2554   32.5890 H   0  0  0  0  0  0  0  0  0  0  0  0
   37.1971   17.3689   32.8263 H   0  0  0  0  0  0  0  0  0  0  0  0
   36.3358   16.7866   31.5042 H   0  0  0  0  0  0  0  0  0  0  0  0
   38.4950   26.6793   36.6024 H   0  0  0  0  0  0  0  0  0  0  0  0
   40.0173   27.2052   35.8069 H   0  0  0  0  0  0  0  0  0  0  0  0
   38.5836   28.2874   35.8069 H   0  0  0  0  0  0  0  0  0  0  0  0
   36.5475   27.4779   35.0434 H   0  0  0  0  0  0  0  0  0  0  0  0
   37.2328   28.1553   33.5274 H   0  0  0  0  0  0  0  0  0  0  0  0
   36.4992   26.5156   33.5274 H   0  0  0  0  0  0  0  0  0  0  0  0
   39.1170   28.0043   32.9582 H   0  0  0  0  0  0  0  0  0  0  0  0
   39.2558   26.2835   32.4953 H   0  0  0  0  0  0  0  0  0  0  0  0
   41.0678   26.9781   35.3090 H   0  0  0  0  0  0  0  0  0  0  0  0
  1  6  1  0
  2  1  2  0
  2  3  1  0
  3  4  2  0
  4  5  1  0
  6  5  2  0
  7  8  2  0
  7  1  1  0
  9  8  1  0
 10 11  1  0
 10  9  2  0
 11  7  1  0
 12  9  1  0
 12 13  1  0
 14 13  1  0
 15  3  1  0
 15 16  1  0
 17 15  1  0
 18 19  1  0
 18 15  1  0
  2 20  1  0
  5 21  1  0
  8 22  1  0
 10 23  1  0
 12 24  1  0
 12 25  1  0
 13 26  1  0
 13 27  1  0
 14 28  1  0
 14 29  1  0
 16 30  1  0
 16 31  1  0
 16 32  1  0
 17 33  1  0
 17 34  1  0
 17 35  1  0
 18 36  1  0
 18 37  1  0
 19 38  1  0
M  ISO  8  20  14  21  14  22  14  23  14  24   8  25   8  26   8  27   8
M  ISO  8  28   5  29   5  30   8  31   8  32   8  33   8  34   8  35   8
M  ISO  3  36   8  37   8  38  11
M  END
>  <minimizedAffinity>  (1) 
-4.3323164

>  <minimizedRMSD>  (1) 
0.936185062

$$$$
