
     RDKit          3D

 30 32  0  0  1  0  0  0  0  0999 V2000
   39.8840   22.6170   37.1930 C   0  0  0  0  0  0  0  0  0  0  0  0
   39.0830   23.2790   38.1620 C   0  0  0  0  0  0  0  0  0  0  0  0
   37.7050   23.3980   37.8910 C   0  0  0  0  0  0  0  0  0  0  0  0
   37.2060   22.8840   36.7320 N   0  0  0  0  0  0  0  0  0  0  0  0
   38.0350   22.2560   35.8350 C   0  0  0  0  0  0  0  0  0  0  0  0
   39.3660   22.1170   36.0560 N   0  0  0  0  0  0  0  0  0  0  0  0
   37.4290   21.7530   34.6430 N   0  0  0  0  0  0  0  0  0  0  0  0
   36.1920   20.9860   34.7950 C   0  0  0  0  0  0  0  0  0  0  0  0
   35.5170   20.7490   33.4810 C   0  0  0  0  0  0  0  0  0  0  0  0
   35.8270   21.7910   32.5670 N   0  0  0  0  0  0  0  0  0  0  0  0
   37.2480   21.6020   32.2190 C   0  0  0  0  0  0  0  0  0  0  0  0
   38.1030   22.0560   33.3560 C   0  0  1  0  0  0  0  0  0  0  0  0
   38.4290   23.5140   33.2580 C   0  0  0  0  0  0  0  0  0  0  0  0
   39.8190   24.0440   33.1910 C   0  0  0  0  0  0  0  0  0  0  0  0
   39.4650   25.8270   33.0830 S   0  0  0  0  0  0  0  0  0  0  0  0
   37.6030   25.6040   33.1390 C   0  0  0  0  0  0  0  0  0  0  0  0
   37.3940   24.3300   33.2280 N   0  0  0  0  0  0  0  0  0  0  0  0
   40.9630   22.5097   37.3783 H   0  0  0  0  0  0  0  0  0  0  0  0
   39.5209   23.6826   39.0869 H   0  0  0  0  0  0  0  0  0  0  0  0
   37.0392   23.9007   38.6079 H   0  0  0  0  0  0  0  0  0  0  0  0
   36.4300   20.0145   35.2528 H   0  0  0  0  0  0  0  0  0  0  0  0
   35.5069   21.5667   35.4301 H   0  0  0  0  0  0  0  0  0  0  0  0
   35.8596   19.7897   33.0659 H   0  0  0  0  0  0  0  0  0  0  0  0
   34.4287   20.7269   33.6392 H   0  0  0  0  0  0  0  0  0  0  0  0
   35.2378   21.7184   31.7253 H   0  0  0  0  0  0  0  0  0  0  0  0
   37.4382   20.5371   32.0195 H   0  0  0  0  0  0  0  0  0  0  0  0
   37.4875   22.1914   31.3217 H   0  0  0  0  0  0  0  0  0  0  0  0
   39.0555   21.5078   33.3085 H   0  0  0  0  0  0  0  0  0  0  0  0
   40.7817   23.5120   33.2032 H   0  0  0  0  0  0  0  0  0  0  0  0
   36.8416   26.3971   33.1033 H   0  0  0  0  0  0  0  0  0  0  0  0
  1  2  2  0
  3  2  1  0
  4  3  2  0
  5  6  2  0
  5  4  1  0
  6  1  1  0
  7  8  1  0
  7  5  1  0
  9  8  1  0
 10  9  1  0
 11 10  1  0
 11 12  1  0
 12  7  1  0
 13 12  1  0
 14 13  2  0
 15 16  1  0
 15 14  1  0
 16 17  2  0
 17 13  1  0
  1 18  1  0
  2 19  1  0
  3 20  1  0
  8 21  1  0
  8 22  1  0
  9 23  1  0
  9 24  1  0
 10 25  1  0
 11 26  1  0
 11 27  1  0
 12 28  1  1
 14 29  1  0
 16 30  1  0
M  ISO  8  18  14  19  14  20  14  21  13  22  13  23  13  24  13  25   5
M  ISO  5  26  13  27  13  28  13  29  14  30  14
M  END
>  <minimizedAffinity>  (1) 
-4.37824726

>  <minimizedRMSD>  (1) 
0.337118

$$$$
