
     RDKit          3D

 32 34  0  0  1  0  0  0  0  0999 V2000
   39.8400   22.7880   37.3750 C   0  0  0  0  0  0  0  0  0  0  0  0
   39.0420   23.3850   38.3610 C   0  0  0  0  0  0  0  0  0  0  0  0
   37.6750   23.3990   38.1210 C   0  0  0  0  0  0  0  0  0  0  0  0
   37.1590   22.8580   36.9820 N   0  0  0  0  0  0  0  0  0  0  0  0
   37.9850   22.2880   36.0510 C   0  0  0  0  0  0  0  0  0  0  0  0
   39.2990   22.2690   36.2750 N   0  0  0  0  0  0  0  0  0  0  0  0
   37.3970   21.7360   34.8810 N   0  0  0  0  0  0  0  0  0  0  0  0
   36.1800   20.9470   35.0740 C   0  0  0  0  0  0  0  0  0  0  0  0
   35.5160   20.5920   33.7840 C   0  0  0  0  0  0  0  0  0  0  0  0
   35.7640   21.6200   32.8350 N   0  0  0  0  0  0  0  0  0  0  0  0
   37.1820   21.5170   32.4610 C   0  0  0  0  0  0  0  0  0  0  0  0
   38.0400   21.9890   33.5990 C   0  0  1  0  0  0  0  0  0  0  0  0
   38.5020   23.3300   33.3490 C   0  0  0  0  0  0  0  0  0  0  0  0
   39.8250   23.6460   33.1580 C   0  0  0  0  0  0  0  0  0  0  0  0
   40.2970   24.9250   32.9160 C   0  0  0  0  0  0  0  0  0  0  0  0
   39.3900   25.9170   32.8680 N   0  0  0  0  0  0  0  0  0  0  0  0
   38.0870   25.6350   33.0520 C   0  0  0  0  0  0  0  0  0  0  0  0
   37.6550   24.3860   33.2840 N   0  0  0  0  0  0  0  0  0  0  0  0
   40.9306   22.7478   37.5125 H   0  0  0  0  0  0  0  0  0  0  0  0
   39.4753   23.8184   39.2744 H   0  0  0  0  0  0  0  0  0  0  0  0
   36.9990   23.8531   38.8605 H   0  0  0  0  0  0  0  0  0  0  0  0
   36.4420   20.0187   35.6027 H   0  0  0  0  0  0  0  0  0  0  0  0
   35.4744   21.5590   35.6550 H   0  0  0  0  0  0  0  0  0  0  0  0
   35.9218   19.6402   33.4105 H   0  0  0  0  0  0  0  0  0  0  0  0
   34.4325   20.4868   33.9416 H   0  0  0  0  0  0  0  0  0  0  0  0
   35.1677   21.4886   32.0055 H   0  0  0  0  0  0  0  0  0  0  0  0
   37.4243   20.4691   32.2303 H   0  0  0  0  0  0  0  0  0  0  0  0
   37.3723   22.1429   31.5767 H   0  0  0  0  0  0  0  0  0  0  0  0
   38.9647   21.3972   33.6675 H   0  0  0  0  0  0  0  0  0  0  0  0
   40.5590   22.8278   33.2001 H   0  0  0  0  0  0  0  0  0  0  0  0
   41.3693   25.1216   32.7691 H   0  0  0  0  0  0  0  0  0  0  0  0
   37.3535   26.4537   33.0109 H   0  0  0  0  0  0  0  0  0  0  0  0
  1  2  2  0
  3  2  1  0
  4  3  2  0
  5  6  2  0
  5  4  1  0
  6  1  1  0
  7  8  1  0
  7  5  1  0
  9  8  1  0
 10  9  1  0
 11 10  1  0
 11 12  1  0
 12  7  1  0
 13 12  1  0
 14 13  2  0
 15 14  1  0
 16 15  2  0
 16 17  1  0
 17 18  2  0
 18 13  1  0
  1 19  1  0
  2 20  1  0
  3 21  1  0
  8 22  1  0
  8 23  1  0
  9 24  1  0
  9 25  1  0
 10 26  1  0
 11 27  1  0
 11 28  1  0
 12 29  1  1
 14 30  1  0
 15 31  1  0
 17 32  1  0
M  ISO  8  19  14  20  14  21  14  22  13  23  13  24  13  25  13  26   5
M  ISO  6  27  13  28  13  29  13  30  14  31  14  32  14
M  END
>  <minimizedAffinity>  (1) 
-4.53730202

>  <minimizedRMSD>  (1) 
0.304589927

$$$$
