
     RDKit          3D

 37 40  0  0  1  0  0  0  0  0999 V2000
   39.9350   22.9350   37.8180 C   0  0  0  0  0  0  0  0  0  0  0  0
   38.9050   23.2730   38.7110 C   0  0  0  0  0  0  0  0  0  0  0  0
   37.6130   23.3210   38.1960 C   0  0  0  0  0  0  0  0  0  0  0  0
   37.4040   23.0420   36.8680 N   0  0  0  0  0  0  0  0  0  0  0  0
   38.4480   22.7190   36.0430 C   0  0  0  0  0  0  0  0  0  0  0  0
   39.7020   22.6680   36.5240 N   0  0  0  0  0  0  0  0  0  0  0  0
   38.1240   22.4490   34.6850 N   0  0  0  0  0  0  0  0  0  0  0  0
   37.0050   21.5840   34.4120 C   0  0  0  0  0  0  0  0  0  0  0  0
   36.5740   21.5850   32.9750 C   0  0  0  0  0  0  0  0  0  0  0  0
   36.9670   22.8130   32.3530 N   0  0  0  0  0  0  0  0  0  0  0  0
   38.4420   22.7910   32.2860 C   0  0  0  0  0  0  0  0  0  0  0  0
   38.9680   23.0820   33.6740 C   0  0  2  0  0  0  0  0  0  0  0  0
   40.3480   22.7820   33.8380 N   0  0  0  0  0  0  0  0  0  0  0  0
   40.9330   21.5610   33.6900 C   0  0  0  0  0  0  0  0  0  0  0  0
   42.2410   21.6850   33.9270 N   0  0  0  0  0  0  0  0  0  0  0  0
   42.4870   22.9540   34.2190 C   0  0  0  0  0  0  0  0  0  0  0  0
   43.6210   23.6700   34.5450 C   0  0  0  0  0  0  0  0  0  0  0  0
   43.5960   24.9900   34.8020 N   0  0  0  0  0  0  0  0  0  0  0  0
   42.4210   25.6800   34.7480 C   0  0  0  0  0  0  0  0  0  0  0  0
   41.3260   24.9650   34.4290 N   0  0  0  0  0  0  0  0  0  0  0  0
   41.3070   23.6660   34.1680 C   0  0  0  0  0  0  0  0  0  0  0  0
   44.8690   22.9870   34.6120 N   0  0  0  0  0  0  0  0  0  0  0  0
   40.9682   22.8876   38.1924 H   0  0  0  0  0  0  0  0  0  0  0  0
   39.1102   23.4900   39.7697 H   0  0  0  0  0  0  0  0  0  0  0  0
   36.7658   23.5805   38.8479 H   0  0  0  0  0  0  0  0  0  0  0  0
   37.2851   20.5570   34.6891 H   0  0  0  0  0  0  0  0  0  0  0  0
   36.1566   21.9630   35.0007 H   0  0  0  0  0  0  0  0  0  0  0  0
   37.0477   20.7419   32.4508 H   0  0  0  0  0  0  0  0  0  0  0  0
   35.4798   21.4850   32.9234 H   0  0  0  0  0  0  0  0  0  0  0  0
   36.5680   22.8764   31.4055 H   0  0  0  0  0  0  0  0  0  0  0  0
   38.7875   21.8008   31.9540 H   0  0  0  0  0  0  0  0  0  0  0  0
   38.8071   23.5417   31.5696 H   0  0  0  0  0  0  0  0  0  0  0  0
   38.9090   24.1710   33.8177 H   0  0  0  0  0  0  0  0  0  0  0  0
   40.4147   20.6290   33.4204 H   0  0  0  0  0  0  0  0  0  0  0  0
   42.3709   26.7595   34.9534 H   0  0  0  0  0  0  0  0  0  0  0  0
   45.7266   23.5038   34.8536 H   0  0  0  0  0  0  0  0  0  0  0  0
   44.9140   21.9763   34.4188 H   0  0  0  0  0  0  0  0  0  0  0  0
  1  2  2  0
  3  2  1  0
  4  3  2  0
  5  6  2  0
  5  4  1  0
  6  1  1  0
  7  5  1  0
  8  7  1  0
  9  8  1  0
 10  9  1  0
 11 10  1  0
 11 12  1  0
 12 13  1  0
 12  7  1  0
 13 21  1  0
 14 13  1  0
 14 15  2  0
 15 16  1  0
 16 17  2  0
 17 22  1  0
 17 18  1  0
 19 18  2  0
 20 19  1  0
 21 16  1  0
 21 20  2  0
  1 23  1  0
  2 24  1  0
  3 25  1  0
  8 26  1  0
  8 27  1  0
  9 28  1  0
  9 29  1  0
 10 30  1  0
 11 31  1  0
 11 32  1  0
 12 33  1  1
 14 34  1  0
 19 35  1  0
 22 36  1  0
 22 37  1  0
M  ISO  8  23  14  24  14  25  14  26  13  27  13  28  13  29  13  30   5
M  ISO  5  31  13  32  13  33  13  34  14  35  14
M  END
>  <minimizedAffinity>  (1) 
-4.51930809

>  <minimizedRMSD>  (1) 
1.40800202

$$$$
