
     RDKit          3D

 40 42  0  0  1  0  0  0  0  0999 V2000
   40.1020   23.5980   35.8110 C   0  0  0  0  0  0  0  0  0  0  0  0
   39.4370   22.5540   36.4620 C   0  0  0  0  0  0  0  0  0  0  0  0
   38.2050   22.1750   35.9470 C   0  0  0  0  0  0  0  0  0  0  0  0
   37.6970   22.8190   34.8490 N   0  0  0  0  0  0  0  0  0  0  0  0
   38.3810   23.8290   34.2500 C   0  0  0  0  0  0  0  0  0  0  0  0
   39.5650   24.1880   34.7510 N   0  0  0  0  0  0  0  0  0  0  0  0
   37.7920   24.4490   33.1160 N   0  0  0  0  0  0  0  0  0  0  0  0
   37.2350   23.5660   32.0970 C   0  0  0  0  0  0  0  0  0  0  0  0
   36.4400   24.3050   31.0600 C   0  0  0  0  0  0  0  0  0  0  0  0
   35.8330   25.4500   31.6750 N   0  0  0  0  0  0  0  0  0  0  0  0
   36.9300   26.4020   31.9380 C   0  0  0  0  0  0  0  0  0  0  0  0
   37.7910   25.9030   33.0610 C   0  0  2  0  0  0  0  0  0  0  0  0
   39.1310   26.5360   33.0110 C   0  0  0  0  0  0  0  0  0  0  0  0
   40.0410   25.5150   32.3100 C   0  0  0  0  0  0  0  0  0  0  0  0
   41.2620   26.2740   31.8480 C   0  0  0  0  0  0  0  0  0  0  0  0
   41.4910   27.5190   32.6380 C   0  0  0  0  0  0  0  0  0  0  0  0
   41.2090   27.2310   34.0990 C   0  0  0  0  0  0  0  0  0  0  0  0
   39.7560   26.8240   34.3300 C   0  0  0  0  0  0  0  0  0  0  0  0
   41.0815   23.9338   36.1821 H   0  0  0  0  0  0  0  0  0  0  0  0
   39.8704   22.0560   37.3419 H   0  0  0  0  0  0  0  0  0  0  0  0
   37.6376   21.3595   36.4191 H   0  0  0  0  0  0  0  0  0  0  0  0
   38.0618   23.0400   31.5974 H   0  0  0  0  0  0  0  0  0  0  0  0
   36.5526   22.8661   32.6016 H   0  0  0  0  0  0  0  0  0  0  0  0
   35.6590   23.6458   30.6533 H   0  0  0  0  0  0  0  0  0  0  0  0
   37.0998   24.6257   30.2404 H   0  0  0  0  0  0  0  0  0  0  0  0
   35.1388   25.8706   31.0409 H   0  0  0  0  0  0  0  0  0  0  0  0
   37.5426   26.5101   31.0308 H   0  0  0  0  0  0  0  0  0  0  0  0
   36.5011   27.3750   32.2196 H   0  0  0  0  0  0  0  0  0  0  0  0
   37.3627   26.2137   34.0254 H   0  0  0  0  0  0  0  0  0  0  0  0
   39.0135   27.5075   32.5086 H   0  0  0  0  0  0  0  0  0  0  0  0
   40.3313   24.7197   33.0123 H   0  0  0  0  0  0  0  0  0  0  0  0
   39.5253   25.0384   31.4633 H   0  0  0  0  0  0  0  0  0  0  0  0
   42.1426   25.6230   31.9515 H   0  0  0  0  0  0  0  0  0  0  0  0
   41.0981   26.5671   30.8005 H   0  0  0  0  0  0  0  0  0  0  0  0
   42.5352   27.8443   32.5204 H   0  0  0  0  0  0  0  0  0  0  0  0
   40.8236   28.3165   32.2794 H   0  0  0  0  0  0  0  0  0  0  0  0
   41.8645   26.4133   34.4330 H   0  0  0  0  0  0  0  0  0  0  0  0
   41.3996   28.1514   34.6704 H   0  0  0  0  0  0  0  0  0  0  0  0
   39.2154   27.6438   34.8257 H   0  0  0  0  0  0  0  0  0  0  0  0
   39.7121   25.9311   34.9709 H   0  0  0  0  0  0  0  0  0  0  0  0
  1  2  2  0
  3  2  1  0
  4  3  2  0
  5  6  2  0
  5  4  1  0
  6  1  1  0
  7  5  1  0
  8  7  1  0
  9 10  1  0
  9  8  1  0
 10 11  1  0
 11 12  1  0
 12  7  1  0
 13 12  1  0
 13 18  1  0
 14 13  1  0
 15 14  1  0
 15 16  1  0
 16 17  1  0
 17 18  1  0
  1 19  1  0
  2 20  1  0
  3 21  1  0
  8 22  1  0
  8 23  1  0
  9 24  1  0
  9 25  1  0
 10 26  1  0
 11 27  1  0
 11 28  1  0
 12 29  1  1
 13 30  1  0
 14 31  1  0
 14 32  1  0
 15 33  1  0
 15 34  1  0
 16 35  1  0
 16 36  1  0
 17 37  1  0
 17 38  1  0
 18 39  1  0
 18 40  1  0
M  ISO  8  19  14  20  14  21  14  22  13  23  13  24  13  25  13  26   5
M  ISO  8  27  13  28  13  29  13  30  13  31  13  32  13  33  13  34  13
M  ISO  6  35  13  36  13  37  13  38  13  39  13  40  13
M  END
>  <minimizedAffinity>  (1) 
-4.28766441

>  <minimizedRMSD>  (1) 
4.50673056

$$$$
