
     RDKit          3D

 36 38  0  0  0  0  0  0  0  0999 V2000
   38.0900   26.8990   34.4790 C   0  0  0  0  0  0  0  0  0  0  0  0
   38.3780   27.5680   35.7880 C   0  0  0  0  0  0  0  0  0  0  0  0
   37.0760   27.7340   33.7200 C   0  0  0  0  0  0  0  0  0  0  0  0
   39.3810   27.0180   33.6170 C   0  0  0  0  0  0  0  0  0  0  0  0
   39.0800   26.8670   32.1760 C   0  0  0  0  0  0  0  0  0  0  0  0
   39.0030   25.6610   31.5410 N   0  0  0  0  0  0  0  0  0  0  0  0
   38.7250   25.8830   30.2920 O   0  0  0  0  0  0  0  0  0  0  0  0
   38.6130   27.1580   30.0570 C   0  0  0  0  0  0  0  0  0  0  0  0
   38.8320   27.7720   31.2200 N   0  0  0  0  0  0  0  0  0  0  0  0
   37.6910   25.1710   34.5600 S   0  0  0  0  0  0  0  0  0  0  0  0
   38.1930   23.6410   38.3090 C   0  0  0  0  0  0  0  0  0  0  0  0
   37.6790   24.3080   37.1860 C   0  0  0  0  0  0  0  0  0  0  0  0
   38.3440   24.3270   35.9800 C   0  0  0  0  0  0  0  0  0  0  0  0
   39.5300   23.6660   35.9280 N   0  0  0  0  0  0  0  0  0  0  0  0
   40.0310   23.0290   36.9810 C   0  0  0  0  0  0  0  0  0  0  0  0
   39.3910   23.0010   38.1740 N   0  0  0  0  0  0  0  0  0  0  0  0
   41.3170   22.3310   36.8700 C   0  0  0  0  0  0  0  0  0  0  0  0
   42.5450   22.5350   36.2930 C   0  0  0  0  0  0  0  0  0  0  0  0
   43.3060   21.4100   36.6120 C   0  0  0  0  0  0  0  0  0  0  0  0
   42.4800   20.5930   37.3650 C   0  0  0  0  0  0  0  0  0  0  0  0
   41.3150   21.1590   37.5030 O   0  0  0  0  0  0  0  0  0  0  0  0
   42.9310   19.3550   37.8620 O   0  0  0  0  0  0  0  0  0  0  0  0
   38.0902   26.8994   36.6127 H   0  0  0  0  0  0  0  0  0  0  0  0
   39.4526   27.7928   35.8563 H   0  0  0  0  0  0  0  0  0  0  0  0
   37.8027   28.5031   35.8563 H   0  0  0  0  0  0  0  0  0  0  0  0
   36.4304   28.2656   34.4345 H   0  0  0  0  0  0  0  0  0  0  0  0
   37.6021   28.4642   33.0876 H   0  0  0  0  0  0  0  0  0  0  0  0
   36.4603   27.0776   33.0876 H   0  0  0  0  0  0  0  0  0  0  0  0
   39.8357   28.0051   33.7867 H   0  0  0  0  0  0  0  0  0  0  0  0
   40.0723   26.2155   33.9137 H   0  0  0  0  0  0  0  0  0  0  0  0
   38.3836   27.6338   29.0921 H   0  0  0  0  0  0  0  0  0  0  0  0
   37.6490   23.6343   39.2650 H   0  0  0  0  0  0  0  0  0  0  0  0
   36.7154   24.8316   37.2717 H   0  0  0  0  0  0  0  0  0  0  0  0
   42.8637   23.4057   35.7011 H   0  0  0  0  0  0  0  0  0  0  0  0
   44.3491   21.2125   36.3241 H   0  0  0  0  0  0  0  0  0  0  0  0
   42.3238   18.7861   38.3984 H   0  0  0  0  0  0  0  0  0  0  0  0
  1 10  1  0
  1  2  1  0
  3  1  1  0
  4  1  1  0
  5  4  1  0
  6  5  2  0
  7  6  1  0
  8  7  1  0
  8  9  2  0
  9  5  1  0
 10 13  1  0
 12 11  2  0
 13 12  1  0
 14 13  2  0
 14 15  1  0
 15 16  2  0
 16 11  1  0
 17 15  1  0
 17 21  1  0
 18 19  1  0
 18 17  2  0
 19 20  2  0
 20 21  1  0
 20 22  1  0
  2 23  1  0
  2 24  1  0
  2 25  1  0
  3 26  1  0
  3 27  1  0
  3 28  1  0
  4 29  1  0
  4 30  1  0
  8 31  1  0
 11 32  1  0
 12 33  1  0
 18 34  1  0
 19 35  1  0
 22 36  1  0
M  ISO  8  23   8  24   8  25   8  26   8  27   8  28   8  29   8  30   8
M  ISO  6  31  14  32  14  33  14  34  14  35  14  36   3
M  END
>  <minimizedAffinity>  (1) 
-5.1990962

>  <minimizedRMSD>  (1) 
0.111696765

$$$$
