
     RDKit          3D

 26 27  0  0  1  0  0  0  0  0999 V2000
   39.8370   22.7250   37.0840 C   0  0  0  0  0  0  0  0  0  0  0  0
   39.0330   23.2560   38.1270 C   0  0  0  0  0  0  0  0  0  0  0  0
   37.6560   23.2610   37.9310 C   0  0  0  0  0  0  0  0  0  0  0  0
   37.1810   22.7580   36.7660 N   0  0  0  0  0  0  0  0  0  0  0  0
   37.9620   22.2550   35.7850 C   0  0  0  0  0  0  0  0  0  0  0  0
   39.2930   22.2490   35.9690 N   0  0  0  0  0  0  0  0  0  0  0  0
   37.3360   21.7580   34.6090 N   0  0  0  0  0  0  0  0  0  0  0  0
   36.1340   20.9550   34.7900 C   0  0  0  0  0  0  0  0  0  0  0  0
   35.4400   20.6730   33.4940 C   0  0  0  0  0  0  0  0  0  0  0  0
   35.6500   21.7550   32.5950 N   0  0  0  0  0  0  0  0  0  0  0  0
   37.0670   21.6690   32.1870 C   0  0  0  0  0  0  0  0  0  0  0  0
   37.9600   22.1000   33.3270 C   0  0  2  0  0  0  0  0  0  0  0  0
   39.1910   21.3380   33.2660 N   0  0  0  0  0  0  0  0  0  0  0  0
   40.9306   22.7074   37.2012 H   0  0  0  0  0  0  0  0  0  0  0  0
   39.4809   23.6474   39.0523 H   0  0  0  0  0  0  0  0  0  0  0  0
   36.9748   23.6603   38.6968 H   0  0  0  0  0  0  0  0  0  0  0  0
   36.4139   19.9992   35.2569 H   0  0  0  0  0  0  0  0  0  0  0  0
   35.4409   21.5246   35.4265 H   0  0  0  0  0  0  0  0  0  0  0  0
   35.8447   19.7489   33.0555 H   0  0  0  0  0  0  0  0  0  0  0  0
   34.3618   20.5529   33.6756 H   0  0  0  0  0  0  0  0  0  0  0  0
   35.0342   21.6643   31.7744 H   0  0  0  0  0  0  0  0  0  0  0  0
   37.3042   20.6310   31.9108 H   0  0  0  0  0  0  0  0  0  0  0  0
   37.2356   22.3320   31.3256 H   0  0  0  0  0  0  0  0  0  0  0  0
   38.1333   23.1833   33.2464 H   0  0  0  0  0  0  0  0  0  0  0  0
   39.5174   21.1359   34.2218 H   0  0  0  0  0  0  0  0  0  0  0  0
   39.0227   20.4531   32.7664 H   0  0  0  0  0  0  0  0  0  0  0  0
  1  2  2  0
  3  2  1  0
  4  3  2  0
  5  6  2  0
  5  4  1  0
  6  1  1  0
  7  8  1  0
  7  5  1  0
  9  8  1  0
 10  9  1  0
 11 10  1  0
 11 12  1  0
 12  7  1  0
 13 12  1  0
  1 14  1  0
  2 15  1  0
  3 16  1  0
  8 17  1  0
  8 18  1  0
  9 19  1  0
  9 20  1  0
 10 21  1  0
 11 22  1  0
 11 23  1  0
 12 24  1  1
 13 25  1  0
 13 26  1  0
M  ISO  8  14  14  15  14  16  14  17  13  18  13  19  13  20  13  21   5
M  ISO  5  22  13  23  13  24  13  25   5  26   5
M  END
>  <minimizedAffinity>  (1) 
-3.93392086

>  <minimizedRMSD>  (1) 
0.32638675

$$$$
