
     RDKit          3D

 31 33  0  0  1  0  0  0  0  0999 V2000
   39.8040   22.9640   37.6020 C   0  0  0  0  0  0  0  0  0  0  0  0
   38.6700   23.0950   38.4110 C   0  0  0  0  0  0  0  0  0  0  0  0
   37.6580   23.9400   37.9520 C   0  0  0  0  0  0  0  0  0  0  0  0
   37.8410   24.5750   36.7620 N   0  0  0  0  0  0  0  0  0  0  0  0
   38.9520   24.4220   36.0100 C   0  0  0  0  0  0  0  0  0  0  0  0
   39.9270   23.6150   36.4390 N   0  0  0  0  0  0  0  0  0  0  0  0
   39.0320   25.1340   34.7870 N   0  0  0  0  0  0  0  0  0  0  0  0
   37.8540   25.1400   33.9300 C   0  0  0  0  0  0  0  0  0  0  0  0
   37.9250   26.1050   32.8060 C   0  0  0  0  0  0  0  0  0  0  0  0
   38.7960   27.1890   33.1630 N   0  0  0  0  0  0  0  0  0  0  0  0
   40.1470   26.6310   33.2090 C   0  0  0  0  0  0  0  0  0  0  0  0
   40.2880   25.8120   34.4680 C   0  0  2  0  0  0  0  0  0  0  0  0
   41.4490   24.9200   34.4670 C   0  0  0  0  0  0  0  0  0  0  0  0
   42.6830   25.1680   35.0790 C   0  0  0  0  0  0  0  0  0  0  0  0
   43.5290   24.1530   34.8940 N   0  0  0  0  0  0  0  0  0  0  0  0
   42.8870   23.2310   34.1690 C   0  0  0  0  0  0  0  0  0  0  0  0
   41.6410   23.7000   33.9190 N   0  0  0  0  0  0  0  0  0  0  0  0
   40.6205   22.3050   37.9323 H   0  0  0  0  0  0  0  0  0  0  0  0
   38.5799   22.5563   39.3658 H   0  0  0  0  0  0  0  0  0  0  0  0
   36.7378   24.0886   38.5361 H   0  0  0  0  0  0  0  0  0  0  0  0
   37.7271   24.1309   33.5109 H   0  0  0  0  0  0  0  0  0  0  0  0
   37.0067   25.4496   34.5594 H   0  0  0  0  0  0  0  0  0  0  0  0
   36.9191   26.4967   32.5944 H   0  0  0  0  0  0  0  0  0  0  0  0
   38.3159   25.5988   31.9110 H   0  0  0  0  0  0  0  0  0  0  0  0
   38.7428   27.9369   32.4568 H   0  0  0  0  0  0  0  0  0  0  0  0
   40.3134   25.9908   32.3301 H   0  0  0  0  0  0  0  0  0  0  0  0
   40.8889   27.4431   33.2045 H   0  0  0  0  0  0  0  0  0  0  0  0
   40.4994   26.5153   35.2870 H   0  0  0  0  0  0  0  0  0  0  0  0
   42.9244   26.0825   35.6406 H   0  0  0  0  0  0  0  0  0  0  0  0
   43.2966   22.2660   33.8358 H   0  0  0  0  0  0  0  0  0  0  0  0
   40.9282   23.1898   33.3781 H   0  0  0  0  0  0  0  0  0  0  0  0
  1  2  2  0
  3  2  1  0
  4  3  2  0
  5  6  2  0
  5  4  1  0
  6  1  1  0
  7  5  1  0
  8  7  1  0
  9 10  1  0
  9  8  1  0
 10 11  1  0
 11 12  1  0
 12  7  1  0
 13 12  1  0
 13 14  2  0
 15 14  1  0
 16 15  2  0
 17 16  1  0
 17 13  1  0
  1 18  1  0
  2 19  1  0
  3 20  1  0
  8 21  1  0
  8 22  1  0
  9 23  1  0
  9 24  1  0
 10 25  1  0
 11 26  1  0
 11 27  1  0
 12 28  1  1
 14 29  1  0
 16 30  1  0
 17 31  1  0
M  ISO  8  18  14  19  14  20  14  21  13  22  13  23  13  24  13  25   5
M  ISO  6  26  13  27  13  28  13  29  14  30  14  31   9
M  END
>  <minimizedAffinity>  (1) 
-3.89471889

>  <minimizedRMSD>  (1) 
3.87795997

$$$$
