
     RDKit          3D

 34 36  0  0  1  0  0  0  0  0999 V2000
   39.8550   22.9970   37.6110 C   0  0  0  0  0  0  0  0  0  0  0  0
   38.7250   23.1270   38.4240 C   0  0  0  0  0  0  0  0  0  0  0  0
   37.6820   23.9550   37.9660 C   0  0  0  0  0  0  0  0  0  0  0  0
   37.8260   24.5860   36.7560 N   0  0  0  0  0  0  0  0  0  0  0  0
   38.9570   24.4210   36.0030 C   0  0  0  0  0  0  0  0  0  0  0  0
   39.9390   23.6330   36.4490 N   0  0  0  0  0  0  0  0  0  0  0  0
   39.0020   25.1220   34.7680 N   0  0  0  0  0  0  0  0  0  0  0  0
   37.8470   25.1120   33.9110 C   0  0  0  0  0  0  0  0  0  0  0  0
   37.9230   26.1160   32.8030 C   0  0  0  0  0  0  0  0  0  0  0  0
   38.7950   27.1900   33.1710 N   0  0  0  0  0  0  0  0  0  0  0  0
   40.1540   26.6480   33.2230 C   0  0  0  0  0  0  0  0  0  0  0  0
   40.2760   25.8190   34.4760 C   0  0  2  0  0  0  0  0  0  0  0  0
   41.4050   24.8640   34.4070 C   0  0  0  0  0  0  0  0  0  0  0  0
   42.5080   24.9850   35.2350 C   0  0  0  0  0  0  0  0  0  0  0  0
   43.5930   24.1490   35.2370 C   0  0  0  0  0  0  0  0  0  0  0  0
   43.6000   23.0850   34.3380 C   0  0  0  0  0  0  0  0  0  0  0  0
   42.5210   22.9150   33.4840 C   0  0  0  0  0  0  0  0  0  0  0  0
   41.4520   23.7980   33.5310 C   0  0  0  0  0  0  0  0  0  0  0  0
   40.6876   22.3576   37.9395 H   0  0  0  0  0  0  0  0  0  0  0  0
   38.6532   22.6011   39.3874 H   0  0  0  0  0  0  0  0  0  0  0  0
   36.7704   24.0931   38.5660 H   0  0  0  0  0  0  0  0  0  0  0  0
   37.7496   24.1099   33.4680 H   0  0  0  0  0  0  0  0  0  0  0  0
   36.9784   25.3770   34.5318 H   0  0  0  0  0  0  0  0  0  0  0  0
   36.9175   26.5155   32.6045 H   0  0  0  0  0  0  0  0  0  0  0  0
   38.3163   25.6263   31.8999 H   0  0  0  0  0  0  0  0  0  0  0  0
   38.7423   27.9430   32.4702 H   0  0  0  0  0  0  0  0  0  0  0  0
   40.3394   26.0193   32.3396 H   0  0  0  0  0  0  0  0  0  0  0  0
   40.8914   27.4642   33.2309 H   0  0  0  0  0  0  0  0  0  0  0  0
   40.4933   26.5082   35.3053 H   0  0  0  0  0  0  0  0  0  0  0  0
   42.5134   25.8210   35.9498 H   0  0  0  0  0  0  0  0  0  0  0  0
   44.4334   24.3129   35.9276 H   0  0  0  0  0  0  0  0  0  0  0  0
   44.4508   22.3885   34.3060 H   0  0  0  0  0  0  0  0  0  0  0  0
   42.5126   22.0794   32.7687 H   0  0  0  0  0  0  0  0  0  0  0  0
   40.6081   23.6425   32.8428 H   0  0  0  0  0  0  0  0  0  0  0  0
  1  2  2  0
  3  2  1  0
  4  3  2  0
  5  6  2  0
  5  4  1  0
  6  1  1  0
  7  5  1  0
  8  7  1  0
  9 10  1  0
  9  8  1  0
 10 11  1  0
 11 12  1  0
 12  7  1  0
 13 12  1  0
 13 14  2  0
 14 15  1  0
 16 15  2  0
 17 18  2  0
 17 16  1  0
 18 13  1  0
  1 19  1  0
  2 20  1  0
  3 21  1  0
  8 22  1  0
  8 23  1  0
  9 24  1  0
  9 25  1  0
 10 26  1  0
 11 27  1  0
 11 28  1  0
 12 29  1  1
 14 30  1  0
 15 31  1  0
 16 32  1  0
 17 33  1  0
 18 34  1  0
M  ISO  8  19  14  20  14  21  14  22  13  23  13  24  13  25  13  26   5
M  ISO  8  27  13  28  13  29  13  30  14  31  14  32  14  33  14  34  14
M  END
>  <minimizedAffinity>  (1) 
-4.08135843

>  <minimizedRMSD>  (1) 
3.79995942

$$$$
