
     RDKit          3D

 36 37  0  0  1  0  0  0  0  0999 V2000
   39.8180   22.7920   37.1160 C   0  0  0  0  0  0  0  0  0  0  0  0
   39.0070   23.2610   38.1840 C   0  0  0  0  0  0  0  0  0  0  0  0
   37.6320   23.2390   37.9870 C   0  0  0  0  0  0  0  0  0  0  0  0
   37.1130   22.7780   36.8040 N   0  0  0  0  0  0  0  0  0  0  0  0
   37.9580   22.3400   35.8140 C   0  0  0  0  0  0  0  0  0  0  0  0
   39.2960   22.3430   35.9600 N   0  0  0  0  0  0  0  0  0  0  0  0
   37.3410   21.8940   34.6110 N   0  0  0  0  0  0  0  0  0  0  0  0
   36.2780   20.8820   34.7830 C   0  0  0  0  0  0  0  0  0  0  0  0
   35.4550   20.6650   33.5620 C   0  0  0  0  0  0  0  0  0  0  0  0
   35.5480   21.7800   32.6980 N   0  0  0  0  0  0  0  0  0  0  0  0
   36.9570   21.8310   32.2240 C   0  0  0  0  0  0  0  0  0  0  0  0
   37.7610   22.4470   33.3560 C   0  0  2  0  0  0  0  0  0  0  0  0
   39.1630   22.5840   32.9850 C   0  0  0  0  0  0  0  0  0  0  0  0
   40.0150   21.3450   33.1760 C   0  0  0  0  0  0  0  0  0  0  0  0
   39.8290   23.8660   33.3980 C   0  0  0  0  0  0  0  0  0  0  0  0
   39.1400   22.7030   31.4170 C   0  0  0  0  0  0  0  0  0  0  0  0
   40.9112   22.7961   37.2384 H   0  0  0  0  0  0  0  0  0  0  0  0
   39.4476   23.6249   39.1239 H   0  0  0  0  0  0  0  0  0  0  0  0
   36.9580   23.5920   38.7814 H   0  0  0  0  0  0  0  0  0  0  0  0
   36.7491   19.9269   35.0585 H   0  0  0  0  0  0  0  0  0  0  0  0
   35.6008   21.2569   35.5646 H   0  0  0  0  0  0  0  0  0  0  0  0
   35.8162   19.7687   33.0365 H   0  0  0  0  0  0  0  0  0  0  0  0
   34.4045   20.5322   33.8599 H   0  0  0  0  0  0  0  0  0  0  0  0
   34.9078   21.6655   31.8993 H   0  0  0  0  0  0  0  0  0  0  0  0
   37.3226   20.8171   32.0040 H   0  0  0  0  0  0  0  0  0  0  0  0
   37.0486   22.4201   31.2995 H   0  0  0  0  0  0  0  0  0  0  0  0
   37.5472   23.5091   33.5464 H   0  0  0  0  0  0  0  0  0  0  0  0
   40.1471   21.1530   34.2510 H   0  0  0  0  0  0  0  0  0  0  0  0
   39.5181   20.4825   32.7078 H   0  0  0  0  0  0  0  0  0  0  0  0
   40.9982   21.5003   32.7078 H   0  0  0  0  0  0  0  0  0  0  0  0
   39.8601   23.9259   34.4959 H   0  0  0  0  0  0  0  0  0  0  0  0
   40.8542   23.8913   33.0002 H   0  0  0  0  0  0  0  0  0  0  0  0
   39.2602   24.7194   33.0002 H   0  0  0  0  0  0  0  0  0  0  0  0
   38.9384   23.7460   31.1314 H   0  0  0  0  0  0  0  0  0  0  0  0
   40.1146   22.3936   31.0115 H   0  0  0  0  0  0  0  0  0  0  0  0
   38.3509   22.0527   31.0115 H   0  0  0  0  0  0  0  0  0  0  0  0
  1  2  2  0
  3  2  1  0
  4  3  2  0
  5  6  2  0
  5  4  1  0
  6  1  1  0
  7  8  1  0
  7  5  1  0
  9  8  1  0
 10  9  1  0
 11 10  1  0
 11 12  1  0
 12  7  1  0
 13 14  1  0
 13 12  1  0
 13 15  1  0
 16 13  1  0
  1 17  1  0
  2 18  1  0
  3 19  1  0
  8 20  1  0
  8 21  1  0
  9 22  1  0
  9 23  1  0
 10 24  1  0
 11 25  1  0
 11 26  1  0
 12 27  1  1
 14 28  1  0
 14 29  1  0
 14 30  1  0
 15 31  1  0
 15 32  1  0
 15 33  1  0
 16 34  1  0
 16 35  1  0
 16 36  1  0
M  ISO  8  17  14  18  14  19  14  20  13  21  13  22  13  23  13  24   5
M  ISO  8  25  13  26  13  27  13  28   8  29   8  30   8  31   8  32   8
M  ISO  4  33   8  34   8  35   8  36   8
M  END
>  <minimizedAffinity>  (1) 
-3.89188337

>  <minimizedRMSD>  (1) 
0.927295566

$$$$
