
     RDKit          3D

 31 33  0  0  1  0  0  0  0  0999 V2000
   39.8610   23.0100   37.5490 C   0  0  0  0  0  0  0  0  0  0  0  0
   38.7520   23.1370   38.3960 C   0  0  0  0  0  0  0  0  0  0  0  0
   37.7290   23.9760   37.9730 C   0  0  0  0  0  0  0  0  0  0  0  0
   37.8470   24.6250   36.7770 N   0  0  0  0  0  0  0  0  0  0  0  0
   38.9430   24.4720   35.9850 C   0  0  0  0  0  0  0  0  0  0  0  0
   39.9280   23.6620   36.3940 N   0  0  0  0  0  0  0  0  0  0  0  0
   38.9810   25.1820   34.7610 N   0  0  0  0  0  0  0  0  0  0  0  0
   37.7740   25.1680   33.9440 C   0  0  0  0  0  0  0  0  0  0  0  0
   37.8280   26.1120   32.7890 C   0  0  0  0  0  0  0  0  0  0  0  0
   38.6780   27.2100   33.1240 N   0  0  0  0  0  0  0  0  0  0  0  0
   40.0470   26.6650   33.1470 C   0  0  0  0  0  0  0  0  0  0  0  0
   40.2190   25.8710   34.4110 C   0  0  2  0  0  0  0  0  0  0  0  0
   41.3570   24.9810   34.3510 N   0  0  0  0  0  0  0  0  0  0  0  0
   41.4470   23.9470   33.5630 N   0  0  0  0  0  0  0  0  0  0  0  0
   42.6260   23.3100   33.7330 C   0  0  0  0  0  0  0  0  0  0  0  0
   43.3350   24.0040   34.7100 C   0  0  0  0  0  0  0  0  0  0  0  0
   42.5110   25.0360   35.0690 C   0  0  0  0  0  0  0  0  0  0  0  0
   40.6939   22.3563   37.8471 H   0  0  0  0  0  0  0  0  0  0  0  0
   38.6942   22.5968   39.3525 H   0  0  0  0  0  0  0  0  0  0  0  0
   36.8327   24.1164   38.5951 H   0  0  0  0  0  0  0  0  0  0  0  0
   37.6282   24.1494   33.5551 H   0  0  0  0  0  0  0  0  0  0  0  0
   36.9426   25.4906   34.5880 H   0  0  0  0  0  0  0  0  0  0  0  0
   36.8162   26.4830   32.5685 H   0  0  0  0  0  0  0  0  0  0  0  0
   38.2236   25.5930   31.9035 H   0  0  0  0  0  0  0  0  0  0  0  0
   38.5997   27.9535   32.4155 H   0  0  0  0  0  0  0  0  0  0  0  0
   40.2023   26.0132   32.2746 H   0  0  0  0  0  0  0  0  0  0  0  0
   40.7809   27.4837   33.1116 H   0  0  0  0  0  0  0  0  0  0  0  0
   40.4412   26.5780   35.2239 H   0  0  0  0  0  0  0  0  0  0  0  0
   42.9635   22.4097   33.1986 H   0  0  0  0  0  0  0  0  0  0  0  0
   44.3353   23.7738   35.1055 H   0  0  0  0  0  0  0  0  0  0  0  0
   42.7471   25.7978   35.8266 H   0  0  0  0  0  0  0  0  0  0  0  0
  1  2  2  0
  3  2  1  0
  4  3  2  0
  5  6  2  0
  5  4  1  0
  6  1  1  0
  7  5  1  0
  8  7  1  0
  9 10  1  0
  9  8  1  0
 10 11  1  0
 11 12  1  0
 12  7  1  0
 13 12  1  0
 13 17  1  0
 14 15  2  0
 14 13  1  0
 15 16  1  0
 16 17  2  0
  1 18  1  0
  2 19  1  0
  3 20  1  0
  8 21  1  0
  8 22  1  0
  9 23  1  0
  9 24  1  0
 10 25  1  0
 11 26  1  0
 11 27  1  0
 12 28  1  1
 15 29  1  0
 16 30  1  0
 17 31  1  0
M  ISO  8  18  14  19  14  20  14  21  13  22  13  23  13  24  13  25   5
M  ISO  6  26  13  27  13  28  13  29  14  30  14  31  14
M  END
>  <minimizedAffinity>  (1) 
-3.8815763

>  <minimizedRMSD>  (1) 
3.87732363

$$$$
