
     RDKit          3D

 33 35  0  0  1  0  0  0  0  0999 V2000
   39.7880   22.9280   37.7110 C   0  0  0  0  0  0  0  0  0  0  0  0
   38.6760   23.1790   38.5280 C   0  0  0  0  0  0  0  0  0  0  0  0
   37.7350   24.0840   38.0530 C   0  0  0  0  0  0  0  0  0  0  0  0
   37.9520   24.6600   36.8430 N   0  0  0  0  0  0  0  0  0  0  0  0
   39.0450   24.3930   36.0750 C   0  0  0  0  0  0  0  0  0  0  0  0
   39.9540   23.5220   36.5290 N   0  0  0  0  0  0  0  0  0  0  0  0
   39.1350   25.0740   34.8300 N   0  0  0  0  0  0  0  0  0  0  0  0
   37.9670   25.1410   33.9890 C   0  0  0  0  0  0  0  0  0  0  0  0
   38.1390   26.0670   32.8210 C   0  0  0  0  0  0  0  0  0  0  0  0
   39.0800   27.0860   33.1460 N   0  0  0  0  0  0  0  0  0  0  0  0
   40.3920   26.4370   33.2240 C   0  0  0  0  0  0  0  0  0  0  0  0
   40.4590   25.6580   34.5220 C   0  0  2  0  0  0  0  0  0  0  0  0
   41.5060   24.6200   34.5320 C   0  0  0  0  0  0  0  0  0  0  0  0
   42.6010   24.7700   35.3650 C   0  0  0  0  0  0  0  0  0  0  0  0
   43.6530   23.8990   35.4890 C   0  0  0  0  0  0  0  0  0  0  0  0
   43.5780   22.7620   34.6830 C   0  0  0  0  0  0  0  0  0  0  0  0
   42.4760   22.6240   33.8530 C   0  0  0  0  0  0  0  0  0  0  0  0
   41.4820   23.5210   33.7850 N   0  0  0  0  0  0  0  0  0  0  0  0
   40.5507   22.2153   38.0580 H   0  0  0  0  0  0  0  0  0  0  0  0
   38.5543   22.6815   39.5015 H   0  0  0  0  0  0  0  0  0  0  0  0
   36.8381   24.3273   38.6416 H   0  0  0  0  0  0  0  0  0  0  0  0
   37.7510   24.1320   33.6078 H   0  0  0  0  0  0  0  0  0  0  0  0
   37.1420   25.5333   34.6017 H   0  0  0  0  0  0  0  0  0  0  0  0
   37.1712   26.5287   32.5757 H   0  0  0  0  0  0  0  0  0  0  0  0
   38.5075   25.4955   31.9563 H   0  0  0  0  0  0  0  0  0  0  0  0
   39.0853   27.8110   32.4143 H   0  0  0  0  0  0  0  0  0  0  0  0
   40.5202   25.7529   32.3722 H   0  0  0  0  0  0  0  0  0  0  0  0
   41.1915   27.1918   33.1924 H   0  0  0  0  0  0  0  0  0  0  0  0
   40.7396   26.3744   35.3082 H   0  0  0  0  0  0  0  0  0  0  0  0
   42.6304   25.6759   35.9882 H   0  0  0  0  0  0  0  0  0  0  0  0
   44.4942   24.0830   36.1735 H   0  0  0  0  0  0  0  0  0  0  0  0
   44.3694   21.9983   34.7056 H   0  0  0  0  0  0  0  0  0  0  0  0
   42.4139   21.7297   33.2155 H   0  0  0  0  0  0  0  0  0  0  0  0
  1  2  2  0
  3  2  1  0
  4  3  2  0
  5  6  2  0
  5  4  1  0
  6  1  1  0
  7  5  1  0
  8  7  1  0
  9 10  1  0
  9  8  1  0
 10 11  1  0
 11 12  1  0
 12 13  1  0
 12  7  1  0
 13 14  2  0
 14 15  1  0
 16 15  2  0
 17 16  1  0
 18 17  2  0
 18 13  1  0
  1 19  1  0
  2 20  1  0
  3 21  1  0
  8 22  1  0
  8 23  1  0
  9 24  1  0
  9 25  1  0
 10 26  1  0
 11 27  1  0
 11 28  1  0
 12 29  1  1
 14 30  1  0
 15 31  1  0
 16 32  1  0
 17 33  1  0
M  ISO  8  19  14  20  14  21  14  22  13  23  13  24  13  25  13  26   5
M  ISO  7  27  13  28  13  29  13  30  14  31  14  32  14  33  14
M  END
>  <minimizedAffinity>  (1) 
-4.10728598

>  <minimizedRMSD>  (1) 
3.74025559

$$$$
