
     RDKit          3D

 49 53  0  0  1  0  0  0  0  0999 V2000
   39.0790   22.7690   37.2940 C   0  0  0  0  0  0  0  0  0  0  0  0
   38.5820   23.3990   38.4420 C   0  0  0  0  0  0  0  0  0  0  0  0
   38.0690   24.6850   38.2820 C   0  0  0  0  0  0  0  0  0  0  0  0
   38.0850   25.2340   37.0390 N   0  0  0  0  0  0  0  0  0  0  0  0
   38.5760   24.5920   35.9430 C   0  0  0  0  0  0  0  0  0  0  0  0
   39.0720   23.3520   36.0950 N   0  0  0  0  0  0  0  0  0  0  0  0
   38.5250   25.2940   34.7080 N   0  0  0  0  0  0  0  0  0  0  0  0
   37.3070   25.9780   34.3610 C   0  0  0  0  0  0  0  0  0  0  0  0
   37.4570   26.8510   33.1550 C   0  0  0  0  0  0  0  0  0  0  0  0
   38.8000   27.2830   33.0320 N   0  0  0  0  0  0  0  0  0  0  0  0
   39.5770   26.0960   32.6550 C   0  0  0  0  0  0  0  0  0  0  0  0
   39.7530   25.2380   33.9060 C   0  0  2  0  0  0  0  0  0  0  0  0
   40.1430   23.8450   33.6050 C   0  0  0  0  0  0  0  0  0  0  0  0
   41.3240   23.3430   34.0840 C   0  0  0  0  0  0  0  0  0  0  0  0
   41.8070   22.0720   33.8860 C   0  0  0  0  0  0  0  0  0  0  0  0
   40.9910   21.2520   33.1240 C   0  0  0  0  0  0  0  0  0  0  0  0
   39.7930   21.7440   32.6360 C   0  0  0  0  0  0  0  0  0  0  0  0
   39.4170   23.0110   32.8900 N   0  0  0  0  0  0  0  0  0  0  0  0
   38.8510   21.0600   31.7700 C   0  0  0  0  0  0  0  0  0  0  0  0
   39.2310   20.7200   30.4630 C   0  0  0  0  0  0  0  0  0  0  0  0
   38.4460   20.0910   29.5250 C   0  0  0  0  0  0  0  0  0  0  0  0
   37.1590   19.7520   29.8740 C   0  0  0  0  0  0  0  0  0  0  0  0
   36.7240   20.0590   31.1400 C   0  0  0  0  0  0  0  0  0  0  0  0
   35.4210   19.7460   31.4630 C   0  0  0  0  0  0  0  0  0  0  0  0
   34.8780   20.0570   32.7140 C   0  0  0  0  0  0  0  0  0  0  0  0
   35.7340   20.7040   33.6110 C   0  0  0  0  0  0  0  0  0  0  0  0
   37.0160   20.9850   33.2300 C   0  0  0  0  0  0  0  0  0  0  0  0
   37.5590   20.6870   32.0240 C   0  0  0  0  0  0  0  0  0  0  0  0
   39.4913   21.7533   37.3852 H   0  0  0  0  0  0  0  0  0  0  0  0
   38.5959   22.9023   39.4234 H   0  0  0  0  0  0  0  0  0  0  0  0
   37.6619   25.2410   39.1394 H   0  0  0  0  0  0  0  0  0  0  0  0
   36.5282   25.2282   34.1577 H   0  0  0  0  0  0  0  0  0  0  0  0
   37.0375   26.6259   35.2081 H   0  0  0  0  0  0  0  0  0  0  0  0
   37.1737   26.2827   32.2568 H   0  0  0  0  0  0  0  0  0  0  0  0
   36.8042   27.7298   33.2627 H   0  0  0  0  0  0  0  0  0  0  0  0
   38.8773   28.0070   32.3034 H   0  0  0  0  0  0  0  0  0  0  0  0
   39.0393   25.5262   31.8828 H   0  0  0  0  0  0  0  0  0  0  0  0
   40.5563   26.3901   32.2493 H   0  0  0  0  0  0  0  0  0  0  0  0
   40.5898   25.6550   34.4856 H   0  0  0  0  0  0  0  0  0  0  0  0
   41.9456   24.0229   34.6851 H   0  0  0  0  0  0  0  0  0  0  0  0
   42.7675   21.7319   34.3006 H   0  0  0  0  0  0  0  0  0  0  0  0
   41.2932   20.2166   32.9082 H   0  0  0  0  0  0  0  0  0  0  0  0
   40.2553   20.9816   30.1592 H   0  0  0  0  0  0  0  0  0  0  0  0
   38.8369   19.8649   28.5220 H   0  0  0  0  0  0  0  0  0  0  0  0
   36.4949   19.2475   29.1567 H   0  0  0  0  0  0  0  0  0  0  0  0
   34.7916   19.2383   30.7173 H   0  0  0  0  0  0  0  0  0  0  0  0
   33.8394   19.8075   32.9767 H   0  0  0  0  0  0  0  0  0  0  0  0
   35.3787   20.9840   34.6137 H   0  0  0  0  0  0  0  0  0  0  0  0
   37.6601   21.4947   33.9617 H   0  0  0  0  0  0  0  0  0  0  0  0
  1  2  2  0
  3  2  1  0
  4  3  2  0
  5  6  2  0
  5  4  1  0
  6  1  1  0
  7  5  1  0
  8  7  1  0
  9  8  1  0
 10  9  1  0
 11 10  1  0
 11 12  1  0
 12  7  1  0
 13 12  1  0
 13 14  2  0
 15 14  1  0
 16 15  2  0
 17 18  2  0
 17 16  1  0
 18 13  1  0
 19 28  1  0
 19 17  1  0
 20 19  2  0
 21 22  2  0
 21 20  1  0
 22 23  1  0
 23 24  1  0
 23 28  2  0
 24 25  2  0
 25 26  1  0
 27 26  2  0
 28 27  1  0
  1 29  1  0
  2 30  1  0
  3 31  1  0
  8 32  1  0
  8 33  1  0
  9 34  1  0
  9 35  1  0
 10 36  1  0
 11 37  1  0
 11 38  1  0
 12 39  1  1
 14 40  1  0
 15 41  1  0
 16 42  1  0
 20 43  1  0
 21 44  1  0
 22 45  1  0
 24 46  1  0
 25 47  1  0
 26 48  1  0
 27 49  1  0
M  ISO  8  29  14  30  14  31  14  32  13  33  13  34  13  35  13  36   5
M  ISO  8  37  13  38  13  39  13  40  14  41  14  42  14  43  14  44  14
M  ISO  5  45  14  46  14  47  14  48  14  49  14
M  END
>  <minimizedAffinity>  (1) 
-5.79453135

>  <minimizedRMSD>  (1) 
2.79636645

$$$$
