
     RDKit          3D

 46 49  0  0  1  0  0  0  0  0999 V2000
   39.7200   22.9400   38.0260 C   0  0  0  0  0  0  0  0  0  0  0  0
   38.4560   23.3320   38.4840 C   0  0  0  0  0  0  0  0  0  0  0  0
   37.6570   24.0390   37.5950 C   0  0  0  0  0  0  0  0  0  0  0  0
   38.1470   24.3010   36.3530 N   0  0  0  0  0  0  0  0  0  0  0  0
   39.3800   23.9050   35.9410 C   0  0  0  0  0  0  0  0  0  0  0  0
   40.1580   23.2200   36.8010 N   0  0  0  0  0  0  0  0  0  0  0  0
   39.7610   24.2450   34.6260 N   0  0  0  0  0  0  0  0  0  0  0  0
   38.8170   24.0450   33.5600 C   0  0  0  0  0  0  0  0  0  0  0  0
   39.2500   24.6370   32.2500 C   0  0  0  0  0  0  0  0  0  0  0  0
   40.1090   25.7460   32.4960 N   0  0  0  0  0  0  0  0  0  0  0  0
   41.3620   25.1880   33.0130 C   0  0  0  0  0  0  0  0  0  0  0  0
   41.1190   24.7810   34.4640 C   0  0  2  0  0  0  0  0  0  0  0  0
   42.1330   23.8260   34.9760 C   0  0  0  0  0  0  0  0  0  0  0  0
   43.0940   24.2860   35.8630 C   0  0  0  0  0  0  0  0  0  0  0  0
   44.0920   23.5160   36.4220 C   0  0  0  0  0  0  0  0  0  0  0  0
   44.0940   22.1670   36.0300 C   0  0  0  0  0  0  0  0  0  0  0  0
   43.1260   21.7480   35.1500 C   0  0  0  0  0  0  0  0  0  0  0  0
   42.1870   22.5520   34.6470 N   0  0  0  0  0  0  0  0  0  0  0  0
   43.0980   20.3900   34.7330 N   0  0  0  0  0  0  0  0  0  0  0  0
   43.2360   19.2170   35.5710 C   0  0  0  0  0  0  0  0  0  0  0  0
   44.5910   18.6190   35.1710 C   0  0  0  0  0  0  0  0  0  0  0  0
   44.7020   18.4430   33.8150 O   0  0  0  0  0  0  0  0  0  0  0  0
   43.5270   18.6320   33.1050 C   0  0  0  0  0  0  0  0  0  0  0  0
   42.9180   19.9930   33.3490 C   0  0  0  0  0  0  0  0  0  0  0  0
   40.3771   22.3781   38.7061 H   0  0  0  0  0  0  0  0  0  0  0  0
   38.1120   23.0911   39.5007 H   0  0  0  0  0  0  0  0  0  0  0  0
   36.6526   24.3789   37.8877 H   0  0  0  0  0  0  0  0  0  0  0  0
   38.6739   22.9632   33.4216 H   0  0  0  0  0  0  0  0  0  0  0  0
   37.8889   24.5577   33.8528 H   0  0  0  0  0  0  0  0  0  0  0  0
   38.3659   24.9743   31.6890 H   0  0  0  0  0  0  0  0  0  0  0  0
   39.7870   23.8781   31.6621 H   0  0  0  0  0  0  0  0  0  0  0  0
   40.2825   26.2636   31.6225 H   0  0  0  0  0  0  0  0  0  0  0  0
   41.6543   24.3087   32.4202 H   0  0  0  0  0  0  0  0  0  0  0  0
   42.1718   25.9297   32.9492 H   0  0  0  0  0  0  0  0  0  0  0  0
   41.2197   25.6920   35.0722 H   0  0  0  0  0  0  0  0  0  0  0  0
   43.0575   25.3491   36.1430 H   0  0  0  0  0  0  0  0  0  0  0  0
   44.8324   23.9279   37.1235 H   0  0  0  0  0  0  0  0  0  0  0  0
   44.8489   21.4665   36.4166 H   0  0  0  0  0  0  0  0  0  0  0  0
   43.2327   19.4963   36.6350 H   0  0  0  0  0  0  0  0  0  0  0  0
   42.4078   18.5058   35.4361 H   0  0  0  0  0  0  0  0  0  0  0  0
   45.3898   19.2968   35.5064 H   0  0  0  0  0  0  0  0  0  0  0  0
   44.6767   17.6310   35.6469 H   0  0  0  0  0  0  0  0  0  0  0  0
   42.8030   17.8616   33.4089 H   0  0  0  0  0  0  0  0  0  0  0  0
   43.7675   18.5598   32.0340 H   0  0  0  0  0  0  0  0  0  0  0  0
   43.4059   20.7304   32.6946 H   0  0  0  0  0  0  0  0  0  0  0  0
   41.8411   19.9451   33.1300 H   0  0  0  0  0  0  0  0  0  0  0  0
  1  2  2  0
  3  2  1  0
  4  3  2  0
  5  4  1  0
  5  6  2  0
  6  1  1  0
  7  5  1  0
  8  7  1  0
  9 10  1  0
  9  8  1  0
 10 11  1  0
 11 12  1  0
 12  7  1  0
 12 13  1  0
 13 14  2  0
 14 15  1  0
 16 15  2  0
 17 16  1  0
 18 13  1  0
 18 17  2  0
 19 17  1  0
 19 20  1  0
 21 20  1  0
 22 21  1  0
 23 24  1  0
 23 22  1  0
 24 19  1  0
  1 25  1  0
  2 26  1  0
  3 27  1  0
  8 28  1  0
  8 29  1  0
  9 30  1  0
  9 31  1  0
 10 32  1  0
 11 33  1  0
 11 34  1  0
 12 35  1  1
 14 36  1  0
 15 37  1  0
 16 38  1  0
 20 39  1  0
 20 40  1  0
 21 41  1  0
 21 42  1  0
 23 43  1  0
 23 44  1  0
 24 45  1  0
 24 46  1  0
M  ISO  8  25  14  26  14  27  14  28  13  29  13  30  13  31  13  32   5
M  ISO  8  33  13  34  13  35  13  36  14  37  14  38  14  39  13  40  13
M  ISO  6  41  13  42  13  43  13  44  13  45  13  46  13
M  END
>  <minimizedAffinity>  (1) 
-4.66267395

>  <minimizedRMSD>  (1) 
1.7168014

$$$$
