
     RDKit          3D

 40 43  0  0  1  0  0  0  0  0999 V2000
   39.7230   22.9420   37.9780 C   0  0  0  0  0  0  0  0  0  0  0  0
   38.4450   23.3160   38.4210 C   0  0  0  0  0  0  0  0  0  0  0  0
   37.6670   24.0620   37.5470 C   0  0  0  0  0  0  0  0  0  0  0  0
   38.1840   24.3790   36.3350 N   0  0  0  0  0  0  0  0  0  0  0  0
   39.4290   24.0010   35.9340 C   0  0  0  0  0  0  0  0  0  0  0  0
   40.1860   23.2800   36.7760 N   0  0  0  0  0  0  0  0  0  0  0  0
   39.8340   24.4040   34.6440 N   0  0  0  0  0  0  0  0  0  0  0  0
   38.9170   24.2470   33.5420 C   0  0  0  0  0  0  0  0  0  0  0  0
   39.3710   24.9100   32.2830 C   0  0  0  0  0  0  0  0  0  0  0  0
   40.2290   26.0020   32.5920 N   0  0  0  0  0  0  0  0  0  0  0  0
   41.4670   25.4350   33.1190 C   0  0  0  0  0  0  0  0  0  0  0  0
   41.1880   24.9590   34.5380 C   0  0  2  0  0  0  0  0  0  0  0  0
   42.2010   23.9950   35.0350 C   0  0  0  0  0  0  0  0  0  0  0  0
   43.1550   24.3960   35.9380 C   0  0  0  0  0  0  0  0  0  0  0  0
   44.1400   23.6110   36.4820 C   0  0  0  0  0  0  0  0  0  0  0  0
   44.1420   22.2740   36.0490 C   0  0  0  0  0  0  0  0  0  0  0  0
   43.1790   21.8840   35.1420 C   0  0  0  0  0  0  0  0  0  0  0  0
   42.2470   22.7140   34.6570 N   0  0  0  0  0  0  0  0  0  0  0  0
   43.1680   20.5330   34.6930 N   0  0  0  0  0  0  0  0  0  0  0  0
   43.0150   20.0780   33.4680 N   0  0  0  0  0  0  0  0  0  0  0  0
   43.0580   18.7380   33.4140 C   0  0  0  0  0  0  0  0  0  0  0  0
   43.2540   18.2710   34.7050 C   0  0  0  0  0  0  0  0  0  0  0  0
   43.3160   19.4180   35.4600 C   0  0  0  0  0  0  0  0  0  0  0  0
   40.3644   22.3492   38.6467 H   0  0  0  0  0  0  0  0  0  0  0  0
   38.0762   23.0304   39.4172 H   0  0  0  0  0  0  0  0  0  0  0  0
   36.6555   24.3880   37.8309 H   0  0  0  0  0  0  0  0  0  0  0  0
   38.7938   23.1721   33.3433 H   0  0  0  0  0  0  0  0  0  0  0  0
   37.9741   24.7304   33.8375 H   0  0  0  0  0  0  0  0  0  0  0  0
   38.4953   25.2797   31.7294 H   0  0  0  0  0  0  0  0  0  0  0  0
   39.9198   24.1815   31.6681 H   0  0  0  0  0  0  0  0  0  0  0  0
   40.4244   26.5500   31.7421 H   0  0  0  0  0  0  0  0  0  0  0  0
   41.7867   24.5873   32.4951 H   0  0  0  0  0  0  0  0  0  0  0  0
   42.2691   26.1877   33.1148 H   0  0  0  0  0  0  0  0  0  0  0  0
   41.2586   25.8440   35.1875 H   0  0  0  0  0  0  0  0  0  0  0  0
   43.1266   25.4487   36.2559 H   0  0  0  0  0  0  0  0  0  0  0  0
   44.8738   23.9993   37.2036 H   0  0  0  0  0  0  0  0  0  0  0  0
   44.8900   21.5592   36.4227 H   0  0  0  0  0  0  0  0  0  0  0  0
   42.9562   18.1211   32.5090 H   0  0  0  0  0  0  0  0  0  0  0  0
   43.3397   17.2283   35.0448 H   0  0  0  0  0  0  0  0  0  0  0  0
   43.4666   19.4331   36.5495 H   0  0  0  0  0  0  0  0  0  0  0  0
  1  2  2  0
  3  2  1  0
  4  3  2  0
  5  4  1  0
  5  6  2  0
  6  1  1  0
  7  5  1  0
  8  7  1  0
  9 10  1  0
  9  8  1  0
 10 11  1  0
 11 12  1  0
 12  7  1  0
 12 13  1  0
 13 14  2  0
 14 15  1  0
 16 15  2  0
 17 16  1  0
 18 13  1  0
 18 17  2  0
 19 17  1  0
 19 23  1  0
 20 19  1  0
 21 20  2  0
 21 22  1  0
 22 23  2  0
  1 24  1  0
  2 25  1  0
  3 26  1  0
  8 27  1  0
  8 28  1  0
  9 29  1  0
  9 30  1  0
 10 31  1  0
 11 32  1  0
 11 33  1  0
 12 34  1  1
 14 35  1  0
 15 36  1  0
 16 37  1  0
 21 38  1  0
 22 39  1  0
 23 40  1  0
M  ISO  8  24  14  25  14  26  14  27  13  28  13  29  13  30  13  31   5
M  ISO  8  32  13  33  13  34  13  35  14  36  14  37  14  38  14  39  14
M  ISO  1  40  14
M  END
>  <minimizedAffinity>  (1) 
-4.68372488

>  <minimizedRMSD>  (1) 
1.54033399

$$$$
