
     RDKit          3D

 49 52  0  0  1  0  0  0  0  0999 V2000
   39.6570   23.0660   38.0710 C   0  0  0  0  0  0  0  0  0  0  0  0
   38.3420   23.3530   38.4520 C   0  0  0  0  0  0  0  0  0  0  0  0
   37.4800   23.8380   37.4770 C   0  0  0  0  0  0  0  0  0  0  0  0
   37.9670   24.0050   36.2180 N   0  0  0  0  0  0  0  0  0  0  0  0
   39.2530   23.7180   35.8730 C   0  0  0  0  0  0  0  0  0  0  0  0
   40.0830   23.2480   36.8210 N   0  0  0  0  0  0  0  0  0  0  0  0
   39.6200   23.9420   34.5290 N   0  0  0  0  0  0  0  0  0  0  0  0
   38.7350   23.4840   33.4780 C   0  0  0  0  0  0  0  0  0  0  0  0
   39.1240   23.9780   32.1190 C   0  0  0  0  0  0  0  0  0  0  0  0
   39.8360   25.1990   32.2320 N   0  0  0  0  0  0  0  0  0  0  0  0
   41.1330   24.8670   32.8280 C   0  0  0  0  0  0  0  0  0  0  0  0
   40.8980   24.6320   34.3170 C   0  0  2  0  0  0  0  0  0  0  0  0
   42.0140   23.8970   34.9630 C   0  0  0  0  0  0  0  0  0  0  0  0
   42.9460   24.5840   35.7020 C   0  0  0  0  0  0  0  0  0  0  0  0
   44.0260   24.0440   36.3570 C   0  0  0  0  0  0  0  0  0  0  0  0
   44.1580   22.6680   36.2390 C   0  0  0  0  0  0  0  0  0  0  0  0
   43.2120   21.9710   35.4890 C   0  0  0  0  0  0  0  0  0  0  0  0
   42.1810   22.5720   34.8760 N   0  0  0  0  0  0  0  0  0  0  0  0
   43.3680   20.4950   35.3720 C   0  0  0  0  0  0  0  0  0  0  0  0
   43.1490   19.7850   36.6690 C   0  0  0  0  0  0  0  0  0  0  0  0
   44.3450   18.9250   37.0600 C   0  0  0  0  0  0  0  0  0  0  0  0
   44.6740   18.0000   35.9090 C   0  0  0  0  0  0  0  0  0  0  0  0
   45.0050   18.7470   34.6510 C   0  0  0  0  0  0  0  0  0  0  0  0
   44.7230   20.2250   34.7590 C   0  0  0  0  0  0  0  0  0  0  0  0
   40.3594   22.6792   38.8241 H   0  0  0  0  0  0  0  0  0  0  0  0
   38.0027   23.2000   39.4871 H   0  0  0  0  0  0  0  0  0  0  0  0
   36.4339   24.0800   37.7160 H   0  0  0  0  0  0  0  0  0  0  0  0
   38.7468   22.3841   33.4663 H   0  0  0  0  0  0  0  0  0  0  0  0
   37.7345   23.8855   33.6966 H   0  0  0  0  0  0  0  0  0  0  0  0
   38.2177   24.1393   31.5169 H   0  0  0  0  0  0  0  0  0  0  0  0
   39.7666   23.2291   31.6330 H   0  0  0  0  0  0  0  0  0  0  0  0
   39.9688   25.6215   31.3021 H   0  0  0  0  0  0  0  0  0  0  0  0
   41.5400   23.9573   32.3624 H   0  0  0  0  0  0  0  0  0  0  0  0
   41.8553   25.6815   32.6703 H   0  0  0  0  0  0  0  0  0  0  0  0
   40.8551   25.6196   34.7995 H   0  0  0  0  0  0  0  0  0  0  0  0
   42.8147   25.6736   35.7766 H   0  0  0  0  0  0  0  0  0  0  0  0
   44.7343   24.6577   36.9329 H   0  0  0  0  0  0  0  0  0  0  0  0
   44.9903   22.1390   36.7262 H   0  0  0  0  0  0  0  0  0  0  0  0
   42.5856   20.0854   34.7162 H   0  0  0  0  0  0  0  0  0  0  0  0
   42.9761   20.5320   37.4577 H   0  0  0  0  0  0  0  0  0  0  0  0
   42.2792   19.1222   36.5501 H   0  0  0  0  0  0  0  0  0  0  0  0
   45.2098   19.5697   37.2757 H   0  0  0  0  0  0  0  0  0  0  0  0
   44.1057   18.3360   37.9577 H   0  0  0  0  0  0  0  0  0  0  0  0
   45.5386   17.3806   36.1898 H   0  0  0  0  0  0  0  0  0  0  0  0
   43.7846   17.3843   35.7090 H   0  0  0  0  0  0  0  0  0  0  0  0
   44.4038   18.3335   33.8279 H   0  0  0  0  0  0  0  0  0  0  0  0
   46.0831   18.6274   34.4680 H   0  0  0  0  0  0  0  0  0  0  0  0
   45.4970   20.6901   35.3872 H   0  0  0  0  0  0  0  0  0  0  0  0
   44.7296   20.6492   33.7441 H   0  0  0  0  0  0  0  0  0  0  0  0
  1  2  2  0
  3  2  1  0
  4  3  2  0
  5  4  1  0
  5  6  2  0
  6  1  1  0
  7  5  1  0
  8  7  1  0
  9 10  1  0
  9  8  1  0
 10 11  1  0
 11 12  1  0
 12  7  1  0
 12 13  1  0
 13 14  2  0
 14 15  1  0
 16 15  2  0
 17 16  1  0
 18 13  1  0
 18 17  2  0
 19 17  1  0
 19 20  1  0
 20 21  1  0
 22 21  1  0
 23 24  1  0
 23 22  1  0
 24 19  1  0
  1 25  1  0
  2 26  1  0
  3 27  1  0
  8 28  1  0
  8 29  1  0
  9 30  1  0
  9 31  1  0
 10 32  1  0
 11 33  1  0
 11 34  1  0
 12 35  1  1
 14 36  1  0
 15 37  1  0
 16 38  1  0
 19 39  1  0
 20 40  1  0
 20 41  1  0
 21 42  1  0
 21 43  1  0
 22 44  1  0
 22 45  1  0
 23 46  1  0
 23 47  1  0
 24 48  1  0
 24 49  1  0
M  ISO  8  25  14  26  14  27  14  28  13  29  13  30  13  31  13  32   5
M  ISO  8  33  13  34  13  35  13  36  14  37  14  38  14  39  13  40  13
M  ISO  8  41  13  42  13  43  13  44  13  45  13  46  13  47  13  48  13
M  ISO  1  49  13
M  END
>  <minimizedAffinity>  (1) 
-4.68433809

>  <minimizedRMSD>  (1) 
2.04532146

$$$$
