
     RDKit          3D

 36 38  0  0  0  0  0  0  0  0999 V2000
   38.0850   26.8720   34.6320 C   0  0  0  0  0  0  0  0  0  0  0  0
   38.4260   27.5140   35.9350 C   0  0  0  0  0  0  0  0  0  0  0  0
   37.0160   27.7180   33.9460 C   0  0  0  0  0  0  0  0  0  0  0  0
   39.3100   27.0190   33.7010 C   0  0  0  0  0  0  0  0  0  0  0  0
   38.9400   26.8890   32.2730 C   0  0  0  0  0  0  0  0  0  0  0  0
   38.8650   25.7040   31.6270 N   0  0  0  0  0  0  0  0  0  0  0  0
   38.5170   25.9240   30.3890 O   0  0  0  0  0  0  0  0  0  0  0  0
   38.3590   27.2060   30.1890 C   0  0  0  0  0  0  0  0  0  0  0  0
   38.6200   27.8030   31.3510 N   0  0  0  0  0  0  0  0  0  0  0  0
   37.6810   25.1460   34.6990 S   0  0  0  0  0  0  0  0  0  0  0  0
   38.4150   23.4580   38.3440 C   0  0  0  0  0  0  0  0  0  0  0  0
   37.8260   24.1480   37.2680 C   0  0  0  0  0  0  0  0  0  0  0  0
   38.4400   24.2710   36.0460 C   0  0  0  0  0  0  0  0  0  0  0  0
   39.6630   23.6860   35.9270 N   0  0  0  0  0  0  0  0  0  0  0  0
   40.2430   23.0310   36.9200 C   0  0  0  0  0  0  0  0  0  0  0  0
   39.6440   22.9020   38.1350 N   0  0  0  0  0  0  0  0  0  0  0  0
   41.5570   22.4190   36.7450 C   0  0  0  0  0  0  0  0  0  0  0  0
   42.8340   22.8270   36.4210 C   0  0  0  0  0  0  0  0  0  0  0  0
   43.6190   21.6870   36.4350 C   0  0  0  0  0  0  0  0  0  0  0  0
   42.7570   20.6330   36.7730 C   0  0  0  0  0  0  0  0  0  0  0  0
   41.5530   21.1100   36.9460 O   0  0  0  0  0  0  0  0  0  0  0  0
   43.3600   18.9530   36.9060 S   0  0  0  0  0  0  0  0  0  0  0  0
   38.0850   26.8719   36.7605 H   0  0  0  0  0  0  0  0  0  0  0  0
   39.5154   27.6504   36.0026 H   0  0  0  0  0  0  0  0  0  0  0  0
   37.9290   28.4930   36.0026 H   0  0  0  0  0  0  0  0  0  0  0  0
   36.3936   28.2106   34.7076 H   0  0  0  0  0  0  0  0  0  0  0  0
   37.4993   28.4809   33.3180 H   0  0  0  0  0  0  0  0  0  0  0  0
   36.3846   27.0723   33.3180 H   0  0  0  0  0  0  0  0  0  0  0  0
   39.7618   28.0089   33.8621 H   0  0  0  0  0  0  0  0  0  0  0  0
   40.0193   26.2138   33.9430 H   0  0  0  0  0  0  0  0  0  0  0  0
   38.0681   27.6951   29.2476 H   0  0  0  0  0  0  0  0  0  0  0  0
   37.9052   23.3703   39.3148 H   0  0  0  0  0  0  0  0  0  0  0  0
   36.8363   24.6061   37.4114 H   0  0  0  0  0  0  0  0  0  0  0  0
   43.1627   23.8525   36.1965 H   0  0  0  0  0  0  0  0  0  0  0  0
   44.6967   21.6211   36.2245 H   0  0  0  0  0  0  0  0  0  0  0  0
   43.4814   18.6147   38.2280 H   0  0  0  0  0  0  0  0  0  0  0  0
  1 10  1  0
  1  2  1  0
  3  1  1  0
  4  1  1  0
  5  4  1  0
  6  5  2  0
  7  6  1  0
  8  7  1  0
  8  9  2  0
  9  5  1  0
 10 13  1  0
 12 11  2  0
 13 12  1  0
 14 13  2  0
 14 15  1  0
 15 16  2  0
 16 11  1  0
 17 15  1  0
 17 21  1  0
 18 19  1  0
 18 17  2  0
 19 20  2  0
 20 22  1  0
 20 21  1  0
  2 23  1  0
  2 24  1  0
  2 25  1  0
  3 26  1  0
  3 27  1  0
  3 28  1  0
  4 29  1  0
  4 30  1  0
  8 31  1  0
 11 32  1  0
 12 33  1  0
 18 34  1  0
 19 35  1  0
 22 36  1  0
M  ISO  8  23   8  24   8  25   8  26   8  27   8  28   8  29   8  30   8
M  ISO  6  31  14  32  14  33  14  34  14  35  14  36  11
M  END
>  <minimizedAffinity>  (1) 
-4.87795782

>  <minimizedRMSD>  (1) 
0.311856478

$$$$
