
     RDKit          3D

 46 49  0  0  1  0  0  0  0  0999 V2000
   39.5560   22.8940   37.5610 C   0  0  0  0  0  0  0  0  0  0  0  0
   38.7780   23.3630   38.6330 C   0  0  0  0  0  0  0  0  0  0  0  0
   37.9820   24.4700   38.3940 C   0  0  0  0  0  0  0  0  0  0  0  0
   38.0030   25.0230   37.1580 N   0  0  0  0  0  0  0  0  0  0  0  0
   38.7660   24.5510   36.1330 C   0  0  0  0  0  0  0  0  0  0  0  0
   39.5390   23.4790   36.3610 N   0  0  0  0  0  0  0  0  0  0  0  0
   38.6880   25.2280   34.8980 N   0  0  0  0  0  0  0  0  0  0  0  0
   37.3920   25.5910   34.3920 C   0  0  0  0  0  0  0  0  0  0  0  0
   37.4490   26.4770   33.1870 C   0  0  0  0  0  0  0  0  0  0  0  0
   38.6520   27.2570   33.2350 N   0  0  0  0  0  0  0  0  0  0  0  0
   39.7420   26.3110   32.9620 C   0  0  0  0  0  0  0  0  0  0  0  0
   39.9690   25.4990   34.2340 C   0  0  2  0  0  0  0  0  0  0  0  0
   40.7350   24.2550   34.0060 C   0  0  0  0  0  0  0  0  0  0  0  0
   42.0610   24.1900   34.3540 C   0  0  0  0  0  0  0  0  0  0  0  0
   42.8800   23.0930   34.1980 C   0  0  0  0  0  0  0  0  0  0  0  0
   42.2750   21.9800   33.6380 C   0  0  0  0  0  0  0  0  0  0  0  0
   40.9460   22.0560   33.2920 C   0  0  0  0  0  0  0  0  0  0  0  0
   40.2110   23.1600   33.4750 N   0  0  0  0  0  0  0  0  0  0  0  0
   38.7810   18.7830   31.5660 C   0  0  0  0  0  0  0  0  0  0  0  0
   38.1220   19.9150   31.9910 C   0  0  0  0  0  0  0  0  0  0  0  0
   38.8860   20.9270   32.5360 C   0  0  0  0  0  0  0  0  0  0  0  0
   40.2570   20.9150   32.6990 C   0  0  0  0  0  0  0  0  0  0  0  0
   40.8630   19.7580   32.2570 C   0  0  0  0  0  0  0  0  0  0  0  0
   40.1510   18.7130   31.7040 C   0  0  0  0  0  0  0  0  0  0  0  0
   37.9910   17.3950   30.8500 S   0  0  0  0  0  0  0  0  0  0  0  0
   39.0920   16.5390   30.2400 O   0  0  0  0  0  0  0  0  0  0  0  0
   37.4290   16.5530   31.9730 O   0  0  0  0  0  0  0  0  0  0  0  0
   40.2003   22.0159   37.7156 H   0  0  0  0  0  0  0  0  0  0  0  0
   38.8005   22.8727   39.6174 H   0  0  0  0  0  0  0  0  0  0  0  0
   37.3479   24.8902   39.1886 H   0  0  0  0  0  0  0  0  0  0  0  0
   36.8530   24.6707   34.1225 H   0  0  0  0  0  0  0  0  0  0  0  0
   36.8811   26.1560   35.1856 H   0  0  0  0  0  0  0  0  0  0  0  0
   36.5760   27.1462   33.1801 H   0  0  0  0  0  0  0  0  0  0  0  0
   37.4414   25.8628   32.2745 H   0  0  0  0  0  0  0  0  0  0  0  0
   38.6300   27.9976   32.5195 H   0  0  0  0  0  0  0  0  0  0  0  0
   39.4619   25.6430   32.1342 H   0  0  0  0  0  0  0  0  0  0  0  0
   40.6586   26.8464   32.6736 H   0  0  0  0  0  0  0  0  0  0  0  0
   40.5943   26.1126   34.8993 H   0  0  0  0  0  0  0  0  0  0  0  0
   42.5089   25.0922   34.7959 H   0  0  0  0  0  0  0  0  0  0  0  0
   43.9386   23.1006   34.4968 H   0  0  0  0  0  0  0  0  0  0  0  0
   42.8458   21.0542   33.4733 H   0  0  0  0  0  0  0  0  0  0  0  0
   37.0298   20.0090   31.8997 H   0  0  0  0  0  0  0  0  0  0  0  0
   38.3523   21.8282   32.8722 H   0  0  0  0  0  0  0  0  0  0  0  0
   41.9552   19.6643   32.3486 H   0  0  0  0  0  0  0  0  0  0  0  0
   40.6842   17.8113   31.3685 H   0  0  0  0  0  0  0  0  0  0  0  0
   37.0318   17.7847   29.9528 H   0  0  0  0  0  0  0  0  0  0  0  0
  1  2  2  0
  3  2  1  0
  4  3  2  0
  5  6  2  0
  5  4  1  0
  6  1  1  0
  7  5  1  0
  8  7  1  0
  9 10  1  0
  9  8  1  0
 11 10  1  0
 11 12  1  0
 12  7  1  0
 13 12  1  0
 13 14  2  0
 15 14  1  0
 16 15  2  0
 17 18  2  0
 17 16  1  0
 18 13  1  0
 19 24  2  0
 19 20  1  0
 20 21  2  0
 21 22  1  0
 22 17  1  0
 23 22  2  0
 24 23  1  0
 25 19  1  0
 25 27  2  0
 26 25  2  0
  1 28  1  0
  2 29  1  0
  3 30  1  0
  8 31  1  0
  8 32  1  0
  9 33  1  0
  9 34  1  0
 10 35  1  0
 11 36  1  0
 11 37  1  0
 12 38  1  1
 14 39  1  0
 15 40  1  0
 16 41  1  0
 20 42  1  0
 21 43  1  0
 23 44  1  0
 24 45  1  0
 25 46  1  0
M  ISO  8  28  14  29  14  30  14  31  13  32  13  33  13  34  13  35   5
M  ISO  8  36  13  37  13  38  13  39  14  40  14  41  14  42  14  43  14
M  ISO  3  44  14  45  14  46  11
M  END
>  <minimizedAffinity>  (1) 
-4.4595418

>  <minimizedRMSD>  (1) 
2.09137893

$$$$
