
     RDKit          3D

 15 16  0  0  0  0  0  0  0  0999 V2000
   42.3590   20.9260   37.1120 C   0  0  0  0  0  0  0  0  0  0  0  0
   41.2410   21.6380   37.5750 C   0  0  0  0  0  0  0  0  0  0  0  0
   40.4460   22.2940   36.6250 C   0  0  0  0  0  0  0  0  0  0  0  0
   40.8130   22.1970   35.3040 N   0  0  0  0  0  0  0  0  0  0  0  0
   41.8960   21.5020   34.8990 C   0  0  0  0  0  0  0  0  0  0  0  0
   42.6690   20.8660   35.8130 N   0  0  0  0  0  0  0  0  0  0  0  0
   39.2660   23.0550   37.0250 C   0  0  0  0  0  0  0  0  0  0  0  0
   38.2670   23.6790   36.3550 N   0  0  0  0  0  0  0  0  0  0  0  0
   37.4470   24.2200   37.2090 O   0  0  0  0  0  0  0  0  0  0  0  0
   37.8590   23.9840   38.4360 C   0  0  0  0  0  0  0  0  0  0  0  0
   38.9830   23.2630   38.3300 N   0  0  0  0  0  0  0  0  0  0  0  0
   42.9979   20.4028   37.8387 H   0  0  0  0  0  0  0  0  0  0  0  0
   40.9972   21.6796   38.6468 H   0  0  0  0  0  0  0  0  0  0  0  0
   42.1510   21.4516   33.8302 H   0  0  0  0  0  0  0  0  0  0  0  0
   37.3750   24.3142   39.3670 H   0  0  0  0  0  0  0  0  0  0  0  0
  1  2  2  0
  3  7  1  0
  3  2  1  0
  4  3  2  0
  5  4  1  0
  5  6  2  0
  6  1  1  0
  7 11  1  0
  8  7  2  0
  8  9  1  0
  9 10  1  0
 11 10  2  0
  1 12  1  0
  2 13  1  0
  5 14  1  0
 10 15  1  0
M  ISO  4  12  14  13  14  14  14  15  14
M  END
>  <minimizedAffinity>  (1) 
-3.3474164

>  <minimizedRMSD>  (1) 
3.17609048

$$$$
