
     RDKit          3D

 45 47  0  0  1  0  0  0  0  0999 V2000
   39.7200   22.9200   37.9310 C   0  0  0  0  0  0  0  0  0  0  0  0
   38.4480   23.2780   38.3860 C   0  0  0  0  0  0  0  0  0  0  0  0
   37.6810   24.0570   37.5460 C   0  0  0  0  0  0  0  0  0  0  0  0
   38.1900   24.4270   36.3480 N   0  0  0  0  0  0  0  0  0  0  0  0
   39.4330   24.0650   35.9280 C   0  0  0  0  0  0  0  0  0  0  0  0
   40.1840   23.3070   36.7400 N   0  0  0  0  0  0  0  0  0  0  0  0
   39.8460   24.5170   34.6540 N   0  0  0  0  0  0  0  0  0  0  0  0
   38.9210   24.4010   33.5420 C   0  0  0  0  0  0  0  0  0  0  0  0
   39.3800   25.1170   32.3140 C   0  0  0  0  0  0  0  0  0  0  0  0
   40.2410   26.2000   32.6780 N   0  0  0  0  0  0  0  0  0  0  0  0
   41.4780   25.5860   33.1710 C   0  0  0  0  0  0  0  0  0  0  0  0
   41.2020   25.0710   34.5820 C   0  0  2  0  0  0  0  0  0  0  0  0
   42.2060   24.0740   35.0310 C   0  0  0  0  0  0  0  0  0  0  0  0
   43.1050   24.4130   36.0170 C   0  0  0  0  0  0  0  0  0  0  0  0
   44.0840   23.6080   36.5400 C   0  0  0  0  0  0  0  0  0  0  0  0
   44.1460   22.3210   35.9910 C   0  0  0  0  0  0  0  0  0  0  0  0
   43.2320   21.9930   34.9990 C   0  0  0  0  0  0  0  0  0  0  0  0
   42.3030   22.8430   34.5430 N   0  0  0  0  0  0  0  0  0  0  0  0
   43.3030   20.6170   34.4180 C   0  0  0  0  0  0  0  0  0  0  0  0
   43.2120   19.5660   35.5140 C   0  0  0  0  0  0  0  0  0  0  0  0
   44.6820   20.4780   33.7650 C   0  0  0  0  0  0  0  0  0  0  0  0
   42.1990   20.3690   33.4260 C   0  0  0  0  0  0  0  0  0  0  0  0
   40.3600   22.2991   38.5750 H   0  0  0  0  0  0  0  0  0  0  0  0
   38.0760   22.9532   39.3689 H   0  0  0  0  0  0  0  0  0  0  0  0
   36.6707   24.3730   37.8451 H   0  0  0  0  0  0  0  0  0  0  0  0
   38.7987   23.3351   33.2994 H   0  0  0  0  0  0  0  0  0  0  0  0
   37.9748   24.8661   33.8556 H   0  0  0  0  0  0  0  0  0  0  0  0
   38.5069   25.5106   31.7729 H   0  0  0  0  0  0  0  0  0  0  0  0
   39.9305   24.4161   31.6693 H   0  0  0  0  0  0  0  0  0  0  0  0
   40.4374   26.7919   31.8583 H   0  0  0  0  0  0  0  0  0  0  0  0
   41.7701   24.7514   32.5167 H   0  0  0  0  0  0  0  0  0  0  0  0
   42.2986   26.3184   33.1787 H   0  0  0  0  0  0  0  0  0  0  0  0
   41.2831   25.9261   35.2692 H   0  0  0  0  0  0  0  0  0  0  0  0
   43.0305   25.4314   36.4261 H   0  0  0  0  0  0  0  0  0  0  0  0
   44.7690   23.9473   37.3310 H   0  0  0  0  0  0  0  0  0  0  0  0
   44.8954   21.5930   36.3351 H   0  0  0  0  0  0  0  0  0  0  0  0
   43.2545   20.0571   36.4974 H   0  0  0  0  0  0  0  0  0  0  0  0
   42.2630   19.0179   35.4186 H   0  0  0  0  0  0  0  0  0  0  0  0
   44.0526   18.8630   35.4186 H   0  0  0  0  0  0  0  0  0  0  0  0
   45.4518   20.4004   34.5469 H   0  0  0  0  0  0  0  0  0  0  0  0
   44.7021   19.5733   33.1396 H   0  0  0  0  0  0  0  0  0  0  0  0
   44.8822   21.3605   33.1396 H   0  0  0  0  0  0  0  0  0  0  0  0
   41.2629   20.1587   33.9641 H   0  0  0  0  0  0  0  0  0  0  0  0
   42.0667   21.2598   32.7944 H   0  0  0  0  0  0  0  0  0  0  0  0
   42.4604   19.5072   32.7944 H   0  0  0  0  0  0  0  0  0  0  0  0
  1  2  2  0
  3  2  1  0
  4  3  2  0
  5  4  1  0
  5  6  2  0
  6  1  1  0
  7  5  1  0
  8  7  1  0
  9 10  1  0
  9  8  1  0
 10 11  1  0
 11 12  1  0
 12  7  1  0
 12 13  1  0
 13 14  2  0
 14 15  1  0
 16 15  2  0
 17 16  1  0
 18 17  2  0
 18 13  1  0
 19 17  1  0
 19 20  1  0
 21 19  1  0
 22 19  1  0
  1 23  1  0
  2 24  1  0
  3 25  1  0
  8 26  1  0
  8 27  1  0
  9 28  1  0
  9 29  1  0
 10 30  1  0
 11 31  1  0
 11 32  1  0
 12 33  1  1
 14 34  1  0
 15 35  1  0
 16 36  1  0
 20 37  1  0
 20 38  1  0
 20 39  1  0
 21 40  1  0
 21 41  1  0
 21 42  1  0
 22 43  1  0
 22 44  1  0
 22 45  1  0
M  ISO  8  23  14  24  14  25  14  26  13  27  13  28  13  29  13  30   5
M  ISO  8  31  13  32  13  33  13  34  14  35  14  36  14  37   8  38   8
M  ISO  7  39   8  40   8  41   8  42   8  43   8  44   8  45   8
M  END
>  <minimizedAffinity>  (1) 
-4.32134104

>  <minimizedRMSD>  (1) 
1.31024849

$$$$
