
     RDKit          3D

 34 36  0  0  1  0  0  0  0  0999 V2000
   39.8010   22.9310   37.7270 C   0  0  0  0  0  0  0  0  0  0  0  0
   38.6690   23.1670   38.5270 C   0  0  0  0  0  0  0  0  0  0  0  0
   37.7240   24.0600   38.0360 C   0  0  0  0  0  0  0  0  0  0  0  0
   37.9530   24.6380   36.8310 N   0  0  0  0  0  0  0  0  0  0  0  0
   39.0620   24.3870   36.0830 C   0  0  0  0  0  0  0  0  0  0  0  0
   39.9750   23.5280   36.5500 N   0  0  0  0  0  0  0  0  0  0  0  0
   39.1630   25.0640   34.8480 N   0  0  0  0  0  0  0  0  0  0  0  0
   38.0080   25.1170   33.9870 C   0  0  0  0  0  0  0  0  0  0  0  0
   38.1780   26.0370   32.8190 C   0  0  0  0  0  0  0  0  0  0  0  0
   39.1070   27.0550   33.1340 N   0  0  0  0  0  0  0  0  0  0  0  0
   40.4170   26.4340   33.2390 C   0  0  0  0  0  0  0  0  0  0  0  0
   40.4690   25.6640   34.5500 C   0  0  2  0  0  0  0  0  0  0  0  0
   41.5470   24.6440   34.5810 C   0  0  0  0  0  0  0  0  0  0  0  0
   42.6380   24.8300   35.4000 C   0  0  0  0  0  0  0  0  0  0  0  0
   43.7050   23.9740   35.5340 C   0  0  0  0  0  0  0  0  0  0  0  0
   43.6330   22.8130   34.7450 C   0  0  0  0  0  0  0  0  0  0  0  0
   42.5310   22.6420   33.9300 C   0  0  0  0  0  0  0  0  0  0  0  0
   41.5280   23.5250   33.8520 N   0  0  0  0  0  0  0  0  0  0  0  0
   42.3930   21.5190   33.1230 O   0  0  0  0  0  0  0  0  0  0  0  0
   40.5686   22.2295   38.0858 H   0  0  0  0  0  0  0  0  0  0  0  0
   38.5373   22.6672   39.4980 H   0  0  0  0  0  0  0  0  0  0  0  0
   36.8145   24.2917   38.6097 H   0  0  0  0  0  0  0  0  0  0  0  0
   37.8100   24.1040   33.6068 H   0  0  0  0  0  0  0  0  0  0  0  0
   37.1731   25.5067   34.5879 H   0  0  0  0  0  0  0  0  0  0  0  0
   37.2083   26.4933   32.5711 H   0  0  0  0  0  0  0  0  0  0  0  0
   38.5517   25.4619   31.9590 H   0  0  0  0  0  0  0  0  0  0  0  0
   39.1141   27.7671   32.3899 H   0  0  0  0  0  0  0  0  0  0  0  0
   40.5723   25.7454   32.3953 H   0  0  0  0  0  0  0  0  0  0  0  0
   41.2059   27.2001   33.2145 H   0  0  0  0  0  0  0  0  0  0  0  0
   40.7131   26.3922   35.3375 H   0  0  0  0  0  0  0  0  0  0  0  0
   42.6575   25.7495   36.0034 H   0  0  0  0  0  0  0  0  0  0  0  0
   44.5501   24.1815   36.2068 H   0  0  0  0  0  0  0  0  0  0  0  0
   44.4340   22.0597   34.7758 H   0  0  0  0  0  0  0  0  0  0  0  0
   41.5940   21.4184   32.5471 H   0  0  0  0  0  0  0  0  0  0  0  0
  1  2  2  0
  3  2  1  0
  4  3  2  0
  5  6  2  0
  5  4  1  0
  6  1  1  0
  7  5  1  0
  8  7  1  0
  9 10  1  0
  9  8  1  0
 10 11  1  0
 11 12  1  0
 12 13  1  0
 12  7  1  0
 13 14  2  0
 14 15  1  0
 16 15  2  0
 17 16  1  0
 18 17  2  0
 18 13  1  0
 19 17  1  0
  1 20  1  0
  2 21  1  0
  3 22  1  0
  8 23  1  0
  8 24  1  0
  9 25  1  0
  9 26  1  0
 10 27  1  0
 11 28  1  0
 11 29  1  0
 12 30  1  1
 14 31  1  0
 15 32  1  0
 16 33  1  0
 19 34  1  0
M  ISO  8  20  14  21  14  22  14  23  13  24  13  25  13  26  13  27   5
M  ISO  7  28  13  29  13  30  13  31  14  32  14  33  14  34   3
M  END
>  <minimizedAffinity>  (1) 
-4.15217972

>  <minimizedRMSD>  (1) 
0.0648994148

$$$$
