
     RDKit          3D

 37 41  0  0  0  0  0  0  0  0999 V2000
   37.7270   22.9680   33.5260 C   0  0  0  0  0  0  0  0  0  0  0  0
   37.2340   24.2240   33.1860 C   0  0  0  0  0  0  0  0  0  0  0  0
   38.0580   25.3220   33.3910 C   0  0  0  0  0  0  0  0  0  0  0  0
   39.3150   25.0890   33.9200 N   0  0  0  0  0  0  0  0  0  0  0  0
   39.7550   23.8780   34.2340 C   0  0  0  0  0  0  0  0  0  0  0  0
   38.9780   22.8190   34.0440 N   0  0  0  0  0  0  0  0  0  0  0  0
   36.9800   21.7760   33.3620 N   0  0  0  0  0  0  0  0  0  0  0  0
   36.2400   21.2500   34.3770 C   0  0  0  0  0  0  0  0  0  0  0  0
   35.6180   20.1180   33.9880 N   0  0  0  0  0  0  0  0  0  0  0  0
   35.9450   19.8930   32.7070 C   0  0  0  0  0  0  0  0  0  0  0  0
   35.6560   18.9320   31.7410 C   0  0  0  0  0  0  0  0  0  0  0  0
   36.1790   19.0190   30.5050 N   0  0  0  0  0  0  0  0  0  0  0  0
   36.9900   20.0440   30.1980 C   0  0  0  0  0  0  0  0  0  0  0  0
   37.3040   21.0060   31.1020 N   0  0  0  0  0  0  0  0  0  0  0  0
   36.7870   20.9260   32.3360 C   0  0  0  0  0  0  0  0  0  0  0  0
   34.7790   17.9030   32.2190 N   0  0  0  0  0  0  0  0  0  0  0  0
   37.5530   26.6430   33.0390 C   0  0  0  0  0  0  0  0  0  0  0  0
   36.8050   27.4310   33.9250 C   0  0  0  0  0  0  0  0  0  0  0  0
   36.5230   28.5730   33.2400 N   0  0  0  0  0  0  0  0  0  0  0  0
   37.0800   28.4460   32.0250 C   0  0  0  0  0  0  0  0  0  0  0  0
   37.6970   27.3010   31.8910 N   0  0  0  0  0  0  0  0  0  0  0  0
   39.3240   25.8410   29.0890 N   0  0  0  0  0  0  0  0  0  0  0  0
   38.6440   25.6570   30.2160 N   0  0  0  0  0  0  0  0  0  0  0  0
   38.3740   26.8800   30.7350 C   0  0  0  0  0  0  0  0  0  0  0  0
   38.9120   27.8230   29.8870 C   0  0  0  0  0  0  0  0  0  0  0  0
   39.5150   27.1620   28.8420 C   0  0  0  0  0  0  0  0  0  0  0  0
   36.2235   24.3430   32.7681 H   0  0  0  0  0  0  0  0  0  0  0  0
   40.7645   23.7512   34.6521 H   0  0  0  0  0  0  0  0  0  0  0  0
   36.1600   21.6903   35.3819 H   0  0  0  0  0  0  0  0  0  0  0  0
   37.4122   20.1057   29.1841 H   0  0  0  0  0  0  0  0  0  0  0  0
   34.4946   17.1366   31.5924 H   0  0  0  0  0  0  0  0  0  0  0  0
   34.4335   17.9303   33.1889 H   0  0  0  0  0  0  0  0  0  0  0  0
   36.5091   27.1800   34.9543 H   0  0  0  0  0  0  0  0  0  0  0  0
   37.0241   29.2123   31.2378 H   0  0  0  0  0  0  0  0  0  0  0  0
   39.6620   25.0804   28.4822 H   0  0  0  0  0  0  0  0  0  0  0  0
   38.8673   28.9138   30.0219 H   0  0  0  0  0  0  0  0  0  0  0  0
   40.0413   27.6098   27.9862 H   0  0  0  0  0  0  0  0  0  0  0  0
  1  6  2  0
  2  3  2  0
  2  1  1  0
  3  4  1  0
  4  5  2  0
  6  5  1  0
  7  1  1  0
  7  8  1  0
  9  8  2  0
 10  9  1  0
 11 16  1  0
 11 10  2  0
 12 11  1  0
 13 12  2  0
 13 14  1  0
 14 15  2  0
 15 10  1  0
 15  7  1  0
 17  3  1  0
 17 18  2  0
 19 18  1  0
 20 19  2  0
 21 20  1  0
 21 17  1  0
 22 23  1  0
 23 24  2  0
 24 21  1  0
 25 24  1  0
 26 22  1  0
 26 25  2  0
  2 27  1  0
  5 28  1  0
  8 29  1  0
 13 30  1  0
 16 31  1  0
 16 32  1  0
 18 33  1  0
 20 34  1  0
 22 35  1  0
 25 36  1  0
 26 37  1  0
M  ISO  8  27  14  28  14  29  14  30  14  33  14  34  14  35   9  36  14
M  ISO  1  37  14
M  END
>  <minimizedAffinity>  (1) 
-5.42119789

>  <minimizedRMSD>  (1) 
1.3999145

$$$$
