
     RDKit          3D

 44 49  0  0  0  0  0  0  0  0999 V2000
   37.2510   22.9400   33.2100 C   0  0  0  0  0  0  0  0  0  0  0  0
   37.1160   24.1560   32.5230 C   0  0  0  0  0  0  0  0  0  0  0  0
   37.6400   25.3030   33.1120 C   0  0  0  0  0  0  0  0  0  0  0  0
   38.2560   25.1580   34.3410 N   0  0  0  0  0  0  0  0  0  0  0  0
   38.3650   23.9850   34.9650 C   0  0  0  0  0  0  0  0  0  0  0  0
   37.8690   22.8850   34.4100 N   0  0  0  0  0  0  0  0  0  0  0  0
   36.7600   21.7190   32.7060 N   0  0  0  0  0  0  0  0  0  0  0  0
   35.4260   21.4850   32.5670 C   0  0  0  0  0  0  0  0  0  0  0  0
   35.1910   20.2540   32.0690 N   0  0  0  0  0  0  0  0  0  0  0  0
   36.3780   19.6650   31.8740 C   0  0  0  0  0  0  0  0  0  0  0  0
   36.8200   18.4290   31.3960 C   0  0  0  0  0  0  0  0  0  0  0  0
   38.1330   18.1590   31.3330 N   0  0  0  0  0  0  0  0  0  0  0  0
   39.0310   19.0960   31.7380 C   0  0  0  0  0  0  0  0  0  0  0  0
   38.6430   20.3120   32.2080 N   0  0  0  0  0  0  0  0  0  0  0  0
   37.3230   20.5830   32.2720 C   0  0  0  0  0  0  0  0  0  0  0  0
   35.7730   17.5590   31.0140 N   0  0  0  0  0  0  0  0  0  0  0  0
   37.5060   26.5660   32.4090 C   0  0  0  0  0  0  0  0  0  0  0  0
   36.3970   27.4050   32.5570 C   0  0  0  0  0  0  0  0  0  0  0  0
   36.6380   28.4690   31.7510 N   0  0  0  0  0  0  0  0  0  0  0  0
   37.8360   28.2560   31.1600 C   0  0  0  0  0  0  0  0  0  0  0  0
   38.3580   27.1190   31.5510 N   0  0  0  0  0  0  0  0  0  0  0  0
   39.6110   26.6080   31.1110 C   0  0  0  0  0  0  0  0  0  0  0  0
   40.0030   25.9520   29.9520 C   0  0  0  0  0  0  0  0  0  0  0  0
   41.3170   25.6800   30.0330 N   0  0  0  0  0  0  0  0  0  0  0  0
   41.8100   26.1350   31.2130 C   0  0  0  0  0  0  0  0  0  0  0  0
   43.0960   26.0960   31.7630 C   0  0  0  0  0  0  0  0  0  0  0  0
   43.3070   26.6500   33.0100 C   0  0  0  0  0  0  0  0  0  0  0  0
   42.2620   27.2320   33.6970 C   0  0  0  0  0  0  0  0  0  0  0  0
   40.9810   27.2750   33.1590 C   0  0  0  0  0  0  0  0  0  0  0  0
   40.7520   26.7250   31.9120 C   0  0  0  0  0  0  0  0  0  0  0  0
   36.6106   24.2014   31.5470 H   0  0  0  0  0  0  0  0  0  0  0  0
   38.8670   23.9280   35.9421 H   0  0  0  0  0  0  0  0  0  0  0  0
   34.6395   22.2084   32.8279 H   0  0  0  0  0  0  0  0  0  0  0  0
   40.1048   18.8635   31.6839 H   0  0  0  0  0  0  0  0  0  0  0  0
   35.9904   16.6213   30.6474 H   0  0  0  0  0  0  0  0  0  0  0  0
   34.7928   17.8629   31.1023 H   0  0  0  0  0  0  0  0  0  0  0  0
   35.5152   27.2374   33.1929 H   0  0  0  0  0  0  0  0  0  0  0  0
   38.3095   28.9457   30.4458 H   0  0  0  0  0  0  0  0  0  0  0  0
   39.3467   25.6969   29.1069 H   0  0  0  0  0  0  0  0  0  0  0  0
   41.8675   25.1983   29.3079 H   0  0  0  0  0  0  0  0  0  0  0  0
   43.9259   25.6312   31.2106 H   0  0  0  0  0  0  0  0  0  0  0  0
   44.3118   26.6272   33.4571 H   0  0  0  0  0  0  0  0  0  0  0  0
   42.4458   27.6702   34.6891 H   0  0  0  0  0  0  0  0  0  0  0  0
   40.1581   27.7420   33.7200 H   0  0  0  0  0  0  0  0  0  0  0  0
  1  6  2  0
  2  3  2  0
  2  1  1  0
  3  4  1  0
  4  5  2  0
  6  5  1  0
  7  1  1  0
  8  7  1  0
  9  8  2  0
 10  9  1  0
 10 15  2  0
 11 10  1  0
 12 11  2  0
 12 13  1  0
 13 14  2  0
 14 15  1  0
 15  7  1  0
 16 11  1  0
 17 18  2  0
 17  3  1  0
 19 18  1  0
 20 21  1  0
 20 19  2  0
 21 17  1  0
 22 21  1  0
 22 30  1  0
 23 24  1  0
 23 22  2  0
 24 25  1  0
 25 26  1  0
 25 30  2  0
 26 27  2  0
 27 28  1  0
 29 28  2  0
 30 29  1  0
  2 31  1  0
  5 32  1  0
  8 33  1  0
 13 34  1  0
 16 35  1  0
 16 36  1  0
 18 37  1  0
 20 38  1  0
 23 39  1  0
 24 40  1  0
 26 41  1  0
 27 42  1  0
 28 43  1  0
 29 44  1  0
M  ISO  8  31  14  32  14  33  14  34  14  37  14  38  14  39  14  40   9
M  ISO  4  41  14  42  14  43  14  44  14
M  END
>  <minimizedAffinity>  (1) 
-5.24174643

>  <minimizedRMSD>  (1) 
2.32873702

$$$$
