
     RDKit          3D

 37 41  0  0  0  0  0  0  0  0999 V2000
   37.5520   22.0610   34.2650 C   0  0  0  0  0  0  0  0  0  0  0  0
   38.4440   23.1150   34.0460 C   0  0  0  0  0  0  0  0  0  0  0  0
   38.8230   23.8710   35.1540 C   0  0  0  0  0  0  0  0  0  0  0  0
   38.2920   23.5260   36.3840 N   0  0  0  0  0  0  0  0  0  0  0  0
   37.4430   22.5090   36.5440 C   0  0  0  0  0  0  0  0  0  0  0  0
   37.0710   21.7760   35.4960 N   0  0  0  0  0  0  0  0  0  0  0  0
   37.0970   21.2260   33.2190 N   0  0  0  0  0  0  0  0  0  0  0  0
   35.7640   21.1270   32.9130 C   0  0  0  0  0  0  0  0  0  0  0  0
   35.5570   20.2750   31.8820 N   0  0  0  0  0  0  0  0  0  0  0  0
   36.7500   19.8110   31.5040 C   0  0  0  0  0  0  0  0  0  0  0  0
   37.2410   18.9300   30.5360 C   0  0  0  0  0  0  0  0  0  0  0  0
   38.5560   18.6760   30.4220 N   0  0  0  0  0  0  0  0  0  0  0  0
   39.4190   19.2910   31.2690 C   0  0  0  0  0  0  0  0  0  0  0  0
   39.0030   20.1560   32.2270 N   0  0  0  0  0  0  0  0  0  0  0  0
   37.6730   20.4060   32.3350 C   0  0  0  0  0  0  0  0  0  0  0  0
   36.2080   18.3660   29.7270 N   0  0  0  0  0  0  0  0  0  0  0  0
   39.7480   24.9730   34.9530 C   0  0  0  0  0  0  0  0  0  0  0  0
   39.3380   26.2920   34.7010 C   0  0  0  0  0  0  0  0  0  0  0  0
   40.4820   27.0080   34.5750 N   0  0  0  0  0  0  0  0  0  0  0  0
   41.5150   26.1530   34.7450 C   0  0  0  0  0  0  0  0  0  0  0  0
   41.0770   24.9370   34.9700 N   0  0  0  0  0  0  0  0  0  0  0  0
   41.9200   23.8000   35.1910 C   0  0  0  0  0  0  0  0  0  0  0  0
   42.3350   23.3130   36.4530 C   0  0  0  0  0  0  0  0  0  0  0  0
   43.1360   22.2200   36.4730 C   0  0  0  0  0  0  0  0  0  0  0  0
   43.4990   21.6450   35.2310 C   0  0  0  0  0  0  0  0  0  0  0  0
   42.6640   22.7080   34.0200 S   0  0  0  0  0  0  0  0  0  0  0  0
   38.8308   23.3385   33.0408 H   0  0  0  0  0  0  0  0  0  0  0  0
   37.0493   22.2754   37.5442 H   0  0  0  0  0  0  0  0  0  0  0  0
   34.9650   21.6706   33.4384 H   0  0  0  0  0  0  0  0  0  0  0  0
   40.4946   19.0805   31.1754 H   0  0  0  0  0  0  0  0  0  0  0  0
   36.4461   17.7008   28.9775 H   0  0  0  0  0  0  0  0  0  0  0  0
   35.2249   18.6244   29.8930 H   0  0  0  0  0  0  0  0  0  0  0  0
   38.3063   26.6654   34.6224 H   0  0  0  0  0  0  0  0  0  0  0  0
   42.5766   26.4376   34.7008 H   0  0  0  0  0  0  0  0  0  0  0  0
   42.0186   23.8042   37.3850 H   0  0  0  0  0  0  0  0  0  0  0  0
   43.4923   21.7938   37.4224 H   0  0  0  0  0  0  0  0  0  0  0  0
   44.1339   20.7662   35.0450 H   0  0  0  0  0  0  0  0  0  0  0  0
  1  6  1  0
  2  1  2  0
  2  3  1  0
  3  4  2  0
  4  5  1  0
  6  5  2  0
  7  1  1  0
  8  7  1  0
  9  8  2  0
 10  9  1  0
 10 15  2  0
 11 10  1  0
 12 11  2  0
 12 13  1  0
 13 14  2  0
 14 15  1  0
 15  7  1  0
 16 11  1  0
 17 21  1  0
 17  3  1  0
 18 17  2  0
 19 18  1  0
 19 20  2  0
 20 21  1  0
 21 22  1  0
 22 23  2  0
 23 24  1  0
 25 24  2  0
 26 22  1  0
 26 25  1  0
  2 27  1  0
  5 28  1  0
  8 29  1  0
 13 30  1  0
 16 31  1  0
 16 32  1  0
 18 33  1  0
 20 34  1  0
 23 35  1  0
 24 36  1  0
 25 37  1  0
M  ISO  8  27  14  28  14  29  14  30  14  33  14  34  14  35  14  36  14
M  ISO  1  37  14
M  END
>  <minimizedAffinity>  (1) 
-5.01400995

>  <minimizedRMSD>  (1) 
3.61594582

$$$$
