
     RDKit          3D

 37 41  0  0  0  0  0  0  0  0999 V2000
   37.7450   22.9810   33.4560 C   0  0  0  0  0  0  0  0  0  0  0  0
   37.3030   24.2230   32.9620 C   0  0  0  0  0  0  0  0  0  0  0  0
   38.1220   25.3180   33.1620 C   0  0  0  0  0  0  0  0  0  0  0  0
   39.3140   25.1130   33.8320 N   0  0  0  0  0  0  0  0  0  0  0  0
   39.7010   23.9200   34.2850 C   0  0  0  0  0  0  0  0  0  0  0  0
   38.9230   22.8580   34.1000 N   0  0  0  0  0  0  0  0  0  0  0  0
   36.9860   21.7820   33.3100 N   0  0  0  0  0  0  0  0  0  0  0  0
   36.2490   21.2810   34.3410 C   0  0  0  0  0  0  0  0  0  0  0  0
   35.6170   20.1470   33.9770 N   0  0  0  0  0  0  0  0  0  0  0  0
   35.9380   19.8960   32.6960 C   0  0  0  0  0  0  0  0  0  0  0  0
   35.6390   18.9230   31.7490 C   0  0  0  0  0  0  0  0  0  0  0  0
   36.1560   18.9840   30.5090 N   0  0  0  0  0  0  0  0  0  0  0  0
   36.9730   20.0010   30.1820 C   0  0  0  0  0  0  0  0  0  0  0  0
   37.2950   20.9780   31.0770 N   0  0  0  0  0  0  0  0  0  0  0  0
   36.7740   20.9130   32.3210 C   0  0  0  0  0  0  0  0  0  0  0  0
   34.7600   17.9060   32.2360 N   0  0  0  0  0  0  0  0  0  0  0  0
   37.6750   26.6080   32.6560 C   0  0  0  0  0  0  0  0  0  0  0  0
   36.8600   27.4740   33.4210 C   0  0  0  0  0  0  0  0  0  0  0  0
   36.6620   28.5590   32.6130 N   0  0  0  0  0  0  0  0  0  0  0  0
   37.3170   28.3300   31.4680 C   0  0  0  0  0  0  0  0  0  0  0  0
   37.9330   27.1610   31.4740 N   0  0  0  0  0  0  0  0  0  0  0  0
   38.7160   26.6170   30.4150 C   0  0  0  0  0  0  0  0  0  0  0  0
   39.1450   25.3480   30.0130 C   0  0  0  0  0  0  0  0  0  0  0  0
   39.9010   25.5480   28.8570 C   0  0  0  0  0  0  0  0  0  0  0  0
   39.8870   26.9110   28.6270 C   0  0  0  0  0  0  0  0  0  0  0  0
   39.1870   27.4940   29.5580 O   0  0  0  0  0  0  0  0  0  0  0  0
   36.3414   24.3183   32.4363 H   0  0  0  0  0  0  0  0  0  0  0  0
   40.6616   23.8149   34.8105 H   0  0  0  0  0  0  0  0  0  0  0  0
   36.1790   21.7408   35.3379 H   0  0  0  0  0  0  0  0  0  0  0  0
   37.3924   20.0458   29.1661 H   0  0  0  0  0  0  0  0  0  0  0  0
   34.4722   17.1345   31.6173 H   0  0  0  0  0  0  0  0  0  0  0  0
   34.4145   17.9449   33.2056 H   0  0  0  0  0  0  0  0  0  0  0  0
   36.4725   27.3113   34.4375 H   0  0  0  0  0  0  0  0  0  0  0  0
   37.3397   29.0324   30.6218 H   0  0  0  0  0  0  0  0  0  0  0  0
   38.9305   24.3888   30.5068 H   0  0  0  0  0  0  0  0  0  0  0  0
   40.4046   24.7789   28.2529 H   0  0  0  0  0  0  0  0  0  0  0  0
   40.3872   27.4218   27.7910 H   0  0  0  0  0  0  0  0  0  0  0  0
  1  6  2  0
  2  3  2  0
  2  1  1  0
  3  4  1  0
  4  5  2  0
  6  5  1  0
  7  1  1  0
  7  8  1  0
  9  8  2  0
 10  9  1  0
 11 16  1  0
 11 10  2  0
 12 11  1  0
 13 12  2  0
 13 14  1  0
 14 15  2  0
 15 10  1  0
 15  7  1  0
 17  3  1  0
 17 18  2  0
 19 18  1  0
 20 21  1  0
 20 19  2  0
 21 17  1  0
 22 21  1  0
 23 22  2  0
 24 23  1  0
 25 24  2  0
 25 26  1  0
 26 22  1  0
  2 27  1  0
  5 28  1  0
  8 29  1  0
 13 30  1  0
 16 31  1  0
 16 32  1  0
 18 33  1  0
 20 34  1  0
 23 35  1  0
 24 36  1  0
 25 37  1  0
M  ISO  8  27  14  28  14  29  14  30  14  33  14  34  14  35  14  36  14
M  ISO  1  37  14
M  END
>  <minimizedAffinity>  (1) 
-5.02060413

>  <minimizedRMSD>  (1) 
1.41086113

$$$$
