
     RDKit          3D

 45 49  0  0  0  0  0  0  0  0999 V2000
   37.7360   23.0140   33.5630 C   0  0  0  0  0  0  0  0  0  0  0  0
   37.3830   24.2400   33.0040 C   0  0  0  0  0  0  0  0  0  0  0  0
   38.1830   25.3400   33.2330 C   0  0  0  0  0  0  0  0  0  0  0  0
   39.2980   25.1480   34.0120 N   0  0  0  0  0  0  0  0  0  0  0  0
   39.6190   23.9670   34.5380 C   0  0  0  0  0  0  0  0  0  0  0  0
   38.8480   22.9050   34.3180 N   0  0  0  0  0  0  0  0  0  0  0  0
   36.9800   21.8240   33.3880 N   0  0  0  0  0  0  0  0  0  0  0  0
   36.2370   21.2910   34.3880 C   0  0  0  0  0  0  0  0  0  0  0  0
   35.6110   20.1680   33.9900 N   0  0  0  0  0  0  0  0  0  0  0  0
   35.9380   19.9490   32.7150 C   0  0  0  0  0  0  0  0  0  0  0  0
   35.6500   18.9980   31.7340 C   0  0  0  0  0  0  0  0  0  0  0  0
   36.1820   19.0920   30.4910 N   0  0  0  0  0  0  0  0  0  0  0  0
   36.9980   20.1220   30.2110 C   0  0  0  0  0  0  0  0  0  0  0  0
   37.3160   21.0760   31.1170 N   0  0  0  0  0  0  0  0  0  0  0  0
   36.7830   20.9800   32.3600 C   0  0  0  0  0  0  0  0  0  0  0  0
   34.7670   17.9700   32.1970 N   0  0  0  0  0  0  0  0  0  0  0  0
   37.7910   26.6170   32.6350 C   0  0  0  0  0  0  0  0  0  0  0  0
   36.7750   27.4210   33.1950 C   0  0  0  0  0  0  0  0  0  0  0  0
   36.6860   28.5020   32.3930 N   0  0  0  0  0  0  0  0  0  0  0  0
   37.5980   28.3420   31.4190 C   0  0  0  0  0  0  0  0  0  0  0  0
   38.2720   27.2140   31.5480 N   0  0  0  0  0  0  0  0  0  0  0  0
   41.4830   26.6950   28.9130 N   0  0  0  0  0  0  0  0  0  0  0  0
   41.6280   26.2180   30.2580 C   0  0  0  0  0  0  0  0  0  0  0  0
   40.7040   27.0770   31.1330 C   0  0  0  0  0  0  0  0  0  0  0  0
   39.3150   26.7190   30.6960 C   0  0  0  0  0  0  0  0  0  0  0  0
   39.1830   27.3230   29.2900 C   0  0  0  0  0  0  0  0  0  0  0  0
   40.1610   26.6300   28.3760 C   0  0  0  0  0  0  0  0  0  0  0  0
   36.4767   24.3299   32.3871 H   0  0  0  0  0  0  0  0  0  0  0  0
   40.5238   23.8694   35.1559 H   0  0  0  0  0  0  0  0  0  0  0  0
   36.1558   21.7215   35.3970 H   0  0  0  0  0  0  0  0  0  0  0  0
   37.4267   20.1931   29.2005 H   0  0  0  0  0  0  0  0  0  0  0  0
   34.4819   17.2112   31.5615 H   0  0  0  0  0  0  0  0  0  0  0  0
   34.4170   17.9894   33.1655 H   0  0  0  0  0  0  0  0  0  0  0  0
   36.1806   27.2103   34.0962 H   0  0  0  0  0  0  0  0  0  0  0  0
   37.7638   29.0668   30.6083 H   0  0  0  0  0  0  0  0  0  0  0  0
   41.7863   27.6791   28.8910 H   0  0  0  0  0  0  0  0  0  0  0  0
   41.3323   25.1602   30.3190 H   0  0  0  0  0  0  0  0  0  0  0  0
   42.6728   26.2928   30.5938 H   0  0  0  0  0  0  0  0  0  0  0  0
   40.8481   26.8393   32.1973 H   0  0  0  0  0  0  0  0  0  0  0  0
   40.9091   28.1518   31.0204 H   0  0  0  0  0  0  0  0  0  0  0  0
   39.1882   25.6269   30.7297 H   0  0  0  0  0  0  0  0  0  0  0  0
   38.1586   27.1749   28.9176 H   0  0  0  0  0  0  0  0  0  0  0  0
   39.3976   28.4014   29.3222 H   0  0  0  0  0  0  0  0  0  0  0  0
   40.1460   27.1207   27.3916 H   0  0  0  0  0  0  0  0  0  0  0  0
   39.8689   25.5739   28.2790 H   0  0  0  0  0  0  0  0  0  0  0  0
  1  6  2  0
  2  3  2  0
  2  1  1  0
  3  4  1  0
  4  5  2  0
  6  5  1  0
  7  1  1  0
  7  8  1  0
  9  8  2  0
 10  9  1  0
 11 16  1  0
 11 10  2  0
 12 11  1  0
 13 12  2  0
 13 14  1  0
 14 15  2  0
 15 10  1  0
 15  7  1  0
 17 18  2  0
 17  3  1  0
 19 18  1  0
 20 21  1  0
 20 19  2  0
 21 17  1  0
 22 23  1  0
 23 24  1  0
 25 24  1  0
 25 21  1  0
 26 25  1  0
 27 22  1  0
 27 26  1  0
  2 28  1  0
  5 29  1  0
  8 30  1  0
 13 31  1  0
 16 32  1  0
 16 33  1  0
 18 34  1  0
 20 35  1  0
 22 36  1  0
 23 37  1  0
 23 38  1  0
 24 39  1  0
 24 40  1  0
 25 41  1  0
 26 42  1  0
 26 43  1  0
 27 44  1  0
 27 45  1  0
M  ISO  8  28  14  29  14  30  14  31  14  34  14  35  14  36   5  37  13
M  ISO  8  38  13  39  13  40  13  41  13  42  13  43  13  44  13  45  13
M  END
>  <minimizedAffinity>  (1) 
-5.10651016

>  <minimizedRMSD>  (1) 
1.68392181

$$$$
