
     RDKit          3D

 42 46  0  0  1  0  0  0  0  0999 V2000
   37.7030   23.0020   33.5370 C   0  0  0  0  0  0  0  0  0  0  0  0
   37.3420   24.2230   32.9760 C   0  0  0  0  0  0  0  0  0  0  0  0
   38.1410   25.3210   33.2150 C   0  0  0  0  0  0  0  0  0  0  0  0
   39.2610   25.1370   34.0050 N   0  0  0  0  0  0  0  0  0  0  0  0
   39.5890   23.9580   34.5340 C   0  0  0  0  0  0  0  0  0  0  0  0
   38.8200   22.9000   34.3030 N   0  0  0  0  0  0  0  0  0  0  0  0
   36.9590   21.8060   33.3620 N   0  0  0  0  0  0  0  0  0  0  0  0
   36.2200   21.2810   34.3770 C   0  0  0  0  0  0  0  0  0  0  0  0
   35.6020   20.1420   33.9780 N   0  0  0  0  0  0  0  0  0  0  0  0
   35.9310   19.9190   32.7110 C   0  0  0  0  0  0  0  0  0  0  0  0
   35.6530   18.9620   31.7380 C   0  0  0  0  0  0  0  0  0  0  0  0
   36.1800   19.0480   30.5030 N   0  0  0  0  0  0  0  0  0  0  0  0
   36.9920   20.0810   30.2050 C   0  0  0  0  0  0  0  0  0  0  0  0
   37.2990   21.0430   31.1110 N   0  0  0  0  0  0  0  0  0  0  0  0
   36.7720   20.9560   32.3450 C   0  0  0  0  0  0  0  0  0  0  0  0
   34.7780   17.9290   32.2130 N   0  0  0  0  0  0  0  0  0  0  0  0
   37.7630   26.5980   32.6270 C   0  0  0  0  0  0  0  0  0  0  0  0
   36.8050   27.4460   33.1910 C   0  0  0  0  0  0  0  0  0  0  0  0
   36.7400   28.5190   32.3560 N   0  0  0  0  0  0  0  0  0  0  0  0
   37.6100   28.3040   31.3650 C   0  0  0  0  0  0  0  0  0  0  0  0
   38.2430   27.1580   31.4970 N   0  0  0  0  0  0  0  0  0  0  0  0
   38.7080   25.6620   29.6530 N   0  0  0  0  0  0  0  0  0  0  0  0
   39.8840   25.4120   28.8290 C   0  0  0  0  0  0  0  0  0  0  0  0
   40.4440   26.8050   28.6410 C   0  0  0  0  0  0  0  0  0  0  0  0
   39.8070   27.6570   29.7270 C   0  0  0  0  0  0  0  0  0  0  0  0
   39.2400   26.5830   30.6440 C   0  0  1  0  0  0  0  0  0  0  0  0
   36.4383   24.3105   32.3550 H   0  0  0  0  0  0  0  0  0  0  0  0
   40.4902   23.8621   35.1574 H   0  0  0  0  0  0  0  0  0  0  0  0
   36.1357   21.7200   35.3821 H   0  0  0  0  0  0  0  0  0  0  0  0
   37.4201   20.1465   29.1938 H   0  0  0  0  0  0  0  0  0  0  0  0
   34.4980   17.1621   31.5850 H   0  0  0  0  0  0  0  0  0  0  0  0
   34.4298   17.9543   33.1820 H   0  0  0  0  0  0  0  0  0  0  0  0
   36.2273   27.2812   34.1125 H   0  0  0  0  0  0  0  0  0  0  0  0
   37.7779   29.0048   30.5339 H   0  0  0  0  0  0  0  0  0  0  0  0
   38.3641   24.7955   30.0908 H   0  0  0  0  0  0  0  0  0  0  0  0
   40.6026   24.7597   29.3468 H   0  0  0  0  0  0  0  0  0  0  0  0
   39.6597   24.8949   27.8844 H   0  0  0  0  0  0  0  0  0  0  0  0
   41.5382   26.7964   28.7532 H   0  0  0  0  0  0  0  0  0  0  0  0
   40.2246   27.1977   27.6372 H   0  0  0  0  0  0  0  0  0  0  0  0
   40.5541   28.2767   30.2445 H   0  0  0  0  0  0  0  0  0  0  0  0
   39.0624   28.3782   29.3590 H   0  0  0  0  0  0  0  0  0  0  0  0
   39.9398   26.1022   31.3433 H   0  0  0  0  0  0  0  0  0  0  0  0
  1  6  2  0
  2  3  2  0
  2  1  1  0
  3  4  1  0
  4  5  2  0
  6  5  1  0
  7  1  1  0
  7  8  1  0
  9  8  2  0
 10  9  1  0
 11 16  1  0
 11 10  2  0
 12 11  1  0
 13 12  2  0
 13 14  1  0
 14 15  2  0
 15 10  1  0
 15  7  1  0
 17 18  2  0
 17  3  1  0
 19 18  1  0
 20 21  1  0
 20 19  2  0
 21 17  1  0
 22 26  1  0
 23 22  1  0
 24 23  1  0
 24 25  1  0
 26 25  1  0
 26 21  1  0
  2 27  1  0
  5 28  1  0
  8 29  1  0
 13 30  1  0
 16 31  1  0
 16 32  1  0
 18 33  1  0
 20 34  1  0
 22 35  1  0
 23 36  1  0
 23 37  1  0
 24 38  1  0
 24 39  1  0
 25 40  1  0
 25 41  1  0
 26 42  1  1
M  ISO  8  27  14  28  14  29  14  30  14  33  14  34  14  35   5  36  13
M  ISO  6  37  13  38  13  39  13  40  13  41  13  42  13
M  END
>  <minimizedAffinity>  (1) 
-5.19770718

>  <minimizedRMSD>  (1) 
1.44043958

$$$$
