
     RDKit          3D

 12 12  0  0  0  0  0  0  0  0999 V2000
   39.9900   22.6720   37.5810 C   0  0  0  0  0  0  0  0  0  0  0  0
   39.1210   23.2940   38.4920 C   0  0  0  0  0  0  0  0  0  0  0  0
   37.7950   23.4870   38.1030 C   0  0  0  0  0  0  0  0  0  0  0  0
   37.4240   23.0580   36.8550 N   0  0  0  0  0  0  0  0  0  0  0  0
   38.2870   22.4660   36.0130 C   0  0  0  0  0  0  0  0  0  0  0  0
   39.5800   22.2690   36.3750 N   0  0  0  0  0  0  0  0  0  0  0  0
   37.8200   22.0270   34.6810 C   0  0  0  0  0  0  0  0  0  0  0  0
   36.7150   21.3870   34.7060 O   0  0  0  0  0  0  0  0  0  0  0  0
   41.0395   22.5118   37.8689 H   0  0  0  0  0  0  0  0  0  0  0  0
   39.4747   23.6190   39.4816 H   0  0  0  0  0  0  0  0  0  0  0  0
   37.0704   23.9681   38.7764 H   0  0  0  0  0  0  0  0  0  0  0  0
   38.3736   22.2327   33.7530 H   0  0  0  0  0  0  0  0  0  0  0  0
  1  2  2  0
  3  2  1  0
  4  3  2  0
  5  6  2  0
  5  4  1  0
  6  1  1  0
  7  8  2  0
  7  5  1  0
  1  9  1  0
  2 10  1  0
  3 11  1  0
  7 12  1  0
M  ISO  4   9  14  10  14  11  14  12   6
M  END
>  <minimizedAffinity>  (1) 
-2.81443906

>  <minimizedRMSD>  (1) 
0.456271648

$$$$
