
     RDKit          3D

 36 39  0  0  0  0  0  0  0  0999 V2000
   37.7080   22.8870   33.6820 C   0  0  0  0  0  0  0  0  0  0  0  0
   37.5520   24.0590   32.9460 C   0  0  0  0  0  0  0  0  0  0  0  0
   38.3330   25.1560   33.2150 C   0  0  0  0  0  0  0  0  0  0  0  0
   39.2510   25.0060   34.2350 N   0  0  0  0  0  0  0  0  0  0  0  0
   39.3970   23.8810   34.9370 C   0  0  0  0  0  0  0  0  0  0  0  0
   38.6270   22.8290   34.6570 N   0  0  0  0  0  0  0  0  0  0  0  0
   36.9470   21.7120   33.4660 N   0  0  0  0  0  0  0  0  0  0  0  0
   36.1560   21.1870   34.4300 C   0  0  0  0  0  0  0  0  0  0  0  0
   35.5340   20.0740   33.9920 N   0  0  0  0  0  0  0  0  0  0  0  0
   35.9210   19.8650   32.7230 C   0  0  0  0  0  0  0  0  0  0  0  0
   35.6450   18.9090   31.7380 C   0  0  0  0  0  0  0  0  0  0  0  0
   36.2350   19.0110   30.5210 N   0  0  0  0  0  0  0  0  0  0  0  0
   37.0750   20.0280   30.2800 C   0  0  0  0  0  0  0  0  0  0  0  0
   37.3670   20.9720   31.2070 N   0  0  0  0  0  0  0  0  0  0  0  0
   36.7920   20.8850   32.4170 C   0  0  0  0  0  0  0  0  0  0  0  0
   34.7340   17.9110   32.1520 N   0  0  0  0  0  0  0  0  0  0  0  0
   38.1490   26.3700   32.4360 C   0  0  0  0  0  0  0  0  0  0  0  0
   37.1680   27.3320   32.7820 C   0  0  0  0  0  0  0  0  0  0  0  0
   37.3050   28.3070   31.8370 N   0  0  0  0  0  0  0  0  0  0  0  0
   38.2970   27.9290   31.0090 C   0  0  0  0  0  0  0  0  0  0  0  0
   38.8190   26.7600   31.3570 N   0  0  0  0  0  0  0  0  0  0  0  0
   39.9000   26.1360   30.6270 C   0  0  0  0  0  0  0  0  0  0  0  0
   39.4160   25.1180   29.6220 C   0  0  0  0  0  0  0  0  0  0  0  0
   36.7994   24.1062   32.1452 H   0  0  0  0  0  0  0  0  0  0  0  0
   40.1463   23.8217   35.7401 H   0  0  0  0  0  0  0  0  0  0  0  0
   36.0363   21.6120   35.4375 H   0  0  0  0  0  0  0  0  0  0  0  0
   37.5465   20.0988   29.2887 H   0  0  0  0  0  0  0  0  0  0  0  0
   34.4632   17.1593   31.5020 H   0  0  0  0  0  0  0  0  0  0  0  0
   34.3409   17.9354   33.1037 H   0  0  0  0  0  0  0  0  0  0  0  0
   36.4577   27.3002   33.6213 H   0  0  0  0  0  0  0  0  0  0  0  0
   38.6351   28.5201   30.1452 H   0  0  0  0  0  0  0  0  0  0  0  0
   40.4610   26.9174   30.0935 H   0  0  0  0  0  0  0  0  0  0  0  0
   40.5308   25.6072   31.3567 H   0  0  0  0  0  0  0  0  0  0  0  0
   39.0021   24.2475   30.1521 H   0  0  0  0  0  0  0  0  0  0  0  0
   38.6355   25.5681   28.9909 H   0  0  0  0  0  0  0  0  0  0  0  0
   40.2578   24.7968   28.9909 H   0  0  0  0  0  0  0  0  0  0  0  0
  1  6  2  0
  2  3  2  0
  2  1  1  0
  3  4  1  0
  4  5  2  0
  6  5  1  0
  7  1  1  0
  7  8  1  0
  9  8  2  0
 10  9  1  0
 11 16  1  0
 11 10  2  0
 12 11  1  0
 13 12  2  0
 13 14  1  0
 14 15  2  0
 15 10  1  0
 15  7  1  0
 17 18  2  0
 17  3  1  0
 19 18  1  0
 20 21  1  0
 20 19  2  0
 21 17  1  0
 22 21  1  0
 23 22  1  0
  2 24  1  0
  5 25  1  0
  8 26  1  0
 13 27  1  0
 16 28  1  0
 16 29  1  0
 18 30  1  0
 20 31  1  0
 22 32  1  0
 22 33  1  0
 23 34  1  0
 23 35  1  0
 23 36  1  0
M  ISO  8  24  14  25  14  26  14  27  14  30  14  31  14  32   8  33   8
M  ISO  3  34   8  35   8  36   8
M  END
>  <minimizedAffinity>  (1) 
-4.69021082

>  <minimizedRMSD>  (1) 
1.49609447

$$$$
