
     RDKit          3D

 39 42  0  0  0  0  0  0  0  0999 V2000
   37.7200   22.9740   33.5660 C   0  0  0  0  0  0  0  0  0  0  0  0
   37.3980   24.1880   32.9670 C   0  0  0  0  0  0  0  0  0  0  0  0
   38.2120   25.2830   33.2140 C   0  0  0  0  0  0  0  0  0  0  0  0
   39.2900   25.0970   34.0390 N   0  0  0  0  0  0  0  0  0  0  0  0
   39.5820   23.9310   34.6010 C   0  0  0  0  0  0  0  0  0  0  0  0
   38.8100   22.8740   34.3730 N   0  0  0  0  0  0  0  0  0  0  0  0
   36.9630   21.7840   33.3880 N   0  0  0  0  0  0  0  0  0  0  0  0
   36.2150   21.2610   34.3870 C   0  0  0  0  0  0  0  0  0  0  0  0
   35.5890   20.1340   33.9820 N   0  0  0  0  0  0  0  0  0  0  0  0
   35.9260   19.9120   32.7160 C   0  0  0  0  0  0  0  0  0  0  0  0
   35.6480   18.9620   31.7350 C   0  0  0  0  0  0  0  0  0  0  0  0
   36.1810   19.0430   30.5060 N   0  0  0  0  0  0  0  0  0  0  0  0
   37.0070   20.0720   30.2160 C   0  0  0  0  0  0  0  0  0  0  0  0
   37.3200   21.0330   31.1260 N   0  0  0  0  0  0  0  0  0  0  0  0
   36.7770   20.9440   32.3650 C   0  0  0  0  0  0  0  0  0  0  0  0
   34.7650   17.9290   32.2030 N   0  0  0  0  0  0  0  0  0  0  0  0
   37.8580   26.5510   32.5770 C   0  0  0  0  0  0  0  0  0  0  0  0
   36.7860   27.3490   33.0350 C   0  0  0  0  0  0  0  0  0  0  0  0
   36.7690   28.4190   32.2120 N   0  0  0  0  0  0  0  0  0  0  0  0
   37.7680   28.2590   31.3250 C   0  0  0  0  0  0  0  0  0  0  0  0
   38.4320   27.1410   31.5330 N   0  0  0  0  0  0  0  0  0  0  0  0
   39.5580   26.6620   30.7680 C   0  0  0  0  0  0  0  0  0  0  0  0
   39.4920   27.1390   29.3200 C   0  0  0  0  0  0  0  0  0  0  0  0
   40.8490   27.1960   31.3510 C   0  0  0  0  0  0  0  0  0  0  0  0
   36.5182   24.2769   32.3128 H   0  0  0  0  0  0  0  0  0  0  0  0
   40.4619   23.8396   35.2547 H   0  0  0  0  0  0  0  0  0  0  0  0
   36.1281   21.6951   35.3940 H   0  0  0  0  0  0  0  0  0  0  0  0
   37.4420   20.1348   29.2076 H   0  0  0  0  0  0  0  0  0  0  0  0
   34.4834   17.1666   31.5703 H   0  0  0  0  0  0  0  0  0  0  0  0
   34.4139   17.9512   33.1710 H   0  0  0  0  0  0  0  0  0  0  0  0
   36.1114   27.1432   33.8791 H   0  0  0  0  0  0  0  0  0  0  0  0
   38.0017   28.9751   30.5234 H   0  0  0  0  0  0  0  0  0  0  0  0
   39.5257   25.5631   30.8051 H   0  0  0  0  0  0  0  0  0  0  0  0
   39.3413   28.2284   29.2993 H   0  0  0  0  0  0  0  0  0  0  0  0
   40.4333   26.8893   28.8084 H   0  0  0  0  0  0  0  0  0  0  0  0
   38.6539   26.6431   28.8084 H   0  0  0  0  0  0  0  0  0  0  0  0
   40.7926   27.1727   32.4493 H   0  0  0  0  0  0  0  0  0  0  0  0
   41.6895   26.5717   31.0137 H   0  0  0  0  0  0  0  0  0  0  0  0
   41.0029   28.2316   31.0137 H   0  0  0  0  0  0  0  0  0  0  0  0
  1  6  2  0
  2  3  2  0
  2  1  1  0
  3  4  1  0
  4  5  2  0
  6  5  1  0
  7  1  1  0
  7  8  1  0
  9  8  2  0
 10  9  1  0
 11 16  1  0
 11 10  2  0
 12 11  1  0
 13 12  2  0
 13 14  1  0
 14 15  2  0
 15 10  1  0
 15  7  1  0
 17 18  2  0
 17  3  1  0
 19 18  1  0
 20 21  1  0
 20 19  2  0
 21 17  1  0
 22 24  1  0
 22 21  1  0
 23 22  1  0
  2 25  1  0
  5 26  1  0
  8 27  1  0
 13 28  1  0
 16 29  1  0
 16 30  1  0
 18 31  1  0
 20 32  1  0
 22 33  1  0
 23 34  1  0
 23 35  1  0
 23 36  1  0
 24 37  1  0
 24 38  1  0
 24 39  1  0
M  ISO  8  25  14  26  14  27  14  28  14  31  14  32  14  33   8  34   8
M  ISO  5  35   8  36   8  37   8  38   8  39   8
M  END
>  <minimizedAffinity>  (1) 
-4.83865213

>  <minimizedRMSD>  (1) 
1.51581776

$$$$
