
     RDKit          3D

 37 41  0  0  0  0  0  0  0  0999 V2000
   37.3060   22.0480   33.7470 C   0  0  0  0  0  0  0  0  0  0  0  0
   37.3840   23.2690   33.0680 C   0  0  0  0  0  0  0  0  0  0  0  0
   37.8510   24.3720   33.7500 C   0  0  0  0  0  0  0  0  0  0  0  0
   38.2120   24.2010   35.0610 N   0  0  0  0  0  0  0  0  0  0  0  0
   38.1270   23.0230   35.6860 C   0  0  0  0  0  0  0  0  0  0  0  0
   37.6770   21.9520   35.0340 N   0  0  0  0  0  0  0  0  0  0  0  0
   36.8410   20.8550   33.1420 N   0  0  0  0  0  0  0  0  0  0  0  0
   35.6590   20.2810   33.5120 C   0  0  0  0  0  0  0  0  0  0  0  0
   35.4080   19.1570   32.8120 N   0  0  0  0  0  0  0  0  0  0  0  0
   36.4370   18.9820   31.9650 C   0  0  0  0  0  0  0  0  0  0  0  0
   36.7920   18.0520   30.9980 C   0  0  0  0  0  0  0  0  0  0  0  0
   37.9380   18.1830   30.3070 N   0  0  0  0  0  0  0  0  0  0  0  0
   38.7520   19.2360   30.5650 C   0  0  0  0  0  0  0  0  0  0  0  0
   38.4490   20.1660   31.4970 N   0  0  0  0  0  0  0  0  0  0  0  0
   37.2950   20.0380   32.1940 C   0  0  0  0  0  0  0  0  0  0  0  0
   35.8510   16.9980   30.8280 N   0  0  0  0  0  0  0  0  0  0  0  0
   37.9310   25.6430   33.0380 C   0  0  0  0  0  0  0  0  0  0  0  0
   36.8060   26.2460   32.4280 C   0  0  0  0  0  0  0  0  0  0  0  0
   37.2770   27.3920   31.8810 N   0  0  0  0  0  0  0  0  0  0  0  0
   38.5980   27.4610   32.1520 C   0  0  0  0  0  0  0  0  0  0  0  0
   38.9970   26.4140   32.8460 N   0  0  0  0  0  0  0  0  0  0  0  0
   40.3440   26.1360   33.3220 C   0  0  0  0  0  0  0  0  0  0  0  0
   40.7110   26.7010   34.6890 C   0  0  0  0  0  0  0  0  0  0  0  0
   41.3270   27.2610   33.4470 C   0  0  0  0  0  0  0  0  0  0  0  0
   37.0795   23.3468   32.0138 H   0  0  0  0  0  0  0  0  0  0  0  0
   38.4290   22.9375   36.7403 H   0  0  0  0  0  0  0  0  0  0  0  0
   34.9924   20.6866   34.2873 H   0  0  0  0  0  0  0  0  0  0  0  0
   39.6889   19.3364   29.9975 H   0  0  0  0  0  0  0  0  0  0  0  0
   36.0261   16.2584   30.1329 H   0  0  0  0  0  0  0  0  0  0  0  0
   34.9948   16.9748   31.4001 H   0  0  0  0  0  0  0  0  0  0  0  0
   35.7737   25.8668   32.4033 H   0  0  0  0  0  0  0  0  0  0  0  0
   39.2555   28.2839   31.8349 H   0  0  0  0  0  0  0  0  0  0  0  0
   40.3658   25.1515   32.8318 H   0  0  0  0  0  0  0  0  0  0  0  0
   39.9774   27.2931   35.2558 H   0  0  0  0  0  0  0  0  0  0  0  0
   41.0957   26.2803   35.6298 H   0  0  0  0  0  0  0  0  0  0  0  0
   42.3918   27.0825   33.2365 H   0  0  0  0  0  0  0  0  0  0  0  0
   41.4050   28.2683   33.0120 H   0  0  0  0  0  0  0  0  0  0  0  0
  1  6  1  0
  2  1  2  0
  2  3  1  0
  3  4  2  0
  4  5  1  0
  6  5  2  0
  7  8  1  0
  7  1  1  0
  9  8  2  0
 10 15  2  0
 10  9  1  0
 11 10  1  0
 12 13  1  0
 12 11  2  0
 13 14  2  0
 14 15  1  0
 15  7  1  0
 16 11  1  0
 17  3  1  0
 18 17  2  0
 19 20  2  0
 19 18  1  0
 20 21  1  0
 21 17  1  0
 21 22  1  0
 22 24  1  0
 22 23  1  0
 24 23  1  0
  2 25  1  0
  5 26  1  0
  8 27  1  0
 13 28  1  0
 16 29  1  0
 16 30  1  0
 18 31  1  0
 20 32  1  0
 22 33  1  0
 23 34  1  0
 23 35  1  0
 24 36  1  0
 24 37  1  0
M  ISO  8  25  14  26  14  27  14  28  14  31  14  32  14  33  13  34  13
M  ISO  3  35  13  36  13  37  13
M  END
>  <minimizedAffinity>  (1) 
-4.83872986

>  <minimizedRMSD>  (1) 
1.43495154

$$$$
