
     RDKit          3D

 25 26  0  0  0  0  0  0  0  0999 V2000
   39.9070   22.7550   37.8330 C   0  0  0  0  0  0  0  0  0  0  0  0
   39.0230   23.2070   38.8430 C   0  0  0  0  0  0  0  0  0  0  0  0
   37.8550   23.8790   38.4720 C   0  0  0  0  0  0  0  0  0  0  0  0
   37.6340   24.0630   37.1250 N   0  0  0  0  0  0  0  0  0  0  0  0
   38.4930   23.6220   36.1970 C   0  0  0  0  0  0  0  0  0  0  0  0
   39.6350   22.9650   36.5480 N   0  0  0  0  0  0  0  0  0  0  0  0
   38.1850   23.8590   34.7750 C   0  0  0  0  0  0  0  0  0  0  0  0
   37.7440   22.8220   34.1650 O   0  0  0  0  0  0  0  0  0  0  0  0
   38.4180   25.2260   34.2450 C   0  0  0  0  0  0  0  0  0  0  0  0
   37.4420   26.1860   34.8820 C   0  0  0  0  0  0  0  0  0  0  0  0
   38.2400   27.4410   35.2010 C   0  0  0  0  0  0  0  0  0  0  0  0
   39.6610   27.1480   34.7900 C   0  0  0  0  0  0  0  0  0  0  0  0
   39.7660   25.6580   34.8250 C   0  0  0  0  0  0  0  0  0  0  0  0
   40.8286   22.2245   38.1143 H   0  0  0  0  0  0  0  0  0  0  0  0
   39.2524   23.0317   39.9044 H   0  0  0  0  0  0  0  0  0  0  0  0
   37.1417   24.2458   39.2247 H   0  0  0  0  0  0  0  0  0  0  0  0
   38.3442   25.2285   33.1475 H   0  0  0  0  0  0  0  0  0  0  0  0
   36.6243   26.4195   34.1843 H   0  0  0  0  0  0  0  0  0  0  0  0
   36.9852   25.7571   35.7861 H   0  0  0  0  0  0  0  0  0  0  0  0
   37.8473   28.2977   34.6337 H   0  0  0  0  0  0  0  0  0  0  0  0
   38.1751   27.6983   36.2685 H   0  0  0  0  0  0  0  0  0  0  0  0
   40.3709   27.6037   35.4960 H   0  0  0  0  0  0  0  0  0  0  0  0
   39.9007   27.5591   33.7983 H   0  0  0  0  0  0  0  0  0  0  0  0
   39.8935   25.2911   35.8541 H   0  0  0  0  0  0  0  0  0  0  0  0
   40.6315   25.2630   34.2729 H   0  0  0  0  0  0  0  0  0  0  0  0
  1  2  2  0
  3  2  1  0
  4  3  2  0
  5  6  2  0
  5  4  1  0
  6  1  1  0
  7  5  1  0
  8  7  2  0
  9  7  1  0
  9 13  1  0
  9 10  1  0
 10 11  1  0
 12 13  1  0
 12 11  1  0
  1 14  1  0
  2 15  1  0
  3 16  1  0
  9 17  1  0
 10 18  1  0
 10 19  1  0
 11 20  1  0
 11 21  1  0
 12 22  1  0
 12 23  1  0
 13 24  1  0
 13 25  1  0
M  ISO  8  14  14  15  14  16  14  17  13  18  13  19  13  20  13  21  13
M  ISO  4  22  13  23  13  24  13  25  13
M  END
>  <minimizedAffinity>  (1) 
-4.05541468

>  <minimizedRMSD>  (1) 
2.34166074

$$$$
