
     RDKit          3D

 32 33  0  0  0  0  0  0  0  0999 V2000
   37.9010   22.7220   34.4180 C   0  0  0  0  0  0  0  0  0  0  0  0
   37.7810   23.8910   33.6740 C   0  0  0  0  0  0  0  0  0  0  0  0
   37.0310   23.8770   32.4920 C   0  0  0  0  0  0  0  0  0  0  0  0
   36.4480   22.7050   32.1190 N   0  0  0  0  0  0  0  0  0  0  0  0
   36.5880   21.5960   32.8650 C   0  0  0  0  0  0  0  0  0  0  0  0
   37.2980   21.5860   33.9970 N   0  0  0  0  0  0  0  0  0  0  0  0
   38.6760   22.7150   35.6490 C   0  0  0  0  0  0  0  0  0  0  0  0
   38.2630   23.2080   36.8680 C   0  0  0  0  0  0  0  0  0  0  0  0
   39.0460   23.1700   37.9940 C   0  0  0  0  0  0  0  0  0  0  0  0
   40.3210   22.6190   37.9500 C   0  0  0  0  0  0  0  0  0  0  0  0
   40.7720   22.1160   36.7570 C   0  0  0  0  0  0  0  0  0  0  0  0
   39.9530   22.1750   35.6500 C   0  0  0  0  0  0  0  0  0  0  0  0
   36.8520   25.0620   31.6480 C   0  0  0  0  0  0  0  0  0  0  0  0
   36.8720   26.2790   32.5790 C   0  0  0  0  0  0  0  0  0  0  0  0
   37.8990   25.1970   30.5610 C   0  0  0  0  0  0  0  0  0  0  0  0
   35.5020   24.9960   30.9590 C   0  0  0  0  0  0  0  0  0  0  0  0
   38.2703   24.8168   34.0108 H   0  0  0  0  0  0  0  0  0  0  0  0
   36.1024   20.6665   32.5331 H   0  0  0  0  0  0  0  0  0  0  0  0
   37.2594   23.6524   36.9415 H   0  0  0  0  0  0  0  0  0  0  0  0
   38.6612   23.5792   38.9398 H   0  0  0  0  0  0  0  0  0  0  0  0
   40.9527   22.5872   38.8500 H   0  0  0  0  0  0  0  0  0  0  0  0
   41.7752   21.6708   36.6842 H   0  0  0  0  0  0  0  0  0  0  0  0
   40.3382   21.7664   34.7042 H   0  0  0  0  0  0  0  0  0  0  0  0
   36.8664   25.9402   33.6255 H   0  0  0  0  0  0  0  0  0  0  0  0
   37.7800   26.8704   32.3899 H   0  0  0  0  0  0  0  0  0  0  0  0
   35.9839   26.9000   32.3899 H   0  0  0  0  0  0  0  0  0  0  0  0
   38.8902   25.3248   31.0205 H   0  0  0  0  0  0  0  0  0  0  0  0
   37.8983   24.2913   29.9367 H   0  0  0  0  0  0  0  0  0  0  0  0
   37.6686   26.0729   29.9367 H   0  0  0  0  0  0  0  0  0  0  0  0
   34.7053   24.9570   31.7164 H   0  0  0  0  0  0  0  0  0  0  0  0
   35.3671   25.8886   30.3305 H   0  0  0  0  0  0  0  0  0  0  0  0
   35.4548   24.0945   30.3305 H   0  0  0  0  0  0  0  0  0  0  0  0
  1  7  1  0
  2  1  2  0
  3  2  1  0
  4  3  2  0
  4  5  1  0
  5  6  2  0
  6  1  1  0
  7 12  1  0
  7  8  2  0
  8  9  1  0
 10  9  2  0
 11 10  1  0
 12 11  2  0
 13  3  1  0
 13 14  1  0
 15 13  1  0
 16 13  1  0
  2 17  1  0
  5 18  1  0
  8 19  1  0
  9 20  1  0
 10 21  1  0
 11 22  1  0
 12 23  1  0
 14 24  1  0
 14 25  1  0
 14 26  1  0
 15 27  1  0
 15 28  1  0
 15 29  1  0
 16 30  1  0
 16 31  1  0
 16 32  1  0
M  ISO  8  17  14  18  14  19  14  20  14  21  14  22  14  23  14  24   8
M  ISO  8  25   8  26   8  27   8  28   8  29   8  30   8  31   8  32   8
M  END
>  <minimizedAffinity>  (1) 
-4.2787919

>  <minimizedRMSD>  (1) 
5.3848176

$$$$
