
     RDKit          3D

 28 30  0  0  1  0  0  0  0  0999 V2000
   37.5870   23.2210   33.3550 C   0  0  0  0  0  0  0  0  0  0  0  0
   36.7410   22.3390   32.7460 N   0  0  0  0  0  0  0  0  0  0  0  0
   35.8590   22.7560   31.7890 C   0  0  0  0  0  0  0  0  0  0  0  0
   35.7860   24.0400   31.4090 N   0  0  0  0  0  0  0  0  0  0  0  0
   36.5860   24.9580   31.9700 C   0  0  0  0  0  0  0  0  0  0  0  0
   36.5340   26.2930   31.6270 C   0  0  0  0  0  0  0  0  0  0  0  0
   37.3580   27.2450   32.2320 C   0  0  0  0  0  0  0  0  0  0  0  0
   38.2250   26.7570   33.1950 C   0  0  0  0  0  0  0  0  0  0  0  0
   38.2590   25.4370   33.5160 C   0  0  0  0  0  0  0  0  0  0  0  0
   37.4570   24.5190   32.9220 C   0  0  0  0  0  0  0  0  0  0  0  0
   38.4710   22.6450   34.3530 C   0  0  0  0  0  0  0  0  0  0  0  0
   39.2440   21.7570   33.8120 O   0  0  0  0  0  0  0  0  0  0  0  0
   39.9820   22.6990   37.6960 C   0  0  0  0  0  0  0  0  0  0  0  0
   38.9490   23.2760   38.4730 C   0  0  0  0  0  0  0  0  0  0  0  0
   37.7460   23.6330   37.8330 C   0  0  0  0  0  0  0  0  0  0  0  0
   37.6830   23.3790   36.4590 N   0  0  0  0  0  0  0  0  0  0  0  0
   38.6870   22.8350   35.7840 C   0  0  0  0  0  0  0  0  0  0  0  0
   39.8580   22.4850   36.4030 N   0  0  0  0  0  0  0  0  0  0  0  0
   35.1916   22.0192   31.3181 H   0  0  0  0  0  0  0  0  0  0  0  0
   35.8222   26.6178   30.8538 H   0  0  0  0  0  0  0  0  0  0  0  0
   37.3206   28.3106   31.9616 H   0  0  0  0  0  0  0  0  0  0  0  0
   38.9015   27.4535   33.7119 H   0  0  0  0  0  0  0  0  0  0  0  0
   38.9655   25.0996   34.2887 H   0  0  0  0  0  0  0  0  0  0  0  0
   37.7241   21.8657   34.5648 H   0  0  0  0  0  0  0  0  0  0  0  0
   39.6968   21.2369   34.5223 H   0  0  0  0  0  0  0  0  0  0  0  0
   40.9235   22.4190   38.1911 H   0  0  0  0  0  0  0  0  0  0  0  0
   39.0827   23.4419   39.5522 H   0  0  0  0  0  0  0  0  0  0  0  0
   36.9061   24.0847   38.3812 H   0  0  0  0  0  0  0  0  0  0  0  0
  1 11  1  0
  2  1  2  0
  3  2  1  0
  4  3  2  0
  4  5  1  0
  5 10  2  0
  6  5  1  0
  6  7  2  0
  7  8  1  0
  8  9  2  0
 10  1  1  0
 10  9  1  0
 11 12  1  0
 11 17  1  0
 13 14  2  0
 15 14  1  0
 16 15  2  0
 17 18  2  0
 17 16  1  0
 18 13  1  0
  3 19  1  0
  6 20  1  0
  7 21  1  0
  8 22  1  0
  9 23  1  0
 11 24  1  0
 12 25  1  0
 13 26  1  0
 14 27  1  0
 15 28  1  0
M  ISO  8  19  14  20  14  21  14  22  14  23  14  24   8  25   3  26  14
M  ISO  2  27  14  28  14
M  END
>  <minimizedAffinity>  (1) 
-4.73110199

>  <minimizedRMSD>  (1) 
3.0275147

$$$$
