
     RDKit          3D

 26 28  0  0  0  0  0  0  0  0999 V2000
   38.0670   23.2020   34.7570 C   0  0  0  0  0  0  0  0  0  0  0  0
   37.5890   22.0930   34.3680 O   0  0  0  0  0  0  0  0  0  0  0  0
   38.2460   24.2780   33.7810 C   0  0  0  0  0  0  0  0  0  0  0  0
   37.4340   24.4420   32.6760 C   0  0  0  0  0  0  0  0  0  0  0  0
   37.9270   25.5260   32.0500 N   0  0  0  0  0  0  0  0  0  0  0  0
   38.9900   26.0280   32.7100 C   0  0  0  0  0  0  0  0  0  0  0  0
   39.8120   27.1070   32.4650 C   0  0  0  0  0  0  0  0  0  0  0  0
   40.8460   27.3840   33.3370 C   0  0  0  0  0  0  0  0  0  0  0  0
   41.0700   26.5990   34.4530 C   0  0  0  0  0  0  0  0  0  0  0  0
   40.2530   25.5130   34.7120 C   0  0  0  0  0  0  0  0  0  0  0  0
   39.2330   25.2520   33.8380 C   0  0  0  0  0  0  0  0  0  0  0  0
   39.7560   22.7830   37.9830 C   0  0  0  0  0  0  0  0  0  0  0  0
   38.9680   23.5330   38.8560 C   0  0  0  0  0  0  0  0  0  0  0  0
   37.8530   24.1810   38.3180 C   0  0  0  0  0  0  0  0  0  0  0  0
   37.6070   24.0350   36.9650 N   0  0  0  0  0  0  0  0  0  0  0  0
   38.4030   23.3000   36.1860 C   0  0  0  0  0  0  0  0  0  0  0  0
   39.4870   22.6630   36.6690 N   0  0  0  0  0  0  0  0  0  0  0  0
   36.5754   23.8239   32.3748 H   0  0  0  0  0  0  0  0  0  0  0  0
   37.5424   25.9209   31.1799 H   0  0  0  0  0  0  0  0  0  0  0  0
   39.6456   27.7420   31.5823 H   0  0  0  0  0  0  0  0  0  0  0  0
   41.5030   28.2441   33.1405 H   0  0  0  0  0  0  0  0  0  0  0  0
   41.8987   26.8382   35.1356 H   0  0  0  0  0  0  0  0  0  0  0  0
   40.4185   24.8779   35.5947 H   0  0  0  0  0  0  0  0  0  0  0  0
   40.6385   22.2653   38.3868 H   0  0  0  0  0  0  0  0  0  0  0  0
   39.2144   23.6112   39.9252 H   0  0  0  0  0  0  0  0  0  0  0  0
   37.1907   24.7891   38.9518 H   0  0  0  0  0  0  0  0  0  0  0  0
  1 16  1  0
  2  1  2  0
  3 11  1  0
  3  1  1  0
  4  3  2  0
  5  4  1  0
  5  6  1  0
  6 11  2  0
  7  6  1  0
  7  8  2  0
  8  9  1  0
  9 10  2  0
 11 10  1  0
 12 13  2  0
 14 13  1  0
 15 14  2  0
 16 17  2  0
 16 15  1  0
 17 12  1  0
  4 18  1  0
  5 19  1  0
  7 20  1  0
  8 21  1  0
  9 22  1  0
 10 23  1  0
 12 24  1  0
 13 25  1  0
 14 26  1  0
M  ISO  8  18  14  19   9  20  14  21  14  22  14  23  14  24  14  25  14
M  ISO  1  26  14
M  END
>  <minimizedAffinity>  (1) 
-4.59722614

>  <minimizedRMSD>  (1) 
2.50769591

$$$$
