
     RDKit          3D

 20 21  0  0  0  0  0  0  0  0999 V2000
   39.9130   22.7070   37.6690 C   0  0  0  0  0  0  0  0  0  0  0  0
   39.0950   23.3750   38.5850 C   0  0  0  0  0  0  0  0  0  0  0  0
   37.8400   23.8310   38.1530 C   0  0  0  0  0  0  0  0  0  0  0  0
   37.5050   23.5880   36.8580 N   0  0  0  0  0  0  0  0  0  0  0  0
   38.3160   22.9370   35.9900 C   0  0  0  0  0  0  0  0  0  0  0  0
   39.5250   22.4990   36.4090 N   0  0  0  0  0  0  0  0  0  0  0  0
   37.8520   22.7270   34.6150 C   0  0  0  0  0  0  0  0  0  0  0  0
   37.3820   21.5600   34.3990 O   0  0  0  0  0  0  0  0  0  0  0  0
   37.9060   23.7310   33.5700 C   0  0  0  0  0  0  0  0  0  0  0  0
   38.7820   24.7710   33.7310 C   0  0  0  0  0  0  0  0  0  0  0  0
   38.7730   25.6950   32.6790 C   0  0  0  0  0  0  0  0  0  0  0  0
   37.9610   25.5700   31.5910 N   0  0  0  0  0  0  0  0  0  0  0  0
   37.1280   24.5170   31.5130 C   0  0  0  0  0  0  0  0  0  0  0  0
   37.0960   23.5850   32.5090 N   0  0  0  0  0  0  0  0  0  0  0  0
   40.8993   22.3444   37.9942 H   0  0  0  0  0  0  0  0  0  0  0  0
   39.4274   23.5394   39.6206 H   0  0  0  0  0  0  0  0  0  0  0  0
   37.1571   24.3619   38.8326 H   0  0  0  0  0  0  0  0  0  0  0  0
   39.4357   24.8718   34.6100 H   0  0  0  0  0  0  0  0  0  0  0  0
   39.4508   26.5597   32.7327 H   0  0  0  0  0  0  0  0  0  0  0  0
   36.4679   24.4064   30.6401 H   0  0  0  0  0  0  0  0  0  0  0  0
  1  2  2  0
  3  2  1  0
  4  3  2  0
  5  6  2  0
  5  4  1  0
  6  1  1  0
  7  5  1  0
  8  7  2  0
  9 10  2  0
  9  7  1  0
 11 10  1  0
 12 11  2  0
 13 12  1  0
 13 14  2  0
 14  9  1  0
  1 15  1  0
  2 16  1  0
  3 17  1  0
 10 18  1  0
 11 19  1  0
 13 20  1  0
M  ISO  6  15  14  16  14  17  14  18  14  19  14  20  14
M  END
>  <minimizedAffinity>  (1) 
-3.60447216

>  <minimizedRMSD>  (1) 
1.6822437

$$$$
