
     RDKit          3D

 19 19  0  0  0  0  0  0  0  0999 V2000
   37.3260   21.9420   34.8170 C   0  0  0  0  0  0  0  0  0  0  0  0
   36.3660   21.1290   35.0170 O   0  0  0  0  0  0  0  0  0  0  0  0
   37.6350   22.3300   33.5040 N   0  0  0  0  0  0  0  0  0  0  0  0
   36.7360   22.1040   32.4190 C   0  0  0  0  0  0  0  0  0  0  0  0
   35.5910   21.5220   32.6390 N   0  0  0  0  0  0  0  0  0  0  0  0
   37.1240   22.5290   31.1050 N   0  0  0  0  0  0  0  0  0  0  0  0
   34.9280   21.3580   31.8250 H   0  0  0  0  0  0  0  0  0  0  0  0
   39.9780   22.5990   37.2610 C   0  0  0  0  0  0  0  0  0  0  0  0
   39.2880   23.2470   38.3120 C   0  0  0  0  0  0  0  0  0  0  0  0
   37.9060   23.4460   38.1560 C   0  0  0  0  0  0  0  0  0  0  0  0
   37.3160   22.9980   36.9900 N   0  0  0  0  0  0  0  0  0  0  0  0
   38.0190   22.3930   36.0290 C   0  0  0  0  0  0  0  0  0  0  0  0
   39.3470   22.1850   36.1450 N   0  0  0  0  0  0  0  0  0  0  0  0
   38.5370   22.7913   33.3181 H   0  0  0  0  0  0  0  0  0  0  0  0
   38.0352   22.9867   30.9599 H   0  0  0  0  0  0  0  0  0  0  0  0
   36.4913   22.3765   30.3066 H   0  0  0  0  0  0  0  0  0  0  0  0
   41.0604   22.4283   37.3576 H   0  0  0  0  0  0  0  0  0  0  0  0
   39.8139   23.5827   39.2179 H   0  0  0  0  0  0  0  0  0  0  0  0
   37.3125   23.9428   38.9376 H   0  0  0  0  0  0  0  0  0  0  0  0
  1  2  2  0
  1 12  1  0
  3  1  1  0
  4  5  2  0
  4  3  1  0
  6  4  1  0
  7  5  1  0
  8  9  2  0
 10  9  1  0
 11 10  2  0
 12 13  2  0
 12 11  1  0
 13  8  1  0
  3 14  1  0
  6 15  1  0
  6 16  1  0
  8 17  1  0
  9 18  1  0
 10 19  1  0
M  ISO  3  17  14  18  14  19  14
M  END
>  <minimizedAffinity>  (1) 
-3.59041238

>  <minimizedRMSD>  (1) 
0.727962196

$$$$
