
     RDKit          3D

 22 23  0  0  0  0  0  0  0  0999 V2000
   37.3120   22.0700   34.6560 C   0  0  0  0  0  0  0  0  0  0  0  0
   36.5090   21.0890   34.8530 O   0  0  0  0  0  0  0  0  0  0  0  0
   40.0440   22.4310   37.0750 C   0  0  0  0  0  0  0  0  0  0  0  0
   39.4380   23.1250   38.1310 C   0  0  0  0  0  0  0  0  0  0  0  0
   38.1010   23.4690   38.0170 C   0  0  0  0  0  0  0  0  0  0  0  0
   37.4400   23.1180   36.8820 N   0  0  0  0  0  0  0  0  0  0  0  0
   38.0400   22.4470   35.8720 C   0  0  0  0  0  0  0  0  0  0  0  0
   39.3440   22.1150   35.9900 N   0  0  0  0  0  0  0  0  0  0  0  0
   37.4470   22.6950   33.3710 C   0  0  0  0  0  0  0  0  0  0  0  0
   38.3670   23.6520   32.9930 C   0  0  0  0  0  0  0  0  0  0  0  0
   38.4280   24.2030   31.7300 C   0  0  0  0  0  0  0  0  0  0  0  0
   37.5300   23.7910   30.7650 C   0  0  0  0  0  0  0  0  0  0  0  0
   36.5910   22.8310   31.1060 C   0  0  0  0  0  0  0  0  0  0  0  0
   36.5550   22.3010   32.3750 C   0  0  0  0  0  0  0  0  0  0  0  0
   41.1043   22.1463   37.1443 H   0  0  0  0  0  0  0  0  0  0  0  0
   40.0117   23.3909   39.0311 H   0  0  0  0  0  0  0  0  0  0  0  0
   37.5874   24.0121   38.8240 H   0  0  0  0  0  0  0  0  0  0  0  0
   39.0944   23.9955   33.7432 H   0  0  0  0  0  0  0  0  0  0  0  0
   39.1858   24.9644   31.4933 H   0  0  0  0  0  0  0  0  0  0  0  0
   37.5596   24.2147   29.7503 H   0  0  0  0  0  0  0  0  0  0  0  0
   35.8657   22.4886   30.3532 H   0  0  0  0  0  0  0  0  0  0  0  0
   35.7964   21.5404   32.6117 H   0  0  0  0  0  0  0  0  0  0  0  0
  1  2  2  0
  1  7  1  0
  3  4  2  0
  5  4  1  0
  6  5  2  0
  7  8  2  0
  7  6  1  0
  8  3  1  0
  9  1  1  0
 10  9  2  0
 11 10  1  0
 12 13  1  0
 12 11  2  0
 13 14  2  0
 14  9  1  0
  3 15  1  0
  4 16  1  0
  5 17  1  0
 10 18  1  0
 11 19  1  0
 12 20  1  0
 13 21  1  0
 14 22  1  0
M  ISO  8  15  14  16  14  17  14  18  14  19  14  20  14  21  14  22  14
M  END
>  <minimizedAffinity>  (1) 
-3.68765879

>  <minimizedRMSD>  (1) 
1.3347826

$$$$
