
     RDKit          3D

 28 29  0  0  0  0  0  0  0  0999 V2000
   38.6230   22.2350   35.1070 C   0  0  0  0  0  0  0  0  0  0  0  0
   37.4290   21.8980   34.4700 C   0  0  0  0  0  0  0  0  0  0  0  0
   37.4860   21.3730   33.1730 C   0  0  0  0  0  0  0  0  0  0  0  0
   38.7060   21.2160   32.5950 N   0  0  0  0  0  0  0  0  0  0  0  0
   39.8420   21.5500   33.2340 C   0  0  0  0  0  0  0  0  0  0  0  0
   39.8090   22.0570   34.4830 N   0  0  0  0  0  0  0  0  0  0  0  0
   38.4740   22.7610   36.4210 N   0  0  0  0  0  0  0  0  0  0  0  0
   39.5310   22.7730   37.2800 C   0  0  0  0  0  0  0  0  0  0  0  0
   39.1760   23.3030   38.4440 N   0  0  0  0  0  0  0  0  0  0  0  0
   37.8720   23.6380   38.3350 C   0  0  0  0  0  0  0  0  0  0  0  0
   37.4570   23.3000   37.0900 N   0  0  0  0  0  0  0  0  0  0  0  0
   36.2950   20.9820   32.4010 C   0  0  0  0  0  0  0  0  0  0  0  0
   35.4980   20.0280   33.3030 C   0  0  0  0  0  0  0  0  0  0  0  0
   35.4340   22.1290   31.9580 C   0  0  0  0  0  0  0  0  0  0  0  0
   36.7260   20.2240   31.1600 C   0  0  0  0  0  0  0  0  0  0  0  0
   36.4628   22.0416   34.9757 H   0  0  0  0  0  0  0  0  0  0  0  0
   40.8099   21.4076   32.7311 H   0  0  0  0  0  0  0  0  0  0  0  0
   40.5369   22.3966   37.0426 H   0  0  0  0  0  0  0  0  0  0  0  0
   37.2557   24.1031   39.1185 H   0  0  0  0  0  0  0  0  0  0  0  0
   35.6982   20.2677   34.3577 H   0  0  0  0  0  0  0  0  0  0  0  0
   34.4232   20.1424   33.0986 H   0  0  0  0  0  0  0  0  0  0  0  0
   35.8017   18.9907   33.0986 H   0  0  0  0  0  0  0  0  0  0  0  0
   35.0399   22.6540   32.8407 H   0  0  0  0  0  0  0  0  0  0  0  0
   36.0338   22.8260   31.3543 H   0  0  0  0  0  0  0  0  0  0  0  0
   34.5973   21.7476   31.3543 H   0  0  0  0  0  0  0  0  0  0  0  0
   37.2496   19.3031   31.4562 H   0  0  0  0  0  0  0  0  0  0  0  0
   35.8397   19.9656   30.5619 H   0  0  0  0  0  0  0  0  0  0  0  0
   37.4012   20.8535   30.5619 H   0  0  0  0  0  0  0  0  0  0  0  0
  1  7  1  0
  2  1  2  0
  3  2  1  0
  4  3  2  0
  4  5  1  0
  5  6  2  0
  6  1  1  0
  7 11  1  0
  7  8  1  0
  8  9  2  0
 10  9  1  0
 11 10  2  0
 12  3  1  0
 12 13  1  0
 14 12  1  0
 15 12  1  0
  2 16  1  0
  5 17  1  0
  8 18  1  0
 10 19  1  0
 13 20  1  0
 13 21  1  0
 13 22  1  0
 14 23  1  0
 14 24  1  0
 14 25  1  0
 15 26  1  0
 15 27  1  0
 15 28  1  0
M  ISO  8  16  14  17  14  18  14  19  14  20   8  21   8  22   8  23   8
M  ISO  5  24   8  25   8  26   8  27   8  28   8
M  END
>  <minimizedAffinity>  (1) 
-4.24591732

>  <minimizedRMSD>  (1) 
5.19414377

$$$$
