
     RDKit          3D

 19 20  0  0  0  0  0  0  0  0999 V2000
   39.9600   22.7590   37.7980 C   0  0  0  0  0  0  0  0  0  0  0  0
   39.0780   23.2840   38.7450 C   0  0  0  0  0  0  0  0  0  0  0  0
   37.8370   23.6990   38.2840 C   0  0  0  0  0  0  0  0  0  0  0  0
   37.5210   23.5860   36.9640 N   0  0  0  0  0  0  0  0  0  0  0  0
   38.4120   23.0690   36.0840 C   0  0  0  0  0  0  0  0  0  0  0  0
   39.6310   22.6560   36.5070 N   0  0  0  0  0  0  0  0  0  0  0  0
   38.0400   22.9600   34.6650 C   0  0  0  0  0  0  0  0  0  0  0  0
   37.7140   21.7960   34.2920 O   0  0  0  0  0  0  0  0  0  0  0  0
   37.6110   25.3700   32.1090 N   0  0  0  0  0  0  0  0  0  0  0  0
   37.3350   24.1750   32.6500 N   0  0  0  0  0  0  0  0  0  0  0  0
   38.0470   24.0840   33.7810 C   0  0  0  0  0  0  0  0  0  0  0  0
   38.7860   25.2340   33.9660 C   0  0  0  0  0  0  0  0  0  0  0  0
   38.4970   26.0510   32.8860 C   0  0  0  0  0  0  0  0  0  0  0  0
   40.9544   22.4204   38.1243 H   0  0  0  0  0  0  0  0  0  0  0  0
   39.3543   23.3647   39.8067 H   0  0  0  0  0  0  0  0  0  0  0  0
   37.1048   24.1213   38.9879 H   0  0  0  0  0  0  0  0  0  0  0  0
   37.2090   25.7232   31.2289 H   0  0  0  0  0  0  0  0  0  0  0  0
   39.4663   25.4567   34.8013 H   0  0  0  0  0  0  0  0  0  0  0  0
   38.9041   27.0546   32.6936 H   0  0  0  0  0  0  0  0  0  0  0  0
  1  2  2  0
  3  2  1  0
  4  3  2  0
  5  6  2  0
  5  4  1  0
  6  1  1  0
  7  5  1  0
  8  7  2  0
  9 10  1  0
  9 13  1  0
 10 11  2  0
 11 12  1  0
 11  7  1  0
 13 12  2  0
  1 14  1  0
  2 15  1  0
  3 16  1  0
  9 17  1  0
 12 18  1  0
 13 19  1  0
M  ISO  6  14  14  15  14  16  14  17   9  18  14  19  14
M  END
>  <minimizedAffinity>  (1) 
-3.44768977

>  <minimizedRMSD>  (1) 
1.87221563

$$$$
