
     RDKit          3D

 17 18  0  0  0  0  0  0  0  0999 V2000
   39.8850   22.7230   37.7560 C   0  0  0  0  0  0  0  0  0  0  0  0
   39.0410   23.4020   38.6620 C   0  0  0  0  0  0  0  0  0  0  0  0
   37.8270   23.8830   38.1980 C   0  0  0  0  0  0  0  0  0  0  0  0
   37.5270   23.6670   36.8820 N   0  0  0  0  0  0  0  0  0  0  0  0
   38.3470   23.0170   36.0340 C   0  0  0  0  0  0  0  0  0  0  0  0
   39.5290   22.5470   36.4810 N   0  0  0  0  0  0  0  0  0  0  0  0
   37.9290   22.8390   34.6440 C   0  0  0  0  0  0  0  0  0  0  0  0
   37.4630   21.7030   34.3570 O   0  0  0  0  0  0  0  0  0  0  0  0
   38.0540   23.9100   33.6870 C   0  0  0  0  0  0  0  0  0  0  0  0
   37.3030   24.1450   32.6020 N   0  0  0  0  0  0  0  0  0  0  0  0
   37.7280   25.2060   31.9910 O   0  0  0  0  0  0  0  0  0  0  0  0
   38.7700   25.7070   32.6530 C   0  0  0  0  0  0  0  0  0  0  0  0
   38.9710   24.8850   33.7200 N   0  0  0  0  0  0  0  0  0  0  0  0
   40.8518   22.3325   38.1064 H   0  0  0  0  0  0  0  0  0  0  0  0
   39.3400   23.5456   39.7108 H   0  0  0  0  0  0  0  0  0  0  0  0
   37.1322   24.4175   38.8625 H   0  0  0  0  0  0  0  0  0  0  0  0
   39.3507   26.6036   32.3907 H   0  0  0  0  0  0  0  0  0  0  0  0
  1  2  2  0
  3  2  1  0
  4  3  2  0
  5  6  2  0
  5  4  1  0
  6  1  1  0
  7  5  1  0
  8  7  2  0
  9 13  1  0
  9  7  1  0
 10  9  2  0
 11 10  1  0
 11 12  1  0
 12 13  2  0
  1 14  1  0
  2 15  1  0
  3 16  1  0
 12 17  1  0
M  ISO  4  14  14  15  14  16  14  17  14
M  END
>  <minimizedAffinity>  (1) 
-3.44506598

>  <minimizedRMSD>  (1) 
1.62149024

$$$$
