
     RDKit          3D

 36 39  0  0  1  0  0  0  0  0999 V2000
   37.7960   22.0860   34.5720 C   0  0  0  0  0  0  0  0  0  0  0  0
   36.6580   21.6010   34.7790 O   0  0  0  0  0  0  0  0  0  0  0  0
   38.1580   22.3370   33.2200 N   0  0  0  0  0  0  0  0  0  0  0  0
   37.5630   21.4500   32.2340 C   0  0  0  0  0  0  0  0  0  0  0  0
   37.7230   21.9670   30.8320 C   0  0  0  0  0  0  0  0  0  0  0  0
   37.6220   23.3280   30.7030 O   0  0  0  0  0  0  0  0  0  0  0  0
   38.1680   24.1120   31.6610 C   0  0  0  0  0  0  0  0  0  0  0  0
   39.0230   23.3320   32.6480 C   0  0  1  0  0  0  0  0  0  0  0  0
   39.4810   24.3090   33.6230 N   0  0  0  0  0  0  0  0  0  0  0  0
   40.7110   24.3810   34.1690 C   0  0  0  0  0  0  0  0  0  0  0  0
   40.7800   25.4120   35.0330 N   0  0  0  0  0  0  0  0  0  0  0  0
   39.5690   26.0030   35.0320 C   0  0  0  0  0  0  0  0  0  0  0  0
   38.9910   27.0790   35.6760 C   0  0  0  0  0  0  0  0  0  0  0  0
   37.7200   27.4780   35.4960 N   0  0  0  0  0  0  0  0  0  0  0  0
   36.9650   26.7590   34.6140 C   0  0  0  0  0  0  0  0  0  0  0  0
   37.4840   25.7020   33.9620 N   0  0  0  0  0  0  0  0  0  0  0  0
   38.7550   25.3120   34.1490 C   0  0  0  0  0  0  0  0  0  0  0  0
   40.5370   22.0490   37.0240 C   0  0  0  0  0  0  0  0  0  0  0  0
   40.0430   22.8750   38.0270 C   0  0  0  0  0  0  0  0  0  0  0  0
   38.7960   23.4320   37.8640 C   0  0  0  0  0  0  0  0  0  0  0  0
   38.1300   23.1320   36.7240 N   0  0  0  0  0  0  0  0  0  0  0  0
   38.6130   22.3310   35.7550 C   0  0  0  0  0  0  0  0  0  0  0  0
   39.8300   21.7930   35.9220 N   0  0  0  0  0  0  0  0  0  0  0  0
   38.0481   20.4653   32.3055 H   0  0  0  0  0  0  0  0  0  0  0  0
   36.4860   21.3835   32.4474 H   0  0  0  0  0  0  0  0  0  0  0  0
   38.7146   21.6619   30.4665 H   0  0  0  0  0  0  0  0  0  0  0  0
   36.8935   21.5398   30.2495 H   0  0  0  0  0  0  0  0  0  0  0  0
   38.7975   24.8723   31.1756 H   0  0  0  0  0  0  0  0  0  0  0  0
   37.3412   24.5657   32.2271 H   0  0  0  0  0  0  0  0  0  0  0  0
   39.8980   22.8247   32.2156 H   0  0  0  0  0  0  0  0  0  0  0  0
   41.5405   23.6954   33.9414 H   0  0  0  0  0  0  0  0  0  0  0  0
   39.6121   27.6477   36.3836 H   0  0  0  0  0  0  0  0  0  0  0  0
   35.9189   27.0475   34.4340 H   0  0  0  0  0  0  0  0  0  0  0  0
   41.5327   21.5965   37.1415 H   0  0  0  0  0  0  0  0  0  0  0  0
   40.6361   23.0786   38.9308 H   0  0  0  0  0  0  0  0  0  0  0  0
   38.3586   24.0927   38.6270 H   0  0  0  0  0  0  0  0  0  0  0  0
  1  2  2  0
  1 22  1  0
  3  1  1  0
  4  3  1  0
  5  4  1  0
  6  5  1  0
  6  7  1  0
  7  8  1  0
  8  3  1  0
  8  9  1  0
  9 17  1  0
  9 10  1  0
 10 11  2  0
 12 11  1  0
 12 13  2  0
 14 13  1  0
 15 14  2  0
 16 17  2  0
 16 15  1  0
 17 12  1  0
 18 19  2  0
 20 19  1  0
 21 20  2  0
 22 23  2  0
 22 21  1  0
 23 18  1  0
  4 24  1  0
  4 25  1  0
  5 26  1  0
  5 27  1  0
  7 28  1  0
  7 29  1  0
  8 30  1  6
 10 31  1  0
 13 32  1  0
 15 33  1  0
 18 34  1  0
 19 35  1  0
 20 36  1  0
M  ISO  8  24  13  25  13  26  13  27  13  28  13  29  13  30  13  31  14
M  ISO  5  32  14  33  14  34  14  35  14  36  14
M  END
>  <minimizedAffinity>  (1) 
-5.19765091

>  <minimizedRMSD>  (1) 
1.44749272

$$$$
