
     RDKit          3D

 38 40  0  0  1  0  0  0  0  0999 V2000
   36.9920   21.7050   34.8800 C   0  0  0  0  0  0  0  0  0  0  0  0
   36.0330   21.0460   35.3450 O   0  0  0  0  0  0  0  0  0  0  0  0
   37.0780   21.8520   33.4670 N   0  0  0  0  0  0  0  0  0  0  0  0
   36.5150   20.7410   32.7020 C   0  0  0  0  0  0  0  0  0  0  0  0
   36.3680   21.0960   31.2430 C   0  0  0  0  0  0  0  0  0  0  0  0
   36.0220   22.3780   30.9860 O   0  0  0  0  0  0  0  0  0  0  0  0
   36.4540   23.3740   31.8000 C   0  0  0  0  0  0  0  0  0  0  0  0
   37.6260   22.9070   32.6600 C   0  0  1  0  0  0  0  0  0  0  0  0
   38.2390   23.9790   33.3680 N   0  0  0  0  0  0  0  0  0  0  0  0
   37.4510   25.0030   33.7790 C   0  0  0  0  0  0  0  0  0  0  0  0
   37.8780   26.1010   34.4650 C   0  0  0  0  0  0  0  0  0  0  0  0
   36.9690   27.1820   34.8860 C   0  0  0  0  0  0  0  0  0  0  0  0
   39.2420   26.1790   34.7710 C   0  0  0  0  0  0  0  0  0  0  0  0
   39.7040   27.1740   35.4070 O   0  0  0  0  0  0  0  0  0  0  0  0
   40.0370   25.1600   34.3630 N   0  0  0  0  0  0  0  0  0  0  0  0
   39.5400   24.1260   33.6980 C   0  0  0  0  0  0  0  0  0  0  0  0
   40.2980   23.1700   33.3190 O   0  0  0  0  0  0  0  0  0  0  0  0
   40.0000   22.3120   36.9050 C   0  0  0  0  0  0  0  0  0  0  0  0
   39.5820   23.3170   37.7750 C   0  0  0  0  0  0  0  0  0  0  0  0
   38.2900   23.7790   37.6690 C   0  0  0  0  0  0  0  0  0  0  0  0
   37.4920   23.2190   36.7100 N   0  0  0  0  0  0  0  0  0  0  0  0
   37.9210   22.2490   35.8820 C   0  0  0  0  0  0  0  0  0  0  0  0
   39.1830   21.8100   35.9990 N   0  0  0  0  0  0  0  0  0  0  0  0
   37.1807   19.8700   32.7931 H   0  0  0  0  0  0  0  0  0  0  0  0
   35.5172   20.5135   33.1052 H   0  0  0  0  0  0  0  0  0  0  0  0
   37.3305   20.8994   30.7481 H   0  0  0  0  0  0  0  0  0  0  0  0
   35.5396   20.4789   30.8649 H   0  0  0  0  0  0  0  0  0  0  0  0
   36.7764   24.2271   31.1850 H   0  0  0  0  0  0  0  0  0  0  0  0
   35.6274   23.6683   32.4634 H   0  0  0  0  0  0  0  0  0  0  0  0
   38.4745   22.5234   32.0744 H   0  0  0  0  0  0  0  0  0  0  0  0
   36.3791   24.9429   33.5392 H   0  0  0  0  0  0  0  0  0  0  0  0
   36.9335   27.2242   35.9846 H   0  0  0  0  0  0  0  0  0  0  0  0
   37.3349   28.1424   34.4938 H   0  0  0  0  0  0  0  0  0  0  0  0
   35.9601   26.9863   34.4938 H   0  0  0  0  0  0  0  0  0  0  0  0
   41.0449   25.1893   34.5732 H   0  0  0  0  0  0  0  0  0  0  0  0
   41.0294   21.9305   36.9749 H   0  0  0  0  0  0  0  0  0  0  0  0
   40.2682   23.7311   38.5284 H   0  0  0  0  0  0  0  0  0  0  0  0
   37.9124   24.5710   38.3324 H   0  0  0  0  0  0  0  0  0  0  0  0
  1  2  2  0
  1 22  1  0
  3  1  1  0
  4  3  1  0
  5  4  1  0
  6  5  1  0
  6  7  1  0
  7  8  1  0
  8  9  1  0
  8  3  1  0
  9 16  1  0
  9 10  1  0
 10 11  2  0
 11 13  1  0
 11 12  1  0
 13 14  2  0
 15 13  1  0
 16 15  1  0
 17 16  2  0
 18 19  2  0
 20 19  1  0
 21 20  2  0
 22 23  2  0
 22 21  1  0
 23 18  1  0
  4 24  1  0
  4 25  1  0
  5 26  1  0
  5 27  1  0
  7 28  1  0
  7 29  1  0
  8 30  1  6
 10 31  1  0
 12 32  1  0
 12 33  1  0
 12 34  1  0
 15 35  1  0
 18 36  1  0
 19 37  1  0
 20 38  1  0
M  ISO  8  24  13  25  13  26  13  27  13  28  13  29  13  30  13  31  14
M  ISO  7  32   8  33   8  34   8  35   9  36  14  37  14  38  14
M  END
>  <minimizedAffinity>  (1) 
-5.20363951

>  <minimizedRMSD>  (1) 
0.715465784

$$$$
