
     RDKit          3D

 25 25  0  0  0  0  0  0  0  0999 V2000
   38.4970   23.6960   37.1410 C   0  0  0  0  0  0  0  0  0  0  0  0
   41.7550   21.8320   36.7140 C   0  0  0  0  0  0  0  0  0  0  0  0
   40.5070   22.1810   37.2420 C   0  0  0  0  0  0  0  0  0  0  0  0
   39.8150   23.2590   36.6520 C   0  0  0  0  0  0  0  0  0  0  0  0
   40.3760   23.9120   35.6070 N   0  0  0  0  0  0  0  0  0  0  0  0
   41.5860   23.5430   35.1270 C   0  0  0  0  0  0  0  0  0  0  0  0
   42.2730   22.5090   35.6750 N   0  0  0  0  0  0  0  0  0  0  0  0
   42.4660   20.7310   37.3120 C   0  0  0  0  0  0  0  0  0  0  0  0
   43.4520   20.2150   36.6980 O   0  0  0  0  0  0  0  0  0  0  0  0
   42.1230   20.2060   38.5330 O   0  0  0  0  0  0  0  0  0  0  0  0
   38.5270   23.6180   38.6650 C   0  0  0  0  0  0  0  0  0  0  0  0
   38.1050   25.0720   36.6740 C   0  0  0  0  0  0  0  0  0  0  0  0
   37.4330   22.7290   36.6400 C   0  0  0  0  0  0  0  0  0  0  0  0
   40.0782   21.6306   38.0924 H   0  0  0  0  0  0  0  0  0  0  0  0
   42.0204   24.0907   34.2777 H   0  0  0  0  0  0  0  0  0  0  0  0
   42.6382   19.4486   38.9085 H   0  0  0  0  0  0  0  0  0  0  0  0
   38.1625   24.5658   39.0879 H   0  0  0  0  0  0  0  0  0  0  0  0
   37.8818   22.7936   39.0027 H   0  0  0  0  0  0  0  0  0  0  0  0
   39.5584   23.4384   39.0027 H   0  0  0  0  0  0  0  0  0  0  0  0
   37.9213   25.7167   37.5461 H   0  0  0  0  0  0  0  0  0  0  0  0
   38.9174   25.4986   36.0673 H   0  0  0  0  0  0  0  0  0  0  0  0
   37.1898   25.0064   36.0673 H   0  0  0  0  0  0  0  0  0  0  0  0
   36.9242   22.2666   37.4987 H   0  0  0  0  0  0  0  0  0  0  0  0
   36.6990   23.2755   36.0297 H   0  0  0  0  0  0  0  0  0  0  0  0
   37.9071   21.9462   36.0297 H   0  0  0  0  0  0  0  0  0  0  0  0
  1 11  1  0
  2  3  2  0
  2  8  1  0
  4  1  1  0
  4  3  1  0
  5  4  2  0
  6  5  1  0
  6  7  2  0
  7  2  1  0
  8 10  1  0
  9  8  2  0
 12  1  1  0
 13  1  1  0
  3 14  1  0
  6 15  1  0
 10 16  1  0
 11 17  1  0
 11 18  1  0
 11 19  1  0
 12 20  1  0
 12 21  1  0
 12 22  1  0
 13 23  1  0
 13 24  1  0
 13 25  1  0
M  ISO  8  14  14  15  14  16   3  17   8  18   8  19   8  20   8  21   8
M  ISO  4  22   8  23   8  24   8  25   8
M  END
>  <minimizedAffinity>  (1) 
-4.10519361

>  <minimizedRMSD>  (1) 
0.935590744

$$$$
