
     RDKit          3D

 40 42  0  0  1  0  0  0  0  0999 V2000
   36.4940   21.3630   35.0690 C   0  0  0  0  0  0  0  0  0  0  0  0
   35.5470   20.7770   35.6510 O   0  0  0  0  0  0  0  0  0  0  0  0
   36.4880   21.2980   33.6620 N   0  0  0  0  0  0  0  0  0  0  0  0
   35.9100   20.1100   33.0620 C   0  0  0  0  0  0  0  0  0  0  0  0
   35.6590   20.2810   31.5870 C   0  0  0  0  0  0  0  0  0  0  0  0
   35.2860   21.5290   31.1800 O   0  0  0  0  0  0  0  0  0  0  0  0
   35.7940   22.6080   31.8370 C   0  0  0  0  0  0  0  0  0  0  0  0
   36.9760   22.2470   32.7010 C   0  0  2  0  0  0  0  0  0  0  0  0
   39.6360   22.5540   36.5430 C   0  0  0  0  0  0  0  0  0  0  0  0
   39.1860   23.2980   37.6400 C   0  0  0  0  0  0  0  0  0  0  0  0
   37.8170   23.3890   37.8710 C   0  0  0  0  0  0  0  0  0  0  0  0
   37.0090   22.7350   36.9950 N   0  0  0  0  0  0  0  0  0  0  0  0
   37.4540   22.0230   35.9430 C   0  0  0  0  0  0  0  0  0  0  0  0
   38.7780   21.9460   35.7360 N   0  0  0  0  0  0  0  0  0  0  0  0
   38.0090   21.7710   31.8420 N   0  0  0  0  0  0  0  0  0  0  0  0
   37.5650   21.1610   30.6210 C   0  0  0  0  0  0  0  0  0  0  0  0
   38.7960   20.9810   29.7530 C   0  0  0  0  0  0  0  0  0  0  0  0
   39.8980   20.2300   30.4540 C   0  0  0  0  0  0  0  0  0  0  0  0
   39.3340   19.7090   31.7560 C   0  0  0  0  0  0  0  0  0  0  0  0
   38.7880   20.8060   32.6200 C   0  0  0  0  0  0  0  0  0  0  0  0
   36.6017   19.2673   33.2081 H   0  0  0  0  0  0  0  0  0  0  0  0
   34.9418   19.9230   33.5494 H   0  0  0  0  0  0  0  0  0  0  0  0
   36.5858   20.0179   31.0561 H   0  0  0  0  0  0  0  0  0  0  0  0
   34.8041   19.6284   31.3563 H   0  0  0  0  0  0  0  0  0  0  0  0
   36.1127   23.3557   31.0958 H   0  0  0  0  0  0  0  0  0  0  0  0
   35.0055   23.0043   32.4936 H   0  0  0  0  0  0  0  0  0  0  0  0
   37.4179   23.0837   33.2620 H   0  0  0  0  0  0  0  0  0  0  0  0
   40.7156   22.4728   36.3481 H   0  0  0  0  0  0  0  0  0  0  0  0
   39.9014   23.8013   38.3070 H   0  0  0  0  0  0  0  0  0  0  0  0
   37.4098   23.9603   38.7182 H   0  0  0  0  0  0  0  0  0  0  0  0
   37.1026   20.1852   30.8307 H   0  0  0  0  0  0  0  0  0  0  0  0
   36.8123   21.7850   30.1169 H   0  0  0  0  0  0  0  0  0  0  0  0
   39.1734   21.9740   29.4676 H   0  0  0  0  0  0  0  0  0  0  0  0
   38.4988   20.3902   28.8740 H   0  0  0  0  0  0  0  0  0  0  0  0
   40.2375   19.3909   29.8290 H   0  0  0  0  0  0  0  0  0  0  0  0
   40.7590   20.8888   30.6402 H   0  0  0  0  0  0  0  0  0  0  0  0
   38.5241   18.9993   31.5317 H   0  0  0  0  0  0  0  0  0  0  0  0
   40.1531   19.2235   32.3068 H   0  0  0  0  0  0  0  0  0  0  0  0
   39.6260   21.3305   33.1023 H   0  0  0  0  0  0  0  0  0  0  0  0
   38.1226   20.3530   33.3697 H   0  0  0  0  0  0  0  0  0  0  0  0
  1  2  2  0
  1 13  1  0
  3  1  1  0
  4  3  1  0
  5  4  1  0
  6  5  1  0
  6  7  1  0
  7  8  1  0
  8  3  1  0
  9 10  2  0
 10 11  1  0
 12 11  2  0
 13 12  1  0
 14 13  2  0
 14  9  1  0
 15 20  1  0
 15  8  1  0
 16 15  1  0
 17 18  1  0
 17 16  1  0
 18 19  1  0
 19 20  1  0
  4 21  1  0
  4 22  1  0
  5 23  1  0
  5 24  1  0
  7 25  1  0
  7 26  1  0
  8 27  1  1
  9 28  1  0
 10 29  1  0
 11 30  1  0
 16 31  1  0
 16 32  1  0
 17 33  1  0
 17 34  1  0
 18 35  1  0
 18 36  1  0
 19 37  1  0
 19 38  1  0
 20 39  1  0
 20 40  1  0
M  ISO  8  21  13  22  13  23  13  24  13  25  13  26  13  27  13  28  14
M  ISO  8  29  14  30  14  31  13  32  13  33  13  34  13  35  13  36  13
M  ISO  4  37  13  38  13  39  13  40  13
M  END
>  <minimizedAffinity>  (1) 
-4.56952333

>  <minimizedRMSD>  (1) 
1.46415889

$$$$
