
     RDKit          3D

 37 38  0  0  1  0  0  0  0  0999 V2000
   37.6990   22.5070   34.7630 C   0  0  0  0  0  0  0  0  0  0  0  0
   36.9970   21.4760   34.6610 O   0  0  0  0  0  0  0  0  0  0  0  0
   37.9080   23.3190   33.6020 N   0  0  0  0  0  0  0  0  0  0  0  0
   37.8720   22.4930   32.3740 C   0  0  0  0  0  0  0  0  0  0  0  0
   37.7940   23.3830   31.1450 C   0  0  0  0  0  0  0  0  0  0  0  0
   36.9890   24.4780   31.2820 O   0  0  0  0  0  0  0  0  0  0  0  0
   36.9420   25.1000   32.5060 C   0  0  0  0  0  0  0  0  0  0  0  0
   38.1200   24.6800   33.3770 C   0  0  1  0  0  0  0  0  0  0  0  0
   39.9700   22.7180   37.6360 C   0  0  0  0  0  0  0  0  0  0  0  0
   39.1600   23.3260   38.6090 C   0  0  0  0  0  0  0  0  0  0  0  0
   37.8500   23.6470   38.2690 C   0  0  0  0  0  0  0  0  0  0  0  0
   37.4340   23.3520   37.0100 N   0  0  0  0  0  0  0  0  0  0  0  0
   38.2350   22.7660   36.0910 C   0  0  0  0  0  0  0  0  0  0  0  0
   39.4860   22.4660   36.4380 N   0  0  0  0  0  0  0  0  0  0  0  0
   38.5350   25.7010   34.3170 C   0  0  0  0  0  0  0  0  0  0  0  0
   37.5680   26.1780   35.3390 C   0  0  0  0  0  0  0  0  0  0  0  0
   39.9270   25.4180   34.8390 C   0  0  0  0  0  0  0  0  0  0  0  0
   38.7680   26.9720   33.4520 C   0  0  0  0  0  0  0  0  0  0  0  0
   38.7839   21.8801   32.3215 H   0  0  0  0  0  0  0  0  0  0  0  0
   36.9844   21.8439   32.4040 H   0  0  0  0  0  0  0  0  0  0  0  0
   37.4115   22.7793   30.3088 H   0  0  0  0  0  0  0  0  0  0  0  0
   38.8111   23.7653   30.9739 H   0  0  0  0  0  0  0  0  0  0  0  0
   36.9747   26.1894   32.3575 H   0  0  0  0  0  0  0  0  0  0  0  0
   36.0100   24.8082   33.0121 H   0  0  0  0  0  0  0  0  0  0  0  0
   39.1503   24.6715   32.9918 H   0  0  0  0  0  0  0  0  0  0  0  0
   41.0102   22.4520   37.8753 H   0  0  0  0  0  0  0  0  0  0  0  0
   39.5514   23.5427   39.6139 H   0  0  0  0  0  0  0  0  0  0  0  0
   37.1742   24.1233   38.9946 H   0  0  0  0  0  0  0  0  0  0  0  0
   37.9692   25.9801   36.3439 H   0  0  0  0  0  0  0  0  0  0  0  0
   37.4067   27.2590   35.2149 H   0  0  0  0  0  0  0  0  0  0  0  0
   36.6121   25.6481   35.2149 H   0  0  0  0  0  0  0  0  0  0  0  0
   39.9137   25.4207   35.9389 H   0  0  0  0  0  0  0  0  0  0  0  0
   40.2606   24.4337   34.4788 H   0  0  0  0  0  0  0  0  0  0  0  0
   40.6185   26.1939   34.4788 H   0  0  0  0  0  0  0  0  0  0  0  0
   38.9270   27.8392   34.1099 H   0  0  0  0  0  0  0  0  0  0  0  0
   39.6544   26.8260   32.8171 H   0  0  0  0  0  0  0  0  0  0  0  0
   37.8875   27.1499   32.8171 H   0  0  0  0  0  0  0  0  0  0  0  0
  1 13  1  0
  2  1  2  0
  3  1  1  0
  4  3  1  0
  5  6  1  0
  5  4  1  0
  6  7  1  0
  7  8  1  0
  8  3  1  0
  8 15  1  0
  9 10  2  0
 11 10  1  0
 12 11  2  0
 13 14  2  0
 13 12  1  0
 14  9  1  0
 15 17  1  0
 15 16  1  0
 18 15  1  0
  4 19  1  0
  4 20  1  0
  5 21  1  0
  5 22  1  0
  7 23  1  0
  7 24  1  0
  8 25  1  6
  9 26  1  0
 10 27  1  0
 11 28  1  0
 16 29  1  0
 16 30  1  0
 16 31  1  0
 17 32  1  0
 17 33  1  0
 17 34  1  0
 18 35  1  0
 18 36  1  0
 18 37  1  0
M  ISO  8  19  13  20  13  21  13  22  13  23  13  24  13  25  13  26  14
M  ISO  8  27  14  28  14  29   8  30   8  31   8  32   8  33   8  34   8
M  ISO  3  35   8  36   8  37   8
M  END
>  <minimizedAffinity>  (1) 
-4.7291584

>  <minimizedRMSD>  (1) 
1.61674857

$$$$
