
     RDKit          3D

 33 35  0  0  1  0  0  0  0  0999 V2000
   37.2620   21.9280   34.8740 C   0  0  0  0  0  0  0  0  0  0  0  0
   36.3690   21.0880   35.1240 O   0  0  0  0  0  0  0  0  0  0  0  0
   37.4580   22.3240   33.5190 N   0  0  0  0  0  0  0  0  0  0  0  0
   37.1080   21.2840   32.5450 C   0  0  0  0  0  0  0  0  0  0  0  0
   37.0050   21.8460   31.1530 C   0  0  0  0  0  0  0  0  0  0  0  0
   36.4620   23.1020   31.0740 O   0  0  0  0  0  0  0  0  0  0  0  0
   36.7810   24.0010   32.0290 C   0  0  0  0  0  0  0  0  0  0  0  0
   37.9310   23.5320   32.9300 C   0  0  1  0  0  0  0  0  0  0  0  0
   39.9550   22.6030   37.2880 C   0  0  0  0  0  0  0  0  0  0  0  0
   39.3230   23.3760   38.2500 C   0  0  0  0  0  0  0  0  0  0  0  0
   37.9890   23.6570   38.0680 C   0  0  0  0  0  0  0  0  0  0  0  0
   37.3970   23.1500   36.9500 N   0  0  0  0  0  0  0  0  0  0  0  0
   38.0130   22.4100   36.0330 C   0  0  0  0  0  0  0  0  0  0  0  0
   39.3120   22.1470   36.2280 N   0  0  0  0  0  0  0  0  0  0  0  0
   38.3110   24.5990   33.8400 C   0  0  0  0  0  0  0  0  0  0  0  0
   39.6710   24.7790   34.1190 C   0  0  0  0  0  0  0  0  0  0  0  0
   40.1950   25.7500   34.9450 C   0  0  0  0  0  0  0  0  0  0  0  0
   39.3370   26.6120   35.5460 N   0  0  0  0  0  0  0  0  0  0  0  0
   38.0160   26.4290   35.2690 C   0  0  0  0  0  0  0  0  0  0  0  0
   37.5260   25.4750   34.4610 N   0  0  0  0  0  0  0  0  0  0  0  0
   37.8841   20.5046   32.5595 H   0  0  0  0  0  0  0  0  0  0  0  0
   36.1290   20.8661   32.8223 H   0  0  0  0  0  0  0  0  0  0  0  0
   38.0175   21.8844   30.7248 H   0  0  0  0  0  0  0  0  0  0  0  0
   36.3230   21.1811   30.6028 H   0  0  0  0  0  0  0  0  0  0  0  0
   37.0783   24.9409   31.5410 H   0  0  0  0  0  0  0  0  0  0  0  0
   35.8947   24.1336   32.6669 H   0  0  0  0  0  0  0  0  0  0  0  0
   38.8744   23.3109   32.4093 H   0  0  0  0  0  0  0  0  0  0  0  0
   41.0214   22.3628   37.4109 H   0  0  0  0  0  0  0  0  0  0  0  0
   39.8693   23.7513   39.1279 H   0  0  0  0  0  0  0  0  0  0  0  0
   37.4253   24.2636   38.7921 H   0  0  0  0  0  0  0  0  0  0  0  0
   40.3801   24.0883   33.6393 H   0  0  0  0  0  0  0  0  0  0  0  0
   41.2797   25.8240   35.1124 H   0  0  0  0  0  0  0  0  0  0  0  0
   37.2970   27.1137   35.7425 H   0  0  0  0  0  0  0  0  0  0  0  0
  1  2  2  0
  1 13  1  0
  3  1  1  0
  4  3  1  0
  5  4  1  0
  6  5  1  0
  6  7  1  0
  7  8  1  0
  8  3  1  0
  8 15  1  0
  9 10  2  0
 11 10  1  0
 12 11  2  0
 13 14  2  0
 13 12  1  0
 14  9  1  0
 15 16  2  0
 15 20  1  0
 16 17  1  0
 17 18  2  0
 19 18  1  0
 20 19  2  0
  4 21  1  0
  4 22  1  0
  5 23  1  0
  5 24  1  0
  7 25  1  0
  7 26  1  0
  8 27  1  6
  9 28  1  0
 10 29  1  0
 11 30  1  0
 16 31  1  0
 17 32  1  0
 19 33  1  0
M  ISO  8  21  13  22  13  23  13  24  13  25  13  26  13  27  13  28  14
M  ISO  5  29  14  30  14  31  14  32  14  33  14
M  END
>  <minimizedAffinity>  (1) 
-4.9400506

>  <minimizedRMSD>  (1) 
0.569353759

$$$$
