
     RDKit          3D

 32 34  0  0  1  0  0  0  0  0999 V2000
   36.5630   21.3890   34.8590 C   0  0  0  0  0  0  0  0  0  0  0  0
   35.6460   20.7060   35.4090 O   0  0  0  0  0  0  0  0  0  0  0  0
   36.5440   21.4320   33.4370 N   0  0  0  0  0  0  0  0  0  0  0  0
   36.0310   20.2550   32.7690 C   0  0  0  0  0  0  0  0  0  0  0  0
   35.7620   20.5210   31.3120 C   0  0  0  0  0  0  0  0  0  0  0  0
   35.3320   21.7700   30.9930 O   0  0  0  0  0  0  0  0  0  0  0  0
   35.7610   22.8340   31.7230 C   0  0  0  0  0  0  0  0  0  0  0  0
   36.9670   22.4920   32.5760 C   0  0  2  0  0  0  0  0  0  0  0  0
   39.6540   22.5510   36.4460 C   0  0  0  0  0  0  0  0  0  0  0  0
   39.1750   23.2580   37.5560 C   0  0  0  0  0  0  0  0  0  0  0  0
   37.8060   23.3300   37.7490 C   0  0  0  0  0  0  0  0  0  0  0  0
   37.0170   22.6990   36.8330 N   0  0  0  0  0  0  0  0  0  0  0  0
   37.4980   22.0280   35.7780 C   0  0  0  0  0  0  0  0  0  0  0  0
   38.8250   21.9600   35.5920 N   0  0  0  0  0  0  0  0  0  0  0  0
   38.1620   22.2150   31.7740 C   0  0  0  0  0  0  0  0  0  0  0  0
   38.5200   22.7470   30.5290 C   0  0  0  0  0  0  0  0  0  0  0  0
   39.7130   22.1910   30.1820 C   0  0  0  0  0  0  0  0  0  0  0  0
   40.0890   21.3460   31.1660 N   0  0  0  0  0  0  0  0  0  0  0  0
   39.1500   21.3800   32.0980 N   0  0  0  0  0  0  0  0  0  0  0  0
   36.7704   19.4450   32.8539 H   0  0  0  0  0  0  0  0  0  0  0  0
   35.0827   19.9714   33.2490 H   0  0  0  0  0  0  0  0  0  0  0  0
   36.6963   20.3383   30.7609 H   0  0  0  0  0  0  0  0  0  0  0  0
   34.9334   19.8499   31.0417 H   0  0  0  0  0  0  0  0  0  0  0  0
   36.0322   23.6492   31.0360 H   0  0  0  0  0  0  0  0  0  0  0  0
   34.9444   23.1341   32.3961 H   0  0  0  0  0  0  0  0  0  0  0  0
   37.3000   23.3428   33.1886 H   0  0  0  0  0  0  0  0  0  0  0  0
   40.7389   22.4835   36.2776 H   0  0  0  0  0  0  0  0  0  0  0  0
   39.8694   23.7441   38.2571 H   0  0  0  0  0  0  0  0  0  0  0  0
   37.3739   23.8720   38.6031 H   0  0  0  0  0  0  0  0  0  0  0  0
   37.9447   23.4776   29.9414 H   0  0  0  0  0  0  0  0  0  0  0  0
   40.2746   22.3950   29.2584 H   0  0  0  0  0  0  0  0  0  0  0  0
   40.9487   20.7791   31.1873 H   0  0  0  0  0  0  0  0  0  0  0  0
  1  2  2  0
  1 13  1  0
  3  1  1  0
  4  3  1  0
  5  4  1  0
  6  5  1  0
  6  7  1  0
  7  8  1  0
  8  3  1  0
  9 10  2  0
 10 11  1  0
 12 11  2  0
 13 12  1  0
 14 13  2  0
 14  9  1  0
 15 19  2  0
 15  8  1  0
 16 15  1  0
 17 16  2  0
 17 18  1  0
 18 19  1  0
  4 20  1  0
  4 21  1  0
  5 22  1  0
  5 23  1  0
  7 24  1  0
  7 25  1  0
  8 26  1  1
  9 27  1  0
 10 28  1  0
 11 29  1  0
 16 30  1  0
 17 31  1  0
 18 32  1  0
M  ISO  8  20  13  21  13  22  13  23  13  24  13  25  13  26  13  27  14
M  ISO  5  28  14  29  14  30  14  31  14  32   9
M  END
>  <minimizedAffinity>  (1) 
-4.32232904

>  <minimizedRMSD>  (1) 
1.14321566

$$$$
