
     RDKit          3D

 28 29  0  0  1  0  0  0  0  0999 V2000
   37.0300   21.7480   34.9260 C   0  0  0  0  0  0  0  0  0  0  0  0
   36.1020   20.9730   35.2690 O   0  0  0  0  0  0  0  0  0  0  0  0
   37.1820   22.0160   33.5390 N   0  0  0  0  0  0  0  0  0  0  0  0
   36.7730   20.9300   32.6500 C   0  0  0  0  0  0  0  0  0  0  0  0
   36.6540   21.4200   31.2230 C   0  0  0  0  0  0  0  0  0  0  0  0
   36.1640   22.6820   31.0670 O   0  0  0  0  0  0  0  0  0  0  0  0
   36.5420   23.6280   31.9580 C   0  0  0  0  0  0  0  0  0  0  0  0
   37.6700   23.1820   32.8650 C   0  0  1  0  0  0  0  0  0  0  0  0
   39.8700   22.5810   37.0920 C   0  0  0  0  0  0  0  0  0  0  0  0
   39.2780   23.2830   38.1330 C   0  0  0  0  0  0  0  0  0  0  0  0
   37.8990   23.4700   38.0870 C   0  0  0  0  0  0  0  0  0  0  0  0
   37.2260   22.9490   37.0240 N   0  0  0  0  0  0  0  0  0  0  0  0
   37.8390   22.2730   36.0330 C   0  0  0  0  0  0  0  0  0  0  0  0
   39.1790   22.0900   36.0730 N   0  0  0  0  0  0  0  0  0  0  0  0
   37.9750   24.3480   33.7690 C   0  0  0  0  0  0  0  0  0  0  0  0
   37.5226   20.1261   32.6940 H   0  0  0  0  0  0  0  0  0  0  0  0
   35.7916   20.5565   32.9777 H   0  0  0  0  0  0  0  0  0  0  0  0
   37.6564   21.3892   30.7711 H   0  0  0  0  0  0  0  0  0  0  0  0
   35.9237   20.7547   30.7392 H   0  0  0  0  0  0  0  0  0  0  0  0
   36.8721   24.5183   31.4027 H   0  0  0  0  0  0  0  0  0  0  0  0
   35.6727   23.8370   32.5988 H   0  0  0  0  0  0  0  0  0  0  0  0
   38.6103   22.9110   32.3627 H   0  0  0  0  0  0  0  0  0  0  0  0
   40.9588   22.4256   37.1137 H   0  0  0  0  0  0  0  0  0  0  0  0
   39.8780   23.6781   38.9660 H   0  0  0  0  0  0  0  0  0  0  0  0
   37.3719   24.0191   38.8812 H   0  0  0  0  0  0  0  0  0  0  0  0
   37.8918   24.0297   34.8187 H   0  0  0  0  0  0  0  0  0  0  0  0
   38.9969   24.7055   33.5742 H   0  0  0  0  0  0  0  0  0  0  0  0
   37.2591   25.1601   33.5742 H   0  0  0  0  0  0  0  0  0  0  0  0
  1  2  2  0
  1 13  1  0
  3  1  1  0
  4  3  1  0
  5  4  1  0
  6  5  1  0
  6  7  1  0
  7  8  1  0
  8  3  1  0
  8 15  1  0
  9 10  2  0
 11 10  1  0
 12 11  2  0
 13 14  2  0
 13 12  1  0
 14  9  1  0
  4 16  1  0
  4 17  1  0
  5 18  1  0
  5 19  1  0
  7 20  1  0
  7 21  1  0
  8 22  1  6
  9 23  1  0
 10 24  1  0
 11 25  1  0
 15 26  1  0
 15 27  1  0
 15 28  1  0
M  ISO  8  16  13  17  13  18  13  19  13  20  13  21  13  22  13  23  14
M  ISO  5  24  14  25  14  26   8  27   8  28   8
M  END
>  <minimizedAffinity>  (1) 
-4.18988323

>  <minimizedRMSD>  (1) 
0.037570022

$$$$
