
     RDKit          3D

 26 27  0  0  1  0  0  0  0  0999 V2000
   37.0100   21.7460   34.9530 C   0  0  0  0  0  0  0  0  0  0  0  0
   36.0630   20.9740   35.3110 O   0  0  0  0  0  0  0  0  0  0  0  0
   37.1490   21.9830   33.5760 N   0  0  0  0  0  0  0  0  0  0  0  0
   36.7210   20.9040   32.6940 C   0  0  0  0  0  0  0  0  0  0  0  0
   36.6130   21.3790   31.2640 C   0  0  0  0  0  0  0  0  0  0  0  0
   36.1530   22.6410   31.0890 O   0  0  0  0  0  0  0  0  0  0  0  0
   36.5550   23.6050   31.9620 C   0  0  0  0  0  0  0  0  0  0  0  0
   37.6630   23.1570   32.8950 C   0  0  2  0  0  0  0  0  0  0  0  0
   39.8630   22.6190   37.0800 C   0  0  0  0  0  0  0  0  0  0  0  0
   39.2680   23.2800   38.1510 C   0  0  0  0  0  0  0  0  0  0  0  0
   37.8800   23.4240   38.1380 C   0  0  0  0  0  0  0  0  0  0  0  0
   37.2050   22.9080   37.0790 N   0  0  0  0  0  0  0  0  0  0  0  0
   37.8170   22.2730   36.0590 C   0  0  0  0  0  0  0  0  0  0  0  0
   39.1510   22.1400   36.0790 N   0  0  0  0  0  0  0  0  0  0  0  0
   39.1580   22.7600   31.9720 S   0  0  0  0  0  0  0  0  0  0  0  0
   37.4542   20.0856   32.7460 H   0  0  0  0  0  0  0  0  0  0  0  0
   35.7299   20.5576   33.0222 H   0  0  0  0  0  0  0  0  0  0  0  0
   37.6150   21.3209   30.8139 H   0  0  0  0  0  0  0  0  0  0  0  0
   35.8670   20.7239   30.7903 H   0  0  0  0  0  0  0  0  0  0  0  0
   36.9154   24.4688   31.3841 H   0  0  0  0  0  0  0  0  0  0  0  0
   35.6864   23.8536   32.5896 H   0  0  0  0  0  0  0  0  0  0  0  0
   37.9384   23.9496   33.6063 H   0  0  0  0  0  0  0  0  0  0  0  0
   40.9557   22.4930   37.0686 H   0  0  0  0  0  0  0  0  0  0  0  0
   39.8723   23.6759   38.9805 H   0  0  0  0  0  0  0  0  0  0  0  0
   37.3522   23.9367   38.9557 H   0  0  0  0  0  0  0  0  0  0  0  0
   40.1767   22.4895   32.8472 H   0  0  0  0  0  0  0  0  0  0  0  0
  1  2  2  0
  1 13  1  0
  3  1  1  0
  4  3  1  0
  5  4  1  0
  6  5  1  0
  6  7  1  0
  7  8  1  0
  8  3  1  0
  9 10  2  0
 11 10  1  0
 12 11  2  0
 13 14  2  0
 13 12  1  0
 14  9  1  0
 15  8  1  0
  4 16  1  0
  4 17  1  0
  5 18  1  0
  5 19  1  0
  7 20  1  0
  7 21  1  0
  8 22  1  1
  9 23  1  0
 10 24  1  0
 11 25  1  0
 15 26  1  0
M  ISO  8  16  13  17  13  18  13  19  13  20  13  21  13  22  13  23  14
M  ISO  3  24  14  25  14  26  11
M  END
>  <minimizedAffinity>  (1) 
-4.08374929

>  <minimizedRMSD>  (1) 
0.020812178

$$$$
