
     RDKit          3D

 29 30  0  0  0  0  0  0  0  0999 V2000
   40.0160   22.8870   35.5550 C   0  0  0  0  0  0  0  0  0  0  0  0
   40.2100   24.2620   35.4220 C   0  0  0  0  0  0  0  0  0  0  0  0
   39.2050   25.0220   34.8190 C   0  0  0  0  0  0  0  0  0  0  0  0
   38.0860   24.3890   34.3900 N   0  0  0  0  0  0  0  0  0  0  0  0
   37.9310   23.0620   34.5350 C   0  0  0  0  0  0  0  0  0  0  0  0
   38.8870   22.3070   35.1150 N   0  0  0  0  0  0  0  0  0  0  0  0
   41.0860   22.1250   36.1910 C   0  0  0  0  0  0  0  0  0  0  0  0
   42.3510   21.8980   35.6450 C   0  0  0  0  0  0  0  0  0  0  0  0
   42.9530   21.1350   36.6480 C   0  0  0  0  0  0  0  0  0  0  0  0
   42.0830   20.9410   37.6980 C   0  0  0  0  0  0  0  0  0  0  0  0
   40.9760   21.5590   37.3660 O   0  0  0  0  0  0  0  0  0  0  0  0
   39.3110   26.4700   34.6310 C   0  0  0  0  0  0  0  0  0  0  0  0
   40.7990   26.8050   34.5370 C   0  0  0  0  0  0  0  0  0  0  0  0
   38.5690   26.9930   33.4190 C   0  0  0  0  0  0  0  0  0  0  0  0
   38.7370   27.1870   35.8360 C   0  0  0  0  0  0  0  0  0  0  0  0
   41.1337   24.7371   35.7839 H   0  0  0  0  0  0  0  0  0  0  0  0
   37.0087   22.5830   34.1746 H   0  0  0  0  0  0  0  0  0  0  0  0
   42.7636   22.2314   34.6813 H   0  0  0  0  0  0  0  0  0  0  0  0
   43.9800   20.7432   36.6053 H   0  0  0  0  0  0  0  0  0  0  0  0
   42.2775   20.3820   38.6252 H   0  0  0  0  0  0  0  0  0  0  0  0
   41.2183   26.8994   35.5496 H   0  0  0  0  0  0  0  0  0  0  0  0
   41.3222   26.0022   33.9969 H   0  0  0  0  0  0  0  0  0  0  0  0
   40.9277   27.7546   33.9969 H   0  0  0  0  0  0  0  0  0  0  0  0
   37.7109   27.5979   33.7473 H   0  0  0  0  0  0  0  0  0  0  0  0
   39.2460   27.6146   32.8147 H   0  0  0  0  0  0  0  0  0  0  0  0
   38.2111   26.1464   32.8147 H   0  0  0  0  0  0  0  0  0  0  0  0
   39.1136   26.7166   36.7563 H   0  0  0  0  0  0  0  0  0  0  0  0
   39.0415   28.2438   35.8133 H   0  0  0  0  0  0  0  0  0  0  0  0
   37.6392   27.1212   35.8133 H   0  0  0  0  0  0  0  0  0  0  0  0
  1  7  1  0
  2  1  2  0
  3  2  1  0
  4  5  1  0
  4  3  2  0
  5  6  2  0
  6  1  1  0
  7 11  1  0
  8  7  2  0
  8  9  1  0
  9 10  2  0
 11 10  1  0
 12  3  1  0
 12 15  1  0
 13 12  1  0
 14 12  1  0
  2 16  1  0
  5 17  1  0
  8 18  1  0
  9 19  1  0
 10 20  1  0
 13 21  1  0
 13 22  1  0
 13 23  1  0
 14 24  1  0
 14 25  1  0
 14 26  1  0
 15 27  1  0
 15 28  1  0
 15 29  1  0
M  ISO  8  16  14  17  14  18  14  19  14  20  14  21   8  22   8  23   8
M  ISO  6  24   8  25   8  26   8  27   8  28   8  29   8
M  END
>  <minimizedAffinity>  (1) 
-3.99248886

>  <minimizedRMSD>  (1) 
3.38329506

$$$$
