
     RDKit          3D

 39 41  0  0  1  0  0  0  0  0999 V2000
   37.2030   21.8080   34.6400 C   0  0  0  0  0  0  0  0  0  0  0  0
   36.2670   21.2760   35.2690 O   0  0  0  0  0  0  0  0  0  0  0  0
   37.0400   21.9860   33.2460 N   0  0  0  0  0  0  0  0  0  0  0  0
   36.1720   20.9790   32.6050 C   0  0  0  0  0  0  0  0  0  0  0  0
   35.8050   21.3680   31.2090 C   0  0  0  0  0  0  0  0  0  0  0  0
   35.5590   22.7080   31.0290 O   0  0  0  0  0  0  0  0  0  0  0  0
   36.3440   23.5840   31.6800 C   0  0  0  0  0  0  0  0  0  0  0  0
   37.5680   22.9680   32.3200 C   0  0  1  0  0  0  0  0  0  0  0  0
   40.6420   22.1150   35.9180 C   0  0  0  0  0  0  0  0  0  0  0  0
   40.4990   22.9890   36.9860 C   0  0  0  0  0  0  0  0  0  0  0  0
   39.2340   23.4610   37.2570 C   0  0  0  0  0  0  0  0  0  0  0  0
   38.2390   23.0250   36.4460 N   0  0  0  0  0  0  0  0  0  0  0  0
   38.3790   22.1920   35.4280 C   0  0  0  0  0  0  0  0  0  0  0  0
   39.6160   21.7290   35.1630 N   0  0  0  0  0  0  0  0  0  0  0  0
   38.2820   24.0860   32.9970 C   0  0  0  0  0  0  0  0  0  0  0  0
   39.5780   24.3390   33.1750 N   0  0  0  0  0  0  0  0  0  0  0  0
   39.7320   25.4580   33.8170 O   0  0  0  0  0  0  0  0  0  0  0  0
   38.5400   25.9580   34.0700 C   0  0  0  0  0  0  0  0  0  0  0  0
   37.5920   25.1280   33.5740 N   0  0  0  0  0  0  0  0  0  0  0  0
   38.1770   27.2240   34.7820 C   0  0  0  0  0  0  0  0  0  0  0  0
   38.3890   27.0440   36.2720 C   0  0  0  0  0  0  0  0  0  0  0  0
   36.7170   27.5850   34.5360 C   0  0  0  0  0  0  0  0  0  0  0  0
   36.7037   20.0164   32.5780 H   0  0  0  0  0  0  0  0  0  0  0  0
   35.2454   20.9033   33.1929 H   0  0  0  0  0  0  0  0  0  0  0  0
   36.6332   21.0801   30.5448 H   0  0  0  0  0  0  0  0  0  0  0  0
   34.8634   20.8473   30.9803 H   0  0  0  0  0  0  0  0  0  0  0  0
   36.6782   24.3469   30.9615 H   0  0  0  0  0  0  0  0  0  0  0  0
   35.7383   24.0021   32.4975 H   0  0  0  0  0  0  0  0  0  0  0  0
   38.2764   22.4778   31.6360 H   0  0  0  0  0  0  0  0  0  0  0  0
   41.6441   21.7252   35.6857 H   0  0  0  0  0  0  0  0  0  0  0  0
   41.3639   23.2936   37.5937 H   0  0  0  0  0  0  0  0  0  0  0  0
   39.0410   24.1554   38.0880 H   0  0  0  0  0  0  0  0  0  0  0  0
   38.8166   28.0322   34.3976 H   0  0  0  0  0  0  0  0  0  0  0  0
   37.6631   27.6603   36.8227 H   0  0  0  0  0  0  0  0  0  0  0  0
   38.2476   25.9859   36.5373 H   0  0  0  0  0  0  0  0  0  0  0  0
   39.4102   27.3552   36.5373 H   0  0  0  0  0  0  0  0  0  0  0  0
   36.2032   27.7120   35.5003 H   0  0  0  0  0  0  0  0  0  0  0  0
   36.6626   28.5237   33.9651 H   0  0  0  0  0  0  0  0  0  0  0  0
   36.2314   26.7799   33.9651 H   0  0  0  0  0  0  0  0  0  0  0  0
  1  2  2  0
  1 13  1  0
  3  1  1  0
  4  3  1  0
  5  4  1  0
  6  5  1  0
  6  7  1  0
  7  8  1  0
  8 15  1  0
  8  3  1  0
  9 10  2  0
 10 11  1  0
 12 11  2  0
 13 12  1  0
 14 13  2  0
 14  9  1  0
 15 16  2  0
 15 19  1  0
 16 17  1  0
 17 18  1  0
 18 20  1  0
 19 18  2  0
 20 21  1  0
 22 20  1  0
  4 23  1  0
  4 24  1  0
  5 25  1  0
  5 26  1  0
  7 27  1  0
  7 28  1  0
  8 29  1  6
  9 30  1  0
 10 31  1  0
 11 32  1  0
 20 33  1  0
 21 34  1  0
 21 35  1  0
 21 36  1  0
 22 37  1  0
 22 38  1  0
 22 39  1  0
M  ISO  8  23  13  24  13  25  13  26  13  27  13  28  13  29  13  30  14
M  ISO  8  31  14  32  14  33   8  34   8  35   8  36   8  37   8  38   8
M  ISO  1  39   8
M  END
>  <minimizedAffinity>  (1) 
-4.90259171

>  <minimizedRMSD>  (1) 
1.61503744

$$$$
