
     RDKit          3D

 33 35  0  0  1  0  0  0  0  0999 V2000
   37.2570   21.7680   34.8920 C   0  0  0  0  0  0  0  0  0  0  0  0
   36.2180   21.1550   35.2050 O   0  0  0  0  0  0  0  0  0  0  0  0
   37.5290   21.9290   33.5130 N   0  0  0  0  0  0  0  0  0  0  0  0
   37.0010   20.8480   32.6590 C   0  0  0  0  0  0  0  0  0  0  0  0
   37.0460   21.2080   31.2090 C   0  0  0  0  0  0  0  0  0  0  0  0
   36.7680   22.5180   30.9240 O   0  0  0  0  0  0  0  0  0  0  0  0
   37.2390   23.4620   31.7610 C   0  0  0  0  0  0  0  0  0  0  0  0
   38.2350   22.9580   32.7780 C   0  0  1  0  0  0  0  0  0  0  0  0
   40.0730   22.3560   37.1920 C   0  0  0  0  0  0  0  0  0  0  0  0
   39.5290   23.2380   38.1220 C   0  0  0  0  0  0  0  0  0  0  0  0
   38.2140   23.6180   37.9500 C   0  0  0  0  0  0  0  0  0  0  0  0
   37.5700   23.0900   36.8820 N   0  0  0  0  0  0  0  0  0  0  0  0
   38.0860   22.2530   35.9980 C   0  0  0  0  0  0  0  0  0  0  0  0
   39.3710   21.8810   36.1660 N   0  0  0  0  0  0  0  0  0  0  0  0
   38.6090   24.1270   33.6080 C   0  0  0  0  0  0  0  0  0  0  0  0
   39.7610   24.4910   34.1770 N   0  0  0  0  0  0  0  0  0  0  0  0
   39.6160   25.6190   34.8020 O   0  0  0  0  0  0  0  0  0  0  0  0
   38.3670   26.0160   34.6560 C   0  0  0  0  0  0  0  0  0  0  0  0
   37.6930   25.1080   33.9100 N   0  0  0  0  0  0  0  0  0  0  0  0
   37.8620   27.2560   35.2360 C   0  0  0  0  0  0  0  0  0  0  0  0
   36.8130   27.7440   34.7840 O   0  0  0  0  0  0  0  0  0  0  0  0
   38.5030   27.9120   36.2690 O   0  0  0  0  0  0  0  0  0  0  0  0
   37.6042   19.9422   32.8190 H   0  0  0  0  0  0  0  0  0  0  0  0
   35.9496   20.6795   32.9350 H   0  0  0  0  0  0  0  0  0  0  0  0
   38.0560   20.9853   30.8344 H   0  0  0  0  0  0  0  0  0  0  0  0
   36.2563   20.6160   30.7232 H   0  0  0  0  0  0  0  0  0  0  0  0
   37.7280   24.2419   31.1588 H   0  0  0  0  0  0  0  0  0  0  0  0
   36.3742   23.8354   32.3291 H   0  0  0  0  0  0  0  0  0  0  0  0
   39.1625   22.5306   32.3693 H   0  0  0  0  0  0  0  0  0  0  0  0
   41.1202   22.0406   37.3095 H   0  0  0  0  0  0  0  0  0  0  0  0
   40.1264   23.6182   38.9638 H   0  0  0  0  0  0  0  0  0  0  0  0
   37.7156   24.3121   38.6427 H   0  0  0  0  0  0  0  0  0  0  0  0
   38.1247   28.7515   36.6326 H   0  0  0  0  0  0  0  0  0  0  0  0
  1  2  2  0
  1 13  1  0
  3  1  1  0
  4  3  1  0
  5  4  1  0
  6  5  1  0
  6  7  1  0
  7  8  1  0
  8  3  1  0
  8 15  1  0
  9 10  2  0
 11 10  1  0
 12 11  2  0
 13 14  2  0
 13 12  1  0
 14  9  1  0
 15 19  1  0
 15 16  2  0
 16 17  1  0
 18 17  1  0
 18 20  1  0
 19 18  2  0
 20 22  1  0
 21 20  2  0
  4 23  1  0
  4 24  1  0
  5 25  1  0
  5 26  1  0
  7 27  1  0
  7 28  1  0
  8 29  1  6
  9 30  1  0
 10 31  1  0
 11 32  1  0
 22 33  1  0
M  ISO  8  23  13  24  13  25  13  26  13  27  13  28  13  29  13  30  14
M  ISO  3  31  14  32  14  33   3
M  END
>  <minimizedAffinity>  (1) 
-5.3653388

>  <minimizedRMSD>  (1) 
0.979877532

$$$$
