
     RDKit          3D

 37 40  0  0  1  0  0  0  0  0999 V2000
   37.1840   21.6610   34.4540 C   0  0  0  0  0  0  0  0  0  0  0  0
   36.2780   21.1500   35.1440 O   0  0  0  0  0  0  0  0  0  0  0  0
   36.9680   21.7640   33.0620 N   0  0  0  0  0  0  0  0  0  0  0  0
   36.1090   20.7100   32.5000 C   0  0  0  0  0  0  0  0  0  0  0  0
   35.6590   21.0300   31.1100 C   0  0  0  0  0  0  0  0  0  0  0  0
   35.3950   22.3530   30.8740 O   0  0  0  0  0  0  0  0  0  0  0  0
   36.1960   23.2700   31.4330 C   0  0  0  0  0  0  0  0  0  0  0  0
   37.4420   22.7130   32.0740 C   0  0  1  0  0  0  0  0  0  0  0  0
   40.6820   22.1690   35.5040 C   0  0  0  0  0  0  0  0  0  0  0  0
   40.5480   22.9920   36.6200 C   0  0  0  0  0  0  0  0  0  0  0  0
   39.2730   23.3590   36.9940 C   0  0  0  0  0  0  0  0  0  0  0  0
   38.2580   22.8810   36.2350 N   0  0  0  0  0  0  0  0  0  0  0  0
   38.3840   22.1010   35.1770 C   0  0  0  0  0  0  0  0  0  0  0  0
   39.6310   21.7400   34.8080 N   0  0  0  0  0  0  0  0  0  0  0  0
   38.1660   23.8660   32.6600 C   0  0  0  0  0  0  0  0  0  0  0  0
   39.4460   24.2380   32.6170 N   0  0  0  0  0  0  0  0  0  0  0  0
   39.6120   25.3480   33.2740 O   0  0  0  0  0  0  0  0  0  0  0  0
   38.4450   25.7210   33.7560 C   0  0  0  0  0  0  0  0  0  0  0  0
   37.5010   24.8200   33.3980 N   0  0  0  0  0  0  0  0  0  0  0  0
   38.1180   26.9180   34.5730 C   0  0  0  0  0  0  0  0  0  0  0  0
   37.9470   26.6580   36.1040 C   0  0  0  0  0  0  0  0  0  0  0  0
   39.1380   27.3930   35.5700 C   0  0  0  0  0  0  0  0  0  0  0  0
   36.6729   19.7657   32.4813 H   0  0  0  0  0  0  0  0  0  0  0  0
   35.2142   20.6291   33.1347 H   0  0  0  0  0  0  0  0  0  0  0  0
   36.4491   20.7110   30.4143 H   0  0  0  0  0  0  0  0  0  0  0  0
   34.7071   20.4978   30.9665 H   0  0  0  0  0  0  0  0  0  0  0  0
   36.5016   23.9803   30.6506 H   0  0  0  0  0  0  0  0  0  0  0  0
   35.6146   23.7387   32.2407 H   0  0  0  0  0  0  0  0  0  0  0  0
   38.1363   22.1986   31.3933 H   0  0  0  0  0  0  0  0  0  0  0  0
   41.6900   21.8632   35.1871 H   0  0  0  0  0  0  0  0  0  0  0  0
   41.4281   23.3367   37.1826 H   0  0  0  0  0  0  0  0  0  0  0  0
   39.0893   24.0066   37.8640 H   0  0  0  0  0  0  0  0  0  0  0  0
   37.5391   27.3993   33.7710 H   0  0  0  0  0  0  0  0  0  0  0  0
   37.1747   27.1957   36.6737 H   0  0  0  0  0  0  0  0  0  0  0  0
   37.7905   25.7720   36.7369 H   0  0  0  0  0  0  0  0  0  0  0  0
   40.1286   26.9158   35.6015 H   0  0  0  0  0  0  0  0  0  0  0  0
   39.5900   28.3715   35.7893 H   0  0  0  0  0  0  0  0  0  0  0  0
  1  2  2  0
  1 13  1  0
  3  1  1  0
  4  3  1  0
  5  4  1  0
  6  5  1  0
  6  7  1  0
  7  8  1  0
  8 15  1  0
  8  3  1  0
  9 10  2  0
 10 11  1  0
 12 11  2  0
 13 12  1  0
 14 13  2  0
 14  9  1  0
 15 19  1  0
 16 15  2  0
 16 17  1  0
 17 18  1  0
 18 20  1  0
 19 18  2  0
 20 22  1  0
 20 21  1  0
 22 21  1  0
  4 23  1  0
  4 24  1  0
  5 25  1  0
  5 26  1  0
  7 27  1  0
  7 28  1  0
  8 29  1  6
  9 30  1  0
 10 31  1  0
 11 32  1  0
 20 33  1  0
 21 34  1  0
 21 35  1  0
 22 36  1  0
 22 37  1  0
M  ISO  8  23  13  24  13  25  13  26  13  27  13  28  13  29  13  30  14
M  ISO  7  31  14  32  14  33  13  34  13  35  13  36  13  37  13
M  END
>  <minimizedAffinity>  (1) 
-4.61675739

>  <minimizedRMSD>  (1) 
1.99210382

$$$$
