
     RDKit          3D

 43 46  0  0  1  0  0  0  0  0999 V2000
   37.2420   21.7410   34.3050 C   0  0  0  0  0  0  0  0  0  0  0  0
   36.5210   21.1620   35.1430 O   0  0  0  0  0  0  0  0  0  0  0  0
   36.9310   21.5440   32.9410 N   0  0  0  0  0  0  0  0  0  0  0  0
   36.3190   20.2410   32.6300 C   0  0  0  0  0  0  0  0  0  0  0  0
   35.7560   20.2040   31.2410 C   0  0  0  0  0  0  0  0  0  0  0  0
   35.1580   21.3660   30.8310 O   0  0  0  0  0  0  0  0  0  0  0  0
   35.7300   22.5330   31.1810 C   0  0  0  0  0  0  0  0  0  0  0  0
   37.1090   22.3930   31.7810 C   0  0  1  0  0  0  0  0  0  0  0  0
   40.5810   23.0220   35.1830 C   0  0  0  0  0  0  0  0  0  0  0  0
   40.2830   24.1900   35.8860 C   0  0  0  0  0  0  0  0  0  0  0  0
   38.9550   24.5180   36.0470 C   0  0  0  0  0  0  0  0  0  0  0  0
   38.0500   23.6690   35.5030 N   0  0  0  0  0  0  0  0  0  0  0  0
   38.3330   22.5620   34.8360 C   0  0  0  0  0  0  0  0  0  0  0  0
   39.6320   22.2380   34.6770 N   0  0  0  0  0  0  0  0  0  0  0  0
   37.5640   23.7600   32.1060 C   0  0  0  0  0  0  0  0  0  0  0  0
   36.9220   24.8350   32.5760 N   0  0  0  0  0  0  0  0  0  0  0  0
   37.7540   25.8240   32.7270 O   0  0  0  0  0  0  0  0  0  0  0  0
   38.9540   25.4170   32.3610 C   0  0  0  0  0  0  0  0  0  0  0  0
   38.8820   24.1240   31.9630 N   0  0  0  0  0  0  0  0  0  0  0  0
   40.2440   26.1560   32.3420 C   0  0  0  0  0  0  0  0  0  0  0  0
   41.4490   25.2650   32.4310 C   0  0  0  0  0  0  0  0  0  0  0  0
   42.5560   26.2990   32.6630 C   0  0  0  0  0  0  0  0  0  0  0  0
   41.8780   27.4300   33.4240 C   0  0  0  0  0  0  0  0  0  0  0  0
   40.4230   27.0240   33.5750 C   0  0  0  0  0  0  0  0  0  0  0  0
   37.0849   19.4571   32.7241 H   0  0  0  0  0  0  0  0  0  0  0  0
   35.4926   20.0756   33.3369 H   0  0  0  0  0  0  0  0  0  0  0  0
   36.5774   19.9782   30.5451 H   0  0  0  0  0  0  0  0  0  0  0  0
   34.9680   19.4365   31.2474 H   0  0  0  0  0  0  0  0  0  0  0  0
   35.8075   23.1621   30.2820 H   0  0  0  0  0  0  0  0  0  0  0  0
   35.0911   22.9766   31.9589 H   0  0  0  0  0  0  0  0  0  0  0  0
   37.8705   21.9409   31.1285 H   0  0  0  0  0  0  0  0  0  0  0  0
   41.6349   22.7400   35.0424 H   0  0  0  0  0  0  0  0  0  0  0  0
   41.0806   24.8263   36.2971 H   0  0  0  0  0  0  0  0  0  0  0  0
   38.6449   25.4232   36.5896 H   0  0  0  0  0  0  0  0  0  0  0  0
   40.1873   26.7121   31.3946 H   0  0  0  0  0  0  0  0  0  0  0  0
   41.3703   24.5609   33.2724 H   0  0  0  0  0  0  0  0  0  0  0  0
   41.6046   24.6213   31.5527 H   0  0  0  0  0  0  0  0  0  0  0  0
   43.3724   25.8655   33.2593 H   0  0  0  0  0  0  0  0  0  0  0  0
   43.0063   26.6440   31.7205 H   0  0  0  0  0  0  0  0  0  0  0  0
   42.3432   27.5574   34.4126 H   0  0  0  0  0  0  0  0  0  0  0  0
   41.9745   28.3872   32.8907 H   0  0  0  0  0  0  0  0  0  0  0  0
   39.7544   27.8973   33.5565 H   0  0  0  0  0  0  0  0  0  0  0  0
   40.1848   26.5229   34.5248 H   0  0  0  0  0  0  0  0  0  0  0  0
  1 13  1  0
  1  2  2  0
  3  1  1  0
  4  3  1  0
  5  4  1  0
  6  7  1  0
  6  5  1  0
  7  8  1  0
  8 15  1  0
  8  3  1  0
  9 10  2  0
 10 11  1  0
 12 11  2  0
 13 12  1  0
 14 13  2  0
 14  9  1  0
 15 16  2  0
 16 17  1  0
 18 17  1  0
 19 15  1  0
 19 18  2  0
 20 18  1  0
 20 21  1  0
 20 24  1  0
 21 22  1  0
 22 23  1  0
 23 24  1  0
  4 25  1  0
  4 26  1  0
  5 27  1  0
  5 28  1  0
  7 29  1  0
  7 30  1  0
  8 31  1  6
  9 32  1  0
 10 33  1  0
 11 34  1  0
 20 35  1  0
 21 36  1  0
 21 37  1  0
 22 38  1  0
 22 39  1  0
 23 40  1  0
 23 41  1  0
 24 42  1  0
 24 43  1  0
M  ISO  8  25  13  26  13  27  13  28  13  29  13  30  13  31  13  32  14
M  ISO  8  33  14  34  14  35  13  36  13  37  13  38  13  39  13  40  13
M  ISO  3  41  13  42  13  43  13
M  END
>  <minimizedAffinity>  (1) 
-4.44402552

>  <minimizedRMSD>  (1) 
3.76787281

$$$$
