
     RDKit          3D

 33 35  0  0  1  0  0  0  0  0999 V2000
   37.2570   21.7690   34.8640 C   0  0  0  0  0  0  0  0  0  0  0  0
   36.2170   21.1720   35.2010 O   0  0  0  0  0  0  0  0  0  0  0  0
   37.4680   21.9540   33.4890 N   0  0  0  0  0  0  0  0  0  0  0  0
   36.8840   20.9080   32.6210 C   0  0  0  0  0  0  0  0  0  0  0  0
   36.8680   21.2990   31.1830 C   0  0  0  0  0  0  0  0  0  0  0  0
   36.6170   22.6180   30.9410 O   0  0  0  0  0  0  0  0  0  0  0  0
   37.1500   23.5230   31.7680 C   0  0  0  0  0  0  0  0  0  0  0  0
   38.1680   22.9860   32.7240 C   0  0  1  0  0  0  0  0  0  0  0  0
   40.2030   22.2360   37.0280 C   0  0  0  0  0  0  0  0  0  0  0  0
   39.7200   23.1150   38.0080 C   0  0  0  0  0  0  0  0  0  0  0  0
   38.4110   23.5250   37.9080 C   0  0  0  0  0  0  0  0  0  0  0  0
   37.6980   23.0380   36.8620 N   0  0  0  0  0  0  0  0  0  0  0  0
   38.1500   22.2150   35.9430 C   0  0  0  0  0  0  0  0  0  0  0  0
   39.4400   21.8020   36.0280 N   0  0  0  0  0  0  0  0  0  0  0  0
   38.6160   24.1280   33.5710 C   0  0  0  0  0  0  0  0  0  0  0  0
   39.7840   24.4460   34.1040 N   0  0  0  0  0  0  0  0  0  0  0  0
   39.6970   25.5670   34.7550 O   0  0  0  0  0  0  0  0  0  0  0  0
   38.4510   26.0020   34.6550 C   0  0  0  0  0  0  0  0  0  0  0  0
   37.7210   25.1290   33.9160 N   0  0  0  0  0  0  0  0  0  0  0  0
   37.8480   27.2280   35.2190 C   0  0  0  0  0  0  0  0  0  0  0  0
   36.7760   27.7050   34.8040 O   0  0  0  0  0  0  0  0  0  0  0  0
   38.4590   27.9330   36.2690 O   0  0  0  0  0  0  0  0  0  0  0  0
   37.4778   19.9884   32.7294 H   0  0  0  0  0  0  0  0  0  0  0  0
   35.8411   20.7574   32.9367 H   0  0  0  0  0  0  0  0  0  0  0  0
   37.8510   21.0556   30.7535 H   0  0  0  0  0  0  0  0  0  0  0  0
   36.0373   20.7419   30.7251 H   0  0  0  0  0  0  0  0  0  0  0  0
   37.6324   24.3005   31.1574 H   0  0  0  0  0  0  0  0  0  0  0  0
   36.3209   23.9019   32.3836 H   0  0  0  0  0  0  0  0  0  0  0  0
   39.0613   22.5494   32.2535 H   0  0  0  0  0  0  0  0  0  0  0  0
   41.2468   21.8941   37.0879 H   0  0  0  0  0  0  0  0  0  0  0  0
   40.3652   23.4642   38.8277 H   0  0  0  0  0  0  0  0  0  0  0  0
   37.9644   24.2138   38.6401 H   0  0  0  0  0  0  0  0  0  0  0  0
   38.0341   28.7516   36.6287 H   0  0  0  0  0  0  0  0  0  0  0  0
  1  2  2  0
  1 13  1  0
  3  1  1  0
  4  3  1  0
  5  4  1  0
  6  5  1  0
  6  7  1  0
  7  8  1  0
  8  3  1  0
  8 15  1  0
  9 10  2  0
 11 10  1  0
 12 11  2  0
 13 14  2  0
 13 12  1  0
 14  9  1  0
 15 19  1  0
 15 16  2  0
 16 17  1  0
 18 17  1  0
 18 20  1  0
 19 18  2  0
 20 22  1  0
 21 20  2  0
  4 23  1  0
  4 24  1  0
  5 25  1  0
  5 26  1  0
  7 27  1  0
  7 28  1  0
  8 29  1  6
  9 30  1  0
 10 31  1  0
 11 32  1  0
 22 33  1  0
M  ISO  8  23  13  24  13  25  13  26  13  27  13  28  13  29  13  30  14
M  ISO  3  31  14  32  14  33   3
M  END
>  <minimizedAffinity>  (1) 
-5.30042267

>  <minimizedRMSD>  (1) 
0.493317246

$$$$
