
     RDKit          3D

 31 34  0  0  0  0  0  0  0  0999 V2000
   39.4500   22.8330   37.2800 C   0  0  0  0  0  0  0  0  0  0  0  0
   38.5500   23.5740   36.4960 C   0  0  0  0  0  0  0  0  0  0  0  0
   37.6270   24.0580   37.3620 N   0  0  0  0  0  0  0  0  0  0  0  0
   37.9650   23.6250   38.6030 C   0  0  0  0  0  0  0  0  0  0  0  0
   39.0560   22.8910   38.5590 N   0  0  0  0  0  0  0  0  0  0  0  0
   38.4960   23.8480   35.0660 C   0  0  0  0  0  0  0  0  0  0  0  0
   37.9400   23.2140   33.9580 C   0  0  0  0  0  0  0  0  0  0  0  0
   38.2280   23.9670   32.8820 N   0  0  0  0  0  0  0  0  0  0  0  0
   38.9410   25.0600   33.2140 C   0  0  0  0  0  0  0  0  0  0  0  0
   39.4270   26.0720   32.4090 C   0  0  0  0  0  0  0  0  0  0  0  0
   40.1380   27.0900   33.0250 C   0  0  0  0  0  0  0  0  0  0  0  0
   40.3480   27.0850   34.3880 C   0  0  0  0  0  0  0  0  0  0  0  0
   39.8310   26.0400   35.1230 C   0  0  0  0  0  0  0  0  0  0  0  0
   39.1100   24.9870   34.5870 C   0  0  0  0  0  0  0  0  0  0  0  0
   42.5590   20.7900   37.0580 C   0  0  0  0  0  0  0  0  0  0  0  0
   41.4490   21.4610   37.5730 C   0  0  0  0  0  0  0  0  0  0  0  0
   40.5930   22.1510   36.7060 C   0  0  0  0  0  0  0  0  0  0  0  0
   40.8970   22.1310   35.3590 N   0  0  0  0  0  0  0  0  0  0  0  0
   41.9810   21.4690   34.9070 C   0  0  0  0  0  0  0  0  0  0  0  0
   42.7970   20.8110   35.7350 N   0  0  0  0  0  0  0  0  0  0  0  0
   37.4036   23.8561   39.5203 H   0  0  0  0  0  0  0  0  0  0  0  0
   39.5218   22.4430   39.3610 H   0  0  0  0  0  0  0  0  0  0  0  0
   37.3711   22.2725   33.9622 H   0  0  0  0  0  0  0  0  0  0  0  0
   37.9385   23.7360   31.9209 H   0  0  0  0  0  0  0  0  0  0  0  0
   39.2565   26.0700   31.3223 H   0  0  0  0  0  0  0  0  0  0  0  0
   40.5407   27.9140   32.4177 H   0  0  0  0  0  0  0  0  0  0  0  0
   40.9129   27.8933   34.8754 H   0  0  0  0  0  0  0  0  0  0  0  0
   40.0030   26.0430   36.2095 H   0  0  0  0  0  0  0  0  0  0  0  0
   43.2368   20.2459   37.7322 H   0  0  0  0  0  0  0  0  0  0  0  0
   41.2476   21.4479   38.6543 H   0  0  0  0  0  0  0  0  0  0  0  0
   42.1991   21.4708   33.8288 H   0  0  0  0  0  0  0  0  0  0  0  0
  1  5  1  0
  2  1  2  0
  2  3  1  0
  3  4  2  0
  5  4  1  0
  6  2  1  0
  7  6  2  0
  8  9  1  0
  8  7  1  0
  9 14  2  0
 10 11  2  0
 10  9  1  0
 11 12  1  0
 12 13  2  0
 14  6  1  0
 14 13  1  0
 15 16  2  0
 17  1  1  0
 17 16  1  0
 18 17  2  0
 19 18  1  0
 19 20  2  0
 20 15  1  0
  4 21  1  0
  5 22  1  0
  7 23  1  0
  8 24  1  0
 10 25  1  0
 11 26  1  0
 12 27  1  0
 13 28  1  0
 15 29  1  0
 16 30  1  0
 19 31  1  0
M  ISO  8  21  14  22   9  23  14  24   9  25  14  26  14  27  14  28  14
M  ISO  3  29  14  30  14  31  14
M  END
>  <minimizedAffinity>  (1) 
-5.53734541

>  <minimizedRMSD>  (1) 
0.297992468

$$$$
