
     RDKit          3D

 33 36  0  0  0  0  0  0  0  0999 V2000
   39.4130   22.8370   37.2300 C   0  0  0  0  0  0  0  0  0  0  0  0
   38.4910   23.5480   36.4440 C   0  0  0  0  0  0  0  0  0  0  0  0
   37.5790   24.0320   37.3240 N   0  0  0  0  0  0  0  0  0  0  0  0
   37.9490   23.6220   38.5660 C   0  0  0  0  0  0  0  0  0  0  0  0
   39.0470   22.9020   38.5390 N   0  0  0  0  0  0  0  0  0  0  0  0
   38.4290   23.7650   35.0100 C   0  0  0  0  0  0  0  0  0  0  0  0
   37.8190   22.8600   34.1460 C   0  0  0  0  0  0  0  0  0  0  0  0
   37.7260   22.9930   32.7770 C   0  0  0  0  0  0  0  0  0  0  0  0
   38.2920   24.1330   32.2400 C   0  0  0  0  0  0  0  0  0  0  0  0
   38.9180   25.0890   33.0100 C   0  0  0  0  0  0  0  0  0  0  0  0
   39.4730   26.2120   32.4300 C   0  0  0  0  0  0  0  0  0  0  0  0
   40.0910   27.1340   33.2670 C   0  0  0  0  0  0  0  0  0  0  0  0
   40.1390   26.9170   34.6210 C   0  0  0  0  0  0  0  0  0  0  0  0
   39.5920   25.8070   35.2030 C   0  0  0  0  0  0  0  0  0  0  0  0
   38.9720   24.8810   34.3860 C   0  0  0  0  0  0  0  0  0  0  0  0
   42.5400   20.8450   37.0250 C   0  0  0  0  0  0  0  0  0  0  0  0
   41.4210   21.4850   37.5540 C   0  0  0  0  0  0  0  0  0  0  0  0
   40.5840   22.1560   36.6670 C   0  0  0  0  0  0  0  0  0  0  0  0
   40.9000   22.1500   35.3420 N   0  0  0  0  0  0  0  0  0  0  0  0
   41.9810   21.5240   34.8700 C   0  0  0  0  0  0  0  0  0  0  0  0
   42.7890   20.8800   35.7070 N   0  0  0  0  0  0  0  0  0  0  0  0
   37.3946   23.8645   39.4846 H   0  0  0  0  0  0  0  0  0  0  0  0
   39.5307   22.4751   39.3419 H   0  0  0  0  0  0  0  0  0  0  0  0
   37.3723   21.9604   34.5946 H   0  0  0  0  0  0  0  0  0  0  0  0
   37.2309   22.2369   32.1500 H   0  0  0  0  0  0  0  0  0  0  0  0
   38.2408   24.2840   31.1516 H   0  0  0  0  0  0  0  0  0  0  0  0
   39.4278   26.3719   31.3426 H   0  0  0  0  0  0  0  0  0  0  0  0
   40.5437   28.0419   32.8418 H   0  0  0  0  0  0  0  0  0  0  0  0
   40.6348   27.6620   35.2607 H   0  0  0  0  0  0  0  0  0  0  0  0
   39.6441   25.6555   36.2913 H   0  0  0  0  0  0  0  0  0  0  0  0
   43.2261   20.3057   37.6946 H   0  0  0  0  0  0  0  0  0  0  0  0
   41.2070   21.4609   38.6327 H   0  0  0  0  0  0  0  0  0  0  0  0
   42.2023   21.5410   33.7926 H   0  0  0  0  0  0  0  0  0  0  0  0
  1  5  1  0
  2  1  2  0
  2  3  1  0
  3  4  2  0
  5  4  1  0
  6  2  1  0
  7  6  2  0
  8  7  1  0
  9  8  2  0
  9 10  1  0
 10 15  2  0
 11 10  1  0
 11 12  2  0
 12 13  1  0
 13 14  2  0
 15  6  1  0
 15 14  1  0
 16 17  2  0
 18  1  1  0
 18 17  1  0
 19 18  2  0
 20 19  1  0
 20 21  2  0
 21 16  1  0
  4 22  1  0
  5 23  1  0
  7 24  1  0
  8 25  1  0
  9 26  1  0
 11 27  1  0
 12 28  1  0
 13 29  1  0
 14 30  1  0
 16 31  1  0
 17 32  1  0
 20 33  1  0
M  ISO  8  22  14  23   9  24  14  25  14  26  14  27  14  28  14  29  14
M  ISO  4  30  14  31  14  32  14  33  14
M  END
>  <minimizedAffinity>  (1) 
-5.73191357

>  <minimizedRMSD>  (1) 
0.53858614

$$$$
