
     RDKit          3D

 39 42  0  0  1  0  0  0  0  0999 V2000
   36.7500   21.4360   34.7420 C   0  0  0  0  0  0  0  0  0  0  0  0
   35.7670   20.9710   35.3490 O   0  0  0  0  0  0  0  0  0  0  0  0
   36.7460   21.3170   33.3440 N   0  0  0  0  0  0  0  0  0  0  0  0
   36.0150   20.1430   32.8160 C   0  0  0  0  0  0  0  0  0  0  0  0
   35.7940   20.2210   31.3440 C   0  0  0  0  0  0  0  0  0  0  0  0
   35.5080   21.4760   30.8740 O   0  0  0  0  0  0  0  0  0  0  0  0
   36.1940   22.5020   31.3870 C   0  0  0  0  0  0  0  0  0  0  0  0
   37.3330   22.1310   32.2810 C   0  0  1  0  0  0  0  0  0  0  0  0
   40.0130   22.2670   36.2320 C   0  0  0  0  0  0  0  0  0  0  0  0
   39.6820   23.2890   37.1310 C   0  0  0  0  0  0  0  0  0  0  0  0
   38.3650   23.6700   37.2080 C   0  0  0  0  0  0  0  0  0  0  0  0
   37.4950   23.0170   36.4000 N   0  0  0  0  0  0  0  0  0  0  0  0
   37.8030   22.0570   35.5550 C   0  0  0  0  0  0  0  0  0  0  0  0
   39.0930   21.6770   35.4730 N   0  0  0  0  0  0  0  0  0  0  0  0
   37.9250   23.4020   32.7860 C   0  0  0  0  0  0  0  0  0  0  0  0
   39.1660   23.7740   33.0530 N   0  0  0  0  0  0  0  0  0  0  0  0
   39.1980   25.0060   33.4540 O   0  0  0  0  0  0  0  0  0  0  0  0
   37.9500   25.4690   33.4550 C   0  0  0  0  0  0  0  0  0  0  0  0
   37.1050   24.4930   33.0400 N   0  0  0  0  0  0  0  0  0  0  0  0
   37.4570   26.8100   33.8280 C   0  0  0  0  0  0  0  0  0  0  0  0
   36.4840   27.3520   33.2750 O   0  0  0  0  0  0  0  0  0  0  0  0
   38.1550   27.5670   34.9250 C   0  0  0  0  0  0  0  0  0  0  0  0
   38.2530   26.9430   36.2730 C   0  0  0  0  0  0  0  0  0  0  0  0
   39.4530   27.0100   35.3520 C   0  0  0  0  0  0  0  0  0  0  0  0
   36.5973   19.2364   33.0375 H   0  0  0  0  0  0  0  0  0  0  0  0
   35.0278   20.1191   33.3007 H   0  0  0  0  0  0  0  0  0  0  0  0
   36.7059   19.8663   30.8413 H   0  0  0  0  0  0  0  0  0  0  0  0
   34.9120   19.6000   31.1287 H   0  0  0  0  0  0  0  0  0  0  0  0
   36.5976   23.0919   30.5508 H   0  0  0  0  0  0  0  0  0  0  0  0
   35.4829   23.0559   32.0175 H   0  0  0  0  0  0  0  0  0  0  0  0
   38.1358   21.5608   31.7908 H   0  0  0  0  0  0  0  0  0  0  0  0
   41.0613   21.9436   36.1514 H   0  0  0  0  0  0  0  0  0  0  0  0
   40.4507   23.7698   37.7539 H   0  0  0  0  0  0  0  0  0  0  0  0
   38.0329   24.4654   37.8914 H   0  0  0  0  0  0  0  0  0  0  0  0
   37.7928   28.5448   34.5746 H   0  0  0  0  0  0  0  0  0  0  0  0
   38.2136   27.5691   37.1766 H   0  0  0  0  0  0  0  0  0  0  0  0
   37.7187   26.1444   36.8085 H   0  0  0  0  0  0  0  0  0  0  0  0
   39.8397   26.0929   34.8836 H   0  0  0  0  0  0  0  0  0  0  0  0
   40.4787   27.3987   35.4351 H   0  0  0  0  0  0  0  0  0  0  0  0
  1  2  2  0
  1 13  1  0
  3  1  1  0
  4  3  1  0
  5  4  1  0
  6  5  1  0
  6  7  1  0
  7  8  1  0
  8 15  1  0
  8  3  1  0
  9 10  2  0
 10 11  1  0
 12 11  2  0
 13 12  1  0
 14 13  2  0
 14  9  1  0
 15 19  1  0
 15 16  2  0
 16 17  1  0
 17 18  1  0
 18 20  1  0
 19 18  2  0
 20 22  1  0
 21 20  2  0
 22 24  1  0
 22 23  1  0
 24 23  1  0
  4 25  1  0
  4 26  1  0
  5 27  1  0
  5 28  1  0
  7 29  1  0
  7 30  1  0
  8 31  1  6
  9 32  1  0
 10 33  1  0
 11 34  1  0
 22 35  1  0
 23 36  1  0
 23 37  1  0
 24 38  1  0
 24 39  1  0
M  ISO  8  25  13  26  13  27  13  28  13  29  13  30  13  31  13  32  14
M  ISO  7  33  14  34  14  35  13  36  13  37  13  38  13  39  13
M  END
>  <minimizedAffinity>  (1) 
-5.14487648

>  <minimizedRMSD>  (1) 
1.56536305

$$$$
