
     RDKit          3D

 45 48  0  0  1  0  0  0  0  0999 V2000
   36.5910   21.2270   34.7810 C   0  0  0  0  0  0  0  0  0  0  0  0
   35.7640   20.9290   35.6650 O   0  0  0  0  0  0  0  0  0  0  0  0
   36.3400   20.7400   33.4900 N   0  0  0  0  0  0  0  0  0  0  0  0
   35.5980   19.4620   33.4350 C   0  0  0  0  0  0  0  0  0  0  0  0
   35.1270   19.1320   32.0570 C   0  0  0  0  0  0  0  0  0  0  0  0
   34.6880   20.2100   31.3340 O   0  0  0  0  0  0  0  0  0  0  0  0
   35.3750   21.3540   31.4370 C   0  0  0  0  0  0  0  0  0  0  0  0
   36.6770   21.2490   32.1600 C   0  0  1  0  0  0  0  0  0  0  0  0
   40.0150   22.4740   35.3290 C   0  0  0  0  0  0  0  0  0  0  0  0
   39.7880   23.6800   36.0090 C   0  0  0  0  0  0  0  0  0  0  0  0
   38.4870   24.0370   36.2610 C   0  0  0  0  0  0  0  0  0  0  0  0
   37.5320   23.1830   35.8270 N   0  0  0  0  0  0  0  0  0  0  0  0
   37.7340   22.0550   35.1900 C   0  0  0  0  0  0  0  0  0  0  0  0
   39.0170   21.6860   34.9320 N   0  0  0  0  0  0  0  0  0  0  0  0
   37.2730   22.6110   32.1970 C   0  0  0  0  0  0  0  0  0  0  0  0
   38.5160   23.0560   32.1110 N   0  0  0  0  0  0  0  0  0  0  0  0
   38.5410   24.3460   32.1650 O   0  0  0  0  0  0  0  0  0  0  0  0
   37.2940   24.7900   32.2930 C   0  0  0  0  0  0  0  0  0  0  0  0
   36.4530   23.7220   32.3180 N   0  0  0  0  0  0  0  0  0  0  0  0
   36.7990   26.1730   32.3950 C   0  0  0  0  0  0  0  0  0  0  0  0
   35.8160   26.5840   31.7440 O   0  0  0  0  0  0  0  0  0  0  0  0
   37.5080   27.0560   33.2960 N   0  0  0  0  0  0  0  0  0  0  0  0
   37.1330   27.8020   34.4570 C   0  0  0  0  0  0  0  0  0  0  0  0
   37.9750   27.4570   35.6790 C   0  0  0  0  0  0  0  0  0  0  0  0
   39.3190   27.4770   35.3980 O   0  0  0  0  0  0  0  0  0  0  0  0
   39.6720   26.7640   34.2720 C   0  0  0  0  0  0  0  0  0  0  0  0
   38.9280   27.3020   33.0450 C   0  0  0  0  0  0  0  0  0  0  0  0
   36.2591   18.6552   33.7843 H   0  0  0  0  0  0  0  0  0  0  0  0
   34.7098   19.5638   34.0759 H   0  0  0  0  0  0  0  0  0  0  0  0
   35.9614   18.6683   31.5104 H   0  0  0  0  0  0  0  0  0  0  0  0
   34.2636   18.4604   32.1735 H   0  0  0  0  0  0  0  0  0  0  0  0
   35.5786   21.7217   30.4205 H   0  0  0  0  0  0  0  0  0  0  0  0
   34.7485   22.0345   32.0323 H   0  0  0  0  0  0  0  0  0  0  0  0
   37.4123   20.5800   31.6890 H   0  0  0  0  0  0  0  0  0  0  0  0
   41.0504   22.1693   35.1168 H   0  0  0  0  0  0  0  0  0  0  0  0
   40.6248   24.3181   36.3294 H   0  0  0  0  0  0  0  0  0  0  0  0
   38.2341   24.9687   36.7882 H   0  0  0  0  0  0  0  0  0  0  0  0
   37.2521   28.8737   34.2395 H   0  0  0  0  0  0  0  0  0  0  0  0
   36.0892   27.5463   34.6916 H   0  0  0  0  0  0  0  0  0  0  0  0
   37.7668   28.1898   36.4725 H   0  0  0  0  0  0  0  0  0  0  0  0
   37.7092   26.4388   35.9992 H   0  0  0  0  0  0  0  0  0  0  0  0
   40.7558   26.8574   34.1087 H   0  0  0  0  0  0  0  0  0  0  0  0
   39.4019   25.7078   34.4188 H   0  0  0  0  0  0  0  0  0  0  0  0
   39.2534   26.7720   32.1377 H   0  0  0  0  0  0  0  0  0  0  0  0
   39.1304   28.3717   32.8875 H   0  0  0  0  0  0  0  0  0  0  0  0
  1 13  1  0
  1  2  2  0
  3  1  1  0
  4  3  1  0
  5  4  1  0
  6  7  1  0
  6  5  1  0
  7  8  1  0
  8 15  1  0
  8  3  1  0
  9 10  2  0
 10 11  1  0
 12 11  2  0
 13 12  1  0
 14 13  2  0
 14  9  1  0
 15 19  1  0
 16 17  1  0
 16 15  2  0
 17 18  1  0
 18 19  2  0
 18 20  1  0
 20 22  1  0
 21 20  2  0
 22 23  1  0
 23 24  1  0
 25 24  1  0
 26 25  1  0
 27 22  1  0
 27 26  1  0
  4 28  1  0
  4 29  1  0
  5 30  1  0
  5 31  1  0
  7 32  1  0
  7 33  1  0
  8 34  1  6
  9 35  1  0
 10 36  1  0
 11 37  1  0
 23 38  1  0
 23 39  1  0
 24 40  1  0
 24 41  1  0
 26 42  1  0
 26 43  1  0
 27 44  1  0
 27 45  1  0
M  ISO  8  28  13  29  13  30  13  31  13  32  13  33  13  34  13  35  14
M  ISO  8  36  14  37  14  38  13  39  13  40  13  41  13  42  13  43  13
M  ISO  2  44  13  45  13
M  END
>  <minimizedAffinity>  (1) 
-5.23683405

>  <minimizedRMSD>  (1) 
2.86282587

$$$$
