
     RDKit          3D

 33 35  0  0  0  0  0  0  0  0999 V2000
   39.2630   21.8810   33.4330 C   0  0  0  0  0  0  0  0  0  0  0  0
   37.9400   21.5740   33.7540 C   0  0  0  0  0  0  0  0  0  0  0  0
   37.1980   20.7840   32.8710 C   0  0  0  0  0  0  0  0  0  0  0  0
   37.8060   20.3490   31.7310 N   0  0  0  0  0  0  0  0  0  0  0  0
   39.0780   20.6570   31.4450 C   0  0  0  0  0  0  0  0  0  0  0  0
   39.8140   21.4230   32.2890 N   0  0  0  0  0  0  0  0  0  0  0  0
   40.0590   22.6770   34.2900 N   0  0  0  0  0  0  0  0  0  0  0  0
   39.7420   23.9760   34.5550 C   0  0  0  0  0  0  0  0  0  0  0  0
   40.6410   24.5010   35.3830 N   0  0  0  0  0  0  0  0  0  0  0  0
   41.5590   23.5870   35.6830 C   0  0  0  0  0  0  0  0  0  0  0  0
   42.7060   23.4700   36.4430 C   0  0  0  0  0  0  0  0  0  0  0  0
   43.3830   22.2910   36.4750 N   0  0  0  0  0  0  0  0  0  0  0  0
   42.9750   21.2210   35.7870 C   0  0  0  0  0  0  0  0  0  0  0  0
   41.8540   21.2640   35.0180 N   0  0  0  0  0  0  0  0  0  0  0  0
   41.1790   22.4490   34.9890 C   0  0  0  0  0  0  0  0  0  0  0  0
   35.8090   20.4110   33.1220 C   0  0  0  0  0  0  0  0  0  0  0  0
   35.5430   20.6330   34.6220 C   0  0  0  0  0  0  0  0  0  0  0  0
   34.8020   21.1740   32.2810 C   0  0  0  0  0  0  0  0  0  0  0  0
   35.6040   18.9440   32.8080 C   0  0  0  0  0  0  0  0  0  0  0  0
   37.4890   21.9470   34.6854 H   0  0  0  0  0  0  0  0  0  0  0  0
   39.5312   20.2843   30.5146 H   0  0  0  0  0  0  0  0  0  0  0  0
   38.8723   24.5105   34.1452 H   0  0  0  0  0  0  0  0  0  0  0  0
   43.0720   24.3304   37.0225 H   0  0  0  0  0  0  0  0  0  0  0  0
   43.5560   20.2887   35.8434 H   0  0  0  0  0  0  0  0  0  0  0  0
   36.2554   20.0384   35.2127 H   0  0  0  0  0  0  0  0  0  0  0  0
   35.6672   21.6992   34.8626 H   0  0  0  0  0  0  0  0  0  0  0  0
   34.5163   20.3201   34.8626 H   0  0  0  0  0  0  0  0  0  0  0  0
   34.1007   21.7054   32.9411 H   0  0  0  0  0  0  0  0  0  0  0  0
   35.3301   21.9007   31.6462 H   0  0  0  0  0  0  0  0  0  0  0  0
   34.2453   20.4689   31.6462 H   0  0  0  0  0  0  0  0  0  0  0  0
   35.5246   18.3758   33.7465 H   0  0  0  0  0  0  0  0  0  0  0  0
   34.6797   18.8196   32.2247 H   0  0  0  0  0  0  0  0  0  0  0  0
   36.4587   18.5710   32.2247 H   0  0  0  0  0  0  0  0  0  0  0  0
  1  2  2  0
  1  7  1  0
  3 16  1  0
  3  2  1  0
  4  3  2  0
  5  4  1  0
  5  6  2  0
  6  1  1  0
  7  8  1  0
  7 15  1  0
  8  9  2  0
  9 10  1  0
 10 11  2  0
 11 12  1  0
 13 12  2  0
 14 13  1  0
 15 14  2  0
 15 10  1  0
 16 17  1  0
 18 16  1  0
 19 16  1  0
  2 20  1  0
  5 21  1  0
  8 22  1  0
 11 23  1  0
 13 24  1  0
 17 25  1  0
 17 26  1  0
 17 27  1  0
 18 28  1  0
 18 29  1  0
 18 30  1  0
 19 31  1  0
 19 32  1  0
 19 33  1  0
M  ISO  8  20  14  21  14  22  14  23  14  24  14  25   8  26   8  27   8
M  ISO  6  28   8  29   8  30   8  31   8  32   8  33   8
M  END
>  <minimizedAffinity>  (1) 
-3.87481809

>  <minimizedRMSD>  (1) 
5.09790325

$$$$
