
     RDKit          3D

 30 32  0  0  0  0  0  0  0  0999 V2000
   39.4630   22.9280   37.2630 C   0  0  0  0  0  0  0  0  0  0  0  0
   38.8030   23.9890   36.6630 C   0  0  0  0  0  0  0  0  0  0  0  0
   37.8400   24.3950   37.5330 N   0  0  0  0  0  0  0  0  0  0  0  0
   37.9360   23.5900   38.6150 C   0  0  0  0  0  0  0  0  0  0  0  0
   38.9020   22.7030   38.4750 N   0  0  0  0  0  0  0  0  0  0  0  0
   42.5660   20.8950   36.9120 C   0  0  0  0  0  0  0  0  0  0  0  0
   41.4890   21.5910   37.4890 C   0  0  0  0  0  0  0  0  0  0  0  0
   40.5670   22.2150   36.6450 C   0  0  0  0  0  0  0  0  0  0  0  0
   40.7550   22.1190   35.2970 N   0  0  0  0  0  0  0  0  0  0  0  0
   41.8010   21.4420   34.7850 C   0  0  0  0  0  0  0  0  0  0  0  0
   42.7030   20.8320   35.5810 N   0  0  0  0  0  0  0  0  0  0  0  0
   38.9980   24.6170   35.4000 N   0  0  0  0  0  0  0  0  0  0  0  0
   40.0090   25.5950   35.0770 C   0  0  0  0  0  0  0  0  0  0  0  0
   39.2830   26.8360   34.5950 C   0  0  0  0  0  0  0  0  0  0  0  0
   38.7270   26.4920   33.3710 O   0  0  0  0  0  0  0  0  0  0  0  0
   37.7320   25.5360   33.4790 C   0  0  0  0  0  0  0  0  0  0  0  0
   38.1590   24.3170   34.2630 C   0  0  0  0  0  0  0  0  0  0  0  0
   37.2891   23.6654   39.5015 H   0  0  0  0  0  0  0  0  0  0  0  0
   39.1764   21.9798   39.1551 H   0  0  0  0  0  0  0  0  0  0  0  0
   43.3029   20.3976   37.5597 H   0  0  0  0  0  0  0  0  0  0  0  0
   41.3749   21.6430   38.5818 H   0  0  0  0  0  0  0  0  0  0  0  0
   41.9223   21.3854   33.6932 H   0  0  0  0  0  0  0  0  0  0  0  0
   40.6074   25.8295   35.9697 H   0  0  0  0  0  0  0  0  0  0  0  0
   40.6930   25.2139   34.3044 H   0  0  0  0  0  0  0  0  0  0  0  0
   38.4953   27.1211   35.3079 H   0  0  0  0  0  0  0  0  0  0  0  0
   39.9629   27.6961   34.5056 H   0  0  0  0  0  0  0  0  0  0  0  0
   36.8652   25.9892   33.9823 H   0  0  0  0  0  0  0  0  0  0  0  0
   37.4898   25.2003   32.4599 H   0  0  0  0  0  0  0  0  0  0  0  0
   37.2557   23.8039   34.6248 H   0  0  0  0  0  0  0  0  0  0  0  0
   38.7554   23.6920   33.5820 H   0  0  0  0  0  0  0  0  0  0  0  0
  1  5  1  0
  2  1  2  0
  2  3  1  0
  3  4  2  0
  5  4  1  0
  6  7  2  0
  8  1  1  0
  8  7  1  0
  9  8  2  0
 10  9  1  0
 10 11  2  0
 11  6  1  0
 12  2  1  0
 13 12  1  0
 14 13  1  0
 15 16  1  0
 15 14  1  0
 16 17  1  0
 17 12  1  0
  4 18  1  0
  5 19  1  0
  6 20  1  0
  7 21  1  0
 10 22  1  0
 13 23  1  0
 13 24  1  0
 14 25  1  0
 14 26  1  0
 16 27  1  0
 16 28  1  0
 17 29  1  0
 17 30  1  0
M  ISO  8  18  14  19   9  20  14  21  14  22  14  23  13  24  13  25  13
M  ISO  5  26  13  27  13  28  13  29  13  30  13
M  END
>  <minimizedAffinity>  (1) 
-4.6677947

>  <minimizedRMSD>  (1) 
1.31086516

$$$$
