
     RDKit          3D

 30 32  0  0  0  0  0  0  0  0999 V2000
   39.4360   22.8950   37.3290 C   0  0  0  0  0  0  0  0  0  0  0  0
   38.5780   23.7580   36.6480 C   0  0  0  0  0  0  0  0  0  0  0  0
   37.6860   24.1800   37.5910 N   0  0  0  0  0  0  0  0  0  0  0  0
   38.0090   23.5900   38.7570 C   0  0  0  0  0  0  0  0  0  0  0  0
   39.0600   22.8120   38.6180 N   0  0  0  0  0  0  0  0  0  0  0  0
   42.5550   20.8940   36.9080 C   0  0  0  0  0  0  0  0  0  0  0  0
   41.4730   21.5570   37.4940 C   0  0  0  0  0  0  0  0  0  0  0  0
   40.5480   22.2140   36.6890 C   0  0  0  0  0  0  0  0  0  0  0  0
   40.7690   22.1650   35.3350 N   0  0  0  0  0  0  0  0  0  0  0  0
   41.8120   21.5240   34.8050 C   0  0  0  0  0  0  0  0  0  0  0  0
   42.6970   20.8940   35.5770 N   0  0  0  0  0  0  0  0  0  0  0  0
   38.9270   25.1990   32.7130 C   0  0  0  0  0  0  0  0  0  0  0  0
   39.4950   25.8630   33.7850 C   0  0  0  0  0  0  0  0  0  0  0  0
   39.3350   25.3220   35.0510 C   0  0  0  0  0  0  0  0  0  0  0  0
   38.6180   24.1370   35.2410 C   0  0  0  0  0  0  0  0  0  0  0  0
   38.0630   23.4980   34.1550 C   0  0  0  0  0  0  0  0  0  0  0  0
   38.2140   24.0250   32.8890 C   0  0  0  0  0  0  0  0  0  0  0  0
   39.1330   25.8850   31.1210 S   0  0  0  0  0  0  0  0  0  0  0  0
   37.8600   26.5670   30.6690 O   0  0  0  0  0  0  0  0  0  0  0  0
   40.1470   27.0010   31.2320 O   0  0  0  0  0  0  0  0  0  0  0  0
   37.4654   23.7390   39.7016 H   0  0  0  0  0  0  0  0  0  0  0  0
   39.5087   22.2480   39.3539 H   0  0  0  0  0  0  0  0  0  0  0  0
   43.2891   20.3728   37.5400 H   0  0  0  0  0  0  0  0  0  0  0  0
   41.3534   21.5593   38.5875 H   0  0  0  0  0  0  0  0  0  0  0  0
   41.9437   21.5153   33.7129 H   0  0  0  0  0  0  0  0  0  0  0  0
   40.0588   26.7958   33.6368 H   0  0  0  0  0  0  0  0  0  0  0  0
   39.7785   25.8323   35.9187 H   0  0  0  0  0  0  0  0  0  0  0  0
   37.4978   22.5651   34.2971 H   0  0  0  0  0  0  0  0  0  0  0  0
   37.7694   23.5142   32.0221 H   0  0  0  0  0  0  0  0  0  0  0  0
   39.4957   24.8847   30.2580 H   0  0  0  0  0  0  0  0  0  0  0  0
  1  5  1  0
  2  1  2  0
  2  3  1  0
  3  4  2  0
  5  4  1  0
  6  7  2  0
  8  1  1  0
  8  7  1  0
  9  8  2  0
 10  9  1  0
 10 11  2  0
 11  6  1  0
 12 17  2  0
 12 13  1  0
 13 14  2  0
 14 15  1  0
 15  2  1  0
 16 15  2  0
 17 16  1  0
 18 20  2  0
 18 12  1  0
 19 18  2  0
  4 21  1  0
  5 22  1  0
  6 23  1  0
  7 24  1  0
 10 25  1  0
 13 26  1  0
 14 27  1  0
 16 28  1  0
 17 29  1  0
 18 30  1  0
M  ISO  8  21  14  22   9  23  14  24  14  25  14  26  14  27  14  28  14
M  ISO  2  29  14  30  11
M  END
>  <minimizedAffinity>  (1) 
-4.8694644

>  <minimizedRMSD>  (1) 
0.666483104

$$$$
