
     RDKit          3D

 30 32  0  0  0  0  0  0  0  0999 V2000
   39.4490   23.0150   37.1830 C   0  0  0  0  0  0  0  0  0  0  0  0
   38.8140   24.0760   36.5410 C   0  0  0  0  0  0  0  0  0  0  0  0
   37.8720   24.5240   37.4180 N   0  0  0  0  0  0  0  0  0  0  0  0
   37.9670   23.7400   38.5280 C   0  0  0  0  0  0  0  0  0  0  0  0
   38.9090   22.8270   38.4070 N   0  0  0  0  0  0  0  0  0  0  0  0
   42.4830   20.8950   36.8100 C   0  0  0  0  0  0  0  0  0  0  0  0
   41.4450   21.6180   37.4010 C   0  0  0  0  0  0  0  0  0  0  0  0
   40.5320   22.2600   36.5670 C   0  0  0  0  0  0  0  0  0  0  0  0
   40.7200   22.1330   35.2220 N   0  0  0  0  0  0  0  0  0  0  0  0
   41.7220   21.4340   34.6850 C   0  0  0  0  0  0  0  0  0  0  0  0
   42.6000   20.8170   35.4790 N   0  0  0  0  0  0  0  0  0  0  0  0
   39.0440   24.6590   35.2050 C   0  0  0  0  0  0  0  0  0  0  0  0
   37.7690   25.3230   34.7700 C   0  0  0  0  0  0  0  0  0  0  0  0
   38.2810   26.6430   34.2080 C   0  0  0  0  0  0  0  0  0  0  0  0
   39.3130   27.0000   35.2780 C   0  0  0  0  0  0  0  0  0  0  0  0
   40.1060   25.7100   35.2900 C   0  0  0  0  0  0  0  0  0  0  0  0
   37.3327   23.8555   39.4192 H   0  0  0  0  0  0  0  0  0  0  0  0
   39.1783   22.1164   39.1023 H   0  0  0  0  0  0  0  0  0  0  0  0
   43.2165   20.3812   37.4487 H   0  0  0  0  0  0  0  0  0  0  0  0
   41.3506   21.6791   38.4952 H   0  0  0  0  0  0  0  0  0  0  0  0
   41.8241   21.3665   33.5918 H   0  0  0  0  0  0  0  0  0  0  0  0
   39.3534   23.8734   34.4999 H   0  0  0  0  0  0  0  0  0  0  0  0
   37.2529   24.7326   33.9986 H   0  0  0  0  0  0  0  0  0  0  0  0
   37.0297   25.4390   35.5762 H   0  0  0  0  0  0  0  0  0  0  0  0
   38.7452   26.5138   33.2192 H   0  0  0  0  0  0  0  0  0  0  0  0
   37.5076   27.4059   34.0353 H   0  0  0  0  0  0  0  0  0  0  0  0
   39.9313   27.8605   34.9826 H   0  0  0  0  0  0  0  0  0  0  0  0
   38.8976   27.3066   36.2493 H   0  0  0  0  0  0  0  0  0  0  0  0
   40.6859   25.6114   36.2195 H   0  0  0  0  0  0  0  0  0  0  0  0
   40.8429   25.6474   34.4757 H   0  0  0  0  0  0  0  0  0  0  0  0
  1  5  1  0
  2  1  2  0
  2  3  1  0
  3  4  2  0
  5  4  1  0
  6  7  2  0
  8  1  1  0
  8  7  1  0
  9  8  2  0
 10  9  1  0
 10 11  2  0
 11  6  1  0
 12 16  1  0
 12  2  1  0
 13 12  1  0
 14 13  1  0
 14 15  1  0
 15 16  1  0
  4 17  1  0
  5 18  1  0
  6 19  1  0
  7 20  1  0
 10 21  1  0
 12 22  1  0
 13 23  1  0
 13 24  1  0
 14 25  1  0
 14 26  1  0
 15 27  1  0
 15 28  1  0
 16 29  1  0
 16 30  1  0
M  ISO  8  17  14  18   9  19  14  20  14  21  14  22  13  23  13  24  13
M  ISO  6  25  13  26  13  27  13  28  13  29  13  30  13
M  END
>  <minimizedAffinity>  (1) 
-4.751688

>  <minimizedRMSD>  (1) 
0.506959021

$$$$
