
     RDKit          3D

 28 30  0  0  0  0  0  0  0  0999 V2000
   39.4250   22.8750   37.2590 C   0  0  0  0  0  0  0  0  0  0  0  0
   38.4820   23.6160   36.5630 C   0  0  0  0  0  0  0  0  0  0  0  0
   37.6230   24.0780   37.5040 N   0  0  0  0  0  0  0  0  0  0  0  0
   38.0500   23.6230   38.6980 C   0  0  0  0  0  0  0  0  0  0  0  0
   39.1390   22.8920   38.5840 N   0  0  0  0  0  0  0  0  0  0  0  0
   38.3480   23.8940   35.1740 N   0  0  0  0  0  0  0  0  0  0  0  0
   38.4830   23.0710   34.1180 C   0  0  0  0  0  0  0  0  0  0  0  0
   38.3060   23.5670   32.8450 C   0  0  0  0  0  0  0  0  0  0  0  0
   37.9900   24.9100   32.6570 C   0  0  0  0  0  0  0  0  0  0  0  0
   37.8190   25.3620   31.3040 N   0  0  0  0  0  0  0  0  0  0  0  0
   37.8600   25.7170   33.7230 N   0  0  0  0  0  0  0  0  0  0  0  0
   38.0380   25.2070   34.9600 C   0  0  0  0  0  0  0  0  0  0  0  0
   37.8830   26.0870   35.8630 O   0  0  0  0  0  0  0  0  0  0  0  0
   42.5200   20.8460   36.8000 C   0  0  0  0  0  0  0  0  0  0  0  0
   41.4470   21.4980   37.4170 C   0  0  0  0  0  0  0  0  0  0  0  0
   40.5480   22.1930   36.6090 C   0  0  0  0  0  0  0  0  0  0  0  0
   40.7780   22.1890   35.2620 N   0  0  0  0  0  0  0  0  0  0  0  0
   41.8150   21.5530   34.7150 C   0  0  0  0  0  0  0  0  0  0  0  0
   42.6890   20.8810   35.4700 N   0  0  0  0  0  0  0  0  0  0  0  0
   37.5488   23.8367   39.6536 H   0  0  0  0  0  0  0  0  0  0  0  0
   39.6629   22.4306   39.3413 H   0  0  0  0  0  0  0  0  0  0  0  0
   38.7327   22.0106   34.2700 H   0  0  0  0  0  0  0  0  0  0  0  0
   38.4144   22.9013   31.9760 H   0  0  0  0  0  0  0  0  0  0  0  0
   37.5847   26.3472   31.1159 H   0  0  0  0  0  0  0  0  0  0  0  0
   37.9307   24.7009   30.5221 H   0  0  0  0  0  0  0  0  0  0  0  0
   43.2410   20.2924   37.4194 H   0  0  0  0  0  0  0  0  0  0  0  0
   41.3163   21.4633   38.5087 H   0  0  0  0  0  0  0  0  0  0  0  0
   41.9530   21.5822   33.6241 H   0  0  0  0  0  0  0  0  0  0  0  0
  1  5  1  0
  2  1  2  0
  2  3  1  0
  3  4  2  0
  5  4  1  0
  6  2  1  0
  7  6  1  0
  8  7  2  0
  9  8  1  0
  9 11  2  0
 10  9  1  0
 11 12  1  0
 12  6  1  0
 12 13  2  0
 14 15  2  0
 16  1  1  0
 16 15  1  0
 17 16  2  0
 18 17  1  0
 18 19  2  0
 19 14  1  0
  4 20  1  0
  5 21  1  0
  7 22  1  0
  8 23  1  0
 10 24  1  0
 10 25  1  0
 14 26  1  0
 15 27  1  0
 18 28  1  0
M  ISO  7  20  14  21   9  22  14  23  14  26  14  27  14  28  14
M  END
>  <minimizedAffinity>  (1) 
-5.05265379

>  <minimizedRMSD>  (1) 
0.285873652

$$$$
