
     RDKit          3D

 24 26  0  0  0  0  0  0  0  0999 V2000
   39.4480   22.8780   37.3060 C   0  0  0  0  0  0  0  0  0  0  0  0
   38.5990   23.7200   36.6060 C   0  0  0  0  0  0  0  0  0  0  0  0
   37.6790   24.1710   37.4930 N   0  0  0  0  0  0  0  0  0  0  0  0
   37.9820   23.6050   38.6910 C   0  0  0  0  0  0  0  0  0  0  0  0
   39.0510   22.8210   38.5880 N   0  0  0  0  0  0  0  0  0  0  0  0
   42.5530   20.8210   37.0130 C   0  0  0  0  0  0  0  0  0  0  0  0
   41.4580   21.4970   37.5570 C   0  0  0  0  0  0  0  0  0  0  0  0
   40.5790   22.1840   36.7110 C   0  0  0  0  0  0  0  0  0  0  0  0
   40.8470   22.1540   35.3740 N   0  0  0  0  0  0  0  0  0  0  0  0
   41.9080   21.4950   34.8830 C   0  0  0  0  0  0  0  0  0  0  0  0
   42.7480   20.8410   35.6780 N   0  0  0  0  0  0  0  0  0  0  0  0
   38.5860   24.1100   35.2490 N   0  0  0  0  0  0  0  0  0  0  0  0
   38.0140   23.5260   34.2010 N   0  0  0  0  0  0  0  0  0  0  0  0
   38.2320   24.2070   33.0800 C   0  0  0  0  0  0  0  0  0  0  0  0
   38.9990   25.3190   33.3930 C   0  0  0  0  0  0  0  0  0  0  0  0
   39.2000   25.2240   34.7530 C   0  0  0  0  0  0  0  0  0  0  0  0
   37.4186   23.7729   39.6207 H   0  0  0  0  0  0  0  0  0  0  0  0
   39.4894   22.2760   39.3441 H   0  0  0  0  0  0  0  0  0  0  0  0
   43.2501   20.2771   37.6674 H   0  0  0  0  0  0  0  0  0  0  0  0
   41.2874   21.4895   38.6437 H   0  0  0  0  0  0  0  0  0  0  0  0
   42.0863   21.4963   33.7975 H   0  0  0  0  0  0  0  0  0  0  0  0
   37.8673   23.9355   32.0784 H   0  0  0  0  0  0  0  0  0  0  0  0
   39.3643   26.1002   32.7102 H   0  0  0  0  0  0  0  0  0  0  0  0
   39.7742   25.9442   35.3543 H   0  0  0  0  0  0  0  0  0  0  0  0
  1  5  1  0
  2  1  2  0
  2  3  1  0
  3  4  2  0
  5  4  1  0
  6  7  2  0
  8  1  1  0
  8  7  1  0
  9  8  2  0
 10  9  1  0
 10 11  2  0
 11  6  1  0
 12  2  1  0
 13 12  1  0
 14 15  1  0
 14 13  2  0
 15 16  2  0
 16 12  1  0
  4 17  1  0
  5 18  1  0
  6 19  1  0
  7 20  1  0
 10 21  1  0
 14 22  1  0
 15 23  1  0
 16 24  1  0
M  ISO  8  17  14  18   9  19  14  20  14  21  14  22  14  23  14  24  14
M  END
>  <minimizedAffinity>  (1) 
-4.44227409

>  <minimizedRMSD>  (1) 
0.477942944

$$$$
