
     RDKit          3D

 24 26  0  0  0  0  0  0  0  0999 V2000
   39.5720   23.0950   37.4350 C   0  0  0  0  0  0  0  0  0  0  0  0
   38.8020   24.0060   36.7150 C   0  0  0  0  0  0  0  0  0  0  0  0
   37.6300   24.1190   37.3910 N   0  0  0  0  0  0  0  0  0  0  0  0
   37.7160   23.3020   38.4660 C   0  0  0  0  0  0  0  0  0  0  0  0
   38.8740   22.6800   38.5100 N   0  0  0  0  0  0  0  0  0  0  0  0
   42.6250   20.9940   36.9600 C   0  0  0  0  0  0  0  0  0  0  0  0
   41.3290   21.3790   37.3380 C   0  0  0  0  0  0  0  0  0  0  0  0
   40.9230   22.6880   37.0440 C   0  0  0  0  0  0  0  0  0  0  0  0
   41.8070   23.5130   36.4080 N   0  0  0  0  0  0  0  0  0  0  0  0
   43.0310   23.1050   36.0660 C   0  0  0  0  0  0  0  0  0  0  0  0
   43.4450   21.8520   36.3380 N   0  0  0  0  0  0  0  0  0  0  0  0
   39.0910   24.7320   35.4990 C   0  0  0  0  0  0  0  0  0  0  0  0
   39.4980   26.0660   35.2690 C   0  0  0  0  0  0  0  0  0  0  0  0
   39.7030   26.4970   34.0150 C   0  0  0  0  0  0  0  0  0  0  0  0
   39.4630   25.4590   32.9590 C   0  0  0  0  0  0  0  0  0  0  0  0
   38.9520   23.9290   33.9470 S   0  0  0  0  0  0  0  0  0  0  0  0
   36.9167   23.1739   39.2107 H   0  0  0  0  0  0  0  0  0  0  0  0
   39.1859   22.0079   39.2255 H   0  0  0  0  0  0  0  0  0  0  0  0
   42.9724   19.9732   37.1776 H   0  0  0  0  0  0  0  0  0  0  0  0
   40.6540   20.6762   37.8484 H   0  0  0  0  0  0  0  0  0  0  0  0
   43.7115   23.8018   35.5547 H   0  0  0  0  0  0  0  0  0  0  0  0
   39.6465   26.7502   36.1174 H   0  0  0  0  0  0  0  0  0  0  0  0
   40.0201   27.5240   33.7812 H   0  0  0  0  0  0  0  0  0  0  0  0
   39.5610   25.5629   31.8683 H   0  0  0  0  0  0  0  0  0  0  0  0
  1  5  1  0
  2  3  1  0
  2  1  2  0
  3  4  2  0
  4  5  1  0
  6  7  2  0
  8  7  1  0
  8  1  1  0
  9  8  2  0
 10 11  2  0
 10  9  1  0
 11  6  1  0
 12  2  1  0
 13 12  2  0
 14 13  1  0
 15 16  1  0
 15 14  2  0
 16 12  1  0
  4 17  1  0
  5 18  1  0
  6 19  1  0
  7 20  1  0
 10 21  1  0
 13 22  1  0
 14 23  1  0
 15 24  1  0
M  ISO  8  17  14  18   9  19  14  20  14  21  14  22  14  23  14  24  14
M  END
>  <minimizedAffinity>  (1) 
-4.49799156

>  <minimizedRMSD>  (1) 
1.21550024

$$$$
