
     RDKit          3D

 24 26  0  0  0  0  0  0  0  0999 V2000
   39.4080   22.8840   37.2950 C   0  0  0  0  0  0  0  0  0  0  0  0
   38.5200   23.7100   36.5920 C   0  0  0  0  0  0  0  0  0  0  0  0
   37.6230   24.1450   37.5110 N   0  0  0  0  0  0  0  0  0  0  0  0
   37.9620   23.6020   38.6980 C   0  0  0  0  0  0  0  0  0  0  0  0
   39.0430   22.8300   38.6020 N   0  0  0  0  0  0  0  0  0  0  0  0
   42.5440   20.9030   36.9210 C   0  0  0  0  0  0  0  0  0  0  0  0
   41.4510   21.5610   37.5230 C   0  0  0  0  0  0  0  0  0  0  0  0
   40.5470   22.1970   36.6810 C   0  0  0  0  0  0  0  0  0  0  0  0
   40.7530   22.1580   35.3280 N   0  0  0  0  0  0  0  0  0  0  0  0
   41.8170   21.5150   34.8000 C   0  0  0  0  0  0  0  0  0  0  0  0
   42.7060   20.8920   35.5930 N   0  0  0  0  0  0  0  0  0  0  0  0
   38.5260   24.0520   35.1810 C   0  0  0  0  0  0  0  0  0  0  0  0
   39.1910   25.2140   34.7700 C   0  0  0  0  0  0  0  0  0  0  0  0
   39.0180   25.2600   33.3970 C   0  0  0  0  0  0  0  0  0  0  0  0
   38.2850   24.1780   33.0060 N   0  0  0  0  0  0  0  0  0  0  0  0
   37.9880   23.4470   34.0880 N   0  0  0  0  0  0  0  0  0  0  0  0
   37.4112   23.7760   39.6341 H   0  0  0  0  0  0  0  0  0  0  0  0
   39.5040   22.3040   39.3581 H   0  0  0  0  0  0  0  0  0  0  0  0
   43.2789   20.3879   37.5571 H   0  0  0  0  0  0  0  0  0  0  0  0
   41.3197   21.5702   38.6151 H   0  0  0  0  0  0  0  0  0  0  0  0
   41.9577   21.5009   33.7091 H   0  0  0  0  0  0  0  0  0  0  0  0
   39.7330   25.9338   35.4009 H   0  0  0  0  0  0  0  0  0  0  0  0
   39.4084   26.0424   32.7296 H   0  0  0  0  0  0  0  0  0  0  0  0
   38.0062   23.9595   32.0388 H   0  0  0  0  0  0  0  0  0  0  0  0
  1  5  1  0
  2  1  2  0
  2  3  1  0
  3  4  2  0
  5  4  1  0
  6  7  2  0
  8  1  1  0
  8  7  1  0
  9  8  2  0
 10  9  1  0
 10 11  2  0
 11  6  1  0
 12  2  1  0
 13 12  1  0
 14 13  2  0
 15 14  1  0
 15 16  1  0
 16 12  2  0
  4 17  1  0
  5 18  1  0
  6 19  1  0
  7 20  1  0
 10 21  1  0
 13 22  1  0
 14 23  1  0
 15 24  1  0
M  ISO  8  17  14  18   9  19  14  20  14  21  14  22  14  23  14  24   9
M  END
>  <minimizedAffinity>  (1) 
-4.46925354

>  <minimizedRMSD>  (1) 
0.468451589

$$$$
