
     RDKit          3D

 24 26  0  0  0  0  0  0  0  0999 V2000
   39.4870   22.8780   37.2620 C   0  0  0  0  0  0  0  0  0  0  0  0
   38.6160   23.6710   36.5270 C   0  0  0  0  0  0  0  0  0  0  0  0
   37.7050   24.1340   37.4190 N   0  0  0  0  0  0  0  0  0  0  0  0
   38.0140   23.6410   38.6310 C   0  0  0  0  0  0  0  0  0  0  0  0
   39.0850   22.8810   38.5560 N   0  0  0  0  0  0  0  0  0  0  0  0
   42.5630   20.7960   37.0050 C   0  0  0  0  0  0  0  0  0  0  0  0
   41.4670   21.4690   37.5500 C   0  0  0  0  0  0  0  0  0  0  0  0
   40.6260   22.1810   36.6800 C   0  0  0  0  0  0  0  0  0  0  0  0
   40.9220   22.1800   35.3460 N   0  0  0  0  0  0  0  0  0  0  0  0
   41.9920   21.5130   34.8810 C   0  0  0  0  0  0  0  0  0  0  0  0
   42.8100   20.8260   35.6910 N   0  0  0  0  0  0  0  0  0  0  0  0
   38.5900   23.9960   35.1410 N   0  0  0  0  0  0  0  0  0  0  0  0
   38.0380   23.3500   34.1020 C   0  0  0  0  0  0  0  0  0  0  0  0
   38.2990   24.0870   32.9630 C   0  0  0  0  0  0  0  0  0  0  0  0
   39.0100   25.1790   33.3240 N   0  0  0  0  0  0  0  0  0  0  0  0
   39.1950   25.1290   34.6740 C   0  0  0  0  0  0  0  0  0  0  0  0
   37.4513   23.8443   39.5540 H   0  0  0  0  0  0  0  0  0  0  0  0
   39.5346   22.3809   39.3362 H   0  0  0  0  0  0  0  0  0  0  0  0
   43.2348   20.2314   37.6683 H   0  0  0  0  0  0  0  0  0  0  0  0
   41.2682   21.4419   38.6315 H   0  0  0  0  0  0  0  0  0  0  0  0
   42.2033   21.5313   33.8016 H   0  0  0  0  0  0  0  0  0  0  0  0
   37.4785   22.4041   34.1489 H   0  0  0  0  0  0  0  0  0  0  0  0
   37.9835   23.8303   31.9410 H   0  0  0  0  0  0  0  0  0  0  0  0
   39.7360   25.8702   35.2805 H   0  0  0  0  0  0  0  0  0  0  0  0
  1  5  1  0
  2  1  2  0
  2  3  1  0
  3  4  2  0
  5  4  1  0
  6  7  2  0
  8  1  1  0
  8  7  1  0
  9  8  2  0
 10  9  1  0
 10 11  2  0
 11  6  1  0
 12  2  1  0
 13 12  1  0
 14 15  1  0
 14 13  2  0
 15 16  2  0
 16 12  1  0
  4 17  1  0
  5 18  1  0
  6 19  1  0
  7 20  1  0
 10 21  1  0
 13 22  1  0
 14 23  1  0
 16 24  1  0
M  ISO  8  17  14  18   9  19  14  20  14  21  14  22  14  23  14  24  14
M  END
>  <minimizedAffinity>  (1) 
-4.42912769

>  <minimizedRMSD>  (1) 
0.215626583

$$$$
