
     RDKit          3D

 24 25  0  0  0  0  0  0  0  0999 V2000
   39.4190   22.8740   37.2790 C   0  0  0  0  0  0  0  0  0  0  0  0
   38.5330   23.6610   36.5560 C   0  0  0  0  0  0  0  0  0  0  0  0
   37.6190   24.1140   37.4720 N   0  0  0  0  0  0  0  0  0  0  0  0
   37.9680   23.6090   38.6700 C   0  0  0  0  0  0  0  0  0  0  0  0
   39.0470   22.8630   38.5670 N   0  0  0  0  0  0  0  0  0  0  0  0
   42.5310   20.8400   36.9640 C   0  0  0  0  0  0  0  0  0  0  0  0
   41.4350   21.5000   37.5280 C   0  0  0  0  0  0  0  0  0  0  0  0
   40.5530   22.1940   36.6850 C   0  0  0  0  0  0  0  0  0  0  0  0
   40.8340   22.1780   35.3500 N   0  0  0  0  0  0  0  0  0  0  0  0
   41.8960   21.5340   34.8480 C   0  0  0  0  0  0  0  0  0  0  0  0
   42.7340   20.8740   35.6420 N   0  0  0  0  0  0  0  0  0  0  0  0
   38.4780   23.9950   35.1810 N   0  0  0  0  0  0  0  0  0  0  0  0
   38.0580   25.2720   34.7180 C   0  0  0  0  0  0  0  0  0  0  0  0
   38.2280   26.2860   35.5290 N   0  0  0  0  0  0  0  0  0  0  0  0
   37.4880   25.3580   33.4210 N   0  0  0  0  0  0  0  0  0  0  0  0
   37.9240   27.2300   35.2020 H   0  0  0  0  0  0  0  0  0  0  0  0
   37.4246   23.7948   39.6082 H   0  0  0  0  0  0  0  0  0  0  0  0
   39.5187   22.3630   39.3341 H   0  0  0  0  0  0  0  0  0  0  0  0
   43.2302   20.2898   37.6108 H   0  0  0  0  0  0  0  0  0  0  0  0
   41.2667   21.4758   38.6148 H   0  0  0  0  0  0  0  0  0  0  0  0
   42.0775   21.5514   33.7632 H   0  0  0  0  0  0  0  0  0  0  0  0
   38.7534   23.2842   34.4883 H   0  0  0  0  0  0  0  0  0  0  0  0
   37.1736   26.2684   33.0560 H   0  0  0  0  0  0  0  0  0  0  0  0
   37.3887   24.5100   32.8448 H   0  0  0  0  0  0  0  0  0  0  0  0
  1  5  1  0
  2  1  2  0
  2  3  1  0
  3  4  2  0
  5  4  1  0
  6  7  2  0
  8  1  1  0
  8  7  1  0
  9  8  2  0
 10  9  1  0
 10 11  2  0
 11  6  1  0
 12  2  1  0
 13 12  1  0
 13 14  2  0
 15 13  1  0
 16 14  1  0
  4 17  1  0
  5 18  1  0
  6 19  1  0
  7 20  1  0
 10 21  1  0
 12 22  1  0
 15 23  1  0
 15 24  1  0
M  ISO  5  17  14  18   9  19  14  20  14  21  14
M  END
>  <minimizedAffinity>  (1) 
-4.39773226

>  <minimizedRMSD>  (1) 
0.197239518

$$$$
