
     RDKit          3D

 29 30  0  0  0  0  0  0  0  0999 V2000
   39.6360   23.1070   37.0900 C   0  0  0  0  0  0  0  0  0  0  0  0
   38.7450   24.0770   36.6030 C   0  0  0  0  0  0  0  0  0  0  0  0
   37.8080   24.1890   37.5610 N   0  0  0  0  0  0  0  0  0  0  0  0
   38.1160   23.3430   38.5560 C   0  0  0  0  0  0  0  0  0  0  0  0
   39.2200   22.6770   38.2920 N   0  0  0  0  0  0  0  0  0  0  0  0
   43.2190   22.6410   36.1650 C   0  0  0  0  0  0  0  0  0  0  0  0
   42.0700   23.0480   36.8310 C   0  0  0  0  0  0  0  0  0  0  0  0
   40.8230   22.6700   36.3800 C   0  0  0  0  0  0  0  0  0  0  0  0
   40.7930   21.8930   35.2720 N   0  0  0  0  0  0  0  0  0  0  0  0
   41.9010   21.5060   34.6380 C   0  0  0  0  0  0  0  0  0  0  0  0
   43.1050   21.8740   35.0780 N   0  0  0  0  0  0  0  0  0  0  0  0
   38.7080   24.8560   35.3410 C   0  0  0  0  0  0  0  0  0  0  0  0
   37.6850   26.0040   35.4560 C   0  0  0  0  0  0  0  0  0  0  0  0
   40.0100   25.5180   34.9820 C   0  0  0  0  0  0  0  0  0  0  0  0
   38.1650   23.9740   34.2130 C   0  0  0  0  0  0  0  0  0  0  0  0
   37.5223   23.2218   39.4740 H   0  0  0  0  0  0  0  0  0  0  0  0
   39.6733   21.9690   38.8872 H   0  0  0  0  0  0  0  0  0  0  0  0
   44.2110   22.9469   36.5287 H   0  0  0  0  0  0  0  0  0  0  0  0
   42.1558   23.6788   37.7281 H   0  0  0  0  0  0  0  0  0  0  0  0
   41.8206   20.8751   33.7405 H   0  0  0  0  0  0  0  0  0  0  0  0
   37.4932   26.2192   36.5175 H   0  0  0  0  0  0  0  0  0  0  0  0
   38.0865   26.9034   34.9662 H   0  0  0  0  0  0  0  0  0  0  0  0
   36.7455   25.7083   34.9662 H   0  0  0  0  0  0  0  0  0  0  0  0
   40.5480   25.7916   35.9016 H   0  0  0  0  0  0  0  0  0  0  0  0
   40.6241   24.8227   34.3909 H   0  0  0  0  0  0  0  0  0  0  0  0
   39.8100   26.4239   34.3909 H   0  0  0  0  0  0  0  0  0  0  0  0
   37.6345   23.1123   34.6444 H   0  0  0  0  0  0  0  0  0  0  0  0
   37.4704   24.5589   33.5922 H   0  0  0  0  0  0  0  0  0  0  0  0
   39.0001   23.6172   33.5922 H   0  0  0  0  0  0  0  0  0  0  0  0
  1  5  1  0
  2  1  2  0
  2  3  1  0
  3  4  2  0
  5  4  1  0
  6  7  2  0
  8  7  1  0
  8  1  1  0
  9  8  2  0
 10 11  2  0
 10  9  1  0
 11  6  1  0
 12 13  1  0
 12  2  1  0
 14 12  1  0
 15 12  1  0
  4 16  1  0
  5 17  1  0
  6 18  1  0
  7 19  1  0
 10 20  1  0
 13 21  1  0
 13 22  1  0
 13 23  1  0
 14 24  1  0
 14 25  1  0
 14 26  1  0
 15 27  1  0
 15 28  1  0
 15 29  1  0
M  ISO  8  16  14  17   9  18  14  19  14  20  14  21   8  22   8  23   8
M  ISO  6  24   8  25   8  26   8  27   8  28   8  29   8
M  END
>  <minimizedAffinity>  (1) 
-4.16747475

>  <minimizedRMSD>  (1) 
1.01999903

$$$$
