
     RDKit          3D

 23 24  0  0  0  0  0  0  0  0999 V2000
   39.4550   22.8940   37.2940 C   0  0  0  0  0  0  0  0  0  0  0  0
   38.6620   23.7950   36.6120 C   0  0  0  0  0  0  0  0  0  0  0  0
   37.7270   24.2310   37.4920 N   0  0  0  0  0  0  0  0  0  0  0  0
   37.9650   23.6020   38.6610 C   0  0  0  0  0  0  0  0  0  0  0  0
   38.9990   22.7990   38.5470 N   0  0  0  0  0  0  0  0  0  0  0  0
   42.5500   20.8250   37.0230 C   0  0  0  0  0  0  0  0  0  0  0  0
   41.4550   21.5090   37.5530 C   0  0  0  0  0  0  0  0  0  0  0  0
   40.5820   22.1910   36.7200 C   0  0  0  0  0  0  0  0  0  0  0  0
   40.8540   22.1510   35.3900 N   0  0  0  0  0  0  0  0  0  0  0  0
   41.9020   21.4950   34.8950 C   0  0  0  0  0  0  0  0  0  0  0  0
   42.7550   20.8300   35.6990 N   0  0  0  0  0  0  0  0  0  0  0  0
   38.6990   24.2760   35.2110 C   0  0  0  0  0  0  0  0  0  0  0  0
   39.3490   25.6450   35.2130 C   0  0  0  0  0  0  0  0  0  0  0  0
   37.3768   23.7414   39.5800 H   0  0  0  0  0  0  0  0  0  0  0  0
   39.3887   22.2025   39.2908 H   0  0  0  0  0  0  0  0  0  0  0  0
   43.2403   20.2853   37.6880 H   0  0  0  0  0  0  0  0  0  0  0  0
   41.2836   21.5068   38.6396 H   0  0  0  0  0  0  0  0  0  0  0  0
   42.0748   21.4960   33.8087 H   0  0  0  0  0  0  0  0  0  0  0  0
   37.6765   24.3470   34.8118 H   0  0  0  0  0  0  0  0  0  0  0  0
   39.2684   23.5791   34.5784 H   0  0  0  0  0  0  0  0  0  0  0  0
   39.5057   25.9750   36.2506 H   0  0  0  0  0  0  0  0  0  0  0  0
   40.3179   25.5916   34.6949 H   0  0  0  0  0  0  0  0  0  0  0  0
   38.6952   26.3621   34.6949 H   0  0  0  0  0  0  0  0  0  0  0  0
  1  5  1  0
  2  1  2  0
  2  3  1  0
  3  4  2  0
  5  4  1  0
  6  7  2  0
  8  1  1  0
  8  7  1  0
  9  8  2  0
 10  9  1  0
 10 11  2  0
 11  6  1  0
 12 13  1  0
 12  2  1  0
  4 14  1  0
  5 15  1  0
  6 16  1  0
  7 17  1  0
 10 18  1  0
 12 19  1  0
 12 20  1  0
 13 21  1  0
 13 22  1  0
 13 23  1  0
M  ISO  8  14  14  15   9  16  14  17  14  18  14  19   8  20   8  21   8
M  ISO  2  22   8  23   8
M  END
>  <minimizedAffinity>  (1) 
-4.03494024

>  <minimizedRMSD>  (1) 
0.198692381

$$$$
