
     RDKit          3D

 24 26  0  0  0  0  0  0  0  0999 V2000
   39.3850   22.8550   37.2730 C   0  0  0  0  0  0  0  0  0  0  0  0
   38.4250   23.5680   36.5660 C   0  0  0  0  0  0  0  0  0  0  0  0
   37.5630   24.0190   37.5170 N   0  0  0  0  0  0  0  0  0  0  0  0
   37.9900   23.5950   38.7180 C   0  0  0  0  0  0  0  0  0  0  0  0
   39.0920   22.8880   38.5940 N   0  0  0  0  0  0  0  0  0  0  0  0
   42.5100   20.8830   36.8370 C   0  0  0  0  0  0  0  0  0  0  0  0
   41.4250   21.5180   37.4590 C   0  0  0  0  0  0  0  0  0  0  0  0
   40.5250   22.1860   36.6330 C   0  0  0  0  0  0  0  0  0  0  0  0
   40.7440   22.1840   35.2840 N   0  0  0  0  0  0  0  0  0  0  0  0
   41.7960   21.5610   34.7450 C   0  0  0  0  0  0  0  0  0  0  0  0
   42.6750   20.9130   35.5090 N   0  0  0  0  0  0  0  0  0  0  0  0
   38.2800   23.8310   35.1590 C   0  0  0  0  0  0  0  0  0  0  0  0
   38.4630   25.1350   34.6920 C   0  0  0  0  0  0  0  0  0  0  0  0
   38.2690   25.0880   33.3530 N   0  0  0  0  0  0  0  0  0  0  0  0
   37.9850   23.8250   33.0250 C   0  0  0  0  0  0  0  0  0  0  0  0
   37.9830   23.0260   34.1090 N   0  0  0  0  0  0  0  0  0  0  0  0
   37.4876   23.8094   39.6728 H   0  0  0  0  0  0  0  0  0  0  0  0
   39.6278   22.4455   39.3542 H   0  0  0  0  0  0  0  0  0  0  0  0
   43.2440   20.3467   37.4563 H   0  0  0  0  0  0  0  0  0  0  0  0
   41.2911   21.4895   38.5505 H   0  0  0  0  0  0  0  0  0  0  0  0
   41.9387   21.5833   33.6545 H   0  0  0  0  0  0  0  0  0  0  0  0
   38.7143   26.0220   35.2920 H   0  0  0  0  0  0  0  0  0  0  0  0
   37.7791   23.4813   32.0006 H   0  0  0  0  0  0  0  0  0  0  0  0
   37.7949   22.0137   34.1351 H   0  0  0  0  0  0  0  0  0  0  0  0
  1  5  1  0
  2  1  2  0
  2  3  1  0
  3  4  2  0
  5  4  1  0
  6  7  2  0
  8  1  1  0
  8  7  1  0
  9  8  2  0
 10  9  1  0
 10 11  2  0
 11  6  1  0
 12  2  1  0
 13 12  2  0
 14 13  1  0
 15 14  2  0
 15 16  1  0
 16 12  1  0
  4 17  1  0
  5 18  1  0
  6 19  1  0
  7 20  1  0
 10 21  1  0
 13 22  1  0
 15 23  1  0
 16 24  1  0
M  ISO  8  17  14  18   9  19  14  20  14  21  14  22  14  23  14  24   9
M  END
>  <minimizedAffinity>  (1) 
-4.44166756

>  <minimizedRMSD>  (1) 
0.437740803

$$$$
