
     RDKit          3D

 18 19  0  0  0  0  0  0  0  0999 V2000
   42.5440   20.8260   36.9970 C   0  0  0  0  0  0  0  0  0  0  0  0
   41.4510   21.4910   37.5670 C   0  0  0  0  0  0  0  0  0  0  0  0
   40.5920   22.1650   36.7130 C   0  0  0  0  0  0  0  0  0  0  0  0
   40.8650   22.1380   35.3680 N   0  0  0  0  0  0  0  0  0  0  0  0
   41.9190   21.4900   34.8710 C   0  0  0  0  0  0  0  0  0  0  0  0
   42.7590   20.8350   35.6810 N   0  0  0  0  0  0  0  0  0  0  0  0
   39.4410   22.8700   37.2770 C   0  0  0  0  0  0  0  0  0  0  0  0
   38.5780   23.6720   36.5250 C   0  0  0  0  0  0  0  0  0  0  0  0
   37.6540   24.1360   37.4150 N   0  0  0  0  0  0  0  0  0  0  0  0
   37.9690   23.6270   38.6220 C   0  0  0  0  0  0  0  0  0  0  0  0
   39.0430   22.8610   38.5560 N   0  0  0  0  0  0  0  0  0  0  0  0
   38.6550   24.0210   34.7820 S   0  0  0  0  0  0  0  0  0  0  0  0
   43.2422   20.2830   37.6510 H   0  0  0  0  0  0  0  0  0  0  0  0
   41.2803   21.4788   38.6536 H   0  0  0  0  0  0  0  0  0  0  0  0
   42.0996   21.4939   33.7859 H   0  0  0  0  0  0  0  0  0  0  0  0
   37.4038   23.8242   39.5448 H   0  0  0  0  0  0  0  0  0  0  0  0
   39.4876   22.3555   39.3356 H   0  0  0  0  0  0  0  0  0  0  0  0
   38.9474   25.3462   34.5941 H   0  0  0  0  0  0  0  0  0  0  0  0
  1  2  2  0
  3  7  1  0
  3  2  1  0
  4  3  2  0
  5  4  1  0
  5  6  2  0
  6  1  1  0
  7 11  1  0
  8  7  2  0
  8  9  1  0
  9 10  2  0
 11 10  1  0
 12  8  1  0
  1 13  1  0
  2 14  1  0
  5 15  1  0
 10 16  1  0
 11 17  1  0
 12 18  1  0
M  ISO  6  13  14  14  14  15  14  16  14  17   9  18  11
M  END
>  <minimizedAffinity>  (1) 
-3.94175291

>  <minimizedRMSD>  (1) 
0.0539091974

$$$$
