
     RDKit          3D

 23 23  0  0  0  0  0  0  0  0999 V2000
   38.5630   23.7040   37.0090 C   0  0  0  0  0  0  0  0  0  0  0  0
   41.6460   21.5690   37.3450 C   0  0  0  0  0  0  0  0  0  0  0  0
   40.3580   22.0530   37.6020 C   0  0  0  0  0  0  0  0  0  0  0  0
   39.8860   23.1190   36.8320 C   0  0  0  0  0  0  0  0  0  0  0  0
   40.6950   23.6320   35.8760 N   0  0  0  0  0  0  0  0  0  0  0  0
   41.9360   23.1500   35.6440 C   0  0  0  0  0  0  0  0  0  0  0  0
   42.4110   22.1160   36.3800 N   0  0  0  0  0  0  0  0  0  0  0  0
   42.1590   20.5200   38.0750 O   0  0  0  0  0  0  0  0  0  0  0  0
   38.3480   23.8710   38.5240 C   0  0  0  0  0  0  0  0  0  0  0  0
   38.3750   25.0420   36.3220 C   0  0  0  0  0  0  0  0  0  0  0  0
   37.4950   22.7770   36.4720 C   0  0  0  0  0  0  0  0  0  0  0  0
   39.7337   21.6058   38.3896 H   0  0  0  0  0  0  0  0  0  0  0  0
   42.5611   23.5973   34.8571 H   0  0  0  0  0  0  0  0  0  0  0  0
   43.0711   20.1846   37.8859 H   0  0  0  0  0  0  0  0  0  0  0  0
   39.1029   23.2846   39.0683 H   0  0  0  0  0  0  0  0  0  0  0  0
   38.4447   24.9332   38.7932 H   0  0  0  0  0  0  0  0  0  0  0  0
   37.3428   23.5146   38.7932 H   0  0  0  0  0  0  0  0  0  0  0  0
   38.2641   25.8311   37.0803 H   0  0  0  0  0  0  0  0  0  0  0  0
   39.2516   25.2579   35.6936 H   0  0  0  0  0  0  0  0  0  0  0  0
   37.4728   25.0080   35.6936 H   0  0  0  0  0  0  0  0  0  0  0  0
   36.9581   22.3110   37.3114 H   0  0  0  0  0  0  0  0  0  0  0  0
   36.7864   23.3512   35.8571 H   0  0  0  0  0  0  0  0  0  0  0  0
   37.9639   21.9947   35.8571 H   0  0  0  0  0  0  0  0  0  0  0  0
  1  9  1  0
  2  3  2  0
  2  8  1  0
  4  1  1  0
  4  3  1  0
  5  4  2  0
  6  5  1  0
  6  7  2  0
  7  2  1  0
 10  1  1  0
 11  1  1  0
  3 12  1  0
  6 13  1  0
  8 14  1  0
  9 15  1  0
  9 16  1  0
  9 17  1  0
 10 18  1  0
 10 19  1  0
 10 20  1  0
 11 21  1  0
 11 22  1  0
 11 23  1  0
M  ISO  8  12  14  13  14  14   3  15   8  16   8  17   8  18   8  19   8
M  ISO  4  20   8  21   8  22   8  23   8
M  END
>  <minimizedAffinity>  (1) 
-3.82055426

>  <minimizedRMSD>  (1) 
0.795560181

$$$$
