
     RDKit          3D

 27 29  0  0  0  0  0  0  0  0999 V2000
   39.4490   22.8850   37.3180 C   0  0  0  0  0  0  0  0  0  0  0  0
   38.6290   23.7640   36.6290 C   0  0  0  0  0  0  0  0  0  0  0  0
   37.7160   24.1820   37.5410 N   0  0  0  0  0  0  0  0  0  0  0  0
   37.9860   23.5770   38.7100 C   0  0  0  0  0  0  0  0  0  0  0  0
   39.0310   22.7850   38.6090 N   0  0  0  0  0  0  0  0  0  0  0  0
   42.5590   20.8680   36.9660 C   0  0  0  0  0  0  0  0  0  0  0  0
   41.4850   21.5300   37.5720 C   0  0  0  0  0  0  0  0  0  0  0  0
   40.5920   22.1780   36.7300 C   0  0  0  0  0  0  0  0  0  0  0  0
   40.7970   22.1430   35.3620 N   0  0  0  0  0  0  0  0  0  0  0  0
   41.8600   21.4820   34.8450 C   0  0  0  0  0  0  0  0  0  0  0  0
   42.7330   20.8510   35.6310 N   0  0  0  0  0  0  0  0  0  0  0  0
   38.6890   24.1850   35.2340 C   0  0  0  0  0  0  0  0  0  0  0  0
   39.4400   25.3180   34.9960 C   0  0  0  0  0  0  0  0  0  0  0  0
   39.5630   25.8030   33.7080 C   0  0  0  0  0  0  0  0  0  0  0  0
   38.9410   25.1700   32.6390 C   0  0  0  0  0  0  0  0  0  0  0  0
   38.1940   24.0320   32.9160 C   0  0  0  0  0  0  0  0  0  0  0  0
   38.0520   23.5210   34.1940 C   0  0  0  0  0  0  0  0  0  0  0  0
   37.4070   23.7252   39.6334 H   0  0  0  0  0  0  0  0  0  0  0  0
   39.4473   22.2079   39.3537 H   0  0  0  0  0  0  0  0  0  0  0  0
   43.2864   20.3432   37.6027 H   0  0  0  0  0  0  0  0  0  0  0  0
   41.3548   21.5364   38.6642 H   0  0  0  0  0  0  0  0  0  0  0  0
   42.0061   21.4653   33.7549 H   0  0  0  0  0  0  0  0  0  0  0  0
   39.9394   25.8337   35.8295 H   0  0  0  0  0  0  0  0  0  0  0  0
   40.1639   26.7061   33.5258 H   0  0  0  0  0  0  0  0  0  0  0  0
   39.0364   25.5550   31.6130 H   0  0  0  0  0  0  0  0  0  0  0  0
   37.6940   23.5150   32.0837 H   0  0  0  0  0  0  0  0  0  0  0  0
   37.4533   22.6172   34.3803 H   0  0  0  0  0  0  0  0  0  0  0  0
  1  5  1  0
  2  1  2  0
  2  3  1  0
  3  4  2  0
  5  4  1  0
  6  7  2  0
  8  1  1  0
  8  7  1  0
  9  8  2  0
 10  9  1  0
 10 11  2  0
 11  6  1  0
 12  2  1  0
 13 12  2  0
 14 13  1  0
 15 16  1  0
 15 14  2  0
 16 17  2  0
 17 12  1  0
  4 18  1  0
  5 19  1  0
  6 20  1  0
  7 21  1  0
 10 22  1  0
 13 23  1  0
 14 24  1  0
 15 25  1  0
 16 26  1  0
 17 27  1  0
M  ISO  8  18  14  19   9  20  14  21  14  22  14  23  14  24  14  25  14
M  ISO  2  26  14  27  14
M  END
>  <minimizedAffinity>  (1) 
-4.66761255

>  <minimizedRMSD>  (1) 
0.21759133

$$$$
