
     RDKit          3D

 41 45  0  0  0  0  0  0  0  0999 V2000
   39.7070   25.1440   34.7710 C   0  0  0  0  0  0  0  0  0  0  0  0
   40.4020   26.2710   35.1680 C   0  0  0  0  0  0  0  0  0  0  0  0
   41.1040   27.0120   34.2390 C   0  0  0  0  0  0  0  0  0  0  0  0
   41.1330   26.6510   32.9030 C   0  0  0  0  0  0  0  0  0  0  0  0
   40.4260   25.5150   32.5360 C   0  0  0  0  0  0  0  0  0  0  0  0
   39.7130   24.7540   33.4450 C   0  0  0  0  0  0  0  0  0  0  0  0
   38.9830   23.5850   33.0880 N   0  0  0  0  0  0  0  0  0  0  0  0
   39.4500   22.3360   33.3250 C   0  0  0  0  0  0  0  0  0  0  0  0
   38.5920   21.3740   32.9050 N   0  0  0  0  0  0  0  0  0  0  0  0
   37.5410   22.0240   32.3820 C   0  0  0  0  0  0  0  0  0  0  0  0
   36.3440   21.6750   31.7900 C   0  0  0  0  0  0  0  0  0  0  0  0
   36.0970   20.4560   31.6730 O   0  0  0  0  0  0  0  0  0  0  0  0
   35.4410   22.5740   31.3390 N   0  0  0  0  0  0  0  0  0  0  0  0
   35.7610   23.8740   31.4930 C   0  0  0  0  0  0  0  0  0  0  0  0
   34.8280   24.8420   31.0260 N   0  0  0  0  0  0  0  0  0  0  0  0
   36.9220   24.3080   32.0650 N   0  0  0  0  0  0  0  0  0  0  0  0
   37.7900   23.3760   32.4980 C   0  0  0  0  0  0  0  0  0  0  0  0
   39.4610   23.4360   36.6770 C   0  0  0  0  0  0  0  0  0  0  0  0
   39.0100   24.4510   35.8340 C   0  0  0  0  0  0  0  0  0  0  0  0
   37.7340   24.6650   36.2270 N   0  0  0  0  0  0  0  0  0  0  0  0
   37.4490   23.8340   37.2350 C   0  0  0  0  0  0  0  0  0  0  0  0
   38.4760   23.0750   37.5320 N   0  0  0  0  0  0  0  0  0  0  0  0
   42.3220   21.0950   37.0910 C   0  0  0  0  0  0  0  0  0  0  0  0
   41.0250   21.5960   37.1650 C   0  0  0  0  0  0  0  0  0  0  0  0
   40.8100   22.8620   36.6250 C   0  0  0  0  0  0  0  0  0  0  0  0
   41.8700   23.5400   36.0580 N   0  0  0  0  0  0  0  0  0  0  0  0
   43.1080   22.9870   36.0220 C   0  0  0  0  0  0  0  0  0  0  0  0
   43.3380   21.7820   36.5300 N   0  0  0  0  0  0  0  0  0  0  0  0
   40.3956   26.5773   36.2245 H   0  0  0  0  0  0  0  0  0  0  0  0
   41.6517   27.9078   34.5670 H   0  0  0  0  0  0  0  0  0  0  0  0
   41.6936   27.2406   32.1626 H   0  0  0  0  0  0  0  0  0  0  0  0
   40.4327   25.2071   31.4800 H   0  0  0  0  0  0  0  0  0  0  0  0
   40.4173   22.1256   33.8046 H   0  0  0  0  0  0  0  0  0  0  0  0
   34.5559   22.2812   30.9011 H   0  0  0  0  0  0  0  0  0  0  0  0
   35.0348   25.8462   31.1249 H   0  0  0  0  0  0  0  0  0  0  0  0
   33.9460   24.5384   30.5892 H   0  0  0  0  0  0  0  0  0  0  0  0
   36.4774   23.7925   37.7492 H   0  0  0  0  0  0  0  0  0  0  0  0
   38.5234   22.3529   38.2649 H   0  0  0  0  0  0  0  0  0  0  0  0
   42.5265   20.0976   37.5073 H   0  0  0  0  0  0  0  0  0  0  0  0
   40.2098   21.0201   37.6274 H   0  0  0  0  0  0  0  0  0  0  0  0
   43.9365   23.5470   35.5636 H   0  0  0  0  0  0  0  0  0  0  0  0
  1  2  2  0
  1 19  1  0
  3  2  1  0
  4  3  2  0
  5  4  1  0
  5  6  2  0
  6  1  1  0
  7  8  1  0
  7  6  1  0
  9  8  2  0
 10 17  2  0
 10  9  1  0
 11 10  1  0
 12 11  2  0
 13 14  1  0
 13 11  1  0
 14 16  2  0
 15 14  1  0
 16 17  1  0
 17  7  1  0
 18 22  1  0
 19 20  1  0
 19 18  2  0
 20 21  2  0
 21 22  1  0
 23 24  2  0
 25 18  1  0
 25 24  1  0
 26 25  2  0
 27 26  1  0
 27 28  2  0
 28 23  1  0
  2 29  1  0
  3 30  1  0
  4 31  1  0
  5 32  1  0
  8 33  1  0
 13 34  1  0
 15 35  1  0
 15 36  1  0
 21 37  1  0
 22 38  1  0
 23 39  1  0
 24 40  1  0
 27 41  1  0
M  ISO  8  29  14  30  14  31  14  32  14  33  14  34   9  37  14  38   9
M  ISO  3  39  14  40  14  41  14
M  END
>  <minimizedAffinity>  (1) 
-6.20977545

>  <minimizedRMSD>  (1) 
2.33311296

$$$$
