
     RDKit          3D

 40 44  0  0  0  0  0  0  0  0999 V2000
   38.7040   24.1620   35.0850 C   0  0  0  0  0  0  0  0  0  0  0  0
   39.4820   25.3020   34.9360 C   0  0  0  0  0  0  0  0  0  0  0  0
   39.6800   25.8420   33.6790 C   0  0  0  0  0  0  0  0  0  0  0  0
   39.1050   25.2550   32.5500 C   0  0  0  0  0  0  0  0  0  0  0  0
   38.3350   24.1170   32.7450 C   0  0  0  0  0  0  0  0  0  0  0  0
   38.1210   23.5560   33.9930 C   0  0  0  0  0  0  0  0  0  0  0  0
   37.3370   22.4000   34.1900 N   0  0  0  0  0  0  0  0  0  0  0  0
   36.7970   21.7430   35.2340 C   0  0  0  0  0  0  0  0  0  0  0  0
   36.1230   20.6570   34.8170 N   0  0  0  0  0  0  0  0  0  0  0  0
   36.2170   20.5890   33.4750 C   0  0  0  0  0  0  0  0  0  0  0  0
   35.6920   19.6600   32.6220 C   0  0  0  0  0  0  0  0  0  0  0  0
   35.9280   19.8080   31.2880 N   0  0  0  0  0  0  0  0  0  0  0  0
   36.6640   20.8630   30.9000 C   0  0  0  0  0  0  0  0  0  0  0  0
   37.1720   21.7650   31.7470 N   0  0  0  0  0  0  0  0  0  0  0  0
   36.9720   21.6740   33.0940 C   0  0  0  0  0  0  0  0  0  0  0  0
   34.9120   18.5440   33.0390 N   0  0  0  0  0  0  0  0  0  0  0  0
   39.3700   22.7930   37.1560 C   0  0  0  0  0  0  0  0  0  0  0  0
   38.5710   23.6920   36.4490 C   0  0  0  0  0  0  0  0  0  0  0  0
   37.6080   24.0480   37.3340 N   0  0  0  0  0  0  0  0  0  0  0  0
   37.8160   23.4080   38.4880 C   0  0  0  0  0  0  0  0  0  0  0  0
   38.8860   22.6280   38.4240 N   0  0  0  0  0  0  0  0  0  0  0  0
   42.5990   20.9580   36.9230 C   0  0  0  0  0  0  0  0  0  0  0  0
   41.4830   21.5820   37.4840 C   0  0  0  0  0  0  0  0  0  0  0  0
   40.5580   22.1270   36.6080 C   0  0  0  0  0  0  0  0  0  0  0  0
   40.7750   22.0300   35.2490 N   0  0  0  0  0  0  0  0  0  0  0  0
   41.8770   21.4120   34.7620 C   0  0  0  0  0  0  0  0  0  0  0  0
   42.7730   20.8840   35.5820 N   0  0  0  0  0  0  0  0  0  0  0  0
   39.9403   25.7750   35.8170 H   0  0  0  0  0  0  0  0  0  0  0  0
   40.2980   26.7450   33.5668 H   0  0  0  0  0  0  0  0  0  0  0  0
   39.2564   25.6778   31.5459 H   0  0  0  0  0  0  0  0  0  0  0  0
   37.8736   23.6388   31.8684 H   0  0  0  0  0  0  0  0  0  0  0  0
   36.8941   22.0527   36.2850 H   0  0  0  0  0  0  0  0  0  0  0  0
   36.8598   20.9922   29.8253 H   0  0  0  0  0  0  0  0  0  0  0  0
   34.5467   17.8811   32.3404 H   0  0  0  0  0  0  0  0  0  0  0  0
   34.7131   18.3996   34.0392 H   0  0  0  0  0  0  0  0  0  0  0  0
   37.1797   23.5148   39.3789 H   0  0  0  0  0  0  0  0  0  0  0  0
   39.2695   22.0279   39.1681 H   0  0  0  0  0  0  0  0  0  0  0  0
   43.3560   20.5153   37.5871 H   0  0  0  0  0  0  0  0  0  0  0  0
   41.3442   21.6385   38.5737 H   0  0  0  0  0  0  0  0  0  0  0  0
   42.0295   21.3479   33.6745 H   0  0  0  0  0  0  0  0  0  0  0  0
  1 18  1  0
  2  1  2  0
  3  2  1  0
  4  5  1  0
  4  3  2  0
  5  6  2  0
  6  7  1  0
  6  1  1  0
  7  8  1  0
  9  8  2  0
 10  9  1  0
 11 16  1  0
 11 10  2  0
 12 11  1  0
 13 12  2  0
 13 14  1  0
 14 15  2  0
 15 10  1  0
 15  7  1  0
 17 21  1  0
 18 17  2  0
 18 19  1  0
 19 20  2  0
 21 20  1  0
 22 23  2  0
 24 17  1  0
 24 23  1  0
 25 24  2  0
 26 25  1  0
 26 27  2  0
 27 22  1  0
  2 28  1  0
  3 29  1  0
  4 30  1  0
  5 31  1  0
  8 32  1  0
 13 33  1  0
 16 34  1  0
 16 35  1  0
 20 36  1  0
 21 37  1  0
 22 38  1  0
 23 39  1  0
 26 40  1  0
M  ISO  8  28  14  29  14  30  14  31  14  32  14  33  14  36  14  37   9
M  ISO  3  38  14  39  14  40  14
M  END
>  <minimizedAffinity>  (1) 
-6.20383739

>  <minimizedRMSD>  (1) 
0.932629168

$$$$
