
     RDKit          3D

 38 42  0  0  0  0  0  0  0  0999 V2000
   39.2240   24.2940   35.0970 C   0  0  0  0  0  0  0  0  0  0  0  0
   40.1300   25.3210   35.0390 C   0  0  0  0  0  0  0  0  0  0  0  0
   40.4820   25.8660   33.8150 C   0  0  0  0  0  0  0  0  0  0  0  0
   39.9280   25.3910   32.6330 C   0  0  0  0  0  0  0  0  0  0  0  0
   39.0150   24.3520   32.7240 C   0  0  0  0  0  0  0  0  0  0  0  0
   38.6620   23.8060   33.9370 C   0  0  0  0  0  0  0  0  0  0  0  0
   37.7250   22.7410   34.0360 N   0  0  0  0  0  0  0  0  0  0  0  0
   37.5640   22.0320   35.1930 C   0  0  0  0  0  0  0  0  0  0  0  0
   36.6380   21.0760   35.0830 N   0  0  0  0  0  0  0  0  0  0  0  0
   36.1700   21.1490   33.8230 C   0  0  0  0  0  0  0  0  0  0  0  0
   35.2450   20.5080   33.0320 C   0  0  0  0  0  0  0  0  0  0  0  0
   35.0050   20.8360   31.7540 N   0  0  0  0  0  0  0  0  0  0  0  0
   35.6970   21.8540   31.1780 C   0  0  0  0  0  0  0  0  0  0  0  0
   36.6230   22.5210   31.9170 N   0  0  0  0  0  0  0  0  0  0  0  0
   36.8430   22.1700   33.1960 C   0  0  0  0  0  0  0  0  0  0  0  0
   39.5790   22.8180   37.1700 C   0  0  0  0  0  0  0  0  0  0  0  0
   38.9310   23.8000   36.4260 C   0  0  0  0  0  0  0  0  0  0  0  0
   37.9240   24.2200   37.2340 N   0  0  0  0  0  0  0  0  0  0  0  0
   37.9660   23.5380   38.3810 C   0  0  0  0  0  0  0  0  0  0  0  0
   38.9600   22.6770   38.3730 N   0  0  0  0  0  0  0  0  0  0  0  0
   42.6520   20.7220   37.1470 C   0  0  0  0  0  0  0  0  0  0  0  0
   41.5490   21.4250   37.6410 C   0  0  0  0  0  0  0  0  0  0  0  0
   40.7480   22.0660   36.7000 C   0  0  0  0  0  0  0  0  0  0  0  0
   41.0630   21.9840   35.3640 N   0  0  0  0  0  0  0  0  0  0  0  0
   42.1560   21.2770   34.9620 C   0  0  0  0  0  0  0  0  0  0  0  0
   42.9390   20.6550   35.8400 N   0  0  0  0  0  0  0  0  0  0  0  0
   40.5776   25.7124   35.9644 H   0  0  0  0  0  0  0  0  0  0  0  0
   41.2119   26.6881   33.7785 H   0  0  0  0  0  0  0  0  0  0  0  0
   40.2038   25.8237   31.6600 H   0  0  0  0  0  0  0  0  0  0  0  0
   38.5615   23.9541   31.8042 H   0  0  0  0  0  0  0  0  0  0  0  0
   38.1341   22.2271   36.1133 H   0  0  0  0  0  0  0  0  0  0  0  0
   34.6700   19.6801   33.4724 H   0  0  0  0  0  0  0  0  0  0  0  0
   35.5109   22.1339   30.1306 H   0  0  0  0  0  0  0  0  0  0  0  0
   37.2655   23.6771   39.2176 H   0  0  0  0  0  0  0  0  0  0  0  0
   39.2184   22.0254   39.1277 H   0  0  0  0  0  0  0  0  0  0  0  0
   43.3102   20.2034   37.8596 H   0  0  0  0  0  0  0  0  0  0  0  0
   41.3258   21.4693   38.7172 H   0  0  0  0  0  0  0  0  0  0  0  0
   42.3961   21.2192   33.8901 H   0  0  0  0  0  0  0  0  0  0  0  0
  1 17  1  0
  2  1  2  0
  3  2  1  0
  4  5  1  0
  4  3  2  0
  5  6  2  0
  6  7  1  0
  6  1  1  0
  7  8  1  0
  9  8  2  0
 10  9  1  0
 11 10  2  0
 12 11  1  0
 13 12  2  0
 13 14  1  0
 14 15  2  0
 15 10  1  0
 15  7  1  0
 16 20  1  0
 17 16  2  0
 17 18  1  0
 18 19  2  0
 20 19  1  0
 21 22  2  0
 23 16  1  0
 23 22  1  0
 24 23  2  0
 25 24  1  0
 25 26  2  0
 26 21  1  0
  2 27  1  0
  3 28  1  0
  4 29  1  0
  5 30  1  0
  8 31  1  0
 11 32  1  0
 13 33  1  0
 19 34  1  0
 20 35  1  0
 21 36  1  0
 22 37  1  0
 25 38  1  0
M  ISO  8  27  14  28  14  29  14  30  14  31  14  32  14  33  14  34  14
M  ISO  4  35   9  36  14  37  14  38  14
M  END
>  <minimizedAffinity>  (1) 
-6.05851173

>  <minimizedRMSD>  (1) 
0.900447369

$$$$
