
     RDKit          3D

 38 41  0  0  0  0  0  0  0  0999 V2000
   39.0750   24.5740   35.2320 C   0  0  0  0  0  0  0  0  0  0  0  0
   39.8990   25.6870   35.2470 C   0  0  0  0  0  0  0  0  0  0  0  0
   40.2290   26.3190   34.0640 C   0  0  0  0  0  0  0  0  0  0  0  0
   39.7450   25.8540   32.8460 C   0  0  0  0  0  0  0  0  0  0  0  0
   38.9160   24.7270   32.8660 C   0  0  0  0  0  0  0  0  0  0  0  0
   38.5710   24.0770   34.0480 C   0  0  0  0  0  0  0  0  0  0  0  0
   37.7350   22.9420   34.0780 N   0  0  0  0  0  0  0  0  0  0  0  0
   37.5070   22.0620   35.0700 C   0  0  0  0  0  0  0  0  0  0  0  0
   36.6400   21.0060   34.8900 C   0  0  0  0  0  0  0  0  0  0  0  0
   36.0010   20.8550   33.6780 C   0  0  0  0  0  0  0  0  0  0  0  0
   35.1240   19.7430   33.5710 N   0  0  0  0  0  0  0  0  0  0  0  0
   36.2360   21.7430   32.6850 N   0  0  0  0  0  0  0  0  0  0  0  0
   37.1000   22.7810   32.8900 C   0  0  0  0  0  0  0  0  0  0  0  0
   37.1880   23.4990   31.8540 O   0  0  0  0  0  0  0  0  0  0  0  0
   39.4810   22.9970   37.2170 C   0  0  0  0  0  0  0  0  0  0  0  0
   38.8000   24.0010   36.5340 C   0  0  0  0  0  0  0  0  0  0  0  0
   37.7880   24.3460   37.3690 N   0  0  0  0  0  0  0  0  0  0  0  0
   37.8700   23.5880   38.4790 C   0  0  0  0  0  0  0  0  0  0  0  0
   38.8840   22.7640   38.4150 N   0  0  0  0  0  0  0  0  0  0  0  0
   42.5730   20.9240   37.0460 C   0  0  0  0  0  0  0  0  0  0  0  0
   41.4540   21.5690   37.5900 C   0  0  0  0  0  0  0  0  0  0  0  0
   40.6740   22.2950   36.7090 C   0  0  0  0  0  0  0  0  0  0  0  0
   41.0230   22.3500   35.3750 N   0  0  0  0  0  0  0  0  0  0  0  0
   42.1230   21.7010   34.9180 C   0  0  0  0  0  0  0  0  0  0  0  0
   42.8880   20.9970   35.7410 N   0  0  0  0  0  0  0  0  0  0  0  0
   40.2909   26.0679   36.2016 H   0  0  0  0  0  0  0  0  0  0  0  0
   40.8839   27.2026   34.0856 H   0  0  0  0  0  0  0  0  0  0  0  0
   40.0045   26.3540   31.9012 H   0  0  0  0  0  0  0  0  0  0  0  0
   38.5228   24.3408   31.9140 H   0  0  0  0  0  0  0  0  0  0  0  0
   38.0185   22.1869   36.0358 H   0  0  0  0  0  0  0  0  0  0  0  0
   36.4596   20.2904   35.7057 H   0  0  0  0  0  0  0  0  0  0  0  0
   34.6145   19.5716   32.6924 H   0  0  0  0  0  0  0  0  0  0  0  0
   34.9975   19.1080   34.3720 H   0  0  0  0  0  0  0  0  0  0  0  0
   37.1748   23.6532   39.3290 H   0  0  0  0  0  0  0  0  0  0  0  0
   39.1713   22.0782   39.1277 H   0  0  0  0  0  0  0  0  0  0  0  0
   43.2192   20.3347   37.7132 H   0  0  0  0  0  0  0  0  0  0  0  0
   41.2094   21.5013   38.6603 H   0  0  0  0  0  0  0  0  0  0  0  0
   42.3837   21.7595   33.8509 H   0  0  0  0  0  0  0  0  0  0  0  0
  1  2  2  0
  1 16  1  0
  3  2  1  0
  4  5  1  0
  4  3  2  0
  5  6  2  0
  6  7  1  0
  6  1  1  0
  7  8  1  0
  9  8  2  0
 10  9  1  0
 11 10  1  0
 12 13  1  0
 12 10  2  0
 13  7  1  0
 14 13  2  0
 15 19  1  0
 16 15  2  0
 16 17  1  0
 17 18  2  0
 19 18  1  0
 20 21  2  0
 22 15  1  0
 22 21  1  0
 23 22  2  0
 24 23  1  0
 24 25  2  0
 25 20  1  0
  2 26  1  0
  3 27  1  0
  4 28  1  0
  5 29  1  0
  8 30  1  0
  9 31  1  0
 11 32  1  0
 11 33  1  0
 18 34  1  0
 19 35  1  0
 20 36  1  0
 21 37  1  0
 24 38  1  0
M  ISO  8  26  14  27  14  28  14  29  14  30  14  31  14  34  14  35   9
M  ISO  3  36  14  37  14  38  14
M  END
>  <minimizedAffinity>  (1) 
-5.89480782

>  <minimizedRMSD>  (1) 
0.869072497

$$$$
