
     RDKit          3D

 29 30  0  0  0  0  0  0  0  0999 V2000
   38.2810   23.7200   37.2040 C   0  0  0  0  0  0  0  0  0  0  0  0
   38.0580   25.7540   34.0270 C   0  0  0  0  0  0  0  0  0  0  0  0
   38.0850   24.6180   34.8560 C   0  0  0  0  0  0  0  0  0  0  0  0
   38.2400   24.8360   36.2450 C   0  0  0  0  0  0  0  0  0  0  0  0
   38.3520   26.1160   36.7030 N   0  0  0  0  0  0  0  0  0  0  0  0
   38.3190   27.1680   35.8650 C   0  0  0  0  0  0  0  0  0  0  0  0
   38.1740   26.9950   34.5350 N   0  0  0  0  0  0  0  0  0  0  0  0
   37.8970   25.5260   32.5750 C   0  0  0  0  0  0  0  0  0  0  0  0
   36.4590   25.8510   32.0700 C   0  0  0  0  0  0  0  0  0  0  0  0
   37.0420   24.4780   32.0240 C   0  0  0  0  0  0  0  0  0  0  0  0
   37.2020   22.7290   36.7990 C   0  0  0  0  0  0  0  0  0  0  0  0
   39.6360   23.0440   37.2720 C   0  0  0  0  0  0  0  0  0  0  0  0
   37.9750   24.2480   38.5960 C   0  0  0  0  0  0  0  0  0  0  0  0
   37.9897   23.6034   34.4418 H   0  0  0  0  0  0  0  0  0  0  0  0
   38.4118   28.1861   36.2711 H   0  0  0  0  0  0  0  0  0  0  0  0
   38.9437   25.7914   32.3651 H   0  0  0  0  0  0  0  0  0  0  0  0
   35.6585   26.0933   32.7844 H   0  0  0  0  0  0  0  0  0  0  0  0
   36.0098   26.5477   31.3469 H   0  0  0  0  0  0  0  0  0  0  0  0
   36.6436   23.7001   32.6919 H   0  0  0  0  0  0  0  0  0  0  0  0
   37.1747   23.7403   31.2189 H   0  0  0  0  0  0  0  0  0  0  0  0
   36.7382   22.3030   37.7009 H   0  0  0  0  0  0  0  0  0  0  0  0
   36.4359   23.2449   36.2015 H   0  0  0  0  0  0  0  0  0  0  0  0
   37.6510   21.9219   36.2015 H   0  0  0  0  0  0  0  0  0  0  0  0
   39.9221   22.9012   38.3245 H   0  0  0  0  0  0  0  0  0  0  0  0
   39.5836   22.0664   36.7704 H   0  0  0  0  0  0  0  0  0  0  0  0
   40.3855   23.6738   36.7704 H   0  0  0  0  0  0  0  0  0  0  0  0
   38.3774   23.5536   39.3482 H   0  0  0  0  0  0  0  0  0  0  0  0
   38.4401   25.2366   38.7236 H   0  0  0  0  0  0  0  0  0  0  0  0
   36.8860   24.3359   38.7236 H   0  0  0  0  0  0  0  0  0  0  0  0
  1 12  1  0
  1 13  1  0
  2  7  1  0
  2  3  2  0
  3  4  1  0
  4  5  2  0
  4  1  1  0
  6  5  1  0
  7  6  2  0
  8  2  1  0
  9  8  1  0
 10  9  1  0
 10  8  1  0
 11  1  1  0
  3 14  1  0
  6 15  1  0
  8 16  1  0
  9 17  1  0
  9 18  1  0
 10 19  1  0
 10 20  1  0
 11 21  1  0
 11 22  1  0
 11 23  1  0
 12 24  1  0
 12 25  1  0
 12 26  1  0
 13 27  1  0
 13 28  1  0
 13 29  1  0
M  ISO  8  14  14  15  14  16  13  17  13  18  13  19  13  20  13  21   8
M  ISO  8  22   8  23   8  24   8  25   8  26   8  27   8  28   8  29   8
M  END
>  <minimizedAffinity>  (1) 
-3.73120761

>  <minimizedRMSD>  (1) 
5.90889692

$$$$
