
     RDKit          3D

 35 38  0  0  0  0  0  0  0  0999 V2000
   39.1220   24.1610   35.1370 C   0  0  0  0  0  0  0  0  0  0  0  0
   40.0280   25.1860   34.9360 C   0  0  0  0  0  0  0  0  0  0  0  0
   40.2760   25.6430   33.6500 C   0  0  0  0  0  0  0  0  0  0  0  0
   39.6220   25.0800   32.5490 C   0  0  0  0  0  0  0  0  0  0  0  0
   38.7270   24.0610   32.7970 C   0  0  0  0  0  0  0  0  0  0  0  0
   38.4670   23.5950   34.0650 C   0  0  0  0  0  0  0  0  0  0  0  0
   39.6600   22.8290   37.2650 C   0  0  0  0  0  0  0  0  0  0  0  0
   38.9410   23.7650   36.5210 C   0  0  0  0  0  0  0  0  0  0  0  0
   38.0020   24.2550   37.3710 N   0  0  0  0  0  0  0  0  0  0  0  0
   38.1650   23.6350   38.5570 C   0  0  0  0  0  0  0  0  0  0  0  0
   39.1560   22.7690   38.5240 N   0  0  0  0  0  0  0  0  0  0  0  0
   42.6420   20.6150   37.1340 C   0  0  0  0  0  0  0  0  0  0  0  0
   41.5870   21.3590   37.6490 C   0  0  0  0  0  0  0  0  0  0  0  0
   40.7770   22.0390   36.7630 C   0  0  0  0  0  0  0  0  0  0  0  0
   41.0520   21.9480   35.4040 N   0  0  0  0  0  0  0  0  0  0  0  0
   42.0940   21.2080   34.9610 C   0  0  0  0  0  0  0  0  0  0  0  0
   42.8830   20.5480   35.8040 N   0  0  0  0  0  0  0  0  0  0  0  0
   37.5310   22.5320   34.3240 C   0  0  0  0  0  0  0  0  0  0  0  0
   36.8890   22.0590   33.1870 C   0  0  0  0  0  0  0  0  0  0  0  0
   35.9580   21.0490   33.2050 C   0  0  0  0  0  0  0  0  0  0  0  0
   35.6180   20.4520   34.3800 N   0  0  0  0  0  0  0  0  0  0  0  0
   36.2620   20.9320   35.4850 C   0  0  0  0  0  0  0  0  0  0  0  0
   37.1760   21.9200   35.4880 N   0  0  0  0  0  0  0  0  0  0  0  0
   40.5501   25.6373   35.7926 H   0  0  0  0  0  0  0  0  0  0  0  0
   40.9967   26.4592   33.4938 H   0  0  0  0  0  0  0  0  0  0  0  0
   39.8141   25.4361   31.5261 H   0  0  0  0  0  0  0  0  0  0  0  0
   38.1999   23.6024   31.9473 H   0  0  0  0  0  0  0  0  0  0  0  0
   37.5451   23.8292   39.4447 H   0  0  0  0  0  0  0  0  0  0  0  0
   39.4820   22.1691   39.2952 H   0  0  0  0  0  0  0  0  0  0  0  0
   43.2982   20.0663   37.8256 H   0  0  0  0  0  0  0  0  0  0  0  0
   41.4030   21.4044   38.7326 H   0  0  0  0  0  0  0  0  0  0  0  0
   42.2930   21.1509   33.8807 H   0  0  0  0  0  0  0  0  0  0  0  0
   37.1396   22.5181   32.2193 H   0  0  0  0  0  0  0  0  0  0  0  0
   35.4858   20.7217   32.2669 H   0  0  0  0  0  0  0  0  0  0  0  0
   36.0128   20.4728   36.4530 H   0  0  0  0  0  0  0  0  0  0  0  0
  1  8  1  0
  2  1  2  0
  3  2  1  0
  4  5  1  0
  4  3  2  0
  5  6  2  0
  6 18  1  0
  6  1  1  0
  7 11  1  0
  8  7  2  0
  8  9  1  0
  9 10  2  0
 11 10  1  0
 12 13  2  0
 14  7  1  0
 14 13  1  0
 15 14  2  0
 16 15  1  0
 16 17  2  0
 17 12  1  0
 18 23  2  0
 19 20  2  0
 19 18  1  0
 20 21  1  0
 21 22  2  0
 22 23  1  0
  2 24  1  0
  3 25  1  0
  4 26  1  0
  5 27  1  0
 10 28  1  0
 11 29  1  0
 12 30  1  0
 13 31  1  0
 16 32  1  0
 19 33  1  0
 20 34  1  0
 22 35  1  0
M  ISO  8  24  14  25  14  26  14  27  14  28  14  29   9  30  14  31  14
M  ISO  4  32  14  33  14  34  14  35  14
M  END
>  <minimizedAffinity>  (1) 
-5.51456976

>  <minimizedRMSD>  (1) 
0.414886117

$$$$
