
     RDKit          3D

 34 37  0  0  0  0  0  0  0  0999 V2000
   38.6660   23.8500   34.9920 C   0  0  0  0  0  0  0  0  0  0  0  0
   39.5090   24.8890   34.6320 C   0  0  0  0  0  0  0  0  0  0  0  0
   39.6390   25.2330   33.2980 C   0  0  0  0  0  0  0  0  0  0  0  0
   38.9360   24.5530   32.3010 C   0  0  0  0  0  0  0  0  0  0  0  0
   38.1100   23.5270   32.7140 C   0  0  0  0  0  0  0  0  0  0  0  0
   37.9580   23.1610   34.0340 C   0  0  0  0  0  0  0  0  0  0  0  0
   39.4570   22.8030   37.2020 C   0  0  0  0  0  0  0  0  0  0  0  0
   38.6130   23.5840   36.4140 C   0  0  0  0  0  0  0  0  0  0  0  0
   37.6840   24.0740   37.2840 N   0  0  0  0  0  0  0  0  0  0  0  0
   37.9680   23.6070   38.5110 C   0  0  0  0  0  0  0  0  0  0  0  0
   39.0340   22.8360   38.4940 N   0  0  0  0  0  0  0  0  0  0  0  0
   42.5670   20.7590   37.0670 C   0  0  0  0  0  0  0  0  0  0  0  0
   41.4700   21.4510   37.6000 C   0  0  0  0  0  0  0  0  0  0  0  0
   40.6190   22.0690   36.6940 C   0  0  0  0  0  0  0  0  0  0  0  0
   40.8790   21.9800   35.3460 N   0  0  0  0  0  0  0  0  0  0  0  0
   41.9620   21.2910   34.9040 C   0  0  0  0  0  0  0  0  0  0  0  0
   42.7930   20.6930   35.7470 N   0  0  0  0  0  0  0  0  0  0  0  0
   37.0950   22.0910   34.4470 C   0  0  0  0  0  0  0  0  0  0  0  0
   36.4060   21.3620   33.4720 C   0  0  0  0  0  0  0  0  0  0  0  0
   35.6460   20.3960   34.0960 C   0  0  0  0  0  0  0  0  0  0  0  0
   35.8760   20.5440   35.4130 N   0  0  0  0  0  0  0  0  0  0  0  0
   36.7390   21.5550   35.6070 N   0  0  0  0  0  0  0  0  0  0  0  0
   40.0716   25.4372   35.4021 H   0  0  0  0  0  0  0  0  0  0  0  0
   40.3095   26.0586   33.0172 H   0  0  0  0  0  0  0  0  0  0  0  0
   39.0356   24.8218   31.2390 H   0  0  0  0  0  0  0  0  0  0  0  0
   37.5441   22.9732   31.9504 H   0  0  0  0  0  0  0  0  0  0  0  0
   37.3843   23.8393   39.4140 H   0  0  0  0  0  0  0  0  0  0  0  0
   39.4620   22.3543   39.2976 H   0  0  0  0  0  0  0  0  0  0  0  0
   43.2636   20.2548   37.7529 H   0  0  0  0  0  0  0  0  0  0  0  0
   41.2923   21.5017   38.6844 H   0  0  0  0  0  0  0  0  0  0  0  0
   42.1545   21.2273   33.8228 H   0  0  0  0  0  0  0  0  0  0  0  0
   36.4615   21.5316   32.3866 H   0  0  0  0  0  0  0  0  0  0  0  0
   34.9876   19.6569   33.6162 H   0  0  0  0  0  0  0  0  0  0  0  0
   35.4552   19.9705   36.1580 H   0  0  0  0  0  0  0  0  0  0  0  0
  1  8  1  0
  2  1  2  0
  3  2  1  0
  4  5  1  0
  4  3  2  0
  5  6  2  0
  6 18  1  0
  6  1  1  0
  7 11  1  0
  8  7  2  0
  8  9  1  0
  9 10  2  0
 11 10  1  0
 12 13  2  0
 14  7  1  0
 14 13  1  0
 15 14  2  0
 16 15  1  0
 16 17  2  0
 17 12  1  0
 18 22  2  0
 19 20  2  0
 19 18  1  0
 20 21  1  0
 21 22  1  0
  2 23  1  0
  3 24  1  0
  4 25  1  0
  5 26  1  0
 10 27  1  0
 11 28  1  0
 12 29  1  0
 13 30  1  0
 16 31  1  0
 19 32  1  0
 20 33  1  0
 21 34  1  0
M  ISO  8  23  14  24  14  25  14  26  14  27  14  28   9  29  14  30  14
M  ISO  4  31  14  32  14  33  14  34   9
M  END
>  <minimizedAffinity>  (1) 
-5.45122337

>  <minimizedRMSD>  (1) 
0.423992604

$$$$
