
     RDKit          3D

 34 37  0  0  0  0  0  0  0  0999 V2000
   38.8390   24.1340   35.1400 C   0  0  0  0  0  0  0  0  0  0  0  0
   39.6710   25.2040   34.8870 C   0  0  0  0  0  0  0  0  0  0  0  0
   39.8440   25.6500   33.5930 C   0  0  0  0  0  0  0  0  0  0  0  0
   39.1840   25.0300   32.5270 C   0  0  0  0  0  0  0  0  0  0  0  0
   38.3590   23.9610   32.8160 C   0  0  0  0  0  0  0  0  0  0  0  0
   38.1790   23.5080   34.1010 C   0  0  0  0  0  0  0  0  0  0  0  0
   39.5090   22.8780   37.2700 C   0  0  0  0  0  0  0  0  0  0  0  0
   38.7360   23.7550   36.5390 C   0  0  0  0  0  0  0  0  0  0  0  0
   37.8170   24.2200   37.4200 N   0  0  0  0  0  0  0  0  0  0  0  0
   38.0420   23.6430   38.6060 C   0  0  0  0  0  0  0  0  0  0  0  0
   39.0630   22.8220   38.5510 N   0  0  0  0  0  0  0  0  0  0  0  0
   42.5670   20.7660   37.0400 C   0  0  0  0  0  0  0  0  0  0  0  0
   41.5040   21.4690   37.6130 C   0  0  0  0  0  0  0  0  0  0  0  0
   40.6460   22.1220   36.7250 C   0  0  0  0  0  0  0  0  0  0  0  0
   40.8880   22.0410   35.3700 N   0  0  0  0  0  0  0  0  0  0  0  0
   41.9360   21.3440   34.8910 C   0  0  0  0  0  0  0  0  0  0  0  0
   42.7790   20.7060   35.7210 N   0  0  0  0  0  0  0  0  0  0  0  0
   37.3380   22.4110   34.4420 N   0  0  0  0  0  0  0  0  0  0  0  0
   36.6970   21.8400   33.4100 N   0  0  0  0  0  0  0  0  0  0  0  0
   35.9360   20.8200   33.8480 C   0  0  0  0  0  0  0  0  0  0  0  0
   36.1010   20.7360   35.2340 C   0  0  0  0  0  0  0  0  0  0  0  0
   36.9790   21.7450   35.5480 C   0  0  0  0  0  0  0  0  0  0  0  0
   40.1961   25.7013   35.7158 H   0  0  0  0  0  0  0  0  0  0  0  0
   40.5093   26.5038   33.3972 H   0  0  0  0  0  0  0  0  0  0  0  0
   39.3176   25.3820   31.4934 H   0  0  0  0  0  0  0  0  0  0  0  0
   37.8303   23.4572   31.9934 H   0  0  0  0  0  0  0  0  0  0  0  0
   37.4467   23.8330   39.5113 H   0  0  0  0  0  0  0  0  0  0  0  0
   39.4466   22.2533   39.3194 H   0  0  0  0  0  0  0  0  0  0  0  0
   43.2634   20.2361   37.7064 H   0  0  0  0  0  0  0  0  0  0  0  0
   41.3515   21.5061   38.7017 H   0  0  0  0  0  0  0  0  0  0  0  0
   42.1045   21.2961   33.8050 H   0  0  0  0  0  0  0  0  0  0  0  0
   35.3000   20.1706   33.2285 H   0  0  0  0  0  0  0  0  0  0  0  0
   35.6305   20.0187   35.9226 H   0  0  0  0  0  0  0  0  0  0  0  0
   37.3364   21.9736   36.5629 H   0  0  0  0  0  0  0  0  0  0  0  0
  1  8  1  0
  2  1  2  0
  3  2  1  0
  4  5  1  0
  4  3  2  0
  5  6  2  0
  6 18  1  0
  6  1  1  0
  7 11  1  0
  8  7  2  0
  8  9  1  0
  9 10  2  0
 11 10  1  0
 12 13  2  0
 14  7  1  0
 14 13  1  0
 15 14  2  0
 16 15  1  0
 16 17  2  0
 17 12  1  0
 18 22  1  0
 19 20  2  0
 19 18  1  0
 20 21  1  0
 21 22  2  0
  2 23  1  0
  3 24  1  0
  4 25  1  0
  5 26  1  0
 10 27  1  0
 11 28  1  0
 12 29  1  0
 13 30  1  0
 16 31  1  0
 20 32  1  0
 21 33  1  0
 22 34  1  0
M  ISO  8  23  14  24  14  25  14  26  14  27  14  28   9  29  14  30  14
M  ISO  4  31  14  32  14  33  14  34  14
M  END
>  <minimizedAffinity>  (1) 
-5.34396505

>  <minimizedRMSD>  (1) 
0.348030567

$$$$
