
     RDKit          3D

 34 37  0  0  0  0  0  0  0  0999 V2000
   39.4840   23.2080   37.2100 C   0  0  0  0  0  0  0  0  0  0  0  0
   38.7360   24.1490   36.5010 C   0  0  0  0  0  0  0  0  0  0  0  0
   37.5600   24.2230   37.1890 N   0  0  0  0  0  0  0  0  0  0  0  0
   37.6230   23.3800   38.2270 C   0  0  0  0  0  0  0  0  0  0  0  0
   38.7690   22.7550   38.2660 N   0  0  0  0  0  0  0  0  0  0  0  0
   39.0760   24.9010   35.3110 C   0  0  0  0  0  0  0  0  0  0  0  0
   39.7060   26.1030   35.5390 C   0  0  0  0  0  0  0  0  0  0  0  0
   40.0790   26.9110   34.4830 C   0  0  0  0  0  0  0  0  0  0  0  0
   39.8260   26.5220   33.1700 C   0  0  0  0  0  0  0  0  0  0  0  0
   39.1920   25.3100   32.9770 C   0  0  0  0  0  0  0  0  0  0  0  0
   38.8100   24.4870   34.0240 C   0  0  0  0  0  0  0  0  0  0  0  0
   38.1580   23.2380   33.8340 N   0  0  0  0  0  0  0  0  0  0  0  0
   38.1520   21.9940   34.3280 C   0  0  0  0  0  0  0  0  0  0  0  0
   37.2090   21.2680   33.6180 C   0  0  0  0  0  0  0  0  0  0  0  0
   36.6460   22.0860   32.6910 N   0  0  0  0  0  0  0  0  0  0  0  0
   37.2340   23.2870   32.8340 C   0  0  0  0  0  0  0  0  0  0  0  0
   42.5770   21.1900   36.8430 C   0  0  0  0  0  0  0  0  0  0  0  0
   41.2820   21.5350   37.2230 C   0  0  0  0  0  0  0  0  0  0  0  0
   40.8500   22.7990   36.8280 C   0  0  0  0  0  0  0  0  0  0  0  0
   41.6820   23.6210   36.1090 N   0  0  0  0  0  0  0  0  0  0  0  0
   42.9320   23.2090   35.7780 C   0  0  0  0  0  0  0  0  0  0  0  0
   43.3750   22.0040   36.1430 N   0  0  0  0  0  0  0  0  0  0  0  0
   36.8119   23.2324   38.9552 H   0  0  0  0  0  0  0  0  0  0  0  0
   39.0688   22.0569   38.9614 H   0  0  0  0  0  0  0  0  0  0  0  0
   39.9142   26.4228   36.5707 H   0  0  0  0  0  0  0  0  0  0  0  0
   40.5802   27.8700   34.6807 H   0  0  0  0  0  0  0  0  0  0  0  0
   40.1196   27.1552   32.3197 H   0  0  0  0  0  0  0  0  0  0  0  0
   38.9814   24.9843   31.9477 H   0  0  0  0  0  0  0  0  0  0  0  0
   38.7808   21.6168   35.1479 H   0  0  0  0  0  0  0  0  0  0  0  0
   36.9588   20.2088   33.7779 H   0  0  0  0  0  0  0  0  0  0  0  0
   37.0028   24.1781   32.2319 H   0  0  0  0  0  0  0  0  0  0  0  0
   42.9618   20.2010   37.1324 H   0  0  0  0  0  0  0  0  0  0  0  0
   40.6405   20.8519   37.7991 H   0  0  0  0  0  0  0  0  0  0  0  0
   43.5887   23.8769   35.2013 H   0  0  0  0  0  0  0  0  0  0  0  0
  1  5  1  0
  2  3  1  0
  2  1  2  0
  3  4  2  0
  4  5  1  0
  6  7  2  0
  6  2  1  0
  8  7  1  0
  9  8  2  0
 10  9  1  0
 10 11  2  0
 11  6  1  0
 12 11  1  0
 12 13  1  0
 14 13  2  0
 15 16  2  0
 15 14  1  0
 16 12  1  0
 17 18  2  0
 19  1  1  0
 19 18  1  0
 20 19  2  0
 21 20  1  0
 21 22  2  0
 22 17  1  0
  4 23  1  0
  5 24  1  0
  7 25  1  0
  8 26  1  0
  9 27  1  0
 10 28  1  0
 13 29  1  0
 14 30  1  0
 16 31  1  0
 17 32  1  0
 18 33  1  0
 21 34  1  0
M  ISO  8  23  14  24   9  25  14  26  14  27  14  28  14  29  14  30  14
M  ISO  4  31  14  32  14  33  14  34  14
M  END
>  <minimizedAffinity>  (1) 
-5.29683685

>  <minimizedRMSD>  (1) 
1.32748628

$$$$
