
     RDKit          3D

 31 31  0  0  0  0  0  0  0  0999 V2000
   38.7280   23.2050   36.3020 C   0  0  0  0  0  0  0  0  0  0  0  0
   40.1830   26.4060   34.9460 C   0  0  0  0  0  0  0  0  0  0  0  0
   40.0630   25.0350   35.2180 C   0  0  0  0  0  0  0  0  0  0  0  0
   38.9500   24.6080   35.9630 C   0  0  0  0  0  0  0  0  0  0  0  0
   38.0520   25.5410   36.3780 N   0  0  0  0  0  0  0  0  0  0  0  0
   38.2080   26.8480   36.0930 C   0  0  0  0  0  0  0  0  0  0  0  0
   39.2650   27.2840   35.3820 N   0  0  0  0  0  0  0  0  0  0  0  0
   41.3590   26.8500   34.1590 C   0  0  0  0  0  0  0  0  0  0  0  0
   40.9760   27.2200   32.7390 C   0  0  0  0  0  0  0  0  0  0  0  0
   42.3590   25.7400   34.0970 C   0  0  0  0  0  0  0  0  0  0  0  0
   39.9430   22.7330   37.1100 C   0  0  0  0  0  0  0  0  0  0  0  0
   37.4450   22.9580   37.0760 C   0  0  0  0  0  0  0  0  0  0  0  0
   38.6430   22.3800   35.0320 C   0  0  0  0  0  0  0  0  0  0  0  0
   40.8156   24.3172   34.8598 H   0  0  0  0  0  0  0  0  0  0  0  0
   37.4591   27.5717   36.4471 H   0  0  0  0  0  0  0  0  0  0  0  0
   41.7780   27.7372   34.6563 H   0  0  0  0  0  0  0  0  0  0  0  0
   40.1850   27.9841   32.7599 H   0  0  0  0  0  0  0  0  0  0  0  0
   41.8566   27.6181   32.2136 H   0  0  0  0  0  0  0  0  0  0  0  0
   40.6086   26.3262   32.2136 H   0  0  0  0  0  0  0  0  0  0  0  0
   42.6330   25.4359   35.1180 H   0  0  0  0  0  0  0  0  0  0  0  0
   41.9225   24.8826   33.5637 H   0  0  0  0  0  0  0  0  0  0  0  0
   43.2571   26.0849   33.5637 H   0  0  0  0  0  0  0  0  0  0  0  0
   39.7242   22.8180   38.1847 H   0  0  0  0  0  0  0  0  0  0  0  0
   40.1629   21.6840   36.8625 H   0  0  0  0  0  0  0  0  0  0  0  0
   40.8134   23.3584   36.8625 H   0  0  0  0  0  0  0  0  0  0  0  0
   37.6543   22.9983   38.1552 H   0  0  0  0  0  0  0  0  0  0  0  0
   36.7059   23.7303   36.8167 H   0  0  0  0  0  0  0  0  0  0  0  0
   37.0455   21.9664   36.8167 H   0  0  0  0  0  0  0  0  0  0  0  0
   38.5335   21.3168   35.2921 H   0  0  0  0  0  0  0  0  0  0  0  0
   37.7735   22.7045   34.4415 H   0  0  0  0  0  0  0  0  0  0  0  0
   39.5604   22.5204   34.4415 H   0  0  0  0  0  0  0  0  0  0  0  0
  1 12  1  0
  1 11  1  0
  2  3  2  0
  2  7  1  0
  3  4  1  0
  4  1  1  0
  4  5  2  0
  6  5  1  0
  7  6  2  0
  8  2  1  0
  9  8  1  0
 10  8  1  0
 13  1  1  0
  3 14  1  0
  6 15  1  0
  8 16  1  0
  9 17  1  0
  9 18  1  0
  9 19  1  0
 10 20  1  0
 10 21  1  0
 10 22  1  0
 11 23  1  0
 11 24  1  0
 11 25  1  0
 12 26  1  0
 12 27  1  0
 12 28  1  0
 13 29  1  0
 13 30  1  0
 13 31  1  0
M  ISO  8  14  14  15  14  16   8  17   8  18   8  19   8  20   8  21   8
M  ISO  8  22   8  23   8  24   8  25   8  26   8  27   8  28   8  29   8
M  ISO  2  30   8  31   8
M  END
>  <minimizedAffinity>  (1) 
-3.69834399

>  <minimizedRMSD>  (1) 
4.96391106

$$$$
