
     RDKit          3D

 33 36  0  0  0  0  0  0  0  0999 V2000
   39.5040   22.8580   37.1580 C   0  0  0  0  0  0  0  0  0  0  0  0
   38.8880   23.8840   36.4610 C   0  0  0  0  0  0  0  0  0  0  0  0
   37.8640   24.2640   37.2640 N   0  0  0  0  0  0  0  0  0  0  0  0
   37.8760   23.5090   38.3640 C   0  0  0  0  0  0  0  0  0  0  0  0
   38.8610   22.6420   38.3340 N   0  0  0  0  0  0  0  0  0  0  0  0
   39.2290   24.4570   35.1610 C   0  0  0  0  0  0  0  0  0  0  0  0
   40.1110   25.5040   35.2010 C   0  0  0  0  0  0  0  0  0  0  0  0
   40.4990   26.1160   34.0260 C   0  0  0  0  0  0  0  0  0  0  0  0
   40.0030   25.6810   32.7940 C   0  0  0  0  0  0  0  0  0  0  0  0
   39.1180   24.6250   32.7990 C   0  0  0  0  0  0  0  0  0  0  0  0
   38.7110   23.9930   33.9600 C   0  0  0  0  0  0  0  0  0  0  0  0
   37.7700   22.8680   33.9830 C   0  0  0  0  0  0  0  0  0  0  0  0
   37.0270   22.3630   32.8380 C   0  0  0  0  0  0  0  0  0  0  0  0
   36.0800   20.9920   33.5840 S   0  0  0  0  0  0  0  0  0  0  0  0
   36.8350   21.3250   35.2970 C   0  0  0  0  0  0  0  0  0  0  0  0
   37.5310   22.2150   35.1030 N   0  0  0  0  0  0  0  0  0  0  0  0
   42.6160   20.8070   37.1080 C   0  0  0  0  0  0  0  0  0  0  0  0
   41.5090   21.4970   37.6010 C   0  0  0  0  0  0  0  0  0  0  0  0
   40.6830   22.1200   36.6800 C   0  0  0  0  0  0  0  0  0  0  0  0
   40.9880   22.0310   35.3340 N   0  0  0  0  0  0  0  0  0  0  0  0
   42.0860   21.3410   34.9240 C   0  0  0  0  0  0  0  0  0  0  0  0
   42.8930   20.7350   35.7990 N   0  0  0  0  0  0  0  0  0  0  0  0
   37.1542   23.6012   39.1889 H   0  0  0  0  0  0  0  0  0  0  0  0
   39.0970   21.9432   39.0530 H   0  0  0  0  0  0  0  0  0  0  0  0
   40.5083   25.8555   36.1646 H   0  0  0  0  0  0  0  0  0  0  0  0
   41.2076   26.9567   34.0599 H   0  0  0  0  0  0  0  0  0  0  0  0
   40.3082   26.1643   31.8541 H   0  0  0  0  0  0  0  0  0  0  0  0
   38.7179   24.2692   31.8381 H   0  0  0  0  0  0  0  0  0  0  0  0
   37.0341   22.7152   31.7959 H   0  0  0  0  0  0  0  0  0  0  0  0
   36.6495   20.7939   36.2423 H   0  0  0  0  0  0  0  0  0  0  0  0
   43.2865   20.3033   37.8199 H   0  0  0  0  0  0  0  0  0  0  0  0
   41.2998   21.5447   38.6799 H   0  0  0  0  0  0  0  0  0  0  0  0
   42.3142   21.2808   33.8496 H   0  0  0  0  0  0  0  0  0  0  0  0
  1  5  1  0
  2  1  2  0
  2  3  1  0
  3  4  2  0
  5  4  1  0
  6  7  2  0
  6  2  1  0
  8  7  1  0
  9 10  1  0
  9  8  2  0
 10 11  2  0
 11 12  1  0
 11  6  1  0
 12 16  1  0
 13 14  1  0
 13 12  2  0
 14 15  1  0
 16 15  2  0
 17 18  2  0
 19  1  1  0
 19 18  1  0
 20 19  2  0
 21 20  1  0
 21 22  2  0
 22 17  1  0
  4 23  1  0
  5 24  1  0
  7 25  1  0
  8 26  1  0
  9 27  1  0
 10 28  1  0
 13 29  1  0
 15 30  1  0
 17 31  1  0
 18 32  1  0
 21 33  1  0
M  ISO  8  23  14  24   9  25  14  26  14  27  14  28  14  29  14  30  14
M  ISO  3  31  14  32  14  33  14
M  END
>  <minimizedAffinity>  (1) 
-5.08296394

>  <minimizedRMSD>  (1) 
0.741307914

$$$$
