
     RDKit          3D

 34 37  0  0  0  0  0  0  0  0999 V2000
   39.6440   23.0670   37.4690 C   0  0  0  0  0  0  0  0  0  0  0  0
   38.8140   23.8220   36.6640 C   0  0  0  0  0  0  0  0  0  0  0  0
   37.6740   23.9860   37.3940 N   0  0  0  0  0  0  0  0  0  0  0  0
   37.8350   23.3540   38.5720 C   0  0  0  0  0  0  0  0  0  0  0  0
   39.0200   22.7840   38.6530 N   0  0  0  0  0  0  0  0  0  0  0  0
   39.0460   24.3540   35.3260 C   0  0  0  0  0  0  0  0  0  0  0  0
   39.3390   25.7130   35.3030 C   0  0  0  0  0  0  0  0  0  0  0  0
   39.5760   26.3350   34.0940 C   0  0  0  0  0  0  0  0  0  0  0  0
   39.5270   25.6270   32.9010 C   0  0  0  0  0  0  0  0  0  0  0  0
   39.2320   24.2740   32.9760 C   0  0  0  0  0  0  0  0  0  0  0  0
   38.9850   23.6040   34.1740 C   0  0  0  0  0  0  0  0  0  0  0  0
   38.6630   22.1680   34.2460 C   0  0  0  0  0  0  0  0  0  0  0  0
   38.3370   21.3400   33.0860 C   0  0  0  0  0  0  0  0  0  0  0  0
   37.2210   21.7280   33.9990 C   0  0  0  0  0  0  0  0  0  0  0  0
   42.6480   20.9390   36.9160 C   0  0  0  0  0  0  0  0  0  0  0  0
   41.3580   21.3250   37.2960 C   0  0  0  0  0  0  0  0  0  0  0  0
   40.9840   22.6360   37.0980 C   0  0  0  0  0  0  0  0  0  0  0  0
   41.9000   23.5040   36.5350 N   0  0  0  0  0  0  0  0  0  0  0  0
   43.1360   23.0790   36.1840 C   0  0  0  0  0  0  0  0  0  0  0  0
   43.5110   21.8140   36.3700 N   0  0  0  0  0  0  0  0  0  0  0  0
   37.0741   23.3182   39.3656 H   0  0  0  0  0  0  0  0  0  0  0  0
   39.3973   22.2397   39.4419 H   0  0  0  0  0  0  0  0  0  0  0  0
   39.3815   26.2873   36.2402 H   0  0  0  0  0  0  0  0  0  0  0  0
   39.8077   27.4102   34.0754 H   0  0  0  0  0  0  0  0  0  0  0  0
   39.7146   26.1192   31.9353 H   0  0  0  0  0  0  0  0  0  0  0  0
   39.1906   23.6980   32.0398 H   0  0  0  0  0  0  0  0  0  0  0  0
   39.4155   22.0726   35.0427 H   0  0  0  0  0  0  0  0  0  0  0  0
   38.6737   20.2933   33.0533 H   0  0  0  0  0  0  0  0  0  0  0  0
   38.5088   21.4386   32.0040 H   0  0  0  0  0  0  0  0  0  0  0  0
   36.4651   22.4580   33.6738 H   0  0  0  0  0  0  0  0  0  0  0  0
   36.4481   21.1955   34.5727 H   0  0  0  0  0  0  0  0  0  0  0  0
   42.9635   19.8961   37.0673 H   0  0  0  0  0  0  0  0  0  0  0  0
   40.6604   20.6004   37.7414 H   0  0  0  0  0  0  0  0  0  0  0  0
   43.8446   23.7915   35.7366 H   0  0  0  0  0  0  0  0  0  0  0  0
  1  5  1  0
  2  3  1  0
  2  1  2  0
  3  4  2  0
  4  5  1  0
  6  2  1  0
  7  6  2  0
  8  7  1  0
  9 10  1  0
  9  8  2  0
 10 11  2  0
 11 12  1  0
 11  6  1  0
 13 14  1  0
 13 12  1  0
 14 12  1  0
 15 16  2  0
 17 16  1  0
 17  1  1  0
 18 17  2  0
 19 20  2  0
 19 18  1  0
 20 15  1  0
  4 21  1  0
  5 22  1  0
  7 23  1  0
  8 24  1  0
  9 25  1  0
 10 26  1  0
 12 27  1  0
 13 28  1  0
 13 29  1  0
 14 30  1  0
 14 31  1  0
 15 32  1  0
 16 33  1  0
 19 34  1  0
M  ISO  8  21  14  22   9  23  14  24  14  25  14  26  14  27  13  28  13
M  ISO  6  29  13  30  13  31  13  32  14  33  14  34  14
M  END
>  <minimizedAffinity>  (1) 
-5.02705526

>  <minimizedRMSD>  (1) 
1.18059003

$$$$
