
     RDKit          3D

 29 31  0  0  0  0  0  0  0  0999 V2000
   39.4750   22.8630   37.3060 C   0  0  0  0  0  0  0  0  0  0  0  0
   38.6310   23.6810   36.5780 C   0  0  0  0  0  0  0  0  0  0  0  0
   37.7040   24.1190   37.4640 N   0  0  0  0  0  0  0  0  0  0  0  0
   37.9960   23.5770   38.6660 C   0  0  0  0  0  0  0  0  0  0  0  0
   39.0630   22.8120   38.6020 N   0  0  0  0  0  0  0  0  0  0  0  0
   38.6780   24.0290   35.1730 C   0  0  0  0  0  0  0  0  0  0  0  0
   39.3300   25.2190   34.8860 C   0  0  0  0  0  0  0  0  0  0  0  0
   39.4330   25.6490   33.5690 C   0  0  0  0  0  0  0  0  0  0  0  0
   38.9010   24.9210   32.5270 C   0  0  0  0  0  0  0  0  0  0  0  0
   38.2510   23.7290   32.8490 C   0  0  0  0  0  0  0  0  0  0  0  0
   38.1390   23.2860   34.1450 C   0  0  0  0  0  0  0  0  0  0  0  0
   37.4660   22.0460   34.4980 C   0  0  0  0  0  0  0  0  0  0  0  0
   36.7410   21.4910   33.6340 O   0  0  0  0  0  0  0  0  0  0  0  0
   42.5720   20.7990   37.0320 C   0  0  0  0  0  0  0  0  0  0  0  0
   41.4760   21.4520   37.6030 C   0  0  0  0  0  0  0  0  0  0  0  0
   40.6440   22.1590   36.7450 C   0  0  0  0  0  0  0  0  0  0  0  0
   40.9270   22.1860   35.4000 N   0  0  0  0  0  0  0  0  0  0  0  0
   42.0070   21.5290   34.9150 C   0  0  0  0  0  0  0  0  0  0  0  0
   42.8130   20.8500   35.7160 N   0  0  0  0  0  0  0  0  0  0  0  0
   37.4144   23.7534   39.5828 H   0  0  0  0  0  0  0  0  0  0  0  0
   39.4970   22.2838   39.3725 H   0  0  0  0  0  0  0  0  0  0  0  0
   39.7641   25.8203   35.6984 H   0  0  0  0  0  0  0  0  0  0  0  0
   39.9522   26.5943   33.3526 H   0  0  0  0  0  0  0  0  0  0  0  0
   38.9852   25.2649   31.4855 H   0  0  0  0  0  0  0  0  0  0  0  0
   37.8145   23.1249   32.0400 H   0  0  0  0  0  0  0  0  0  0  0  0
   37.5886   21.6041   35.4978 H   0  0  0  0  0  0  0  0  0  0  0  0
   43.2537   20.2288   37.6802 H   0  0  0  0  0  0  0  0  0  0  0  0
   41.2811   21.4078   38.6847 H   0  0  0  0  0  0  0  0  0  0  0  0
   42.2184   21.5600   33.8360 H   0  0  0  0  0  0  0  0  0  0  0  0
  1  5  1  0
  2  1  2  0
  2  3  1  0
  3  4  2  0
  5  4  1  0
  6  2  1  0
  7  6  2  0
  8  7  1  0
  9 10  1  0
  9  8  2  0
 10 11  2  0
 11 12  1  0
 11  6  1  0
 13 12  2  0
 14 15  2  0
 16  1  1  0
 16 15  1  0
 17 16  2  0
 18 17  1  0
 18 19  2  0
 19 14  1  0
  4 20  1  0
  5 21  1  0
  7 22  1  0
  8 23  1  0
  9 24  1  0
 10 25  1  0
 12 26  1  0
 14 27  1  0
 15 28  1  0
 18 29  1  0
M  ISO  8  20  14  21   9  22  14  23  14  24  14  25  14  26   6  27  14
M  ISO  2  28  14  29  14
M  END
>  <minimizedAffinity>  (1) 
-4.82828808

>  <minimizedRMSD>  (1) 
0.184480608

$$$$
