
     RDKit          3D

 30 32  0  0  0  0  0  0  0  0999 V2000
   39.4800   22.8690   37.3020 C   0  0  0  0  0  0  0  0  0  0  0  0
   38.6490   23.6950   36.5810 C   0  0  0  0  0  0  0  0  0  0  0  0
   37.7180   24.1260   37.4780 N   0  0  0  0  0  0  0  0  0  0  0  0
   38.0030   23.5710   38.6700 C   0  0  0  0  0  0  0  0  0  0  0  0
   39.0670   22.8030   38.5990 N   0  0  0  0  0  0  0  0  0  0  0  0
   38.6990   24.0620   35.1740 C   0  0  0  0  0  0  0  0  0  0  0  0
   39.3410   25.2420   34.9010 C   0  0  0  0  0  0  0  0  0  0  0  0
   39.4400   25.6770   33.5920 C   0  0  0  0  0  0  0  0  0  0  0  0
   38.9030   24.9440   32.5450 C   0  0  0  0  0  0  0  0  0  0  0  0
   38.2560   23.7470   32.8550 C   0  0  0  0  0  0  0  0  0  0  0  0
   38.1440   23.2930   34.1470 C   0  0  0  0  0  0  0  0  0  0  0  0
   37.4690   22.0420   34.4940 C   0  0  0  0  0  0  0  0  0  0  0  0
   42.5660   20.7970   37.0350 C   0  0  0  0  0  0  0  0  0  0  0  0
   41.4680   21.4570   37.5990 C   0  0  0  0  0  0  0  0  0  0  0  0
   40.6420   22.1650   36.7550 C   0  0  0  0  0  0  0  0  0  0  0  0
   40.9250   22.2000   35.3930 N   0  0  0  0  0  0  0  0  0  0  0  0
   42.0030   21.5420   34.9060 C   0  0  0  0  0  0  0  0  0  0  0  0
   42.8210   20.8460   35.7050 N   0  0  0  0  0  0  0  0  0  0  0  0
   37.4196   23.7388   39.5873 H   0  0  0  0  0  0  0  0  0  0  0  0
   39.4984   22.2641   39.3635 H   0  0  0  0  0  0  0  0  0  0  0  0
   39.7743   25.8386   35.7173 H   0  0  0  0  0  0  0  0  0  0  0  0
   39.9557   26.6246   33.3770 H   0  0  0  0  0  0  0  0  0  0  0  0
   38.9841   25.2940   31.5053 H   0  0  0  0  0  0  0  0  0  0  0  0
   37.8224   23.1487   32.0401 H   0  0  0  0  0  0  0  0  0  0  0  0
   37.4166   21.9450   35.5885 H   0  0  0  0  0  0  0  0  0  0  0  0
   36.4510   22.0468   34.0772 H   0  0  0  0  0  0  0  0  0  0  0  0
   38.0319   21.1938   34.0772 H   0  0  0  0  0  0  0  0  0  0  0  0
   43.2396   20.2234   37.6886 H   0  0  0  0  0  0  0  0  0  0  0  0
   41.2716   21.4116   38.6804 H   0  0  0  0  0  0  0  0  0  0  0  0
   42.2121   21.5802   33.8267 H   0  0  0  0  0  0  0  0  0  0  0  0
  1  5  1  0
  2  1  2  0
  2  3  1  0
  3  4  2  0
  5  4  1  0
  6  2  1  0
  7  6  2  0
  8  7  1  0
  9 10  1  0
  9  8  2  0
 10 11  2  0
 11 12  1  0
 11  6  1  0
 13 14  2  0
 15  1  1  0
 15 14  1  0
 16 15  2  0
 17 16  1  0
 17 18  2  0
 18 13  1  0
  4 19  1  0
  5 20  1  0
  7 21  1  0
  8 22  1  0
  9 23  1  0
 10 24  1  0
 12 25  1  0
 12 26  1  0
 12 27  1  0
 13 28  1  0
 14 29  1  0
 17 30  1  0
M  ISO  8  19  14  20   9  21  14  22  14  23  14  24  14  25   8  26   8
M  ISO  4  27   8  28  14  29  14  30  14
M  END
>  <minimizedAffinity>  (1) 
-4.87151337

>  <minimizedRMSD>  (1) 
0.16916129

$$$$
