
     RDKit          3D

 29 31  0  0  0  0  0  0  0  0999 V2000
   39.4370   22.8900   37.3100 C   0  0  0  0  0  0  0  0  0  0  0  0
   38.6220   23.7690   36.6230 C   0  0  0  0  0  0  0  0  0  0  0  0
   37.7030   24.1820   37.5370 N   0  0  0  0  0  0  0  0  0  0  0  0
   37.9790   23.5650   38.7050 C   0  0  0  0  0  0  0  0  0  0  0  0
   39.0260   22.7730   38.6000 N   0  0  0  0  0  0  0  0  0  0  0  0
   38.6830   24.1940   35.2390 C   0  0  0  0  0  0  0  0  0  0  0  0
   39.2770   25.4170   35.0230 C   0  0  0  0  0  0  0  0  0  0  0  0
   39.3850   25.9170   33.7310 C   0  0  0  0  0  0  0  0  0  0  0  0
   38.9020   25.2050   32.6500 C   0  0  0  0  0  0  0  0  0  0  0  0
   38.3120   23.9820   32.8950 C   0  0  0  0  0  0  0  0  0  0  0  0
   38.1980   23.4740   34.1690 C   0  0  0  0  0  0  0  0  0  0  0  0
   37.5940   22.2230   34.4260 N   0  0  0  0  0  0  0  0  0  0  0  0
   42.5670   20.8900   36.9540 C   0  0  0  0  0  0  0  0  0  0  0  0
   41.4860   21.5520   37.5590 C   0  0  0  0  0  0  0  0  0  0  0  0
   40.5860   22.1830   36.7270 C   0  0  0  0  0  0  0  0  0  0  0  0
   40.7830   22.1360   35.3540 N   0  0  0  0  0  0  0  0  0  0  0  0
   41.8440   21.4810   34.8240 C   0  0  0  0  0  0  0  0  0  0  0  0
   42.7280   20.8640   35.6250 N   0  0  0  0  0  0  0  0  0  0  0  0
   37.4010   23.7061   39.6302 H   0  0  0  0  0  0  0  0  0  0  0  0
   39.4442   22.1892   39.3384 H   0  0  0  0  0  0  0  0  0  0  0  0
   39.6658   25.9979   35.8724 H   0  0  0  0  0  0  0  0  0  0  0  0
   39.8622   26.8943   33.5665 H   0  0  0  0  0  0  0  0  0  0  0  0
   38.9851   25.6004   31.6269 H   0  0  0  0  0  0  0  0  0  0  0  0
   37.9221   23.3970   32.0489 H   0  0  0  0  0  0  0  0  0  0  0  0
   37.5254   21.8730   35.3923 H   0  0  0  0  0  0  0  0  0  0  0  0
   37.2222   21.6609   33.6471 H   0  0  0  0  0  0  0  0  0  0  0  0
   43.3032   20.3777   37.5909 H   0  0  0  0  0  0  0  0  0  0  0  0
   41.3626   21.5664   38.6520 H   0  0  0  0  0  0  0  0  0  0  0  0
   41.9820   21.4544   33.7330 H   0  0  0  0  0  0  0  0  0  0  0  0
  1  5  1  0
  2  1  2  0
  2  3  1  0
  3  4  2  0
  5  4  1  0
  6  2  1  0
  7  6  2  0
  8  7  1  0
  9 10  1  0
  9  8  2  0
 10 11  2  0
 11 12  1  0
 11  6  1  0
 13 14  2  0
 15  1  1  0
 15 14  1  0
 16 15  2  0
 17 16  1  0
 17 18  2  0
 18 13  1  0
  4 19  1  0
  5 20  1  0
  7 21  1  0
  8 22  1  0
  9 23  1  0
 10 24  1  0
 12 25  1  0
 12 26  1  0
 13 27  1  0
 14 28  1  0
 17 29  1  0
M  ISO  8  19  14  20   9  21  14  22  14  23  14  24  14  27  14  28  14
M  ISO  1  29  14
M  END
>  <minimizedAffinity>  (1) 
-4.89859295

>  <minimizedRMSD>  (1) 
0.118570611

$$$$
