
     RDKit          3D

 39 41  0  0  0  0  0  0  0  0999 V2000
   39.5180   22.7040   37.2940 C   0  0  0  0  0  0  0  0  0  0  0  0
   38.4060   23.1930   36.6400 C   0  0  0  0  0  0  0  0  0  0  0  0
   37.6180   23.6950   37.6170 N   0  0  0  0  0  0  0  0  0  0  0  0
   38.2350   23.5070   38.7970 C   0  0  0  0  0  0  0  0  0  0  0  0
   39.3990   22.9040   38.6320 N   0  0  0  0  0  0  0  0  0  0  0  0
   38.0930   23.2000   35.2310 C   0  0  0  0  0  0  0  0  0  0  0  0
   37.6140   22.0100   34.7540 C   0  0  0  0  0  0  0  0  0  0  0  0
   37.2570   21.8290   33.4370 C   0  0  0  0  0  0  0  0  0  0  0  0
   37.3810   22.8730   32.5450 C   0  0  0  0  0  0  0  0  0  0  0  0
   37.8660   24.0550   33.0520 C   0  0  0  0  0  0  0  0  0  0  0  0
   38.2460   24.2970   34.3890 C   0  0  0  0  0  0  0  0  0  0  0  0
   38.7690   25.5560   34.8630 C   0  0  0  0  0  0  0  0  0  0  0  0
   38.5010   26.5370   33.7000 C   0  0  0  0  0  0  0  0  0  0  0  0
   38.2720   26.2540   36.0390 C   0  0  0  0  0  0  0  0  0  0  0  0
   40.2780   25.4570   34.9650 C   0  0  0  0  0  0  0  0  0  0  0  0
   42.6680   20.7980   36.7240 C   0  0  0  0  0  0  0  0  0  0  0  0
   41.5920   21.3790   37.3930 C   0  0  0  0  0  0  0  0  0  0  0  0
   40.6580   22.0780   36.6330 C   0  0  0  0  0  0  0  0  0  0  0  0
   40.8530   22.1510   35.2630 N   0  0  0  0  0  0  0  0  0  0  0  0
   41.9100   21.5720   34.6670 C   0  0  0  0  0  0  0  0  0  0  0  0
   42.8110   20.8990   35.3850 N   0  0  0  0  0  0  0  0  0  0  0  0
   37.8250   23.8144   39.7704 H   0  0  0  0  0  0  0  0  0  0  0  0
   40.0741   22.6410   39.3641 H   0  0  0  0  0  0  0  0  0  0  0  0
   37.5102   21.1649   35.4505 H   0  0  0  0  0  0  0  0  0  0  0  0
   36.8743   20.8552   33.0975 H   0  0  0  0  0  0  0  0  0  0  0  0
   37.1067   22.7658   31.4852 H   0  0  0  0  0  0  0  0  0  0  0  0
   37.9677   24.8933   32.3471 H   0  0  0  0  0  0  0  0  0  0  0  0
   38.2316   27.5229   34.1067 H   0  0  0  0  0  0  0  0  0  0  0  0
   39.4067   26.6300   33.0826 H   0  0  0  0  0  0  0  0  0  0  0  0
   37.6739   26.1566   33.0826 H   0  0  0  0  0  0  0  0  0  0  0  0
   38.6329   25.7471   36.9461 H   0  0  0  0  0  0  0  0  0  0  0  0
   38.6353   27.2922   36.0300 H   0  0  0  0  0  0  0  0  0  0  0  0
   37.1720   26.2503   36.0300 H   0  0  0  0  0  0  0  0  0  0  0  0
   40.5734   25.4376   36.0244 H   0  0  0  0  0  0  0  0  0  0  0  0
   40.6191   24.5345   34.4723 H   0  0  0  0  0  0  0  0  0  0  0  0
   40.7367   26.3270   34.4723 H   0  0  0  0  0  0  0  0  0  0  0  0
   43.4209   20.2423   37.3023 H   0  0  0  0  0  0  0  0  0  0  0  0
   41.4845   21.2884   38.4840 H   0  0  0  0  0  0  0  0  0  0  0  0
   42.0332   21.6539   33.5770 H   0  0  0  0  0  0  0  0  0  0  0  0
  1  5  1  0
  2  1  2  0
  2  3  1  0
  3  4  2  0
  5  4  1  0
  6  2  1  0
  7  6  2  0
  8  7  1  0
  9 10  1  0
  9  8  2  0
 10 11  2  0
 11 12  1  0
 11  6  1  0
 12 15  1  0
 12 14  1  0
 13 12  1  0
 16 17  2  0
 18  1  1  0
 18 17  1  0
 19 18  2  0
 20 19  1  0
 20 21  2  0
 21 16  1  0
  4 22  1  0
  5 23  1  0
  7 24  1  0
  8 25  1  0
  9 26  1  0
 10 27  1  0
 13 28  1  0
 13 29  1  0
 13 30  1  0
 14 31  1  0
 14 32  1  0
 14 33  1  0
 15 34  1  0
 15 35  1  0
 15 36  1  0
 16 37  1  0
 17 38  1  0
 20 39  1  0
M  ISO  8  22  14  23   9  24  14  25  14  26  14  27  14  28   8  29   8
M  ISO  8  30   8  31   8  32   8  33   8  34   8  35   8  36   8  37  14
M  ISO  2  38  14  39  14
M  END
>  <minimizedAffinity>  (1) 
-5.50447989

>  <minimizedRMSD>  (1) 
2.55144119

$$$$
