
     RDKit          3D

 49 52  0  0  0  0  0  0  0  0999 V2000
   39.6310   22.9560   37.3920 C   0  0  0  0  0  0  0  0  0  0  0  0
   38.5960   23.2080   36.5300 C   0  0  0  0  0  0  0  0  0  0  0  0
   37.5210   23.4140   37.3250 N   0  0  0  0  0  0  0  0  0  0  0  0
   37.8960   23.2930   38.6000 C   0  0  0  0  0  0  0  0  0  0  0  0
   39.1880   23.0110   38.6830 N   0  0  0  0  0  0  0  0  0  0  0  0
   42.7840   21.1550   36.5630 C   0  0  0  0  0  0  0  0  0  0  0  0
   41.4610   21.3670   36.9470 C   0  0  0  0  0  0  0  0  0  0  0  0
   41.0100   22.6730   36.9910 C   0  0  0  0  0  0  0  0  0  0  0  0
   41.8890   23.6920   36.6540 N   0  0  0  0  0  0  0  0  0  0  0  0
   43.1520   23.4300   36.2910 C   0  0  0  0  0  0  0  0  0  0  0  0
   43.6090   22.1730   36.2430 N   0  0  0  0  0  0  0  0  0  0  0  0
   44.0660   24.4630   35.9420 N   0  0  0  0  0  0  0  0  0  0  0  0
   44.2460   24.5580   34.5970 C   0  0  0  0  0  0  0  0  0  0  0  0
   45.1060   25.5150   34.0900 C   0  0  0  0  0  0  0  0  0  0  0  0
   45.7860   26.3770   34.9260 C   0  0  0  0  0  0  0  0  0  0  0  0
   46.5870   27.2750   34.5420 O   0  0  0  0  0  0  0  0  0  0  0  0
   45.5610   26.2260   36.2490 N   0  0  0  0  0  0  0  0  0  0  0  0
   44.7320   25.3040   36.7500 C   0  0  0  0  0  0  0  0  0  0  0  0
   44.4980   25.1350   37.9750 O   0  0  0  0  0  0  0  0  0  0  0  0
   38.5870   23.2550   35.0820 C   0  0  0  0  0  0  0  0  0  0  0  0
   38.4330   22.0420   34.4910 C   0  0  0  0  0  0  0  0  0  0  0  0
   38.3980   21.8850   33.1230 C   0  0  0  0  0  0  0  0  0  0  0  0
   38.5230   22.9880   32.3060 C   0  0  0  0  0  0  0  0  0  0  0  0
   38.6790   24.2010   32.9320 C   0  0  0  0  0  0  0  0  0  0  0  0
   38.7230   24.4270   34.3320 C   0  0  0  0  0  0  0  0  0  0  0  0
   38.8890   25.7100   34.9410 C   0  0  0  0  0  0  0  0  0  0  0  0
   38.3230   26.6940   33.8810 C   0  0  0  0  0  0  0  0  0  0  0  0
   38.2780   26.1190   36.1880 C   0  0  0  0  0  0  0  0  0  0  0  0
   40.3800   26.0230   35.0120 C   0  0  0  0  0  0  0  0  0  0  0  0
   37.2248   23.4111   39.4634 H   0  0  0  0  0  0  0  0  0  0  0  0
   39.7411   22.8643   39.5394 H   0  0  0  0  0  0  0  0  0  0  0  0
   43.1674   20.1249   36.5195 H   0  0  0  0  0  0  0  0  0  0  0  0
   40.8003   20.5263   37.2054 H   0  0  0  0  0  0  0  0  0  0  0  0
   43.7112   23.8783   33.9173 H   0  0  0  0  0  0  0  0  0  0  0  0
   45.2504   25.5904   33.0021 H   0  0  0  0  0  0  0  0  0  0  0  0
   46.0517   26.8513   36.9040 H   0  0  0  0  0  0  0  0  0  0  0  0
   38.3324   21.1514   35.1288 H   0  0  0  0  0  0  0  0  0  0  0  0
   38.2709   20.8841   32.6847 H   0  0  0  0  0  0  0  0  0  0  0  0
   38.4991   22.9016   31.2097 H   0  0  0  0  0  0  0  0  0  0  0  0
   38.7797   25.0841   32.2839 H   0  0  0  0  0  0  0  0  0  0  0  0
   37.8365   27.5399   34.3888 H   0  0  0  0  0  0  0  0  0  0  0  0
   39.1444   27.0674   33.2518 H   0  0  0  0  0  0  0  0  0  0  0  0
   37.5873   26.1717   33.2518 H   0  0  0  0  0  0  0  0  0  0  0  0
   38.8656   25.7256   37.0306 H   0  0  0  0  0  0  0  0  0  0  0  0
   38.2517   27.2174   36.2405 H   0  0  0  0  0  0  0  0  0  0  0  0
   37.2524   25.7247   36.2405 H   0  0  0  0  0  0  0  0  0  0  0  0
   40.6912   26.0883   36.0650 H   0  0  0  0  0  0  0  0  0  0  0  0
   40.9466   25.2242   34.5111 H   0  0  0  0  0  0  0  0  0  0  0  0
   40.5776   26.9822   34.5111 H   0  0  0  0  0  0  0  0  0  0  0  0
  1  5  1  0
  2  3  1  0
  2  1  2  0
  3  4  2  0
  4  5  1  0
  6  7  2  0
  7  8  1  0
  8  1  1  0
  9  8  2  0
 10  9  1  0
 11 10  2  0
 11  6  1  0
 12 10  1  0
 12 18  1  0
 13 12  1  0
 14 13  2  0
 14 15  1  0
 15 17  1  0
 16 15  2  0
 17 18  1  0
 18 19  2  0
 20  2  1  0
 21 20  2  0
 22 21  1  0
 23 24  1  0
 23 22  2  0
 24 25  2  0
 25 26  1  0
 25 20  1  0
 26 29  1  0
 26 28  1  0
 27 26  1  0
  4 30  1  0
  5 31  1  0
  6 32  1  0
  7 33  1  0
 13 34  1  0
 14 35  1  0
 17 36  1  0
 21 37  1  0
 22 38  1  0
 23 39  1  0
 24 40  1  0
 27 41  1  0
 27 42  1  0
 27 43  1  0
 28 44  1  0
 28 45  1  0
 28 46  1  0
 29 47  1  0
 29 48  1  0
 29 49  1  0
M  ISO  8  30  14  31   9  32  14  33  14  34  14  35  14  36   9  37  14
M  ISO  8  38  14  39  14  40  14  41   8  42   8  43   8  44   8  45   8
M  ISO  4  46   8  47   8  48   8  49   8
M  END
>  <minimizedAffinity>  (1) 
-6.51679897

>  <minimizedRMSD>  (1) 
3.45110345

$$$$
