
     RDKit          3D

 55 58  0  0  0  0  0  0  0  0999 V2000
   38.1840   23.5280   35.1210 C   0  0  0  0  0  0  0  0  0  0  0  0
   37.8340   22.3490   34.5170 C   0  0  0  0  0  0  0  0  0  0  0  0
   37.6270   22.2540   33.1560 C   0  0  0  0  0  0  0  0  0  0  0  0
   37.7770   23.3800   32.3690 C   0  0  0  0  0  0  0  0  0  0  0  0
   38.1270   24.5400   33.0040 C   0  0  0  0  0  0  0  0  0  0  0  0
   38.3530   24.7060   34.3860 C   0  0  0  0  0  0  0  0  0  0  0  0
   39.4390   22.9920   37.2910 C   0  0  0  0  0  0  0  0  0  0  0  0
   38.3550   23.4220   36.5580 C   0  0  0  0  0  0  0  0  0  0  0  0
   37.4240   23.7470   37.4730 N   0  0  0  0  0  0  0  0  0  0  0  0
   37.9240   23.5230   38.6950 C   0  0  0  0  0  0  0  0  0  0  0  0
   39.1570   23.0600   38.6120 N   0  0  0  0  0  0  0  0  0  0  0  0
   42.6240   21.1320   36.7680 C   0  0  0  0  0  0  0  0  0  0  0  0
   41.4260   21.5440   37.3600 C   0  0  0  0  0  0  0  0  0  0  0  0
   40.6940   22.5350   36.7080 C   0  0  0  0  0  0  0  0  0  0  0  0
   41.2000   23.0470   35.5170 N   0  0  0  0  0  0  0  0  0  0  0  0
   42.3540   22.6110   35.0030 C   0  0  0  0  0  0  0  0  0  0  0  0
   43.0650   21.6670   35.6110 N   0  0  0  0  0  0  0  0  0  0  0  0
   42.8230   23.2140   33.7250 C   0  0  0  0  0  0  0  0  0  0  0  0
   41.7070   23.4230   32.7570 C   0  0  0  0  0  0  0  0  0  0  0  0
   42.1580   24.2410   31.5930 C   0  0  0  0  0  0  0  0  0  0  0  0
   42.8300   25.5300   31.9500 C   0  0  0  0  0  0  0  0  0  0  0  0
   44.0290   25.1910   32.8180 C   0  0  0  0  0  0  0  0  0  0  0  0
   43.4950   24.5270   34.0660 C   0  0  0  0  0  0  0  0  0  0  0  0
   38.7200   25.9400   35.0110 C   0  0  0  0  0  0  0  0  0  0  0  0
   38.2270   27.0150   34.0090 C   0  0  0  0  0  0  0  0  0  0  0  0
   38.2700   26.3920   36.3070 C   0  0  0  0  0  0  0  0  0  0  0  0
   40.2410   26.0650   34.9800 C   0  0  0  0  0  0  0  0  0  0  0  0
   37.7141   21.4486   35.1374 H   0  0  0  0  0  0  0  0  0  0  0  0
   37.3456   21.2922   32.7024 H   0  0  0  0  0  0  0  0  0  0  0  0
   37.6219   23.3451   31.2806 H   0  0  0  0  0  0  0  0  0  0  0  0
   38.2439   25.4334   32.3729 H   0  0  0  0  0  0  0  0  0  0  0  0
   37.3828   23.7001   39.6361 H   0  0  0  0  0  0  0  0  0  0  0  0
   39.7774   22.8031   39.3931 H   0  0  0  0  0  0  0  0  0  0  0  0
   43.2228   20.3507   37.2590 H   0  0  0  0  0  0  0  0  0  0  0  0
   41.0746   21.1028   38.3044 H   0  0  0  0  0  0  0  0  0  0  0  0
   43.5272   22.5288   33.2304 H   0  0  0  0  0  0  0  0  0  0  0  0
   41.3558   22.4452   32.3956 H   0  0  0  0  0  0  0  0  0  0  0  0
   40.8935   23.9582   33.2686 H   0  0  0  0  0  0  0  0  0  0  0  0
   41.2766   24.4743   30.9776 H   0  0  0  0  0  0  0  0  0  0  0  0
   42.9107   23.6370   31.0652 H   0  0  0  0  0  0  0  0  0  0  0  0
   43.1607   26.0472   31.0372 H   0  0  0  0  0  0  0  0  0  0  0  0
   42.1367   26.1941   32.4870 H   0  0  0  0  0  0  0  0  0  0  0  0
   44.7013   24.5045   32.2826 H   0  0  0  0  0  0  0  0  0  0  0  0
   44.6018   26.0961   33.0684 H   0  0  0  0  0  0  0  0  0  0  0  0
   42.7632   25.1938   34.5454 H   0  0  0  0  0  0  0  0  0  0  0  0
   44.3341   24.3290   34.7491 H   0  0  0  0  0  0  0  0  0  0  0  0
   37.8309   27.8787   34.5633 H   0  0  0  0  0  0  0  0  0  0  0  0
   39.0665   27.3390   33.3763 H   0  0  0  0  0  0  0  0  0  0  0  0
   37.4337   26.5902   33.3763 H   0  0  0  0  0  0  0  0  0  0  0  0
   38.8123   25.8473   37.0939 H   0  0  0  0  0  0  0  0  0  0  0  0
   38.4640   27.4701   36.4070 H   0  0  0  0  0  0  0  0  0  0  0  0
   37.1910   26.2028   36.4070 H   0  0  0  0  0  0  0  0  0  0  0  0
   40.6273   26.0968   36.0094 H   0  0  0  0  0  0  0  0  0  0  0  0
   40.6694   25.1990   34.4541 H   0  0  0  0  0  0  0  0  0  0  0  0
   40.5223   26.9893   34.4541 H   0  0  0  0  0  0  0  0  0  0  0  0
  1  8  1  0
  2  1  2  0
  3  2  1  0
  4  5  1  0
  4  3  2  0
  5  6  2  0
  6 24  1  0
  6  1  1  0
  7 11  1  0
  8  7  2  0
  8  9  1  0
  9 10  2  0
 11 10  1  0
 12 13  2  0
 14  7  1  0
 14 13  1  0
 15 14  2  0
 16 15  1  0
 16 17  2  0
 17 12  1  0
 18 23  1  0
 18 16  1  0
 19 18  1  0
 20 21  1  0
 20 19  1  0
 21 22  1  0
 22 23  1  0
 24 26  1  0
 25 24  1  0
 27 24  1  0
  2 28  1  0
  3 29  1  0
  4 30  1  0
  5 31  1  0
 10 32  1  0
 11 33  1  0
 12 34  1  0
 13 35  1  0
 18 36  1  0
 19 37  1  0
 19 38  1  0
 20 39  1  0
 20 40  1  0
 21 41  1  0
 21 42  1  0
 22 43  1  0
 22 44  1  0
 23 45  1  0
 23 46  1  0
 25 47  1  0
 25 48  1  0
 25 49  1  0
 26 50  1  0
 26 51  1  0
 26 52  1  0
 27 53  1  0
 27 54  1  0
 27 55  1  0
M  ISO  8  28  14  29  14  30  14  31  14  32  14  33   9  34  14  35  14
M  ISO  8  36  13  37  13  38  13  39  13  40  13  41  13  42  13  43  13
M  ISO  8  44  13  45  13  46  13  47   8  48   8  49   8  50   8  51   8
M  ISO  4  52   8  53   8  54   8  55   8
M  END
>  <minimizedAffinity>  (1) 
-5.65084982

>  <minimizedRMSD>  (1) 
1.71377134

$$$$
