
     RDKit          3D

 46 49  0  0  0  0  0  0  0  0999 V2000
   38.0800   23.2050   35.2540 C   0  0  0  0  0  0  0  0  0  0  0  0
   37.5900   22.0200   34.7800 C   0  0  0  0  0  0  0  0  0  0  0  0
   37.2390   21.8350   33.4650 C   0  0  0  0  0  0  0  0  0  0  0  0
   37.3790   22.8700   32.5760 C   0  0  0  0  0  0  0  0  0  0  0  0
   37.8740   24.0580   33.0700 C   0  0  0  0  0  0  0  0  0  0  0  0
   38.2500   24.3040   34.4070 C   0  0  0  0  0  0  0  0  0  0  0  0
   39.5040   22.7070   37.3210 C   0  0  0  0  0  0  0  0  0  0  0  0
   38.3900   23.1960   36.6650 C   0  0  0  0  0  0  0  0  0  0  0  0
   37.6090   23.6840   37.6390 N   0  0  0  0  0  0  0  0  0  0  0  0
   38.2110   23.5040   38.8200 C   0  0  0  0  0  0  0  0  0  0  0  0
   39.3800   22.9060   38.6590 N   0  0  0  0  0  0  0  0  0  0  0  0
   42.6820   20.8440   36.7590 C   0  0  0  0  0  0  0  0  0  0  0  0
   41.6140   21.4360   37.4240 C   0  0  0  0  0  0  0  0  0  0  0  0
   40.6460   22.0720   36.6600 C   0  0  0  0  0  0  0  0  0  0  0  0
   40.7980   22.0810   35.2880 N   0  0  0  0  0  0  0  0  0  0  0  0
   41.8500   21.4930   34.6900 C   0  0  0  0  0  0  0  0  0  0  0  0
   42.7860   20.8800   35.4110 N   0  0  0  0  0  0  0  0  0  0  0  0
   41.9510   21.5360   33.2690 N   0  0  0  0  0  0  0  0  0  0  0  0
   40.9200   20.9760   32.5830 C   0  0  0  0  0  0  0  0  0  0  0  0
   41.2260   21.1300   31.2260 C   0  0  0  0  0  0  0  0  0  0  0  0
   42.4070   21.7650   31.1270 N   0  0  0  0  0  0  0  0  0  0  0  0
   42.8410   22.0090   32.3780 C   0  0  0  0  0  0  0  0  0  0  0  0
   38.7640   25.5510   34.8910 C   0  0  0  0  0  0  0  0  0  0  0  0
   38.5260   26.5260   33.7090 C   0  0  0  0  0  0  0  0  0  0  0  0
   38.2970   26.2540   36.0630 C   0  0  0  0  0  0  0  0  0  0  0  0
   40.2810   25.4470   34.9740 C   0  0  0  0  0  0  0  0  0  0  0  0
   37.4720   21.1802   35.4805 H   0  0  0  0  0  0  0  0  0  0  0  0
   36.8484   20.8637   33.1273 H   0  0  0  0  0  0  0  0  0  0  0  0
   37.1083   22.7571   31.5158 H   0  0  0  0  0  0  0  0  0  0  0  0
   37.9858   24.8886   32.3576 H   0  0  0  0  0  0  0  0  0  0  0  0
   37.7923   23.8105   39.7899 H   0  0  0  0  0  0  0  0  0  0  0  0
   40.0540   22.6461   39.3933 H   0  0  0  0  0  0  0  0  0  0  0  0
   43.4616   20.3338   37.3437 H   0  0  0  0  0  0  0  0  0  0  0  0
   41.5389   21.4012   38.5209 H   0  0  0  0  0  0  0  0  0  0  0  0
   40.0253   20.4980   33.0086 H   0  0  0  0  0  0  0  0  0  0  0  0
   40.6058   20.7895   30.3837 H   0  0  0  0  0  0  0  0  0  0  0  0
   43.7819   22.5185   32.6331 H   0  0  0  0  0  0  0  0  0  0  0  0
   38.2822   27.5246   34.1008 H   0  0  0  0  0  0  0  0  0  0  0  0
   39.4360   26.5855   33.0939 H   0  0  0  0  0  0  0  0  0  0  0  0
   37.6909   26.1596   33.0939 H   0  0  0  0  0  0  0  0  0  0  0  0
   38.6441   25.7315   36.9666 H   0  0  0  0  0  0  0  0  0  0  0  0
   38.6937   27.2800   36.0575 H   0  0  0  0  0  0  0  0  0  0  0  0
   37.1975   26.2860   36.0575 H   0  0  0  0  0  0  0  0  0  0  0  0
   40.5899   25.4258   36.0295 H   0  0  0  0  0  0  0  0  0  0  0  0
   40.6130   24.5240   34.4762 H   0  0  0  0  0  0  0  0  0  0  0  0
   40.7359   26.3161   34.4762 H   0  0  0  0  0  0  0  0  0  0  0  0
  1  8  1  0
  2  1  2  0
  3  2  1  0
  4  5  1  0
  4  3  2  0
  5  6  2  0
  6 23  1  0
  6  1  1  0
  7 11  1  0
  8  7  2  0
  8  9  1  0
  9 10  2  0
 11 10  1  0
 12 13  2  0
 14  7  1  0
 14 13  1  0
 15 14  2  0
 16 15  1  0
 16 17  2  0
 17 12  1  0
 18 16  1  0
 19 18  1  0
 20 19  2  0
 21 20  1  0
 21 22  2  0
 22 18  1  0
 23 26  1  0
 23 25  1  0
 24 23  1  0
  2 27  1  0
  3 28  1  0
  4 29  1  0
  5 30  1  0
 10 31  1  0
 11 32  1  0
 12 33  1  0
 13 34  1  0
 19 35  1  0
 20 36  1  0
 22 37  1  0
 24 38  1  0
 24 39  1  0
 24 40  1  0
 25 41  1  0
 25 42  1  0
 25 43  1  0
 26 44  1  0
 26 45  1  0
 26 46  1  0
M  ISO  8  27  14  28  14  29  14  30  14  31  14  32   9  33  14  34  14
M  ISO  8  35  14  36  14  37  14  38   8  39   8  40   8  41   8  42   8
M  ISO  4  43   8  44   8  45   8  46   8
M  END
>  <minimizedAffinity>  (1) 
-5.70199585

>  <minimizedRMSD>  (1) 
0.114849381

$$$$
