
     RDKit          3D

 54 57  0  0  0  0  0  0  0  0999 V2000
   38.0820   23.2070   35.2370 C   0  0  0  0  0  0  0  0  0  0  0  0
   37.5930   22.0310   34.7650 C   0  0  0  0  0  0  0  0  0  0  0  0
   37.2350   21.8500   33.4500 C   0  0  0  0  0  0  0  0  0  0  0  0
   37.3720   22.9030   32.5580 C   0  0  0  0  0  0  0  0  0  0  0  0
   37.8680   24.0820   33.0610 C   0  0  0  0  0  0  0  0  0  0  0  0
   38.2510   24.3190   34.4030 C   0  0  0  0  0  0  0  0  0  0  0  0
   39.5070   22.7030   37.3000 C   0  0  0  0  0  0  0  0  0  0  0  0
   38.3960   23.1930   36.6490 C   0  0  0  0  0  0  0  0  0  0  0  0
   37.6110   23.6880   37.6330 N   0  0  0  0  0  0  0  0  0  0  0  0
   38.2270   23.5000   38.8070 C   0  0  0  0  0  0  0  0  0  0  0  0
   39.3890   22.9010   38.6440 N   0  0  0  0  0  0  0  0  0  0  0  0
   42.6840   20.8480   36.7280 C   0  0  0  0  0  0  0  0  0  0  0  0
   41.6130   21.4280   37.4070 C   0  0  0  0  0  0  0  0  0  0  0  0
   40.6460   22.0700   36.6420 C   0  0  0  0  0  0  0  0  0  0  0  0
   40.8020   22.0960   35.2550 N   0  0  0  0  0  0  0  0  0  0  0  0
   41.8530   21.5190   34.6710 C   0  0  0  0  0  0  0  0  0  0  0  0
   42.7870   20.9000   35.3930 N   0  0  0  0  0  0  0  0  0  0  0  0
   42.0360   21.5210   33.2570 N   0  0  0  0  0  0  0  0  0  0  0  0
   41.0310   21.1620   32.2760 C   0  0  0  0  0  0  0  0  0  0  0  0
   41.0180   22.1060   31.1060 C   0  0  0  0  0  0  0  0  0  0  0  0
   42.3510   22.0050   30.3760 C   0  0  0  0  0  0  0  0  0  0  0  0
   43.3300   21.2530   31.2630 C   0  0  0  0  0  0  0  0  0  0  0  0
   43.2730   21.8910   32.6340 C   0  0  0  0  0  0  0  0  0  0  0  0
   38.7690   25.5600   34.8900 C   0  0  0  0  0  0  0  0  0  0  0  0
   38.5260   26.5470   33.7160 C   0  0  0  0  0  0  0  0  0  0  0  0
   38.3000   26.2580   36.0720 C   0  0  0  0  0  0  0  0  0  0  0  0
   40.2920   25.4580   34.9700 C   0  0  0  0  0  0  0  0  0  0  0  0
   37.4787   21.1889   35.4635 H   0  0  0  0  0  0  0  0  0  0  0  0
   36.8440   20.8801   33.1089 H   0  0  0  0  0  0  0  0  0  0  0  0
   37.0967   22.7995   31.4980 H   0  0  0  0  0  0  0  0  0  0  0  0
   37.9775   24.9188   32.3555 H   0  0  0  0  0  0  0  0  0  0  0  0
   37.8163   23.8058   39.7806 H   0  0  0  0  0  0  0  0  0  0  0  0
   40.0645   22.6382   39.3758 H   0  0  0  0  0  0  0  0  0  0  0  0
   43.4665   20.3331   37.3047 H   0  0  0  0  0  0  0  0  0  0  0  0
   41.5364   21.3795   38.5033 H   0  0  0  0  0  0  0  0  0  0  0  0
   41.2404   20.1462   31.9095 H   0  0  0  0  0  0  0  0  0  0  0  0
   40.0470   21.2158   32.7648 H   0  0  0  0  0  0  0  0  0  0  0  0
   40.2007   21.8346   30.4216 H   0  0  0  0  0  0  0  0  0  0  0  0
   40.8639   23.1361   31.4598 H   0  0  0  0  0  0  0  0  0  0  0  0
   42.2154   21.4619   29.4291 H   0  0  0  0  0  0  0  0  0  0  0  0
   42.7376   23.0110   30.1557 H   0  0  0  0  0  0  0  0  0  0  0  0
   43.0421   20.1933   31.3282 H   0  0  0  0  0  0  0  0  0  0  0  0
   44.3486   21.3038   30.8508 H   0  0  0  0  0  0  0  0  0  0  0  0
   44.1165   21.5355   33.2440 H   0  0  0  0  0  0  0  0  0  0  0  0
   43.3367   22.9854   32.5433 H   0  0  0  0  0  0  0  0  0  0  0  0
   38.2812   27.5414   34.1176 H   0  0  0  0  0  0  0  0  0  0  0  0
   39.4344   26.6141   33.0994 H   0  0  0  0  0  0  0  0  0  0  0  0
   37.6902   26.1847   33.0994 H   0  0  0  0  0  0  0  0  0  0  0  0
   38.6528   25.7330   36.9720 H   0  0  0  0  0  0  0  0  0  0  0  0
   38.6913   27.2860   36.0702 H   0  0  0  0  0  0  0  0  0  0  0  0
   37.2003   26.2842   36.0702 H   0  0  0  0  0  0  0  0  0  0  0  0
   40.6032   25.4372   36.0249 H   0  0  0  0  0  0  0  0  0  0  0  0
   40.6244   24.5356   34.4714 H   0  0  0  0  0  0  0  0  0  0  0  0
   40.7444   26.3279   34.4714 H   0  0  0  0  0  0  0  0  0  0  0  0
  1  8  1  0
  2  1  2  0
  3  2  1  0
  4  5  1  0
  4  3  2  0
  5  6  2  0
  6 24  1  0
  6  1  1  0
  7 11  1  0
  8  7  2  0
  8  9  1  0
  9 10  2  0
 11 10  1  0
 12 13  2  0
 14  7  1  0
 14 13  1  0
 15 14  2  0
 16 15  1  0
 16 17  2  0
 17 12  1  0
 18 16  1  0
 19 18  1  0
 20 19  1  0
 21 20  1  0
 21 22  1  0
 22 23  1  0
 23 18  1  0
 24 27  1  0
 24 26  1  0
 25 24  1  0
  2 28  1  0
  3 29  1  0
  4 30  1  0
  5 31  1  0
 10 32  1  0
 11 33  1  0
 12 34  1  0
 13 35  1  0
 19 36  1  0
 19 37  1  0
 20 38  1  0
 20 39  1  0
 21 40  1  0
 21 41  1  0
 22 42  1  0
 22 43  1  0
 23 44  1  0
 23 45  1  0
 25 46  1  0
 25 47  1  0
 25 48  1  0
 26 49  1  0
 26 50  1  0
 26 51  1  0
 27 52  1  0
 27 53  1  0
 27 54  1  0
M  ISO  8  28  14  29  14  30  14  31  14  32  14  33   9  34  14  35  14
M  ISO  8  36  13  37  13  38  13  39  13  40  13  41  13  42  13  43  13
M  ISO  8  44  13  45  13  46   8  47   8  48   8  49   8  50   8  51   8
M  ISO  3  52   8  53   8  54   8
M  END
>  <minimizedAffinity>  (1) 
-5.70816898

>  <minimizedRMSD>  (1) 
0.123203382

$$$$
