
     RDKit          3D

 48 51  0  0  0  0  0  0  0  0999 V2000
   38.5310   23.2500   35.1210 C   0  0  0  0  0  0  0  0  0  0  0  0
   38.3510   22.0240   34.5440 C   0  0  0  0  0  0  0  0  0  0  0  0
   38.3140   21.8510   33.1790 C   0  0  0  0  0  0  0  0  0  0  0  0
   38.4640   22.9420   32.3500 C   0  0  0  0  0  0  0  0  0  0  0  0
   38.6450   24.1650   32.9550 C   0  0  0  0  0  0  0  0  0  0  0  0
   38.6910   24.4050   34.3460 C   0  0  0  0  0  0  0  0  0  0  0  0
   39.5590   22.9520   37.4360 C   0  0  0  0  0  0  0  0  0  0  0  0
   38.5330   23.2200   36.5640 C   0  0  0  0  0  0  0  0  0  0  0  0
   37.4590   23.4650   37.3490 N   0  0  0  0  0  0  0  0  0  0  0  0
   37.8340   23.3470   38.6310 C   0  0  0  0  0  0  0  0  0  0  0  0
   39.1100   23.0360   38.7230 N   0  0  0  0  0  0  0  0  0  0  0  0
   42.6010   21.0370   36.4900 C   0  0  0  0  0  0  0  0  0  0  0  0
   41.2900   21.3020   36.8640 C   0  0  0  0  0  0  0  0  0  0  0  0
   40.9270   22.6290   37.0390 C   0  0  0  0  0  0  0  0  0  0  0  0
   41.8750   23.6060   36.8350 N   0  0  0  0  0  0  0  0  0  0  0  0
   43.1340   23.3050   36.4740 C   0  0  0  0  0  0  0  0  0  0  0  0
   43.4940   22.0190   36.3020 N   0  0  0  0  0  0  0  0  0  0  0  0
   44.1540   24.3260   36.2550 C   0  0  0  0  0  0  0  0  0  0  0  0
   44.0320   25.3120   35.2980 C   0  0  0  0  0  0  0  0  0  0  0  0
   44.9760   26.2930   35.0640 C   0  0  0  0  0  0  0  0  0  0  0  0
   46.1160   26.2870   35.8360 C   0  0  0  0  0  0  0  0  0  0  0  0
   46.2220   25.2980   36.7850 C   0  0  0  0  0  0  0  0  0  0  0  0
   45.2880   24.3540   36.9920 N   0  0  0  0  0  0  0  0  0  0  0  0
   38.8870   25.6920   34.9410 C   0  0  0  0  0  0  0  0  0  0  0  0
   38.3830   26.6780   33.8590 C   0  0  0  0  0  0  0  0  0  0  0  0
   38.2630   26.1300   36.1730 C   0  0  0  0  0  0  0  0  0  0  0  0
   40.3870   25.9610   35.0280 C   0  0  0  0  0  0  0  0  0  0  0  0
   38.2315   21.1444   35.1936 H   0  0  0  0  0  0  0  0  0  0  0  0
   38.1656   20.8481   32.7522 H   0  0  0  0  0  0  0  0  0  0  0  0
   38.4401   22.8399   31.2550 H   0  0  0  0  0  0  0  0  0  0  0  0
   38.7649   25.0360   32.2940 H   0  0  0  0  0  0  0  0  0  0  0  0
   37.1643   23.4910   39.4917 H   0  0  0  0  0  0  0  0  0  0  0  0
   39.6549   22.8873   39.5843 H   0  0  0  0  0  0  0  0  0  0  0  0
   42.9151   19.9930   36.3441 H   0  0  0  0  0  0  0  0  0  0  0  0
   40.5654   20.4884   37.0160 H   0  0  0  0  0  0  0  0  0  0  0  0
   43.1221   25.3174   34.6799 H   0  0  0  0  0  0  0  0  0  0  0  0
   44.8218   27.0548   34.2856 H   0  0  0  0  0  0  0  0  0  0  0  0
   46.9065   27.0397   35.6996 H   0  0  0  0  0  0  0  0  0  0  0  0
   47.1253   25.2781   37.4124 H   0  0  0  0  0  0  0  0  0  0  0  0
   37.9338   27.5569   34.3445 H   0  0  0  0  0  0  0  0  0  0  0  0
   39.2283   26.9976   33.2319 H   0  0  0  0  0  0  0  0  0  0  0  0
   37.6289   26.1800   33.2319 H   0  0  0  0  0  0  0  0  0  0  0  0
   38.8269   25.7342   37.0305 H   0  0  0  0  0  0  0  0  0  0  0  0
   38.2602   27.2293   36.2119 H   0  0  0  0  0  0  0  0  0  0  0  0
   37.2282   25.7591   36.2119 H   0  0  0  0  0  0  0  0  0  0  0  0
   40.6891   26.0152   36.0843 H   0  0  0  0  0  0  0  0  0  0  0  0
   40.9350   25.1468   34.5312 H   0  0  0  0  0  0  0  0  0  0  0  0
   40.6179   26.9149   34.5312 H   0  0  0  0  0  0  0  0  0  0  0  0
  1  8  1  0
  2  1  2  0
  3  2  1  0
  4  5  1  0
  4  3  2  0
  5  6  2  0
  6 24  1  0
  6  1  1  0
  7 11  1  0
  8  9  1  0
  8  7  2  0
  9 10  2  0
 10 11  1  0
 12 13  2  0
 13 14  1  0
 14  7  1  0
 15 14  2  0
 16 15  1  0
 17 16  2  0
 17 12  1  0
 18 16  1  0
 18 23  1  0
 19 18  2  0
 20 19  1  0
 20 21  2  0
 21 22  1  0
 22 23  2  0
 24 27  1  0
 24 26  1  0
 25 24  1  0
  2 28  1  0
  3 29  1  0
  4 30  1  0
  5 31  1  0
 10 32  1  0
 11 33  1  0
 12 34  1  0
 13 35  1  0
 19 36  1  0
 20 37  1  0
 21 38  1  0
 22 39  1  0
 25 40  1  0
 25 41  1  0
 25 42  1  0
 26 43  1  0
 26 44  1  0
 26 45  1  0
 27 46  1  0
 27 47  1  0
 27 48  1  0
M  ISO  8  28  14  29  14  30  14  31  14  32  14  33   9  34  14  35  14
M  ISO  8  36  14  37  14  38  14  39  14  40   8  41   8  42   8  43   8
M  ISO  5  44   8  45   8  46   8  47   8  48   8
M  END
>  <minimizedAffinity>  (1) 
-5.97779703

>  <minimizedRMSD>  (1) 
3.17100978

$$$$
