
     RDKit          3D

 25 25  0  0  0  0  0  0  0  0999 V2000
   38.4030   23.5910   37.2580 C   0  0  0  0  0  0  0  0  0  0  0  0
   41.5100   21.5420   36.6320 C   0  0  0  0  0  0  0  0  0  0  0  0
   40.4590   22.1460   37.3350 C   0  0  0  0  0  0  0  0  0  0  0  0
   39.5450   22.9140   36.6110 C   0  0  0  0  0  0  0  0  0  0  0  0
   39.6940   23.0530   35.2680 N   0  0  0  0  0  0  0  0  0  0  0  0
   40.7230   22.4520   34.6280 C   0  0  0  0  0  0  0  0  0  0  0  0
   41.6220   21.7060   35.2890 N   0  0  0  0  0  0  0  0  0  0  0  0
   42.4730   20.7320   37.4010 C   0  0  0  0  0  0  0  0  0  0  0  0
   38.7010   23.6040   38.7610 C   0  0  0  0  0  0  0  0  0  0  0  0
   38.1560   24.9910   36.7560 C   0  0  0  0  0  0  0  0  0  0  0  0
   37.1310   22.8070   37.0140 C   0  0  0  0  0  0  0  0  0  0  0  0
   40.3573   22.0191   38.4229 H   0  0  0  0  0  0  0  0  0  0  0  0
   40.8255   22.5776   33.5400 H   0  0  0  0  0  0  0  0  0  0  0  0
   42.2986   20.8787   38.4771 H   0  0  0  0  0  0  0  0  0  0  0  0
   42.3412   19.6692   37.1497 H   0  0  0  0  0  0  0  0  0  0  0  0
   43.4975   21.0439   37.1497 H   0  0  0  0  0  0  0  0  0  0  0  0
   37.7560   23.5628   39.3225 H   0  0  0  0  0  0  0  0  0  0  0  0
   39.3196   22.7320   39.0197 H   0  0  0  0  0  0  0  0  0  0  0  0
   39.2413   24.5266   39.0197 H   0  0  0  0  0  0  0  0  0  0  0  0
   38.0359   25.6715   37.6118 H   0  0  0  0  0  0  0  0  0  0  0  0
   39.0104   25.3175   36.1450 H   0  0  0  0  0  0  0  0  0  0  0  0
   37.2414   25.0054   36.1450 H   0  0  0  0  0  0  0  0  0  0  0  0
   36.6807   22.5294   37.9784 H   0  0  0  0  0  0  0  0  0  0  0  0
   36.4228   23.4256   36.4431 H   0  0  0  0  0  0  0  0  0  0  0  0
   37.3653   21.8964   36.4431 H   0  0  0  0  0  0  0  0  0  0  0  0
  1  9  1  0
  2  3  2  0
  2  8  1  0
  4  1  1  0
  4  3  1  0
  5  4  2  0
  6  5  1  0
  6  7  2  0
  7  2  1  0
 10  1  1  0
 11  1  1  0
  3 12  1  0
  6 13  1  0
  8 14  1  0
  8 15  1  0
  8 16  1  0
  9 17  1  0
  9 18  1  0
  9 19  1  0
 10 20  1  0
 10 21  1  0
 10 22  1  0
 11 23  1  0
 11 24  1  0
 11 25  1  0
M  ISO  8  12  14  13  14  14   8  15   8  16   8  17   8  18   8  19   8
M  ISO  6  20   8  21   8  22   8  23   8  24   8  25   8
M  END
>  <minimizedAffinity>  (1) 
-3.50489807

>  <minimizedRMSD>  (1) 
0.362143666

$$$$
