
     RDKit          3D

 41 43  0  0  0  0  0  0  0  0999 V2000
   38.0930   23.2030   35.2410 C   0  0  0  0  0  0  0  0  0  0  0  0
   37.6010   22.0100   34.7710 C   0  0  0  0  0  0  0  0  0  0  0  0
   37.2430   21.8410   33.4510 C   0  0  0  0  0  0  0  0  0  0  0  0
   37.3760   22.8800   32.5650 C   0  0  0  0  0  0  0  0  0  0  0  0
   37.8700   24.0600   33.0620 C   0  0  0  0  0  0  0  0  0  0  0  0
   38.2570   24.3090   34.4030 C   0  0  0  0  0  0  0  0  0  0  0  0
   39.5140   22.7030   37.2980 C   0  0  0  0  0  0  0  0  0  0  0  0
   38.4080   23.1870   36.6500 C   0  0  0  0  0  0  0  0  0  0  0  0
   37.6140   23.6770   37.6260 N   0  0  0  0  0  0  0  0  0  0  0  0
   38.2120   23.4980   38.8060 C   0  0  0  0  0  0  0  0  0  0  0  0
   39.3840   22.9010   38.6430 N   0  0  0  0  0  0  0  0  0  0  0  0
   42.6710   20.8110   36.7370 C   0  0  0  0  0  0  0  0  0  0  0  0
   41.5950   21.3970   37.4080 C   0  0  0  0  0  0  0  0  0  0  0  0
   40.6510   22.0750   36.6460 C   0  0  0  0  0  0  0  0  0  0  0  0
   40.8320   22.1300   35.2700 N   0  0  0  0  0  0  0  0  0  0  0  0
   41.8890   21.5470   34.6790 C   0  0  0  0  0  0  0  0  0  0  0  0
   42.7990   20.8950   35.3930 N   0  0  0  0  0  0  0  0  0  0  0  0
   42.0540   21.6150   33.2640 N   0  0  0  0  0  0  0  0  0  0  0  0
   38.7710   25.5590   34.8770 C   0  0  0  0  0  0  0  0  0  0  0  0
   38.5180   26.5320   33.7050 C   0  0  0  0  0  0  0  0  0  0  0  0
   38.2900   26.2420   36.0580 C   0  0  0  0  0  0  0  0  0  0  0  0
   40.2890   25.4560   34.9670 C   0  0  0  0  0  0  0  0  0  0  0  0
   37.4896   21.1659   35.4675 H   0  0  0  0  0  0  0  0  0  0  0  0
   36.8504   20.8725   33.1076 H   0  0  0  0  0  0  0  0  0  0  0  0
   37.0996   22.7723   31.5058 H   0  0  0  0  0  0  0  0  0  0  0  0
   37.9759   24.8929   32.3514 H   0  0  0  0  0  0  0  0  0  0  0  0
   37.7917   23.8027   39.7758 H   0  0  0  0  0  0  0  0  0  0  0  0
   40.0569   22.6405   39.3780 H   0  0  0  0  0  0  0  0  0  0  0  0
   43.4328   20.2680   37.3157 H   0  0  0  0  0  0  0  0  0  0  0  0
   41.4983   21.3243   38.5013 H   0  0  0  0  0  0  0  0  0  0  0  0
   42.8666   21.1658   32.8181 H   0  0  0  0  0  0  0  0  0  0  0  0
   41.3606   22.1133   32.6880 H   0  0  0  0  0  0  0  0  0  0  0  0
   38.2598   27.5249   34.1019 H   0  0  0  0  0  0  0  0  0  0  0  0
   39.4262   26.6082   33.0891 H   0  0  0  0  0  0  0  0  0  0  0  0
   37.6877   26.1561   33.0891 H   0  0  0  0  0  0  0  0  0  0  0  0
   38.6556   25.7229   36.9562 H   0  0  0  0  0  0  0  0  0  0  0  0
   38.6586   27.2784   36.0579 H   0  0  0  0  0  0  0  0  0  0  0  0
   37.1900   26.2441   36.0579 H   0  0  0  0  0  0  0  0  0  0  0  0
   40.5931   25.4354   36.0239 H   0  0  0  0  0  0  0  0  0  0  0  0
   40.6239   24.5331   34.4710 H   0  0  0  0  0  0  0  0  0  0  0  0
   40.7455   26.3252   34.4710 H   0  0  0  0  0  0  0  0  0  0  0  0
  1  8  1  0
  2  1  2  0
  3  2  1  0
  4  5  1  0
  4  3  2  0
  5  6  2  0
  6 19  1  0
  6  1  1  0
  7 11  1  0
  8  7  2  0
  8  9  1  0
  9 10  2  0
 11 10  1  0
 12 13  2  0
 14  7  1  0
 14 13  1  0
 15 14  2  0
 16 15  1  0
 16 17  2  0
 17 12  1  0
 18 16  1  0
 19 22  1  0
 19 21  1  0
 20 19  1  0
  2 23  1  0
  3 24  1  0
  4 25  1  0
  5 26  1  0
 10 27  1  0
 11 28  1  0
 12 29  1  0
 13 30  1  0
 18 31  1  0
 18 32  1  0
 20 33  1  0
 20 34  1  0
 20 35  1  0
 21 36  1  0
 21 37  1  0
 21 38  1  0
 22 39  1  0
 22 40  1  0
 22 41  1  0
M  ISO  8  23  14  24  14  25  14  26  14  27  14  28   9  29  14  30  14
M  ISO  8  33   8  34   8  35   8  36   8  37   8  38   8  39   8  40   8
M  ISO  1  41   8
M  END
>  <minimizedAffinity>  (1) 
-5.56314945

>  <minimizedRMSD>  (1) 
0.0201040413

$$$$
