
     RDKit          3D

 47 50  0  0  0  0  0  0  0  0999 V2000
   38.1210   23.3500   35.2100 C   0  0  0  0  0  0  0  0  0  0  0  0
   37.6400   22.1690   34.7150 C   0  0  0  0  0  0  0  0  0  0  0  0
   37.3610   21.9930   33.3790 C   0  0  0  0  0  0  0  0  0  0  0  0
   37.5690   23.0310   32.4980 C   0  0  0  0  0  0  0  0  0  0  0  0
   38.0520   24.2050   33.0230 C   0  0  0  0  0  0  0  0  0  0  0  0
   38.3580   24.4520   34.3770 C   0  0  0  0  0  0  0  0  0  0  0  0
   39.4090   22.8280   37.3610 C   0  0  0  0  0  0  0  0  0  0  0  0
   38.3510   23.3360   36.6420 C   0  0  0  0  0  0  0  0  0  0  0  0
   37.5220   23.8470   37.5650 N   0  0  0  0  0  0  0  0  0  0  0  0
   38.0590   23.6540   38.7800 C   0  0  0  0  0  0  0  0  0  0  0  0
   39.2250   23.0270   38.6860 N   0  0  0  0  0  0  0  0  0  0  0  0
   42.5520   20.8480   36.9760 C   0  0  0  0  0  0  0  0  0  0  0  0
   41.4570   21.4660   37.5840 C   0  0  0  0  0  0  0  0  0  0  0  0
   40.5710   22.1650   36.7650 C   0  0  0  0  0  0  0  0  0  0  0  0
   40.8330   22.2000   35.4040 N   0  0  0  0  0  0  0  0  0  0  0  0
   41.9030   21.5870   34.8750 C   0  0  0  0  0  0  0  0  0  0  0  0
   42.7540   20.9190   35.6510 N   0  0  0  0  0  0  0  0  0  0  0  0
   42.1370   21.6520   33.4320 C   0  0  0  0  0  0  0  0  0  0  0  0
   41.2550   22.3190   32.6120 C   0  0  0  0  0  0  0  0  0  0  0  0
   41.5820   22.3130   31.2710 C   0  0  0  0  0  0  0  0  0  0  0  0
   42.6720   21.7080   30.7840 N   0  0  0  0  0  0  0  0  0  0  0  0
   43.5200   21.0640   31.6000 C   0  0  0  0  0  0  0  0  0  0  0  0
   43.2260   21.0550   32.9130 N   0  0  0  0  0  0  0  0  0  0  0  0
   38.8630   25.6880   34.8960 C   0  0  0  0  0  0  0  0  0  0  0  0
   38.6610   26.6800   33.7170 C   0  0  0  0  0  0  0  0  0  0  0  0
   38.3680   26.3770   36.0650 C   0  0  0  0  0  0  0  0  0  0  0  0
   40.3780   25.5760   35.0230 C   0  0  0  0  0  0  0  0  0  0  0  0
   37.4705   21.3319   35.4082 H   0  0  0  0  0  0  0  0  0  0  0  0
   36.9742   21.0290   33.0169 H   0  0  0  0  0  0  0  0  0  0  0  0
   37.3581   22.9249   31.4236 H   0  0  0  0  0  0  0  0  0  0  0  0
   38.2161   25.0334   32.3181 H   0  0  0  0  0  0  0  0  0  0  0  0
   37.5955   23.9723   39.7254 H   0  0  0  0  0  0  0  0  0  0  0  0
   39.8530   22.7519   39.4547 H   0  0  0  0  0  0  0  0  0  0  0  0
   43.2665   20.2893   37.5984 H   0  0  0  0  0  0  0  0  0  0  0  0
   41.2991   21.4035   38.6708 H   0  0  0  0  0  0  0  0  0  0  0  0
   40.3550   22.8204   32.9975 H   0  0  0  0  0  0  0  0  0  0  0  0
   40.9136   22.8312   30.5677 H   0  0  0  0  0  0  0  0  0  0  0  0
   44.4192   20.5636   31.2114 H   0  0  0  0  0  0  0  0  0  0  0  0
   38.4563   27.6851   34.1144 H   0  0  0  0  0  0  0  0  0  0  0  0
   39.5719   26.7078   33.1010 H   0  0  0  0  0  0  0  0  0  0  0  0
   37.8118   26.3494   33.1010 H   0  0  0  0  0  0  0  0  0  0  0  0
   38.7321   25.8702   36.9709 H   0  0  0  0  0  0  0  0  0  0  0  0
   38.7269   27.4168   36.0572 H   0  0  0  0  0  0  0  0  0  0  0  0
   37.2681   26.3687   36.0572 H   0  0  0  0  0  0  0  0  0  0  0  0
   40.6562   25.5554   36.0870 H   0  0  0  0  0  0  0  0  0  0  0  0
   40.7193   24.6502   34.5368 H   0  0  0  0  0  0  0  0  0  0  0  0
   40.8517   26.4416   34.5368 H   0  0  0  0  0  0  0  0  0  0  0  0
  1  8  1  0
  2  1  2  0
  3  2  1  0
  4  5  1  0
  4  3  2  0
  5  6  2  0
  6 24  1  0
  6  1  1  0
  7 11  1  0
  8  7  2  0
  8  9  1  0
  9 10  2  0
 11 10  1  0
 12 13  2  0
 14  7  1  0
 14 13  1  0
 15 14  2  0
 16 15  1  0
 16 17  2  0
 17 12  1  0
 18 16  1  0
 19 18  2  0
 20 19  1  0
 21 20  2  0
 21 22  1  0
 22 23  2  0
 23 18  1  0
 24 27  1  0
 24 26  1  0
 25 24  1  0
  2 28  1  0
  3 29  1  0
  4 30  1  0
  5 31  1  0
 10 32  1  0
 11 33  1  0
 12 34  1  0
 13 35  1  0
 19 36  1  0
 20 37  1  0
 22 38  1  0
 25 39  1  0
 25 40  1  0
 25 41  1  0
 26 42  1  0
 26 43  1  0
 26 44  1  0
 27 45  1  0
 27 46  1  0
 27 47  1  0
M  ISO  8  28  14  29  14  30  14  31  14  32  14  33   9  34  14  35  14
M  ISO  8  36  14  37  14  38  14  39   8  40   8  41   8  42   8  43   8
M  ISO  4  44   8  45   8  46   8  47   8
M  END
>  <minimizedAffinity>  (1) 
-5.4484992

>  <minimizedRMSD>  (1) 
0.684306562

$$$$
