
     RDKit          3D

 46 49  0  0  0  0  0  0  0  0999 V2000
   38.1210   23.3530   35.1970 C   0  0  0  0  0  0  0  0  0  0  0  0
   37.6360   22.1870   34.6930 C   0  0  0  0  0  0  0  0  0  0  0  0
   37.3540   22.0230   33.3590 C   0  0  0  0  0  0  0  0  0  0  0  0
   37.5620   23.0610   32.4860 C   0  0  0  0  0  0  0  0  0  0  0  0
   38.0520   24.2280   33.0220 C   0  0  0  0  0  0  0  0  0  0  0  0
   38.3600   24.4610   34.3770 C   0  0  0  0  0  0  0  0  0  0  0  0
   39.4080   22.8250   37.3530 C   0  0  0  0  0  0  0  0  0  0  0  0
   38.3530   23.3290   36.6260 C   0  0  0  0  0  0  0  0  0  0  0  0
   37.5160   23.8340   37.5590 N   0  0  0  0  0  0  0  0  0  0  0  0
   38.0440   23.6410   38.7730 C   0  0  0  0  0  0  0  0  0  0  0  0
   39.2160   23.0170   38.6760 N   0  0  0  0  0  0  0  0  0  0  0  0
   42.5580   20.8710   36.9550 C   0  0  0  0  0  0  0  0  0  0  0  0
   41.4620   21.4830   37.5650 C   0  0  0  0  0  0  0  0  0  0  0  0
   40.5720   22.1700   36.7450 C   0  0  0  0  0  0  0  0  0  0  0  0
   40.8210   22.2070   35.3900 N   0  0  0  0  0  0  0  0  0  0  0  0
   41.8920   21.6000   34.8510 C   0  0  0  0  0  0  0  0  0  0  0  0
   42.7580   20.9370   35.6140 N   0  0  0  0  0  0  0  0  0  0  0  0
   42.1240   21.6660   33.3740 C   0  0  0  0  0  0  0  0  0  0  0  0
   40.9550   21.3860   32.4560 C   0  0  0  0  0  0  0  0  0  0  0  0
   41.5280   22.7830   32.5730 C   0  0  0  0  0  0  0  0  0  0  0  0
   38.8710   25.6930   34.8960 C   0  0  0  0  0  0  0  0  0  0  0  0
   38.6550   26.6940   33.7280 C   0  0  0  0  0  0  0  0  0  0  0  0
   38.3810   26.3730   36.0710 C   0  0  0  0  0  0  0  0  0  0  0  0
   40.3880   25.5760   35.0190 C   0  0  0  0  0  0  0  0  0  0  0  0
   37.4632   21.3444   35.3787 H   0  0  0  0  0  0  0  0  0  0  0  0
   36.9627   21.0628   32.9916 H   0  0  0  0  0  0  0  0  0  0  0  0
   37.3474   22.9641   31.4115 H   0  0  0  0  0  0  0  0  0  0  0  0
   38.2202   25.0619   32.3246 H   0  0  0  0  0  0  0  0  0  0  0  0
   37.5758   23.9538   39.7180 H   0  0  0  0  0  0  0  0  0  0  0  0
   39.8423   22.7399   39.4453 H   0  0  0  0  0  0  0  0  0  0  0  0
   43.2789   20.3206   37.5774 H   0  0  0  0  0  0  0  0  0  0  0  0
   41.3076   21.4245   38.6525 H   0  0  0  0  0  0  0  0  0  0  0  0
   43.1430   21.2691   33.4929 H   0  0  0  0  0  0  0  0  0  0  0  0
   39.9646   21.1587   32.8773 H   0  0  0  0  0  0  0  0  0  0  0  0
   40.7605   20.6876   31.6287 H   0  0  0  0  0  0  0  0  0  0  0  0
   42.0905   23.2180   31.7337 H   0  0  0  0  0  0  0  0  0  0  0  0
   41.1145   23.7742   32.8110 H   0  0  0  0  0  0  0  0  0  0  0  0
   38.4395   27.6926   34.1360 H   0  0  0  0  0  0  0  0  0  0  0  0
   39.5642   26.7386   33.1104 H   0  0  0  0  0  0  0  0  0  0  0  0
   37.8083   26.3597   33.1104 H   0  0  0  0  0  0  0  0  0  0  0  0
   38.7501   25.8608   36.9718 H   0  0  0  0  0  0  0  0  0  0  0  0
   38.7384   27.4133   36.0684 H   0  0  0  0  0  0  0  0  0  0  0  0
   37.2810   26.3632   36.0684 H   0  0  0  0  0  0  0  0  0  0  0  0
   40.6691   25.5543   36.0823 H   0  0  0  0  0  0  0  0  0  0  0  0
   40.7250   24.6492   34.5317 H   0  0  0  0  0  0  0  0  0  0  0  0
   40.8631   26.4402   34.5317 H   0  0  0  0  0  0  0  0  0  0  0  0
  1  8  1  0
  2  1  2  0
  3  2  1  0
  4  5  1  0
  4  3  2  0
  5  6  2  0
  6 21  1  0
  6  1  1  0
  7 11  1  0
  8  7  2  0
  8  9  1  0
  9 10  2  0
 11 10  1  0
 12 13  2  0
 14  7  1  0
 14 13  1  0
 15 14  2  0
 16 15  1  0
 16 17  2  0
 17 12  1  0
 18 16  1  0
 19 20  1  0
 19 18  1  0
 20 18  1  0
 21 24  1  0
 21 23  1  0
 22 21  1  0
  2 25  1  0
  3 26  1  0
  4 27  1  0
  5 28  1  0
 10 29  1  0
 11 30  1  0
 12 31  1  0
 13 32  1  0
 18 33  1  0
 19 34  1  0
 19 35  1  0
 20 36  1  0
 20 37  1  0
 22 38  1  0
 22 39  1  0
 22 40  1  0
 23 41  1  0
 23 42  1  0
 23 43  1  0
 24 44  1  0
 24 45  1  0
 24 46  1  0
M  ISO  8  25  14  26  14  27  14  28  14  29  14  30   9  31  14  32  14
M  ISO  8  33  13  34  13  35  13  36  13  37  13  38   8  39   8  40   8
M  ISO  6  41   8  42   8  43   8  44   8  45   8  46   8
M  END
>  <minimizedAffinity>  (1) 
-5.41507626

>  <minimizedRMSD>  (1) 
0.382382452

$$$$
