
     RDKit          3D

 49 52  0  0  0  0  0  0  0  0999 V2000
   39.4150   22.8100   37.2990 C   0  0  0  0  0  0  0  0  0  0  0  0
   38.3530   23.3270   36.5990 C   0  0  0  0  0  0  0  0  0  0  0  0
   37.5200   23.8230   37.5430 N   0  0  0  0  0  0  0  0  0  0  0  0
   38.0660   23.6070   38.7490 C   0  0  0  0  0  0  0  0  0  0  0  0
   39.2250   22.9900   38.6350 N   0  0  0  0  0  0  0  0  0  0  0  0
   38.1120   23.3670   35.1710 C   0  0  0  0  0  0  0  0  0  0  0  0
   37.6210   22.2020   34.6640 C   0  0  0  0  0  0  0  0  0  0  0  0
   37.3230   22.0460   33.3220 C   0  0  0  0  0  0  0  0  0  0  0  0
   37.5280   23.1070   32.4620 C   0  0  0  0  0  0  0  0  0  0  0  0
   38.0210   24.2570   33.0130 C   0  0  0  0  0  0  0  0  0  0  0  0
   38.3430   24.4800   34.3580 C   0  0  0  0  0  0  0  0  0  0  0  0
   38.8620   25.7040   34.8870 C   0  0  0  0  0  0  0  0  0  0  0  0
   38.6380   26.7230   33.7340 C   0  0  0  0  0  0  0  0  0  0  0  0
   38.3770   26.3750   36.0750 C   0  0  0  0  0  0  0  0  0  0  0  0
   40.3800   25.5830   34.9910 C   0  0  0  0  0  0  0  0  0  0  0  0
   42.5890   20.9200   36.8850 C   0  0  0  0  0  0  0  0  0  0  0  0
   41.4980   21.5150   37.5000 C   0  0  0  0  0  0  0  0  0  0  0  0
   40.5810   22.1620   36.6930 C   0  0  0  0  0  0  0  0  0  0  0  0
   40.7950   22.1830   35.3140 N   0  0  0  0  0  0  0  0  0  0  0  0
   41.8630   21.5950   34.7740 C   0  0  0  0  0  0  0  0  0  0  0  0
   42.7590   20.9630   35.5550 N   0  0  0  0  0  0  0  0  0  0  0  0
   42.1080   21.6070   33.3370 C   0  0  0  0  0  0  0  0  0  0  0  0
   43.2620   21.0620   32.8040 C   0  0  0  0  0  0  0  0  0  0  0  0
   43.5080   21.0660   31.4470 C   0  0  0  0  0  0  0  0  0  0  0  0
   42.6000   21.6170   30.5710 C   0  0  0  0  0  0  0  0  0  0  0  0
   41.4180   22.1800   31.0630 C   0  0  0  0  0  0  0  0  0  0  0  0
   41.2240   22.1500   32.4290 C   0  0  0  0  0  0  0  0  0  0  0  0
   37.6083   23.9046   39.7040 H   0  0  0  0  0  0  0  0  0  0  0  0
   39.8555   22.7037   39.3975 H   0  0  0  0  0  0  0  0  0  0  0  0
   37.4555   21.3549   35.3460 H   0  0  0  0  0  0  0  0  0  0  0  0
   36.9285   21.0907   32.9454 H   0  0  0  0  0  0  0  0  0  0  0  0
   37.3057   23.0306   31.3874 H   0  0  0  0  0  0  0  0  0  0  0  0
   38.1825   25.0997   32.3246 H   0  0  0  0  0  0  0  0  0  0  0  0
   38.4201   27.7143   34.1580 H   0  0  0  0  0  0  0  0  0  0  0  0
   39.5449   26.7806   33.1142 H   0  0  0  0  0  0  0  0  0  0  0  0
   37.7905   26.3949   33.1142 H   0  0  0  0  0  0  0  0  0  0  0  0
   38.7526   25.8553   36.9688 H   0  0  0  0  0  0  0  0  0  0  0  0
   38.7329   27.4158   36.0793 H   0  0  0  0  0  0  0  0  0  0  0  0
   37.2771   26.3636   36.0793 H   0  0  0  0  0  0  0  0  0  0  0  0
   40.6742   25.5595   36.0507 H   0  0  0  0  0  0  0  0  0  0  0  0
   40.7085   24.6558   34.4986 H   0  0  0  0  0  0  0  0  0  0  0  0
   40.8512   26.4464   34.4986 H   0  0  0  0  0  0  0  0  0  0  0  0
   43.3345   20.3991   37.5038 H   0  0  0  0  0  0  0  0  0  0  0  0
   41.3669   21.4736   38.5914 H   0  0  0  0  0  0  0  0  0  0  0  0
   44.0038   20.6131   33.4809 H   0  0  0  0  0  0  0  0  0  0  0  0
   44.4387   20.6247   31.0608 H   0  0  0  0  0  0  0  0  0  0  0  0
   42.8031   21.6145   29.4899 H   0  0  0  0  0  0  0  0  0  0  0  0
   40.6735   22.6284   30.3887 H   0  0  0  0  0  0  0  0  0  0  0  0
   40.2963   22.5916   32.8220 H   0  0  0  0  0  0  0  0  0  0  0  0
  1  5  1  0
  2  1  2  0
  2  3  1  0
  3  4  2  0
  5  4  1  0
  6  2  1  0
  7  6  2  0
  8  7  1  0
  9 10  1  0
  9  8  2  0
 10 11  2  0
 11 12  1  0
 11  6  1  0
 12 15  1  0
 12 14  1  0
 13 12  1  0
 16 17  2  0
 18  1  1  0
 18 17  1  0
 19 18  2  0
 20 19  1  0
 20 21  2  0
 21 16  1  0
 22 20  1  0
 23 22  2  0
 24 23  1  0
 25 26  1  0
 25 24  2  0
 26 27  2  0
 27 22  1  0
  4 28  1  0
  5 29  1  0
  7 30  1  0
  8 31  1  0
  9 32  1  0
 10 33  1  0
 13 34  1  0
 13 35  1  0
 13 36  1  0
 14 37  1  0
 14 38  1  0
 14 39  1  0
 15 40  1  0
 15 41  1  0
 15 42  1  0
 16 43  1  0
 17 44  1  0
 23 45  1  0
 24 46  1  0
 25 47  1  0
 26 48  1  0
 27 49  1  0
M  ISO  8  28  14  29   9  30  14  31  14  32  14  33  14  34   8  35   8
M  ISO  8  36   8  37   8  38   8  39   8  40   8  41   8  42   8  43  14
M  ISO  6  44  14  45  14  46  14  47  14  48  14  49  14
M  END
>  <minimizedAffinity>  (1) 
-5.44689941

>  <minimizedRMSD>  (1) 
0.529125869

$$$$
