
     RDKit          3D

 46 49  0  0  0  0  0  0  0  0999 V2000
   38.1200   23.3640   35.1890 C   0  0  0  0  0  0  0  0  0  0  0  0
   37.6370   22.1940   34.6930 C   0  0  0  0  0  0  0  0  0  0  0  0
   37.3430   22.0280   33.3540 C   0  0  0  0  0  0  0  0  0  0  0  0
   37.5430   23.0790   32.4810 C   0  0  0  0  0  0  0  0  0  0  0  0
   38.0330   24.2480   33.0120 C   0  0  0  0  0  0  0  0  0  0  0  0
   38.3520   24.4760   34.3730 C   0  0  0  0  0  0  0  0  0  0  0  0
   39.4200   22.8190   37.3270 C   0  0  0  0  0  0  0  0  0  0  0  0
   38.3600   23.3370   36.6220 C   0  0  0  0  0  0  0  0  0  0  0  0
   37.5330   23.8490   37.5600 N   0  0  0  0  0  0  0  0  0  0  0  0
   38.0760   23.6450   38.7680 C   0  0  0  0  0  0  0  0  0  0  0  0
   39.2300   23.0170   38.6620 N   0  0  0  0  0  0  0  0  0  0  0  0
   42.5670   20.8690   36.9090 C   0  0  0  0  0  0  0  0  0  0  0  0
   41.4790   21.4830   37.5280 C   0  0  0  0  0  0  0  0  0  0  0  0
   40.5730   22.1560   36.7280 C   0  0  0  0  0  0  0  0  0  0  0  0
   40.8020   22.1820   35.3520 N   0  0  0  0  0  0  0  0  0  0  0  0
   41.8650   21.5750   34.8140 C   0  0  0  0  0  0  0  0  0  0  0  0
   42.7410   20.9240   35.5750 N   0  0  0  0  0  0  0  0  0  0  0  0
   42.0760   21.6220   33.3700 C   0  0  0  0  0  0  0  0  0  0  0  0
   41.2340   22.1750   32.4250 C   0  0  0  0  0  0  0  0  0  0  0  0
   41.7450   22.0380   31.1870 N   0  0  0  0  0  0  0  0  0  0  0  0
   42.9310   21.3900   31.3290 C   0  0  0  0  0  0  0  0  0  0  0  0
   43.1030   21.1540   32.6370 N   0  0  0  0  0  0  0  0  0  0  0  0
   38.8690   25.7060   34.8930 C   0  0  0  0  0  0  0  0  0  0  0  0
   38.6530   26.7090   33.7250 C   0  0  0  0  0  0  0  0  0  0  0  0
   38.3510   26.3850   36.0630 C   0  0  0  0  0  0  0  0  0  0  0  0
   40.3800   25.5860   35.0160 C   0  0  0  0  0  0  0  0  0  0  0  0
   37.4750   21.3514   35.3813 H   0  0  0  0  0  0  0  0  0  0  0  0
   36.9531   21.0674   32.9862 H   0  0  0  0  0  0  0  0  0  0  0  0
   37.3200   22.9847   31.4080 H   0  0  0  0  0  0  0  0  0  0  0  0
   38.1922   25.0843   32.3153 H   0  0  0  0  0  0  0  0  0  0  0  0
   37.6206   23.9590   39.7188 H   0  0  0  0  0  0  0  0  0  0  0  0
   39.8575   22.7347   39.4284 H   0  0  0  0  0  0  0  0  0  0  0  0
   43.3001   20.3272   37.5246 H   0  0  0  0  0  0  0  0  0  0  0  0
   41.3452   21.4338   38.6187 H   0  0  0  0  0  0  0  0  0  0  0  0
   40.2745   22.6621   32.6533 H   0  0  0  0  0  0  0  0  0  0  0  0
   43.6221   21.1108   30.5200 H   0  0  0  0  0  0  0  0  0  0  0  0
   43.9226   20.6724   33.0335 H   0  0  0  0  0  0  0  0  0  0  0  0
   38.4380   27.7073   34.1340 H   0  0  0  0  0  0  0  0  0  0  0  0
   39.5621   26.7538   33.1073 H   0  0  0  0  0  0  0  0  0  0  0  0
   37.8061   26.3756   33.1073 H   0  0  0  0  0  0  0  0  0  0  0  0
   38.7280   25.8909   36.9706 H   0  0  0  0  0  0  0  0  0  0  0  0
   38.6799   27.4346   36.0534 H   0  0  0  0  0  0  0  0  0  0  0  0
   37.2518   26.3451   36.0534 H   0  0  0  0  0  0  0  0  0  0  0  0
   40.6607   25.5637   36.0793 H   0  0  0  0  0  0  0  0  0  0  0  0
   40.7150   24.6584   34.5288 H   0  0  0  0  0  0  0  0  0  0  0  0
   40.8572   26.4491   34.5288 H   0  0  0  0  0  0  0  0  0  0  0  0
  1  8  1  0
  2  1  2  0
  3  2  1  0
  4  5  1  0
  4  3  2  0
  5  6  2  0
  6 23  1  0
  6  1  1  0
  7 11  1  0
  8  7  2  0
  8  9  1  0
  9 10  2  0
 11 10  1  0
 12 13  2  0
 14  7  1  0
 14 13  1  0
 15 14  2  0
 16 15  1  0
 16 17  2  0
 17 12  1  0
 18 16  1  0
 19 18  2  0
 20 21  2  0
 20 19  1  0
 21 22  1  0
 22 18  1  0
 23 26  1  0
 23 25  1  0
 24 23  1  0
  2 27  1  0
  3 28  1  0
  4 29  1  0
  5 30  1  0
 10 31  1  0
 11 32  1  0
 12 33  1  0
 13 34  1  0
 19 35  1  0
 21 36  1  0
 22 37  1  0
 24 38  1  0
 24 39  1  0
 24 40  1  0
 25 41  1  0
 25 42  1  0
 25 43  1  0
 26 44  1  0
 26 45  1  0
 26 46  1  0
M  ISO  8  27  14  28  14  29  14  30  14  31  14  32   9  33  14  34  14
M  ISO  8  35  14  36  14  37   9  38   8  39   8  40   8  41   8  42   8
M  ISO  4  43   8  44   8  45   8  46   8
M  END
>  <minimizedAffinity>  (1) 
-5.4293561

>  <minimizedRMSD>  (1) 
0.513725042

$$$$
