
     RDKit          3D

 41 43  0  0  0  0  0  0  0  0999 V2000
   38.1310   23.3630   35.1980 C   0  0  0  0  0  0  0  0  0  0  0  0
   37.6490   22.1860   34.6960 C   0  0  0  0  0  0  0  0  0  0  0  0
   37.3680   22.0170   33.3600 C   0  0  0  0  0  0  0  0  0  0  0  0
   37.5710   23.0560   32.4870 C   0  0  0  0  0  0  0  0  0  0  0  0
   38.0560   24.2280   33.0160 C   0  0  0  0  0  0  0  0  0  0  0  0
   38.3660   24.4640   34.3830 C   0  0  0  0  0  0  0  0  0  0  0  0
   39.4180   22.8220   37.3520 C   0  0  0  0  0  0  0  0  0  0  0  0
   38.3600   23.3370   36.6270 C   0  0  0  0  0  0  0  0  0  0  0  0
   37.5250   23.8460   37.5580 N   0  0  0  0  0  0  0  0  0  0  0  0
   38.0560   23.6460   38.7700 C   0  0  0  0  0  0  0  0  0  0  0  0
   39.2170   23.0190   38.6790 N   0  0  0  0  0  0  0  0  0  0  0  0
   42.5650   20.8620   36.9600 C   0  0  0  0  0  0  0  0  0  0  0  0
   41.4690   21.4810   37.5640 C   0  0  0  0  0  0  0  0  0  0  0  0
   40.5710   22.1640   36.7490 C   0  0  0  0  0  0  0  0  0  0  0  0
   40.8170   22.1870   35.3920 N   0  0  0  0  0  0  0  0  0  0  0  0
   41.8860   21.5760   34.8550 C   0  0  0  0  0  0  0  0  0  0  0  0
   42.7520   20.9180   35.6330 N   0  0  0  0  0  0  0  0  0  0  0  0
   42.1040   21.6310   33.3970 C   0  0  0  0  0  0  0  0  0  0  0  0
   41.2050   22.1010   32.6520 O   0  0  0  0  0  0  0  0  0  0  0  0
   38.8710   25.7030   34.8920 C   0  0  0  0  0  0  0  0  0  0  0  0
   38.6550   26.6980   33.7230 C   0  0  0  0  0  0  0  0  0  0  0  0
   38.3640   26.3800   36.0640 C   0  0  0  0  0  0  0  0  0  0  0  0
   40.3870   25.5880   35.0270 C   0  0  0  0  0  0  0  0  0  0  0  0
   37.4800   21.3449   35.3845 H   0  0  0  0  0  0  0  0  0  0  0  0
   36.9826   21.0541   32.9935 H   0  0  0  0  0  0  0  0  0  0  0  0
   37.3554   22.9554   31.4130 H   0  0  0  0  0  0  0  0  0  0  0  0
   38.2195   25.0610   32.3164 H   0  0  0  0  0  0  0  0  0  0  0  0
   37.5895   23.9608   39.7151 H   0  0  0  0  0  0  0  0  0  0  0  0
   39.8374   22.7394   39.4522 H   0  0  0  0  0  0  0  0  0  0  0  0
   43.2890   20.3180   37.5844 H   0  0  0  0  0  0  0  0  0  0  0  0
   41.3195   21.4304   38.6526 H   0  0  0  0  0  0  0  0  0  0  0  0
   43.0460   21.2637   32.9638 H   0  0  0  0  0  0  0  0  0  0  0  0
   38.4380   27.6976   34.1277 H   0  0  0  0  0  0  0  0  0  0  0  0
   39.5646   26.7418   33.1059 H   0  0  0  0  0  0  0  0  0  0  0  0
   37.8092   26.3607   33.1059 H   0  0  0  0  0  0  0  0  0  0  0  0
   38.7395   25.8786   36.9682 H   0  0  0  0  0  0  0  0  0  0  0  0
   38.7022   27.4267   36.0579 H   0  0  0  0  0  0  0  0  0  0  0  0
   37.2644   26.3499   36.0579 H   0  0  0  0  0  0  0  0  0  0  0  0
   40.6597   25.5673   36.0925 H   0  0  0  0  0  0  0  0  0  0  0  0
   40.7290   24.6613   34.5429 H   0  0  0  0  0  0  0  0  0  0  0  0
   40.8649   26.4525   34.5429 H   0  0  0  0  0  0  0  0  0  0  0  0
  1  8  1  0
  2  1  2  0
  3  2  1  0
  4  5  1  0
  4  3  2  0
  5  6  2  0
  6 20  1  0
  6  1  1  0
  7 11  1  0
  8  7  2  0
  8  9  1  0
  9 10  2  0
 11 10  1  0
 12 13  2  0
 14  7  1  0
 14 13  1  0
 15 14  2  0
 16 15  1  0
 16 17  2  0
 17 12  1  0
 18 16  1  0
 19 18  2  0
 20 23  1  0
 20 22  1  0
 21 20  1  0
  2 24  1  0
  3 25  1  0
  4 26  1  0
  5 27  1  0
 10 28  1  0
 11 29  1  0
 12 30  1  0
 13 31  1  0
 18 32  1  0
 21 33  1  0
 21 34  1  0
 21 35  1  0
 22 36  1  0
 22 37  1  0
 22 38  1  0
 23 39  1  0
 23 40  1  0
 23 41  1  0
M  ISO  8  24  14  25  14  26  14  27  14  28  14  29   9  30  14  31  14
M  ISO  8  32   6  33   8  34   8  35   8  36   8  37   8  38   8  39   8
M  ISO  2  40   8  41   8
M  END
>  <minimizedAffinity>  (1) 
-5.37364244

>  <minimizedRMSD>  (1) 
0.245097026

$$$$
