
     RDKit          3D

 42 45  0  0  1  0  0  0  0  0999 V2000
   37.5640   25.9820   33.8010 N   0  0  0  0  0  0  0  0  0  0  0  0
   37.5420   24.6390   33.6080 C   0  0  0  0  0  0  0  0  0  0  0  0
   37.6360   24.0370   32.3820 C   0  0  0  0  0  0  0  0  0  0  0  0
   37.7620   24.8160   31.2480 C   0  0  0  0  0  0  0  0  0  0  0  0
   37.8490   24.2800   30.1170 O   0  0  0  0  0  0  0  0  0  0  0  0
   37.7870   26.1440   31.3820 N   0  0  0  0  0  0  0  0  0  0  0  0
   37.6910   26.6660   32.6100 C   0  0  0  0  0  0  0  0  0  0  0  0
   37.7160   27.9450   32.6940 O   0  0  0  0  0  0  0  0  0  0  0  0
   38.0220   26.3380   36.3300 C   0  0  1  0  0  0  0  0  0  0  0  0
   38.7680   27.3090   35.4740 C   0  0  0  0  0  0  0  0  0  0  0  0
   37.4860   26.7100   35.0140 C   0  0  1  0  0  0  0  0  0  0  0  0
   38.6230   25.0130   36.6440 C   0  0  0  0  0  0  0  0  0  0  0  0
   38.0520   24.3390   37.7340 C   0  0  0  0  0  0  0  0  0  0  0  0
   38.5850   23.0940   38.0760 C   0  0  0  0  0  0  0  0  0  0  0  0
   39.6230   22.6170   37.3330 N   0  0  0  0  0  0  0  0  0  0  0  0
   40.1310   23.3080   36.2960 C   0  0  0  0  0  0  0  0  0  0  0  0
   39.6470   24.5010   35.9390 N   0  0  0  0  0  0  0  0  0  0  0  0
   37.8840   28.4990   28.0920 N   0  0  0  0  0  0  0  0  0  0  0  0
   37.2880   29.1460   29.2610 C   0  0  0  0  0  0  0  0  0  0  0  0
   36.8300   27.9900   30.1590 C   0  0  0  0  0  0  0  0  0  0  0  0
   37.9160   26.9230   30.2050 C   0  0  0  0  0  0  0  0  0  0  0  0
   39.2200   27.5560   29.9270 C   0  0  0  0  0  0  0  0  0  0  0  0
   39.2020   28.0560   28.4750 C   0  0  0  0  0  0  0  0  0  0  0  0
   37.4423   23.9930   34.4928 H   0  0  0  0  0  0  0  0  0  0  0  0
   37.6114   22.9403   32.3004 H   0  0  0  0  0  0  0  0  0  0  0  0
   37.5893   26.3276   37.3413 H   0  0  0  0  0  0  0  0  0  0  0  0
   38.8125   28.3719   35.7538 H   0  0  0  0  0  0  0  0  0  0  0  0
   39.7901   27.3757   35.0729 H   0  0  0  0  0  0  0  0  0  0  0  0
   36.4625   27.0011   34.7353 H   0  0  0  0  0  0  0  0  0  0  0  0
   37.2149   24.7752   38.2988 H   0  0  0  0  0  0  0  0  0  0  0  0
   38.1792   22.5161   38.9195 H   0  0  0  0  0  0  0  0  0  0  0  0
   40.9682   22.8785   35.7263 H   0  0  0  0  0  0  0  0  0  0  0  0
   37.9497   29.1694   27.3128 H   0  0  0  0  0  0  0  0  0  0  0  0
   38.0315   29.7686   29.7802 H   0  0  0  0  0  0  0  0  0  0  0  0
   36.4572   29.8130   28.9874 H   0  0  0  0  0  0  0  0  0  0  0  0
   36.6428   28.3669   31.1753 H   0  0  0  0  0  0  0  0  0  0  0  0
   35.9047   27.5547   29.7536 H   0  0  0  0  0  0  0  0  0  0  0  0
   37.8127   26.1698   29.4100 H   0  0  0  0  0  0  0  0  0  0  0  0
   39.3782   28.4022   30.6117 H   0  0  0  0  0  0  0  0  0  0  0  0
   40.0359   26.8328   30.0732 H   0  0  0  0  0  0  0  0  0  0  0  0
   39.5126   27.2370   27.8097 H   0  0  0  0  0  0  0  0  0  0  0  0
   39.8935   28.9073   28.3913 H   0  0  0  0  0  0  0  0  0  0  0  0
  1 11  1  0
  2  1  1  0
  3  2  2  0
  4  6  1  0
  4  3  1  0
  5  4  2  0
  6  7  1  0
  7  8  2  0
  7  1  1  0
  9 12  1  0
 10  9  1  0
 11 10  1  0
 11  9  1  0
 12 13  2  0
 13 14  1  0
 15 14  2  0
 16 15  1  0
 17 16  2  0
 17 12  1  0
 18 23  1  0
 18 19  1  0
 19 20  1  0
 20 21  1  0
 21  6  1  0
 22 21  1  0
 23 22  1  0
  2 24  1  0
  3 25  1  0
  9 26  1  1
 10 27  1  0
 10 28  1  0
 11 29  1  1
 13 30  1  0
 14 31  1  0
 16 32  1  0
 18 33  1  0
 19 34  1  0
 19 35  1  0
 20 36  1  0
 20 37  1  0
 21 38  1  0
 22 39  1  0
 22 40  1  0
 23 41  1  0
 23 42  1  0
M  ISO  8  24  14  25  14  26  13  27  13  28  13  29  13  30  14  31  14
M  ISO  8  32  14  33   5  34  13  35  13  36  13  37  13  38  13  39  13
M  ISO  3  40  13  41  13  42  13
M  END
>  <minimizedAffinity>  (1) 
-5.29071188

>  <minimizedRMSD>  (1) 
0.990764022

$$$$
