
     RDKit          3D

 34 37  0  0  1  0  0  0  0  0999 V2000
   37.6230   26.0350   33.6510 N   0  0  0  0  0  0  0  0  0  0  0  0
   37.8210   24.7170   33.4010 C   0  0  0  0  0  0  0  0  0  0  0  0
   38.0730   24.1830   32.1740 C   0  0  0  0  0  0  0  0  0  0  0  0
   38.1360   25.0390   31.0770 C   0  0  0  0  0  0  0  0  0  0  0  0
   38.3660   24.6010   29.9260 O   0  0  0  0  0  0  0  0  0  0  0  0
   37.9460   26.3720   31.2450 N   0  0  0  0  0  0  0  0  0  0  0  0
   37.7030   26.7830   32.5140 C   0  0  0  0  0  0  0  0  0  0  0  0
   37.5280   28.0500   32.6480 O   0  0  0  0  0  0  0  0  0  0  0  0
   37.9920   27.3140   30.1780 C   0  0  0  0  0  0  0  0  0  0  0  0
   39.0310   27.3140   29.2480 C   0  0  0  0  0  0  0  0  0  0  0  0
   38.7730   28.3370   28.3630 C   0  0  0  0  0  0  0  0  0  0  0  0
   37.6140   28.9370   28.7490 N   0  0  0  0  0  0  0  0  0  0  0  0
   37.1380   28.3240   29.8430 N   0  0  0  0  0  0  0  0  0  0  0  0
   37.8210   26.2850   36.2280 C   0  0  1  0  0  0  0  0  0  0  0  0
   38.5180   27.3770   35.4920 C   0  0  0  0  0  0  0  0  0  0  0  0
   37.3630   26.6770   34.8900 C   0  0  1  0  0  0  0  0  0  0  0  0
   38.5140   25.0070   36.5350 C   0  0  0  0  0  0  0  0  0  0  0  0
   38.0140   24.2840   37.6160 C   0  0  0  0  0  0  0  0  0  0  0  0
   38.6270   23.0840   37.9520 C   0  0  0  0  0  0  0  0  0  0  0  0
   39.7010   22.6860   37.1850 N   0  0  0  0  0  0  0  0  0  0  0  0
   40.1420   23.4290   36.1480 C   0  0  0  0  0  0  0  0  0  0  0  0
   39.5640   24.5830   35.8150 N   0  0  0  0  0  0  0  0  0  0  0  0
   37.7744   24.0258   34.2554 H   0  0  0  0  0  0  0  0  0  0  0  0
   38.2234   23.1002   32.0519 H   0  0  0  0  0  0  0  0  0  0  0  0
   39.8912   26.6287   29.2256 H   0  0  0  0  0  0  0  0  0  0  0  0
   39.3926   28.6187   27.4989 H   0  0  0  0  0  0  0  0  0  0  0  0
   37.1713   29.7371   28.2749 H   0  0  0  0  0  0  0  0  0  0  0  0
   37.3171   26.1717   37.1992 H   0  0  0  0  0  0  0  0  0  0  0  0
   38.4180   28.4199   35.8271 H   0  0  0  0  0  0  0  0  0  0  0  0
   39.5562   27.5771   35.1886 H   0  0  0  0  0  0  0  0  0  0  0  0
   36.3413   26.8739   34.5330 H   0  0  0  0  0  0  0  0  0  0  0  0
   37.1527   24.6555   38.1906 H   0  0  0  0  0  0  0  0  0  0  0  0
   38.2699   22.4757   38.7961 H   0  0  0  0  0  0  0  0  0  0  0  0
   41.0018   23.0725   35.5618 H   0  0  0  0  0  0  0  0  0  0  0  0
  1 16  1  0
  2  1  1  0
  3  2  2  0
  4  6  1  0
  4  3  1  0
  5  4  2  0
  6  7  1  0
  7  8  2  0
  7  1  1  0
  9  6  1  0
 10  9  1  0
 11 12  1  0
 11 10  2  0
 12 13  1  0
 13  9  2  0
 14 17  1  0
 15 14  1  0
 16 15  1  0
 16 14  1  0
 17 18  2  0
 18 19  1  0
 20 19  2  0
 21 20  1  0
 22 21  2  0
 22 17  1  0
  2 23  1  0
  3 24  1  0
 10 25  1  0
 11 26  1  0
 12 27  1  0
 14 28  1  1
 15 29  1  0
 15 30  1  0
 16 31  1  1
 18 32  1  0
 19 33  1  0
 21 34  1  0
M  ISO  8  23  14  24  14  25  14  26  14  27   9  28  13  29  13  30  13
M  ISO  4  31  13  32  14  33  14  34  14
M  END
>  <minimizedAffinity>  (1) 
-5.17087173

>  <minimizedRMSD>  (1) 
0.962722719

$$$$
