
     RDKit          3D

 41 45  0  0  1  0  0  0  0  0999 V2000
   37.5590   26.0140   33.6550 N   0  0  0  0  0  0  0  0  0  0  0  0
   37.7780   24.7260   33.2930 C   0  0  0  0  0  0  0  0  0  0  0  0
   38.0710   24.3120   32.0280 C   0  0  0  0  0  0  0  0  0  0  0  0
   38.1550   25.2620   31.0150 C   0  0  0  0  0  0  0  0  0  0  0  0
   38.4220   24.9250   29.8360 O   0  0  0  0  0  0  0  0  0  0  0  0
   37.9460   26.5710   31.2980 N   0  0  0  0  0  0  0  0  0  0  0  0
   37.6630   26.8790   32.5850 C   0  0  0  0  0  0  0  0  0  0  0  0
   37.4710   28.1160   32.8230 O   0  0  0  0  0  0  0  0  0  0  0  0
   38.0140   27.6000   30.3170 C   0  0  0  0  0  0  0  0  0  0  0  0
   37.0740   28.2300   29.5310 C   0  0  0  0  0  0  0  0  0  0  0  0
   37.6740   29.1560   28.7490 N   0  0  0  0  0  0  0  0  0  0  0  0
   39.0040   29.1550   29.0020 C   0  0  0  0  0  0  0  0  0  0  0  0
   40.0490   29.8920   28.4840 C   0  0  0  0  0  0  0  0  0  0  0  0
   41.3610   29.7010   28.9160 C   0  0  0  0  0  0  0  0  0  0  0  0
   41.5930   28.7380   29.8910 C   0  0  0  0  0  0  0  0  0  0  0  0
   40.5310   28.0160   30.3890 C   0  0  0  0  0  0  0  0  0  0  0  0
   39.2250   28.1870   29.9780 C   0  0  0  0  0  0  0  0  0  0  0  0
   37.7780   26.1030   36.2410 C   0  0  1  0  0  0  0  0  0  0  0  0
   38.3600   27.3090   35.5720 C   0  0  0  0  0  0  0  0  0  0  0  0
   37.2600   26.5410   34.9380 C   0  0  1  0  0  0  0  0  0  0  0  0
   38.6040   24.8830   36.4460 C   0  0  0  0  0  0  0  0  0  0  0  0
   38.1880   24.0310   37.4670 C   0  0  0  0  0  0  0  0  0  0  0  0
   38.9370   22.8790   37.7020 C   0  0  0  0  0  0  0  0  0  0  0  0
   40.0290   22.6540   36.9220 N   0  0  0  0  0  0  0  0  0  0  0  0
   40.3880   23.5190   35.9420 C   0  0  0  0  0  0  0  0  0  0  0  0
   39.6890   24.6290   35.6960 N   0  0  0  0  0  0  0  0  0  0  0  0
   37.7145   23.9584   34.0783 H   0  0  0  0  0  0  0  0  0  0  0  0
   38.2380   23.2464   31.8119 H   0  0  0  0  0  0  0  0  0  0  0  0
   35.9958   28.0122   29.5384 H   0  0  0  0  0  0  0  0  0  0  0  0
   37.1956   29.7647   28.0696 H   0  0  0  0  0  0  0  0  0  0  0  0
   39.8423   30.6480   27.7121 H   0  0  0  0  0  0  0  0  0  0  0  0
   42.1874   30.2945   28.4978 H   0  0  0  0  0  0  0  0  0  0  0  0
   42.6127   28.5546   30.2606 H   0  0  0  0  0  0  0  0  0  0  0  0
   40.7361   27.2585   31.1598 H   0  0  0  0  0  0  0  0  0  0  0  0
   37.3011   25.8743   37.2055 H   0  0  0  0  0  0  0  0  0  0  0  0
   38.1697   28.3128   35.9796 H   0  0  0  0  0  0  0  0  0  0  0  0
   39.3688   27.6269   35.2700 H   0  0  0  0  0  0  0  0  0  0  0  0
   36.2170   26.6625   34.6102 H   0  0  0  0  0  0  0  0  0  0  0  0
   37.2963   24.2603   38.0689 H   0  0  0  0  0  0  0  0  0  0  0  0
   38.6533   22.1719   38.4955 H   0  0  0  0  0  0  0  0  0  0  0  0
   41.2782   23.3005   35.3339 H   0  0  0  0  0  0  0  0  0  0  0  0
  1 20  1  0
  2  1  1  0
  3  2  2  0
  4  6  1  0
  4  3  1  0
  5  4  2  0
  6  7  1  0
  7  8  2  0
  7  1  1  0
  9  6  1  0
 10  9  2  0
 11 12  1  0
 11 10  1  0
 12 17  2  0
 13 14  2  0
 13 12  1  0
 14 15  1  0
 15 16  2  0
 17  9  1  0
 17 16  1  0
 18 21  1  0
 19 18  1  0
 20 19  1  0
 20 18  1  0
 21 22  2  0
 22 23  1  0
 24 23  2  0
 25 24  1  0
 26 25  2  0
 26 21  1  0
  2 27  1  0
  3 28  1  0
 10 29  1  0
 11 30  1  0
 13 31  1  0
 14 32  1  0
 15 33  1  0
 16 34  1  0
 18 35  1  1
 19 36  1  0
 19 37  1  0
 20 38  1  1
 22 39  1  0
 23 40  1  0
 25 41  1  0
M  ISO  8  27  14  28  14  29  14  30   9  31  14  32  14  33  14  34  14
M  ISO  7  35  13  36  13  37  13  38  13  39  14  40  14  41  14
M  END
>  <minimizedAffinity>  (1) 
-5.23359489

>  <minimizedRMSD>  (1) 
1.80279255

$$$$
