
     RDKit          3D

 35 38  0  0  1  0  0  0  0  0999 V2000
   37.5440   26.0000   33.6290 N   0  0  0  0  0  0  0  0  0  0  0  0
   37.5260   24.6770   33.3350 C   0  0  0  0  0  0  0  0  0  0  0  0
   37.7610   24.1490   32.1040 C   0  0  0  0  0  0  0  0  0  0  0  0
   38.0420   25.0110   31.0480 C   0  0  0  0  0  0  0  0  0  0  0  0
   38.2640   24.5700   29.8950 O   0  0  0  0  0  0  0  0  0  0  0  0
   38.0760   26.3500   31.2580 N   0  0  0  0  0  0  0  0  0  0  0  0
   37.8290   26.7680   32.5200 C   0  0  0  0  0  0  0  0  0  0  0  0
   37.8650   28.0340   32.7040 O   0  0  0  0  0  0  0  0  0  0  0  0
   37.8000   26.2400   36.2000 C   0  0  1  0  0  0  0  0  0  0  0  0
   38.4760   27.3430   35.4490 C   0  0  0  0  0  0  0  0  0  0  0  0
   37.3180   26.6400   34.8740 C   0  0  1  0  0  0  0  0  0  0  0  0
   38.5180   24.9700   36.4810 C   0  0  0  0  0  0  0  0  0  0  0  0
   38.0290   24.2190   37.5480 C   0  0  0  0  0  0  0  0  0  0  0  0
   38.6760   23.0240   37.8570 C   0  0  0  0  0  0  0  0  0  0  0  0
   39.7500   22.6600   37.0960 N   0  0  0  0  0  0  0  0  0  0  0  0
   40.1790   23.4290   36.0730 C   0  0  0  0  0  0  0  0  0  0  0  0
   39.5770   24.5800   35.7560 N   0  0  0  0  0  0  0  0  0  0  0  0
   38.3530   27.3010   30.2370 C   0  0  0  0  0  0  0  0  0  0  0  0
   39.6350   27.5810   29.8080 C   0  0  0  0  0  0  0  0  0  0  0  0
   39.9560   28.4880   28.8280 C   0  0  0  0  0  0  0  0  0  0  0  0
   38.9190   29.1540   28.2410 N   0  0  0  0  0  0  0  0  0  0  0  0
   37.6680   28.8820   28.6570 C   0  0  0  0  0  0  0  0  0  0  0  0
   37.3510   27.9810   29.6320 N   0  0  0  0  0  0  0  0  0  0  0  0
   37.3045   23.9773   34.1543 H   0  0  0  0  0  0  0  0  0  0  0  0
   37.7296   23.0609   31.9458 H   0  0  0  0  0  0  0  0  0  0  0  0
   37.3126   26.1152   37.1782 H   0  0  0  0  0  0  0  0  0  0  0  0
   38.3766   28.3843   35.7892 H   0  0  0  0  0  0  0  0  0  0  0  0
   39.5058   27.5509   35.1231 H   0  0  0  0  0  0  0  0  0  0  0  0
   36.2897   26.8387   34.5377 H   0  0  0  0  0  0  0  0  0  0  0  0
   37.1588   24.5590   38.1287 H   0  0  0  0  0  0  0  0  0  0  0  0
   38.3318   22.3925   38.6893 H   0  0  0  0  0  0  0  0  0  0  0  0
   41.0477   23.0997   35.4840 H   0  0  0  0  0  0  0  0  0  0  0  0
   40.4619   27.0365   30.2874 H   0  0  0  0  0  0  0  0  0  0  0  0
   40.9993   28.6692   28.5302 H   0  0  0  0  0  0  0  0  0  0  0  0
   36.8412   29.4253   28.1762 H   0  0  0  0  0  0  0  0  0  0  0  0
  1 11  1  0
  2  1  1  0
  3  2  2  0
  4  6  1  0
  4  3  1  0
  5  4  2  0
  6  7  1  0
  7  8  2  0
  7  1  1  0
  9 12  1  0
 10  9  1  0
 11 10  1  0
 11  9  1  0
 12 13  2  0
 13 14  1  0
 15 14  2  0
 16 15  1  0
 17 16  2  0
 17 12  1  0
 18  6  1  0
 19 18  2  0
 20 19  1  0
 21 22  1  0
 21 20  2  0
 22 23  2  0
 23 18  1  0
  2 24  1  0
  3 25  1  0
  9 26  1  1
 10 27  1  0
 10 28  1  0
 11 29  1  1
 13 30  1  0
 14 31  1  0
 16 32  1  0
 19 33  1  0
 20 34  1  0
 22 35  1  0
M  ISO  8  24  14  25  14  26  13  27  13  28  13  29  13  30  14  31  14
M  ISO  4  32  14  33  14  34  14  35  14
M  END
>  <minimizedAffinity>  (1) 
-4.79686737

>  <minimizedRMSD>  (1) 
1.15492809

$$$$
