
     RDKit          3D

 40 43  0  0  1  0  0  0  0  0999 V2000
   37.9890   26.3620   35.9230 C   0  0  1  0  0  0  0  0  0  0  0  0
   38.7810   27.2880   35.0550 C   0  0  0  0  0  0  0  0  0  0  0  0
   37.5460   26.6620   34.5600 C   0  0  1  0  0  0  0  0  0  0  0  0
   37.6900   25.8660   33.3940 N   0  0  0  0  0  0  0  0  0  0  0  0
   37.4260   24.5450   33.2300 C   0  0  0  0  0  0  0  0  0  0  0  0
   37.5940   23.8550   32.0720 C   0  0  0  0  0  0  0  0  0  0  0  0
   38.0690   24.5350   30.9530 C   0  0  0  0  0  0  0  0  0  0  0  0
   38.2440   23.9510   29.8590 O   0  0  0  0  0  0  0  0  0  0  0  0
   38.3550   25.8600   31.0360 N   0  0  0  0  0  0  0  0  0  0  0  0
   38.1510   26.4360   32.2340 C   0  0  0  0  0  0  0  0  0  0  0  0
   38.4280   27.6890   32.3050 O   0  0  0  0  0  0  0  0  0  0  0  0
   38.8530   26.6520   29.9260 C   0  0  0  0  0  0  0  0  0  0  0  0
   40.3370   26.8950   29.9740 C   0  0  0  0  0  0  0  0  0  0  0  0
   40.5600   28.3900   29.8910 C   0  0  0  0  0  0  0  0  0  0  0  0
   39.2530   28.9970   29.4840 C   0  0  0  0  0  0  0  0  0  0  0  0
   38.1960   28.0140   29.8660 C   0  0  0  0  0  0  0  0  0  0  0  0
   38.5590   25.0600   36.3540 C   0  0  0  0  0  0  0  0  0  0  0  0
   37.9100   24.4340   37.4180 C   0  0  0  0  0  0  0  0  0  0  0  0
   38.4180   23.2100   37.8540 C   0  0  0  0  0  0  0  0  0  0  0  0
   39.5160   22.6970   37.2180 N   0  0  0  0  0  0  0  0  0  0  0  0
   40.0990   23.3530   36.1920 C   0  0  0  0  0  0  0  0  0  0  0  0
   39.6280   24.5250   35.7610 N   0  0  0  0  0  0  0  0  0  0  0  0
   37.4973   26.4045   36.9061 H   0  0  0  0  0  0  0  0  0  0  0  0
   38.8045   28.3657   35.2742 H   0  0  0  0  0  0  0  0  0  0  0  0
   39.8250   27.3383   34.7120 H   0  0  0  0  0  0  0  0  0  0  0  0
   36.5432   26.9362   34.2006 H   0  0  0  0  0  0  0  0  0  0  0  0
   37.0470   23.9907   34.1013 H   0  0  0  0  0  0  0  0  0  0  0  0
   37.3598   22.7815   32.0191 H   0  0  0  0  0  0  0  0  0  0  0  0
   38.6081   26.0480   29.0399 H   0  0  0  0  0  0  0  0  0  0  0  0
   40.7503   26.5060   30.9163 H   0  0  0  0  0  0  0  0  0  0  0  0
   40.8390   26.3831   29.1398 H   0  0  0  0  0  0  0  0  0  0  0  0
   40.8716   28.7820   30.8704 H   0  0  0  0  0  0  0  0  0  0  0  0
   41.3520   28.6328   29.1672 H   0  0  0  0  0  0  0  0  0  0  0  0
   39.2360   29.1714   28.3981 H   0  0  0  0  0  0  0  0  0  0  0  0
   39.0927   29.9673   29.9767 H   0  0  0  0  0  0  0  0  0  0  0  0
   37.7770   28.2741   30.8493 H   0  0  0  0  0  0  0  0  0  0  0  0
   37.3745   28.0196   29.1345 H   0  0  0  0  0  0  0  0  0  0  0  0
   37.0298   24.8887   37.8959 H   0  0  0  0  0  0  0  0  0  0  0  0
   37.9474   22.6702   38.6889 H   0  0  0  0  0  0  0  0  0  0  0  0
   40.9797   22.9127   35.7016 H   0  0  0  0  0  0  0  0  0  0  0  0
  1 17  1  0
  2  1  1  0
  3  2  1  0
  3  1  1  0
  4  3  1  0
  5  4  1  0
  6  5  2  0
  7  9  1  0
  7  6  1  0
  8  7  2  0
  9 10  1  0
 10 11  2  0
 10  4  1  0
 12 13  1  0
 12  9  1  0
 14 13  1  0
 15 16  1  0
 15 14  1  0
 16 12  1  0
 17 18  2  0
 18 19  1  0
 20 19  2  0
 21 20  1  0
 22 21  2  0
 22 17  1  0
  1 23  1  1
  2 24  1  0
  2 25  1  0
  3 26  1  1
  5 27  1  0
  6 28  1  0
 12 29  1  0
 13 30  1  0
 13 31  1  0
 14 32  1  0
 14 33  1  0
 15 34  1  0
 15 35  1  0
 16 36  1  0
 16 37  1  0
 18 38  1  0
 19 39  1  0
 21 40  1  0
M  ISO  8  23  13  24  13  25  13  26  13  27  14  28  14  29  13  30  13
M  ISO  8  31  13  32  13  33  13  34  13  35  13  36  13  37  13  38  14
M  ISO  2  39  14  40  14
M  END
>  <minimizedAffinity>  (1) 
-4.77188349

>  <minimizedRMSD>  (1) 
0.964560986

$$$$
