
     RDKit          3D

 35 38  0  0  1  0  0  0  0  0999 V2000
   37.8590   25.4800   32.9840 N   0  0  0  0  0  0  0  0  0  0  0  0
   38.5650   26.6330   32.8730 C   0  0  0  0  0  0  0  0  0  0  0  0
   39.7000   26.9270   33.5550 C   0  0  0  0  0  0  0  0  0  0  0  0
   40.1980   25.9820   34.4490 C   0  0  0  0  0  0  0  0  0  0  0  0
   41.2480   26.1870   35.1180 O   0  0  0  0  0  0  0  0  0  0  0  0
   39.5510   24.8020   34.6200 N   0  0  0  0  0  0  0  0  0  0  0  0
   38.4300   24.6170   33.8870 C   0  0  0  0  0  0  0  0  0  0  0  0
   37.8280   23.5030   34.0530 O   0  0  0  0  0  0  0  0  0  0  0  0
   35.8310   25.9050   31.4170 C   0  0  1  0  0  0  0  0  0  0  0  0
   36.8160   24.9430   30.8350 C   0  0  0  0  0  0  0  0  0  0  0  0
   36.6750   25.0970   32.3030 C   0  0  1  0  0  0  0  0  0  0  0  0
   35.9980   27.3660   31.2060 C   0  0  0  0  0  0  0  0  0  0  0  0
   35.3920   28.1910   32.1530 C   0  0  0  0  0  0  0  0  0  0  0  0
   35.5140   29.5700   32.0010 C   0  0  0  0  0  0  0  0  0  0  0  0
   36.2210   30.0320   30.9310 N   0  0  0  0  0  0  0  0  0  0  0  0
   36.7890   29.1870   30.0390 C   0  0  0  0  0  0  0  0  0  0  0  0
   36.6860   27.8640   30.1650 N   0  0  0  0  0  0  0  0  0  0  0  0
   39.9850   23.7790   35.5100 C   0  0  0  0  0  0  0  0  0  0  0  0
   40.9350   22.7990   35.3400 C   0  0  0  0  0  0  0  0  0  0  0  0
   41.1750   21.9130   36.3730 C   0  0  0  0  0  0  0  0  0  0  0  0
   40.4830   22.0120   37.5350 N   0  0  0  0  0  0  0  0  0  0  0  0
   39.5570   22.9740   37.6900 C   0  0  0  0  0  0  0  0  0  0  0  0
   39.3050   23.8530   36.6900 N   0  0  0  0  0  0  0  0  0  0  0  0
   38.1860   27.3917   32.1725 H   0  0  0  0  0  0  0  0  0  0  0  0
   40.2144   27.8878   33.4058 H   0  0  0  0  0  0  0  0  0  0  0  0
   34.7458   26.0751   31.3583 H   0  0  0  0  0  0  0  0  0  0  0  0
   36.4659   24.0255   30.3393 H   0  0  0  0  0  0  0  0  0  0  0  0
   37.6459   25.0100   30.1162 H   0  0  0  0  0  0  0  0  0  0  0  0
   36.3910   24.5218   33.1966 H   0  0  0  0  0  0  0  0  0  0  0  0
   34.8322   27.7637   32.9980 H   0  0  0  0  0  0  0  0  0  0  0  0
   35.0549   30.2636   32.7208 H   0  0  0  0  0  0  0  0  0  0  0  0
   37.3497   29.6026   29.1887 H   0  0  0  0  0  0  0  0  0  0  0  0
   41.4950   22.7217   34.3964 H   0  0  0  0  0  0  0  0  0  0  0  0
   41.9312   21.1234   36.2521 H   0  0  0  0  0  0  0  0  0  0  0  0
   38.9998   23.0482   38.6355 H   0  0  0  0  0  0  0  0  0  0  0  0
  1  7  1  0
  2  1  1  0
  2  3  2  0
  3  4  1  0
  4  6  1  0
  4  5  2  0
  6 18  1  0
  7  8  2  0
  7  6  1  0
  9 11  1  0
 10  9  1  0
 10 11  1  0
 11  1  1  0
 12  9  1  0
 12 13  2  0
 14 13  1  0
 15 14  2  0
 16 17  2  0
 16 15  1  0
 17 12  1  0
 18 23  1  0
 19 18  2  0
 19 20  1  0
 20 21  2  0
 21 22  1  0
 23 22  2  0
  2 24  1  0
  3 25  1  0
  9 26  1  1
 10 27  1  0
 10 28  1  0
 11 29  1  1
 13 30  1  0
 14 31  1  0
 16 32  1  0
 19 33  1  0
 20 34  1  0
 22 35  1  0
M  ISO  8  24  14  25  14  26  13  27  13  28  13  29  13  30  14  31  14
M  ISO  4  32  14  33  14  34  14  35  14
M  END
>  <minimizedAffinity>  (1) 
-5.03599882

>  <minimizedRMSD>  (1) 
7.10412645

$$$$
