
     RDKit          3D

 37 40  0  0  1  0  0  0  0  0999 V2000
   37.9550   25.5300   32.7640 N   0  0  0  0  0  0  0  0  0  0  0  0
   38.9010   26.4710   32.5250 C   0  0  0  0  0  0  0  0  0  0  0  0
   39.9210   26.7860   33.3610 C   0  0  0  0  0  0  0  0  0  0  0  0
   40.0270   26.1040   34.5710 C   0  0  0  0  0  0  0  0  0  0  0  0
   40.9510   26.3510   35.3910 O   0  0  0  0  0  0  0  0  0  0  0  0
   39.1170   25.1480   34.8860 N   0  0  0  0  0  0  0  0  0  0  0  0
   38.1440   24.9150   33.9790 C   0  0  0  0  0  0  0  0  0  0  0  0
   37.2930   24.0100   34.2890 O   0  0  0  0  0  0  0  0  0  0  0  0
   39.1460   24.4020   36.0980 C   0  0  0  0  0  0  0  0  0  0  0  0
   38.2050   24.9050   37.0050 C   0  0  0  0  0  0  0  0  0  0  0  0
   38.0410   24.3440   38.2640 C   0  0  0  0  0  0  0  0  0  0  0  0
   38.8250   23.2700   38.6190 C   0  0  0  0  0  0  0  0  0  0  0  0
   39.7500   22.7780   37.7220 C   0  0  0  0  0  0  0  0  0  0  0  0
   39.9250   23.3250   36.4660 C   0  0  0  0  0  0  0  0  0  0  0  0
   36.0240   25.9750   31.0860 C   0  0  1  0  0  0  0  0  0  0  0  0
   37.1200   25.1460   30.4960 C   0  0  0  0  0  0  0  0  0  0  0  0
   36.8650   25.1360   31.9470 C   0  0  1  0  0  0  0  0  0  0  0  0
   36.0950   27.4600   31.0350 C   0  0  0  0  0  0  0  0  0  0  0  0
   35.4740   28.1310   32.0880 C   0  0  0  0  0  0  0  0  0  0  0  0
   35.5110   29.5270   32.0820 C   0  0  0  0  0  0  0  0  0  0  0  0
   36.1490   30.1490   31.0490 N   0  0  0  0  0  0  0  0  0  0  0  0
   36.7330   29.4410   30.0530 C   0  0  0  0  0  0  0  0  0  0  0  0
   36.7120   28.1070   30.0350 N   0  0  0  0  0  0  0  0  0  0  0  0
   38.8359   27.0237   31.5762 H   0  0  0  0  0  0  0  0  0  0  0  0
   40.6497   27.5640   33.0894 H   0  0  0  0  0  0  0  0  0  0  0  0
   37.5822   25.7635   36.7133 H   0  0  0  0  0  0  0  0  0  0  0  0
   37.2976   24.7506   38.9655 H   0  0  0  0  0  0  0  0  0  0  0  0
   38.7147   22.8074   39.6109 H   0  0  0  0  0  0  0  0  0  0  0  0
   40.3706   21.9192   38.0176 H   0  0  0  0  0  0  0  0  0  0  0  0
   40.6712   22.9098   35.7726 H   0  0  0  0  0  0  0  0  0  0  0  0
   34.9362   26.0778   30.9590 H   0  0  0  0  0  0  0  0  0  0  0  0
   36.8774   24.2629   29.8867 H   0  0  0  0  0  0  0  0  0  0  0  0
   37.9928   25.3438   29.8564 H   0  0  0  0  0  0  0  0  0  0  0  0
   36.5678   24.4453   32.7499 H   0  0  0  0  0  0  0  0  0  0  0  0
   34.9718   27.5792   32.8963 H   0  0  0  0  0  0  0  0  0  0  0  0
   35.0390   30.1087   32.8875 H   0  0  0  0  0  0  0  0  0  0  0  0
   37.2378   29.9798   29.2376 H   0  0  0  0  0  0  0  0  0  0  0  0
  1  7  1  0
  2  1  1  0
  2  3  2  0
  3  4  1  0
  4  6  1  0
  4  5  2  0
  6  9  1  0
  7  8  2  0
  7  6  1  0
  9 14  1  0
  9 10  2  0
 10 11  1  0
 11 12  2  0
 13 12  1  0
 14 13  2  0
 15 17  1  0
 16 15  1  0
 16 17  1  0
 17  1  1  0
 18 15  1  0
 18 19  2  0
 20 19  1  0
 21 20  2  0
 22 21  1  0
 23 22  2  0
 23 18  1  0
  2 24  1  0
  3 25  1  0
 10 26  1  0
 11 27  1  0
 12 28  1  0
 13 29  1  0
 14 30  1  0
 15 31  1  6
 16 32  1  0
 16 33  1  0
 17 34  1  1
 19 35  1  0
 20 36  1  0
 22 37  1  0
M  ISO  8  24  14  25  14  26  14  27  14  28  14  29  14  30  14  31  13
M  ISO  6  32  13  33  13  34  13  35  14  36  14  37  14
M  END
>  <minimizedAffinity>  (1) 
-5.05759192

>  <minimizedRMSD>  (1) 
7.1831255

$$$$
