
     RDKit          3D

 30 32  0  0  1  0  0  0  0  0999 V2000
   37.7390   26.2410   35.9380 C   0  0  1  0  0  0  0  0  0  0  0  0
   38.4410   27.3160   35.1710 C   0  0  0  0  0  0  0  0  0  0  0  0
   37.3050   26.5690   34.5750 C   0  0  1  0  0  0  0  0  0  0  0  0
   37.6040   25.8790   33.3760 N   0  0  0  0  0  0  0  0  0  0  0  0
   37.5580   24.5510   33.1160 C   0  0  0  0  0  0  0  0  0  0  0  0
   37.8730   23.9720   31.9250 C   0  0  0  0  0  0  0  0  0  0  0  0
   38.2780   24.7870   30.8740 C   0  0  0  0  0  0  0  0  0  0  0  0
   38.5820   24.3040   29.7590 O   0  0  0  0  0  0  0  0  0  0  0  0
   38.3500   26.1290   31.0510 N   0  0  0  0  0  0  0  0  0  0  0  0
   38.0140   26.5960   32.2740 C   0  0  0  0  0  0  0  0  0  0  0  0
   38.0880   27.8660   32.4220 O   0  0  0  0  0  0  0  0  0  0  0  0
   38.7590   27.0510   30.0090 C   0  0  0  0  0  0  0  0  0  0  0  0
   39.3180   26.4040   28.9500 F   0  0  0  0  0  0  0  0  0  0  0  0
   37.6870   27.8430   29.5930 F   0  0  0  0  0  0  0  0  0  0  0  0
   39.6840   27.9770   30.5040 F   0  0  0  0  0  0  0  0  0  0  0  0
   38.4570   24.9970   36.3090 C   0  0  0  0  0  0  0  0  0  0  0  0
   37.8980   24.2520   37.3470 C   0  0  0  0  0  0  0  0  0  0  0  0
   38.5260   23.0800   37.7470 C   0  0  0  0  0  0  0  0  0  0  0  0
   39.6770   22.7180   37.0870 N   0  0  0  0  0  0  0  0  0  0  0  0
   40.1830   23.4850   36.0770 C   0  0  0  0  0  0  0  0  0  0  0  0
   39.5780   24.6100   35.6960 N   0  0  0  0  0  0  0  0  0  0  0  0
   37.2090   26.1574   36.8983 H   0  0  0  0  0  0  0  0  0  0  0  0
   38.3187   28.3705   35.4592 H   0  0  0  0  0  0  0  0  0  0  0  0
   39.4826   27.5198   34.8820 H   0  0  0  0  0  0  0  0  0  0  0  0
   36.2884   26.7351   34.1890 H   0  0  0  0  0  0  0  0  0  0  0  0
   37.2405   23.8865   33.9330 H   0  0  0  0  0  0  0  0  0  0  0  0
   37.8084   22.8814   31.7967 H   0  0  0  0  0  0  0  0  0  0  0  0
   36.9742   24.5875   37.8410 H   0  0  0  0  0  0  0  0  0  0  0  0
   38.1180   22.4638   38.5617 H   0  0  0  0  0  0  0  0  0  0  0  0
   41.1060   23.1690   35.5689 H   0  0  0  0  0  0  0  0  0  0  0  0
  1 16  1  0
  2  1  1  0
  3  2  1  0
  3  1  1  0
  4  3  1  0
  5  4  1  0
  6  5  2  0
  7  9  1  0
  7  6  1  0
  8  7  2  0
  9 10  1  0
 10 11  2  0
 10  4  1  0
 12 15  1  0
 12  9  1  0
 13 12  1  0
 14 12  1  0
 16 17  2  0
 17 18  1  0
 19 18  2  0
 20 19  1  0
 21 20  2  0
 21 16  1  0
  1 22  1  1
  2 23  1  0
  2 24  1  0
  3 25  1  1
  5 26  1  0
  6 27  1  0
 17 28  1  0
 18 29  1  0
 20 30  1  0
M  ISO  8  22  13  23  13  24  13  25  13  26  14  27  14  28  14  29  14
M  ISO  1  30  14
M  END
>  <minimizedAffinity>  (1) 
-4.55431461

>  <minimizedRMSD>  (1) 
0.857316434

$$$$
