
     RDKit          3D

 39 41  0  0  1  0  0  0  0  0999 V2000
   37.6300   26.2380   35.7080 C   0  0  1  0  0  0  0  0  0  0  0  0
   38.3740   27.2880   34.9440 C   0  0  0  0  0  0  0  0  0  0  0  0
   37.2510   26.5340   34.3220 C   0  0  1  0  0  0  0  0  0  0  0  0
   37.5970   25.8160   33.1480 N   0  0  0  0  0  0  0  0  0  0  0  0
   37.3720   24.5130   32.8520 C   0  0  0  0  0  0  0  0  0  0  0  0
   37.7530   23.9010   31.6930 C   0  0  0  0  0  0  0  0  0  0  0  0
   38.4220   24.6520   30.7290 C   0  0  0  0  0  0  0  0  0  0  0  0
   38.7920   24.1350   29.6560 O   0  0  0  0  0  0  0  0  0  0  0  0
   38.6820   25.9640   30.9500 N   0  0  0  0  0  0  0  0  0  0  0  0
   38.2610   26.4630   32.1320 C   0  0  0  0  0  0  0  0  0  0  0  0
   38.5150   27.7000   32.3300 O   0  0  0  0  0  0  0  0  0  0  0  0
   39.3690   26.7830   29.9740 C   0  0  0  0  0  0  0  0  0  0  0  0
   39.8410   25.9430   28.7860 C   0  0  0  0  0  0  0  0  0  0  0  0
   40.6380   27.3930   30.5700 C   0  0  0  0  0  0  0  0  0  0  0  0
   38.5600   27.9100   29.4250 C   0  0  0  0  0  0  0  0  0  0  0  0
   38.3250   24.9970   36.1390 C   0  0  0  0  0  0  0  0  0  0  0  0
   37.6680   24.2340   37.1040 C   0  0  0  0  0  0  0  0  0  0  0  0
   38.2710   23.0650   37.5490 C   0  0  0  0  0  0  0  0  0  0  0  0
   39.4880   22.7330   37.0060 N   0  0  0  0  0  0  0  0  0  0  0  0
   40.0910   23.5090   36.0670 C   0  0  0  0  0  0  0  0  0  0  0  0
   39.5150   24.6330   35.6360 N   0  0  0  0  0  0  0  0  0  0  0  0
   37.0605   26.1829   36.6475 H   0  0  0  0  0  0  0  0  0  0  0  0
   38.2514   28.3504   35.2013 H   0  0  0  0  0  0  0  0  0  0  0  0
   39.4281   27.4753   34.6914 H   0  0  0  0  0  0  0  0  0  0  0  0
   36.2498   26.6944   33.8955 H   0  0  0  0  0  0  0  0  0  0  0  0
   36.8437   23.9040   33.6004 H   0  0  0  0  0  0  0  0  0  0  0  0
   37.5361   22.8360   31.5235 H   0  0  0  0  0  0  0  0  0  0  0  0
   40.3487   25.0394   29.1545 H   0  0  0  0  0  0  0  0  0  0  0  0
   38.9739   25.6528   28.1746 H   0  0  0  0  0  0  0  0  0  0  0  0
   40.5399   26.5327   28.1746 H   0  0  0  0  0  0  0  0  0  0  0  0
   40.5780   27.3641   31.6680 H   0  0  0  0  0  0  0  0  0  0  0  0
   41.5136   26.8174   30.2354 H   0  0  0  0  0  0  0  0  0  0  0  0
   40.7354   28.4363   30.2354 H   0  0  0  0  0  0  0  0  0  0  0  0
   38.1386   28.4970   30.2544 H   0  0  0  0  0  0  0  0  0  0  0  0
   39.2021   28.5557   28.8079 H   0  0  0  0  0  0  0  0  0  0  0  0
   37.7428   27.5082   28.8079 H   0  0  0  0  0  0  0  0  0  0  0  0
   36.6936   24.5513   37.5038 H   0  0  0  0  0  0  0  0  0  0  0  0
   37.7920   22.4288   38.3078 H   0  0  0  0  0  0  0  0  0  0  0  0
   41.0660   23.2067   35.6572 H   0  0  0  0  0  0  0  0  0  0  0  0
  1 16  1  0
  2  1  1  0
  3  2  1  0
  3  1  1  0
  4  3  1  0
  5  4  1  0
  6  5  2  0
  7  9  1  0
  7  6  1  0
  8  7  2  0
  9 10  1  0
 10 11  2  0
 10  4  1  0
 12 14  1  0
 12  9  1  0
 13 12  1  0
 15 12  1  0
 16 17  2  0
 17 18  1  0
 19 18  2  0
 20 19  1  0
 21 20  2  0
 21 16  1  0
  1 22  1  1
  2 23  1  0
  2 24  1  0
  3 25  1  1
  5 26  1  0
  6 27  1  0
 13 28  1  0
 13 29  1  0
 13 30  1  0
 14 31  1  0
 14 32  1  0
 14 33  1  0
 15 34  1  0
 15 35  1  0
 15 36  1  0
 17 37  1  0
 18 38  1  0
 20 39  1  0
M  ISO  8  22  13  23  13  24  13  25  13  26  14  27  14  28   8  29   8
M  ISO  8  30   8  31   8  32   8  33   8  34   8  35   8  36   8  37  14
M  ISO  2  38  14  39  14
M  END
>  <minimizedAffinity>  (1) 
-4.46500063

>  <minimizedRMSD>  (1) 
1.02915502

$$$$
