
     RDKit          3D

 34 37  0  0  1  0  0  0  0  0999 V2000
   37.9020   26.2270   36.0150 C   0  0  1  0  0  0  0  0  0  0  0  0
   38.6350   27.2390   35.1940 C   0  0  0  0  0  0  0  0  0  0  0  0
   37.4600   26.5380   34.6510 C   0  0  1  0  0  0  0  0  0  0  0  0
   37.6830   25.7950   33.4640 N   0  0  0  0  0  0  0  0  0  0  0  0
   37.5310   24.4650   33.2500 C   0  0  0  0  0  0  0  0  0  0  0  0
   37.7730   23.8270   32.0780 C   0  0  0  0  0  0  0  0  0  0  0  0
   38.2110   24.5760   30.9900 C   0  0  0  0  0  0  0  0  0  0  0  0
   38.4550   24.0530   29.8690 O   0  0  0  0  0  0  0  0  0  0  0  0
   38.3850   25.9150   31.1210 N   0  0  0  0  0  0  0  0  0  0  0  0
   38.1170   26.4490   32.3340 C   0  0  0  0  0  0  0  0  0  0  0  0
   38.2860   27.7100   32.4420 O   0  0  0  0  0  0  0  0  0  0  0  0
   38.8360   26.7740   30.0420 C   0  0  0  0  0  0  0  0  0  0  0  0
   39.7740   26.2880   29.0060 C   0  0  0  0  0  0  0  0  0  0  0  0
   40.3570   27.1350   30.0690 C   0  0  0  0  0  0  0  0  0  0  0  0
   38.5660   24.9580   36.4100 C   0  0  0  0  0  0  0  0  0  0  0  0
   38.0360   24.3210   37.5320 C   0  0  0  0  0  0  0  0  0  0  0  0
   38.6230   23.1280   37.9540 C   0  0  0  0  0  0  0  0  0  0  0  0
   39.6940   22.6570   37.2270 N   0  0  0  0  0  0  0  0  0  0  0  0
   40.1620   23.3190   36.1500 C   0  0  0  0  0  0  0  0  0  0  0  0
   39.6130   24.4610   35.7340 N   0  0  0  0  0  0  0  0  0  0  0  0
   37.3914   26.1992   36.9889 H   0  0  0  0  0  0  0  0  0  0  0  0
   38.5716   28.3072   35.4488 H   0  0  0  0  0  0  0  0  0  0  0  0
   39.6782   27.3800   34.8749 H   0  0  0  0  0  0  0  0  0  0  0  0
   36.4463   26.7475   34.2788 H   0  0  0  0  0  0  0  0  0  0  0  0
   37.1831   23.8536   34.0957 H   0  0  0  0  0  0  0  0  0  0  0  0
   37.6262   22.7405   31.9893 H   0  0  0  0  0  0  0  0  0  0  0  0
   37.8657   27.2903   29.9966 H   0  0  0  0  0  0  0  0  0  0  0  0
   40.0287   25.2186   28.9683 H   0  0  0  0  0  0  0  0  0  0  0  0
   39.7805   26.3444   27.9075 H   0  0  0  0  0  0  0  0  0  0  0  0
   40.6885   28.1593   29.8434 H   0  0  0  0  0  0  0  0  0  0  0  0
   41.1782   27.0367   30.7943 H   0  0  0  0  0  0  0  0  0  0  0  0
   37.1772   24.7484   38.0703 H   0  0  0  0  0  0  0  0  0  0  0  0
   38.2454   22.5847   38.8328 H   0  0  0  0  0  0  0  0  0  0  0  0
   41.0200   22.9060   35.5993 H   0  0  0  0  0  0  0  0  0  0  0  0
  1 15  1  0
  2  1  1  0
  3  2  1  0
  3  1  1  0
  4  3  1  0
  5  4  1  0
  6  5  2  0
  7  9  1  0
  7  6  1  0
  8  7  2  0
  9 10  1  0
 10 11  2  0
 10  4  1  0
 12 14  1  0
 12  9  1  0
 13 12  1  0
 13 14  1  0
 15 16  2  0
 16 17  1  0
 18 17  2  0
 19 18  1  0
 20 19  2  0
 20 15  1  0
  1 21  1  1
  2 22  1  0
  2 23  1  0
  3 24  1  1
  5 25  1  0
  6 26  1  0
 12 27  1  0
 13 28  1  0
 13 29  1  0
 14 30  1  0
 14 31  1  0
 16 32  1  0
 17 33  1  0
 19 34  1  0
M  ISO  8  21  13  22  13  23  13  24  13  25  14  26  14  27  13  28  13
M  ISO  6  29  13  30  13  31  13  32  14  33  14  34  14
M  END
>  <minimizedAffinity>  (1) 
-4.45763206

>  <minimizedRMSD>  (1) 
0.993265927

$$$$
