
     RDKit          3D

 52 57  0  0  1  0  0  0  0  0999 V2000
   38.4710   26.0920   36.3860 C   0  0  1  0  0  0  0  0  0  0  0  0
   39.3610   27.0170   35.6510 C   0  0  0  0  0  0  0  0  0  0  0  0
   37.8710   27.1510   35.5390 C   0  0  1  0  0  0  0  0  0  0  0  0
   37.3680   27.0530   34.2300 N   0  0  0  0  0  0  0  0  0  0  0  0
   37.6460   26.1110   33.3100 C   0  0  0  0  0  0  0  0  0  0  0  0
   37.1240   26.0730   32.0470 C   0  0  0  0  0  0  0  0  0  0  0  0
   36.2330   27.0770   31.6620 C   0  0  0  0  0  0  0  0  0  0  0  0
   35.7260   27.0860   30.5080 O   0  0  0  0  0  0  0  0  0  0  0  0
   35.9010   28.0550   32.5260 N   0  0  0  0  0  0  0  0  0  0  0  0
   36.4780   28.0000   33.7580 C   0  0  0  0  0  0  0  0  0  0  0  0
   36.1530   28.9400   34.5680 O   0  0  0  0  0  0  0  0  0  0  0  0
   33.1610   30.3160   32.1410 N   0  0  0  0  0  0  0  0  0  0  0  0
   33.6930   29.2010   32.6150 N   0  0  0  0  0  0  0  0  0  0  0  0
   34.9890   29.1040   32.2230 C   0  0  0  0  0  0  0  0  0  0  0  0
   35.2430   30.2180   31.4770 C   0  0  0  0  0  0  0  0  0  0  0  0
   34.0990   30.9710   31.4290 C   0  0  0  0  0  0  0  0  0  0  0  0
   38.4110   24.6470   36.0590 C   0  0  0  0  0  0  0  0  0  0  0  0
   37.5160   23.8780   36.7750 C   0  0  0  0  0  0  0  0  0  0  0  0
   37.3950   22.5300   36.5490 C   0  0  0  0  0  0  0  0  0  0  0  0
   38.2170   22.0230   35.5760 N   0  0  0  0  0  0  0  0  0  0  0  0
   39.0900   22.8040   34.8830 C   0  0  0  0  0  0  0  0  0  0  0  0
   39.1710   24.0970   35.1380 N   0  0  0  0  0  0  0  0  0  0  0  0
   39.5750   21.9160   33.9230 C   0  0  0  0  0  0  0  0  0  0  0  0
   40.0090   21.1210   33.0620 N   0  0  0  0  0  0  0  0  0  0  0  0
   40.4770   20.3420   32.2480 C   0  0  0  0  0  0  0  0  0  0  0  0
   39.3910   20.3300   31.4790 N   0  0  0  0  0  0  0  0  0  0  0  0
   38.3250   21.0840   31.8410 C   0  0  0  0  0  0  0  0  0  0  0  0
   37.2570   20.9930   30.9020 C   0  0  0  0  0  0  0  0  0  0  0  0
   36.1720   21.7650   31.1900 C   0  0  0  0  0  0  0  0  0  0  0  0
   36.0280   22.5900   32.2660 C   0  0  0  0  0  0  0  0  0  0  0  0
   37.1620   22.5510   33.0720 C   0  0  0  0  0  0  0  0  0  0  0  0
   38.4140   21.8580   33.0280 C   0  0  0  0  0  0  0  0  0  0  0  0
   38.3433   25.7943   37.4372 H   0  0  0  0  0  0  0  0  0  0  0  0
   39.9425   27.7734   36.1985 H   0  0  0  0  0  0  0  0  0  0  0  0
   40.1891   26.8993   34.9366 H   0  0  0  0  0  0  0  0  0  0  0  0
   37.0466   27.8432   35.7652 H   0  0  0  0  0  0  0  0  0  0  0  0
   38.3457   25.3117   33.5956 H   0  0  0  0  0  0  0  0  0  0  0  0
   37.3999   25.2688   31.3490 H   0  0  0  0  0  0  0  0  0  0  0  0
   32.1918   30.6307   32.2912 H   0  0  0  0  0  0  0  0  0  0  0  0
   36.2006   30.4684   30.9971 H   0  0  0  0  0  0  0  0  0  0  0  0
   33.9705   31.9306   30.9069 H   0  0  0  0  0  0  0  0  0  0  0  0
   36.8876   24.3550   37.5416 H   0  0  0  0  0  0  0  0  0  0  0  0
   36.6881   21.9004   37.1092 H   0  0  0  0  0  0  0  0  0  0  0  0
   38.6754   21.2946   34.0433 H   0  0  0  0  0  0  0  0  0  0  0  0
   39.1929   20.5077   33.1986 H   0  0  0  0  0  0  0  0  0  0  0  0
   41.3651   20.7378   31.7337 H   0  0  0  0  0  0  0  0  0  0  0  0
   40.8590   19.3785   32.6164 H   0  0  0  0  0  0  0  0  0  0  0  0
   39.3613   19.7574   30.6233 H   0  0  0  0  0  0  0  0  0  0  0  0
   37.3050   20.3483   30.0120 H   0  0  0  0  0  0  0  0  0  0  0  0
   35.3290   21.7181   30.4849 H   0  0  0  0  0  0  0  0  0  0  0  0
   35.1373   23.2027   32.4693 H   0  0  0  0  0  0  0  0  0  0  0  0
   37.0760   23.2077   33.9502 H   0  0  0  0  0  0  0  0  0  0  0  0
  2  1  1  0
  3  2  1  0
  3  1  1  0
  4  3  1  0
  5  4  1  0
  6  5  2  0
  7  6  1  0
  7  9  1  0
  8  7  2  0
  9 10  1  0
 10  4  1  0
 10 11  2  0
 12 13  1  0
 14  9  1  0
 14 13  2  0
 15 14  1  0
 16 15  2  0
 16 12  1  0
 17  1  1  0
 17 18  2  0
 19 18  1  0
 20 19  2  0
 21 22  2  0
 21 20  1  0
 22 17  1  0
 23 21  1  0
 24 23  1  0
 25 24  1  0
 26 27  1  0
 26 25  1  0
 27 32  2  0
 28 29  2  0
 28 27  1  0
 29 30  1  0
 30 31  2  0
 32 31  1  0
 32 23  1  0
  1 33  1  1
  2 34  1  0
  2 35  1  0
  3 36  1  1
  5 37  1  0
  6 38  1  0
 12 39  1  0
 15 40  1  0
 16 41  1  0
 18 42  1  0
 19 43  1  0
 23 44  1  0
 24 45  1  0
 25 46  1  0
 25 47  1  0
 26 48  1  0
 28 49  1  0
 29 50  1  0
 30 51  1  0
 31 52  1  0
M  ISO  8  33  13  34  13  35  13  36  13  37  14  38  14  39   9  40  14
M  ISO  8  41  14  42  14  43  14  44  13  45   5  46  13  47  13  49  14
M  ISO  3  50  14  51  14  52  14
M  END
>  <minimizedAffinity>  (1) 
-6.61637974

>  <minimizedRMSD>  (1) 
2.98269868

$$$$
