
     RDKit          3D

 48 53  0  0  1  0  0  0  0  0999 V2000
   37.9610   26.3950   36.4830 C   0  0  1  0  0  0  0  0  0  0  0  0
   38.7460   27.3490   35.6630 C   0  0  0  0  0  0  0  0  0  0  0  0
   37.4690   26.7690   35.1380 C   0  0  1  0  0  0  0  0  0  0  0  0
   37.5900   26.0790   33.9200 N   0  0  0  0  0  0  0  0  0  0  0  0
   37.6670   24.7520   33.7300 C   0  0  0  0  0  0  0  0  0  0  0  0
   37.7890   24.1360   32.5120 C   0  0  0  0  0  0  0  0  0  0  0  0
   37.8360   24.9390   31.3650 C   0  0  0  0  0  0  0  0  0  0  0  0
   37.9470   24.4350   30.2210 O   0  0  0  0  0  0  0  0  0  0  0  0
   37.7620   26.2880   31.4780 N   0  0  0  0  0  0  0  0  0  0  0  0
   37.6440   26.7870   32.7310 C   0  0  0  0  0  0  0  0  0  0  0  0
   37.5760   28.0610   32.8140 O   0  0  0  0  0  0  0  0  0  0  0  0
   37.1040   28.5430   28.7890 N   0  0  0  0  0  0  0  0  0  0  0  0
   36.7230   27.8040   29.8040 N   0  0  0  0  0  0  0  0  0  0  0  0
   37.7840   27.1710   30.3610 C   0  0  0  0  0  0  0  0  0  0  0  0
   38.8790   27.5480   29.6400 C   0  0  0  0  0  0  0  0  0  0  0  0
   38.4400   28.4090   28.6540 C   0  0  0  0  0  0  0  0  0  0  0  0
   38.5140   25.0530   36.7940 C   0  0  0  0  0  0  0  0  0  0  0  0
   38.0390   24.4410   37.9590 C   0  0  0  0  0  0  0  0  0  0  0  0
   38.4940   23.1930   38.3260 C   0  0  0  0  0  0  0  0  0  0  0  0
   39.4120   22.6160   37.4980 N   0  0  0  0  0  0  0  0  0  0  0  0
   39.8520   23.2380   36.3760 C   0  0  0  0  0  0  0  0  0  0  0  0
   39.4210   24.4380   36.0150 N   0  0  0  0  0  0  0  0  0  0  0  0
   40.8360   22.4980   35.5880 C   0  0  0  0  0  0  0  0  0  0  0  0
   41.0250   22.6250   34.2260 C   0  0  0  0  0  0  0  0  0  0  0  0
   42.0290   21.7650   33.8870 N   0  0  0  0  0  0  0  0  0  0  0  0
   42.4770   21.1070   34.9720 C   0  0  0  0  0  0  0  0  0  0  0  0
   43.4770   20.1600   35.0330 C   0  0  0  0  0  0  0  0  0  0  0  0
   43.7460   19.6290   36.2930 C   0  0  0  0  0  0  0  0  0  0  0  0
   43.0050   20.0740   37.3840 C   0  0  0  0  0  0  0  0  0  0  0  0
   42.0090   21.0240   37.2900 C   0  0  0  0  0  0  0  0  0  0  0  0
   41.7330   21.5600   36.0450 C   0  0  0  0  0  0  0  0  0  0  0  0
   37.5056   26.4014   37.4843 H   0  0  0  0  0  0  0  0  0  0  0  0
   38.7935   28.4107   35.9469 H   0  0  0  0  0  0  0  0  0  0  0  0
   39.7851   27.3998   35.3056 H   0  0  0  0  0  0  0  0  0  0  0  0
   36.4537   27.0537   34.8246 H   0  0  0  0  0  0  0  0  0  0  0  0
   37.6292   24.1091   34.6218 H   0  0  0  0  0  0  0  0  0  0  0  0
   37.8484   23.0402   32.4369 H   0  0  0  0  0  0  0  0  0  0  0  0
   36.4910   29.1235   28.1989 H   0  0  0  0  0  0  0  0  0  0  0  0
   39.9168   27.2264   29.8119 H   0  0  0  0  0  0  0  0  0  0  0  0
   39.0672   28.8983   27.8942 H   0  0  0  0  0  0  0  0  0  0  0  0
   37.2981   24.9590   38.5857 H   0  0  0  0  0  0  0  0  0  0  0  0
   38.1366   22.6897   39.2365 H   0  0  0  0  0  0  0  0  0  0  0  0
   40.4731   23.2905   33.5459 H   0  0  0  0  0  0  0  0  0  0  0  0
   42.3936   21.6372   32.9322 H   0  0  0  0  0  0  0  0  0  0  0  0
   44.0312   19.8416   34.1378 H   0  0  0  0  0  0  0  0  0  0  0  0
   44.5316   18.8701   36.4233 H   0  0  0  0  0  0  0  0  0  0  0  0
   43.2251   19.6458   38.3730 H   0  0  0  0  0  0  0  0  0  0  0  0
   41.4497   21.3464   38.1806 H   0  0  0  0  0  0  0  0  0  0  0  0
  1 17  1  0
  2  1  1  0
  3  2  1  0
  3  1  1  0
  4  3  1  0
  5  4  1  0
  6  5  2  0
  7  9  1  0
  7  6  1  0
  8  7  2  0
  9 10  1  0
 10 11  2  0
 10  4  1  0
 12 13  1  0
 13 14  2  0
 14  9  1  0
 15 14  1  0
 16 12  1  0
 16 15  2  0
 17 18  2  0
 18 19  1  0
 20 19  2  0
 21 20  1  0
 22 21  2  0
 22 17  1  0
 23 31  1  0
 23 21  1  0
 24 23  2  0
 25 24  1  0
 25 26  1  0
 26 27  2  0
 26 31  1  0
 27 28  1  0
 28 29  2  0
 30 29  1  0
 31 30  2  0
  1 32  1  1
  2 33  1  0
  2 34  1  0
  3 35  1  1
  5 36  1  0
  6 37  1  0
 12 38  1  0
 15 39  1  0
 16 40  1  0
 18 41  1  0
 19 42  1  0
 24 43  1  0
 25 44  1  0
 27 45  1  0
 28 46  1  0
 29 47  1  0
 30 48  1  0
M  ISO  8  32  13  33  13  34  13  35  13  36  14  37  14  38   9  39  14
M  ISO  8  40  14  41  14  42  14  43  14  44   9  45  14  46  14  47  14
M  ISO  1  48  14
M  END
>  <minimizedAffinity>  (1) 
-6.56166458

>  <minimizedRMSD>  (1) 
0.258708805

$$$$
