
     RDKit          3D

 42 46  0  0  1  0  0  0  0  0999 V2000
   37.9720   26.3860   36.5000 C   0  0  1  0  0  0  0  0  0  0  0  0
   38.7630   27.3350   35.6800 C   0  0  0  0  0  0  0  0  0  0  0  0
   37.4820   26.7490   35.1530 C   0  0  1  0  0  0  0  0  0  0  0  0
   37.6130   26.0540   33.9390 N   0  0  0  0  0  0  0  0  0  0  0  0
   37.7050   24.7280   33.7560 C   0  0  0  0  0  0  0  0  0  0  0  0
   37.8410   24.1060   32.5420 C   0  0  0  0  0  0  0  0  0  0  0  0
   37.8850   24.9020   31.3900 C   0  0  0  0  0  0  0  0  0  0  0  0
   38.0080   24.3850   30.2530 O   0  0  0  0  0  0  0  0  0  0  0  0
   37.7950   26.2540   31.4980 N   0  0  0  0  0  0  0  0  0  0  0  0
   37.6670   26.7470   32.7400 C   0  0  0  0  0  0  0  0  0  0  0  0
   37.5830   28.0280   32.8210 O   0  0  0  0  0  0  0  0  0  0  0  0
   37.1300   28.4770   28.7870 N   0  0  0  0  0  0  0  0  0  0  0  0
   36.7500   27.7440   29.8060 N   0  0  0  0  0  0  0  0  0  0  0  0
   37.8170   27.1280   30.3740 C   0  0  0  0  0  0  0  0  0  0  0  0
   38.9120   27.5120   29.6550 C   0  0  0  0  0  0  0  0  0  0  0  0
   38.4720   28.3600   28.6610 C   0  0  0  0  0  0  0  0  0  0  0  0
   38.5260   25.0470   36.8260 C   0  0  0  0  0  0  0  0  0  0  0  0
   37.9110   24.3530   37.8680 C   0  0  0  0  0  0  0  0  0  0  0  0
   38.3660   23.1070   38.2340 C   0  0  0  0  0  0  0  0  0  0  0  0
   39.4170   22.6130   37.5370 N   0  0  0  0  0  0  0  0  0  0  0  0
   39.9900   23.3060   36.5370 C   0  0  0  0  0  0  0  0  0  0  0  0
   39.5700   24.5100   36.1660 N   0  0  0  0  0  0  0  0  0  0  0  0
   41.1360   22.7380   35.7960 C   0  0  0  0  0  0  0  0  0  0  0  0
   42.4180   22.9750   36.2770 C   0  0  0  0  0  0  0  0  0  0  0  0
   43.4810   22.4560   35.6020 C   0  0  0  0  0  0  0  0  0  0  0  0
   43.2590   21.7370   34.5000 N   0  0  0  0  0  0  0  0  0  0  0  0
   42.0240   21.5020   34.0280 C   0  0  0  0  0  0  0  0  0  0  0  0
   40.9840   22.0040   34.6790 N   0  0  0  0  0  0  0  0  0  0  0  0
   37.5106   26.3988   37.4985 H   0  0  0  0  0  0  0  0  0  0  0  0
   38.8101   28.3982   35.9581 H   0  0  0  0  0  0  0  0  0  0  0  0
   39.8037   27.3839   35.3269 H   0  0  0  0  0  0  0  0  0  0  0  0
   36.4661   27.0280   34.8367 H   0  0  0  0  0  0  0  0  0  0  0  0
   37.6684   24.0895   34.6510 H   0  0  0  0  0  0  0  0  0  0  0  0
   37.9137   23.0105   32.4741 H   0  0  0  0  0  0  0  0  0  0  0  0
   36.5137   29.0434   28.1868 H   0  0  0  0  0  0  0  0  0  0  0  0
   39.9520   27.2024   29.8352 H   0  0  0  0  0  0  0  0  0  0  0  0
   39.0986   28.8523   27.9027 H   0  0  0  0  0  0  0  0  0  0  0  0
   37.0594   24.8033   38.3990 H   0  0  0  0  0  0  0  0  0  0  0  0
   37.8990   22.5399   39.0527 H   0  0  0  0  0  0  0  0  0  0  0  0
   42.5718   23.5720   37.1880 H   0  0  0  0  0  0  0  0  0  0  0  0
   44.5070   22.6269   35.9598 H   0  0  0  0  0  0  0  0  0  0  0  0
   41.8778   20.9033   33.1169 H   0  0  0  0  0  0  0  0  0  0  0  0
  1 17  1  0
  2  1  1  0
  3  2  1  0
  3  1  1  0
  4  3  1  0
  5  4  1  0
  6  5  2  0
  7  9  1  0
  7  6  1  0
  8  7  2  0
  9 10  1  0
 10 11  2  0
 10  4  1  0
 12 13  1  0
 13 14  2  0
 14  9  1  0
 15 14  1  0
 16 12  1  0
 16 15  2  0
 17 18  2  0
 18 19  1  0
 20 19  2  0
 21 20  1  0
 22 21  2  0
 22 17  1  0
 23 24  2  0
 23 21  1  0
 25 24  1  0
 26 25  2  0
 27 26  1  0
 27 28  2  0
 28 23  1  0
  1 29  1  1
  2 30  1  0
  2 31  1  0
  3 32  1  1
  5 33  1  0
  6 34  1  0
 12 35  1  0
 15 36  1  0
 16 37  1  0
 18 38  1  0
 19 39  1  0
 24 40  1  0
 25 41  1  0
 27 42  1  0
M  ISO  8  29  13  30  13  31  13  32  13  33  14  34  14  35   9  36  14
M  ISO  6  37  14  38  14  39  14  40  14  41  14  42  14
M  END
>  <minimizedAffinity>  (1) 
-5.73868513

>  <minimizedRMSD>  (1) 
0.193055362

$$$$
