
     RDKit          3D

 43 47  0  0  1  0  0  0  0  0999 V2000
   37.9810   26.3870   36.4850 C   0  0  1  0  0  0  0  0  0  0  0  0
   38.7720   27.3340   35.6650 C   0  0  0  0  0  0  0  0  0  0  0  0
   37.4950   26.7570   35.1390 C   0  0  1  0  0  0  0  0  0  0  0  0
   37.6210   26.0630   33.9220 N   0  0  0  0  0  0  0  0  0  0  0  0
   37.7000   24.7350   33.7360 C   0  0  0  0  0  0  0  0  0  0  0  0
   37.8280   24.1130   32.5230 C   0  0  0  0  0  0  0  0  0  0  0  0
   37.8790   24.9110   31.3720 C   0  0  0  0  0  0  0  0  0  0  0  0
   37.9950   24.3990   30.2340 O   0  0  0  0  0  0  0  0  0  0  0  0
   37.8010   26.2660   31.4830 N   0  0  0  0  0  0  0  0  0  0  0  0
   37.6790   26.7700   32.7320 C   0  0  0  0  0  0  0  0  0  0  0  0
   37.6080   28.0360   32.8070 O   0  0  0  0  0  0  0  0  0  0  0  0
   37.1350   28.4830   28.7720 N   0  0  0  0  0  0  0  0  0  0  0  0
   36.7600   27.7500   29.7910 N   0  0  0  0  0  0  0  0  0  0  0  0
   37.8270   27.1360   30.3580 C   0  0  0  0  0  0  0  0  0  0  0  0
   38.9200   27.5200   29.6390 C   0  0  0  0  0  0  0  0  0  0  0  0
   38.4750   28.3660   28.6440 C   0  0  0  0  0  0  0  0  0  0  0  0
   38.5270   25.0460   36.8080 C   0  0  0  0  0  0  0  0  0  0  0  0
   37.8640   24.3210   37.7990 C   0  0  0  0  0  0  0  0  0  0  0  0
   38.3080   23.0680   38.1590 C   0  0  0  0  0  0  0  0  0  0  0  0
   39.3980   22.6010   37.5060 N   0  0  0  0  0  0  0  0  0  0  0  0
   40.0170   23.3230   36.5540 C   0  0  0  0  0  0  0  0  0  0  0  0
   39.6060   24.5340   36.1920 N   0  0  0  0  0  0  0  0  0  0  0  0
   41.2010   22.7660   35.8740 C   0  0  0  0  0  0  0  0  0  0  0  0
   42.4310   22.7600   36.5340 C   0  0  0  0  0  0  0  0  0  0  0  0
   43.5340   22.2380   35.8920 C   0  0  0  0  0  0  0  0  0  0  0  0
   43.4040   21.7340   34.6200 C   0  0  0  0  0  0  0  0  0  0  0  0
   42.1840   21.7420   33.9740 C   0  0  0  0  0  0  0  0  0  0  0  0
   41.1310   22.2590   34.6310 N   0  0  0  0  0  0  0  0  0  0  0  0
   37.5214   26.3986   37.4843 H   0  0  0  0  0  0  0  0  0  0  0  0
   38.8228   28.3966   35.9450 H   0  0  0  0  0  0  0  0  0  0  0  0
   39.8124   27.3796   35.3107 H   0  0  0  0  0  0  0  0  0  0  0  0
   36.4810   27.0427   34.8225 H   0  0  0  0  0  0  0  0  0  0  0  0
   37.6585   24.0958   34.6302 H   0  0  0  0  0  0  0  0  0  0  0  0
   37.8891   23.0169   32.4538 H   0  0  0  0  0  0  0  0  0  0  0  0
   36.5168   29.0491   28.1735 H   0  0  0  0  0  0  0  0  0  0  0  0
   39.9609   27.2130   29.8185 H   0  0  0  0  0  0  0  0  0  0  0  0
   39.0992   28.8571   27.8830 H   0  0  0  0  0  0  0  0  0  0  0  0
   36.9822   24.7525   38.2952 H   0  0  0  0  0  0  0  0  0  0  0  0
   37.8029   22.4770   38.9372 H   0  0  0  0  0  0  0  0  0  0  0  0
   42.5191   23.1662   37.5524 H   0  0  0  0  0  0  0  0  0  0  0  0
   44.5122   22.2250   36.3949 H   0  0  0  0  0  0  0  0  0  0  0  0
   44.2850   21.3181   34.1092 H   0  0  0  0  0  0  0  0  0  0  0  0
   42.0770   21.3390   32.9561 H   0  0  0  0  0  0  0  0  0  0  0  0
  1 17  1  0
  2  1  1  0
  3  2  1  0
  3  1  1  0
  4  3  1  0
  5  4  1  0
  6  5  2  0
  7  9  1  0
  7  6  1  0
  8  7  2  0
  9 10  1  0
 10 11  2  0
 10  4  1  0
 12 13  1  0
 13 14  2  0
 14  9  1  0
 15 14  1  0
 16 12  1  0
 16 15  2  0
 17 18  2  0
 18 19  1  0
 20 19  2  0
 21 20  1  0
 22 21  2  0
 22 17  1  0
 23 24  2  0
 23 21  1  0
 25 24  1  0
 26 25  2  0
 27 26  1  0
 27 28  2  0
 28 23  1  0
  1 29  1  1
  2 30  1  0
  2 31  1  0
  3 32  1  1
  5 33  1  0
  6 34  1  0
 12 35  1  0
 15 36  1  0
 16 37  1  0
 18 38  1  0
 19 39  1  0
 24 40  1  0
 25 41  1  0
 26 42  1  0
 27 43  1  0
M  ISO  8  29  13  30  13  31  13  32  13  33  14  34  14  35   9  36  14
M  ISO  7  37  14  38  14  39  14  40  14  41  14  42  14  43  14
M  END
>  <minimizedAffinity>  (1) 
-5.72984505

>  <minimizedRMSD>  (1) 
0.248638004

$$$$
