
     RDKit          3D

 44 48  0  0  1  0  0  0  0  0999 V2000
   37.9790   26.3750   36.4990 C   0  0  1  0  0  0  0  0  0  0  0  0
   38.7450   27.3380   35.6760 C   0  0  0  0  0  0  0  0  0  0  0  0
   37.4800   26.7320   35.1520 C   0  0  1  0  0  0  0  0  0  0  0  0
   37.6280   26.0390   33.9360 N   0  0  0  0  0  0  0  0  0  0  0  0
   37.7350   24.7140   33.7440 C   0  0  0  0  0  0  0  0  0  0  0  0
   37.8790   24.0970   32.5370 C   0  0  0  0  0  0  0  0  0  0  0  0
   37.9170   24.8990   31.3860 C   0  0  0  0  0  0  0  0  0  0  0  0
   38.0470   24.3950   30.2450 O   0  0  0  0  0  0  0  0  0  0  0  0
   37.8120   26.2520   31.4970 N   0  0  0  0  0  0  0  0  0  0  0  0
   37.6750   26.7420   32.7440 C   0  0  0  0  0  0  0  0  0  0  0  0
   37.5780   28.0190   32.8240 O   0  0  0  0  0  0  0  0  0  0  0  0
   37.1270   28.4670   28.7880 N   0  0  0  0  0  0  0  0  0  0  0  0
   36.7520   27.7260   29.8040 N   0  0  0  0  0  0  0  0  0  0  0  0
   37.8220   27.1260   30.3780 C   0  0  0  0  0  0  0  0  0  0  0  0
   38.9130   27.5280   29.6640 C   0  0  0  0  0  0  0  0  0  0  0  0
   38.4680   28.3690   28.6690 C   0  0  0  0  0  0  0  0  0  0  0  0
   38.5570   25.0450   36.8230 C   0  0  0  0  0  0  0  0  0  0  0  0
   37.9210   24.3240   37.8340 C   0  0  0  0  0  0  0  0  0  0  0  0
   38.3920   23.0700   38.1880 C   0  0  0  0  0  0  0  0  0  0  0  0
   39.4800   22.6060   37.5050 N   0  0  0  0  0  0  0  0  0  0  0  0
   40.0700   23.3430   36.5260 C   0  0  0  0  0  0  0  0  0  0  0  0
   39.6180   24.5400   36.1900 N   0  0  0  0  0  0  0  0  0  0  0  0
   41.2320   22.7690   35.8430 C   0  0  0  0  0  0  0  0  0  0  0  0
   42.4480   22.7120   36.4970 C   0  0  0  0  0  0  0  0  0  0  0  0
   43.5630   22.1820   35.8970 C   0  0  0  0  0  0  0  0  0  0  0  0
   43.4310   21.7100   34.6200 C   0  0  0  0  0  0  0  0  0  0  0  0
   42.2400   21.7320   33.8930 C   0  0  0  0  0  0  0  0  0  0  0  0
   41.1410   22.2820   34.5550 C   0  0  0  0  0  0  0  0  0  0  0  0
   37.5225   26.3777   37.4998 H   0  0  0  0  0  0  0  0  0  0  0  0
   38.7722   28.4017   35.9548 H   0  0  0  0  0  0  0  0  0  0  0  0
   39.7833   27.4065   35.3193 H   0  0  0  0  0  0  0  0  0  0  0  0
   36.4586   26.9930   34.8378 H   0  0  0  0  0  0  0  0  0  0  0  0
   37.7038   24.0721   34.6367 H   0  0  0  0  0  0  0  0  0  0  0  0
   37.9630   23.0024   32.4673 H   0  0  0  0  0  0  0  0  0  0  0  0
   36.5060   29.0262   28.1859 H   0  0  0  0  0  0  0  0  0  0  0  0
   39.9567   27.2341   29.8494 H   0  0  0  0  0  0  0  0  0  0  0  0
   39.0919   28.8700   27.9142 H   0  0  0  0  0  0  0  0  0  0  0  0
   37.0474   24.7502   38.3490 H   0  0  0  0  0  0  0  0  0  0  0  0
   37.9129   22.4768   38.9808 H   0  0  0  0  0  0  0  0  0  0  0  0
   42.5243   23.1007   37.5232 H   0  0  0  0  0  0  0  0  0  0  0  0
   44.5276   22.1384   36.4240 H   0  0  0  0  0  0  0  0  0  0  0  0
   44.3219   21.2853   34.1343 H   0  0  0  0  0  0  0  0  0  0  0  0
   42.1718   21.3419   32.8667 H   0  0  0  0  0  0  0  0  0  0  0  0
   40.1732   22.3286   34.0343 H   0  0  0  0  0  0  0  0  0  0  0  0
  1 17  1  0
  2  1  1  0
  3  2  1  0
  3  1  1  0
  4  3  1  0
  5  4  1  0
  6  5  2  0
  7  9  1  0
  7  6  1  0
  8  7  2  0
  9 10  1  0
 10 11  2  0
 10  4  1  0
 12 13  1  0
 13 14  2  0
 14  9  1  0
 15 14  1  0
 16 12  1  0
 16 15  2  0
 17 18  2  0
 18 19  1  0
 20 19  2  0
 21 20  1  0
 22 21  2  0
 22 17  1  0
 23 24  2  0
 23 21  1  0
 25 24  1  0
 26 25  2  0
 27 28  2  0
 27 26  1  0
 28 23  1  0
  1 29  1  1
  2 30  1  0
  2 31  1  0
  3 32  1  1
  5 33  1  0
  6 34  1  0
 12 35  1  0
 15 36  1  0
 16 37  1  0
 18 38  1  0
 19 39  1  0
 24 40  1  0
 25 41  1  0
 26 42  1  0
 27 43  1  0
 28 44  1  0
M  ISO  8  29  13  30  13  31  13  32  13  33  14  34  14  35   9  36  14
M  ISO  8  37  14  38  14  39  14  40  14  41  14  42  14  43  14  44  14
M  END
>  <minimizedAffinity>  (1) 
-5.78905344

>  <minimizedRMSD>  (1) 
0.237531915

$$$$
