
     RDKit          3D

 43 46  0  0  1  0  0  0  0  0999 V2000
   37.6170   26.0300   33.9260 N   0  0  0  0  0  0  0  0  0  0  0  0
   37.7250   24.7060   33.7260 C   0  0  0  0  0  0  0  0  0  0  0  0
   37.8720   24.1030   32.5070 C   0  0  0  0  0  0  0  0  0  0  0  0
   37.9100   24.9140   31.3650 C   0  0  0  0  0  0  0  0  0  0  0  0
   38.0410   24.4090   30.2240 O   0  0  0  0  0  0  0  0  0  0  0  0
   37.8020   26.2690   31.4920 N   0  0  0  0  0  0  0  0  0  0  0  0
   37.6640   26.7490   32.7420 C   0  0  0  0  0  0  0  0  0  0  0  0
   37.5660   28.0190   32.8320 O   0  0  0  0  0  0  0  0  0  0  0  0
   37.1070   28.4960   28.7990 N   0  0  0  0  0  0  0  0  0  0  0  0
   36.7350   27.7470   29.8110 N   0  0  0  0  0  0  0  0  0  0  0  0
   37.8130   27.1500   30.3760 C   0  0  0  0  0  0  0  0  0  0  0  0
   38.9040   27.5610   29.6680 C   0  0  0  0  0  0  0  0  0  0  0  0
   38.4520   28.4080   28.6770 C   0  0  0  0  0  0  0  0  0  0  0  0
   37.9720   26.3460   36.4910 C   0  0  1  0  0  0  0  0  0  0  0  0
   38.7180   27.3340   35.6760 C   0  0  0  0  0  0  0  0  0  0  0  0
   37.4690   26.7100   35.1470 C   0  0  1  0  0  0  0  0  0  0  0  0
   38.5780   25.0250   36.7950 C   0  0  0  0  0  0  0  0  0  0  0  0
   38.0370   24.3400   37.8910 C   0  0  0  0  0  0  0  0  0  0  0  0
   38.5380   23.1070   38.2470 C   0  0  0  0  0  0  0  0  0  0  0  0
   39.5590   22.6210   37.4840 N   0  0  0  0  0  0  0  0  0  0  0  0
   40.0540   23.3090   36.4370 C   0  0  0  0  0  0  0  0  0  0  0  0
   39.5850   24.5000   36.0790 N   0  0  0  0  0  0  0  0  0  0  0  0
   41.1660   22.6560   35.6980 C   0  0  0  0  0  0  0  0  0  0  0  0
   42.3800   22.6160   36.5990 C   0  0  0  0  0  0  0  0  0  0  0  0
   41.4540   23.4050   34.4180 C   0  0  0  0  0  0  0  0  0  0  0  0
   37.6927   24.0554   34.6124 H   0  0  0  0  0  0  0  0  0  0  0  0
   37.9582   23.0094   32.4254 H   0  0  0  0  0  0  0  0  0  0  0  0
   36.4823   29.0549   28.2004 H   0  0  0  0  0  0  0  0  0  0  0  0
   39.9490   27.2713   29.8526 H   0  0  0  0  0  0  0  0  0  0  0  0
   39.0717   28.9185   27.9251 H   0  0  0  0  0  0  0  0  0  0  0  0
   37.5154   26.3278   37.4916 H   0  0  0  0  0  0  0  0  0  0  0  0
   38.7237   28.3951   35.9657 H   0  0  0  0  0  0  0  0  0  0  0  0
   39.7545   27.4271   35.3196 H   0  0  0  0  0  0  0  0  0  0  0  0
   36.4447   26.9592   34.8327 H   0  0  0  0  0  0  0  0  0  0  0  0
   37.2129   24.7864   38.4668 H   0  0  0  0  0  0  0  0  0  0  0  0
   38.1357   22.5438   39.1019 H   0  0  0  0  0  0  0  0  0  0  0  0
   40.8887   21.6284   35.4201 H   0  0  0  0  0  0  0  0  0  0  0  0
   42.0568   22.6266   37.6504 H   0  0  0  0  0  0  0  0  0  0  0  0
   42.9535   21.6985   36.4010 H   0  0  0  0  0  0  0  0  0  0  0  0
   43.0127   23.4938   36.4010 H   0  0  0  0  0  0  0  0  0  0  0  0
   41.8393   24.4069   34.6582 H   0  0  0  0  0  0  0  0  0  0  0  0
   42.2045   22.8544   33.8319 H   0  0  0  0  0  0  0  0  0  0  0  0
   40.5279   23.4991   33.8319 H   0  0  0  0  0  0  0  0  0  0  0  0
  1 16  1  0
  2  1  1  0
  3  2  2  0
  4  6  1  0
  4  3  1  0
  5  4  2  0
  6  7  1  0
  7  8  2  0
  7  1  1  0
  9 10  1  0
 10 11  2  0
 11  6  1  0
 12 11  1  0
 13  9  1  0
 13 12  2  0
 14 17  1  0
 15 14  1  0
 16 15  1  0
 16 14  1  0
 17 18  2  0
 18 19  1  0
 20 19  2  0
 21 20  1  0
 22 21  2  0
 22 17  1  0
 23 21  1  0
 23 24  1  0
 25 23  1  0
  2 26  1  0
  3 27  1  0
  9 28  1  0
 12 29  1  0
 13 30  1  0
 14 31  1  1
 15 32  1  0
 15 33  1  0
 16 34  1  1
 18 35  1  0
 19 36  1  0
 23 37  1  0
 24 38  1  0
 24 39  1  0
 24 40  1  0
 25 41  1  0
 25 42  1  0
 25 43  1  0
M  ISO  8  26  14  27  14  28   9  29  14  30  14  31  13  32  13  33  13
M  ISO  8  34  13  35  14  36  14  37   8  38   8  39   8  40   8  41   8
M  ISO  2  42   8  43   8
M  END
>  <minimizedAffinity>  (1) 
-5.59235334

>  <minimizedRMSD>  (1) 
0.0769250989

$$$$
