
     RDKit          3D

 41 45  0  0  1  0  0  0  0  0999 V2000
   37.9970   26.3720   36.5150 C   0  0  1  0  0  0  0  0  0  0  0  0
   38.8040   27.3030   35.6940 C   0  0  0  0  0  0  0  0  0  0  0  0
   37.5160   26.7480   35.1680 C   0  0  1  0  0  0  0  0  0  0  0  0
   37.6300   26.0470   33.9530 N   0  0  0  0  0  0  0  0  0  0  0  0
   37.6990   24.7180   33.7700 C   0  0  0  0  0  0  0  0  0  0  0  0
   37.8130   24.0930   32.5600 C   0  0  0  0  0  0  0  0  0  0  0  0
   37.8600   24.8890   31.4060 C   0  0  0  0  0  0  0  0  0  0  0  0
   37.9640   24.3750   30.2660 O   0  0  0  0  0  0  0  0  0  0  0  0
   37.7930   26.2410   31.5100 N   0  0  0  0  0  0  0  0  0  0  0  0
   37.6830   26.7470   32.7580 C   0  0  0  0  0  0  0  0  0  0  0  0
   37.6220   28.0220   32.8340 O   0  0  0  0  0  0  0  0  0  0  0  0
   37.1310   28.4660   28.8020 N   0  0  0  0  0  0  0  0  0  0  0  0
   36.7500   27.7400   29.8260 N   0  0  0  0  0  0  0  0  0  0  0  0
   37.8140   27.1120   30.3850 C   0  0  0  0  0  0  0  0  0  0  0  0
   38.9060   27.4780   29.6540 C   0  0  0  0  0  0  0  0  0  0  0  0
   38.4670   28.3290   28.6640 C   0  0  0  0  0  0  0  0  0  0  0  0
   38.5170   25.0200   36.8380 C   0  0  0  0  0  0  0  0  0  0  0  0
   38.0190   24.4300   38.0070 C   0  0  0  0  0  0  0  0  0  0  0  0
   38.4480   23.1680   38.3760 C   0  0  0  0  0  0  0  0  0  0  0  0
   39.3510   22.5630   37.5580 N   0  0  0  0  0  0  0  0  0  0  0  0
   39.8110   23.1680   36.4330 C   0  0  0  0  0  0  0  0  0  0  0  0
   39.4090   24.3750   36.0680 N   0  0  0  0  0  0  0  0  0  0  0  0
   40.7830   22.5260   35.5460 C   0  0  0  0  0  0  0  0  0  0  0  0
   41.0180   22.4870   34.1790 C   0  0  0  0  0  0  0  0  0  0  0  0
   42.1210   21.6760   34.0080 C   0  0  0  0  0  0  0  0  0  0  0  0
   42.5290   21.2460   35.2320 N   0  0  0  0  0  0  0  0  0  0  0  0
   41.7290   21.7550   36.1430 N   0  0  0  0  0  0  0  0  0  0  0  0
   37.5399   26.3944   37.5153 H   0  0  0  0  0  0  0  0  0  0  0  0
   38.8738   28.3649   35.9726 H   0  0  0  0  0  0  0  0  0  0  0  0
   39.8450   27.3294   35.3397 H   0  0  0  0  0  0  0  0  0  0  0  0
   36.5077   27.0521   34.8505 H   0  0  0  0  0  0  0  0  0  0  0  0
   37.6607   24.0815   34.6663 H   0  0  0  0  0  0  0  0  0  0  0  0
   37.8664   22.9963   32.4929 H   0  0  0  0  0  0  0  0  0  0  0  0
   36.5175   29.0407   28.2067 H   0  0  0  0  0  0  0  0  0  0  0  0
   39.9434   27.1540   29.8235 H   0  0  0  0  0  0  0  0  0  0  0  0
   39.0927   28.8107   27.8982 H   0  0  0  0  0  0  0  0  0  0  0  0
   37.2892   24.9687   38.6293 H   0  0  0  0  0  0  0  0  0  0  0  0
   38.0767   22.6769   39.2875 H   0  0  0  0  0  0  0  0  0  0  0  0
   40.4428   22.9979   33.3928 H   0  0  0  0  0  0  0  0  0  0  0  0
   42.5901   21.4209   33.0463 H   0  0  0  0  0  0  0  0  0  0  0  0
   43.3305   20.6255   35.4148 H   0  0  0  0  0  0  0  0  0  0  0  0
  1 17  1  0
  2  1  1  0
  3  2  1  0
  3  1  1  0
  4  3  1  0
  5  4  1  0
  6  5  2  0
  7  9  1  0
  7  6  1  0
  8  7  2  0
  9 10  1  0
 10 11  2  0
 10  4  1  0
 12 13  1  0
 13 14  2  0
 14  9  1  0
 15 14  1  0
 16 12  1  0
 16 15  2  0
 17 18  2  0
 18 19  1  0
 20 19  2  0
 21 20  1  0
 22 21  2  0
 22 17  1  0
 23 27  2  0
 23 21  1  0
 24 23  1  0
 25 24  2  0
 25 26  1  0
 26 27  1  0
  1 28  1  1
  2 29  1  0
  2 30  1  0
  3 31  1  1
  5 32  1  0
  6 33  1  0
 12 34  1  0
 15 35  1  0
 16 36  1  0
 18 37  1  0
 19 38  1  0
 24 39  1  0
 25 40  1  0
 26 41  1  0
M  ISO  8  28  13  29  13  30  13  31  13  32  14  33  14  34   9  35  14
M  ISO  6  36  14  37  14  38  14  39  14  40  14  41   9
M  END
>  <minimizedAffinity>  (1) 
-5.63321829

>  <minimizedRMSD>  (1) 
0.284092933

$$$$
