
     RDKit          3D

 39 43  0  0  1  0  0  0  0  0999 V2000
   37.9960   26.3860   36.5160 C   0  0  1  0  0  0  0  0  0  0  0  0
   38.8140   27.3110   35.6960 C   0  0  0  0  0  0  0  0  0  0  0  0
   37.5270   26.7650   35.1660 C   0  0  1  0  0  0  0  0  0  0  0  0
   37.6360   26.0620   33.9530 N   0  0  0  0  0  0  0  0  0  0  0  0
   37.7000   24.7330   33.7770 C   0  0  0  0  0  0  0  0  0  0  0  0
   37.8110   24.1040   32.5640 C   0  0  0  0  0  0  0  0  0  0  0  0
   37.8600   24.8970   31.4090 C   0  0  0  0  0  0  0  0  0  0  0  0
   37.9610   24.3740   30.2720 O   0  0  0  0  0  0  0  0  0  0  0  0
   37.7960   26.2550   31.5150 N   0  0  0  0  0  0  0  0  0  0  0  0
   37.6910   26.7580   32.7560 C   0  0  0  0  0  0  0  0  0  0  0  0
   37.6330   28.0320   32.8290 O   0  0  0  0  0  0  0  0  0  0  0  0
   37.1310   28.4600   28.7940 N   0  0  0  0  0  0  0  0  0  0  0  0
   36.7550   27.7380   29.8210 N   0  0  0  0  0  0  0  0  0  0  0  0
   37.8210   27.1170   30.3850 C   0  0  0  0  0  0  0  0  0  0  0  0
   38.9130   27.4850   29.6540 C   0  0  0  0  0  0  0  0  0  0  0  0
   38.4670   28.3290   28.6580 C   0  0  0  0  0  0  0  0  0  0  0  0
   38.5070   25.0320   36.8430 C   0  0  0  0  0  0  0  0  0  0  0  0
   37.9890   24.4300   37.9940 C   0  0  0  0  0  0  0  0  0  0  0  0
   38.4110   23.1730   38.3660 C   0  0  0  0  0  0  0  0  0  0  0  0
   39.3320   22.5720   37.5680 N   0  0  0  0  0  0  0  0  0  0  0  0
   39.8100   23.1830   36.4640 C   0  0  0  0  0  0  0  0  0  0  0  0
   39.4180   24.3950   36.0880 N   0  0  0  0  0  0  0  0  0  0  0  0
   40.7950   22.4290   35.6940 C   0  0  0  0  0  0  0  0  0  0  0  0
   41.6390   21.5890   36.3450 N   0  0  0  0  0  0  0  0  0  0  0  0
   42.4420   21.0050   35.5160 O   0  0  0  0  0  0  0  0  0  0  0  0
   42.1650   21.4340   34.2870 C   0  0  0  0  0  0  0  0  0  0  0  0
   41.1480   22.3130   34.4000 N   0  0  0  0  0  0  0  0  0  0  0  0
   37.5325   26.4118   37.5132 H   0  0  0  0  0  0  0  0  0  0  0  0
   38.8898   28.3728   35.9730 H   0  0  0  0  0  0  0  0  0  0  0  0
   39.8568   27.3296   35.3464 H   0  0  0  0  0  0  0  0  0  0  0  0
   36.5233   27.0776   34.8423 H   0  0  0  0  0  0  0  0  0  0  0  0
   37.6603   24.0996   34.6754 H   0  0  0  0  0  0  0  0  0  0  0  0
   37.8603   23.0070   32.4988 H   0  0  0  0  0  0  0  0  0  0  0  0
   36.5146   29.0280   28.1954 H   0  0  0  0  0  0  0  0  0  0  0  0
   39.9523   27.1685   29.8263 H   0  0  0  0  0  0  0  0  0  0  0  0
   39.0900   28.8098   27.8894 H   0  0  0  0  0  0  0  0  0  0  0  0
   37.2431   24.9614   38.6033 H   0  0  0  0  0  0  0  0  0  0  0  0
   38.0205   22.6783   39.2676 H   0  0  0  0  0  0  0  0  0  0  0  0
   42.6687   21.1301   33.3575 H   0  0  0  0  0  0  0  0  0  0  0  0
  1 17  1  0
  2  1  1  0
  3  2  1  0
  3  1  1  0
  4  3  1  0
  5  4  1  0
  6  5  2  0
  7  9  1  0
  7  6  1  0
  8  7  2  0
  9 10  1  0
 10 11  2  0
 10  4  1  0
 12 13  1  0
 13 14  2  0
 14  9  1  0
 15 14  1  0
 16 12  1  0
 16 15  2  0
 17 18  2  0
 18 19  1  0
 20 19  2  0
 21 20  1  0
 22 21  2  0
 22 17  1  0
 23 24  2  0
 23 21  1  0
 25 24  1  0
 26 27  2  0
 26 25  1  0
 27 23  1  0
  1 28  1  1
  2 29  1  0
  2 30  1  0
  3 31  1  1
  5 32  1  0
  6 33  1  0
 12 34  1  0
 15 35  1  0
 16 36  1  0
 18 37  1  0
 19 38  1  0
 26 39  1  0
M  ISO  8  28  13  29  13  30  13  31  13  32  14  33  14  34   9  35  14
M  ISO  4  36  14  37  14  38  14  39  14
M  END
>  <minimizedAffinity>  (1) 
-5.66705799

>  <minimizedRMSD>  (1) 
0.285344899

$$$$
