
     RDKit          3D

 41 45  0  0  1  0  0  0  0  0999 V2000
   38.0130   26.3530   36.5010 C   0  0  1  0  0  0  0  0  0  0  0  0
   38.8160   27.2860   35.6770 C   0  0  0  0  0  0  0  0  0  0  0  0
   37.5230   26.7320   35.1570 C   0  0  1  0  0  0  0  0  0  0  0  0
   37.6320   26.0350   33.9400 N   0  0  0  0  0  0  0  0  0  0  0  0
   37.6980   24.7080   33.7470 C   0  0  0  0  0  0  0  0  0  0  0  0
   37.8110   24.0880   32.5350 C   0  0  0  0  0  0  0  0  0  0  0  0
   37.8610   24.8890   31.3860 C   0  0  0  0  0  0  0  0  0  0  0  0
   37.9640   24.3790   30.2460 O   0  0  0  0  0  0  0  0  0  0  0  0
   37.7970   26.2380   31.4970 N   0  0  0  0  0  0  0  0  0  0  0  0
   37.6870   26.7420   32.7480 C   0  0  0  0  0  0  0  0  0  0  0  0
   37.6280   28.0130   32.8300 O   0  0  0  0  0  0  0  0  0  0  0  0
   37.1160   28.4840   28.8070 N   0  0  0  0  0  0  0  0  0  0  0  0
   36.7500   27.7430   29.8250 N   0  0  0  0  0  0  0  0  0  0  0  0
   37.8190   27.1180   30.3790 C   0  0  0  0  0  0  0  0  0  0  0  0
   38.9060   27.5000   29.6540 C   0  0  0  0  0  0  0  0  0  0  0  0
   38.4540   28.3570   28.6700 C   0  0  0  0  0  0  0  0  0  0  0  0
   38.5350   24.9980   36.8170 C   0  0  0  0  0  0  0  0  0  0  0  0
   38.0410   24.4130   37.9920 C   0  0  0  0  0  0  0  0  0  0  0  0
   38.4770   23.1550   38.3540 C   0  0  0  0  0  0  0  0  0  0  0  0
   39.3700   22.5540   37.5370 N   0  0  0  0  0  0  0  0  0  0  0  0
   39.8240   23.1490   36.4140 C   0  0  0  0  0  0  0  0  0  0  0  0
   39.4250   24.3570   36.0380 N   0  0  0  0  0  0  0  0  0  0  0  0
   40.8000   22.4140   35.5820 C   0  0  0  0  0  0  0  0  0  0  0  0
   40.7480   22.2340   34.2140 C   0  0  0  0  0  0  0  0  0  0  0  0
   41.8670   21.4880   33.8750 C   0  0  0  0  0  0  0  0  0  0  0  0
   42.5530   21.2460   35.0490 C   0  0  0  0  0  0  0  0  0  0  0  0
   41.8820   21.8110   36.0080 O   0  0  0  0  0  0  0  0  0  0  0  0
   37.5624   26.3737   37.5043 H   0  0  0  0  0  0  0  0  0  0  0  0
   38.8879   28.3472   35.9576 H   0  0  0  0  0  0  0  0  0  0  0  0
   39.8549   27.3128   35.3165 H   0  0  0  0  0  0  0  0  0  0  0  0
   36.5123   27.0360   34.8470 H   0  0  0  0  0  0  0  0  0  0  0  0
   37.6577   24.0663   34.6395 H   0  0  0  0  0  0  0  0  0  0  0  0
   37.8613   22.9915   32.4629 H   0  0  0  0  0  0  0  0  0  0  0  0
   36.4959   29.0586   28.2186 H   0  0  0  0  0  0  0  0  0  0  0  0
   39.9469   27.1857   29.8204 H   0  0  0  0  0  0  0  0  0  0  0  0
   39.0750   28.8502   27.9077 H   0  0  0  0  0  0  0  0  0  0  0  0
   37.3140   24.9511   38.6180 H   0  0  0  0  0  0  0  0  0  0  0  0
   38.1135   22.6626   39.2680 H   0  0  0  0  0  0  0  0  0  0  0  0
   39.9729   22.6080   33.5290 H   0  0  0  0  0  0  0  0  0  0  0  0
   42.1527   21.1539   32.8667 H   0  0  0  0  0  0  0  0  0  0  0  0
   43.4911   20.6811   35.1529 H   0  0  0  0  0  0  0  0  0  0  0  0
  1 17  1  0
  2  1  1  0
  3  2  1  0
  3  1  1  0
  4  3  1  0
  5  4  1  0
  6  5  2  0
  7  9  1  0
  7  6  1  0
  8  7  2  0
  9 10  1  0
 10 11  2  0
 10  4  1  0
 12 13  1  0
 13 14  2  0
 14  9  1  0
 15 14  1  0
 16 12  1  0
 16 15  2  0
 17 18  2  0
 18 19  1  0
 20 19  2  0
 21 20  1  0
 22 21  2  0
 22 17  1  0
 23 27  1  0
 23 21  1  0
 24 23  2  0
 25 24  1  0
 25 26  2  0
 26 27  1  0
  1 28  1  1
  2 29  1  0
  2 30  1  0
  3 31  1  1
  5 32  1  0
  6 33  1  0
 12 34  1  0
 15 35  1  0
 16 36  1  0
 18 37  1  0
 19 38  1  0
 24 39  1  0
 25 40  1  0
 26 41  1  0
M  ISO  8  28  13  29  13  30  13  31  13  32  14  33  14  34   9  35  14
M  ISO  6  36  14  37  14  38  14  39  14  40  14  41  14
M  END
>  <minimizedAffinity>  (1) 
-5.64971066

>  <minimizedRMSD>  (1) 
0.274217159

$$$$
