
     RDKit          3D

 47 51  0  0  1  0  0  0  0  0999 V2000
   38.0540   26.3830   36.3620 C   0  0  1  0  0  0  0  0  0  0  0  0
   38.9860   27.2320   35.5820 C   0  0  0  0  0  0  0  0  0  0  0  0
   37.6660   26.8250   35.0050 C   0  0  1  0  0  0  0  0  0  0  0  0
   37.7420   26.1300   33.7860 N   0  0  0  0  0  0  0  0  0  0  0  0
   37.7810   24.8020   33.5980 C   0  0  0  0  0  0  0  0  0  0  0  0
   37.8600   24.1820   32.3760 C   0  0  0  0  0  0  0  0  0  0  0  0
   37.9000   24.9830   31.2260 C   0  0  0  0  0  0  0  0  0  0  0  0
   37.9720   24.4710   30.0840 O   0  0  0  0  0  0  0  0  0  0  0  0
   37.8610   26.3280   31.3430 N   0  0  0  0  0  0  0  0  0  0  0  0
   37.7850   26.8340   32.5910 C   0  0  0  0  0  0  0  0  0  0  0  0
   37.7500   28.1100   32.6760 O   0  0  0  0  0  0  0  0  0  0  0  0
   37.1880   28.5930   28.6610 N   0  0  0  0  0  0  0  0  0  0  0  0
   36.8160   27.8620   29.6850 N   0  0  0  0  0  0  0  0  0  0  0  0
   37.8780   27.2130   30.2210 C   0  0  0  0  0  0  0  0  0  0  0  0
   38.9640   27.5720   29.4760 C   0  0  0  0  0  0  0  0  0  0  0  0
   38.5190   28.4390   28.4990 C   0  0  0  0  0  0  0  0  0  0  0  0
   38.4170   24.9800   36.6810 C   0  0  0  0  0  0  0  0  0  0  0  0
   37.4230   24.1880   37.2540 C   0  0  0  0  0  0  0  0  0  0  0  0
   37.6670   22.8740   37.5840 C   0  0  0  0  0  0  0  0  0  0  0  0
   38.9120   22.4150   37.3190 N   0  0  0  0  0  0  0  0  0  0  0  0
   39.8640   23.2010   36.7640 C   0  0  0  0  0  0  0  0  0  0  0  0
   39.6360   24.4700   36.4420 N   0  0  0  0  0  0  0  0  0  0  0  0
   43.6730   21.3940   36.1080 C   0  0  0  0  0  0  0  0  0  0  0  0
   42.7240   20.7710   36.8870 C   0  0  0  0  0  0  0  0  0  0  0  0
   41.5190   21.3950   37.0640 C   0  0  0  0  0  0  0  0  0  0  0  0
   41.1780   22.6150   36.5160 C   0  0  0  0  0  0  0  0  0  0  0  0
   42.1280   23.2320   35.7400 C   0  0  0  0  0  0  0  0  0  0  0  0
   43.3690   22.6190   35.5410 C   0  0  0  0  0  0  0  0  0  0  0  0
   45.2180   20.6030   35.8760 S   0  0  0  0  0  0  0  0  0  0  0  0
   45.3440   19.4240   36.7970 O   0  0  0  0  0  0  0  0  0  0  0  0
   45.2840   20.1370   34.4440 O   0  0  0  0  0  0  0  0  0  0  0  0
   37.5650   26.4422   37.3455 H   0  0  0  0  0  0  0  0  0  0  0  0
   39.1594   28.2770   35.8787 H   0  0  0  0  0  0  0  0  0  0  0  0
   40.0357   27.1502   35.2636 H   0  0  0  0  0  0  0  0  0  0  0  0
   36.7091   27.2415   34.6572 H   0  0  0  0  0  0  0  0  0  0  0  0
   37.7471   24.1613   34.4915 H   0  0  0  0  0  0  0  0  0  0  0  0
   37.8911   23.0850   32.3009 H   0  0  0  0  0  0  0  0  0  0  0  0
   36.5720   29.1815   28.0820 H   0  0  0  0  0  0  0  0  0  0  0  0
   39.9998   27.2336   29.6263 H   0  0  0  0  0  0  0  0  0  0  0  0
   39.1381   28.9186   27.7266 H   0  0  0  0  0  0  0  0  0  0  0  0
   36.4293   24.6193   37.4452 H   0  0  0  0  0  0  0  0  0  0  0  0
   36.8949   22.2345   38.0367 H   0  0  0  0  0  0  0  0  0  0  0  0
   42.9291   19.7969   37.3550 H   0  0  0  0  0  0  0  0  0  0  0  0
   40.7683   20.8878   37.6878 H   0  0  0  0  0  0  0  0  0  0  0  0
   41.9134   24.2060   35.2761 H   0  0  0  0  0  0  0  0  0  0  0  0
   44.1224   23.1233   34.9181 H   0  0  0  0  0  0  0  0  0  0  0  0
   46.2395   21.4731   36.1523 H   0  0  0  0  0  0  0  0  0  0  0  0
  1 17  1  0
  2  1  1  0
  3  2  1  0
  3  1  1  0
  4  3  1  0
  5  4  1  0
  6  5  2  0
  7  9  1  0
  7  6  1  0
  8  7  2  0
  9 10  1  0
 10 11  2  0
 10  4  1  0
 12 13  1  0
 13 14  2  0
 14  9  1  0
 15 14  1  0
 16 12  1  0
 16 15  2  0
 17 18  2  0
 18 19  1  0
 20 19  2  0
 21 20  1  0
 22 17  1  0
 22 21  2  0
 23 24  2  0
 24 25  1  0
 26 21  1  0
 26 25  2  0
 27 26  1  0
 28 27  2  0
 28 23  1  0
 29 23  1  0
 29 30  2  0
 31 29  2  0
  1 32  1  1
  2 33  1  0
  2 34  1  0
  3 35  1  1
  5 36  1  0
  6 37  1  0
 12 38  1  0
 15 39  1  0
 16 40  1  0
 18 41  1  0
 19 42  1  0
 24 43  1  0
 25 44  1  0
 27 45  1  0
 28 46  1  0
 29 47  1  0
M  ISO  8  32  13  33  13  34  13  35  13  36  14  37  14  38   9  39  14
M  ISO  8  40  14  41  14  42  14  43  14  44  14  45  14  46  14  47  11
M  END
>  <minimizedAffinity>  (1) 
-5.72371244

>  <minimizedRMSD>  (1) 
1.11553323

$$$$
