
     RDKit          3D

 36 39  0  0  1  0  0  0  0  0999 V2000
   37.6070   26.0300   33.9220 N   0  0  0  0  0  0  0  0  0  0  0  0
   37.6890   24.7070   33.7190 C   0  0  0  0  0  0  0  0  0  0  0  0
   37.8120   24.0990   32.5020 C   0  0  0  0  0  0  0  0  0  0  0  0
   37.8550   24.9080   31.3590 C   0  0  0  0  0  0  0  0  0  0  0  0
   37.9660   24.4060   30.2170 O   0  0  0  0  0  0  0  0  0  0  0  0
   37.7740   26.2610   31.4830 N   0  0  0  0  0  0  0  0  0  0  0  0
   37.6570   26.7440   32.7350 C   0  0  0  0  0  0  0  0  0  0  0  0
   37.5820   28.0210   32.8230 O   0  0  0  0  0  0  0  0  0  0  0  0
   37.1130   28.5130   28.7950 N   0  0  0  0  0  0  0  0  0  0  0  0
   36.7310   27.7700   29.8070 N   0  0  0  0  0  0  0  0  0  0  0  0
   37.7940   27.1450   30.3710 C   0  0  0  0  0  0  0  0  0  0  0  0
   38.8880   27.5340   29.6540 C   0  0  0  0  0  0  0  0  0  0  0  0
   38.4520   28.3920   28.6690 C   0  0  0  0  0  0  0  0  0  0  0  0
   37.9880   26.3480   36.4800 C   0  0  1  0  0  0  0  0  0  0  0  0
   38.7380   27.3250   35.6550 C   0  0  0  0  0  0  0  0  0  0  0  0
   37.4790   26.7200   35.1410 C   0  0  1  0  0  0  0  0  0  0  0  0
   38.5770   25.0180   36.7840 C   0  0  0  0  0  0  0  0  0  0  0  0
   38.0490   24.3300   37.8700 C   0  0  0  0  0  0  0  0  0  0  0  0
   38.5320   23.0920   38.2270 C   0  0  0  0  0  0  0  0  0  0  0  0
   39.5380   22.6040   37.4620 N   0  0  0  0  0  0  0  0  0  0  0  0
   40.0350   23.2890   36.4130 C   0  0  0  0  0  0  0  0  0  0  0  0
   39.5750   24.4860   36.0590 N   0  0  0  0  0  0  0  0  0  0  0  0
   41.0940   22.7330   35.6370 N   0  0  0  0  0  0  0  0  0  0  0  0
   37.6543   24.0575   34.6061 H   0  0  0  0  0  0  0  0  0  0  0  0
   37.8756   23.0038   32.4216 H   0  0  0  0  0  0  0  0  0  0  0  0
   36.4989   29.0879   28.2007 H   0  0  0  0  0  0  0  0  0  0  0  0
   39.9273   27.2199   29.8304 H   0  0  0  0  0  0  0  0  0  0  0  0
   39.0809   28.8890   27.9157 H   0  0  0  0  0  0  0  0  0  0  0  0
   37.5414   26.3357   37.4852 H   0  0  0  0  0  0  0  0  0  0  0  0
   38.7613   28.3863   35.9434 H   0  0  0  0  0  0  0  0  0  0  0  0
   39.7717   27.4033   35.2872 H   0  0  0  0  0  0  0  0  0  0  0  0
   36.4569   26.9877   34.8350 H   0  0  0  0  0  0  0  0  0  0  0  0
   37.2328   24.7819   38.4528 H   0  0  0  0  0  0  0  0  0  0  0  0
   38.1257   22.5321   39.0822 H   0  0  0  0  0  0  0  0  0  0  0  0
   41.4743   23.2559   34.8352 H   0  0  0  0  0  0  0  0  0  0  0  0
   41.4787   21.8085   35.8782 H   0  0  0  0  0  0  0  0  0  0  0  0
  1 16  1  0
  2  1  1  0
  3  2  2  0
  4  6  1  0
  4  3  1  0
  5  4  2  0
  6  7  1  0
  7  8  2  0
  7  1  1  0
  9 10  1  0
 10 11  2  0
 11  6  1  0
 12 11  1  0
 13  9  1  0
 13 12  2  0
 14 17  1  0
 15 14  1  0
 16 15  1  0
 16 14  1  0
 17 18  2  0
 18 19  1  0
 20 19  2  0
 21 20  1  0
 22 21  2  0
 22 17  1  0
 23 21  1  0
  2 24  1  0
  3 25  1  0
  9 26  1  0
 12 27  1  0
 13 28  1  0
 14 29  1  1
 15 30  1  0
 15 31  1  0
 16 32  1  1
 18 33  1  0
 19 34  1  0
 23 35  1  0
 23 36  1  0
M  ISO  8  24  14  25  14  26   9  27  14  28  14  29  13  30  13  31  13
M  ISO  3  32  13  33  14  34  14
M  END
>  <minimizedAffinity>  (1) 
-5.38381863

>  <minimizedRMSD>  (1) 
0.0460206494

$$$$
