
     RDKit          3D

 41 45  0  0  1  0  0  0  0  0999 V2000
   37.6000   26.0290   33.9190 N   0  0  0  0  0  0  0  0  0  0  0  0
   37.7030   24.7040   33.7200 C   0  0  0  0  0  0  0  0  0  0  0  0
   37.8480   24.1010   32.4970 C   0  0  0  0  0  0  0  0  0  0  0  0
   37.8900   24.9110   31.3590 C   0  0  0  0  0  0  0  0  0  0  0  0
   38.0210   24.4140   30.2140 O   0  0  0  0  0  0  0  0  0  0  0  0
   37.7880   26.2660   31.4830 N   0  0  0  0  0  0  0  0  0  0  0  0
   37.6510   26.7510   32.7370 C   0  0  0  0  0  0  0  0  0  0  0  0
   37.5570   28.0180   32.8250 O   0  0  0  0  0  0  0  0  0  0  0  0
   37.1050   28.5090   28.7950 N   0  0  0  0  0  0  0  0  0  0  0  0
   36.7310   27.7570   29.8030 N   0  0  0  0  0  0  0  0  0  0  0  0
   37.8040   27.1520   30.3710 C   0  0  0  0  0  0  0  0  0  0  0  0
   38.8950   27.5650   29.6630 C   0  0  0  0  0  0  0  0  0  0  0  0
   38.4460   28.4150   28.6780 C   0  0  0  0  0  0  0  0  0  0  0  0
   37.9820   26.3540   36.4780 C   0  0  1  0  0  0  0  0  0  0  0  0
   38.7120   27.3470   35.6570 C   0  0  0  0  0  0  0  0  0  0  0  0
   37.4580   26.7090   35.1410 C   0  0  1  0  0  0  0  0  0  0  0  0
   38.5970   25.0370   36.7800 C   0  0  0  0  0  0  0  0  0  0  0  0
   37.9890   24.3040   37.8140 C   0  0  0  0  0  0  0  0  0  0  0  0
   38.5060   23.0580   38.1510 C   0  0  0  0  0  0  0  0  0  0  0  0
   39.5930   22.6220   37.4420 N   0  0  0  0  0  0  0  0  0  0  0  0
   40.1410   23.3720   36.4530 C   0  0  0  0  0  0  0  0  0  0  0  0
   39.6650   24.5610   36.1170 N   0  0  0  0  0  0  0  0  0  0  0  0
   41.3230   22.8150   35.7340 C   0  0  0  0  0  0  0  0  0  0  0  0
   42.5750   22.6830   36.5240 C   0  0  0  0  0  0  0  0  0  0  0  0
   42.4760   23.6340   35.3560 C   0  0  0  0  0  0  0  0  0  0  0  0
   37.6683   24.0532   34.6061 H   0  0  0  0  0  0  0  0  0  0  0  0
   37.9292   23.0072   32.4138 H   0  0  0  0  0  0  0  0  0  0  0  0
   36.4836   29.0726   28.1974 H   0  0  0  0  0  0  0  0  0  0  0  0
   39.9396   27.2728   29.8456 H   0  0  0  0  0  0  0  0  0  0  0  0
   39.0689   28.9263   27.9293 H   0  0  0  0  0  0  0  0  0  0  0  0
   37.5385   26.3352   37.4844 H   0  0  0  0  0  0  0  0  0  0  0  0
   38.7119   28.4083   35.9462 H   0  0  0  0  0  0  0  0  0  0  0  0
   39.7439   27.4490   35.2900 H   0  0  0  0  0  0  0  0  0  0  0  0
   36.4274   26.9467   34.8388 H   0  0  0  0  0  0  0  0  0  0  0  0
   37.1175   24.7100   38.3484 H   0  0  0  0  0  0  0  0  0  0  0  0
   38.0612   22.4493   38.9521 H   0  0  0  0  0  0  0  0  0  0  0  0
   40.6691   22.1559   35.1441 H   0  0  0  0  0  0  0  0  0  0  0  0
   42.6251   23.0713   37.5520 H   0  0  0  0  0  0  0  0  0  0  0  0
   43.2408   21.8555   36.8103 H   0  0  0  0  0  0  0  0  0  0  0  0
   43.0211   23.4202   34.4248 H   0  0  0  0  0  0  0  0  0  0  0  0
   42.6522   24.7102   35.2118 H   0  0  0  0  0  0  0  0  0  0  0  0
  1 16  1  0
  2  1  1  0
  3  2  2  0
  4  6  1  0
  4  3  1  0
  5  4  2  0
  6  7  1  0
  7  8  2  0
  7  1  1  0
  9 10  1  0
 10 11  2  0
 11  6  1  0
 12 11  1  0
 13  9  1  0
 13 12  2  0
 14 17  1  0
 15 14  1  0
 16 15  1  0
 16 14  1  0
 17 18  2  0
 18 19  1  0
 20 19  2  0
 21 20  1  0
 22 21  2  0
 22 17  1  0
 23 21  1  0
 23 24  1  0
 25 23  1  0
 25 24  1  0
  2 26  1  0
  3 27  1  0
  9 28  1  0
 12 29  1  0
 13 30  1  0
 14 31  1  1
 15 32  1  0
 15 33  1  0
 16 34  1  1
 18 35  1  0
 19 36  1  0
 23 37  1  0
 24 38  1  0
 24 39  1  0
 25 40  1  0
 25 41  1  0
M  ISO  8  26  14  27  14  28   9  29  14  30  14  31  13  32  13  33  13
M  ISO  8  34  13  35  14  36  14  37  13  38  13  39  13  40  13  41  13
M  END
>  <minimizedAffinity>  (1) 
-5.5410037

>  <minimizedRMSD>  (1) 
0.122864254

$$$$
