
     RDKit          3D

 35 38  0  0  1  0  0  0  0  0999 V2000
   37.6100   26.0240   33.9280 N   0  0  0  0  0  0  0  0  0  0  0  0
   37.6890   24.6990   33.7280 C   0  0  0  0  0  0  0  0  0  0  0  0
   37.8120   24.0910   32.5050 C   0  0  0  0  0  0  0  0  0  0  0  0
   37.8570   24.9030   31.3630 C   0  0  0  0  0  0  0  0  0  0  0  0
   37.9700   24.3990   30.2210 O   0  0  0  0  0  0  0  0  0  0  0  0
   37.7800   26.2590   31.4920 N   0  0  0  0  0  0  0  0  0  0  0  0
   37.6630   26.7360   32.7400 C   0  0  0  0  0  0  0  0  0  0  0  0
   37.5920   28.0140   32.8310 O   0  0  0  0  0  0  0  0  0  0  0  0
   37.1120   28.4980   28.7980 N   0  0  0  0  0  0  0  0  0  0  0  0
   36.7350   27.7540   29.8100 N   0  0  0  0  0  0  0  0  0  0  0  0
   37.8020   27.1410   30.3760 C   0  0  0  0  0  0  0  0  0  0  0  0
   38.8950   27.5390   29.6630 C   0  0  0  0  0  0  0  0  0  0  0  0
   38.4560   28.3890   28.6750 C   0  0  0  0  0  0  0  0  0  0  0  0
   38.0040   26.3400   36.4850 C   0  0  1  0  0  0  0  0  0  0  0  0
   38.7550   27.3130   35.6590 C   0  0  0  0  0  0  0  0  0  0  0  0
   37.4870   26.7090   35.1490 C   0  0  1  0  0  0  0  0  0  0  0  0
   38.5890   25.0090   36.7860 C   0  0  0  0  0  0  0  0  0  0  0  0
   38.0230   24.3280   37.8760 C   0  0  0  0  0  0  0  0  0  0  0  0
   38.5190   23.0710   38.2150 C   0  0  0  0  0  0  0  0  0  0  0  0
   39.5360   22.5790   37.4550 N   0  0  0  0  0  0  0  0  0  0  0  0
   40.0460   23.2790   36.4120 C   0  0  0  0  0  0  0  0  0  0  0  0
   39.5930   24.4750   36.0690 N   0  0  0  0  0  0  0  0  0  0  0  0
   41.0800   22.6260   35.7440 O   0  0  0  0  0  0  0  0  0  0  0  0
   37.6522   24.0497   34.6151 H   0  0  0  0  0  0  0  0  0  0  0  0
   37.8737   22.9959   32.4222 H   0  0  0  0  0  0  0  0  0  0  0  0
   36.4938   29.0659   28.2011 H   0  0  0  0  0  0  0  0  0  0  0  0
   39.9365   27.2356   29.8450 H   0  0  0  0  0  0  0  0  0  0  0  0
   39.0826   28.8892   27.9219 H   0  0  0  0  0  0  0  0  0  0  0  0
   37.5623   26.3320   37.4924 H   0  0  0  0  0  0  0  0  0  0  0  0
   38.7830   28.3743   35.9468 H   0  0  0  0  0  0  0  0  0  0  0  0
   39.7878   27.3879   35.2878 H   0  0  0  0  0  0  0  0  0  0  0  0
   36.4623   26.9741   34.8496 H   0  0  0  0  0  0  0  0  0  0  0  0
   37.2020   24.7794   38.4523 H   0  0  0  0  0  0  0  0  0  0  0  0
   38.1067   22.5005   39.0603 H   0  0  0  0  0  0  0  0  0  0  0  0
   41.5176   23.0569   34.9675 H   0  0  0  0  0  0  0  0  0  0  0  0
  1 16  1  0
  2  1  1  0
  3  2  2  0
  4  6  1  0
  4  3  1  0
  5  4  2  0
  6  7  1  0
  7  8  2  0
  7  1  1  0
  9 10  1  0
 10 11  2  0
 11  6  1  0
 12 11  1  0
 13  9  1  0
 13 12  2  0
 14 17  1  0
 15 14  1  0
 16 15  1  0
 16 14  1  0
 17 18  2  0
 18 19  1  0
 20 19  2  0
 21 20  1  0
 22 21  2  0
 22 17  1  0
 23 21  1  0
  2 24  1  0
  3 25  1  0
  9 26  1  0
 12 27  1  0
 13 28  1  0
 14 29  1  1
 15 30  1  0
 15 31  1  0
 16 32  1  1
 18 33  1  0
 19 34  1  0
 23 35  1  0
M  ISO  8  24  14  25  14  26   9  27  14  28  14  29  13  30  13  31  13
M  ISO  4  32  13  33  14  34  14  35   3
M  END
>  <minimizedAffinity>  (1) 
-5.35098457

>  <minimizedRMSD>  (1) 
0.0434965491

$$$$
