
     RDKit          3D

 37 40  0  0  1  0  0  0  0  0999 V2000
   37.6070   26.0120   33.9210 N   0  0  0  0  0  0  0  0  0  0  0  0
   37.7000   24.6880   33.7180 C   0  0  0  0  0  0  0  0  0  0  0  0
   37.8350   24.0870   32.4930 C   0  0  0  0  0  0  0  0  0  0  0  0
   37.8760   24.9030   31.3540 C   0  0  0  0  0  0  0  0  0  0  0  0
   37.9970   24.4050   30.2100 O   0  0  0  0  0  0  0  0  0  0  0  0
   37.7840   26.2530   31.4860 N   0  0  0  0  0  0  0  0  0  0  0  0
   37.6570   26.7340   32.7380 C   0  0  0  0  0  0  0  0  0  0  0  0
   37.5710   28.0050   32.8340 O   0  0  0  0  0  0  0  0  0  0  0  0
   37.1000   28.5120   28.8070 N   0  0  0  0  0  0  0  0  0  0  0  0
   36.7330   27.7600   29.8150 N   0  0  0  0  0  0  0  0  0  0  0  0
   37.8010   27.1440   30.3750 C   0  0  0  0  0  0  0  0  0  0  0  0
   38.8900   27.5480   29.6600 C   0  0  0  0  0  0  0  0  0  0  0  0
   38.4400   28.4050   28.6800 C   0  0  0  0  0  0  0  0  0  0  0  0
   38.0040   26.3260   36.4820 C   0  0  1  0  0  0  0  0  0  0  0  0
   38.7450   27.3090   35.6570 C   0  0  0  0  0  0  0  0  0  0  0  0
   37.4770   26.6890   35.1470 C   0  0  1  0  0  0  0  0  0  0  0  0
   38.6030   25.0000   36.7790 C   0  0  0  0  0  0  0  0  0  0  0  0
   38.0440   24.3130   37.8690 C   0  0  0  0  0  0  0  0  0  0  0  0
   38.5500   23.0630   38.2030 C   0  0  0  0  0  0  0  0  0  0  0  0
   39.5740   22.5780   37.4370 N   0  0  0  0  0  0  0  0  0  0  0  0
   40.0770   23.2830   36.3940 C   0  0  0  0  0  0  0  0  0  0  0  0
   39.6100   24.4760   36.0580 N   0  0  0  0  0  0  0  0  0  0  0  0
   41.1930   22.6670   35.6200 C   0  0  0  0  0  0  0  0  0  0  0  0
   37.6652   24.0351   34.6026 H   0  0  0  0  0  0  0  0  0  0  0  0
   37.9092   22.9929   32.4063 H   0  0  0  0  0  0  0  0  0  0  0  0
   36.4778   29.0827   28.2170 H   0  0  0  0  0  0  0  0  0  0  0  0
   39.9333   27.2457   29.8336 H   0  0  0  0  0  0  0  0  0  0  0  0
   39.0618   28.9121   27.9276 H   0  0  0  0  0  0  0  0  0  0  0  0
   37.5653   26.3135   37.4906 H   0  0  0  0  0  0  0  0  0  0  0  0
   38.7623   28.3701   35.9465 H   0  0  0  0  0  0  0  0  0  0  0  0
   39.7764   27.3958   35.2845 H   0  0  0  0  0  0  0  0  0  0  0  0
   36.4470   26.9386   34.8524 H   0  0  0  0  0  0  0  0  0  0  0  0
   37.2205   24.7566   38.4478 H   0  0  0  0  0  0  0  0  0  0  0  0
   38.1441   22.4875   39.0480 H   0  0  0  0  0  0  0  0  0  0  0  0
   41.9386   22.2554   36.3162 H   0  0  0  0  0  0  0  0  0  0  0  0
   40.7978   21.8593   34.9865 H   0  0  0  0  0  0  0  0  0  0  0  0
   41.6658   23.4319   34.9865 H   0  0  0  0  0  0  0  0  0  0  0  0
  1 16  1  0
  2  1  1  0
  3  2  2  0
  4  6  1  0
  4  3  1  0
  5  4  2  0
  6  7  1  0
  7  8  2  0
  7  1  1  0
  9 10  1  0
 10 11  2  0
 11  6  1  0
 12 11  1  0
 13  9  1  0
 13 12  2  0
 14 17  1  0
 15 14  1  0
 16 15  1  0
 16 14  1  0
 17 18  2  0
 18 19  1  0
 20 19  2  0
 21 20  1  0
 22 21  2  0
 22 17  1  0
 23 21  1  0
  2 24  1  0
  3 25  1  0
  9 26  1  0
 12 27  1  0
 13 28  1  0
 14 29  1  1
 15 30  1  0
 15 31  1  0
 16 32  1  1
 18 33  1  0
 19 34  1  0
 23 35  1  0
 23 36  1  0
 23 37  1  0
M  ISO  8  24  14  25  14  26   9  27  14  28  14  29  13  30  13  31  13
M  ISO  6  32  13  33  14  34  14  35   8  36   8  37   8
M  END
>  <minimizedAffinity>  (1) 
-5.3999958

>  <minimizedRMSD>  (1) 
0.0322555825

$$$$
