
     RDKit          3D

 38 41  0  0  0  0  0  0  0  0999 V2000
   38.3390   23.8080   34.7040 N   0  0  0  0  0  0  0  0  0  0  0  0
   38.4100   22.8730   33.7630 N   0  0  0  0  0  0  0  0  0  0  0  0
   38.1610   23.3830   32.5660 C   0  0  0  0  0  0  0  0  0  0  0  0
   37.9180   24.7110   32.7460 C   0  0  0  0  0  0  0  0  0  0  0  0
   38.0340   24.9690   34.1120 C   0  0  0  0  0  0  0  0  0  0  0  0
   37.5920   25.8070   31.8710 C   0  0  0  0  0  0  0  0  0  0  0  0
   36.3140   26.1600   31.6830 N   0  0  0  0  0  0  0  0  0  0  0  0
   35.8510   27.1380   30.9160 C   0  0  0  0  0  0  0  0  0  0  0  0
   36.6760   27.9250   30.2040 N   0  0  0  0  0  0  0  0  0  0  0  0
   37.9990   27.6690   30.3080 C   0  0  0  0  0  0  0  0  0  0  0  0
   38.8980   28.4340   29.6070 C   0  0  0  0  0  0  0  0  0  0  0  0
   40.2680   28.2100   29.6810 C   0  0  0  0  0  0  0  0  0  0  0  0
   40.6710   27.1670   30.5080 C   0  0  0  0  0  0  0  0  0  0  0  0
   39.7240   26.4380   31.1840 C   0  0  0  0  0  0  0  0  0  0  0  0
   38.3760   26.6330   31.1300 C   0  0  0  0  0  0  0  0  0  0  0  0
   37.5370   23.8860   36.9920 C   0  0  0  0  0  0  0  0  0  0  0  0
   38.5480   23.5900   36.0740 C   0  0  0  0  0  0  0  0  0  0  0  0
   39.7850   23.0700   36.5090 C   0  0  0  0  0  0  0  0  0  0  0  0
   39.9080   22.8850   37.8670 N   0  0  0  0  0  0  0  0  0  0  0  0
   38.9300   23.1720   38.7400 C   0  0  0  0  0  0  0  0  0  0  0  0
   37.7360   23.6760   38.3010 N   0  0  0  0  0  0  0  0  0  0  0  0
   37.8600   26.2570   34.7490 N   0  0  0  0  0  0  0  0  0  0  0  0
   38.9140   26.9910   35.3400 C   0  0  0  0  0  0  0  0  0  0  0  0
   40.0740   26.8900   34.7310 N   0  0  0  0  0  0  0  0  0  0  0  0
   38.5860   27.7460   36.5210 N   0  0  0  0  0  0  0  0  0  0  0  0
   40.8420   27.4290   35.1990 H   0  0  0  0  0  0  0  0  0  0  0  0
   38.1522   22.8385   31.6103 H   0  0  0  0  0  0  0  0  0  0  0  0
   34.7658   27.3092   30.8612 H   0  0  0  0  0  0  0  0  0  0  0  0
   38.5235   29.2476   28.9684 H   0  0  0  0  0  0  0  0  0  0  0  0
   40.9899   28.8210   29.1192 H   0  0  0  0  0  0  0  0  0  0  0  0
   41.7390   26.9282   30.6195 H   0  0  0  0  0  0  0  0  0  0  0  0
   40.0860   25.6226   31.8275 H   0  0  0  0  0  0  0  0  0  0  0  0
   36.5769   24.2917   36.6403 H   0  0  0  0  0  0  0  0  0  0  0  0
   40.5980   22.8282   35.8086 H   0  0  0  0  0  0  0  0  0  0  0  0
   39.0892   23.0011   39.8149 H   0  0  0  0  0  0  0  0  0  0  0  0
   36.9134   26.6623   34.7732 H   0  0  0  0  0  0  0  0  0  0  0  0
   39.3124   28.3006   36.9960 H   0  0  0  0  0  0  0  0  0  0  0  0
   37.6249   27.7316   36.8910 H   0  0  0  0  0  0  0  0  0  0  0  0
  1 17  1  0
  2  1  1  0
  3  4  1  0
  3  2  2  0
  4  5  2  0
  5  1  1  0
  5 22  1  0
  6  4  1  0
  7  6  2  0
  8  7  1  0
  9 10  1  0
  9  8  2  0
 10 15  2  0
 11 12  2  0
 11 10  1  0
 12 13  1  0
 13 14  2  0
 15 14  1  0
 15  6  1  0
 16 21  2  0
 17 18  2  0
 17 16  1  0
 18 19  1  0
 19 20  2  0
 21 20  1  0
 22 23  1  0
 23 25  1  0
 24 26  1  0
 24 23  2  0
  3 27  1  0
  8 28  1  0
 11 29  1  0
 12 30  1  0
 13 31  1  0
 14 32  1  0
 16 33  1  0
 18 34  1  0
 20 35  1  0
 22 36  1  0
 25 37  1  0
 25 38  1  0
M  ISO  8  27  14  28  14  29  14  30  14  31  14  32  14  33  14  34  14
M  ISO  1  35  14
M  END
>  <minimizedAffinity>  (1) 
-5.83664608

>  <minimizedRMSD>  (1) 
0.829868019

$$$$
