
     RDKit          3D

 35 38  0  0  1  0  0  0  0  0999 V2000
   37.6050   26.0380   33.9250 N   0  0  0  0  0  0  0  0  0  0  0  0
   37.6860   24.7110   33.7300 C   0  0  0  0  0  0  0  0  0  0  0  0
   37.8100   24.1010   32.5080 C   0  0  0  0  0  0  0  0  0  0  0  0
   37.8550   24.9080   31.3640 C   0  0  0  0  0  0  0  0  0  0  0  0
   37.9690   24.4050   30.2200 O   0  0  0  0  0  0  0  0  0  0  0  0
   37.7750   26.2640   31.4860 N   0  0  0  0  0  0  0  0  0  0  0  0
   37.6560   26.7540   32.7390 C   0  0  0  0  0  0  0  0  0  0  0  0
   37.5830   28.0230   32.8270 O   0  0  0  0  0  0  0  0  0  0  0  0
   37.1100   28.5150   28.7960 N   0  0  0  0  0  0  0  0  0  0  0  0
   36.7350   27.7750   29.8110 N   0  0  0  0  0  0  0  0  0  0  0  0
   37.7950   27.1450   30.3710 C   0  0  0  0  0  0  0  0  0  0  0  0
   38.8870   27.5290   29.6480 C   0  0  0  0  0  0  0  0  0  0  0  0
   38.4460   28.3860   28.6640 C   0  0  0  0  0  0  0  0  0  0  0  0
   37.9950   26.3510   36.4840 C   0  0  1  0  0  0  0  0  0  0  0  0
   38.7580   27.3180   35.6600 C   0  0  0  0  0  0  0  0  0  0  0  0
   37.4810   26.7210   35.1470 C   0  0  1  0  0  0  0  0  0  0  0  0
   38.5740   25.0160   36.7880 C   0  0  0  0  0  0  0  0  0  0  0  0
   38.0340   24.3570   37.9020 C   0  0  0  0  0  0  0  0  0  0  0  0
   38.5240   23.1050   38.2450 C   0  0  0  0  0  0  0  0  0  0  0  0
   39.5110   22.5860   37.4660 N   0  0  0  0  0  0  0  0  0  0  0  0
   39.9990   23.2630   36.3990 C   0  0  0  0  0  0  0  0  0  0  0  0
   39.5510   24.4610   36.0490 N   0  0  0  0  0  0  0  0  0  0  0  0
   41.3090   22.5130   35.4130 S   0  0  0  0  0  0  0  0  0  0  0  0
   37.6501   24.0641   34.6190 H   0  0  0  0  0  0  0  0  0  0  0  0
   37.8725   23.0057   32.4283 H   0  0  0  0  0  0  0  0  0  0  0  0
   36.4944   29.0918   28.2050 H   0  0  0  0  0  0  0  0  0  0  0  0
   39.9265   27.2127   29.8193 H   0  0  0  0  0  0  0  0  0  0  0  0
   39.0723   28.8779   27.9052 H   0  0  0  0  0  0  0  0  0  0  0  0
   37.5489   26.3473   37.4895 H   0  0  0  0  0  0  0  0  0  0  0  0
   38.7943   28.3792   35.9472 H   0  0  0  0  0  0  0  0  0  0  0  0
   39.7923   27.3845   35.2914 H   0  0  0  0  0  0  0  0  0  0  0  0
   36.4572   26.9900   34.8477 H   0  0  0  0  0  0  0  0  0  0  0  0
   37.2344   24.8254   38.4946 H   0  0  0  0  0  0  0  0  0  0  0  0
   38.1302   22.5543   39.1120 H   0  0  0  0  0  0  0  0  0  0  0  0
   42.2538   21.9721   36.2447 H   0  0  0  0  0  0  0  0  0  0  0  0
  1 16  1  0
  2  1  1  0
  3  2  2  0
  4  6  1  0
  4  3  1  0
  5  4  2  0
  6  7  1  0
  7  8  2  0
  7  1  1  0
  9 10  1  0
 10 11  2  0
 11  6  1  0
 12 11  1  0
 13  9  1  0
 13 12  2  0
 14 17  1  0
 15 14  1  0
 16 15  1  0
 16 14  1  0
 17 18  2  0
 18 19  1  0
 20 19  2  0
 21 20  1  0
 22 21  2  0
 22 17  1  0
 23 21  1  0
  2 24  1  0
  3 25  1  0
  9 26  1  0
 12 27  1  0
 13 28  1  0
 14 29  1  1
 15 30  1  0
 15 31  1  0
 16 32  1  1
 18 33  1  0
 19 34  1  0
 23 35  1  0
M  ISO  8  24  14  25  14  26   9  27  14  28  14  29  13  30  13  31  13
M  ISO  4  32  13  33  14  34  14  35  11
M  END
>  <minimizedAffinity>  (1) 
-5.40856838

>  <minimizedRMSD>  (1) 
0.0629161447

$$$$
