
     RDKit          3D

 31 33  0  0  0  0  0  0  0  0999 V2000
   38.1110   23.8540   34.5710 N   0  0  0  0  0  0  0  0  0  0  0  0
   38.0810   22.9290   33.6120 N   0  0  0  0  0  0  0  0  0  0  0  0
   37.7600   23.4550   32.4340 C   0  0  0  0  0  0  0  0  0  0  0  0
   37.5770   24.7970   32.6790 C   0  0  0  0  0  0  0  0  0  0  0  0
   37.7970   25.0560   34.0240 C   0  0  0  0  0  0  0  0  0  0  0  0
   37.4880   23.8950   36.9110 C   0  0  0  0  0  0  0  0  0  0  0  0
   38.4180   23.6200   35.9270 C   0  0  0  0  0  0  0  0  0  0  0  0
   39.6690   23.1060   36.2760 C   0  0  0  0  0  0  0  0  0  0  0  0
   39.8970   22.9040   37.6090 N   0  0  0  0  0  0  0  0  0  0  0  0
   38.9840   23.1760   38.5510 C   0  0  0  0  0  0  0  0  0  0  0  0
   37.7770   23.6730   38.2000 N   0  0  0  0  0  0  0  0  0  0  0  0
   37.7050   26.3290   34.6640 N   0  0  0  0  0  0  0  0  0  0  0  0
   38.8470   27.0300   35.1560 C   0  0  0  0  0  0  0  0  0  0  0  0
   39.9390   26.9100   34.4610 N   0  0  0  0  0  0  0  0  0  0  0  0
   38.6740   27.7870   36.3580 N   0  0  0  0  0  0  0  0  0  0  0  0
   40.7660   27.4250   34.8180 H   0  0  0  0  0  0  0  0  0  0  0  0
   37.2110   25.8280   31.7140 C   0  0  0  0  0  0  0  0  0  0  0  0
   37.9800   26.8640   31.2370 C   0  0  0  0  0  0  0  0  0  0  0  0
   37.2450   27.6240   30.3240 C   0  0  0  0  0  0  0  0  0  0  0  0
   36.0380   27.0000   30.2860 N   0  0  0  0  0  0  0  0  0  0  0  0
   36.0260   25.9490   31.1030 N   0  0  0  0  0  0  0  0  0  0  0  0
   37.6619   22.9311   31.4718 H   0  0  0  0  0  0  0  0  0  0  0  0
   36.5032   24.2992   36.6340 H   0  0  0  0  0  0  0  0  0  0  0  0
   40.4316   22.8756   35.5175 H   0  0  0  0  0  0  0  0  0  0  0  0
   39.2168   22.9948   39.6107 H   0  0  0  0  0  0  0  0  0  0  0  0
   36.7759   26.7594   34.7753 H   0  0  0  0  0  0  0  0  0  0  0  0
   39.4667   28.3112   36.7551 H   0  0  0  0  0  0  0  0  0  0  0  0
   37.7567   27.8077   36.8261 H   0  0  0  0  0  0  0  0  0  0  0  0
   39.0208   27.0645   31.5313 H   0  0  0  0  0  0  0  0  0  0  0  0
   37.5669   28.5165   29.7674 H   0  0  0  0  0  0  0  0  0  0  0  0
   35.2420   27.2992   29.7049 H   0  0  0  0  0  0  0  0  0  0  0  0
  1  7  1  0
  2  1  1  0
  3  4  1  0
  3  2  2  0
  4  5  2  0
  5  1  1  0
  5 12  1  0
  6 11  2  0
  7  8  2  0
  7  6  1  0
  8  9  1  0
  9 10  2  0
 11 10  1  0
 12 13  1  0
 13 15  1  0
 14 16  1  0
 14 13  2  0
 17  4  1  0
 18 17  1  0
 19 18  2  0
 20 19  1  0
 20 21  1  0
 21 17  2  0
  3 22  1  0
  6 23  1  0
  8 24  1  0
 10 25  1  0
 12 26  1  0
 15 27  1  0
 15 28  1  0
 18 29  1  0
 19 30  1  0
 20 31  1  0
M  ISO  7  22  14  23  14  24  14  25  14  29  14  30  14  31   9
M  END
>  <minimizedAffinity>  (1) 
-5.39638567

>  <minimizedRMSD>  (1) 
0.411785424

$$$$
