
     RDKit          3D

 34 36  0  0  0  0  0  0  0  0999 V2000
   38.5940   24.1170   34.2970 N   0  0  0  0  0  0  0  0  0  0  0  0
   38.7530   23.3010   33.2570 N   0  0  0  0  0  0  0  0  0  0  0  0
   38.6320   23.9430   32.0930 C   0  0  0  0  0  0  0  0  0  0  0  0
   38.3740   25.2710   32.4390 C   0  0  0  0  0  0  0  0  0  0  0  0
   38.3520   25.3710   33.8300 C   0  0  0  0  0  0  0  0  0  0  0  0
   37.5350   23.8530   36.4600 C   0  0  0  0  0  0  0  0  0  0  0  0
   38.6620   23.7450   35.6440 C   0  0  0  0  0  0  0  0  0  0  0  0
   39.8650   23.2650   36.1710 C   0  0  0  0  0  0  0  0  0  0  0  0
   39.8440   22.9220   37.5050 N   0  0  0  0  0  0  0  0  0  0  0  0
   38.7630   23.0300   38.2700 C   0  0  0  0  0  0  0  0  0  0  0  0
   37.5970   23.4990   37.7500 N   0  0  0  0  0  0  0  0  0  0  0  0
   38.1840   26.2700   31.4490 N   0  0  0  0  0  0  0  0  0  0  0  0
   39.1380   27.0110   30.8620 C   0  0  0  0  0  0  0  0  0  0  0  0
   38.8510   27.9600   29.9070 C   0  0  0  0  0  0  0  0  0  0  0  0
   37.5390   28.1600   29.5350 C   0  0  0  0  0  0  0  0  0  0  0  0
   37.1880   29.0140   28.6620 O   0  0  0  0  0  0  0  0  0  0  0  0
   36.5800   27.4070   30.1320 N   0  0  0  0  0  0  0  0  0  0  0  0
   36.9060   26.4790   31.0740 C   0  0  0  0  0  0  0  0  0  0  0  0
   35.9290   25.8560   31.5440 O   0  0  0  0  0  0  0  0  0  0  0  0
   38.1180   26.5720   34.5420 N   0  0  0  0  0  0  0  0  0  0  0  0
   39.0770   27.1420   35.4420 C   0  0  0  0  0  0  0  0  0  0  0  0
   40.3380   27.0260   35.0660 N   0  0  0  0  0  0  0  0  0  0  0  0
   38.5790   27.7710   36.6350 N   0  0  0  0  0  0  0  0  0  0  0  0
   41.0200   27.4510   35.7260 H   0  0  0  0  0  0  0  0  0  0  0  0
   38.7170   23.5185   31.0818 H   0  0  0  0  0  0  0  0  0  0  0  0
   36.5906   24.2310   36.0413 H   0  0  0  0  0  0  0  0  0  0  0  0
   40.7729   23.1672   35.5577 H   0  0  0  0  0  0  0  0  0  0  0  0
   38.8113   22.7385   39.3296 H   0  0  0  0  0  0  0  0  0  0  0  0
   40.1866   26.8539   31.1549 H   0  0  0  0  0  0  0  0  0  0  0  0
   39.6573   28.5503   29.4473 H   0  0  0  0  0  0  0  0  0  0  0  0
   35.5929   27.5393   29.8691 H   0  0  0  0  0  0  0  0  0  0  0  0
   37.2195   27.0573   34.4075 H   0  0  0  0  0  0  0  0  0  0  0  0
   39.2355   28.1926   37.3074 H   0  0  0  0  0  0  0  0  0  0  0  0
   37.5657   27.8001   36.8173 H   0  0  0  0  0  0  0  0  0  0  0  0
  1  7  1  0
  2  1  1  0
  3  4  1  0
  3  2  2  0
  4  5  2  0
  5  1  1  0
  5 20  1  0
  6 11  2  0
  7  8  2  0
  7  6  1  0
  8  9  1  0
  9 10  2  0
 11 10  1  0
 12  4  1  0
 13 12  1  0
 14 13  2  0
 15 14  1  0
 15 17  1  0
 16 15  2  0
 17 18  1  0
 18 12  1  0
 18 19  2  0
 20 21  1  0
 21 23  1  0
 22 21  2  0
 22 24  1  0
  3 25  1  0
  6 26  1  0
  8 27  1  0
 10 28  1  0
 13 29  1  0
 14 30  1  0
 17 31  1  0
 20 32  1  0
 23 33  1  0
 23 34  1  0
M  ISO  7  25  14  26  14  27  14  28  14  29  14  30  14  31   9
M  END
>  <minimizedAffinity>  (1) 
-5.35181379

>  <minimizedRMSD>  (1) 
1.25041127

$$$$
