
     RDKit          3D

 38 40  0  0  0  0  0  0  0  0999 V2000
   38.1830   23.7440   34.7240 N   0  0  0  0  0  0  0  0  0  0  0  0
   38.1760   22.7780   33.8170 N   0  0  0  0  0  0  0  0  0  0  0  0
   37.8940   23.2630   32.5980 C   0  0  0  0  0  0  0  0  0  0  0  0
   37.7170   24.6190   32.7840 C   0  0  0  0  0  0  0  0  0  0  0  0
   37.9000   24.9260   34.1290 C   0  0  0  0  0  0  0  0  0  0  0  0
   37.5040   23.9030   37.0480 C   0  0  0  0  0  0  0  0  0  0  0  0
   38.4460   23.5640   36.0970 C   0  0  0  0  0  0  0  0  0  0  0  0
   39.6810   23.0330   36.5030 C   0  0  0  0  0  0  0  0  0  0  0  0
   39.8640   22.8870   37.8500 N   0  0  0  0  0  0  0  0  0  0  0  0
   38.9420   23.2210   38.7540 C   0  0  0  0  0  0  0  0  0  0  0  0
   37.7530   23.7320   38.3530 N   0  0  0  0  0  0  0  0  0  0  0  0
   37.7980   26.2230   34.6910 N   0  0  0  0  0  0  0  0  0  0  0  0
   38.9270   26.9500   35.1900 C   0  0  0  0  0  0  0  0  0  0  0  0
   40.0380   26.7930   34.5010 N   0  0  0  0  0  0  0  0  0  0  0  0
   38.7160   27.7500   36.3670 N   0  0  0  0  0  0  0  0  0  0  0  0
   40.8460   27.3270   34.8790 H   0  0  0  0  0  0  0  0  0  0  0  0
   37.3990   25.4790   31.6970 N   0  0  0  0  0  0  0  0  0  0  0  0
   38.3570   25.9510   30.7150 C   0  0  0  0  0  0  0  0  0  0  0  0
   38.6220   27.3990   31.0710 C   0  0  0  0  0  0  0  0  0  0  0  0
   37.3470   28.0860   31.0560 N   0  0  0  0  0  0  0  0  0  0  0  0
   36.2610   27.2550   30.6030 C   0  0  0  0  0  0  0  0  0  0  0  0
   36.0720   25.9980   31.4250 C   0  0  0  0  0  0  0  0  0  0  0  0
   37.8200   22.7015   31.6550 H   0  0  0  0  0  0  0  0  0  0  0  0
   36.5366   24.3188   36.7298 H   0  0  0  0  0  0  0  0  0  0  0  0
   40.4580   22.7502   35.7775 H   0  0  0  0  0  0  0  0  0  0  0  0
   39.1470   23.0815   39.8257 H   0  0  0  0  0  0  0  0  0  0  0  0
   36.8685   26.6636   34.7431 H   0  0  0  0  0  0  0  0  0  0  0  0
   39.4946   28.2927   36.7672 H   0  0  0  0  0  0  0  0  0  0  0  0
   37.7863   27.7800   36.8094 H   0  0  0  0  0  0  0  0  0  0  0  0
   37.9372   25.8751   29.7011 H   0  0  0  0  0  0  0  0  0  0  0  0
   39.2801   25.3529   30.7254 H   0  0  0  0  0  0  0  0  0  0  0  0
   39.0730   27.4641   32.0722 H   0  0  0  0  0  0  0  0  0  0  0  0
   39.3191   27.8555   30.3529 H   0  0  0  0  0  0  0  0  0  0  0  0
   37.1369   28.4074   32.0117 H   0  0  0  0  0  0  0  0  0  0  0  0
   35.3321   27.8424   30.6484 H   0  0  0  0  0  0  0  0  0  0  0  0
   36.5064   26.9355   29.5794 H   0  0  0  0  0  0  0  0  0  0  0  0
   35.5561   26.2344   32.3673 H   0  0  0  0  0  0  0  0  0  0  0  0
   35.4593   25.2598   30.8869 H   0  0  0  0  0  0  0  0  0  0  0  0
  1  7  1  0
  2  1  1  0
  3  4  1  0
  3  2  2  0
  4  5  2  0
  5 12  1  0
  5  1  1  0
  6 11  2  0
  7  8  2  0
  7  6  1  0
  8  9  1  0
  9 10  2  0
 11 10  1  0
 12 13  1  0
 13 15  1  0
 14 16  1  0
 14 13  2  0
 17  4  1  0
 18 19  1  0
 18 17  1  0
 20 19  1  0
 21 20  1  0
 21 22  1  0
 22 17  1  0
  3 23  1  0
  6 24  1  0
  8 25  1  0
 10 26  1  0
 12 27  1  0
 15 28  1  0
 15 29  1  0
 18 30  1  0
 18 31  1  0
 19 32  1  0
 19 33  1  0
 20 34  1  0
 21 35  1  0
 21 36  1  0
 22 37  1  0
 22 38  1  0
M  ISO  8  23  14  24  14  25  14  26  14  30  13  31  13  32  13  33  13
M  ISO  5  34   5  35  13  36  13  37  13  38  13
M  END
>  <minimizedAffinity>  (1) 
-5.24668407

>  <minimizedRMSD>  (1) 
0.996509731

$$$$
