
     RDKit          3D

 37 39  0  0  0  0  0  0  0  0999 V2000
   38.2580   23.7280   34.7140 N   0  0  0  0  0  0  0  0  0  0  0  0
   38.2750   22.7560   33.8100 N   0  0  0  0  0  0  0  0  0  0  0  0
   38.0200   23.2340   32.5840 C   0  0  0  0  0  0  0  0  0  0  0  0
   37.8360   24.6010   32.7590 C   0  0  0  0  0  0  0  0  0  0  0  0
   37.9880   24.9020   34.1070 C   0  0  0  0  0  0  0  0  0  0  0  0
   37.5100   23.8930   37.0220 C   0  0  0  0  0  0  0  0  0  0  0  0
   38.4880   23.5570   36.0920 C   0  0  0  0  0  0  0  0  0  0  0  0
   39.7180   23.0410   36.5280 C   0  0  0  0  0  0  0  0  0  0  0  0
   39.8710   22.9020   37.8910 N   0  0  0  0  0  0  0  0  0  0  0  0
   38.9220   23.2290   38.7630 C   0  0  0  0  0  0  0  0  0  0  0  0
   37.7320   23.7290   38.3310 N   0  0  0  0  0  0  0  0  0  0  0  0
   37.8690   26.2080   34.6610 N   0  0  0  0  0  0  0  0  0  0  0  0
   38.9810   26.9100   35.2260 C   0  0  0  0  0  0  0  0  0  0  0  0
   40.1370   26.7320   34.6110 N   0  0  0  0  0  0  0  0  0  0  0  0
   38.7220   27.7230   36.3900 N   0  0  0  0  0  0  0  0  0  0  0  0
   40.9230   27.2620   35.0330 H   0  0  0  0  0  0  0  0  0  0  0  0
   37.5410   25.4580   31.6590 N   0  0  0  0  0  0  0  0  0  0  0  0
   38.6500   25.8060   30.7900 C   0  0  0  0  0  0  0  0  0  0  0  0
   38.3470   27.1400   30.1460 C   0  0  0  0  0  0  0  0  0  0  0  0
   37.3620   27.8490   30.8240 O   0  0  0  0  0  0  0  0  0  0  0  0
   36.1320   27.1750   30.7680 C   0  0  0  0  0  0  0  0  0  0  0  0
   36.1610   25.8830   31.5410 C   0  0  0  0  0  0  0  0  0  0  0  0
   37.9676   22.6672   31.6427 H   0  0  0  0  0  0  0  0  0  0  0  0
   36.5462   24.2968   36.6785 H   0  0  0  0  0  0  0  0  0  0  0  0
   40.5148   22.7632   35.8223 H   0  0  0  0  0  0  0  0  0  0  0  0
   39.0997   23.0946   39.8402 H   0  0  0  0  0  0  0  0  0  0  0  0
   36.9463   26.6657   34.6550 H   0  0  0  0  0  0  0  0  0  0  0  0
   39.4898   28.2476   36.8330 H   0  0  0  0  0  0  0  0  0  0  0  0
   37.7694   27.7787   36.7777 H   0  0  0  0  0  0  0  0  0  0  0  0
   39.5759   25.8791   31.3794 H   0  0  0  0  0  0  0  0  0  0  0  0
   38.7838   25.0338   30.0181 H   0  0  0  0  0  0  0  0  0  0  0  0
   39.2677   27.7417   30.1319 H   0  0  0  0  0  0  0  0  0  0  0  0
   37.9759   26.9428   29.1295 H   0  0  0  0  0  0  0  0  0  0  0  0
   35.3515   27.8245   31.1911 H   0  0  0  0  0  0  0  0  0  0  0  0
   35.9231   26.9362   29.7148 H   0  0  0  0  0  0  0  0  0  0  0  0
   35.7321   26.0381   32.5420 H   0  0  0  0  0  0  0  0  0  0  0  0
   35.5697   25.1151   31.0207 H   0  0  0  0  0  0  0  0  0  0  0  0
  1  7  1  0
  2  1  1  0
  3  4  1  0
  3  2  2  0
  4  5  2  0
  5 12  1  0
  5  1  1  0
  6 11  2  0
  7  8  2  0
  7  6  1  0
  8  9  1  0
  9 10  2  0
 11 10  1  0
 12 13  1  0
 13 15  1  0
 14 16  1  0
 14 13  2  0
 17  4  1  0
 18 17  1  0
 19 18  1  0
 19 20  1  0
 21 20  1  0
 21 22  1  0
 22 17  1  0
  3 23  1  0
  6 24  1  0
  8 25  1  0
 10 26  1  0
 12 27  1  0
 15 28  1  0
 15 29  1  0
 18 30  1  0
 18 31  1  0
 19 32  1  0
 19 33  1  0
 21 34  1  0
 21 35  1  0
 22 36  1  0
 22 37  1  0
M  ISO  8  23  14  24  14  25  14  26  14  30  13  31  13  32  13  33  13
M  ISO  4  34  13  35  13  36  13  37  13
M  END
>  <minimizedAffinity>  (1) 
-5.2117219

>  <minimizedRMSD>  (1) 
0.257964164

$$$$
