
     RDKit          3D

 35 37  0  0  0  0  0  0  0  0999 V2000
   38.9890   24.1490   33.9290 N   0  0  0  0  0  0  0  0  0  0  0  0
   39.2060   23.4120   32.8430 N   0  0  0  0  0  0  0  0  0  0  0  0
   38.9870   24.1150   31.7220 C   0  0  0  0  0  0  0  0  0  0  0  0
   38.6030   25.3880   32.1540 C   0  0  0  0  0  0  0  0  0  0  0  0
   38.6070   25.3980   33.5500 C   0  0  0  0  0  0  0  0  0  0  0  0
   38.2810   26.4290   31.2360 N   0  0  0  0  0  0  0  0  0  0  0  0
   39.3060   26.8920   30.4990 C   0  0  0  0  0  0  0  0  0  0  0  0
   39.0870   27.9100   29.5750 C   0  0  0  0  0  0  0  0  0  0  0  0
   37.8260   28.4440   29.4110 C   0  0  0  0  0  0  0  0  0  0  0  0
   37.5980   29.4820   28.4700 N   0  0  0  0  0  0  0  0  0  0  0  0
   36.8330   27.9480   30.1690 N   0  0  0  0  0  0  0  0  0  0  0  0
   37.0420   26.9650   31.0630 C   0  0  0  0  0  0  0  0  0  0  0  0
   36.1620   26.4560   31.8020 O   0  0  0  0  0  0  0  0  0  0  0  0
   38.0170   23.5750   36.0710 C   0  0  0  0  0  0  0  0  0  0  0  0
   39.1280   23.7130   35.2530 C   0  0  0  0  0  0  0  0  0  0  0  0
   40.4030   23.4140   35.7540 C   0  0  0  0  0  0  0  0  0  0  0  0
   40.4590   22.9920   37.0620 N   0  0  0  0  0  0  0  0  0  0  0  0
   39.3780   22.8680   37.8250 C   0  0  0  0  0  0  0  0  0  0  0  0
   38.1390   23.1600   37.3330 N   0  0  0  0  0  0  0  0  0  0  0  0
   38.2690   26.5280   34.3420 N   0  0  0  0  0  0  0  0  0  0  0  0
   39.1730   27.0920   35.2950 C   0  0  0  0  0  0  0  0  0  0  0  0
   40.4360   27.0940   34.9530 N   0  0  0  0  0  0  0  0  0  0  0  0
   38.6030   27.5970   36.5190 N   0  0  0  0  0  0  0  0  0  0  0  0
   41.0730   27.5200   35.6620 H   0  0  0  0  0  0  0  0  0  0  0  0
   39.0880   23.7647   30.6842 H   0  0  0  0  0  0  0  0  0  0  0  0
   40.3132   26.4682   30.6257 H   0  0  0  0  0  0  0  0  0  0  0  0
   39.9246   28.2907   28.9721 H   0  0  0  0  0  0  0  0  0  0  0  0
   36.6526   29.8743   28.3549 H   0  0  0  0  0  0  0  0  0  0  0  0
   38.3780   29.8429   27.9023 H   0  0  0  0  0  0  0  0  0  0  0  0
   37.0191   23.8115   35.6731 H   0  0  0  0  0  0  0  0  0  0  0  0
   41.3076   23.5114   35.1358 H   0  0  0  0  0  0  0  0  0  0  0  0
   39.4831   22.5260   38.8652 H   0  0  0  0  0  0  0  0  0  0  0  0
   37.3395   26.9561   34.2254 H   0  0  0  0  0  0  0  0  0  0  0  0
   39.2124   28.0131   37.2376 H   0  0  0  0  0  0  0  0  0  0  0  0
   37.5864   27.5417   36.6749 H   0  0  0  0  0  0  0  0  0  0  0  0
  1 15  1  0
  2  1  1  0
  3  4  1  0
  3  2  2  0
  4  5  2  0
  5  1  1  0
  5 20  1  0
  6  4  1  0
  7  6  1  0
  8  7  2  0
  9  8  1  0
  9 11  2  0
 10  9  1  0
 11 12  1  0
 12  6  1  0
 12 13  2  0
 14 19  2  0
 15 16  2  0
 15 14  1  0
 16 17  1  0
 17 18  2  0
 19 18  1  0
 20 21  1  0
 21 23  1  0
 22 21  2  0
 22 24  1  0
  3 25  1  0
  7 26  1  0
  8 27  1  0
 10 28  1  0
 10 29  1  0
 14 30  1  0
 16 31  1  0
 18 32  1  0
 20 33  1  0
 23 34  1  0
 23 35  1  0
M  ISO  6  25  14  26  14  27  14  30  14  31  14  32  14
M  END
>  <minimizedAffinity>  (1) 
-5.20309687

>  <minimizedRMSD>  (1) 
1.45539093

$$$$
