
     RDKit          3D

 31 33  0  0  0  0  0  0  0  0999 V2000
   38.2100   23.8930   34.6480 N   0  0  0  0  0  0  0  0  0  0  0  0
   38.2340   22.9900   33.6840 N   0  0  0  0  0  0  0  0  0  0  0  0
   37.9890   23.5300   32.4910 C   0  0  0  0  0  0  0  0  0  0  0  0
   37.8010   24.8710   32.7430 C   0  0  0  0  0  0  0  0  0  0  0  0
   37.9400   25.1040   34.1040 C   0  0  0  0  0  0  0  0  0  0  0  0
   37.4580   23.9150   36.9510 C   0  0  0  0  0  0  0  0  0  0  0  0
   38.4300   23.6370   36.0120 C   0  0  0  0  0  0  0  0  0  0  0  0
   39.6530   23.0920   36.4270 C   0  0  0  0  0  0  0  0  0  0  0  0
   39.7990   22.8690   37.7690 N   0  0  0  0  0  0  0  0  0  0  0  0
   38.8480   23.1450   38.6600 C   0  0  0  0  0  0  0  0  0  0  0  0
   37.6750   23.6690   38.2520 N   0  0  0  0  0  0  0  0  0  0  0  0
   37.8160   26.3720   34.7590 N   0  0  0  0  0  0  0  0  0  0  0  0
   38.9090   27.0430   35.3600 C   0  0  0  0  0  0  0  0  0  0  0  0
   40.0590   26.9200   34.7420 N   0  0  0  0  0  0  0  0  0  0  0  0
   38.6340   27.7780   36.5670 N   0  0  0  0  0  0  0  0  0  0  0  0
   40.8550   27.4100   35.2120 H   0  0  0  0  0  0  0  0  0  0  0  0
   37.5040   25.9270   31.7960 C   0  0  0  0  0  0  0  0  0  0  0  0
   38.4450   26.7050   31.1380 C   0  0  0  0  0  0  0  0  0  0  0  0
   38.0040   27.6540   30.2800 C   0  0  0  0  0  0  0  0  0  0  0  0
   36.5890   27.7720   30.1280 C   0  0  0  0  0  0  0  0  0  0  0  0
   35.9000   26.4620   31.2660 S   0  0  0  0  0  0  0  0  0  0  0  0
   37.9463   23.0176   31.5186 H   0  0  0  0  0  0  0  0  0  0  0  0
   36.4965   24.3422   36.6301 H   0  0  0  0  0  0  0  0  0  0  0  0
   40.4538   22.8558   35.7108 H   0  0  0  0  0  0  0  0  0  0  0  0
   39.0198   22.9454   39.7280 H   0  0  0  0  0  0  0  0  0  0  0  0
   36.8877   26.8169   34.7946 H   0  0  0  0  0  0  0  0  0  0  0  0
   39.3924   28.2846   37.0456 H   0  0  0  0  0  0  0  0  0  0  0  0
   37.6788   27.7973   36.9519 H   0  0  0  0  0  0  0  0  0  0  0  0
   39.5212   26.5546   31.3090 H   0  0  0  0  0  0  0  0  0  0  0  0
   38.7004   28.3019   29.7275 H   0  0  0  0  0  0  0  0  0  0  0  0
   36.0331   28.4730   29.4880 H   0  0  0  0  0  0  0  0  0  0  0  0
  1  7  1  0
  2  1  1  0
  3  4  1  0
  3  2  2  0
  4  5  2  0
  5  1  1  0
  5 12  1  0
  6 11  2  0
  7  8  2  0
  7  6  1  0
  8  9  1  0
  9 10  2  0
 11 10  1  0
 12 13  1  0
 13 15  1  0
 14 16  1  0
 14 13  2  0
 17  4  1  0
 18 17  2  0
 19 18  1  0
 20 19  2  0
 20 21  1  0
 21 17  1  0
  3 22  1  0
  6 23  1  0
  8 24  1  0
 10 25  1  0
 12 26  1  0
 15 27  1  0
 15 28  1  0
 18 29  1  0
 19 30  1  0
 20 31  1  0
M  ISO  7  22  14  23  14  24  14  25  14  29  14  30  14  31  14
M  END
>  <minimizedAffinity>  (1) 
-4.93569517

>  <minimizedRMSD>  (1) 
0.418039531

$$$$
