
     RDKit          3D

 33 35  0  0  0  0  0  0  0  0999 V2000
   38.4350   23.9970   34.3470 N   0  0  0  0  0  0  0  0  0  0  0  0
   38.5370   23.1370   33.3360 N   0  0  0  0  0  0  0  0  0  0  0  0
   38.3550   23.7320   32.1630 C   0  0  0  0  0  0  0  0  0  0  0  0
   38.1200   25.0760   32.4670 C   0  0  0  0  0  0  0  0  0  0  0  0
   38.1740   25.2220   33.8470 C   0  0  0  0  0  0  0  0  0  0  0  0
   37.5060   23.7650   36.5720 C   0  0  0  0  0  0  0  0  0  0  0  0
   38.5780   23.6710   35.7010 C   0  0  0  0  0  0  0  0  0  0  0  0
   39.8300   23.2420   36.1850 C   0  0  0  0  0  0  0  0  0  0  0  0
   39.9070   22.9390   37.5180 N   0  0  0  0  0  0  0  0  0  0  0  0
   38.8590   23.0360   38.3420 C   0  0  0  0  0  0  0  0  0  0  0  0
   37.6580   23.4490   37.8670 N   0  0  0  0  0  0  0  0  0  0  0  0
   37.9830   26.4510   34.5570 N   0  0  0  0  0  0  0  0  0  0  0  0
   39.0150   27.0790   35.3200 C   0  0  0  0  0  0  0  0  0  0  0  0
   40.2190   26.9780   34.8210 N   0  0  0  0  0  0  0  0  0  0  0  0
   38.6100   27.7380   36.5300 N   0  0  0  0  0  0  0  0  0  0  0  0
   40.9590   27.4350   35.3900 H   0  0  0  0  0  0  0  0  0  0  0  0
   37.8610   26.1400   31.5020 C   0  0  0  0  0  0  0  0  0  0  0  0
   38.8380   26.4980   30.6080 C   0  0  0  0  0  0  0  0  0  0  0  0
   38.5530   27.5230   29.6980 C   0  0  0  0  0  0  0  0  0  0  0  0
   37.3060   28.0990   29.7680 C   0  0  0  0  0  0  0  0  0  0  0  0
   36.3280   27.7310   30.6720 C   0  0  0  0  0  0  0  0  0  0  0  0
   36.6500   26.7310   31.5350 N   0  0  0  0  0  0  0  0  0  0  0  0
   38.3831   23.2673   31.1664 H   0  0  0  0  0  0  0  0  0  0  0  0
   36.5261   24.1000   36.2010 H   0  0  0  0  0  0  0  0  0  0  0  0
   40.7042   23.1547   35.5231 H   0  0  0  0  0  0  0  0  0  0  0  0
   38.9709   22.7806   39.4061 H   0  0  0  0  0  0  0  0  0  0  0  0
   37.0585   26.9033   34.5157 H   0  0  0  0  0  0  0  0  0  0  0  0
   39.3114   28.2078   37.1202 H   0  0  0  0  0  0  0  0  0  0  0  0
   37.6181   27.7409   36.8077 H   0  0  0  0  0  0  0  0  0  0  0  0
   39.8161   25.9947   30.6062 H   0  0  0  0  0  0  0  0  0  0  0  0
   39.2959   27.8541   28.9574 H   0  0  0  0  0  0  0  0  0  0  0  0
   37.0719   28.9056   29.0577 H   0  0  0  0  0  0  0  0  0  0  0  0
   35.3430   28.2202   30.6923 H   0  0  0  0  0  0  0  0  0  0  0  0
  1  7  1  0
  2  1  1  0
  3  4  1  0
  3  2  2  0
  4  5  2  0
  5  1  1  0
  5 12  1  0
  6 11  2  0
  7  8  2  0
  7  6  1  0
  8  9  1  0
  9 10  2  0
 11 10  1  0
 12 13  1  0
 13 15  1  0
 14 13  2  0
 14 16  1  0
 17 22  1  0
 17  4  1  0
 18 17  2  0
 19 20  2  0
 19 18  1  0
 20 21  1  0
 21 22  2  0
  3 23  1  0
  6 24  1  0
  8 25  1  0
 10 26  1  0
 12 27  1  0
 15 28  1  0
 15 29  1  0
 18 30  1  0
 19 31  1  0
 20 32  1  0
 21 33  1  0
M  ISO  8  23  14  24  14  25  14  26  14  30  14  31  14  32  14  33  14
M  END
>  <minimizedAffinity>  (1) 
-4.81885624

>  <minimizedRMSD>  (1) 
0.87161237

$$$$
