
     RDKit          3D

 31 33  0  0  0  0  0  0  0  0999 V2000
   38.1020   23.6300   34.8070 N   0  0  0  0  0  0  0  0  0  0  0  0
   38.0570   22.6950   33.8700 N   0  0  0  0  0  0  0  0  0  0  0  0
   37.5980   23.1890   32.7150 C   0  0  0  0  0  0  0  0  0  0  0  0
   37.3440   24.5250   32.9700 C   0  0  0  0  0  0  0  0  0  0  0  0
   37.6620   24.8060   34.2930 C   0  0  0  0  0  0  0  0  0  0  0  0
   37.6580   23.6530   37.1940 C   0  0  0  0  0  0  0  0  0  0  0  0
   38.5360   23.4310   36.1290 C   0  0  0  0  0  0  0  0  0  0  0  0
   39.8450   23.0130   36.3860 C   0  0  0  0  0  0  0  0  0  0  0  0
   40.1850   22.8450   37.7040 N   0  0  0  0  0  0  0  0  0  0  0  0
   39.3370   23.0590   38.7120 C   0  0  0  0  0  0  0  0  0  0  0  0
   38.0640   23.4670   38.4600 N   0  0  0  0  0  0  0  0  0  0  0  0
   37.5300   26.0790   34.9130 N   0  0  0  0  0  0  0  0  0  0  0  0
   38.6460   26.9460   35.1500 C   0  0  0  0  0  0  0  0  0  0  0  0
   39.5690   26.9410   34.2050 N   0  0  0  0  0  0  0  0  0  0  0  0
   38.6510   27.7130   36.3570 N   0  0  0  0  0  0  0  0  0  0  0  0
   40.3680   27.5830   34.3940 H   0  0  0  0  0  0  0  0  0  0  0  0
   36.8360   25.3930   31.9590 N   0  0  0  0  0  0  0  0  0  0  0  0
   37.2700   26.5250   31.3510 C   0  0  0  0  0  0  0  0  0  0  0  0
   36.2860   26.8940   30.4270 C   0  0  0  0  0  0  0  0  0  0  0  0
   35.2900   25.9900   30.4930 N   0  0  0  0  0  0  0  0  0  0  0  0
   35.6270   25.0820   31.4230 C   0  0  0  0  0  0  0  0  0  0  0  0
   37.4536   22.6497   31.7672 H   0  0  0  0  0  0  0  0  0  0  0  0
   36.6278   23.9822   36.9933 H   0  0  0  0  0  0  0  0  0  0  0  0
   40.5641   22.8286   35.5743 H   0  0  0  0  0  0  0  0  0  0  0  0
   39.6683   22.9050   39.7495 H   0  0  0  0  0  0  0  0  0  0  0  0
   36.5925   26.3910   35.2040 H   0  0  0  0  0  0  0  0  0  0  0  0
   39.4367   28.3470   36.5611 H   0  0  0  0  0  0  0  0  0  0  0  0
   37.8689   27.6315   37.0222 H   0  0  0  0  0  0  0  0  0  0  0  0
   38.2152   27.0525   31.5469 H   0  0  0  0  0  0  0  0  0  0  0  0
   36.3201   27.7699   29.7625 H   0  0  0  0  0  0  0  0  0  0  0  0
   35.0144   24.2142   31.7088 H   0  0  0  0  0  0  0  0  0  0  0  0
  1  7  1  0
  2  1  1  0
  3  4  1  0
  3  2  2  0
  4  5  2  0
  5  1  1  0
  5 12  1  0
  6 11  2  0
  7  8  2  0
  7  6  1  0
  8  9  1  0
  9 10  2  0
 11 10  1  0
 12 13  1  0
 13 15  1  0
 14 16  1  0
 14 13  2  0
 17  4  1  0
 18 17  1  0
 19 20  1  0
 19 18  2  0
 20 21  2  0
 21 17  1  0
  3 22  1  0
  6 23  1  0
  8 24  1  0
 10 25  1  0
 12 26  1  0
 15 27  1  0
 15 28  1  0
 18 29  1  0
 19 30  1  0
 21 31  1  0
M  ISO  7  22  14  23  14  24  14  25  14  29  14  30  14  31  14
M  END
>  <minimizedAffinity>  (1) 
-4.66496849

>  <minimizedRMSD>  (1) 
0.491188347

$$$$
