
     RDKit          3D

 25 26  0  0  0  0  0  0  0  0999 V2000
   38.1580   23.6970   34.7310 N   0  0  0  0  0  0  0  0  0  0  0  0
   38.1310   22.7150   33.8390 N   0  0  0  0  0  0  0  0  0  0  0  0
   37.8470   23.1700   32.6180 C   0  0  0  0  0  0  0  0  0  0  0  0
   37.6830   24.5330   32.7520 C   0  0  0  0  0  0  0  0  0  0  0  0
   37.8830   24.8640   34.1020 C   0  0  0  0  0  0  0  0  0  0  0  0
   37.4790   23.9210   37.0430 C   0  0  0  0  0  0  0  0  0  0  0  0
   38.4260   23.5560   36.0980 C   0  0  0  0  0  0  0  0  0  0  0  0
   39.6670   23.0380   36.5070 C   0  0  0  0  0  0  0  0  0  0  0  0
   39.8570   22.9290   37.8620 N   0  0  0  0  0  0  0  0  0  0  0  0
   38.9330   23.2860   38.7640 C   0  0  0  0  0  0  0  0  0  0  0  0
   37.7420   23.7830   38.3570 N   0  0  0  0  0  0  0  0  0  0  0  0
   37.7980   26.1900   34.6390 N   0  0  0  0  0  0  0  0  0  0  0  0
   38.9140   26.8650   35.1960 C   0  0  0  0  0  0  0  0  0  0  0  0
   40.0700   26.6480   34.6010 N   0  0  0  0  0  0  0  0  0  0  0  0
   38.6830   27.7040   36.3300 N   0  0  0  0  0  0  0  0  0  0  0  0
   40.8770   27.1560   35.0190 H   0  0  0  0  0  0  0  0  0  0  0  0
   37.3750   25.3790   31.6890 O   0  0  0  0  0  0  0  0  0  0  0  0
   37.7612   22.5796   31.6938 H   0  0  0  0  0  0  0  0  0  0  0  0
   36.5088   24.3250   36.7182 H   0  0  0  0  0  0  0  0  0  0  0  0
   40.4399   22.7378   35.7842 H   0  0  0  0  0  0  0  0  0  0  0  0
   39.1430   23.1748   39.8380 H   0  0  0  0  0  0  0  0  0  0  0  0
   36.8884   26.6729   34.6196 H   0  0  0  0  0  0  0  0  0  0  0  0
   39.4675   28.2114   36.7636 H   0  0  0  0  0  0  0  0  0  0  0  0
   37.7320   27.8011   36.7136 H   0  0  0  0  0  0  0  0  0  0  0  0
   37.2689   26.3509   31.8446 H   0  0  0  0  0  0  0  0  0  0  0  0
  1  7  1  0
  2  1  1  0
  3  4  1  0
  3  2  2  0
  4  5  2  0
  5 12  1  0
  5  1  1  0
  6 11  2  0
  7  8  2  0
  7  6  1  0
  8  9  1  0
  9 10  2  0
 11 10  1  0
 12 13  1  0
 13 15  1  0
 14 16  1  0
 14 13  2  0
 17  4  1  0
  3 18  1  0
  6 19  1  0
  8 20  1  0
 10 21  1  0
 12 22  1  0
 15 23  1  0
 15 24  1  0
 17 25  1  0
M  ISO  5  18  14  19  14  20  14  21  14  25   3
M  END
>  <minimizedAffinity>  (1) 
-4.5803647

>  <minimizedRMSD>  (1) 
0.0420640968

$$$$
