
     RDKit          3D

 31 33  0  0  0  0  0  0  0  0999 V2000
   38.1160   23.9440   34.5720 N   0  0  0  0  0  0  0  0  0  0  0  0
   38.1090   23.0760   33.5790 N   0  0  0  0  0  0  0  0  0  0  0  0
   37.8080   23.6790   32.4170 C   0  0  0  0  0  0  0  0  0  0  0  0
   37.6160   25.0240   32.7310 C   0  0  0  0  0  0  0  0  0  0  0  0
   37.8140   25.1800   34.0960 C   0  0  0  0  0  0  0  0  0  0  0  0
   37.4230   23.7440   36.8860 C   0  0  0  0  0  0  0  0  0  0  0  0
   38.3940   23.6360   35.9100 C   0  0  0  0  0  0  0  0  0  0  0  0
   39.6940   23.2090   36.2680 C   0  0  0  0  0  0  0  0  0  0  0  0
   39.9030   22.9250   37.5910 N   0  0  0  0  0  0  0  0  0  0  0  0
   38.9540   23.0340   38.5150 C   0  0  0  0  0  0  0  0  0  0  0  0
   37.7000   23.4470   38.1630 N   0  0  0  0  0  0  0  0  0  0  0  0
   37.7080   26.4140   34.8200 N   0  0  0  0  0  0  0  0  0  0  0  0
   38.8500   27.0870   35.3580 C   0  0  0  0  0  0  0  0  0  0  0  0
   39.9490   27.0100   34.6490 N   0  0  0  0  0  0  0  0  0  0  0  0
   38.6460   27.7680   36.6150 N   0  0  0  0  0  0  0  0  0  0  0  0
   40.7610   27.5110   35.0720 H   0  0  0  0  0  0  0  0  0  0  0  0
   37.2700   26.0290   31.7350 C   0  0  0  0  0  0  0  0  0  0  0  0
   36.0730   26.3640   31.1900 C   0  0  0  0  0  0  0  0  0  0  0  0
   36.2590   27.3600   30.3090 N   0  0  0  0  0  0  0  0  0  0  0  0
   37.5660   27.6660   30.2840 C   0  0  0  0  0  0  0  0  0  0  0  0
   38.1630   26.8520   31.1530 N   0  0  0  0  0  0  0  0  0  0  0  0
   37.7294   23.2099   31.4252 H   0  0  0  0  0  0  0  0  0  0  0  0
   36.4112   24.0775   36.6122 H   0  0  0  0  0  0  0  0  0  0  0  0
   40.4961   23.1101   35.5217 H   0  0  0  0  0  0  0  0  0  0  0  0
   39.1783   22.7915   39.5642 H   0  0  0  0  0  0  0  0  0  0  0  0
   36.7760   26.8304   34.9574 H   0  0  0  0  0  0  0  0  0  0  0  0
   39.4258   28.2732   37.0595 H   0  0  0  0  0  0  0  0  0  0  0  0
   37.7207   27.7485   37.0671 H   0  0  0  0  0  0  0  0  0  0  0  0
   35.1073   25.8956   31.4309 H   0  0  0  0  0  0  0  0  0  0  0  0
   38.0492   28.4377   29.6668 H   0  0  0  0  0  0  0  0  0  0  0  0
   39.1734   26.8520   31.3532 H   0  0  0  0  0  0  0  0  0  0  0  0
  1  7  1  0
  2  1  1  0
  3  4  1  0
  3  2  2  0
  4  5  2  0
  5  1  1  0
  5 12  1  0
  6 11  2  0
  7  8  2  0
  7  6  1  0
  8  9  1  0
  9 10  2  0
 11 10  1  0
 12 13  1  0
 13 15  1  0
 14 16  1  0
 14 13  2  0
 17  4  1  0
 18 17  2  0
 19 18  1  0
 20 19  2  0
 20 21  1  0
 21 17  1  0
  3 22  1  0
  6 23  1  0
  8 24  1  0
 10 25  1  0
 12 26  1  0
 15 27  1  0
 15 28  1  0
 18 29  1  0
 20 30  1  0
 21 31  1  0
M  ISO  7  22  14  23  14  24  14  25  14  29  14  30  14  31   9
M  END
>  <minimizedAffinity>  (1) 
-4.68183184

>  <minimizedRMSD>  (1) 
0.556075335

$$$$
