
     RDKit          3D

 26 27  0  0  0  0  0  0  0  0999 V2000
   38.1640   23.7020   34.7210 N   0  0  0  0  0  0  0  0  0  0  0  0
   38.1360   22.7110   33.8420 N   0  0  0  0  0  0  0  0  0  0  0  0
   37.8440   23.1720   32.6140 C   0  0  0  0  0  0  0  0  0  0  0  0
   37.6840   24.5360   32.7530 C   0  0  0  0  0  0  0  0  0  0  0  0
   37.8880   24.8650   34.0940 C   0  0  0  0  0  0  0  0  0  0  0  0
   37.4860   23.9220   37.0410 C   0  0  0  0  0  0  0  0  0  0  0  0
   38.4390   23.5550   36.0940 C   0  0  0  0  0  0  0  0  0  0  0  0
   39.6640   23.0420   36.5160 C   0  0  0  0  0  0  0  0  0  0  0  0
   39.8560   22.9290   37.8600 N   0  0  0  0  0  0  0  0  0  0  0  0
   38.9310   23.2870   38.7610 C   0  0  0  0  0  0  0  0  0  0  0  0
   37.7360   23.7880   38.3480 N   0  0  0  0  0  0  0  0  0  0  0  0
   37.8080   26.1850   34.6360 N   0  0  0  0  0  0  0  0  0  0  0  0
   38.9370   26.8670   35.1900 C   0  0  0  0  0  0  0  0  0  0  0  0
   40.0840   26.6400   34.5830 N   0  0  0  0  0  0  0  0  0  0  0  0
   38.6850   27.7050   36.3290 N   0  0  0  0  0  0  0  0  0  0  0  0
   40.8940   27.1440   35.0130 H   0  0  0  0  0  0  0  0  0  0  0  0
   37.3650   25.4650   31.7220 N   0  0  0  0  0  0  0  0  0  0  0  0
   37.7516   22.5839   31.6890 H   0  0  0  0  0  0  0  0  0  0  0  0
   36.5178   24.3262   36.7106 H   0  0  0  0  0  0  0  0  0  0  0  0
   40.4404   22.7420   35.7968 H   0  0  0  0  0  0  0  0  0  0  0  0
   39.1384   23.1756   39.8355 H   0  0  0  0  0  0  0  0  0  0  0  0
   36.8975   26.6665   34.6274 H   0  0  0  0  0  0  0  0  0  0  0  0
   39.4596   28.2209   36.7703 H   0  0  0  0  0  0  0  0  0  0  0  0
   37.7297   27.7900   36.7045 H   0  0  0  0  0  0  0  0  0  0  0  0
   37.2696   26.4666   31.9427 H   0  0  0  0  0  0  0  0  0  0  0  0
   37.2296   25.1354   30.7556 H   0  0  0  0  0  0  0  0  0  0  0  0
  1  7  1  0
  2  1  1  0
  3  4  1  0
  3  2  2  0
  4  5  2  0
  5 12  1  0
  5  1  1  0
  6 11  2  0
  7  8  2  0
  7  6  1  0
  8  9  1  0
  9 10  2  0
 11 10  1  0
 12 13  1  0
 13 15  1  0
 14 16  1  0
 14 13  2  0
 17  4  1  0
  3 18  1  0
  6 19  1  0
  8 20  1  0
 10 21  1  0
 12 22  1  0
 15 23  1  0
 15 24  1  0
 17 25  1  0
 17 26  1  0
M  ISO  4  18  14  19  14  20  14  21  14
M  END
>  <minimizedAffinity>  (1) 
-4.58146858

>  <minimizedRMSD>  (1) 
0.0427207462

$$$$
