
     RDKit          3D

 27 28  0  0  0  0  0  0  0  0999 V2000
   38.1110   23.7010   34.7350 N   0  0  0  0  0  0  0  0  0  0  0  0
   38.0610   22.7060   33.8540 N   0  0  0  0  0  0  0  0  0  0  0  0
   37.7520   23.1510   32.6360 C   0  0  0  0  0  0  0  0  0  0  0  0
   37.5990   24.5230   32.7730 C   0  0  0  0  0  0  0  0  0  0  0  0
   37.8300   24.8550   34.1030 C   0  0  0  0  0  0  0  0  0  0  0  0
   37.4630   23.9210   37.0560 C   0  0  0  0  0  0  0  0  0  0  0  0
   38.4130   23.5510   36.1030 C   0  0  0  0  0  0  0  0  0  0  0  0
   39.6500   23.0380   36.5020 C   0  0  0  0  0  0  0  0  0  0  0  0
   39.8540   22.9270   37.8520 N   0  0  0  0  0  0  0  0  0  0  0  0
   38.9450   23.2820   38.7530 C   0  0  0  0  0  0  0  0  0  0  0  0
   37.7480   23.7790   38.3620 N   0  0  0  0  0  0  0  0  0  0  0  0
   37.7650   26.1820   34.6370 N   0  0  0  0  0  0  0  0  0  0  0  0
   38.9040   26.8490   35.1930 C   0  0  0  0  0  0  0  0  0  0  0  0
   40.0440   26.6080   34.5920 N   0  0  0  0  0  0  0  0  0  0  0  0
   38.6800   27.6930   36.3260 N   0  0  0  0  0  0  0  0  0  0  0  0
   40.8610   27.1120   35.0030 H   0  0  0  0  0  0  0  0  0  0  0  0
   37.2480   25.5090   31.6930 C   0  0  0  0  0  0  0  0  0  0  0  0
   37.6417   22.5564   31.7171 H   0  0  0  0  0  0  0  0  0  0  0  0
   36.4896   24.3253   36.7413 H   0  0  0  0  0  0  0  0  0  0  0  0
   40.4174   22.7398   35.7725 H   0  0  0  0  0  0  0  0  0  0  0  0
   39.1664   23.1714   39.8248 H   0  0  0  0  0  0  0  0  0  0  0  0
   36.8620   26.6772   34.6206 H   0  0  0  0  0  0  0  0  0  0  0  0
   39.4691   28.1931   36.7597 H   0  0  0  0  0  0  0  0  0  0  0  0
   37.7296   27.8006   36.7082 H   0  0  0  0  0  0  0  0  0  0  0  0
   36.9127   26.4510   32.1514 H   0  0  0  0  0  0  0  0  0  0  0  0
   38.1334   25.6998   31.0688 H   0  0  0  0  0  0  0  0  0  0  0  0
   36.4412   25.0974   31.0688 H   0  0  0  0  0  0  0  0  0  0  0  0
  1  7  1  0
  2  1  1  0
  3  4  1  0
  3  2  2  0
  4  5  2  0
  5 12  1  0
  5  1  1  0
  6 11  2  0
  7  8  2  0
  7  6  1  0
  8  9  1  0
  9 10  2  0
 11 10  1  0
 12 13  1  0
 13 15  1  0
 14 16  1  0
 14 13  2  0
 17  4  1  0
  3 18  1  0
  6 19  1  0
  8 20  1  0
 10 21  1  0
 12 22  1  0
 15 23  1  0
 15 24  1  0
 17 25  1  0
 17 26  1  0
 17 27  1  0
M  ISO  7  18  14  19  14  20  14  21  14  25   8  26   8  27   8
M  END
>  <minimizedAffinity>  (1) 
-4.59188509

>  <minimizedRMSD>  (1) 
0.0347426832

$$$$
