
     RDKit          3D

 38 41  0  0  0  0  0  0  0  0999 V2000
   39.6280   23.6500   34.6720 N   0  0  0  0  0  0  0  0  0  0  0  0
   40.2300   22.7450   33.9170 N   0  0  0  0  0  0  0  0  0  0  0  0
   40.4590   23.2140   32.6870 C   0  0  0  0  0  0  0  0  0  0  0  0
   39.9530   24.5110   32.6970 C   0  0  0  0  0  0  0  0  0  0  0  0
   39.4330   24.7790   33.9470 C   0  0  0  0  0  0  0  0  0  0  0  0
   37.9210   23.6880   36.4030 C   0  0  0  0  0  0  0  0  0  0  0  0
   39.2490   23.4660   36.0180 C   0  0  0  0  0  0  0  0  0  0  0  0
   40.1870   23.0630   36.9710 C   0  0  0  0  0  0  0  0  0  0  0  0
   39.7400   22.9070   38.2560 N   0  0  0  0  0  0  0  0  0  0  0  0
   38.4770   23.1200   38.6140 C   0  0  0  0  0  0  0  0  0  0  0  0
   37.5530   23.5130   37.6900 N   0  0  0  0  0  0  0  0  0  0  0  0
   38.8260   26.0180   34.3300 N   0  0  0  0  0  0  0  0  0  0  0  0
   39.4860   26.9760   35.1820 C   0  0  0  0  0  0  0  0  0  0  0  0
   40.7900   27.0820   34.9870 N   0  0  0  0  0  0  0  0  0  0  0  0
   38.6890   27.6900   36.1220 N   0  0  0  0  0  0  0  0  0  0  0  0
   41.2490   27.7830   35.6120 H   0  0  0  0  0  0  0  0  0  0  0  0
   40.0160   25.3420   31.5470 N   0  0  0  0  0  0  0  0  0  0  0  0
   40.9630   26.0830   30.9390 C   0  0  0  0  0  0  0  0  0  0  0  0
   40.3880   26.6820   29.8200 C   0  0  0  0  0  0  0  0  0  0  0  0
   39.1100   26.2930   29.7720 N   0  0  0  0  0  0  0  0  0  0  0  0
   38.8800   25.4850   30.8100 C   0  0  0  0  0  0  0  0  0  0  0  0
   37.5270   24.9340   30.9550 C   0  0  0  0  0  0  0  0  0  0  0  0
   36.3360   25.5910   31.0910 C   0  0  0  0  0  0  0  0  0  0  0  0
   35.2100   24.8120   31.2090 C   0  0  0  0  0  0  0  0  0  0  0  0
   35.3240   23.4730   31.1860 C   0  0  0  0  0  0  0  0  0  0  0  0
   37.0930   23.1960   30.9890 S   0  0  0  0  0  0  0  0  0  0  0  0
   40.9420   22.6897   31.8492 H   0  0  0  0  0  0  0  0  0  0  0  0
   37.1777   24.0050   35.6567 H   0  0  0  0  0  0  0  0  0  0  0  0
   41.2375   22.8792   36.7016 H   0  0  0  0  0  0  0  0  0  0  0  0
   38.1751   22.9784   39.6622 H   0  0  0  0  0  0  0  0  0  0  0  0
   37.8804   26.2335   33.9832 H   0  0  0  0  0  0  0  0  0  0  0  0
   39.1260   28.3822   36.7471 H   0  0  0  0  0  0  0  0  0  0  0  0
   37.6756   27.5141   36.1767 H   0  0  0  0  0  0  0  0  0  0  0  0
   42.0066   26.1953   31.2682 H   0  0  0  0  0  0  0  0  0  0  0  0
   40.8925   27.3514   29.1077 H   0  0  0  0  0  0  0  0  0  0  0  0
   36.2815   26.6896   31.1053 H   0  0  0  0  0  0  0  0  0  0  0  0
   34.2216   25.2814   31.3216 H   0  0  0  0  0  0  0  0  0  0  0  0
   34.5243   22.7221   31.2682 H   0  0  0  0  0  0  0  0  0  0  0  0
  1  7  1  0
  2  1  1  0
  3  4  1  0
  3  2  2  0
  4  5  2  0
  5 12  1  0
  5  1  1  0
  6 11  2  0
  7  6  1  0
  7  8  2  0
  8  9  1  0
  9 10  2  0
 11 10  1  0
 12 13  1  0
 13 15  1  0
 14 13  2  0
 14 16  1  0
 17  4  1  0
 18 17  1  0
 19 18  2  0
 20 19  1  0
 20 21  2  0
 21 22  1  0
 21 17  1  0
 22 26  1  0
 22 23  2  0
 23 24  1  0
 25 24  2  0
 26 25  1  0
  3 27  1  0
  6 28  1  0
  8 29  1  0
 10 30  1  0
 12 31  1  0
 15 32  1  0
 15 33  1  0
 18 34  1  0
 19 35  1  0
 23 36  1  0
 24 37  1  0
 25 38  1  0
M  ISO  8  27  14  28  14  29  14  30  14  34  14  35  14  36  14  37  14
M  ISO  1  38  14
M  END
>  <minimizedAffinity>  (1) 
-5.3790493

>  <minimizedRMSD>  (1) 
2.42999554

$$$$
