
     RDKit          3D

 34 36  0  0  0  0  0  0  0  0999 V2000
   38.9520   24.2900   33.7320 N   0  0  0  0  0  0  0  0  0  0  0  0
   39.1500   23.5930   32.6250 N   0  0  0  0  0  0  0  0  0  0  0  0
   38.9360   24.3410   31.5320 C   0  0  0  0  0  0  0  0  0  0  0  0
   38.5800   25.5940   32.0290 C   0  0  0  0  0  0  0  0  0  0  0  0
   38.5900   25.5630   33.4150 C   0  0  0  0  0  0  0  0  0  0  0  0
   37.9540   23.5480   35.8200 C   0  0  0  0  0  0  0  0  0  0  0  0
   39.0970   23.7850   35.0420 C   0  0  0  0  0  0  0  0  0  0  0  0
   40.3600   23.5250   35.5640 C   0  0  0  0  0  0  0  0  0  0  0  0
   40.4010   23.0380   36.8430 N   0  0  0  0  0  0  0  0  0  0  0  0
   39.3170   22.8110   37.5850 C   0  0  0  0  0  0  0  0  0  0  0  0
   38.0830   23.0680   37.0670 N   0  0  0  0  0  0  0  0  0  0  0  0
   38.2810   26.6530   34.2650 N   0  0  0  0  0  0  0  0  0  0  0  0
   39.1840   27.1390   35.2630 C   0  0  0  0  0  0  0  0  0  0  0  0
   40.4660   27.1050   34.9230 N   0  0  0  0  0  0  0  0  0  0  0  0
   38.6390   27.6000   36.4940 N   0  0  0  0  0  0  0  0  0  0  0  0
   41.1050   27.4710   35.6550 H   0  0  0  0  0  0  0  0  0  0  0  0
   38.2750   26.6620   31.1540 N   0  0  0  0  0  0  0  0  0  0  0  0
   38.9990   27.5720   30.4640 C   0  0  0  0  0  0  0  0  0  0  0  0
   38.1050   28.3840   29.7620 C   0  0  0  0  0  0  0  0  0  0  0  0
   36.8690   27.9540   30.0390 N   0  0  0  0  0  0  0  0  0  0  0  0
   36.9640   26.9070   30.8850 C   0  0  0  0  0  0  0  0  0  0  0  0
   35.7290   26.2260   31.3630 C   0  0  0  0  0  0  0  0  0  0  0  0
   35.1550   25.4930   30.3250 F   0  0  0  0  0  0  0  0  0  0  0  0
   36.1160   25.3000   32.3080 F   0  0  0  0  0  0  0  0  0  0  0  0
   34.7830   27.1100   31.8030 F   0  0  0  0  0  0  0  0  0  0  0  0
   39.0222   24.0343   30.4791 H   0  0  0  0  0  0  0  0  0  0  0  0
   36.9547   23.7549   35.4093 H   0  0  0  0  0  0  0  0  0  0  0  0
   41.2760   23.7011   34.9809 H   0  0  0  0  0  0  0  0  0  0  0  0
   39.4179   22.4191   38.6079 H   0  0  0  0  0  0  0  0  0  0  0  0
   37.3668   27.1158   34.1602 H   0  0  0  0  0  0  0  0  0  0  0  0
   39.2629   27.9558   37.2323 H   0  0  0  0  0  0  0  0  0  0  0  0
   37.6206   27.5778   36.6468 H   0  0  0  0  0  0  0  0  0  0  0  0
   40.0956   27.6576   30.4568 H   0  0  0  0  0  0  0  0  0  0  0  0
   38.3691   29.2235   29.1021 H   0  0  0  0  0  0  0  0  0  0  0  0
  1  7  1  0
  2  1  1  0
  3  4  1  0
  3  2  2  0
  4  5  2  0
  5  1  1  0
  5 12  1  0
  6 11  2  0
  7  8  2  0
  7  6  1  0
  8  9  1  0
  9 10  2  0
 11 10  1  0
 12 13  1  0
 13 15  1  0
 14 13  2  0
 14 16  1  0
 17  4  1  0
 18 17  1  0
 19 20  1  0
 19 18  2  0
 20 21  2  0
 21 17  1  0
 21 22  1  0
 22 25  1  0
 22 24  1  0
 23 22  1  0
  3 26  1  0
  6 27  1  0
  8 28  1  0
 10 29  1  0
 12 30  1  0
 15 31  1  0
 15 32  1  0
 18 33  1  0
 19 34  1  0
M  ISO  6  26  14  27  14  28  14  29  14  33  14  34  14
M  END
>  <minimizedAffinity>  (1) 
-5.18910789

>  <minimizedRMSD>  (1) 
1.85557568

$$$$
