
     RDKit          3D

 33 35  0  0  0  0  0  0  0  0999 V2000
   38.2190   23.7990   34.7640 N   0  0  0  0  0  0  0  0  0  0  0  0
   38.2800   22.9220   33.7680 N   0  0  0  0  0  0  0  0  0  0  0  0
   37.9390   23.4870   32.6040 C   0  0  0  0  0  0  0  0  0  0  0  0
   37.6500   24.8140   32.9170 C   0  0  0  0  0  0  0  0  0  0  0  0
   37.8250   25.0120   34.2720 C   0  0  0  0  0  0  0  0  0  0  0  0
   37.2460   25.7300   31.9070 N   0  0  0  0  0  0  0  0  0  0  0  0
   37.7900   26.8550   31.3600 C   0  0  0  0  0  0  0  0  0  0  0  0
   36.8900   27.3110   30.3920 C   0  0  0  0  0  0  0  0  0  0  0  0
   35.8470   26.4700   30.3770 N   0  0  0  0  0  0  0  0  0  0  0  0
   36.0580   25.5130   31.2930 C   0  0  0  0  0  0  0  0  0  0  0  0
   35.0770   24.4860   31.4680 N   0  0  0  0  0  0  0  0  0  0  0  0
   37.4980   23.6210   37.0750 C   0  0  0  0  0  0  0  0  0  0  0  0
   38.5130   23.5250   36.1060 C   0  0  0  0  0  0  0  0  0  0  0  0
   39.7930   23.1600   36.4970 C   0  0  0  0  0  0  0  0  0  0  0  0
   39.9910   22.9110   37.8230 N   0  0  0  0  0  0  0  0  0  0  0  0
   39.0180   23.0040   38.7380 C   0  0  0  0  0  0  0  0  0  0  0  0
   37.7570   23.3630   38.3660 N   0  0  0  0  0  0  0  0  0  0  0  0
   37.6220   26.2440   34.9600 N   0  0  0  0  0  0  0  0  0  0  0  0
   38.7150   27.0700   35.3760 C   0  0  0  0  0  0  0  0  0  0  0  0
   39.7490   27.1110   34.5730 N   0  0  0  0  0  0  0  0  0  0  0  0
   38.5990   27.7720   36.6090 N   0  0  0  0  0  0  0  0  0  0  0  0
   40.5270   27.7270   34.8730 H   0  0  0  0  0  0  0  0  0  0  0  0
   37.8961   23.0080   31.6147 H   0  0  0  0  0  0  0  0  0  0  0  0
   38.7522   27.3152   31.6289 H   0  0  0  0  0  0  0  0  0  0  0  0
   37.0156   28.2003   29.7569 H   0  0  0  0  0  0  0  0  0  0  0  0
   35.2263   23.7451   32.1678 H   0  0  0  0  0  0  0  0  0  0  0  0
   34.2216   24.4877   30.8942 H   0  0  0  0  0  0  0  0  0  0  0  0
   36.4812   23.9106   36.7712 H   0  0  0  0  0  0  0  0  0  0  0  0
   40.6130   23.0751   35.7687 H   0  0  0  0  0  0  0  0  0  0  0  0
   39.2373   22.7898   39.7944 H   0  0  0  0  0  0  0  0  0  0  0  0
   36.6597   26.5492   35.1640 H   0  0  0  0  0  0  0  0  0  0  0  0
   39.3695   28.3736   36.9336 H   0  0  0  0  0  0  0  0  0  0  0  0
   37.7446   27.6783   37.1766 H   0  0  0  0  0  0  0  0  0  0  0  0
  1 13  1  0
  2  1  1  0
  3  4  1  0
  3  2  2  0
  4  5  2  0
  5  1  1  0
  5 18  1  0
  6  4  1  0
  7  6  1  0
  8  7  2  0
  9  8  1  0
  9 10  2  0
 10 11  1  0
 10  6  1  0
 12 17  2  0
 13 14  2  0
 13 12  1  0
 14 15  1  0
 15 16  2  0
 17 16  1  0
 18 19  1  0
 19 21  1  0
 20 22  1  0
 20 19  2  0
  3 23  1  0
  7 24  1  0
  8 25  1  0
 11 26  1  0
 11 27  1  0
 12 28  1  0
 14 29  1  0
 16 30  1  0
 18 31  1  0
 21 32  1  0
 21 33  1  0
M  ISO  6  23  14  24  14  25  14  28  14  29  14  30  14
M  END
>  <minimizedAffinity>  (1) 
-4.76904726

>  <minimizedRMSD>  (1) 
0.431080639

$$$$
