
     RDKit          3D

 47 50  0  0  0  0  0  0  0  0999 V2000
   39.7010   23.4940   34.8140 N   0  0  0  0  0  0  0  0  0  0  0  0
   40.4060   22.5790   34.1770 N   0  0  0  0  0  0  0  0  0  0  0  0
   40.8590   23.0410   32.9970 C   0  0  0  0  0  0  0  0  0  0  0  0
   40.3770   24.3460   32.9310 C   0  0  0  0  0  0  0  0  0  0  0  0
   39.6500   24.6240   34.0780 C   0  0  0  0  0  0  0  0  0  0  0  0
   37.7170   23.1510   36.1650 C   0  0  0  0  0  0  0  0  0  0  0  0
   39.0930   23.3130   36.0730 C   0  0  0  0  0  0  0  0  0  0  0  0
   39.8610   23.2980   37.2290 C   0  0  0  0  0  0  0  0  0  0  0  0
   39.1940   23.1190   38.4180 N   0  0  0  0  0  0  0  0  0  0  0  0
   37.8760   22.9640   38.4890 C   0  0  0  0  0  0  0  0  0  0  0  0
   37.1160   22.9790   37.3500 N   0  0  0  0  0  0  0  0  0  0  0  0
   39.0120   25.8710   34.3450 N   0  0  0  0  0  0  0  0  0  0  0  0
   39.6270   26.8900   35.1540 C   0  0  0  0  0  0  0  0  0  0  0  0
   40.9310   27.0090   35.0140 N   0  0  0  0  0  0  0  0  0  0  0  0
   38.7640   27.6500   36.0090 N   0  0  0  0  0  0  0  0  0  0  0  0
   41.3510   27.7650   35.5970 H   0  0  0  0  0  0  0  0  0  0  0  0
   40.6610   25.1700   31.7980 N   0  0  0  0  0  0  0  0  0  0  0  0
   41.6660   26.0130   31.4620 C   0  0  0  0  0  0  0  0  0  0  0  0
   41.3620   26.5260   30.2040 C   0  0  0  0  0  0  0  0  0  0  0  0
   40.1970   25.9940   29.8030 N   0  0  0  0  0  0  0  0  0  0  0  0
   39.7700   25.1620   30.7840 C   0  0  0  0  0  0  0  0  0  0  0  0
   38.4660   24.4770   30.4930 C   0  0  0  0  0  0  0  0  0  0  0  0
   38.5860   23.4040   29.4550 C   0  0  0  0  0  0  0  0  0  0  0  0
   39.0990   22.0900   29.9890 C   0  0  0  0  0  0  0  0  0  0  0  0
   38.4280   21.7170   31.2930 C   0  0  0  0  0  0  0  0  0  0  0  0
   37.2160   22.6360   31.4510 C   0  0  0  0  0  0  0  0  0  0  0  0
   37.8100   24.0030   31.7710 C   0  0  0  0  0  0  0  0  0  0  0  0
   41.4708   22.5089   32.2537 H   0  0  0  0  0  0  0  0  0  0  0  0
   37.1093   23.1641   35.2482 H   0  0  0  0  0  0  0  0  0  0  0  0
   40.9533   23.4236   37.1955 H   0  0  0  0  0  0  0  0  0  0  0  0
   37.3933   22.8230   39.4673 H   0  0  0  0  0  0  0  0  0  0  0  0
   38.0794   26.0484   33.9453 H   0  0  0  0  0  0  0  0  0  0  0  0
   39.1550   28.3911   36.6081 H   0  0  0  0  0  0  0  0  0  0  0  0
   37.7527   27.4552   36.0245 H   0  0  0  0  0  0  0  0  0  0  0  0
   42.5537   26.2478   32.0677 H   0  0  0  0  0  0  0  0  0  0  0  0
   41.9719   27.2441   29.6362 H   0  0  0  0  0  0  0  0  0  0  0  0
   37.7954   25.2239   30.0430 H   0  0  0  0  0  0  0  0  0  0  0  0
   39.2772   23.7537   28.6740 H   0  0  0  0  0  0  0  0  0  0  0  0
   37.5724   23.2178   29.0704 H   0  0  0  0  0  0  0  0  0  0  0  0
   38.9008   21.3019   29.2476 H   0  0  0  0  0  0  0  0  0  0  0  0
   40.1782   22.1928   30.1752 H   0  0  0  0  0  0  0  0  0  0  0  0
   38.1041   20.6662   31.2641 H   0  0  0  0  0  0  0  0  0  0  0  0
   39.1217   21.8332   32.1387 H   0  0  0  0  0  0  0  0  0  0  0  0
   36.6333   22.6742   30.5188 H   0  0  0  0  0  0  0  0  0  0  0  0
   36.5266   22.2868   32.2338 H   0  0  0  0  0  0  0  0  0  0  0  0
   38.5554   23.9179   32.5754 H   0  0  0  0  0  0  0  0  0  0  0  0
   37.0397   24.7083   32.1163 H   0  0  0  0  0  0  0  0  0  0  0  0
  1  7  1  0
  2  1  1  0
  3  2  2  0
  4  3  1  0
  4  5  2  0
  5 12  1  0
  5  1  1  0
  6 11  2  0
  7  6  1  0
  7  8  2  0
  8  9  1  0
  9 10  2  0
 11 10  1  0
 12 13  1  0
 13 15  1  0
 14 13  2  0
 14 16  1  0
 17  4  1  0
 18 17  1  0
 19 18  2  0
 20 19  1  0
 20 21  2  0
 21 17  1  0
 22 21  1  0
 22 27  1  0
 23 24  1  0
 23 22  1  0
 24 25  1  0
 25 26  1  0
 26 27  1  0
  3 28  1  0
  6 29  1  0
  8 30  1  0
 10 31  1  0
 12 32  1  0
 15 33  1  0
 15 34  1  0
 18 35  1  0
 19 36  1  0
 22 37  1  0
 23 38  1  0
 23 39  1  0
 24 40  1  0
 24 41  1  0
 25 42  1  0
 25 43  1  0
 26 44  1  0
 26 45  1  0
 27 46  1  0
 27 47  1  0
M  ISO  8  28  14  29  14  30  14  31  14  35  14  36  14  37  13  38  13
M  ISO  8  39  13  40  13  41  13  42  13  43  13  44  13  45  13  46  13
M  ISO  1  47  13
M  END
>  <minimizedAffinity>  (1) 
-4.65917015

>  <minimizedRMSD>  (1) 
3.00474477

$$$$
