
     RDKit          3D

 43 45  0  0  0  0  0  0  0  0999 V2000
   38.8610   24.3160   33.7810 N   0  0  0  0  0  0  0  0  0  0  0  0
   39.0050   23.6460   32.6380 N   0  0  0  0  0  0  0  0  0  0  0  0
   38.6540   24.4060   31.6000 C   0  0  0  0  0  0  0  0  0  0  0  0
   38.2670   25.6200   32.1410 C   0  0  0  0  0  0  0  0  0  0  0  0
   38.3960   25.5730   33.5250 C   0  0  0  0  0  0  0  0  0  0  0  0
   38.0880   23.5560   35.9530 C   0  0  0  0  0  0  0  0  0  0  0  0
   39.1370   23.8030   35.0690 C   0  0  0  0  0  0  0  0  0  0  0  0
   40.4460   23.5470   35.4490 C   0  0  0  0  0  0  0  0  0  0  0  0
   40.6270   23.0500   36.7100 N   0  0  0  0  0  0  0  0  0  0  0  0
   39.6180   22.8150   37.5550 C   0  0  0  0  0  0  0  0  0  0  0  0
   38.3370   23.0690   37.1770 N   0  0  0  0  0  0  0  0  0  0  0  0
   38.0980   26.6360   34.4030 N   0  0  0  0  0  0  0  0  0  0  0  0
   39.0300   27.1120   35.3800 C   0  0  0  0  0  0  0  0  0  0  0  0
   40.2890   27.1200   34.9900 N   0  0  0  0  0  0  0  0  0  0  0  0
   38.5270   27.5240   36.6470 N   0  0  0  0  0  0  0  0  0  0  0  0
   40.9520   27.4790   35.7090 H   0  0  0  0  0  0  0  0  0  0  0  0
   37.8190   26.6640   31.3000 N   0  0  0  0  0  0  0  0  0  0  0  0
   36.5700   27.1570   31.0220 C   0  0  0  0  0  0  0  0  0  0  0  0
   36.7560   28.2100   30.1220 C   0  0  0  0  0  0  0  0  0  0  0  0
   38.0730   28.3290   29.8780 N   0  0  0  0  0  0  0  0  0  0  0  0
   38.7380   27.3820   30.5980 C   0  0  0  0  0  0  0  0  0  0  0  0
   40.2160   27.3690   30.4570 C   0  0  0  0  0  0  0  0  0  0  0  0
   40.6840   26.2310   29.5280 C   0  0  0  0  0  0  0  0  0  0  0  0
   41.0090   27.2200   31.6950 C   0  0  0  0  0  0  0  0  0  0  0  0
   40.5910   28.6250   29.6560 C   0  0  0  0  0  0  0  0  0  0  0  0
   38.6689   24.1266   30.5362 H   0  0  0  0  0  0  0  0  0  0  0  0
   37.0521   23.7614   35.6452 H   0  0  0  0  0  0  0  0  0  0  0  0
   41.2930   23.7337   34.7725 H   0  0  0  0  0  0  0  0  0  0  0  0
   39.8248   22.4151   38.5587 H   0  0  0  0  0  0  0  0  0  0  0  0
   37.1743   27.0872   34.3388 H   0  0  0  0  0  0  0  0  0  0  0  0
   39.1736   27.8710   37.3697 H   0  0  0  0  0  0  0  0  0  0  0  0
   37.5166   27.4750   36.8406 H   0  0  0  0  0  0  0  0  0  0  0  0
   35.6129   26.7959   31.4265 H   0  0  0  0  0  0  0  0  0  0  0  0
   35.9613   28.8344   29.6877 H   0  0  0  0  0  0  0  0  0  0  0  0
   41.0330   25.3824   30.1348 H   0  0  0  0  0  0  0  0  0  0  0  0
   39.8458   25.9077   28.8932 H   0  0  0  0  0  0  0  0  0  0  0  0
   41.5071   26.5909   28.8932 H   0  0  0  0  0  0  0  0  0  0  0  0
   40.3519   27.3435   32.5685 H   0  0  0  0  0  0  0  0  0  0  0  0
   41.4669   26.2201   31.7190 H   0  0  0  0  0  0  0  0  0  0  0  0
   41.7986   27.9855   31.7190 H   0  0  0  0  0  0  0  0  0  0  0  0
   40.8352   29.4430   30.3498 H   0  0  0  0  0  0  0  0  0  0  0  0
   41.4638   28.4088   29.0223 H   0  0  0  0  0  0  0  0  0  0  0  0
   39.7425   28.9227   29.0223 H   0  0  0  0  0  0  0  0  0  0  0  0
  1  7  1  0
  2  1  1  0
  3  4  1  0
  3  2  2  0
  4  5  2  0
  5  1  1  0
  5 12  1  0
  6 11  2  0
  7  8  2  0
  7  6  1  0
  8  9  1  0
  9 10  2  0
 11 10  1  0
 12 13  1  0
 13 15  1  0
 14 13  2  0
 14 16  1  0
 17  4  1  0
 18 17  1  0
 19 18  2  0
 20 19  1  0
 20 21  2  0
 21 17  1  0
 22 21  1  0
 22 24  1  0
 23 22  1  0
 25 22  1  0
  3 26  1  0
  6 27  1  0
  8 28  1  0
 10 29  1  0
 12 30  1  0
 15 31  1  0
 15 32  1  0
 18 33  1  0
 19 34  1  0
 23 35  1  0
 23 36  1  0
 23 37  1  0
 24 38  1  0
 24 39  1  0
 24 40  1  0
 25 41  1  0
 25 42  1  0
 25 43  1  0
M  ISO  8  26  14  27  14  28  14  29  14  33  14  34  14  35   8  36   8
M  ISO  7  37   8  38   8  39   8  40   8  41   8  42   8  43   8
M  END
>  <minimizedAffinity>  (1) 
-4.89245033

>  <minimizedRMSD>  (1) 
3.50384736

$$$$
