
     RDKit          3D

 33 36  0  0  0  0  0  0  0  0999 V2000
   38.3240   21.9900   34.6350 C   0  0  0  0  0  0  0  0  0  0  0  0
   37.0930   21.7260   34.1820 C   0  0  0  0  0  0  0  0  0  0  0  0
   36.7750   21.2980   32.9430 C   0  0  0  0  0  0  0  0  0  0  0  0
   37.9490   21.1430   32.1150 C   0  0  0  0  0  0  0  0  0  0  0  0
   39.3990   21.6320   33.1930 S   0  0  0  0  0  0  0  0  0  0  0  0
   38.2600   20.8100   30.7700 C   0  0  0  0  0  0  0  0  0  0  0  0
   39.1080   21.6620   30.0450 C   0  0  0  0  0  0  0  0  0  0  0  0
   39.4910   21.4400   28.7460 C   0  0  0  0  0  0  0  0  0  0  0  0
   39.0340   20.3260   28.0950 C   0  0  0  0  0  0  0  0  0  0  0  0
   38.2000   19.4360   28.7330 C   0  0  0  0  0  0  0  0  0  0  0  0
   37.7910   18.3110   28.0580 C   0  0  0  0  0  0  0  0  0  0  0  0
   36.9910   17.3880   28.6990 C   0  0  0  0  0  0  0  0  0  0  0  0
   36.6400   17.6650   30.0260 C   0  0  0  0  0  0  0  0  0  0  0  0
   37.0840   18.8110   30.6400 C   0  0  0  0  0  0  0  0  0  0  0  0
   37.8760   19.7470   30.0300 C   0  0  0  0  0  0  0  0  0  0  0  0
   39.9900   22.7180   37.7380 C   0  0  0  0  0  0  0  0  0  0  0  0
   38.9640   23.2940   38.5270 C   0  0  0  0  0  0  0  0  0  0  0  0
   37.6780   23.4360   37.9760 C   0  0  0  0  0  0  0  0  0  0  0  0
   37.4890   23.0050   36.6930 N   0  0  0  0  0  0  0  0  0  0  0  0
   38.5100   22.4540   35.9700 C   0  0  0  0  0  0  0  0  0  0  0  0
   39.7310   22.3150   36.4820 N   0  0  0  0  0  0  0  0  0  0  0  0
   36.2613   21.8719   34.8870 H   0  0  0  0  0  0  0  0  0  0  0  0
   35.7487   21.0924   32.6047 H   0  0  0  0  0  0  0  0  0  0  0  0
   39.4888   22.5626   30.5489 H   0  0  0  0  0  0  0  0  0  0  0  0
   40.1577   22.1493   28.2337 H   0  0  0  0  0  0  0  0  0  0  0  0
   39.3357   20.1405   27.0536 H   0  0  0  0  0  0  0  0  0  0  0  0
   38.0991   18.1478   27.0147 H   0  0  0  0  0  0  0  0  0  0  0  0
   36.6446   16.4760   28.1909 H   0  0  0  0  0  0  0  0  0  0  0  0
   36.0040   16.9597   30.5810 H   0  0  0  0  0  0  0  0  0  0  0  0
   36.7855   18.9873   31.6839 H   0  0  0  0  0  0  0  0  0  0  0  0
   41.0014   22.6002   38.1543 H   0  0  0  0  0  0  0  0  0  0  0  0
   39.1702   23.6253   39.5555 H   0  0  0  0  0  0  0  0  0  0  0  0
   36.8545   23.8777   38.5563 H   0  0  0  0  0  0  0  0  0  0  0  0
  1 20  1  0
  2  1  2  0
  3  2  1  0
  4  3  2  0
  4  5  1  0
  5  1  1  0
  6  4  1  0
  7  6  2  0
  8  7  1  0
  9 10  1  0
  9  8  2  0
 10 15  2  0
 11 12  2  0
 11 10  1  0
 12 13  1  0
 13 14  2  0
 15 14  1  0
 15  6  1  0
 16 17  2  0
 18 17  1  0
 19 18  2  0
 20 21  2  0
 20 19  1  0
 21 16  1  0
  2 22  1  0
  3 23  1  0
  7 24  1  0
  8 25  1  0
  9 26  1  0
 11 27  1  0
 12 28  1  0
 13 29  1  0
 14 30  1  0
 16 31  1  0
 17 32  1  0
 18 33  1  0
M  ISO  8  22  14  23  14  24  14  25  14  26  14  27  14  28  14  29  14
M  ISO  4  30  14  31  14  32  14  33  14
M  END
>  <minimizedAffinity>  (1) 
-4.61760092

>  <minimizedRMSD>  (1) 
2.01880193

$$$$
