
     RDKit          3D

 30 32  0  0  0  0  0  0  0  0999 V2000
   37.7170   21.9070   35.2000 C   0  0  0  0  0  0  0  0  0  0  0  0
   36.4950   21.3800   35.1410 C   0  0  0  0  0  0  0  0  0  0  0  0
   35.9130   20.7340   34.1240 C   0  0  0  0  0  0  0  0  0  0  0  0
   36.8830   20.6820   32.9940 C   0  0  0  0  0  0  0  0  0  0  0  0
   38.4540   21.5560   33.5610 S   0  0  0  0  0  0  0  0  0  0  0  0
   36.8970   20.1530   31.6580 N   0  0  0  0  0  0  0  0  0  0  0  0
   37.9050   20.5500   30.9050 C   0  0  0  0  0  0  0  0  0  0  0  0
   37.9610   20.0650   29.6060 C   0  0  0  0  0  0  0  0  0  0  0  0
   39.0580   20.4570   28.6880 C   0  0  0  0  0  0  0  0  0  0  0  0
   36.9730   19.2040   29.1700 C   0  0  0  0  0  0  0  0  0  0  0  0
   36.9710   18.7320   28.0040 O   0  0  0  0  0  0  0  0  0  0  0  0
   35.9920   18.8730   30.0410 N   0  0  0  0  0  0  0  0  0  0  0  0
   35.9080   19.3300   31.3190 C   0  0  0  0  0  0  0  0  0  0  0  0
   34.9630   18.9700   32.0560 O   0  0  0  0  0  0  0  0  0  0  0  0
   39.8800   22.9080   37.9120 C   0  0  0  0  0  0  0  0  0  0  0  0
   39.0690   23.7540   38.6720 C   0  0  0  0  0  0  0  0  0  0  0  0
   37.7670   23.9950   38.2690 C   0  0  0  0  0  0  0  0  0  0  0  0
   37.3090   23.3870   37.1220 N   0  0  0  0  0  0  0  0  0  0  0  0
   38.1340   22.5680   36.4070 C   0  0  0  0  0  0  0  0  0  0  0  0
   39.3850   22.3440   36.8050 N   0  0  0  0  0  0  0  0  0  0  0  0
   35.8834   21.4905   36.0486 H   0  0  0  0  0  0  0  0  0  0  0  0
   34.8961   20.3146   34.1224 H   0  0  0  0  0  0  0  0  0  0  0  0
   38.6709   21.2384   31.2917 H   0  0  0  0  0  0  0  0  0  0  0  0
   39.9337   20.7699   29.2756 H   0  0  0  0  0  0  0  0  0  0  0  0
   39.3292   19.6001   28.0538 H   0  0  0  0  0  0  0  0  0  0  0  0
   38.7247   21.2917   28.0538 H   0  0  0  0  0  0  0  0  0  0  0  0
   35.2574   18.2298   29.7131 H   0  0  0  0  0  0  0  0  0  0  0  0
   40.9164   22.7075   38.2212 H   0  0  0  0  0  0  0  0  0  0  0  0
   39.4624   24.2255   39.5846 H   0  0  0  0  0  0  0  0  0  0  0  0
   37.1120   24.6584   38.8529 H   0  0  0  0  0  0  0  0  0  0  0  0
  1 19  1  0
  2  1  2  0
  3  2  1  0
  4  5  1  0
  4  3  2  0
  5  1  1  0
  6  4  1  0
  7  6  1  0
  8  7  2  0
  9  8  1  0
 10  8  1  0
 10 12  1  0
 11 10  2  0
 12 13  1  0
 13  6  1  0
 13 14  2  0
 15 16  2  0
 17 16  1  0
 18 17  2  0
 19 20  2  0
 19 18  1  0
 20 15  1  0
  2 21  1  0
  3 22  1  0
  7 23  1  0
  9 24  1  0
  9 25  1  0
  9 26  1  0
 12 27  1  0
 15 28  1  0
 16 29  1  0
 17 30  1  0
M  ISO  8  21  14  22  14  23  14  24   8  25   8  26   8  27   9  28  14
M  ISO  2  29  14  30  14
M  END
>  <minimizedAffinity>  (1) 
-4.89524937

>  <minimizedRMSD>  (1) 
1.07699049

$$$$
