
     RDKit          3D

 16 16  0  0  0  0  0  0  0  0999 V2000
   40.9090   22.0260   37.4560 C   0  0  0  0  0  0  0  0  0  0  0  0
   39.7980   22.8110   37.8190 C   0  0  0  0  0  0  0  0  0  0  0  0
   38.9780   23.2890   36.7990 C   0  0  0  0  0  0  0  0  0  0  0  0
   39.2840   22.9780   35.4980 N   0  0  0  0  0  0  0  0  0  0  0  0
   40.3630   22.2200   35.2010 C   0  0  0  0  0  0  0  0  0  0  0  0
   41.1680   21.7460   36.1580 N   0  0  0  0  0  0  0  0  0  0  0  0
   37.7920   24.1260   37.1560 C   0  0  0  0  0  0  0  0  0  0  0  0
   37.9190   24.4230   38.6460 C   0  0  0  0  0  0  0  0  0  0  0  0
   41.5757   21.6349   38.2387 H   0  0  0  0  0  0  0  0  0  0  0  0
   39.5843   23.0395   38.8736 H   0  0  0  0  0  0  0  0  0  0  0  0
   40.5839   21.9878   34.1487 H   0  0  0  0  0  0  0  0  0  0  0  0
   37.7971   25.0620   36.5781 H   0  0  0  0  0  0  0  0  0  0  0  0
   36.8495   23.6065   36.9281 H   0  0  0  0  0  0  0  0  0  0  0  0
   37.5510   23.5625   39.2241 H   0  0  0  0  0  0  0  0  0  0  0  0
   38.9746   24.6073   38.8945 H   0  0  0  0  0  0  0  0  0  0  0  0
   37.3230   25.3135   38.8945 H   0  0  0  0  0  0  0  0  0  0  0  0
  1  2  2  0
  3  7  1  0
  3  2  1  0
  4  3  2  0
  5  4  1  0
  5  6  2  0
  6  1  1  0
  7  8  1  0
  1  9  1  0
  2 10  1  0
  5 11  1  0
  7 12  1  0
  7 13  1  0
  8 14  1  0
  8 15  1  0
  8 16  1  0
M  ISO  8   9  14  10  14  11  14  12   8  13   8  14   8  15   8  16   8
M  END
>  <minimizedAffinity>  (1) 
-2.83853483

>  <minimizedRMSD>  (1) 
1.50202727

$$$$
