
     RDKit          3D

 27 29  0  0  0  0  0  0  0  0999 V2000
   38.0940   21.8460   34.6960 C   0  0  0  0  0  0  0  0  0  0  0  0
   36.8450   21.4530   34.4280 C   0  0  0  0  0  0  0  0  0  0  0  0
   36.4010   20.9010   33.2820 C   0  0  0  0  0  0  0  0  0  0  0  0
   37.5090   20.7810   32.3340 C   0  0  0  0  0  0  0  0  0  0  0  0
   39.0300   21.4650   33.1830 S   0  0  0  0  0  0  0  0  0  0  0  0
   39.9420   22.7440   37.6620 C   0  0  0  0  0  0  0  0  0  0  0  0
   39.0230   23.4700   38.4220 C   0  0  0  0  0  0  0  0  0  0  0  0
   37.7380   23.6670   37.9190 C   0  0  0  0  0  0  0  0  0  0  0  0
   37.4390   23.1320   36.6880 N   0  0  0  0  0  0  0  0  0  0  0  0
   38.3710   22.4280   35.9820 C   0  0  0  0  0  0  0  0  0  0  0  0
   39.6180   22.2350   36.4660 N   0  0  0  0  0  0  0  0  0  0  0  0
   37.5300   20.2500   30.9720 C   0  0  0  0  0  0  0  0  0  0  0  0
   36.5180   19.5060   30.4670 C   0  0  0  0  0  0  0  0  0  0  0  0
   36.6040   19.0360   29.1730 C   0  0  0  0  0  0  0  0  0  0  0  0
   37.6810   19.2860   28.3540 C   0  0  0  0  0  0  0  0  0  0  0  0
   38.6750   20.0450   28.9250 C   0  0  0  0  0  0  0  0  0  0  0  0
   38.6320   20.5360   30.2130 C   0  0  0  0  0  0  0  0  0  0  0  0
   36.1019   21.5951   35.2265 H   0  0  0  0  0  0  0  0  0  0  0  0
   35.3642   20.5884   33.0887 H   0  0  0  0  0  0  0  0  0  0  0  0
   40.9572   22.5861   38.0550 H   0  0  0  0  0  0  0  0  0  0  0  0
   39.3084   23.8800   39.4020 H   0  0  0  0  0  0  0  0  0  0  0  0
   36.9865   24.2329   38.4891 H   0  0  0  0  0  0  0  0  0  0  0  0
   35.6354   19.2784   31.0828 H   0  0  0  0  0  0  0  0  0  0  0  0
   35.7731   18.4334   28.7775 H   0  0  0  0  0  0  0  0  0  0  0  0
   37.7420   18.9080   27.3228 H   0  0  0  0  0  0  0  0  0  0  0  0
   39.5613   20.2754   28.3155 H   0  0  0  0  0  0  0  0  0  0  0  0
   39.4582   21.1390   30.6177 H   0  0  0  0  0  0  0  0  0  0  0  0
  1 10  1  0
  2  1  2  0
  3  2  1  0
  4  5  1  0
  4  3  2  0
  5  1  1  0
  6  7  2  0
  8  7  1  0
  9  8  2  0
 10 11  2  0
 10  9  1  0
 11  6  1  0
 12  4  1  0
 13 12  2  0
 14 13  1  0
 15 16  1  0
 15 14  2  0
 16 17  2  0
 17 12  1  0
  2 18  1  0
  3 19  1  0
  6 20  1  0
  7 21  1  0
  8 22  1  0
 13 23  1  0
 14 24  1  0
 15 25  1  0
 16 26  1  0
 17 27  1  0
M  ISO  8  18  14  19  14  20  14  21  14  22  14  23  14  24  14  25  14
M  ISO  2  26  14  27  14
M  END
>  <minimizedAffinity>  (1) 
-4.39298487

>  <minimizedRMSD>  (1) 
1.52783465

$$$$
