
     RDKit          3D

 25 27  0  0  0  0  0  0  0  0999 V2000
   38.1090   21.8490   34.7080 C   0  0  0  0  0  0  0  0  0  0  0  0
   36.8610   21.4620   34.4330 C   0  0  0  0  0  0  0  0  0  0  0  0
   36.4070   20.9210   33.2910 C   0  0  0  0  0  0  0  0  0  0  0  0
   37.5020   20.8000   32.3370 C   0  0  0  0  0  0  0  0  0  0  0  0
   39.0430   21.4770   33.1960 S   0  0  0  0  0  0  0  0  0  0  0  0
   39.9480   22.7480   37.6810 C   0  0  0  0  0  0  0  0  0  0  0  0
   39.0180   23.4760   38.4350 C   0  0  0  0  0  0  0  0  0  0  0  0
   37.7360   23.6690   37.9250 C   0  0  0  0  0  0  0  0  0  0  0  0
   37.4470   23.1290   36.6930 N   0  0  0  0  0  0  0  0  0  0  0  0
   38.3880   22.4260   35.9940 C   0  0  0  0  0  0  0  0  0  0  0  0
   39.6180   22.2450   36.4900 N   0  0  0  0  0  0  0  0  0  0  0  0
   37.5360   20.2770   30.9580 C   0  0  0  0  0  0  0  0  0  0  0  0
   36.5150   19.5160   30.4460 C   0  0  0  0  0  0  0  0  0  0  0  0
   36.6310   19.0740   29.1600 C   0  0  0  0  0  0  0  0  0  0  0  0
   37.7060   19.3670   28.4070 N   0  0  0  0  0  0  0  0  0  0  0  0
   38.6780   20.1210   28.9720 C   0  0  0  0  0  0  0  0  0  0  0  0
   38.5970   20.5740   30.2360 N   0  0  0  0  0  0  0  0  0  0  0  0
   36.1199   21.6025   35.2337 H   0  0  0  0  0  0  0  0  0  0  0  0
   35.3669   20.6156   33.1040 H   0  0  0  0  0  0  0  0  0  0  0  0
   40.9624   22.5892   38.0757 H   0  0  0  0  0  0  0  0  0  0  0  0
   39.2962   23.8893   39.4157 H   0  0  0  0  0  0  0  0  0  0  0  0
   36.9796   24.2346   38.4889 H   0  0  0  0  0  0  0  0  0  0  0  0
   35.6312   19.2701   31.0529 H   0  0  0  0  0  0  0  0  0  0  0  0
   35.8248   18.4626   28.7285 H   0  0  0  0  0  0  0  0  0  0  0  0
   39.5672   20.3726   28.3753 H   0  0  0  0  0  0  0  0  0  0  0  0
  1 10  1  0
  2  1  2  0
  3  2  1  0
  4  5  1  0
  4  3  2  0
  5  1  1  0
  6  7  2  0
  8  7  1  0
  9  8  2  0
 10 11  2  0
 10  9  1  0
 11  6  1  0
 12  4  1  0
 13 12  2  0
 14 13  1  0
 15 16  1  0
 15 14  2  0
 16 17  2  0
 17 12  1  0
  2 18  1  0
  3 19  1  0
  6 20  1  0
  7 21  1  0
  8 22  1  0
 13 23  1  0
 14 24  1  0
 16 25  1  0
M  ISO  8  18  14  19  14  20  14  21  14  22  14  23  14  24  14  25  14
M  END
>  <minimizedAffinity>  (1) 
-4.19882441

>  <minimizedRMSD>  (1) 
1.54357243

$$$$
