
     RDKit          3D

 31 34  0  0  0  0  0  0  0  0999 V2000
   37.7560   21.8450   35.1790 C   0  0  0  0  0  0  0  0  0  0  0  0
   36.5220   21.2960   35.1210 C   0  0  0  0  0  0  0  0  0  0  0  0
   36.0070   20.6520   34.0300 C   0  0  0  0  0  0  0  0  0  0  0  0
   36.9740   20.6500   32.9630 C   0  0  0  0  0  0  0  0  0  0  0  0
   38.5330   21.5300   33.5320 S   0  0  0  0  0  0  0  0  0  0  0  0
   36.8060   20.0710   31.6520 C   0  0  0  0  0  0  0  0  0  0  0  0
   36.4660   20.6920   30.4900 C   0  0  0  0  0  0  0  0  0  0  0  0
   36.4160   19.8080   29.5060 N   0  0  0  0  0  0  0  0  0  0  0  0
   36.7170   18.5920   29.9720 C   0  0  0  0  0  0  0  0  0  0  0  0
   36.7850   17.3930   29.3060 C   0  0  0  0  0  0  0  0  0  0  0  0
   37.1210   16.2870   30.0370 C   0  0  0  0  0  0  0  0  0  0  0  0
   37.3830   16.3690   31.3950 C   0  0  0  0  0  0  0  0  0  0  0  0
   37.2940   17.6080   31.9970 C   0  0  0  0  0  0  0  0  0  0  0  0
   36.9640   18.7490   31.3260 C   0  0  0  0  0  0  0  0  0  0  0  0
   39.8460   22.9410   37.9140 C   0  0  0  0  0  0  0  0  0  0  0  0
   38.9710   23.7710   38.6570 C   0  0  0  0  0  0  0  0  0  0  0  0
   37.6490   23.9590   38.2170 C   0  0  0  0  0  0  0  0  0  0  0  0
   37.2930   23.3120   37.0760 N   0  0  0  0  0  0  0  0  0  0  0  0
   38.1580   22.5170   36.3780 C   0  0  0  0  0  0  0  0  0  0  0  0
   39.4070   22.3390   36.7940 N   0  0  0  0  0  0  0  0  0  0  0  0
   35.8865   21.3728   36.0156 H   0  0  0  0  0  0  0  0  0  0  0  0
   35.0043   20.2028   33.9757 H   0  0  0  0  0  0  0  0  0  0  0  0
   36.2630   21.7679   30.3841 H   0  0  0  0  0  0  0  0  0  0  0  0
   36.1803   20.0249   28.5271 H   0  0  0  0  0  0  0  0  0  0  0  0
   36.5776   17.3249   28.2279 H   0  0  0  0  0  0  0  0  0  0  0  0
   37.1847   15.3101   29.5353 H   0  0  0  0  0  0  0  0  0  0  0  0
   37.6535   15.4746   31.9754 H   0  0  0  0  0  0  0  0  0  0  0  0
   37.5001   17.6791   33.0752 H   0  0  0  0  0  0  0  0  0  0  0  0
   40.8817   22.7891   38.2520 H   0  0  0  0  0  0  0  0  0  0  0  0
   39.3241   24.2660   39.5737 H   0  0  0  0  0  0  0  0  0  0  0  0
   36.9405   24.5959   38.7669 H   0  0  0  0  0  0  0  0  0  0  0  0
  1 19  1  0
  2  1  2  0
  3  2  1  0
  4  5  1  0
  4  3  2  0
  5  1  1  0
  6  4  1  0
  7  6  2  0
  8  9  1  0
  8  7  1  0
  9 14  2  0
 10  9  1  0
 10 11  2  0
 11 12  1  0
 12 13  2  0
 14  6  1  0
 14 13  1  0
 15 16  2  0
 17 16  1  0
 18 17  2  0
 19 20  2  0
 19 18  1  0
 20 15  1  0
  2 21  1  0
  3 22  1  0
  7 23  1  0
  8 24  1  0
 10 25  1  0
 11 26  1  0
 12 27  1  0
 13 28  1  0
 15 29  1  0
 16 30  1  0
 17 31  1  0
M  ISO  8  21  14  22  14  23  14  24   9  25  14  26  14  27  14  28  14
M  ISO  3  29  14  30  14  31  14
M  END
>  <minimizedAffinity>  (1) 
-4.31871796

>  <minimizedRMSD>  (1) 
1.10653162

$$$$
