
     RDKit          3D

 28 31  0  0  0  0  0  0  0  0999 V2000
   37.6010   21.8910   35.3250 C   0  0  0  0  0  0  0  0  0  0  0  0
   36.4040   21.3050   35.3580 C   0  0  0  0  0  0  0  0  0  0  0  0
   35.7690   20.6300   34.3970 C   0  0  0  0  0  0  0  0  0  0  0  0
   36.6390   20.6160   33.1950 C   0  0  0  0  0  0  0  0  0  0  0  0
   38.2130   21.5690   33.6430 S   0  0  0  0  0  0  0  0  0  0  0  0
   36.6040   20.0970   31.8500 N   0  0  0  0  0  0  0  0  0  0  0  0
   36.4830   20.9130   30.8060 C   0  0  0  0  0  0  0  0  0  0  0  0
   36.4810   20.1330   29.6860 N   0  0  0  0  0  0  0  0  0  0  0  0
   36.6040   18.8580   30.1390 C   0  0  0  0  0  0  0  0  0  0  0  0
   36.6550   17.6680   29.4060 C   0  0  0  0  0  0  0  0  0  0  0  0
   36.7820   16.5080   30.0970 N   0  0  0  0  0  0  0  0  0  0  0  0
   36.8590   16.4890   31.4570 C   0  0  0  0  0  0  0  0  0  0  0  0
   36.8100   17.6460   32.1740 N   0  0  0  0  0  0  0  0  0  0  0  0
   36.6840   18.8210   31.5320 C   0  0  0  0  0  0  0  0  0  0  0  0
   39.8530   22.9380   37.9420 C   0  0  0  0  0  0  0  0  0  0  0  0
   39.0570   23.8090   38.7210 C   0  0  0  0  0  0  0  0  0  0  0  0
   37.7360   24.0490   38.3560 C   0  0  0  0  0  0  0  0  0  0  0  0
   37.2710   23.4120   37.2380 N   0  0  0  0  0  0  0  0  0  0  0  0
   38.0610   22.5750   36.5040 C   0  0  0  0  0  0  0  0  0  0  0  0
   39.3280   22.3490   36.8590 N   0  0  0  0  0  0  0  0  0  0  0  0
   35.8630   21.3896   36.3120 H   0  0  0  0  0  0  0  0  0  0  0  0
   34.7754   20.1657   34.4814 H   0  0  0  0  0  0  0  0  0  0  0  0
   36.4002   22.0094   30.8393 H   0  0  0  0  0  0  0  0  0  0  0  0
   36.5942   17.6728   28.3077 H   0  0  0  0  0  0  0  0  0  0  0  0
   36.9620   15.5280   31.9822 H   0  0  0  0  0  0  0  0  0  0  0  0
   40.8986   22.7448   38.2238 H   0  0  0  0  0  0  0  0  0  0  0  0
   39.4805   24.2951   39.6123 H   0  0  0  0  0  0  0  0  0  0  0  0
   37.0927   24.7224   38.9415 H   0  0  0  0  0  0  0  0  0  0  0  0
  1  2  2  0
  1 19  1  0
  3  2  1  0
  4  5  1  0
  4  3  2  0
  5  1  1  0
  6  4  1  0
  7  6  1  0
  8  9  1  0
  8  7  2  0
  9 14  2  0
 10 11  2  0
 10  9  1  0
 11 12  1  0
 12 13  2  0
 14  6  1  0
 14 13  1  0
 15 16  2  0
 17 16  1  0
 18 17  2  0
 19 20  2  0
 19 18  1  0
 20 15  1  0
  2 21  1  0
  3 22  1  0
  7 23  1  0
 10 24  1  0
 12 25  1  0
 15 26  1  0
 16 27  1  0
 17 28  1  0
M  ISO  8  21  14  22  14  23  14  24  14  25  14  26  14  27  14  28  14
M  END
>  <minimizedAffinity>  (1) 
-4.32431364

>  <minimizedRMSD>  (1) 
0.992422402

$$$$
