
     RDKit          3D

 38 39  0  0  0  0  0  0  0  0999 V2000
   38.1210   23.7350   37.1650 C   0  0  0  0  0  0  0  0  0  0  0  0
   41.4910   22.0420   37.0280 C   0  0  0  0  0  0  0  0  0  0  0  0
   40.1930   22.3130   37.4240 C   0  0  0  0  0  0  0  0  0  0  0  0
   39.4920   23.3720   36.8180 C   0  0  0  0  0  0  0  0  0  0  0  0
   40.1410   24.0910   35.8540 N   0  0  0  0  0  0  0  0  0  0  0  0
   41.4060   23.7960   35.4960 C   0  0  0  0  0  0  0  0  0  0  0  0
   42.0860   22.7940   36.0600 N   0  0  0  0  0  0  0  0  0  0  0  0
   42.1620   20.8980   37.7250 C   0  0  0  0  0  0  0  0  0  0  0  0
   43.0310   20.1210   36.7630 C   0  0  0  0  0  0  0  0  0  0  0  0
   38.1860   24.4920   38.4740 C   0  0  0  0  0  0  0  0  0  0  0  0
   37.4350   24.5640   36.1250 C   0  0  0  0  0  0  0  0  0  0  0  0
   37.3060   22.4780   37.3830 C   0  0  0  0  0  0  0  0  0  0  0  0
   36.8230   21.8530   36.1940 N   0  0  0  0  0  0  0  0  0  0  0  0
   37.6060   22.0800   35.0950 C   0  0  0  0  0  0  0  0  0  0  0  0
   37.2900   21.5540   33.8640 C   0  0  0  0  0  0  0  0  0  0  0  0
   36.1510   20.7890   33.7870 C   0  0  0  0  0  0  0  0  0  0  0  0
   35.8100   20.2800   32.6830 O   0  0  0  0  0  0  0  0  0  0  0  0
   35.3620   20.5540   34.8740 N   0  0  0  0  0  0  0  0  0  0  0  0
   35.7200   21.0960   36.0570 C   0  0  0  0  0  0  0  0  0  0  0  0
   35.0370   20.9190   37.0990 O   0  0  0  0  0  0  0  0  0  0  0  0
   39.7133   21.7058   38.2058 H   0  0  0  0  0  0  0  0  0  0  0  0
   41.8936   24.3986   34.7156 H   0  0  0  0  0  0  0  0  0  0  0  0
   42.7874   21.2892   38.5410 H   0  0  0  0  0  0  0  0  0  0  0  0
   41.3889   20.2255   38.1250 H   0  0  0  0  0  0  0  0  0  0  0  0
   43.7339   19.4925   37.3295 H   0  0  0  0  0  0  0  0  0  0  0  0
   42.3971   19.4830   36.1297 H   0  0  0  0  0  0  0  0  0  0  0  0
   43.5944   20.8220   36.1297 H   0  0  0  0  0  0  0  0  0  0  0  0
   38.1250   23.7817   39.3117 H   0  0  0  0  0  0  0  0  0  0  0  0
   39.1350   25.0454   38.5308 H   0  0  0  0  0  0  0  0  0  0  0  0
   37.3453   25.1991   38.5308 H   0  0  0  0  0  0  0  0  0  0  0  0
   36.8074   25.3224   36.6159 H   0  0  0  0  0  0  0  0  0  0  0  0
   38.1886   25.0621   35.4973 H   0  0  0  0  0  0  0  0  0  0  0  0
   36.8047   23.9169   35.4973 H   0  0  0  0  0  0  0  0  0  0  0  0
   37.9366   21.7519   37.9171 H   0  0  0  0  0  0  0  0  0  0  0  0
   36.4149   22.7864   37.9494 H   0  0  0  0  0  0  0  0  0  0  0  0
   38.5100   22.6981   35.1985 H   0  0  0  0  0  0  0  0  0  0  0  0
   37.9203   21.7373   32.9813 H   0  0  0  0  0  0  0  0  0  0  0  0
   34.5129   19.9765   34.7941 H   0  0  0  0  0  0  0  0  0  0  0  0
  1 12  1  0
  1 10  1  0
  2  3  2  0
  2  8  1  0
  4  1  1  0
  4  3  1  0
  5  4  2  0
  6  5  1  0
  6  7  2  0
  7  2  1  0
  9  8  1  0
 11  1  1  0
 13 12  1  0
 14 13  1  0
 15 14  2  0
 16 15  1  0
 16 18  1  0
 17 16  2  0
 18 19  1  0
 19 13  1  0
 19 20  2  0
  3 21  1  0
  6 22  1  0
  8 23  1  0
  8 24  1  0
  9 25  1  0
  9 26  1  0
  9 27  1  0
 10 28  1  0
 10 29  1  0
 10 30  1  0
 11 31  1  0
 11 32  1  0
 11 33  1  0
 12 34  1  0
 12 35  1  0
 14 36  1  0
 15 37  1  0
 18 38  1  0
M  ISO  8  21  14  22  14  23   8  24   8  25   8  26   8  27   8  28   8
M  ISO  8  29   8  30   8  31   8  32   8  33   8  34   8  35   8  36  14
M  ISO  2  37  14  38   9
M  END
>  <minimizedAffinity>  (1) 
-4.89363861

>  <minimizedRMSD>  (1) 
1.24000657

$$$$
