
     RDKit          3D

 26 28  0  0  0  0  0  0  0  0999 V2000
   38.0970   21.8460   34.7240 C   0  0  0  0  0  0  0  0  0  0  0  0
   36.8520   21.4540   34.4490 C   0  0  0  0  0  0  0  0  0  0  0  0
   36.3950   20.9060   33.3040 C   0  0  0  0  0  0  0  0  0  0  0  0
   37.4920   20.7950   32.3720 C   0  0  0  0  0  0  0  0  0  0  0  0
   39.0340   21.4710   33.2110 S   0  0  0  0  0  0  0  0  0  0  0  0
   39.9320   22.7570   37.6830 C   0  0  0  0  0  0  0  0  0  0  0  0
   39.0160   23.4860   38.4430 C   0  0  0  0  0  0  0  0  0  0  0  0
   37.7370   23.6770   37.9360 C   0  0  0  0  0  0  0  0  0  0  0  0
   37.4180   23.1430   36.7080 N   0  0  0  0  0  0  0  0  0  0  0  0
   38.3600   22.4370   36.0080 C   0  0  0  0  0  0  0  0  0  0  0  0
   39.6110   22.2400   36.4870 N   0  0  0  0  0  0  0  0  0  0  0  0
   37.5240   20.2800   31.0240 C   0  0  0  0  0  0  0  0  0  0  0  0
   36.5250   19.5270   30.4870 C   0  0  0  0  0  0  0  0  0  0  0  0
   36.6200   19.0650   29.1880 C   0  0  0  0  0  0  0  0  0  0  0  0
   37.7320   19.3630   28.4210 C   0  0  0  0  0  0  0  0  0  0  0  0
   38.7220   20.1270   29.0000 C   0  0  0  0  0  0  0  0  0  0  0  0
   38.5910   20.5540   30.2560 N   0  0  0  0  0  0  0  0  0  0  0  0
   36.1109   21.5940   35.2498 H   0  0  0  0  0  0  0  0  0  0  0  0
   35.3575   20.5950   33.1121 H   0  0  0  0  0  0  0  0  0  0  0  0
   40.9475   22.6016   38.0762 H   0  0  0  0  0  0  0  0  0  0  0  0
   39.3006   23.9000   39.4216 H   0  0  0  0  0  0  0  0  0  0  0  0
   36.9897   24.2469   38.5076 H   0  0  0  0  0  0  0  0  0  0  0  0
   35.6375   19.2850   31.0902 H   0  0  0  0  0  0  0  0  0  0  0  0
   35.8078   18.4576   28.7621 H   0  0  0  0  0  0  0  0  0  0  0  0
   37.8228   19.0029   27.3856 H   0  0  0  0  0  0  0  0  0  0  0  0
   39.6229   20.3852   28.4241 H   0  0  0  0  0  0  0  0  0  0  0  0
  1 10  1  0
  2  1  2  0
  3  2  1  0
  4  5  1  0
  4  3  2  0
  5  1  1  0
  6  7  2  0
  8  7  1  0
  9  8  2  0
 10 11  2  0
 10  9  1  0
 11  6  1  0
 12  4  1  0
 13 12  2  0
 14 13  1  0
 15 16  1  0
 15 14  2  0
 16 17  2  0
 17 12  1  0
  2 18  1  0
  3 19  1  0
  6 20  1  0
  7 21  1  0
  8 22  1  0
 13 23  1  0
 14 24  1  0
 15 25  1  0
 16 26  1  0
M  ISO  8  18  14  19  14  20  14  21  14  22  14  23  14  24  14  25  14
M  ISO  1  26  14
M  END
>  <minimizedAffinity>  (1) 
-4.26309538

>  <minimizedRMSD>  (1) 
1.58092523

$$$$
