
     RDKit          3D

 22 24  0  0  0  0  0  0  0  0999 V2000
   37.8160   21.8530   34.9620 C   0  0  0  0  0  0  0  0  0  0  0  0
   36.5810   21.3710   34.8460 C   0  0  0  0  0  0  0  0  0  0  0  0
   35.9980   20.7830   33.7930 C   0  0  0  0  0  0  0  0  0  0  0  0
   37.0040   20.7420   32.6980 C   0  0  0  0  0  0  0  0  0  0  0  0
   38.5800   21.5360   33.3450 S   0  0  0  0  0  0  0  0  0  0  0  0
   39.9160   22.8080   37.7380 C   0  0  0  0  0  0  0  0  0  0  0  0
   39.0500   23.5730   38.5550 C   0  0  0  0  0  0  0  0  0  0  0  0
   37.7210   23.7660   38.1440 C   0  0  0  0  0  0  0  0  0  0  0  0
   37.3400   23.1940   36.9670 N   0  0  0  0  0  0  0  0  0  0  0  0
   38.2040   22.4620   36.2050 C   0  0  0  0  0  0  0  0  0  0  0  0
   39.4660   22.2810   36.5970 N   0  0  0  0  0  0  0  0  0  0  0  0
   37.0420   20.2480   31.3020 C   0  0  0  0  0  0  0  0  0  0  0  0
   37.9360   20.5270   30.3720 N   0  0  0  0  0  0  0  0  0  0  0  0
   37.6380   19.9070   29.2710 O   0  0  0  0  0  0  0  0  0  0  0  0
   36.5490   19.2220   29.4790 C   0  0  0  0  0  0  0  0  0  0  0  0
   36.1310   19.4060   30.7590 N   0  0  0  0  0  0  0  0  0  0  0  0
   35.9497   21.4693   35.7414 H   0  0  0  0  0  0  0  0  0  0  0  0
   34.9673   20.4015   33.7467 H   0  0  0  0  0  0  0  0  0  0  0  0
   40.9605   22.6475   38.0433 H   0  0  0  0  0  0  0  0  0  0  0  0
   39.4122   24.0097   39.4974 H   0  0  0  0  0  0  0  0  0  0  0  0
   37.0155   24.3554   38.7481 H   0  0  0  0  0  0  0  0  0  0  0  0
   36.0449   18.5910   28.7322 H   0  0  0  0  0  0  0  0  0  0  0  0
  1 10  1  0
  2  1  2  0
  3  2  1  0
  4  5  1  0
  4  3  2  0
  5  1  1  0
  6  7  2  0
  8  7  1  0
  9  8  2  0
 10 11  2  0
 10  9  1  0
 11  6  1  0
 12  4  1  0
 13 12  2  0
 14 15  1  0
 14 13  1  0
 15 16  2  0
 16 12  1  0
  2 17  1  0
  3 18  1  0
  6 19  1  0
  7 20  1  0
  8 21  1  0
 15 22  1  0
M  ISO  6  17  14  18  14  19  14  20  14  21  14  22  14
M  END
>  <minimizedAffinity>  (1) 
-4.16140604

>  <minimizedRMSD>  (1) 
0.981684387

$$$$
