
     RDKit          3D

 20 21  0  0  0  0  0  0  0  0999 V2000
   39.9790   22.5990   37.2790 C   0  0  0  0  0  0  0  0  0  0  0  0
   39.3280   23.2410   38.3330 C   0  0  0  0  0  0  0  0  0  0  0  0
   37.9630   23.4610   38.2460 C   0  0  0  0  0  0  0  0  0  0  0  0
   37.2970   23.0340   37.1190 N   0  0  0  0  0  0  0  0  0  0  0  0
   37.9790   22.4100   36.1140 C   0  0  0  0  0  0  0  0  0  0  0  0
   39.3170   22.1920   36.1920 N   0  0  0  0  0  0  0  0  0  0  0  0
   37.3440   21.9470   34.9260 C   0  0  0  0  0  0  0  0  0  0  0  0
   36.3220   21.1010   35.0250 C   0  0  0  0  0  0  0  0  0  0  0  0
   35.5770   20.5450   34.0620 C   0  0  0  0  0  0  0  0  0  0  0  0
   36.0730   21.0300   32.7590 C   0  0  0  0  0  0  0  0  0  0  0  0
   37.5170   22.1960   33.1170 S   0  0  0  0  0  0  0  0  0  0  0  0
   35.8100   20.9030   31.2790 C   0  0  0  0  0  0  0  0  0  0  0  0
   41.0630   22.4238   37.3445 H   0  0  0  0  0  0  0  0  0  0  0  0
   39.8904   23.5677   39.2201 H   0  0  0  0  0  0  0  0  0  0  0  0
   37.4226   23.9662   39.0601 H   0  0  0  0  0  0  0  0  0  0  0  0
   36.0484   20.8159   36.0516 H   0  0  0  0  0  0  0  0  0  0  0  0
   34.7402   19.8476   34.2150 H   0  0  0  0  0  0  0  0  0  0  0  0
   34.8298   20.4297   31.1201 H   0  0  0  0  0  0  0  0  0  0  0  0
   35.8136   21.9021   30.8189 H   0  0  0  0  0  0  0  0  0  0  0  0
   36.5947   20.2846   30.8189 H   0  0  0  0  0  0  0  0  0  0  0  0
  1  2  2  0
  3  2  1  0
  4  3  2  0
  5  6  2  0
  5  4  1  0
  6  1  1  0
  7  8  2  0
  7  5  1  0
  9  8  1  0
 10 11  1  0
 10  9  2  0
 11  7  1  0
 12 10  1  0
  1 13  1  0
  2 14  1  0
  3 15  1  0
  8 16  1  0
  9 17  1  0
 12 18  1  0
 12 19  1  0
 12 20  1  0
M  ISO  8  13  14  14  14  15  14  16  14  17  14  18   8  19   8  20   8
M  END
>  <minimizedAffinity>  (1) 
-4.02986574

>  <minimizedRMSD>  (1) 
0.185282111

$$$$
