
     RDKit          3D

 23 25  0  0  0  0  0  0  0  0999 V2000
   37.9150   21.8390   34.8520 C   0  0  0  0  0  0  0  0  0  0  0  0
   36.6740   21.3860   34.6710 C   0  0  0  0  0  0  0  0  0  0  0  0
   36.1750   20.7970   33.5650 C   0  0  0  0  0  0  0  0  0  0  0  0
   37.2050   20.7100   32.5480 C   0  0  0  0  0  0  0  0  0  0  0  0
   38.7630   21.4740   33.2700 S   0  0  0  0  0  0  0  0  0  0  0  0
   39.9410   22.7900   37.6790 C   0  0  0  0  0  0  0  0  0  0  0  0
   39.0440   23.5390   38.4790 C   0  0  0  0  0  0  0  0  0  0  0  0
   37.7220   23.7260   38.0430 C   0  0  0  0  0  0  0  0  0  0  0  0
   37.3740   23.1630   36.8510 N   0  0  0  0  0  0  0  0  0  0  0  0
   38.2640   22.4480   36.1070 C   0  0  0  0  0  0  0  0  0  0  0  0
   39.5190   22.2700   36.5190 N   0  0  0  0  0  0  0  0  0  0  0  0
   37.2010   20.1700   31.1860 C   0  0  0  0  0  0  0  0  0  0  0  0
   36.1680   19.3610   30.7260 C   0  0  0  0  0  0  0  0  0  0  0  0
   36.7550   19.0200   28.9580 S   0  0  0  0  0  0  0  0  0  0  0  0
   38.2940   20.0810   29.2690 C   0  0  0  0  0  0  0  0  0  0  0  0
   38.1550   20.4140   30.3270 N   0  0  0  0  0  0  0  0  0  0  0  0
   35.9810   21.5059   35.5168 H   0  0  0  0  0  0  0  0  0  0  0  0
   35.1419   20.4367   33.4515 H   0  0  0  0  0  0  0  0  0  0  0  0
   40.9791   22.6360   38.0086 H   0  0  0  0  0  0  0  0  0  0  0  0
   39.3797   23.9705   39.4335 H   0  0  0  0  0  0  0  0  0  0  0  0
   36.9981   24.3022   38.6380 H   0  0  0  0  0  0  0  0  0  0  0  0
   35.2617   19.0152   31.2448 H   0  0  0  0  0  0  0  0  0  0  0  0
   39.1194   20.3119   28.5795 H   0  0  0  0  0  0  0  0  0  0  0  0
  1 10  1  0
  2  1  2  0
  3  2  1  0
  4  5  1  0
  4  3  2  0
  5  1  1  0
  6  7  2  0
  8  7  1  0
  9  8  2  0
 10 11  2  0
 10  9  1  0
 11  6  1  0
 12  4  1  0
 13 12  2  0
 14 15  1  0
 14 13  1  0
 15 16  2  0
 16 12  1  0
  2 17  1  0
  3 18  1  0
  6 19  1  0
  7 20  1  0
  8 21  1  0
 13 22  1  0
 15 23  1  0
M  ISO  7  17  14  18  14  19  14  20  14  21  14  22  14  23  14
M  END
>  <minimizedAffinity>  (1) 
-4.03627443

>  <minimizedRMSD>  (1) 
1.16310835

$$$$
