
     RDKit          3D

 24 26  0  0  0  0  0  0  0  0999 V2000
   37.8800   21.8900   35.0000 C   0  0  0  0  0  0  0  0  0  0  0  0
   36.6470   21.4040   34.8510 C   0  0  0  0  0  0  0  0  0  0  0  0
   36.1180   20.8140   33.7690 C   0  0  0  0  0  0  0  0  0  0  0  0
   37.1160   20.7620   32.7100 C   0  0  0  0  0  0  0  0  0  0  0  0
   38.6810   21.5660   33.4010 S   0  0  0  0  0  0  0  0  0  0  0  0
   39.9180   22.8400   37.8220 C   0  0  0  0  0  0  0  0  0  0  0  0
   39.0430   23.6100   38.6140 C   0  0  0  0  0  0  0  0  0  0  0  0
   37.7230   23.8100   38.1750 C   0  0  0  0  0  0  0  0  0  0  0  0
   37.3550   23.2400   36.9880 N   0  0  0  0  0  0  0  0  0  0  0  0
   38.2370   22.5020   36.2520 C   0  0  0  0  0  0  0  0  0  0  0  0
   39.4880   22.3120   36.6690 N   0  0  0  0  0  0  0  0  0  0  0  0
   37.1170   20.2400   31.3240 C   0  0  0  0  0  0  0  0  0  0  0  0
   36.1300   19.5340   30.7530 C   0  0  0  0  0  0  0  0  0  0  0  0
   36.6010   19.2880   29.4790 C   0  0  0  0  0  0  0  0  0  0  0  0
   37.8460   19.8710   29.3800 C   0  0  0  0  0  0  0  0  0  0  0  0
   38.1080   20.4340   30.5310 O   0  0  0  0  0  0  0  0  0  0  0  0
   35.9824   21.4987   35.7224 H   0  0  0  0  0  0  0  0  0  0  0  0
   35.0902   20.4293   33.6934 H   0  0  0  0  0  0  0  0  0  0  0  0
   40.9542   22.6727   38.1509 H   0  0  0  0  0  0  0  0  0  0  0  0
   39.3881   24.0482   39.5621 H   0  0  0  0  0  0  0  0  0  0  0  0
   37.0106   24.4045   38.7659 H   0  0  0  0  0  0  0  0  0  0  0  0
   35.1717   19.2242   31.1953 H   0  0  0  0  0  0  0  0  0  0  0  0
   36.0788   18.7294   28.6882 H   0  0  0  0  0  0  0  0  0  0  0  0
   38.4994   19.8640   28.4951 H   0  0  0  0  0  0  0  0  0  0  0  0
  1 10  1  0
  2  1  2  0
  3  2  1  0
  4  5  1  0
  4  3  2  0
  5  1  1  0
  6  7  2  0
  8  7  1  0
  9  8  2  0
 10 11  2  0
 10  9  1  0
 11  6  1  0
 12  4  1  0
 13 12  2  0
 14 13  1  0
 15 14  2  0
 15 16  1  0
 16 12  1  0
  2 17  1  0
  3 18  1  0
  6 19  1  0
  7 20  1  0
  8 21  1  0
 13 22  1  0
 14 23  1  0
 15 24  1  0
M  ISO  8  17  14  18  14  19  14  20  14  21  14  22  14  23  14  24  14
M  END
>  <minimizedAffinity>  (1) 
-4.17301989

>  <minimizedRMSD>  (1) 
1.32344961

$$$$
