
     RDKit          3D

 24 26  0  0  0  0  0  0  0  0999 V2000
   37.9320   21.8210   34.7940 C   0  0  0  0  0  0  0  0  0  0  0  0
   36.6830   21.4000   34.5900 C   0  0  0  0  0  0  0  0  0  0  0  0
   36.1670   20.8260   33.4840 C   0  0  0  0  0  0  0  0  0  0  0  0
   37.2250   20.7180   32.4750 C   0  0  0  0  0  0  0  0  0  0  0  0
   38.7870   21.4350   33.2180 S   0  0  0  0  0  0  0  0  0  0  0  0
   39.9440   22.7620   37.6290 C   0  0  0  0  0  0  0  0  0  0  0  0
   39.0380   23.5030   38.4260 C   0  0  0  0  0  0  0  0  0  0  0  0
   37.7170   23.6860   37.9870 C   0  0  0  0  0  0  0  0  0  0  0  0
   37.3800   23.1260   36.7920 N   0  0  0  0  0  0  0  0  0  0  0  0
   38.2770   22.4180   36.0460 C   0  0  0  0  0  0  0  0  0  0  0  0
   39.5300   22.2480   36.4700 N   0  0  0  0  0  0  0  0  0  0  0  0
   37.3190   20.2210   31.1420 C   0  0  0  0  0  0  0  0  0  0  0  0
   36.3980   19.5020   30.4640 C   0  0  0  0  0  0  0  0  0  0  0  0
   36.6310   19.0930   29.1850 C   0  0  0  0  0  0  0  0  0  0  0  0
   37.8710   19.4590   28.6200 C   0  0  0  0  0  0  0  0  0  0  0  0
   38.6870   20.3970   29.9590 S   0  0  0  0  0  0  0  0  0  0  0  0
   35.9859   21.5384   35.4296 H   0  0  0  0  0  0  0  0  0  0  0  0
   35.1256   20.4941   33.3597 H   0  0  0  0  0  0  0  0  0  0  0  0
   40.9812   22.6115   37.9631 H   0  0  0  0  0  0  0  0  0  0  0  0
   39.3673   23.9328   39.3835 H   0  0  0  0  0  0  0  0  0  0  0  0
   36.9874   24.2557   38.5811 H   0  0  0  0  0  0  0  0  0  0  0  0
   35.4464   19.2429   30.9512 H   0  0  0  0  0  0  0  0  0  0  0  0
   35.8898   18.5071   28.6216 H   0  0  0  0  0  0  0  0  0  0  0  0
   38.2547   19.2336   27.6140 H   0  0  0  0  0  0  0  0  0  0  0  0
  1 10  1  0
  2  1  2  0
  3  2  1  0
  4  5  1  0
  4  3  2  0
  5  1  1  0
  6  7  2  0
  8  7  1  0
  9  8  2  0
 10 11  2  0
 10  9  1  0
 11  6  1  0
 12  4  1  0
 13 12  2  0
 14 13  1  0
 15 14  2  0
 15 16  1  0
 16 12  1  0
  2 17  1  0
  3 18  1  0
  6 19  1  0
  7 20  1  0
  8 21  1  0
 13 22  1  0
 14 23  1  0
 15 24  1  0
M  ISO  8  17  14  18  14  19  14  20  14  21  14  22  14  23  14  24  14
M  END
>  <minimizedAffinity>  (1) 
-4.17775965

>  <minimizedRMSD>  (1) 
1.29746997

$$$$
