
     RDKit          3D

 24 26  0  0  0  0  0  0  0  0999 V2000
   37.8090   21.8660   34.9690 C   0  0  0  0  0  0  0  0  0  0  0  0
   36.5710   21.3800   34.8570 C   0  0  0  0  0  0  0  0  0  0  0  0
   35.9910   20.7750   33.8100 C   0  0  0  0  0  0  0  0  0  0  0  0
   36.9910   20.7180   32.7130 C   0  0  0  0  0  0  0  0  0  0  0  0
   38.5770   21.5300   33.3550 S   0  0  0  0  0  0  0  0  0  0  0  0
   39.9050   22.8100   37.7470 C   0  0  0  0  0  0  0  0  0  0  0  0
   39.0490   23.5690   38.5570 C   0  0  0  0  0  0  0  0  0  0  0  0
   37.7400   23.7720   38.1610 C   0  0  0  0  0  0  0  0  0  0  0  0
   37.3350   23.2140   36.9790 N   0  0  0  0  0  0  0  0  0  0  0  0
   38.1890   22.4800   36.2120 C   0  0  0  0  0  0  0  0  0  0  0  0
   39.4730   22.2750   36.5900 N   0  0  0  0  0  0  0  0  0  0  0  0
   37.0620   20.2290   31.3570 N   0  0  0  0  0  0  0  0  0  0  0  0
   38.0880   20.4640   30.5380 N   0  0  0  0  0  0  0  0  0  0  0  0
   37.8550   19.8680   29.3340 C   0  0  0  0  0  0  0  0  0  0  0  0
   36.6190   19.2730   29.5180 C   0  0  0  0  0  0  0  0  0  0  0  0
   36.1190   19.4970   30.7870 C   0  0  0  0  0  0  0  0  0  0  0  0
   35.9371   21.4914   35.7491 H   0  0  0  0  0  0  0  0  0  0  0  0
   34.9611   20.3905   33.7707 H   0  0  0  0  0  0  0  0  0  0  0  0
   40.9466   22.6490   38.0620 H   0  0  0  0  0  0  0  0  0  0  0  0
   39.4159   23.9997   39.5003 H   0  0  0  0  0  0  0  0  0  0  0  0
   37.0461   24.3633   38.7766 H   0  0  0  0  0  0  0  0  0  0  0  0
   38.4923   19.8616   28.4374 H   0  0  0  0  0  0  0  0  0  0  0  0
   36.0961   18.6904   28.7453 H   0  0  0  0  0  0  0  0  0  0  0  0
   35.1681   19.1507   31.2181 H   0  0  0  0  0  0  0  0  0  0  0  0
  1 10  1  0
  2  1  2  0
  3  2  1  0
  4  5  1  0
  4  3  2  0
  5  1  1  0
  6  7  2  0
  8  7  1  0
  9  8  2  0
 10 11  2  0
 10  9  1  0
 11  6  1  0
 12  4  1  0
 13 12  1  0
 14 15  1  0
 14 13  2  0
 15 16  2  0
 16 12  1  0
  2 17  1  0
  3 18  1  0
  6 19  1  0
  7 20  1  0
  8 21  1  0
 14 22  1  0
 15 23  1  0
 16 24  1  0
M  ISO  8  17  14  18  14  19  14  20  14  21  14  22  14  23  14  24  14
M  END
>  <minimizedAffinity>  (1) 
-4.18673134

>  <minimizedRMSD>  (1) 
1.16937208

$$$$
