
     RDKit          3D

 23 25  0  0  0  0  0  0  0  0999 V2000
   37.8940   21.8060   34.8120 C   0  0  0  0  0  0  0  0  0  0  0  0
   36.6460   21.3680   34.6420 C   0  0  0  0  0  0  0  0  0  0  0  0
   36.0870   20.8020   33.5720 C   0  0  0  0  0  0  0  0  0  0  0  0
   37.1140   20.7120   32.5070 C   0  0  0  0  0  0  0  0  0  0  0  0
   38.7050   21.4550   33.2180 S   0  0  0  0  0  0  0  0  0  0  0  0
   39.9390   22.7650   37.6300 C   0  0  0  0  0  0  0  0  0  0  0  0
   39.0390   23.5060   38.4330 C   0  0  0  0  0  0  0  0  0  0  0  0
   37.7180   23.6840   38.0150 C   0  0  0  0  0  0  0  0  0  0  0  0
   37.3620   23.1150   36.8210 N   0  0  0  0  0  0  0  0  0  0  0  0
   38.2530   22.4050   36.0680 C   0  0  0  0  0  0  0  0  0  0  0  0
   39.5100   22.2400   36.4720 N   0  0  0  0  0  0  0  0  0  0  0  0
   37.1790   20.2300   31.1620 N   0  0  0  0  0  0  0  0  0  0  0  0
   38.0980   20.4440   30.2120 C   0  0  0  0  0  0  0  0  0  0  0  0
   37.7170   19.7760   29.1110 N   0  0  0  0  0  0  0  0  0  0  0  0
   36.5680   19.1430   29.3640 C   0  0  0  0  0  0  0  0  0  0  0  0
   36.2470   19.4370   30.6490 N   0  0  0  0  0  0  0  0  0  0  0  0
   35.9817   21.4915   35.5100 H   0  0  0  0  0  0  0  0  0  0  0  0
   35.0442   20.4609   33.4932 H   0  0  0  0  0  0  0  0  0  0  0  0
   40.9808   22.6208   37.9524 H   0  0  0  0  0  0  0  0  0  0  0  0
   39.3792   23.9408   39.3844 H   0  0  0  0  0  0  0  0  0  0  0  0
   36.9964   24.2552   38.6174 H   0  0  0  0  0  0  0  0  0  0  0  0
   39.0047   21.0583   30.3151 H   0  0  0  0  0  0  0  0  0  0  0  0
   35.9965   18.5100   28.6693 H   0  0  0  0  0  0  0  0  0  0  0  0
  1 10  1  0
  2  1  2  0
  3  2  1  0
  4  5  1  0
  4  3  2  0
  5  1  1  0
  6  7  2  0
  8  7  1  0
  9  8  2  0
 10 11  2  0
 10  9  1  0
 11  6  1  0
 12  4  1  0
 13 12  1  0
 14 15  1  0
 14 13  2  0
 15 16  2  0
 16 12  1  0
  2 17  1  0
  3 18  1  0
  6 19  1  0
  7 20  1  0
  8 21  1  0
 13 22  1  0
 15 23  1  0
M  ISO  7  17  14  18  14  19  14  20  14  21  14  22  14  23  14
M  END
>  <minimizedAffinity>  (1) 
-4.09759378

>  <minimizedRMSD>  (1) 
1.1111455

$$$$
