
     RDKit          3D

 19 20  0  0  0  0  0  0  0  0999 V2000
   37.3620   21.8950   34.9890 C   0  0  0  0  0  0  0  0  0  0  0  0
   36.3070   21.0920   35.1080 C   0  0  0  0  0  0  0  0  0  0  0  0
   35.5690   20.5260   34.1450 C   0  0  0  0  0  0  0  0  0  0  0  0
   36.1220   20.9400   32.8290 C   0  0  0  0  0  0  0  0  0  0  0  0
   37.6020   22.0690   33.1870 S   0  0  0  0  0  0  0  0  0  0  0  0
   39.9790   22.6370   37.3540 C   0  0  0  0  0  0  0  0  0  0  0  0
   39.3190   23.3060   38.3830 C   0  0  0  0  0  0  0  0  0  0  0  0
   37.9320   23.5180   38.2790 C   0  0  0  0  0  0  0  0  0  0  0  0
   37.2930   23.0470   37.1560 N   0  0  0  0  0  0  0  0  0  0  0  0
   37.9890   22.3960   36.1760 C   0  0  0  0  0  0  0  0  0  0  0  0
   39.3140   22.1940   36.2750 N   0  0  0  0  0  0  0  0  0  0  0  0
   35.8400   20.7180   31.4530 N   0  0  0  0  0  0  0  0  0  0  0  0
   35.9994   20.8620   36.1388 H   0  0  0  0  0  0  0  0  0  0  0  0
   34.7019   19.8674   34.3010 H   0  0  0  0  0  0  0  0  0  0  0  0
   41.0636   22.4689   37.4270 H   0  0  0  0  0  0  0  0  0  0  0  0
   39.8740   23.6629   39.2631 H   0  0  0  0  0  0  0  0  0  0  0  0
   37.3768   24.0433   39.0701 H   0  0  0  0  0  0  0  0  0  0  0  0
   35.0506   20.1154   31.1798 H   0  0  0  0  0  0  0  0  0  0  0  0
   36.4251   21.1598   30.7296 H   0  0  0  0  0  0  0  0  0  0  0  0
  1  2  2  0
  1 10  1  0
  3  2  1  0
  4  5  1  0
  4  3  2  0
  5  1  1  0
  6  7  2  0
  8  7  1  0
  9  8  2  0
 10 11  2  0
 10  9  1  0
 11  6  1  0
 12  4  1  0
  2 13  1  0
  3 14  1  0
  6 15  1  0
  7 16  1  0
  8 17  1  0
 12 18  1  0
 12 19  1  0
M  ISO  5  13  14  14  14  15  14  16  14  17  14
M  END
>  <minimizedAffinity>  (1) 
-3.89467525

>  <minimizedRMSD>  (1) 
0.084780246

$$$$
