
     RDKit          3D

 44 48  0  0  0  0  0  0  0  0999 V2000
   38.4280   21.1510   30.6480 N   0  0  0  0  0  0  0  0  0  0  0  0
   38.8600   22.2190   29.7530 C   0  0  0  0  0  0  0  0  0  0  0  0
   39.8520   21.5420   28.8520 C   0  0  0  0  0  0  0  0  0  0  0  0
   39.0870   20.6620   28.0850 O   0  0  0  0  0  0  0  0  0  0  0  0
   38.6400   19.5660   28.8240 C   0  0  0  0  0  0  0  0  0  0  0  0
   38.2700   19.7690   30.2520 C   0  0  0  0  0  0  0  0  0  0  0  0
   37.8200   18.6090   30.9790 C   0  0  0  0  0  0  0  0  0  0  0  0
   36.4660   18.2400   31.0770 C   0  0  0  0  0  0  0  0  0  0  0  0
   35.9620   17.1250   31.7060 C   0  0  0  0  0  0  0  0  0  0  0  0
   36.8560   16.2800   32.3000 C   0  0  0  0  0  0  0  0  0  0  0  0
   38.2060   16.5680   32.2490 C   0  0  0  0  0  0  0  0  0  0  0  0
   39.0200   15.6320   32.8420 C   0  0  0  0  0  0  0  0  0  0  0  0
   40.3880   15.8100   32.8000 C   0  0  0  0  0  0  0  0  0  0  0  0
   40.8560   16.9540   32.1400 C   0  0  0  0  0  0  0  0  0  0  0  0
   39.9840   17.8320   31.5780 C   0  0  0  0  0  0  0  0  0  0  0  0
   38.6170   17.7030   31.5970 C   0  0  0  0  0  0  0  0  0  0  0  0
   38.4150   22.1590   34.5750 C   0  0  0  0  0  0  0  0  0  0  0  0
   37.2540   21.6810   34.1530 C   0  0  0  0  0  0  0  0  0  0  0  0
   36.9360   21.2760   32.9320 C   0  0  0  0  0  0  0  0  0  0  0  0
   38.1080   21.4280   32.0540 C   0  0  0  0  0  0  0  0  0  0  0  0
   39.4840   22.1360   33.1040 S   0  0  0  0  0  0  0  0  0  0  0  0
   39.9690   22.7260   37.7830 C   0  0  0  0  0  0  0  0  0  0  0  0
   38.9310   23.2350   38.5620 C   0  0  0  0  0  0  0  0  0  0  0  0
   37.6900   23.3970   38.0100 C   0  0  0  0  0  0  0  0  0  0  0  0
   37.5280   23.0440   36.6990 N   0  0  0  0  0  0  0  0  0  0  0  0
   38.5520   22.5490   35.9580 C   0  0  0  0  0  0  0  0  0  0  0  0
   39.7630   22.3930   36.4980 N   0  0  0  0  0  0  0  0  0  0  0  0
   38.0116   22.6156   29.1760 H   0  0  0  0  0  0  0  0  0  0  0  0
   39.2859   23.0804   30.2884 H   0  0  0  0  0  0  0  0  0  0  0  0
   40.3585   22.2775   28.2097 H   0  0  0  0  0  0  0  0  0  0  0  0
   40.6428   21.0252   29.4155 H   0  0  0  0  0  0  0  0  0  0  0  0
   38.5625   18.5714   28.3607 H   0  0  0  0  0  0  0  0  0  0  0  0
   35.7356   18.9116   30.6022 H   0  0  0  0  0  0  0  0  0  0  0  0
   34.8812   16.9219   31.7297 H   0  0  0  0  0  0  0  0  0  0  0  0
   36.5027   15.3751   32.8161 H   0  0  0  0  0  0  0  0  0  0  0  0
   38.5870   14.7536   33.3429 H   0  0  0  0  0  0  0  0  0  0  0  0
   41.0777   15.0885   33.2624 H   0  0  0  0  0  0  0  0  0  0  0  0
   41.9378   17.1430   32.0762 H   0  0  0  0  0  0  0  0  0  0  0  0
   40.4049   18.7121   31.0697 H   0  0  0  0  0  0  0  0  0  0  0  0
   36.4569   21.6118   34.9079 H   0  0  0  0  0  0  0  0  0  0  0  0
   35.9538   20.8884   32.6238 H   0  0  0  0  0  0  0  0  0  0  0  0
   40.9676   22.5956   38.2254 H   0  0  0  0  0  0  0  0  0  0  0  0
   39.1087   23.5046   39.6135 H   0  0  0  0  0  0  0  0  0  0  0  0
   36.8521   23.7971   38.5998 H   0  0  0  0  0  0  0  0  0  0  0  0
  1 20  1  0
  2  1  1  0
  3  2  1  0
  4  5  1  0
  4  3  1  0
  5  6  2  0
  6  1  1  0
  6  7  1  0
  7  8  2  0
  7 16  1  0
  8  9  1  0
  9 10  2  0
 11 10  1  0
 11 12  2  0
 13 12  1  0
 14 13  2  0
 15 16  2  0
 15 14  1  0
 16 11  1  0
 17 26  1  0
 18 17  2  0
 19 18  1  0
 20 19  2  0
 20 21  1  0
 21 17  1  0
 22 23  2  0
 24 23  1  0
 25 24  2  0
 26 27  2  0
 26 25  1  0
 27 22  1  0
  2 28  1  0
  2 29  1  0
  3 30  1  0
  3 31  1  0
  5 32  1  0
  8 33  1  0
  9 34  1  0
 10 35  1  0
 12 36  1  0
 13 37  1  0
 14 38  1  0
 15 39  1  0
 18 40  1  0
 19 41  1  0
 22 42  1  0
 23 43  1  0
 24 44  1  0
M  ISO  8  28  13  29  13  30  13  31  13  32  13  33  14  34  14  35  14
M  ISO  8  36  14  37  14  38  14  39  14  40  14  41  14  42  14  43  14
M  ISO  1  44  14
M  END
>  <minimizedAffinity>  (1) 
-4.95397758

>  <minimizedRMSD>  (1) 
3.06025934

$$$$
