
     RDKit          3D

 42 46  0  0  0  0  0  0  0  0999 V2000
   37.9900   20.7280   31.0830 N   0  0  0  0  0  0  0  0  0  0  0  0
   38.7860   21.5520   30.1490 C   0  0  0  0  0  0  0  0  0  0  0  0
   39.4600   20.5290   29.3030 C   0  0  0  0  0  0  0  0  0  0  0  0
   38.4130   19.9990   28.5250 O   0  0  0  0  0  0  0  0  0  0  0  0
   37.6280   19.1380   29.3020 C   0  0  0  0  0  0  0  0  0  0  0  0
   37.3710   19.4790   30.7470 C   0  0  0  0  0  0  0  0  0  0  0  0
   36.5930   18.5290   31.4190 C   0  0  0  0  0  0  0  0  0  0  0  0
   35.2360   18.7220   31.6200 C   0  0  0  0  0  0  0  0  0  0  0  0
   34.6520   17.6560   32.1760 N   0  0  0  0  0  0  0  0  0  0  0  0
   35.5720   16.6980   32.3770 C   0  0  0  0  0  0  0  0  0  0  0  0
   35.4740   15.4190   32.8800 C   0  0  0  0  0  0  0  0  0  0  0  0
   36.5940   14.6150   32.9270 C   0  0  0  0  0  0  0  0  0  0  0  0
   37.7810   15.1400   32.4600 C   0  0  0  0  0  0  0  0  0  0  0  0
   37.8260   16.4150   31.9710 C   0  0  0  0  0  0  0  0  0  0  0  0
   36.7400   17.2530   31.9070 C   0  0  0  0  0  0  0  0  0  0  0  0
   38.2590   22.1000   34.8900 C   0  0  0  0  0  0  0  0  0  0  0  0
   37.0300   21.7580   34.5390 C   0  0  0  0  0  0  0  0  0  0  0  0
   36.6050   21.2880   33.3760 C   0  0  0  0  0  0  0  0  0  0  0  0
   37.7510   21.1820   32.4580 C   0  0  0  0  0  0  0  0  0  0  0  0
   39.2480   21.7780   33.4010 S   0  0  0  0  0  0  0  0  0  0  0  0
   40.0110   22.8030   37.9570 C   0  0  0  0  0  0  0  0  0  0  0  0
   39.0720   23.4660   38.7360 C   0  0  0  0  0  0  0  0  0  0  0  0
   37.8190   23.6890   38.2270 C   0  0  0  0  0  0  0  0  0  0  0  0
   37.5610   23.2390   36.9600 N   0  0  0  0  0  0  0  0  0  0  0  0
   38.4940   22.5950   36.2180 C   0  0  0  0  0  0  0  0  0  0  0  0
   39.7140   22.3790   36.7180 N   0  0  0  0  0  0  0  0  0  0  0  0
   38.1383   22.2031   29.5436 H   0  0  0  0  0  0  0  0  0  0  0  0
   39.4879   22.2310   30.6553 H   0  0  0  0  0  0  0  0  0  0  0  0
   40.2279   20.9911   28.6652 H   0  0  0  0  0  0  0  0  0  0  0  0
   39.9824   19.7627   29.8945 H   0  0  0  0  0  0  0  0  0  0  0  0
   37.2039   18.2232   28.8624 H   0  0  0  0  0  0  0  0  0  0  0  0
   34.7012   19.6454   31.3530 H   0  0  0  0  0  0  0  0  0  0  0  0
   33.6525   17.5808   32.4133 H   0  0  0  0  0  0  0  0  0  0  0  0
   34.5068   15.0406   33.2425 H   0  0  0  0  0  0  0  0  0  0  0  0
   36.5423   13.5902   33.3234 H   0  0  0  0  0  0  0  0  0  0  0  0
   38.6957   14.5293   32.4814 H   0  0  0  0  0  0  0  0  0  0  0  0
   38.7921   16.7937   31.6059 H   0  0  0  0  0  0  0  0  0  0  0  0
   36.2601   21.8801   35.3151 H   0  0  0  0  0  0  0  0  0  0  0  0
   35.5655   21.0205   33.1353 H   0  0  0  0  0  0  0  0  0  0  0  0
   41.0173   22.6217   38.3626 H   0  0  0  0  0  0  0  0  0  0  0  0
   39.3305   23.8080   39.7490 H   0  0  0  0  0  0  0  0  0  0  0  0
   37.0491   24.2103   38.8148 H   0  0  0  0  0  0  0  0  0  0  0  0
  1 19  1  0
  2  1  1  0
  3  2  1  0
  4  5  1  0
  4  3  1  0
  5  6  2  0
  6  1  1  0
  6  7  1  0
  7  8  2  0
  7 15  1  0
  8  9  1  0
  9 10  1  0
 10 11  2  0
 11 12  1  0
 13 12  2  0
 14 13  1  0
 15 14  2  0
 15 10  1  0
 16 25  1  0
 17 16  2  0
 18 17  1  0
 19 18  2  0
 19 20  1  0
 20 16  1  0
 21 22  2  0
 23 22  1  0
 24 23  2  0
 25 26  2  0
 25 24  1  0
 26 21  1  0
  2 27  1  0
  2 28  1  0
  3 29  1  0
  3 30  1  0
  5 31  1  0
  8 32  1  0
  9 33  1  0
 11 34  1  0
 12 35  1  0
 13 36  1  0
 14 37  1  0
 17 38  1  0
 18 39  1  0
 21 40  1  0
 22 41  1  0
 23 42  1  0
M  ISO  8  27  13  28  13  29  13  30  13  31  13  32  14  33   9  34  14
M  ISO  8  35  14  36  14  37  14  38  14  39  14  40  14  41  14  42  14
M  END
>  <minimizedAffinity>  (1) 
-5.79138279

>  <minimizedRMSD>  (1) 
0.967390776

$$$$
