
     RDKit          3D

 35 37  0  0  0  0  0  0  0  0999 V2000
   37.3360   20.4660   30.9990 N   0  0  0  0  0  0  0  0  0  0  0  0
   38.2600   21.0510   30.0510 C   0  0  0  0  0  0  0  0  0  0  0  0
   38.7660   19.8610   29.2580 C   0  0  0  0  0  0  0  0  0  0  0  0
   37.6930   19.4010   28.5340 O   0  0  0  0  0  0  0  0  0  0  0  0
   36.6690   18.8510   29.2870 C   0  0  0  0  0  0  0  0  0  0  0  0
   36.4520   19.4110   30.6380 C   0  0  0  0  0  0  0  0  0  0  0  0
   35.4150   18.8230   31.3940 N   0  0  0  0  0  0  0  0  0  0  0  0
   35.7710   17.6720   32.1580 C   0  0  0  0  0  0  0  0  0  0  0  0
   36.9350   17.1350   32.0420 N   0  0  0  0  0  0  0  0  0  0  0  0
   34.7900   17.1510   33.0470 N   0  0  0  0  0  0  0  0  0  0  0  0
   37.1480   16.3040   32.6150 H   0  0  0  0  0  0  0  0  0  0  0  0
   37.9140   21.8910   34.7410 C   0  0  0  0  0  0  0  0  0  0  0  0
   36.6490   21.4930   34.5350 C   0  0  0  0  0  0  0  0  0  0  0  0
   36.1990   20.9960   33.4330 C   0  0  0  0  0  0  0  0  0  0  0  0
   37.2300   20.9040   32.3900 C   0  0  0  0  0  0  0  0  0  0  0  0
   38.7710   21.5740   33.1760 S   0  0  0  0  0  0  0  0  0  0  0  0
   39.9680   22.6990   37.5950 C   0  0  0  0  0  0  0  0  0  0  0  0
   39.0570   23.3270   38.4780 C   0  0  0  0  0  0  0  0  0  0  0  0
   37.7450   23.4860   38.1080 C   0  0  0  0  0  0  0  0  0  0  0  0
   37.3840   23.0140   36.8710 N   0  0  0  0  0  0  0  0  0  0  0  0
   38.2780   22.4140   36.0430 C   0  0  0  0  0  0  0  0  0  0  0  0
   39.5700   22.2500   36.3880 N   0  0  0  0  0  0  0  0  0  0  0  0
   37.7462   21.7692   29.3951 H   0  0  0  0  0  0  0  0  0  0  0  0
   39.0702   21.6134   30.5381 H   0  0  0  0  0  0  0  0  0  0  0  0
   39.5779   20.1695   28.5829 H   0  0  0  0  0  0  0  0  0  0  0  0
   39.1690   19.0797   29.9192 H   0  0  0  0  0  0  0  0  0  0  0  0
   36.0447   18.0336   28.8971 H   0  0  0  0  0  0  0  0  0  0  0  0
   34.4575   19.2027   31.3940 H   0  0  0  0  0  0  0  0  0  0  0  0
   35.0022   16.3211   33.6190 H   0  0  0  0  0  0  0  0  0  0  0  0
   33.8676   17.6037   33.1186 H   0  0  0  0  0  0  0  0  0  0  0  0
   35.9412   21.5988   35.3704 H   0  0  0  0  0  0  0  0  0  0  0  0
   35.1565   20.6758   33.2896 H   0  0  0  0  0  0  0  0  0  0  0  0
   41.0179   22.5754   37.8989 H   0  0  0  0  0  0  0  0  0  0  0  0
   39.4002   23.6870   39.4592 H   0  0  0  0  0  0  0  0  0  0  0  0
   37.0152   23.9703   38.7734 H   0  0  0  0  0  0  0  0  0  0  0  0
  1 15  1  0
  2  1  1  0
  3  2  1  0
  4  3  1  0
  4  5  1  0
  5  6  2  0
  6  1  1  0
  6  7  1  0
  7  8  1  0
  8 10  1  0
  9  8  2  0
  9 11  1  0
 12 21  1  0
 13 12  2  0
 14 13  1  0
 15 16  1  0
 15 14  2  0
 16 12  1  0
 17 18  2  0
 19 18  1  0
 20 19  2  0
 21 22  2  0
 21 20  1  0
 22 17  1  0
  2 23  1  0
  2 24  1  0
  3 25  1  0
  3 26  1  0
  5 27  1  0
  7 28  1  0
 10 29  1  0
 10 30  1  0
 13 31  1  0
 14 32  1  0
 17 33  1  0
 18 34  1  0
 19 35  1  0
M  ISO  8  23  13  24  13  25  13  26  13  27  13  31  14  32  14  33  14
M  ISO  2  34  14  35  14
M  END
>  <minimizedAffinity>  (1) 
-5.36380768

>  <minimizedRMSD>  (1) 
0.135486692

$$$$
