
     RDKit          3D

 42 46  0  0  0  0  0  0  0  0999 V2000
   38.2830   20.8100   30.8020 N   0  0  0  0  0  0  0  0  0  0  0  0
   38.7310   21.8150   29.8420 C   0  0  0  0  0  0  0  0  0  0  0  0
   39.6470   21.0580   28.9390 C   0  0  0  0  0  0  0  0  0  0  0  0
   38.7860   20.2030   28.2290 O   0  0  0  0  0  0  0  0  0  0  0  0
   38.3740   19.1500   29.0470 C   0  0  0  0  0  0  0  0  0  0  0  0
   38.0890   19.4200   30.5090 C   0  0  0  0  0  0  0  0  0  0  0  0
   37.6540   18.2640   31.1970 C   0  0  0  0  0  0  0  0  0  0  0  0
   36.2970   18.0990   31.1740 N   0  0  0  0  0  0  0  0  0  0  0  0
   35.6880   17.0420   31.7220 C   0  0  0  0  0  0  0  0  0  0  0  0
   36.3820   16.0700   32.3320 N   0  0  0  0  0  0  0  0  0  0  0  0
   37.7010   16.1410   32.4000 C   0  0  0  0  0  0  0  0  0  0  0  0
   38.4430   15.1260   32.9650 C   0  0  0  0  0  0  0  0  0  0  0  0
   39.8360   15.1650   32.9770 C   0  0  0  0  0  0  0  0  0  0  0  0
   40.4200   16.2860   32.3830 C   0  0  0  0  0  0  0  0  0  0  0  0
   39.6480   17.2600   31.8410 C   0  0  0  0  0  0  0  0  0  0  0  0
   38.2900   17.2340   31.8290 C   0  0  0  0  0  0  0  0  0  0  0  0
   38.3040   22.0980   34.6370 C   0  0  0  0  0  0  0  0  0  0  0  0
   37.1200   21.5520   34.2870 C   0  0  0  0  0  0  0  0  0  0  0  0
   36.8240   21.0650   33.1050 C   0  0  0  0  0  0  0  0  0  0  0  0
   37.9440   21.1800   32.1790 C   0  0  0  0  0  0  0  0  0  0  0  0
   39.3300   22.0030   33.1440 S   0  0  0  0  0  0  0  0  0  0  0  0
   39.9750   22.7290   37.7710 C   0  0  0  0  0  0  0  0  0  0  0  0
   38.9410   23.2550   38.5840 C   0  0  0  0  0  0  0  0  0  0  0  0
   37.6650   23.4130   38.0620 C   0  0  0  0  0  0  0  0  0  0  0  0
   37.4890   23.0390   36.7630 N   0  0  0  0  0  0  0  0  0  0  0  0
   38.4820   22.5370   35.9960 C   0  0  0  0  0  0  0  0  0  0  0  0
   39.7350   22.3790   36.4980 N   0  0  0  0  0  0  0  0  0  0  0  0
   37.8800   22.2282   29.2807 H   0  0  0  0  0  0  0  0  0  0  0  0
   39.2206   22.6750   30.3223 H   0  0  0  0  0  0  0  0  0  0  0  0
   40.1745   21.7392   28.2551 H   0  0  0  0  0  0  0  0  0  0  0  0
   40.4307   20.5139   29.4866 H   0  0  0  0  0  0  0  0  0  0  0  0
   38.2578   18.1368   28.6347 H   0  0  0  0  0  0  0  0  0  0  0  0
   34.5917   16.9681   31.6712 H   0  0  0  0  0  0  0  0  0  0  0  0
   37.9246   14.2670   33.4160 H   0  0  0  0  0  0  0  0  0  0  0  0
   40.4386   14.3621   33.4267 H   0  0  0  0  0  0  0  0  0  0  0  0
   41.5156   16.3795   32.3546 H   0  0  0  0  0  0  0  0  0  0  0  0
   40.1521   18.1238   31.3831 H   0  0  0  0  0  0  0  0  0  0  0  0
   36.3367   21.5119   35.0583 H   0  0  0  0  0  0  0  0  0  0  0  0
   35.8504   20.6241   32.8449 H   0  0  0  0  0  0  0  0  0  0  0  0
   40.9856   22.6061   38.1877 H   0  0  0  0  0  0  0  0  0  0  0  0
   39.1491   23.5375   39.6265 H   0  0  0  0  0  0  0  0  0  0  0  0
   36.8390   23.8187   38.6647 H   0  0  0  0  0  0  0  0  0  0  0  0
  1 20  1  0
  2  1  1  0
  3  2  1  0
  4  3  1  0
  4  5  1  0
  5  6  2  0
  6  1  1  0
  6  7  1  0
  7 16  1  0
  8  7  2  0
  8  9  1  0
  9 10  2  0
 10 11  1  0
 11 12  2  0
 12 13  1  0
 14 13  2  0
 15 14  1  0
 16 15  2  0
 16 11  1  0
 17 26  1  0
 18 17  2  0
 19 18  1  0
 20 19  2  0
 20 21  1  0
 21 17  1  0
 22 23  2  0
 24 23  1  0
 25 24  2  0
 26 27  2  0
 26 25  1  0
 27 22  1  0
  2 28  1  0
  2 29  1  0
  3 30  1  0
  3 31  1  0
  5 32  1  0
  9 33  1  0
 12 34  1  0
 13 35  1  0
 14 36  1  0
 15 37  1  0
 18 38  1  0
 19 39  1  0
 22 40  1  0
 23 41  1  0
 24 42  1  0
M  ISO  8  28  13  29  13  30  13  31  13  32  13  33  14  34  14  35  14
M  ISO  7  36  14  37  14  38  14  39  14  40  14  41  14  42  14
M  END
>  <minimizedAffinity>  (1) 
-4.83666658

>  <minimizedRMSD>  (1) 
1.91052973

$$$$
