
     RDKit          3D

 30 32  0  0  0  0  0  0  0  0999 V2000
   37.8460   21.9190   34.8260 C   0  0  0  0  0  0  0  0  0  0  0  0
   36.6230   21.4170   34.6670 C   0  0  0  0  0  0  0  0  0  0  0  0
   36.1550   20.8980   33.5450 C   0  0  0  0  0  0  0  0  0  0  0  0
   37.1300   20.9300   32.4740 C   0  0  0  0  0  0  0  0  0  0  0  0
   38.6570   21.7230   33.2080 S   0  0  0  0  0  0  0  0  0  0  0  0
   37.2810   20.5410   31.0700 N   0  0  0  0  0  0  0  0  0  0  0  0
   38.1900   21.0800   30.1240 C   0  0  0  0  0  0  0  0  0  0  0  0
   38.7320   19.8390   29.3790 C   0  0  0  0  0  0  0  0  0  0  0  0
   37.6650   19.3770   28.6360 O   0  0  0  0  0  0  0  0  0  0  0  0
   36.6060   18.8810   29.3780 C   0  0  0  0  0  0  0  0  0  0  0  0
   36.4040   19.5160   30.6960 C   0  0  0  0  0  0  0  0  0  0  0  0
   35.3410   18.9740   31.3780 N   0  0  0  0  0  0  0  0  0  0  0  0
   39.9450   22.7470   37.6570 C   0  0  0  0  0  0  0  0  0  0  0  0
   39.0330   23.3780   38.5390 C   0  0  0  0  0  0  0  0  0  0  0  0
   37.6950   23.5330   38.1750 C   0  0  0  0  0  0  0  0  0  0  0  0
   37.3570   23.0490   36.9570 N   0  0  0  0  0  0  0  0  0  0  0  0
   38.2340   22.4460   36.1180 C   0  0  0  0  0  0  0  0  0  0  0  0
   39.5120   22.2960   36.4630 N   0  0  0  0  0  0  0  0  0  0  0  0
   35.9499   21.4356   35.5368 H   0  0  0  0  0  0  0  0  0  0  0  0
   35.1400   20.4881   33.4368 H   0  0  0  0  0  0  0  0  0  0  0  0
   37.6745   21.7592   29.4291 H   0  0  0  0  0  0  0  0  0  0  0  0
   38.9876   21.6743   30.5936 H   0  0  0  0  0  0  0  0  0  0  0  0
   39.5695   20.1170   28.7222 H   0  0  0  0  0  0  0  0  0  0  0  0
   39.1161   19.0754   30.0713 H   0  0  0  0  0  0  0  0  0  0  0  0
   35.9599   18.0700   29.0110 H   0  0  0  0  0  0  0  0  0  0  0  0
   35.0935   19.3295   32.3125 H   0  0  0  0  0  0  0  0  0  0  0  0
   34.7919   18.2123   30.9546 H   0  0  0  0  0  0  0  0  0  0  0  0
   40.9997   22.6260   37.9450 H   0  0  0  0  0  0  0  0  0  0  0  0
   39.3814   23.7472   39.5149 H   0  0  0  0  0  0  0  0  0  0  0  0
   36.9614   24.0178   38.8359 H   0  0  0  0  0  0  0  0  0  0  0  0
  1 17  1  0
  2  1  2  0
  3  2  1  0
  4  5  1  0
  4  3  2  0
  5  1  1  0
  6  4  1  0
  7  6  1  0
  8  7  1  0
  9 10  1  0
  9  8  1  0
 10 11  2  0
 11  6  1  0
 11 12  1  0
 13 14  2  0
 15 14  1  0
 16 15  2  0
 17 18  2  0
 17 16  1  0
 18 13  1  0
  2 19  1  0
  3 20  1  0
  7 21  1  0
  7 22  1  0
  8 23  1  0
  8 24  1  0
 10 25  1  0
 12 26  1  0
 12 27  1  0
 13 28  1  0
 14 29  1  0
 15 30  1  0
M  ISO  8  19  14  20  14  21  13  22  13  23  13  24  13  25  13  28  14
M  ISO  2  29  14  30  14
M  END
>  <minimizedAffinity>  (1) 
-4.705513

>  <minimizedRMSD>  (1) 
0.133544609

$$$$
