
     RDKit          3D

 35 38  0  0  0  0  0  0  0  0999 V2000
   38.0860   20.7070   30.7550 N   0  0  0  0  0  0  0  0  0  0  0  0
   38.8590   21.5700   29.8260 C   0  0  0  0  0  0  0  0  0  0  0  0
   39.5740   20.5730   28.9870 C   0  0  0  0  0  0  0  0  0  0  0  0
   38.5570   20.0020   28.1940 O   0  0  0  0  0  0  0  0  0  0  0  0
   37.8070   19.1040   28.9680 C   0  0  0  0  0  0  0  0  0  0  0  0
   37.5330   19.4320   30.3890 C   0  0  0  0  0  0  0  0  0  0  0  0
   38.2520   21.9800   34.5960 C   0  0  0  0  0  0  0  0  0  0  0  0
   37.0160   21.7160   34.1950 C   0  0  0  0  0  0  0  0  0  0  0  0
   36.6640   21.2880   33.0020 C   0  0  0  0  0  0  0  0  0  0  0  0
   37.7960   21.1230   32.1270 C   0  0  0  0  0  0  0  0  0  0  0  0
   39.2980   21.6170   33.1400 S   0  0  0  0  0  0  0  0  0  0  0  0
   39.9890   22.6960   37.6700 C   0  0  0  0  0  0  0  0  0  0  0  0
   39.0140   23.2710   38.4820 C   0  0  0  0  0  0  0  0  0  0  0  0
   37.7450   23.4280   37.9920 C   0  0  0  0  0  0  0  0  0  0  0  0
   37.5250   23.0010   36.7190 N   0  0  0  0  0  0  0  0  0  0  0  0
   38.4770   22.4450   35.9410 C   0  0  0  0  0  0  0  0  0  0  0  0
   39.7050   22.2950   36.4180 N   0  0  0  0  0  0  0  0  0  0  0  0
   36.8450   18.4300   31.0850 C   0  0  0  0  0  0  0  0  0  0  0  0
   37.4730   17.3690   31.6920 C   0  0  0  0  0  0  0  0  0  0  0  0
   36.6430   16.5930   32.3850 N   0  0  0  0  0  0  0  0  0  0  0  0
   35.4110   17.0920   32.2800 C   0  0  0  0  0  0  0  0  0  0  0  0
   35.6030   18.1650   31.5090 N   0  0  0  0  0  0  0  0  0  0  0  0
   38.1916   22.1975   29.2170 H   0  0  0  0  0  0  0  0  0  0  0  0
   39.5293   22.2769   30.3369 H   0  0  0  0  0  0  0  0  0  0  0  0
   40.3317   21.0630   28.3578 H   0  0  0  0  0  0  0  0  0  0  0  0
   40.1138   19.8249   29.5861 H   0  0  0  0  0  0  0  0  0  0  0  0
   37.4275   18.1701   28.5278 H   0  0  0  0  0  0  0  0  0  0  0  0
   36.2102   21.8691   34.9280 H   0  0  0  0  0  0  0  0  0  0  0  0
   35.6250   21.0801   32.7067 H   0  0  0  0  0  0  0  0  0  0  0  0
   41.0096   22.5676   38.0598 H   0  0  0  0  0  0  0  0  0  0  0  0
   39.2604   23.5949   39.5040 H   0  0  0  0  0  0  0  0  0  0  0  0
   36.9436   23.8768   38.5972 H   0  0  0  0  0  0  0  0  0  0  0  0
   38.5538   17.1800   31.6130 H   0  0  0  0  0  0  0  0  0  0  0  0
   34.4746   16.7154   32.7174 H   0  0  0  0  0  0  0  0  0  0  0  0
   34.8148   18.7741   31.2468 H   0  0  0  0  0  0  0  0  0  0  0  0
  1 10  1  0
  2  1  1  0
  3  2  1  0
  4  5  1  0
  4  3  1  0
  5  6  2  0
  6  1  1  0
  6 18  1  0
  7 16  1  0
  8  7  2  0
  9  8  1  0
 10  9  2  0
 10 11  1  0
 11  7  1  0
 12 13  2  0
 14 13  1  0
 15 14  2  0
 16 17  2  0
 16 15  1  0
 17 12  1  0
 18 22  1  0
 18 19  2  0
 19 20  1  0
 21 20  2  0
 22 21  1  0
  2 23  1  0
  2 24  1  0
  3 25  1  0
  3 26  1  0
  5 27  1  0
  8 28  1  0
  9 29  1  0
 12 30  1  0
 13 31  1  0
 14 32  1  0
 19 33  1  0
 21 34  1  0
 22 35  1  0
M  ISO  8  23  13  24  13  25  13  26  13  27  13  28  14  29  14  30  14
M  ISO  5  31  14  32  14  33  14  34  14  35   9
M  END
>  <minimizedAffinity>  (1) 
-4.72465706

>  <minimizedRMSD>  (1) 
1.09761643

$$$$
