
     RDKit          3D

 35 38  0  0  0  0  0  0  0  0999 V2000
   38.4660   21.4010   30.5610 N   0  0  0  0  0  0  0  0  0  0  0  0
   39.4630   21.8660   29.5770 C   0  0  0  0  0  0  0  0  0  0  0  0
   39.9010   20.6120   28.9110 C   0  0  0  0  0  0  0  0  0  0  0  0
   38.7790   20.2020   28.1720 O   0  0  0  0  0  0  0  0  0  0  0  0
   37.7980   19.6790   29.0110 C   0  0  0  0  0  0  0  0  0  0  0  0
   37.5850   20.2840   30.3610 C   0  0  0  0  0  0  0  0  0  0  0  0
   38.5660   22.6820   34.3990 C   0  0  0  0  0  0  0  0  0  0  0  0
   37.7920   23.4560   33.6140 C   0  0  0  0  0  0  0  0  0  0  0  0
   37.5850   23.2790   32.3470 C   0  0  0  0  0  0  0  0  0  0  0  0
   38.3060   22.1050   31.8410 C   0  0  0  0  0  0  0  0  0  0  0  0
   39.2230   21.3870   33.2960 S   0  0  0  0  0  0  0  0  0  0  0  0
   39.8970   22.7390   37.7450 C   0  0  0  0  0  0  0  0  0  0  0  0
   38.9490   23.4600   38.4720 C   0  0  0  0  0  0  0  0  0  0  0  0
   37.8450   23.9470   37.8270 C   0  0  0  0  0  0  0  0  0  0  0  0
   37.7410   23.6930   36.4910 N   0  0  0  0  0  0  0  0  0  0  0  0
   38.6700   22.9910   35.8040 C   0  0  0  0  0  0  0  0  0  0  0  0
   39.7480   22.5150   36.4280 N   0  0  0  0  0  0  0  0  0  0  0  0
   36.6160   19.6190   31.1820 C   0  0  0  0  0  0  0  0  0  0  0  0
   36.4950   18.5010   31.9650 C   0  0  0  0  0  0  0  0  0  0  0  0
   35.2900   18.3370   32.5720 C   0  0  0  0  0  0  0  0  0  0  0  0
   34.6450   19.4550   32.1010 C   0  0  0  0  0  0  0  0  0  0  0  0
   35.4420   20.1200   31.3340 O   0  0  0  0  0  0  0  0  0  0  0  0
   39.0082   22.5580   28.8529 H   0  0  0  0  0  0  0  0  0  0  0  0
   40.2941   22.4205   30.0372 H   0  0  0  0  0  0  0  0  0  0  0  0
   40.7570   20.8019   28.2468 H   0  0  0  0  0  0  0  0  0  0  0  0
   40.2333   19.8482   29.6295 H   0  0  0  0  0  0  0  0  0  0  0  0
   37.1846   18.8271   28.6825 H   0  0  0  0  0  0  0  0  0  0  0  0
   37.2922   24.3127   34.0897 H   0  0  0  0  0  0  0  0  0  0  0  0
   36.9482   23.9279   31.7278 H   0  0  0  0  0  0  0  0  0  0  0  0
   40.7854   22.3455   38.2607 H   0  0  0  0  0  0  0  0  0  0  0  0
   39.0874   23.6345   39.5492 H   0  0  0  0  0  0  0  0  0  0  0  0
   37.0738   24.5193   38.3634 H   0  0  0  0  0  0  0  0  0  0  0  0
   37.3188   17.7835   32.0938 H   0  0  0  0  0  0  0  0  0  0  0  0
   34.9350   17.5417   33.2439 H   0  0  0  0  0  0  0  0  0  0  0  0
   33.6097   19.7393   32.3405 H   0  0  0  0  0  0  0  0  0  0  0  0
  1 10  1  0
  2  1  1  0
  3  2  1  0
  4  3  1  0
  4  5  1  0
  5  6  2  0
  6  1  1  0
  6 18  1  0
  7 16  1  0
  8  7  2  0
  9  8  1  0
 10  9  2  0
 10 11  1  0
 11  7  1  0
 12 13  2  0
 14 13  1  0
 15 14  2  0
 16 17  2  0
 16 15  1  0
 17 12  1  0
 18 22  1  0
 18 19  2  0
 19 20  1  0
 21 20  2  0
 22 21  1  0
  2 23  1  0
  2 24  1  0
  3 25  1  0
  3 26  1  0
  5 27  1  0
  8 28  1  0
  9 29  1  0
 12 30  1  0
 13 31  1  0
 14 32  1  0
 19 33  1  0
 20 34  1  0
 21 35  1  0
M  ISO  8  23  13  24  13  25  13  26  13  27  13  28  14  29  14  30  14
M  ISO  5  31  14  32  14  33  14  34  14  35  14
M  END
>  <minimizedAffinity>  (1) 
-4.66631651

>  <minimizedRMSD>  (1) 
1.52745366

$$$$
