
     RDKit          3D

 34 36  0  0  0  0  0  0  0  0999 V2000
   37.6870   21.9660   35.3090 C   0  0  0  0  0  0  0  0  0  0  0  0
   36.4910   21.3950   35.2790 C   0  0  0  0  0  0  0  0  0  0  0  0
   35.9150   20.8010   34.2550 C   0  0  0  0  0  0  0  0  0  0  0  0
   36.7820   20.8340   33.0800 C   0  0  0  0  0  0  0  0  0  0  0  0
   38.3200   21.7280   33.6300 S   0  0  0  0  0  0  0  0  0  0  0  0
   36.7230   20.3780   31.6900 N   0  0  0  0  0  0  0  0  0  0  0  0
   37.2860   21.1380   30.5970 C   0  0  0  0  0  0  0  0  0  0  0  0
   37.9810   20.1130   29.7160 C   0  0  0  0  0  0  0  0  0  0  0  0
   37.0650   19.2430   29.2290 O   0  0  0  0  0  0  0  0  0  0  0  0
   36.3100   18.5560   30.1330 C   0  0  0  0  0  0  0  0  0  0  0  0
   36.1000   19.1460   31.4830 C   0  0  0  0  0  0  0  0  0  0  0  0
   35.3070   18.2650   32.3080 C   0  0  0  0  0  0  0  0  0  0  0  0
   35.8870   16.8570   32.2480 C   0  0  0  0  0  0  0  0  0  0  0  0
   39.9120   22.9190   37.9880 C   0  0  0  0  0  0  0  0  0  0  0  0
   39.0980   23.7590   38.7850 C   0  0  0  0  0  0  0  0  0  0  0  0
   37.7900   24.0040   38.4140 C   0  0  0  0  0  0  0  0  0  0  0  0
   37.3540   23.4060   37.2730 N   0  0  0  0  0  0  0  0  0  0  0  0
   38.1580   22.5930   36.5110 C   0  0  0  0  0  0  0  0  0  0  0  0
   39.4160   22.3580   36.8700 N   0  0  0  0  0  0  0  0  0  0  0  0
   35.9147   21.4204   36.2156 H   0  0  0  0  0  0  0  0  0  0  0  0
   34.9157   20.3418   34.2808 H   0  0  0  0  0  0  0  0  0  0  0  0
   36.4923   21.6537   30.0365 H   0  0  0  0  0  0  0  0  0  0  0  0
   37.9801   21.9146   30.9506 H   0  0  0  0  0  0  0  0  0  0  0  0
   38.4805   20.6256   28.8807 H   0  0  0  0  0  0  0  0  0  0  0  0
   38.7284   19.5656   30.3091 H   0  0  0  0  0  0  0  0  0  0  0  0
   35.8650   17.5851   29.8697 H   0  0  0  0  0  0  0  0  0  0  0  0
   35.3216   18.6239   33.3477 H   0  0  0  0  0  0  0  0  0  0  0  0
   34.2704   18.2514   31.9402 H   0  0  0  0  0  0  0  0  0  0  0  0
   36.0421   16.4805   33.2699 H   0  0  0  0  0  0  0  0  0  0  0  0
   35.1883   16.1950   31.7154 H   0  0  0  0  0  0  0  0  0  0  0  0
   36.8492   16.8792   31.7154 H   0  0  0  0  0  0  0  0  0  0  0  0
   40.9535   22.7242   38.2835 H   0  0  0  0  0  0  0  0  0  0  0  0
   39.5063   24.2161   39.6985 H   0  0  0  0  0  0  0  0  0  0  0  0
   37.1327   24.6517   39.0127 H   0  0  0  0  0  0  0  0  0  0  0  0
  1 18  1  0
  2  1  2  0
  3  2  1  0
  4  5  1  0
  4  3  2  0
  5  1  1  0
  6  4  1  0
  7  6  1  0
  8  7  1  0
  9  8  1  0
  9 10  1  0
 10 11  2  0
 11  6  1  0
 11 12  1  0
 13 12  1  0
 14 15  2  0
 16 15  1  0
 17 16  2  0
 18 19  2  0
 18 17  1  0
 19 14  1  0
  2 20  1  0
  3 21  1  0
  7 22  1  0
  7 23  1  0
  8 24  1  0
  8 25  1  0
 10 26  1  0
 12 27  1  0
 12 28  1  0
 13 29  1  0
 13 30  1  0
 13 31  1  0
 14 32  1  0
 15 33  1  0
 16 34  1  0
M  ISO  8  20  14  21  14  22  13  23  13  24  13  25  13  26  13  27   8
M  ISO  7  28   8  29   8  30   8  31   8  32  14  33  14  34  14
M  END
>  <minimizedAffinity>  (1) 
-4.52431393

>  <minimizedRMSD>  (1) 
0.904935896

$$$$
