
     RDKit          3D

 39 43  0  0  0  0  0  0  0  0999 V2000
   38.4530   21.6530   30.6690 N   0  0  0  0  0  0  0  0  0  0  0  0
   38.9030   22.7380   29.8390 C   0  0  0  0  0  0  0  0  0  0  0  0
   40.0050   22.1430   28.9790 C   0  0  0  0  0  0  0  0  0  0  0  0
   39.4260   21.2270   28.1610 O   0  0  0  0  0  0  0  0  0  0  0  0
   38.8390   20.1440   28.7780 C   0  0  0  0  0  0  0  0  0  0  0  0
   38.3030   20.3620   30.1490 C   0  0  0  0  0  0  0  0  0  0  0  0
   37.7350   19.1880   30.6270 N   0  0  0  0  0  0  0  0  0  0  0  0
   36.4320   18.7640   30.5830 C   0  0  0  0  0  0  0  0  0  0  0  0
   36.3550   17.5500   31.2030 N   0  0  0  0  0  0  0  0  0  0  0  0
   37.5890   17.2280   31.6230 C   0  0  0  0  0  0  0  0  0  0  0  0
   38.1620   16.1470   32.3050 C   0  0  0  0  0  0  0  0  0  0  0  0
   39.4500   16.0550   32.6160 N   0  0  0  0  0  0  0  0  0  0  0  0
   40.2830   17.0570   32.2600 C   0  0  0  0  0  0  0  0  0  0  0  0
   39.7950   18.1430   31.5930 N   0  0  0  0  0  0  0  0  0  0  0  0
   38.4900   18.2400   31.2770 C   0  0  0  0  0  0  0  0  0  0  0  0
   38.4390   22.4080   34.6440 C   0  0  0  0  0  0  0  0  0  0  0  0
   37.3070   21.8210   34.2360 C   0  0  0  0  0  0  0  0  0  0  0  0
   37.0410   21.4630   32.9990 C   0  0  0  0  0  0  0  0  0  0  0  0
   38.1200   21.7710   32.0840 C   0  0  0  0  0  0  0  0  0  0  0  0
   39.4460   22.5700   33.1470 S   0  0  0  0  0  0  0  0  0  0  0  0
   40.0030   22.7680   37.8810 C   0  0  0  0  0  0  0  0  0  0  0  0
   38.9770   23.2780   38.6850 C   0  0  0  0  0  0  0  0  0  0  0  0
   37.7420   23.5100   38.1320 C   0  0  0  0  0  0  0  0  0  0  0  0
   37.5340   23.2360   36.7950 N   0  0  0  0  0  0  0  0  0  0  0  0
   38.5810   22.7350   36.0490 C   0  0  0  0  0  0  0  0  0  0  0  0
   39.7860   22.5070   36.5800 N   0  0  0  0  0  0  0  0  0  0  0  0
   38.0808   23.1110   29.2106 H   0  0  0  0  0  0  0  0  0  0  0  0
   39.2580   23.5932   30.4328 H   0  0  0  0  0  0  0  0  0  0  0  0
   40.4842   22.9324   28.3813 H   0  0  0  0  0  0  0  0  0  0  0  0
   40.7783   21.6738   29.6050 H   0  0  0  0  0  0  0  0  0  0  0  0
   38.7699   19.1651   28.2810 H   0  0  0  0  0  0  0  0  0  0  0  0
   35.5924   19.3086   30.1264 H   0  0  0  0  0  0  0  0  0  0  0  0
   37.5014   15.3194   32.6028 H   0  0  0  0  0  0  0  0  0  0  0  0
   41.3532   16.9977   32.5074 H   0  0  0  0  0  0  0  0  0  0  0  0
   36.5377   21.6222   34.9967 H   0  0  0  0  0  0  0  0  0  0  0  0
   36.1006   20.9817   32.6926 H   0  0  0  0  0  0  0  0  0  0  0  0
   40.9950   22.5792   38.3171 H   0  0  0  0  0  0  0  0  0  0  0  0
   39.1583   23.4907   39.7489 H   0  0  0  0  0  0  0  0  0  0  0  0
   36.9247   23.9110   38.7494 H   0  0  0  0  0  0  0  0  0  0  0  0
  1 19  1  0
  2  1  1  0
  3  2  1  0
  4  5  1  0
  4  3  1  0
  5  6  2  0
  6  7  1  0
  6  1  1  0
  7 15  1  0
  8  7  1  0
  8  9  2  0
  9 10  1  0
 10 11  2  0
 11 12  1  0
 13 12  2  0
 14 13  1  0
 15 14  2  0
 15 10  1  0
 16 25  1  0
 17 16  2  0
 18 17  1  0
 19 18  2  0
 19 20  1  0
 20 16  1  0
 21 22  2  0
 23 22  1  0
 24 23  2  0
 25 26  2  0
 25 24  1  0
 26 21  1  0
  2 27  1  0
  2 28  1  0
  3 29  1  0
  3 30  1  0
  5 31  1  0
  8 32  1  0
 11 33  1  0
 13 34  1  0
 17 35  1  0
 18 36  1  0
 21 37  1  0
 22 38  1  0
 23 39  1  0
M  ISO  8  27  13  28  13  29  13  30  13  31  13  32  14  33  14  34  14
M  ISO  5  35  14  36  14  37  14  38  14  39  14
M  END
>  <minimizedAffinity>  (1) 
-4.62036562

>  <minimizedRMSD>  (1) 
2.52572227

$$$$
