
     RDKit          3D

 40 43  0  0  0  0  0  0  0  0999 V2000
   38.4880   21.7110   30.5040 N   0  0  0  0  0  0  0  0  0  0  0  0
   39.3290   22.2460   29.4500 C   0  0  0  0  0  0  0  0  0  0  0  0
   40.0350   21.0200   28.8950 C   0  0  0  0  0  0  0  0  0  0  0  0
   39.0530   20.2830   28.2640 O   0  0  0  0  0  0  0  0  0  0  0  0
   38.1200   19.7280   29.1260 C   0  0  0  0  0  0  0  0  0  0  0  0
   37.7910   20.4770   30.3540 C   0  0  0  0  0  0  0  0  0  0  0  0
   38.5380   22.7780   34.4060 C   0  0  0  0  0  0  0  0  0  0  0  0
   37.7160   23.5430   33.6850 C   0  0  0  0  0  0  0  0  0  0  0  0
   37.5010   23.4220   32.3930 C   0  0  0  0  0  0  0  0  0  0  0  0
   38.2620   22.3490   31.8000 C   0  0  0  0  0  0  0  0  0  0  0  0
   39.2380   21.6040   33.2160 S   0  0  0  0  0  0  0  0  0  0  0  0
   39.9210   22.7080   37.7350 C   0  0  0  0  0  0  0  0  0  0  0  0
   38.9910   23.4160   38.4960 C   0  0  0  0  0  0  0  0  0  0  0  0
   37.8790   23.9350   37.8810 C   0  0  0  0  0  0  0  0  0  0  0  0
   37.7130   23.7400   36.5270 N   0  0  0  0  0  0  0  0  0  0  0  0
   38.6610   23.0330   35.8240 C   0  0  0  0  0  0  0  0  0  0  0  0
   39.7540   22.5210   36.4180 N   0  0  0  0  0  0  0  0  0  0  0  0
   36.8650   19.7900   31.1210 N   0  0  0  0  0  0  0  0  0  0  0  0
   35.4840   20.1220   31.5050 C   0  0  0  0  0  0  0  0  0  0  0  0
   35.1360   19.1180   32.5820 C   0  0  0  0  0  0  0  0  0  0  0  0
   35.9210   17.9170   32.1010 C   0  0  0  0  0  0  0  0  0  0  0  0
   37.2480   18.5230   31.7300 C   0  0  0  0  0  0  0  0  0  0  0  0
   38.7218   22.7341   28.6734 H   0  0  0  0  0  0  0  0  0  0  0  0
   40.0289   23.0137   29.8115 H   0  0  0  0  0  0  0  0  0  0  0  0
   40.8138   21.3169   28.1772 H   0  0  0  0  0  0  0  0  0  0  0  0
   40.5331   20.4422   29.6875 H   0  0  0  0  0  0  0  0  0  0  0  0
   37.6417   18.7630   28.9024 H   0  0  0  0  0  0  0  0  0  0  0  0
   37.1737   24.3402   34.2146 H   0  0  0  0  0  0  0  0  0  0  0  0
   36.8153   24.0688   31.8260 H   0  0  0  0  0  0  0  0  0  0  0  0
   40.8129   22.2931   38.2272 H   0  0  0  0  0  0  0  0  0  0  0  0
   39.1467   23.5567   39.5758 H   0  0  0  0  0  0  0  0  0  0  0  0
   37.1320   24.4978   38.4600 H   0  0  0  0  0  0  0  0  0  0  0  0
   35.4259   21.1481   31.8971 H   0  0  0  0  0  0  0  0  0  0  0  0
   34.7911   20.0760   30.6519 H   0  0  0  0  0  0  0  0  0  0  0  0
   35.4730   19.4530   33.5741 H   0  0  0  0  0  0  0  0  0  0  0  0
   34.0584   18.9398   32.7125 H   0  0  0  0  0  0  0  0  0  0  0  0
   36.0346   17.1701   32.9005 H   0  0  0  0  0  0  0  0  0  0  0  0
   35.4369   17.3799   31.2720 H   0  0  0  0  0  0  0  0  0  0  0  0
   37.7880   17.8863   31.0138 H   0  0  0  0  0  0  0  0  0  0  0  0
   37.9284   18.6394   32.5865 H   0  0  0  0  0  0  0  0  0  0  0  0
  1 10  1  0
  2  1  1  0
  3  2  1  0
  4  3  1  0
  4  5  1  0
  5  6  2  0
  6  1  1  0
  6 18  1  0
  7 16  1  0
  8  7  2  0
  9  8  1  0
 10  9  2  0
 10 11  1  0
 11  7  1  0
 12 13  2  0
 14 13  1  0
 15 14  2  0
 16 17  2  0
 16 15  1  0
 17 12  1  0
 18 19  1  0
 18 22  1  0
 19 20  1  0
 21 20  1  0
 22 21  1  0
  2 23  1  0
  2 24  1  0
  3 25  1  0
  3 26  1  0
  5 27  1  0
  8 28  1  0
  9 29  1  0
 12 30  1  0
 13 31  1  0
 14 32  1  0
 19 33  1  0
 19 34  1  0
 20 35  1  0
 20 36  1  0
 21 37  1  0
 21 38  1  0
 22 39  1  0
 22 40  1  0
M  ISO  8  23  13  24  13  25  13  26  13  27  13  28  14  29  14  30  14
M  ISO  8  31  14  32  14  33  13  34  13  35  13  36  13  37  13  38  13
M  ISO  2  39  13  40  13
M  END
>  <minimizedAffinity>  (1) 
-4.6209774

>  <minimizedRMSD>  (1) 
1.74581659

$$$$
