
     RDKit          3D

 33 36  0  0  0  0  0  0  0  0999 V2000
   38.0620   20.7380   30.8130 N   0  0  0  0  0  0  0  0  0  0  0  0
   38.8250   21.5850   29.8780 C   0  0  0  0  0  0  0  0  0  0  0  0
   39.5740   20.5890   29.0490 C   0  0  0  0  0  0  0  0  0  0  0  0
   38.5940   19.9350   28.2970 O   0  0  0  0  0  0  0  0  0  0  0  0
   37.8140   19.0690   29.0680 C   0  0  0  0  0  0  0  0  0  0  0  0
   37.5050   19.4550   30.4660 C   0  0  0  0  0  0  0  0  0  0  0  0
   38.2880   22.0470   34.6370 C   0  0  0  0  0  0  0  0  0  0  0  0
   37.0290   21.7220   34.2730 C   0  0  0  0  0  0  0  0  0  0  0  0
   36.6870   21.2850   33.1070 C   0  0  0  0  0  0  0  0  0  0  0  0
   37.8250   21.1700   32.1920 C   0  0  0  0  0  0  0  0  0  0  0  0
   39.3160   21.7350   33.1630 S   0  0  0  0  0  0  0  0  0  0  0  0
   40.0370   22.6650   37.7240 C   0  0  0  0  0  0  0  0  0  0  0  0
   39.0390   23.2460   38.5470 C   0  0  0  0  0  0  0  0  0  0  0  0
   37.7730   23.4420   38.0580 C   0  0  0  0  0  0  0  0  0  0  0  0
   37.5740   23.0480   36.7800 N   0  0  0  0  0  0  0  0  0  0  0  0
   38.5170   22.4950   35.9880 C   0  0  0  0  0  0  0  0  0  0  0  0
   39.7450   22.3050   36.4620 N   0  0  0  0  0  0  0  0  0  0  0  0
   36.7970   18.4690   31.2560 C   0  0  0  0  0  0  0  0  0  0  0  0
   37.4560   17.4340   31.7330 N   0  0  0  0  0  0  0  0  0  0  0  0
   36.6820   16.6950   32.4550 O   0  0  0  0  0  0  0  0  0  0  0  0
   35.4860   17.1860   32.5000 C   0  0  0  0  0  0  0  0  0  0  0  0
   35.6120   18.2430   31.7690 N   0  0  0  0  0  0  0  0  0  0  0  0
   38.1510   22.1904   29.2541 H   0  0  0  0  0  0  0  0  0  0  0  0
   39.4828   22.3052   30.3865 H   0  0  0  0  0  0  0  0  0  0  0  0
   40.2925   21.0974   28.3892 H   0  0  0  0  0  0  0  0  0  0  0  0
   40.1553   19.8897   29.6680 H   0  0  0  0  0  0  0  0  0  0  0  0
   37.4385   18.1242   28.6482 H   0  0  0  0  0  0  0  0  0  0  0  0
   36.2355   21.8382   35.0259 H   0  0  0  0  0  0  0  0  0  0  0  0
   35.6538   21.0272   32.8310 H   0  0  0  0  0  0  0  0  0  0  0  0
   41.0517   22.5086   38.1188 H   0  0  0  0  0  0  0  0  0  0  0  0
   39.2808   23.5399   39.5791 H   0  0  0  0  0  0  0  0  0  0  0  0
   36.9725   23.8900   38.6651 H   0  0  0  0  0  0  0  0  0  0  0  0
   34.5967   16.8040   33.0228 H   0  0  0  0  0  0  0  0  0  0  0  0
  1 10  1  0
  2  1  1  0
  3  2  1  0
  4  3  1  0
  4  5  1  0
  5  6  2  0
  6  1  1  0
  6 18  1  0
  7 16  1  0
  8  7  2  0
  9  8  1  0
 10  9  2  0
 10 11  1  0
 11  7  1  0
 12 13  2  0
 14 13  1  0
 15 14  2  0
 16 17  2  0
 16 15  1  0
 17 12  1  0
 18 19  2  0
 18 22  1  0
 19 20  1  0
 20 21  1  0
 22 21  2  0
  2 23  1  0
  2 24  1  0
  3 25  1  0
  3 26  1  0
  5 27  1  0
  8 28  1  0
  9 29  1  0
 12 30  1  0
 13 31  1  0
 14 32  1  0
 21 33  1  0
M  ISO  8  23  13  24  13  25  13  26  13  27  13  28  14  29  14  30  14
M  ISO  3  31  14  32  14  33  14
M  END
>  <minimizedAffinity>  (1) 
-4.55297565

>  <minimizedRMSD>  (1) 
0.921877503

$$$$
