
     RDKit          3D

 31 33  0  0  0  0  0  0  0  0999 V2000
   37.8270   21.9060   35.0540 C   0  0  0  0  0  0  0  0  0  0  0  0
   36.5950   21.4350   34.9280 C   0  0  0  0  0  0  0  0  0  0  0  0
   36.0530   20.8720   33.8600 C   0  0  0  0  0  0  0  0  0  0  0  0
   37.0400   20.8260   32.7730 C   0  0  0  0  0  0  0  0  0  0  0  0
   38.6020   21.6040   33.4420 S   0  0  0  0  0  0  0  0  0  0  0  0
   37.0840   20.3400   31.3900 N   0  0  0  0  0  0  0  0  0  0  0  0
   37.6450   21.1250   30.3110 C   0  0  0  0  0  0  0  0  0  0  0  0
   38.3690   20.0950   29.4600 C   0  0  0  0  0  0  0  0  0  0  0  0
   37.3740   19.3080   28.9090 O   0  0  0  0  0  0  0  0  0  0  0  0
   36.7160   18.5070   29.8320 C   0  0  0  0  0  0  0  0  0  0  0  0
   36.5430   19.0370   31.1950 C   0  0  0  0  0  0  0  0  0  0  0  0
   35.8740   18.1120   32.1310 C   0  0  0  0  0  0  0  0  0  0  0  0
   39.9380   22.8350   37.8340 C   0  0  0  0  0  0  0  0  0  0  0  0
   39.0830   23.5520   38.6710 C   0  0  0  0  0  0  0  0  0  0  0  0
   37.7740   23.7350   38.3020 C   0  0  0  0  0  0  0  0  0  0  0  0
   37.3540   23.1960   37.1110 N   0  0  0  0  0  0  0  0  0  0  0  0
   38.2290   22.4950   36.3120 C   0  0  0  0  0  0  0  0  0  0  0  0
   39.5040   22.3180   36.6720 N   0  0  0  0  0  0  0  0  0  0  0  0
   35.9480   21.5220   35.8133 H   0  0  0  0  0  0  0  0  0  0  0  0
   35.0212   20.4960   33.7960 H   0  0  0  0  0  0  0  0  0  0  0  0
   36.8520   21.6237   29.7344 H   0  0  0  0  0  0  0  0  0  0  0  0
   38.3072   21.9284   30.6659 H   0  0  0  0  0  0  0  0  0  0  0  0
   38.9505   20.5902   28.6684 H   0  0  0  0  0  0  0  0  0  0  0  0
   39.0788   19.5003   30.0537 H   0  0  0  0  0  0  0  0  0  0  0  0
   36.3373   17.5120   29.5553 H   0  0  0  0  0  0  0  0  0  0  0  0
   36.0932   18.4151   33.1655 H   0  0  0  0  0  0  0  0  0  0  0  0
   34.7874   18.1422   31.9625 H   0  0  0  0  0  0  0  0  0  0  0  0
   36.2429   17.0895   31.9625 H   0  0  0  0  0  0  0  0  0  0  0  0
   40.9873   22.6900   38.1307 H   0  0  0  0  0  0  0  0  0  0  0  0
   39.4550   23.9674   39.6192 H   0  0  0  0  0  0  0  0  0  0  0  0
   37.0799   24.2983   38.9430 H   0  0  0  0  0  0  0  0  0  0  0  0
  1 17  1  0
  2  1  2  0
  3  2  1  0
  4  5  1  0
  4  3  2  0
  5  1  1  0
  6  4  1  0
  7  6  1  0
  8  7  1  0
  9  8  1  0
  9 10  1  0
 10 11  2  0
 11  6  1  0
 11 12  1  0
 13 14  2  0
 15 14  1  0
 16 15  2  0
 17 18  2  0
 17 16  1  0
 18 13  1  0
  2 19  1  0
  3 20  1  0
  7 21  1  0
  7 22  1  0
  8 23  1  0
  8 24  1  0
 10 25  1  0
 12 26  1  0
 12 27  1  0
 12 28  1  0
 13 29  1  0
 14 30  1  0
 15 31  1  0
M  ISO  8  19  14  20  14  21  13  22  13  23  13  24  13  25  13  26   8
M  ISO  5  27   8  28   8  29  14  30  14  31  14
M  END
>  <minimizedAffinity>  (1) 
-4.41551924

>  <minimizedRMSD>  (1) 
0.480182618

$$$$
