
     RDKit          3D

 41 44  0  0  0  0  0  0  0  0999 V2000
   38.2860   21.9630   34.7130 C   0  0  0  0  0  0  0  0  0  0  0  0
   37.0590   21.6190   34.3360 C   0  0  0  0  0  0  0  0  0  0  0  0
   36.7470   21.1200   33.1630 C   0  0  0  0  0  0  0  0  0  0  0  0
   37.8570   20.9630   32.2910 C   0  0  0  0  0  0  0  0  0  0  0  0
   39.3100   21.5780   33.2730 S   0  0  0  0  0  0  0  0  0  0  0  0
   38.1710   20.4760   30.9460 N   0  0  0  0  0  0  0  0  0  0  0  0
   38.3800   21.3630   29.8020 C   0  0  0  0  0  0  0  0  0  0  0  0
   39.4560   20.6740   29.0330 C   0  0  0  0  0  0  0  0  0  0  0  0
   38.8480   19.5340   28.5030 O   0  0  0  0  0  0  0  0  0  0  0  0
   38.6120   18.5890   29.4900 C   0  0  0  0  0  0  0  0  0  0  0  0
   38.2470   19.0520   30.8600 C   0  0  0  0  0  0  0  0  0  0  0  0
   38.0730   18.0150   31.8500 C   0  0  0  0  0  0  0  0  0  0  0  0
   38.6470   16.6770   31.4080 C   0  0  0  0  0  0  0  0  0  0  0  0
   37.5530   15.9040   30.7090 C   0  0  0  0  0  0  0  0  0  0  0  0
   36.2630   16.5830   31.1100 C   0  0  0  0  0  0  0  0  0  0  0  0
   36.6130   17.6040   32.1150 C   0  0  0  0  0  0  0  0  0  0  0  0
   39.9830   22.7470   37.8010 C   0  0  0  0  0  0  0  0  0  0  0  0
   38.9920   23.4370   38.5380 C   0  0  0  0  0  0  0  0  0  0  0  0
   37.7510   23.6450   37.9910 C   0  0  0  0  0  0  0  0  0  0  0  0
   37.5670   23.1540   36.7380 N   0  0  0  0  0  0  0  0  0  0  0  0
   38.5170   22.4950   36.0360 C   0  0  0  0  0  0  0  0  0  0  0  0
   39.7210   22.2920   36.5640 N   0  0  0  0  0  0  0  0  0  0  0  0
   36.2444   21.7632   35.0610 H   0  0  0  0  0  0  0  0  0  0  0  0
   35.7192   20.8481   32.8808 H   0  0  0  0  0  0  0  0  0  0  0  0
   37.4630   21.4561   29.2016 H   0  0  0  0  0  0  0  0  0  0  0  0
   38.6461   22.3898   30.0935 H   0  0  0  0  0  0  0  0  0  0  0  0
   39.8311   21.3222   28.2273 H   0  0  0  0  0  0  0  0  0  0  0  0
   40.3210   20.4249   29.6652 H   0  0  0  0  0  0  0  0  0  0  0  0
   38.6927   17.5151   29.2661 H   0  0  0  0  0  0  0  0  0  0  0  0
   38.5607   18.4786   32.7202 H   0  0  0  0  0  0  0  0  0  0  0  0
   39.4869   16.8417   30.7170 H   0  0  0  0  0  0  0  0  0  0  0  0
   39.0145   16.1140   32.2786 H   0  0  0  0  0  0  0  0  0  0  0  0
   37.5535   14.8541   31.0372 H   0  0  0  0  0  0  0  0  0  0  0  0
   37.6899   15.8974   29.6176 H   0  0  0  0  0  0  0  0  0  0  0  0
   35.7970   17.0580   30.2341 H   0  0  0  0  0  0  0  0  0  0  0  0
   35.5453   15.8566   31.5190 H   0  0  0  0  0  0  0  0  0  0  0  0
   36.5162   17.1858   33.1278 H   0  0  0  0  0  0  0  0  0  0  0  0
   35.9416   18.4723   32.0426 H   0  0  0  0  0  0  0  0  0  0  0  0
   40.9761   22.5816   38.2441 H   0  0  0  0  0  0  0  0  0  0  0  0
   39.2163   23.8067   39.5494 H   0  0  0  0  0  0  0  0  0  0  0  0
   36.9549   24.1762   38.5333 H   0  0  0  0  0  0  0  0  0  0  0  0
  1 21  1  0
  2  1  2  0
  3  2  1  0
  4  3  2  0
  4  5  1  0
  5  1  1  0
  6  4  1  0
  7  6  1  0
  8  7  1  0
  9  8  1  0
  9 10  1  0
 10 11  2  0
 11  6  1  0
 11 12  1  0
 12 16  1  0
 13 12  1  0
 14 15  1  0
 14 13  1  0
 15 16  1  0
 17 18  2  0
 19 18  1  0
 20 19  2  0
 21 22  2  0
 21 20  1  0
 22 17  1  0
  2 23  1  0
  3 24  1  0
  7 25  1  0
  7 26  1  0
  8 27  1  0
  8 28  1  0
 10 29  1  0
 12 30  1  0
 13 31  1  0
 13 32  1  0
 14 33  1  0
 14 34  1  0
 15 35  1  0
 15 36  1  0
 16 37  1  0
 16 38  1  0
 17 39  1  0
 18 40  1  0
 19 41  1  0
M  ISO  8  23  14  24  14  25  13  26  13  27  13  28  13  29  13  30  13
M  ISO  8  31  13  32  13  33  13  34  13  35  13  36  13  37  13  38  13
M  ISO  3  39  14  40  14  41  14
M  END
>  <minimizedAffinity>  (1) 
-4.14324427

>  <minimizedRMSD>  (1) 
2.30831099

$$$$
