
     RDKit          3D

 34 37  0  0  0  0  0  0  0  0999 V2000
   38.8110   23.8040   35.6450 C   0  0  0  0  0  0  0  0  0  0  0  0
   40.1540   23.4510   35.4700 C   0  0  0  0  0  0  0  0  0  0  0  0
   40.8550   22.9660   36.5560 C   0  0  0  0  0  0  0  0  0  0  0  0
   40.2140   22.8530   37.7450 N   0  0  0  0  0  0  0  0  0  0  0  0
   38.9340   23.1930   37.8990 C   0  0  0  0  0  0  0  0  0  0  0  0
   38.2250   23.6700   36.8550 N   0  0  0  0  0  0  0  0  0  0  0  0
   42.2210   22.5600   36.5660 N   0  0  0  0  0  0  0  0  0  0  0  0
   43.3490   23.4260   36.8610 C   0  0  0  0  0  0  0  0  0  0  0  0
   44.2730   23.4630   35.6690 C   0  0  0  0  0  0  0  0  0  0  0  0
   43.9370   22.4610   34.7650 O   0  0  0  0  0  0  0  0  0  0  0  0
   43.9130   21.2300   35.4120 C   0  0  0  0  0  0  0  0  0  0  0  0
   42.6520   21.1940   36.2750 C   0  0  0  0  0  0  0  0  0  0  0  0
   38.1490   24.3010   34.4660 N   0  0  0  0  0  0  0  0  0  0  0  0
   37.8130   23.7180   33.2780 C   0  0  0  0  0  0  0  0  0  0  0  0
   37.2000   24.6430   32.5190 N   0  0  0  0  0  0  0  0  0  0  0  0
   37.1300   25.8060   33.1780 C   0  0  0  0  0  0  0  0  0  0  0  0
   36.6060   27.0180   32.8270 C   0  0  0  0  0  0  0  0  0  0  0  0
   36.7120   27.9870   33.7570 N   0  0  0  0  0  0  0  0  0  0  0  0
   37.2830   27.8060   34.9470 C   0  0  0  0  0  0  0  0  0  0  0  0
   37.7930   26.6310   35.2940 N   0  0  0  0  0  0  0  0  0  0  0  0
   37.7260   25.5980   34.4070 C   0  0  0  0  0  0  0  0  0  0  0  0
   40.6402   23.5576   34.4890 H   0  0  0  0  0  0  0  0  0  0  0  0
   38.4535   23.0840   38.8825 H   0  0  0  0  0  0  0  0  0  0  0  0
   42.9861   24.4418   37.0765 H   0  0  0  0  0  0  0  0  0  0  0  0
   43.8915   23.0398   37.7365 H   0  0  0  0  0  0  0  0  0  0  0  0
   44.1873   24.4416   35.1740 H   0  0  0  0  0  0  0  0  0  0  0  0
   45.3057   23.3027   36.0124 H   0  0  0  0  0  0  0  0  0  0  0  0
   43.8860   20.4164   34.6721 H   0  0  0  0  0  0  0  0  0  0  0  0
   44.8124   21.0983   36.0314 H   0  0  0  0  0  0  0  0  0  0  0  0
   41.8531   20.6648   35.7349 H   0  0  0  0  0  0  0  0  0  0  0  0
   42.8677   20.6692   37.2174 H   0  0  0  0  0  0  0  0  0  0  0  0
   38.0095   22.6742   32.9919 H   0  0  0  0  0  0  0  0  0  0  0  0
   36.1296   27.1910   31.8507 H   0  0  0  0  0  0  0  0  0  0  0  0
   37.3327   28.6462   35.6552 H   0  0  0  0  0  0  0  0  0  0  0  0
  1  6  1  0
  2  1  2  0
  2  3  1  0
  3  7  1  0
  3  4  2  0
  4  5  1  0
  6  5  2  0
  7  8  1  0
  9  8  1  0
 10 11  1  0
 10  9  1  0
 11 12  1  0
 12  7  1  0
 13  1  1  0
 14 13  1  0
 15 16  1  0
 15 14  2  0
 16 21  2  0
 17 16  1  0
 17 18  2  0
 18 19  1  0
 19 20  2  0
 21 13  1  0
 21 20  1  0
  2 22  1  0
  5 23  1  0
  8 24  1  0
  8 25  1  0
  9 26  1  0
  9 27  1  0
 11 28  1  0
 11 29  1  0
 12 30  1  0
 12 31  1  0
 14 32  1  0
 17 33  1  0
 19 34  1  0
M  ISO  8  22  14  23  14  24  13  25  13  26  13  27  13  28  13  29  13
M  ISO  5  30  13  31  13  32  14  33  14  34  14
M  END
>  <minimizedAffinity>  (1) 
-4.80940485

>  <minimizedRMSD>  (1) 
6.06041288

$$$$
