
     RDKit          3D

 29 31  0  0  0  0  0  0  0  0999 V2000
   37.7630   21.9440   35.1960 C   0  0  0  0  0  0  0  0  0  0  0  0
   36.5490   21.4270   35.1000 C   0  0  0  0  0  0  0  0  0  0  0  0
   35.9940   20.8640   34.0510 C   0  0  0  0  0  0  0  0  0  0  0  0
   36.9310   20.8660   32.9190 C   0  0  0  0  0  0  0  0  0  0  0  0
   38.4750   21.6900   33.5520 S   0  0  0  0  0  0  0  0  0  0  0  0
   36.9500   20.4230   31.5250 N   0  0  0  0  0  0  0  0  0  0  0  0
   37.5150   21.2070   30.4450 C   0  0  0  0  0  0  0  0  0  0  0  0
   38.2360   20.1680   29.6030 C   0  0  0  0  0  0  0  0  0  0  0  0
   37.2530   19.3850   29.0410 O   0  0  0  0  0  0  0  0  0  0  0  0
   36.5520   18.6060   29.9490 C   0  0  0  0  0  0  0  0  0  0  0  0
   36.3700   19.1390   31.3100 C   0  0  0  0  0  0  0  0  0  0  0  0
   35.5070   18.1010   32.4200 S   0  0  0  0  0  0  0  0  0  0  0  0
   39.9380   22.8780   37.9230 C   0  0  0  0  0  0  0  0  0  0  0  0
   39.0850   23.6570   38.7440 C   0  0  0  0  0  0  0  0  0  0  0  0
   37.7570   23.8690   38.3740 C   0  0  0  0  0  0  0  0  0  0  0  0
   37.3760   23.2890   37.2130 N   0  0  0  0  0  0  0  0  0  0  0  0
   38.1910   22.5440   36.4270 C   0  0  0  0  0  0  0  0  0  0  0  0
   39.4520   22.3520   36.7950 N   0  0  0  0  0  0  0  0  0  0  0  0
   35.9298   21.4743   36.0080 H   0  0  0  0  0  0  0  0  0  0  0  0
   34.9750   20.4507   34.0238 H   0  0  0  0  0  0  0  0  0  0  0  0
   36.7250   21.7061   29.8646 H   0  0  0  0  0  0  0  0  0  0  0  0
   38.1766   22.0124   30.7966 H   0  0  0  0  0  0  0  0  0  0  0  0
   38.8298   20.6581   28.8174 H   0  0  0  0  0  0  0  0  0  0  0  0
   38.9298   19.5685   30.2107 H   0  0  0  0  0  0  0  0  0  0  0  0
   36.1461   17.6245   29.6630 H   0  0  0  0  0  0  0  0  0  0  0  0
   35.8060   18.4606   33.7077 H   0  0  0  0  0  0  0  0  0  0  0  0
   40.9862   22.7087   38.2106 H   0  0  0  0  0  0  0  0  0  0  0  0
   39.4714   24.0957   39.6758 H   0  0  0  0  0  0  0  0  0  0  0  0
   37.0659   24.4677   38.9854 H   0  0  0  0  0  0  0  0  0  0  0  0
  1 17  1  0
  2  1  2  0
  3  2  1  0
  4  5  1  0
  4  3  2  0
  5  1  1  0
  6  4  1  0
  7  6  1  0
  8  7  1  0
  9  8  1  0
  9 10  1  0
 10 11  2  0
 11  6  1  0
 11 12  1  0
 13 14  2  0
 15 14  1  0
 16 15  2  0
 17 18  2  0
 17 16  1  0
 18 13  1  0
  2 19  1  0
  3 20  1  0
  7 21  1  0
  7 22  1  0
  8 23  1  0
  8 24  1  0
 10 25  1  0
 12 26  1  0
 13 27  1  0
 14 28  1  0
 15 29  1  0
M  ISO  8  19  14  20  14  21  13  22  13  23  13  24  13  25  13  26  11
M  ISO  3  27  14  28  14  29  14
M  END
>  <minimizedAffinity>  (1) 
-4.42265129

>  <minimizedRMSD>  (1) 
0.656108201

$$$$
