
     RDKit          3D

 35 38  0  0  0  0  0  0  0  0999 V2000
   38.3090   22.0490   34.6400 C   0  0  0  0  0  0  0  0  0  0  0  0
   37.0590   21.8660   34.2240 C   0  0  0  0  0  0  0  0  0  0  0  0
   36.7020   21.4640   33.0500 C   0  0  0  0  0  0  0  0  0  0  0  0
   37.8630   21.2170   32.1820 C   0  0  0  0  0  0  0  0  0  0  0  0
   39.3640   21.6140   33.2060 S   0  0  0  0  0  0  0  0  0  0  0  0
   38.0990   20.7680   30.8070 N   0  0  0  0  0  0  0  0  0  0  0  0
   38.8740   21.6170   29.8710 C   0  0  0  0  0  0  0  0  0  0  0  0
   39.5760   20.6140   29.0240 C   0  0  0  0  0  0  0  0  0  0  0  0
   38.5590   20.0200   28.2600 O   0  0  0  0  0  0  0  0  0  0  0  0
   37.7860   19.1470   29.0380 C   0  0  0  0  0  0  0  0  0  0  0  0
   37.5230   19.5090   30.4560 C   0  0  0  0  0  0  0  0  0  0  0  0
   36.8150   18.5440   31.1610 N   0  0  0  0  0  0  0  0  0  0  0  0
   37.3520   17.3960   31.5400 C   0  0  0  0  0  0  0  0  0  0  0  0
   36.5340   16.6340   32.3300 C   0  0  0  0  0  0  0  0  0  0  0  0
   35.3870   17.3670   32.4580 N   0  0  0  0  0  0  0  0  0  0  0  0
   35.6120   18.4740   31.7530 C   0  0  0  0  0  0  0  0  0  0  0  0
   40.0770   22.6550   37.7250 C   0  0  0  0  0  0  0  0  0  0  0  0
   39.1070   23.2570   38.5480 C   0  0  0  0  0  0  0  0  0  0  0  0
   37.8370   23.4680   38.0560 C   0  0  0  0  0  0  0  0  0  0  0  0
   37.6200   23.0640   36.7790 N   0  0  0  0  0  0  0  0  0  0  0  0
   38.5490   22.4880   35.9940 C   0  0  0  0  0  0  0  0  0  0  0  0
   39.7640   22.2910   36.4750 N   0  0  0  0  0  0  0  0  0  0  0  0
   36.2561   22.0763   34.9459 H   0  0  0  0  0  0  0  0  0  0  0  0
   35.6568   21.3234   32.7373 H   0  0  0  0  0  0  0  0  0  0  0  0
   38.2084   22.2505   29.2663 H   0  0  0  0  0  0  0  0  0  0  0  0
   39.5569   22.3146   30.3779 H   0  0  0  0  0  0  0  0  0  0  0  0
   40.3144   21.1047   28.3728 H   0  0  0  0  0  0  0  0  0  0  0  0
   40.1308   19.8774   29.6237 H   0  0  0  0  0  0  0  0  0  0  0  0
   37.3838   18.2169   28.6100 H   0  0  0  0  0  0  0  0  0  0  0  0
   38.3646   17.0820   31.2468 H   0  0  0  0  0  0  0  0  0  0  0  0
   36.7518   15.6480   32.7663 H   0  0  0  0  0  0  0  0  0  0  0  0
   34.8641   19.2755   31.6620 H   0  0  0  0  0  0  0  0  0  0  0  0
   41.0934   22.4833   38.1090 H   0  0  0  0  0  0  0  0  0  0  0  0
   39.3604   23.5567   39.5756 H   0  0  0  0  0  0  0  0  0  0  0  0
   37.0470   23.9357   38.6620 H   0  0  0  0  0  0  0  0  0  0  0  0
  1 21  1  0
  2  1  2  0
  3  2  1  0
  4  3  2  0
  4  5  1  0
  5  1  1  0
  6  4  1  0
  7  6  1  0
  8  7  1  0
  9  8  1  0
  9 10  1  0
 10 11  2  0
 11  6  1  0
 11 12  1  0
 12 13  1  0
 12 16  1  0
 13 14  2  0
 14 15  1  0
 16 15  2  0
 17 18  2  0
 19 18  1  0
 20 19  2  0
 21 22  2  0
 21 20  1  0
 22 17  1  0
  2 23  1  0
  3 24  1  0
  7 25  1  0
  7 26  1  0
  8 27  1  0
  8 28  1  0
 10 29  1  0
 13 30  1  0
 14 31  1  0
 16 32  1  0
 17 33  1  0
 18 34  1  0
 19 35  1  0
M  ISO  8  23  14  24  14  25  13  26  13  27  13  28  13  29  13  30  14
M  ISO  5  31  14  32  14  33  14  34  14  35  14
M  END
>  <minimizedAffinity>  (1) 
-4.48731375

>  <minimizedRMSD>  (1) 
0.934525192

$$$$
