
     RDKit          3D

 30 32  0  0  0  0  0  0  0  0999 V2000
   37.5240   26.1640   33.4390 C   0  0  0  0  0  0  0  0  0  0  0  0
   38.8910   25.8950   33.3520 C   0  0  0  0  0  0  0  0  0  0  0  0
   39.7400   26.4040   34.3150 C   0  0  0  0  0  0  0  0  0  0  0  0
   39.2160   27.1470   35.3110 N   0  0  0  0  0  0  0  0  0  0  0  0
   37.8890   27.3970   35.3780 C   0  0  0  0  0  0  0  0  0  0  0  0
   37.0500   26.9150   34.4580 N   0  0  0  0  0  0  0  0  0  0  0  0
   41.1420   26.2290   34.3790 N   0  0  0  0  0  0  0  0  0  0  0  0
   42.1260   27.1130   33.7680 C   0  0  0  0  0  0  0  0  0  0  0  0
   42.9460   26.3350   32.7570 C   0  0  0  0  0  0  0  0  0  0  0  0
   42.7510   24.9710   32.9370 O   0  0  0  0  0  0  0  0  0  0  0  0
   42.9680   24.6080   34.2780 C   0  0  0  0  0  0  0  0  0  0  0  0
   41.7880   25.1170   35.0790 C   0  0  0  0  0  0  0  0  0  0  0  0
   36.6480   25.6370   32.4420 N   0  0  0  0  0  0  0  0  0  0  0  0
   35.7970   26.3090   31.7220 N   0  0  0  0  0  0  0  0  0  0  0  0
   35.1240   25.5180   30.8720 C   0  0  0  0  0  0  0  0  0  0  0  0
   35.6250   24.2550   31.1130 C   0  0  0  0  0  0  0  0  0  0  0  0
   36.5860   24.3390   32.1030 C   0  0  0  0  0  0  0  0  0  0  0  0
   39.2871   25.2852   32.5266 H   0  0  0  0  0  0  0  0  0  0  0  0
   37.4943   28.0073   36.2037 H   0  0  0  0  0  0  0  0  0  0  0  0
   41.6098   27.9418   33.2615 H   0  0  0  0  0  0  0  0  0  0  0  0
   42.7903   27.5159   34.5467 H   0  0  0  0  0  0  0  0  0  0  0  0
   44.0116   26.5718   32.8924 H   0  0  0  0  0  0  0  0  0  0  0  0
   42.6282   26.6147   31.7417 H   0  0  0  0  0  0  0  0  0  0  0  0
   43.0381   23.5137   34.3651 H   0  0  0  0  0  0  0  0  0  0  0  0
   43.9078   25.0408   34.6514 H   0  0  0  0  0  0  0  0  0  0  0  0
   42.1387   25.4620   36.0629 H   0  0  0  0  0  0  0  0  0  0  0  0
   41.0608   24.3011   35.2037 H   0  0  0  0  0  0  0  0  0  0  0  0
   34.3492   25.8100   30.1479 H   0  0  0  0  0  0  0  0  0  0  0  0
   35.3112   23.3331   30.6015 H   0  0  0  0  0  0  0  0  0  0  0  0
   37.1775   23.5135   32.5257 H   0  0  0  0  0  0  0  0  0  0  0  0
  1  6  1  0
  2  1  2  0
  2  3  1  0
  3  7  1  0
  3  4  2  0
  4  5  1  0
  6  5  2  0
  7 12  1  0
  8  7  1  0
  9 10  1  0
  9  8  1  0
 10 11  1  0
 11 12  1  0
 13  1  1  0
 14 13  1  0
 15 16  1  0
 15 14  2  0
 16 17  2  0
 17 13  1  0
  2 18  1  0
  5 19  1  0
  8 20  1  0
  8 21  1  0
  9 22  1  0
  9 23  1  0
 11 24  1  0
 11 25  1  0
 12 26  1  0
 12 27  1  0
 15 28  1  0
 16 29  1  0
 17 30  1  0
M  ISO  8  18  14  19  14  20  13  21  13  22  13  23  13  24  13  25  13
M  ISO  5  26  13  27  13  28  14  29  14  30  14
M  END
>  <minimizedAffinity>  (1) 
-4.13729906

>  <minimizedRMSD>  (1) 
6.47917175

$$$$
