
     RDKit          3D

 30 32  0  0  0  0  0  0  0  0999 V2000
   37.3850   27.5030   33.8940 C   0  0  0  0  0  0  0  0  0  0  0  0
   36.3200   28.2820   34.3470 C   0  0  0  0  0  0  0  0  0  0  0  0
   35.6800   29.1160   33.4530 C   0  0  0  0  0  0  0  0  0  0  0  0
   36.1210   29.1400   32.1610 N   0  0  0  0  0  0  0  0  0  0  0  0
   37.1440   28.3870   31.7400 C   0  0  0  0  0  0  0  0  0  0  0  0
   37.7820   27.5680   32.5920 N   0  0  0  0  0  0  0  0  0  0  0  0
   34.5900   29.9750   33.7230 N   0  0  0  0  0  0  0  0  0  0  0  0
   34.6970   31.3630   34.1560 C   0  0  0  0  0  0  0  0  0  0  0  0
   34.0330   31.5130   35.5030 C   0  0  0  0  0  0  0  0  0  0  0  0
   33.2570   30.3870   35.7950 O   0  0  0  0  0  0  0  0  0  0  0  0
   32.3790   30.1290   34.7530 C   0  0  0  0  0  0  0  0  0  0  0  0
   33.1880   29.5660   33.5970 C   0  0  0  0  0  0  0  0  0  0  0  0
   38.0740   26.6000   34.8730 C   0  0  0  0  0  0  0  0  0  0  0  0
   39.5110   26.9460   35.2190 C   0  0  0  0  0  0  0  0  0  0  0  0
   38.4040   27.0350   36.2330 C   0  0  0  0  0  0  0  0  0  0  0  0
   35.9965   28.2324   35.3972 H   0  0  0  0  0  0  0  0  0  0  0  0
   37.4645   28.4392   30.6890 H   0  0  0  0  0  0  0  0  0  0  0  0
   35.7577   31.6434   34.2350 H   0  0  0  0  0  0  0  0  0  0  0  0
   34.2024   32.0186   33.4241 H   0  0  0  0  0  0  0  0  0  0  0  0
   34.8062   31.6302   36.2766 H   0  0  0  0  0  0  0  0  0  0  0  0
   33.3807   32.3985   35.4813 H   0  0  0  0  0  0  0  0  0  0  0  0
   31.6227   29.3970   35.0727 H   0  0  0  0  0  0  0  0  0  0  0  0
   31.8608   31.0502   34.4484 H   0  0  0  0  0  0  0  0  0  0  0  0
   32.7812   29.9457   32.6481 H   0  0  0  0  0  0  0  0  0  0  0  0
   33.1283   28.4678   33.6143 H   0  0  0  0  0  0  0  0  0  0  0  0
   37.5241   25.7300   34.4847 H   0  0  0  0  0  0  0  0  0  0  0  0
   40.2704   26.1538   35.2939 H   0  0  0  0  0  0  0  0  0  0  0  0
   40.2753   27.6307   34.8228 H   0  0  0  0  0  0  0  0  0  0  0  0
   38.0668   28.0200   36.5880 H   0  0  0  0  0  0  0  0  0  0  0  0
   38.2438   26.6122   37.2358 H   0  0  0  0  0  0  0  0  0  0  0  0
  1  2  2  0
  1 13  1  0
  3  7  1  0
  3  2  1  0
  4  3  2  0
  5  4  1  0
  5  6  2  0
  6  1  1  0
  7  8  1  0
  8  9  1  0
  9 10  1  0
 11 10  1  0
 12  7  1  0
 12 11  1  0
 13 14  1  0
 13 15  1  0
 14 15  1  0
  2 16  1  0
  5 17  1  0
  8 18  1  0
  8 19  1  0
  9 20  1  0
  9 21  1  0
 11 22  1  0
 11 23  1  0
 12 24  1  0
 12 25  1  0
 13 26  1  0
 14 27  1  0
 14 28  1  0
 15 29  1  0
 15 30  1  0
M  ISO  8  16  14  17  14  18  13  19  13  20  13  21  13  22  13  23  13
M  ISO  7  24  13  25  13  26  13  27  13  28  13  29  13  30  13
M  END
>  <minimizedAffinity>  (1) 
-4.16115332

>  <minimizedRMSD>  (1) 
6.49676561

$$$$
