
     RDKit          3D

 25 26  0  0  0  0  0  0  0  0999 V2000
   39.0860   22.9990   38.0120 C   0  0  0  0  0  0  0  0  0  0  0  0
   38.5520   24.0130   37.2120 C   0  0  0  0  0  0  0  0  0  0  0  0
   39.2650   24.4190   36.1010 C   0  0  0  0  0  0  0  0  0  0  0  0
   40.4440   23.8090   35.8490 N   0  0  0  0  0  0  0  0  0  0  0  0
   40.9500   22.8410   36.6180 C   0  0  0  0  0  0  0  0  0  0  0  0
   40.2700   22.4310   37.7070 N   0  0  0  0  0  0  0  0  0  0  0  0
   38.8990   25.4220   35.1720 N   0  0  0  0  0  0  0  0  0  0  0  0
   39.2440   26.8370   35.2870 C   0  0  0  0  0  0  0  0  0  0  0  0
   37.9610   27.6490   35.3740 C   0  0  0  0  0  0  0  0  0  0  0  0
   36.8690   26.8700   34.9960 O   0  0  0  0  0  0  0  0  0  0  0  0
   37.1140   26.2770   33.7530 C   0  0  0  0  0  0  0  0  0  0  0  0
   38.1230   25.1770   33.9660 C   0  0  0  0  0  0  0  0  0  0  0  0
   38.3640   22.5850   39.1410 N   0  0  0  0  0  0  0  0  0  0  0  0
   37.5863   24.4769   37.4614 H   0  0  0  0  0  0  0  0  0  0  0  0
   41.9164   22.3811   36.3638 H   0  0  0  0  0  0  0  0  0  0  0  0
   39.8457   26.9983   36.1936 H   0  0  0  0  0  0  0  0  0  0  0  0
   39.8268   27.1521   34.4089 H   0  0  0  0  0  0  0  0  0  0  0  0
   37.8196   27.9943   36.4088 H   0  0  0  0  0  0  0  0  0  0  0  0
   38.0369   28.5118   34.6959 H   0  0  0  0  0  0  0  0  0  0  0  0
   37.5156   27.0245   33.0530 H   0  0  0  0  0  0  0  0  0  0  0  0
   36.1841   25.8723   33.3271 H   0  0  0  0  0  0  0  0  0  0  0  0
   37.5958   24.2166   34.0640 H   0  0  0  0  0  0  0  0  0  0  0  0
   38.8057   25.1495   33.1039 H   0  0  0  0  0  0  0  0  0  0  0  0
   38.7370   21.8395   39.7460 H   0  0  0  0  0  0  0  0  0  0  0  0
   37.4608   23.0265   39.3651 H   0  0  0  0  0  0  0  0  0  0  0  0
  1 13  1  0
  2  1  2  0
  3  2  1  0
  4  3  2  0
  4  5  1  0
  5  6  2  0
  6  1  1  0
  7  8  1  0
  7  3  1  0
  8  9  1  0
 10  9  1  0
 11 12  1  0
 11 10  1  0
 12  7  1  0
  2 14  1  0
  5 15  1  0
  8 16  1  0
  8 17  1  0
  9 18  1  0
  9 19  1  0
 11 20  1  0
 11 21  1  0
 12 22  1  0
 12 23  1  0
 13 24  1  0
 13 25  1  0
M  ISO  8  14  14  15  14  16  13  17  13  18  13  19  13  20  13  21  13
M  ISO  2  22  13  23  13
M  END
>  <minimizedAffinity>  (1) 
-4.42874336

>  <minimizedRMSD>  (1) 
0.0697469562

$$$$
