
     RDKit          3D

 28 30  0  0  0  0  0  0  0  0999 V2000
   37.2910   26.0870   33.5830 C   0  0  0  0  0  0  0  0  0  0  0  0
   38.1170   25.0530   34.0090 C   0  0  0  0  0  0  0  0  0  0  0  0
   38.9170   25.2540   35.1200 C   0  0  0  0  0  0  0  0  0  0  0  0
   38.8580   26.4580   35.7480 N   0  0  0  0  0  0  0  0  0  0  0  0
   38.0510   27.4400   35.3160 C   0  0  0  0  0  0  0  0  0  0  0  0
   37.2680   27.2620   34.2380 N   0  0  0  0  0  0  0  0  0  0  0  0
   39.8170   24.3270   35.6990 N   0  0  0  0  0  0  0  0  0  0  0  0
   41.2180   24.1790   35.3470 C   0  0  0  0  0  0  0  0  0  0  0  0
   41.4740   22.7860   34.8280 C   0  0  0  0  0  0  0  0  0  0  0  0
   40.3750   21.9600   35.1370 O   0  0  0  0  0  0  0  0  0  0  0  0
   40.0810   22.0350   36.4870 C   0  0  0  0  0  0  0  0  0  0  0  0
   39.4330   23.3800   36.7490 C   0  0  0  0  0  0  0  0  0  0  0  0
   36.4660   25.8300   32.4080 C   0  0  0  0  0  0  0  0  0  0  0  0
   35.8050   26.5910   31.5420 N   0  0  0  0  0  0  0  0  0  0  0  0
   35.2070   25.8620   30.6480 O   0  0  0  0  0  0  0  0  0  0  0  0
   35.4820   24.6110   30.9340 C   0  0  0  0  0  0  0  0  0  0  0  0
   36.2720   24.5600   32.0360 N   0  0  0  0  0  0  0  0  0  0  0  0
   38.1343   24.0927   33.4727 H   0  0  0  0  0  0  0  0  0  0  0  0
   38.0303   28.4013   35.8503 H   0  0  0  0  0  0  0  0  0  0  0  0
   41.4775   24.9115   34.5684 H   0  0  0  0  0  0  0  0  0  0  0  0
   41.8355   24.3509   36.2409 H   0  0  0  0  0  0  0  0  0  0  0  0
   42.3815   22.3803   35.2991 H   0  0  0  0  0  0  0  0  0  0  0  0
   41.6112   22.8207   33.7371 H   0  0  0  0  0  0  0  0  0  0  0  0
   39.3887   21.2263   36.7642 H   0  0  0  0  0  0  0  0  0  0  0  0
   40.9980   21.9286   37.0852 H   0  0  0  0  0  0  0  0  0  0  0  0
   39.7659   23.7621   37.7253 H   0  0  0  0  0  0  0  0  0  0  0  0
   38.3393   23.2628   36.7511 H   0  0  0  0  0  0  0  0  0  0  0  0
   35.1266   23.7378   30.3673 H   0  0  0  0  0  0  0  0  0  0  0  0
  1  2  2  0
  1  6  1  0
  2  3  1  0
  3  7  1  0
  3  4  2  0
  5  4  1  0
  6  5  2  0
  7 12  1  0
  8  7  1  0
  9 10  1  0
  9  8  1  0
 10 11  1  0
 11 12  1  0
 13  1  1  0
 14 13  2  0
 15 16  1  0
 15 14  1  0
 16 17  2  0
 17 13  1  0
  2 18  1  0
  5 19  1  0
  8 20  1  0
  8 21  1  0
  9 22  1  0
  9 23  1  0
 11 24  1  0
 11 25  1  0
 12 26  1  0
 12 27  1  0
 16 28  1  0
M  ISO  8  18  14  19  14  20  13  21  13  22  13  23  13  24  13  25  13
M  ISO  3  26  13  27  13  28  14
M  END
>  <minimizedAffinity>  (1) 
-4.22583818

>  <minimizedRMSD>  (1) 
6.41525745

$$$$
