
     RDKit          3D

 30 32  0  0  0  0  0  0  0  0999 V2000
   38.1600   24.4480   35.2770 C   0  0  0  0  0  0  0  0  0  0  0  0
   38.0410   23.6410   34.1500 C   0  0  0  0  0  0  0  0  0  0  0  0
   37.5570   24.1720   32.9720 C   0  0  0  0  0  0  0  0  0  0  0  0
   37.2120   25.4880   32.9670 N   0  0  0  0  0  0  0  0  0  0  0  0
   37.3300   26.2600   34.0620 C   0  0  0  0  0  0  0  0  0  0  0  0
   37.8030   25.7460   35.2160 N   0  0  0  0  0  0  0  0  0  0  0  0
   37.3720   23.5080   31.7470 N   0  0  0  0  0  0  0  0  0  0  0  0
   36.1380   22.8250   31.3470 C   0  0  0  0  0  0  0  0  0  0  0  0
   36.4370   21.3660   31.0990 C   0  0  0  0  0  0  0  0  0  0  0  0
   37.8230   21.1540   31.0340 O   0  0  0  0  0  0  0  0  0  0  0  0
   38.3890   22.0230   30.1070 C   0  0  0  0  0  0  0  0  0  0  0  0
   38.3850   23.4080   30.7070 C   0  0  0  0  0  0  0  0  0  0  0  0
   38.6580   23.8970   36.4850 N   0  0  0  0  0  0  0  0  0  0  0  0
   37.9350   24.2210   37.5900 C   0  0  0  0  0  0  0  0  0  0  0  0
   38.5500   23.6060   38.6780 C   0  0  0  0  0  0  0  0  0  0  0  0
   39.6060   22.9390   38.2270 N   0  0  0  0  0  0  0  0  0  0  0  0
   39.6680   23.1170   36.8950 C   0  0  0  0  0  0  0  0  0  0  0  0
   38.3323   22.5814   34.1980 H   0  0  0  0  0  0  0  0  0  0  0  0
   37.0383   27.3196   34.0161 H   0  0  0  0  0  0  0  0  0  0  0  0
   35.3903   22.9164   32.1486 H   0  0  0  0  0  0  0  0  0  0  0  0
   35.7429   23.2830   30.4282 H   0  0  0  0  0  0  0  0  0  0  0  0
   36.0167   20.7655   31.9192 H   0  0  0  0  0  0  0  0  0  0  0  0
   35.9854   21.0673   30.1415 H   0  0  0  0  0  0  0  0  0  0  0  0
   37.7984   22.0160   29.1790 H   0  0  0  0  0  0  0  0  0  0  0  0
   39.4166   21.7119   29.8678 H   0  0  0  0  0  0  0  0  0  0  0  0
   39.3733   23.6171   31.1425 H   0  0  0  0  0  0  0  0  0  0  0  0
   38.1578   24.1384   29.9165 H   0  0  0  0  0  0  0  0  0  0  0  0
   37.0335   24.8507   37.6193 H   0  0  0  0  0  0  0  0  0  0  0  0
   38.2194   23.6628   39.7256 H   0  0  0  0  0  0  0  0  0  0  0  0
   40.4366   22.6848   36.2373 H   0  0  0  0  0  0  0  0  0  0  0  0
  1 13  1  0
  2  1  2  0
  3  2  1  0
  4  3  2  0
  4  5  1  0
  5  6  2  0
  6  1  1  0
  7  3  1  0
  8  7  1  0
  9  8  1  0
 10  9  1  0
 11 12  1  0
 11 10  1  0
 12  7  1  0
 13 17  1  0
 13 14  1  0
 14 15  2  0
 16 15  1  0
 17 16  2  0
  2 18  1  0
  5 19  1  0
  8 20  1  0
  8 21  1  0
  9 22  1  0
  9 23  1  0
 11 24  1  0
 11 25  1  0
 12 26  1  0
 12 27  1  0
 14 28  1  0
 15 29  1  0
 17 30  1  0
M  ISO  8  18  14  19  14  20  13  21  13  22  13  23  13  24  13  25  13
M  ISO  5  26  13  27  13  28  14  29  14  30  14
M  END
>  <minimizedAffinity>  (1) 
-4.28756809

>  <minimizedRMSD>  (1) 
4.70691204

$$$$
