
     RDKit          3D

 29 29  0  0  0  0  0  0  0  0999 V2000
   41.6030   21.6930   36.7960 C   0  0  0  0  0  0  0  0  0  0  0  0
   40.4600   22.1750   37.4020 C   0  0  0  0  0  0  0  0  0  0  0  0
   39.6800   23.1330   36.7580 C   0  0  0  0  0  0  0  0  0  0  0  0
   40.0850   23.5580   35.5440 N   0  0  0  0  0  0  0  0  0  0  0  0
   41.2060   23.0750   34.9660 C   0  0  0  0  0  0  0  0  0  0  0  0
   41.9680   22.1560   35.5650 N   0  0  0  0  0  0  0  0  0  0  0  0
   42.3870   20.6590   37.5680 C   0  0  0  0  0  0  0  0  0  0  0  0
   43.1570   19.7730   36.6450 C   0  0  0  0  0  0  0  0  0  0  0  0
   38.4630   23.6880   37.3360 C   0  0  0  0  0  0  0  0  0  0  0  0
   38.6280   23.6980   38.8410 C   0  0  0  0  0  0  0  0  0  0  0  0
   38.1040   25.0580   36.8230 C   0  0  0  0  0  0  0  0  0  0  0  0
   37.2910   22.7680   37.0080 C   0  0  0  0  0  0  0  0  0  0  0  0
   37.5050   22.3730   35.6760 O   0  0  0  0  0  0  0  0  0  0  0  0
   40.1650   21.8024   38.3940 H   0  0  0  0  0  0  0  0  0  0  0  0
   41.4997   23.4490   33.9741 H   0  0  0  0  0  0  0  0  0  0  0  0
   43.0880   21.1701   38.2443 H   0  0  0  0  0  0  0  0  0  0  0  0
   41.6813   20.0397   38.1411 H   0  0  0  0  0  0  0  0  0  0  0  0
   43.7666   19.0716   37.2336 H   0  0  0  0  0  0  0  0  0  0  0  0
   42.4579   19.2082   36.0107 H   0  0  0  0  0  0  0  0  0  0  0  0
   43.8137   20.3865   36.0107 H   0  0  0  0  0  0  0  0  0  0  0  0
   37.6390   23.6381   39.3187 H   0  0  0  0  0  0  0  0  0  0  0  0
   39.2368   22.8351   39.1489 H   0  0  0  0  0  0  0  0  0  0  0  0
   39.1281   24.6281   39.1489 H   0  0  0  0  0  0  0  0  0  0  0  0
   37.9271   25.7331   37.6732 H   0  0  0  0  0  0  0  0  0  0  0  0
   38.9302   25.4483   36.2106 H   0  0  0  0  0  0  0  0  0  0  0  0
   37.1926   24.9930   36.2106 H   0  0  0  0  0  0  0  0  0  0  0  0
   37.2865   21.8936   37.6753 H   0  0  0  0  0  0  0  0  0  0  0  0
   36.3207   23.2688   37.1413 H   0  0  0  0  0  0  0  0  0  0  0  0
   37.9765   21.5026   35.6616 H   0  0  0  0  0  0  0  0  0  0  0  0
  1  2  2  0
  1  7  1  0
  3  9  1  0
  3  2  1  0
  4  3  2  0
  5  4  1  0
  5  6  2  0
  6  1  1  0
  8  7  1  0
  9 10  1  0
 11  9  1  0
 12  9  1  0
 13 12  1  0
  2 14  1  0
  5 15  1  0
  7 16  1  0
  7 17  1  0
  8 18  1  0
  8 19  1  0
  8 20  1  0
 10 21  1  0
 10 22  1  0
 10 23  1  0
 11 24  1  0
 11 25  1  0
 11 26  1  0
 12 27  1  0
 12 28  1  0
 13 29  1  0
M  ISO  8  14  14  15  14  16   8  17   8  18   8  19   8  20   8  21   8
M  ISO  8  22   8  23   8  24   8  25   8  26   8  27   8  28   8  29   3
M  END
>  <minimizedAffinity>  (1) 
-3.62108898

>  <minimizedRMSD>  (1) 
0.403442651

$$$$
