
     RDKit          3D

 29 30  0  0  0  0  0  0  0  0999 V2000
   39.2000   23.2070   37.2730 C   0  0  0  0  0  0  0  0  0  0  0  0
   38.6740   24.0020   36.2490 C   0  0  0  0  0  0  0  0  0  0  0  0
   39.1750   23.8360   34.9710 C   0  0  0  0  0  0  0  0  0  0  0  0
   40.1570   22.9040   34.7690 N   0  0  0  0  0  0  0  0  0  0  0  0
   40.6390   22.1580   35.7710 C   0  0  0  0  0  0  0  0  0  0  0  0
   40.1760   22.2960   37.0140 N   0  0  0  0  0  0  0  0  0  0  0  0
   38.7780   24.5350   33.8070 N   0  0  0  0  0  0  0  0  0  0  0  0
   39.3520   25.7700   33.3290 C   0  0  0  0  0  0  0  0  0  0  0  0
   38.2910   26.8440   33.3100 C   0  0  0  0  0  0  0  0  0  0  0  0
   37.0290   26.2750   33.4150 O   0  0  0  0  0  0  0  0  0  0  0  0
   36.8560   25.2490   32.4750 C   0  0  0  0  0  0  0  0  0  0  0  0
   37.7030   24.0710   32.9260 C   0  0  0  0  0  0  0  0  0  0  0  0
   38.6600   23.3880   38.6440 C   0  0  0  0  0  0  0  0  0  0  0  0
   37.9160   24.6680   38.8370 C   0  0  0  0  0  0  0  0  0  0  0  0
   37.8836   24.7388   36.4549 H   0  0  0  0  0  0  0  0  0  0  0  0
   41.4287   21.4203   35.5658 H   0  0  0  0  0  0  0  0  0  0  0  0
   40.1714   26.0759   33.9961 H   0  0  0  0  0  0  0  0  0  0  0  0
   39.7431   25.6229   32.3114 H   0  0  0  0  0  0  0  0  0  0  0  0
   38.4521   27.5286   34.1558 H   0  0  0  0  0  0  0  0  0  0  0  0
   38.3572   27.3963   32.3610 H   0  0  0  0  0  0  0  0  0  0  0  0
   37.1844   25.5897   31.4820 H   0  0  0  0  0  0  0  0  0  0  0  0
   35.7966   24.9611   32.4053 H   0  0  0  0  0  0  0  0  0  0  0  0
   37.0701   23.3543   33.4698 H   0  0  0  0  0  0  0  0  0  0  0  0
   38.1440   23.5844   32.0435 H   0  0  0  0  0  0  0  0  0  0  0  0
   37.9761   22.5539   38.8598 H   0  0  0  0  0  0  0  0  0  0  0  0
   39.5226   23.4141   39.3261 H   0  0  0  0  0  0  0  0  0  0  0  0
   37.8007   24.8664   39.9128 H   0  0  0  0  0  0  0  0  0  0  0  0
   38.4761   25.4916   38.3702 H   0  0  0  0  0  0  0  0  0  0  0  0
   36.9231   24.5890   38.3702 H   0  0  0  0  0  0  0  0  0  0  0  0
  1 13  1  0
  2  1  2  0
  3  2  1  0
  4  3  2  0
  4  5  1  0
  5  6  2  0
  6  1  1  0
  7  3  1  0
  8  7  1  0
  9  8  1  0
  9 10  1  0
 11 12  1  0
 11 10  1  0
 12  7  1  0
 13 14  1  0
  2 15  1  0
  5 16  1  0
  8 17  1  0
  8 18  1  0
  9 19  1  0
  9 20  1  0
 11 21  1  0
 11 22  1  0
 12 23  1  0
 12 24  1  0
 13 25  1  0
 13 26  1  0
 14 27  1  0
 14 28  1  0
 14 29  1  0
M  ISO  8  15  14  16  14  17  13  18  13  19  13  20  13  21  13  22  13
M  ISO  7  23  13  24  13  25   8  26   8  27   8  28   8  29   8
M  END
>  <minimizedAffinity>  (1) 
-3.87470317

>  <minimizedRMSD>  (1) 
1.51832032

$$$$
