
     RDKit          3D

 32 33  0  0  0  0  0  0  0  0999 V2000
   39.4250   23.1560   37.3320 C   0  0  0  0  0  0  0  0  0  0  0  0
   39.5050   24.0080   36.2290 C   0  0  0  0  0  0  0  0  0  0  0  0
   40.6750   24.0260   35.4850 C   0  0  0  0  0  0  0  0  0  0  0  0
   41.7050   23.2080   35.8630 N   0  0  0  0  0  0  0  0  0  0  0  0
   41.5980   22.4010   36.9260 C   0  0  0  0  0  0  0  0  0  0  0  0
   40.4650   22.3710   37.6610 N   0  0  0  0  0  0  0  0  0  0  0  0
   40.9420   24.8240   34.3370 N   0  0  0  0  0  0  0  0  0  0  0  0
   41.5190   26.1710   34.3990 C   0  0  0  0  0  0  0  0  0  0  0  0
   40.5470   27.1540   33.7890 C   0  0  0  0  0  0  0  0  0  0  0  0
   39.5510   26.4710   33.0920 O   0  0  0  0  0  0  0  0  0  0  0  0
   40.1100   25.5780   32.1840 C   0  0  0  0  0  0  0  0  0  0  0  0
   40.6780   24.4070   32.9790 C   0  0  0  0  0  0  0  0  0  0  0  0
   38.1640   23.1480   38.1200 C   0  0  0  0  0  0  0  0  0  0  0  0
   37.9620   24.5190   38.6940 C   0  0  0  0  0  0  0  0  0  0  0  0
   37.0560   22.8050   37.1490 C   0  0  0  0  0  0  0  0  0  0  0  0
   38.6565   24.6524   35.9555 H   0  0  0  0  0  0  0  0  0  0  0  0
   42.4432   21.7544   37.2043 H   0  0  0  0  0  0  0  0  0  0  0  0
   41.7081   26.4428   35.4480 H   0  0  0  0  0  0  0  0  0  0  0  0
   42.4674   26.1938   33.8422 H   0  0  0  0  0  0  0  0  0  0  0  0
   40.0864   27.7539   34.5877 H   0  0  0  0  0  0  0  0  0  0  0  0
   41.0882   27.8116   33.0928 H   0  0  0  0  0  0  0  0  0  0  0  0
   40.9135   26.0721   31.6182 H   0  0  0  0  0  0  0  0  0  0  0  0
   39.3507   25.2276   31.4694 H   0  0  0  0  0  0  0  0  0  0  0  0
   39.9509   23.5816   32.9846 H   0  0  0  0  0  0  0  0  0  0  0  0
   41.6153   24.0698   32.5123 H   0  0  0  0  0  0  0  0  0  0  0  0
   38.1840   22.4225   38.9466 H   0  0  0  0  0  0  0  0  0  0  0  0
   37.9705   24.4615   39.7925 H   0  0  0  0  0  0  0  0  0  0  0  0
   38.7722   25.1814   38.3552 H   0  0  0  0  0  0  0  0  0  0  0  0
   36.9951   24.9195   38.3552 H   0  0  0  0  0  0  0  0  0  0  0  0
   36.1515   22.5250   37.7089 H   0  0  0  0  0  0  0  0  0  0  0  0
   36.8398   23.6783   36.5160 H   0  0  0  0  0  0  0  0  0  0  0  0
   37.3710   21.9623   36.5160 H   0  0  0  0  0  0  0  0  0  0  0  0
  1  6  2  0
  1 13  1  0
  2  1  1  0
  3  4  1  0
  3  2  2  0
  4  5  2  0
  5  6  1  0
  7  8  1  0
  7  3  1  0
  9  8  1  0
 10  9  1  0
 11 12  1  0
 11 10  1  0
 12  7  1  0
 13 14  1  0
 15 13  1  0
  2 16  1  0
  5 17  1  0
  8 18  1  0
  8 19  1  0
  9 20  1  0
  9 21  1  0
 11 22  1  0
 11 23  1  0
 12 24  1  0
 12 25  1  0
 13 26  1  0
 14 27  1  0
 14 28  1  0
 14 29  1  0
 15 30  1  0
 15 31  1  0
 15 32  1  0
M  ISO  8  16  14  17  14  18  13  19  13  20  13  21  13  22  13  23  13
M  ISO  8  24  13  25  13  26   8  27   8  28   8  29   8  30   8  31   8
M  ISO  1  32   8
M  END
>  <minimizedAffinity>  (1) 
-3.85721159

>  <minimizedRMSD>  (1) 
2.08676434

$$$$
