
     RDKit          3D

 41 44  0  0  1  0  0  0  0  0999 V2000
   40.0010   23.3130   36.0540 C   0  0  0  0  0  0  0  0  0  0  0  0
   41.2370   23.8980   35.7450 C   0  0  0  0  0  0  0  0  0  0  0  0
   42.3920   23.2930   36.1830 C   0  0  0  0  0  0  0  0  0  0  0  0
   42.2960   22.1480   36.8990 N   0  0  0  0  0  0  0  0  0  0  0  0
   41.1080   21.5940   37.1900 C   0  0  0  0  0  0  0  0  0  0  0  0
   39.9730   22.1510   36.7850 N   0  0  0  0  0  0  0  0  0  0  0  0
   43.7150   23.7280   35.9660 N   0  0  0  0  0  0  0  0  0  0  0  0
   44.4710   24.6130   36.8090 C   0  0  0  0  0  0  0  0  0  0  0  0
   44.8440   25.8630   36.0460 C   0  0  0  0  0  0  0  0  0  0  0  0
   44.6440   25.6670   34.6770 O   0  0  0  0  0  0  0  0  0  0  0  0
   45.3040   24.5100   34.2730 C   0  0  0  0  0  0  0  0  0  0  0  0
   44.5400   23.3270   34.8150 C   0  0  0  0  0  0  0  0  0  0  0  0
   38.8300   23.9680   35.5400 C   0  0  0  0  0  0  0  0  0  0  0  0
   37.9660   24.5090   36.3420 O   0  0  0  0  0  0  0  0  0  0  0  0
   38.2570   24.2390   34.2230 C   0  0  0  0  0  0  0  0  0  0  0  0
   38.3420   25.4770   33.7130 N   0  0  0  0  0  0  0  0  0  0  0  0
   37.8290   25.7960   32.4840 C   0  0  0  0  0  0  0  0  0  0  0  0
   37.2070   24.8930   31.7100 N   0  0  0  0  0  0  0  0  0  0  0  0
   37.0810   23.6360   32.1500 C   0  0  0  0  0  0  0  0  0  0  0  0
   36.4410   22.6930   31.3790 C   0  0  0  0  0  0  0  0  0  0  0  0
   36.2930   21.3940   31.8170 C   0  0  0  0  0  0  0  0  0  0  0  0
   36.8210   21.0790   33.0750 C   0  0  0  0  0  0  0  0  0  0  0  0
   37.4490   22.0650   33.7970 C   0  0  0  0  0  0  0  0  0  0  0  0
   37.6100   23.3560   33.3890 C   0  0  0  0  0  0  0  0  0  0  0  0
   41.2825   24.8285   35.1601 H   0  0  0  0  0  0  0  0  0  0  0  0
   41.0746   20.6625   37.7741 H   0  0  0  0  0  0  0  0  0  0  0  0
   43.8645   24.8883   37.6844 H   0  0  0  0  0  0  0  0  0  0  0  0
   45.3891   24.1028   37.1358 H   0  0  0  0  0  0  0  0  0  0  0  0
   44.2175   26.6994   36.3892 H   0  0  0  0  0  0  0  0  0  0  0  0
   45.9048   26.0919   36.2260 H   0  0  0  0  0  0  0  0  0  0  0  0
   45.3365   24.4625   33.1745 H   0  0  0  0  0  0  0  0  0  0  0  0
   46.3366   24.5056   34.6522 H   0  0  0  0  0  0  0  0  0  0  0  0
   43.8883   22.9247   34.0254 H   0  0  0  0  0  0  0  0  0  0  0  0
   45.2577   22.5604   35.1423 H   0  0  0  0  0  0  0  0  0  0  0  0
   38.2780   23.0176   35.5864 H   0  0  0  0  0  0  0  0  0  0  0  0
   38.2353   24.3404   37.2796 H   0  0  0  0  0  0  0  0  0  0  0  0
   37.9303   26.8285   32.1184 H   0  0  0  0  0  0  0  0  0  0  0  0
   36.0403   22.9806   30.3958 H   0  0  0  0  0  0  0  0  0  0  0  0
   35.7817   20.6371   31.2040 H   0  0  0  0  0  0  0  0  0  0  0  0
   36.7345   20.0593   33.4785 H   0  0  0  0  0  0  0  0  0  0  0  0
   37.8540   21.7911   34.7824 H   0  0  0  0  0  0  0  0  0  0  0  0
  1  6  1  0
  2  1  2  0
  2  3  1  0
  3  4  2  0
  4  5  1  0
  6  5  2  0
  7  3  1  0
  7  8  1  0
  9  8  1  0
 10  9  1  0
 11 10  1  0
 11 12  1  0
 12  7  1  0
 13  1  1  0
 13 14  1  0
 15 13  1  0
 16 15  2  0
 17 16  1  0
 18 19  1  0
 18 17  2  0
 19 24  2  0
 20 21  2  0
 20 19  1  0
 21 22  1  0
 22 23  2  0
 24 23  1  0
 24 15  1  0
  2 25  1  0
  5 26  1  0
  8 27  1  0
  8 28  1  0
  9 29  1  0
  9 30  1  0
 11 31  1  0
 11 32  1  0
 12 33  1  0
 12 34  1  0
 13 35  1  0
 14 36  1  0
 17 37  1  0
 20 38  1  0
 21 39  1  0
 22 40  1  0
 23 41  1  0
M  ISO  8  25  14  26  14  27  13  28  13  29  13  30  13  31  13  32  13
M  ISO  8  33  13  34  13  35   8  36   3  37  14  38  14  39  14  40  14
M  ISO  1  41  14
M  END
>  <minimizedAffinity>  (1) 
-5.0644846

>  <minimizedRMSD>  (1) 
6.73902512

$$$$
