
     RDKit          3D

 41 44  0  0  0  0  0  0  0  0999 V2000
   39.7300   23.1440   36.3610 C   0  0  0  0  0  0  0  0  0  0  0  0
   40.8040   23.7550   35.7220 C   0  0  0  0  0  0  0  0  0  0  0  0
   42.0690   23.2700   35.9690 C   0  0  0  0  0  0  0  0  0  0  0  0
   42.2170   22.2250   36.8180 N   0  0  0  0  0  0  0  0  0  0  0  0
   41.1670   21.6610   37.4160 C   0  0  0  0  0  0  0  0  0  0  0  0
   39.9250   22.1000   37.2050 N   0  0  0  0  0  0  0  0  0  0  0  0
   43.2870   23.7500   35.4200 N   0  0  0  0  0  0  0  0  0  0  0  0
   44.1270   24.7820   35.9660 C   0  0  0  0  0  0  0  0  0  0  0  0
   44.2320   25.9310   34.9840 C   0  0  0  0  0  0  0  0  0  0  0  0
   43.7570   25.5340   33.7220 O   0  0  0  0  0  0  0  0  0  0  0  0
   44.4170   24.3740   33.3430 C   0  0  0  0  0  0  0  0  0  0  0  0
   43.8750   23.2330   34.1760 C   0  0  0  0  0  0  0  0  0  0  0  0
   38.4200   23.7000   36.0580 C   0  0  0  0  0  0  0  0  0  0  0  0
   38.1310   24.9360   36.2240 O   0  0  0  0  0  0  0  0  0  0  0  0
   37.5410   22.6460   35.5570 C   0  0  0  0  0  0  0  0  0  0  0  0
   36.7060   21.9230   36.4130 C   0  0  0  0  0  0  0  0  0  0  0  0
   35.8490   20.9220   36.0100 C   0  0  0  0  0  0  0  0  0  0  0  0
   35.8010   20.6010   34.6700 C   0  0  0  0  0  0  0  0  0  0  0  0
   36.6020   21.2820   33.7750 C   0  0  0  0  0  0  0  0  0  0  0  0
   36.5550   20.9610   32.4340 C   0  0  0  0  0  0  0  0  0  0  0  0
   37.3330   21.6060   31.4950 C   0  0  0  0  0  0  0  0  0  0  0  0
   38.1660   22.5950   31.9690 C   0  0  0  0  0  0  0  0  0  0  0  0
   38.2100   22.9120   33.3090 C   0  0  0  0  0  0  0  0  0  0  0  0
   37.4390   22.2740   34.2420 C   0  0  0  0  0  0  0  0  0  0  0  0
   40.6471   24.6023   35.0382 H   0  0  0  0  0  0  0  0  0  0  0  0
   41.3287   20.8141   38.0991 H   0  0  0  0  0  0  0  0  0  0  0  0
   43.6925   25.1459   36.9088 H   0  0  0  0  0  0  0  0  0  0  0  0
   45.1303   24.3721   36.1542 H   0  0  0  0  0  0  0  0  0  0  0  0
   43.6314   26.7772   35.3489 H   0  0  0  0  0  0  0  0  0  0  0  0
   45.2863   26.2313   34.8932 H   0  0  0  0  0  0  0  0  0  0  0  0
   44.2384   24.1747   32.2761 H   0  0  0  0  0  0  0  0  0  0  0  0
   45.5001   24.4818   33.5020 H   0  0  0  0  0  0  0  0  0  0  0  0
   43.1025   22.6992   33.6029 H   0  0  0  0  0  0  0  0  0  0  0  0
   44.6978   22.5468   34.4250 H   0  0  0  0  0  0  0  0  0  0  0  0
   36.7349   22.1705   37.4844 H   0  0  0  0  0  0  0  0  0  0  0  0
   35.2187   20.3921   36.7394 H   0  0  0  0  0  0  0  0  0  0  0  0
   35.1279   19.8063   34.3157 H   0  0  0  0  0  0  0  0  0  0  0  0
   35.8739   20.1635   32.1023 H   0  0  0  0  0  0  0  0  0  0  0  0
   37.2904   21.3450   30.4273 H   0  0  0  0  0  0  0  0  0  0  0  0
   38.8087   23.1425   31.2639 H   0  0  0  0  0  0  0  0  0  0  0  0
   38.8914   23.7089   33.6417 H   0  0  0  0  0  0  0  0  0  0  0  0
  1  6  2  0
  2  3  2  0
  2  1  1  0
  3  4  1  0
  4  5  2  0
  6  5  1  0
  7  8  1  0
  7  3  1  0
  9  8  1  0
 10  9  1  0
 11 10  1  0
 11 12  1  0
 12  7  1  0
 13 14  2  0
 13  1  1  0
 15 13  1  0
 15 16  2  0
 17 16  1  0
 18 17  2  0
 19 24  2  0
 19 18  1  0
 20 19  1  0
 21 22  1  0
 21 20  2  0
 22 23  2  0
 23 24  1  0
 24 15  1  0
  2 25  1  0
  5 26  1  0
  8 27  1  0
  8 28  1  0
  9 29  1  0
  9 30  1  0
 11 31  1  0
 11 32  1  0
 12 33  1  0
 12 34  1  0
 16 35  1  0
 17 36  1  0
 18 37  1  0
 20 38  1  0
 21 39  1  0
 22 40  1  0
 23 41  1  0
M  ISO  8  25  14  26  14  27  13  28  13  29  13  30  13  31  13  32  13
M  ISO  8  33  13  34  13  35  14  36  14  37  14  38  14  39  14  40  14
M  ISO  1  41  14
M  END
>  <minimizedAffinity>  (1) 
-5.05776978

>  <minimizedRMSD>  (1) 
4.50548029

$$$$
