
     RDKit          3D

 40 42  0  0  0  0  0  0  0  0999 V2000
   39.8890   23.1800   35.6000 C   0  0  0  0  0  0  0  0  0  0  0  0
   41.1310   23.7130   35.3250 C   0  0  0  0  0  0  0  0  0  0  0  0
   42.2040   23.3270   36.0870 C   0  0  0  0  0  0  0  0  0  0  0  0
   42.0080   22.4320   37.0870 N   0  0  0  0  0  0  0  0  0  0  0  0
   40.8020   21.9240   37.3420 C   0  0  0  0  0  0  0  0  0  0  0  0
   39.7330   22.2820   36.6150 N   0  0  0  0  0  0  0  0  0  0  0  0
   43.5560   23.7680   35.9530 N   0  0  0  0  0  0  0  0  0  0  0  0
   44.1360   24.9160   36.6230 C   0  0  0  0  0  0  0  0  0  0  0  0
   44.6150   25.9130   35.5980 C   0  0  0  0  0  0  0  0  0  0  0  0
   44.6400   25.3240   34.3150 O   0  0  0  0  0  0  0  0  0  0  0  0
   45.3740   24.1550   34.3780 C   0  0  0  0  0  0  0  0  0  0  0  0
   44.5490   23.1010   35.1010 C   0  0  0  0  0  0  0  0  0  0  0  0
   38.7870   23.6020   34.7880 C   0  0  0  0  0  0  0  0  0  0  0  0
   38.2980   22.9570   33.8220 O   0  0  0  0  0  0  0  0  0  0  0  0
   38.1150   24.8380   35.0080 N   0  0  0  0  0  0  0  0  0  0  0  0
   37.7900   25.7010   33.8880 C   0  0  0  0  0  0  0  0  0  0  0  0
   37.1100   26.9410   34.3600 C   0  0  0  0  0  0  0  0  0  0  0  0
   37.9800   27.6590   35.3650 C   0  0  0  0  0  0  0  0  0  0  0  0
   38.4500   26.7090   36.4180 C   0  0  0  0  0  0  0  0  0  0  0  0
   37.6810   25.3920   36.2920 C   0  0  0  0  0  0  0  0  0  0  0  0
   41.2590   24.4369   34.5067 H   0  0  0  0  0  0  0  0  0  0  0  0
   40.6817   21.2000   38.1613 H   0  0  0  0  0  0  0  0  0  0  0  0
   43.3769   25.3871   37.2647 H   0  0  0  0  0  0  0  0  0  0  0  0
   44.9869   24.5879   37.2381 H   0  0  0  0  0  0  0  0  0  0  0  0
   43.9347   26.7774   35.5872 H   0  0  0  0  0  0  0  0  0  0  0  0
   45.6324   26.2370   35.8626 H   0  0  0  0  0  0  0  0  0  0  0  0
   45.6073   23.8089   33.3603 H   0  0  0  0  0  0  0  0  0  0  0  0
   46.3151   24.3315   34.9194 H   0  0  0  0  0  0  0  0  0  0  0  0
   44.0350   22.4664   34.3641 H   0  0  0  0  0  0  0  0  0  0  0  0
   45.2084   22.4757   35.7208 H   0  0  0  0  0  0  0  0  0  0  0  0
   37.1225   25.1628   33.1989 H   0  0  0  0  0  0  0  0  0  0  0  0
   38.7217   25.9813   33.3747 H   0  0  0  0  0  0  0  0  0  0  0  0
   36.9233   27.6030   33.5015 H   0  0  0  0  0  0  0  0  0  0  0  0
   36.1568   26.6698   34.8373 H   0  0  0  0  0  0  0  0  0  0  0  0
   38.8514   28.0885   34.8490 H   0  0  0  0  0  0  0  0  0  0  0  0
   37.3918   28.4575   35.8409 H   0  0  0  0  0  0  0  0  0  0  0  0
   39.5259   26.5200   36.2884 H   0  0  0  0  0  0  0  0  0  0  0  0
   38.2732   27.1448   37.4124 H   0  0  0  0  0  0  0  0  0  0  0  0
   36.5961   25.5734   36.2908 H   0  0  0  0  0  0  0  0  0  0  0  0
   37.8787   24.7092   37.1315 H   0  0  0  0  0  0  0  0  0  0  0  0
  1  6  1  0
  2  1  2  0
  2  3  1  0
  3  4  2  0
  4  5  1  0
  6  5  2  0
  7  3  1  0
  7  8  1  0
  9  8  1  0
 10 11  1  0
 10  9  1  0
 11 12  1  0
 12  7  1  0
 13 15  1  0
 13  1  1  0
 14 13  2  0
 15 20  1  0
 16 17  1  0
 16 15  1  0
 17 18  1  0
 18 19  1  0
 20 19  1  0
  2 21  1  0
  5 22  1  0
  8 23  1  0
  8 24  1  0
  9 25  1  0
  9 26  1  0
 11 27  1  0
 11 28  1  0
 12 29  1  0
 12 30  1  0
 16 31  1  0
 16 32  1  0
 17 33  1  0
 17 34  1  0
 18 35  1  0
 18 36  1  0
 19 37  1  0
 19 38  1  0
 20 39  1  0
 20 40  1  0
M  ISO  8  21  14  22  14  23  13  24  13  25  13  26  13  27  13  28  13
M  ISO  8  29  13  30  13  31  13  32  13  33  13  34  13  35  13  36  13
M  ISO  4  37  13  38  13  39  13  40  13
M  END
>  <minimizedAffinity>  (1) 
-4.78522825

>  <minimizedRMSD>  (1) 
5.77878428

$$$$
