
     RDKit          3D

 32 34  0  0  0  0  0  0  0  0999 V2000
   41.1850   22.7940   36.7950 C   0  0  0  0  0  0  0  0  0  0  0  0
   40.7180   23.6130   35.7790 C   0  0  0  0  0  0  0  0  0  0  0  0
   39.4420   24.1080   35.8700 C   0  0  0  0  0  0  0  0  0  0  0  0
   38.6920   23.7840   36.9350 N   0  0  0  0  0  0  0  0  0  0  0  0
   39.1620   22.9880   37.9100 C   0  0  0  0  0  0  0  0  0  0  0  0
   40.3870   22.4920   37.8570 N   0  0  0  0  0  0  0  0  0  0  0  0
   38.7880   24.9640   34.9290 N   0  0  0  0  0  0  0  0  0  0  0  0
   38.0010   24.5310   33.8020 C   0  0  0  0  0  0  0  0  0  0  0  0
   38.6230   25.0380   32.5210 C   0  0  0  0  0  0  0  0  0  0  0  0
   39.5970   26.0050   32.8040 O   0  0  0  0  0  0  0  0  0  0  0  0
   39.0320   27.0020   33.6020 C   0  0  0  0  0  0  0  0  0  0  0  0
   38.8370   26.4310   34.9910 C   0  0  0  0  0  0  0  0  0  0  0  0
   42.5420   22.3070   36.6300 C   0  0  0  0  0  0  0  0  0  0  0  0
   43.5630   23.0610   36.5200 O   0  0  0  0  0  0  0  0  0  0  0  0
   42.7850   20.8490   36.5820 C   0  0  0  0  0  0  0  0  0  0  0  0
   43.2170   20.1810   35.4340 C   0  0  0  0  0  0  0  0  0  0  0  0
   43.3120   18.8890   35.8090 N   0  0  0  0  0  0  0  0  0  0  0  0
   42.9570   18.8000   37.1010 C   0  0  0  0  0  0  0  0  0  0  0  0
   42.6280   19.9880   37.6020 N   0  0  0  0  0  0  0  0  0  0  0  0
   41.3568   23.8606   34.9184 H   0  0  0  0  0  0  0  0  0  0  0  0
   38.5169   22.7446   38.7671 H   0  0  0  0  0  0  0  0  0  0  0  0
   37.9659   23.4318   33.7813 H   0  0  0  0  0  0  0  0  0  0  0  0
   36.9808   24.9316   33.8949 H   0  0  0  0  0  0  0  0  0  0  0  0
   37.8408   25.4845   31.8895 H   0  0  0  0  0  0  0  0  0  0  0  0
   39.0964   24.1960   31.9948 H   0  0  0  0  0  0  0  0  0  0  0  0
   39.7045   27.8713   33.6462 H   0  0  0  0  0  0  0  0  0  0  0  0
   38.0687   27.3285   33.1830 H   0  0  0  0  0  0  0  0  0  0  0  0
   37.8936   26.8095   35.4113 H   0  0  0  0  0  0  0  0  0  0  0  0
   39.6792   26.7375   35.6288 H   0  0  0  0  0  0  0  0  0  0  0  0
   43.4317   20.6123   34.4451 H   0  0  0  0  0  0  0  0  0  0  0  0
   42.9402   17.8613   37.6742 H   0  0  0  0  0  0  0  0  0  0  0  0
   42.3203   20.2011   38.5616 H   0  0  0  0  0  0  0  0  0  0  0  0
  1  6  2  0
  2  3  2  0
  2  1  1  0
  3  4  1  0
  4  5  2  0
  6  5  1  0
  7 12  1  0
  7  3  1  0
  8  7  1  0
  9 10  1  0
  9  8  1  0
 10 11  1  0
 11 12  1  0
 13  1  1  0
 14 13  2  0
 15 13  1  0
 15 19  1  0
 16 17  1  0
 16 15  2  0
 17 18  2  0
 18 19  1  0
  2 20  1  0
  5 21  1  0
  8 22  1  0
  8 23  1  0
  9 24  1  0
  9 25  1  0
 11 26  1  0
 11 27  1  0
 12 28  1  0
 12 29  1  0
 16 30  1  0
 18 31  1  0
 19 32  1  0
M  ISO  8  20  14  21  14  22  13  23  13  24  13  25  13  26  13  27  13
M  ISO  5  28  13  29  13  30  14  31  14  32   9
M  END
>  <minimizedAffinity>  (1) 
-4.35640717

>  <minimizedRMSD>  (1) 
5.20868301

$$$$
