
     RDKit          3D

 32 34  0  0  0  0  0  0  0  0999 V2000
   38.8510   23.7280   36.0030 C   0  0  0  0  0  0  0  0  0  0  0  0
   38.4940   22.8180   35.0090 C   0  0  0  0  0  0  0  0  0  0  0  0
   37.9540   23.2940   33.8410 C   0  0  0  0  0  0  0  0  0  0  0  0
   37.7850   24.6400   33.6920 N   0  0  0  0  0  0  0  0  0  0  0  0
   38.1410   25.4880   34.6730 C   0  0  0  0  0  0  0  0  0  0  0  0
   38.6660   25.0580   35.8140 N   0  0  0  0  0  0  0  0  0  0  0  0
   37.5290   22.5340   32.7180 N   0  0  0  0  0  0  0  0  0  0  0  0
   36.2010   22.0060   32.5110 C   0  0  0  0  0  0  0  0  0  0  0  0
   36.2650   20.4970   32.4270 C   0  0  0  0  0  0  0  0  0  0  0  0
   37.5850   20.0770   32.2520 O   0  0  0  0  0  0  0  0  0  0  0  0
   38.1510   20.7400   31.1780 C   0  0  0  0  0  0  0  0  0  0  0  0
   38.4050   22.1770   31.6020 C   0  0  0  0  0  0  0  0  0  0  0  0
   39.4110   23.1540   37.2000 C   0  0  0  0  0  0  0  0  0  0  0  0
   38.8590   23.1820   38.3330 O   0  0  0  0  0  0  0  0  0  0  0  0
   40.7090   22.4900   37.1080 C   0  0  0  0  0  0  0  0  0  0  0  0
   41.8230   23.0890   36.5360 C   0  0  0  0  0  0  0  0  0  0  0  0
   42.8840   22.1890   36.6120 C   0  0  0  0  0  0  0  0  0  0  0  0
   42.3440   21.0700   37.2400 C   0  0  0  0  0  0  0  0  0  0  0  0
   41.0740   21.2970   37.5080 O   0  0  0  0  0  0  0  0  0  0  0  0
   38.6425   21.7384   35.1584 H   0  0  0  0  0  0  0  0  0  0  0  0
   37.9931   26.5680   34.5260 H   0  0  0  0  0  0  0  0  0  0  0  0
   35.5548   22.2992   33.3515 H   0  0  0  0  0  0  0  0  0  0  0  0
   35.7889   22.4080   31.5737 H   0  0  0  0  0  0  0  0  0  0  0  0
   35.8668   20.0646   33.3568 H   0  0  0  0  0  0  0  0  0  0  0  0
   35.6656   20.1607   31.5681 H   0  0  0  0  0  0  0  0  0  0  0  0
   37.4628   20.7189   30.3201 H   0  0  0  0  0  0  0  0  0  0  0  0
   39.0920   20.2551   30.8792 H   0  0  0  0  0  0  0  0  0  0  0  0
   39.4543   22.2842   31.9144 H   0  0  0  0  0  0  0  0  0  0  0  0
   38.1972   22.8450   30.7531 H   0  0  0  0  0  0  0  0  0  0  0  0
   41.8614   24.0978   36.0991 H   0  0  0  0  0  0  0  0  0  0  0  0
   43.9152   22.3306   36.2562 H   0  0  0  0  0  0  0  0  0  0  0  0
   42.8901   20.1445   37.4749 H   0  0  0  0  0  0  0  0  0  0  0  0
  1 13  1  0
  2  1  2  0
  3  2  1  0
  4  3  2  0
  4  5  1  0
  5  6  2  0
  6  1  1  0
  7  3  1  0
  8  7  1  0
  9  8  1  0
 10  9  1  0
 11 12  1  0
 11 10  1  0
 12  7  1  0
 13 14  2  0
 15 13  1  0
 15 19  1  0
 16 17  1  0
 16 15  2  0
 17 18  2  0
 18 19  1  0
  2 20  1  0
  5 21  1  0
  8 22  1  0
  8 23  1  0
  9 24  1  0
  9 25  1  0
 11 26  1  0
 11 27  1  0
 12 28  1  0
 12 29  1  0
 16 30  1  0
 17 31  1  0
 18 32  1  0
M  ISO  8  20  14  21  14  22  13  23  13  24  13  25  13  26  13  27  13
M  ISO  5  28  13  29  13  30  14  31  14  32  14
M  END
>  <minimizedAffinity>  (1) 
-4.49820232

>  <minimizedRMSD>  (1) 
4.22449827

$$$$
