
     RDKit          3D

 30 32  0  0  0  0  0  0  0  0999 V2000
   38.3010   22.8230   35.2380 C   0  0  0  0  0  0  0  0  0  0  0  0
   39.6400   22.4970   35.3030 C   0  0  0  0  0  0  0  0  0  0  0  0
   40.2780   22.5590   36.5170 C   0  0  0  0  0  0  0  0  0  0  0  0
   39.5660   22.9370   37.6060 N   0  0  0  0  0  0  0  0  0  0  0  0
   38.2680   23.2500   37.5300 C   0  0  0  0  0  0  0  0  0  0  0  0
   37.6250   23.1980   36.3620 N   0  0  0  0  0  0  0  0  0  0  0  0
   41.6410   22.2640   36.7850 N   0  0  0  0  0  0  0  0  0  0  0  0
   42.7300   23.2020   36.7400 C   0  0  0  0  0  0  0  0  0  0  0  0
   43.7340   22.7730   35.6990 C   0  0  0  0  0  0  0  0  0  0  0  0
   43.4870   21.4520   35.2980 O   0  0  0  0  0  0  0  0  0  0  0  0
   43.4380   20.6400   36.4210 C   0  0  0  0  0  0  0  0  0  0  0  0
   42.1350   20.9280   37.1520 C   0  0  0  0  0  0  0  0  0  0  0  0
   37.6790   22.7370   33.9490 C   0  0  0  0  0  0  0  0  0  0  0  0
   37.6320   23.6440   33.0780 O   0  0  0  0  0  0  0  0  0  0  0  0
   37.0160   21.5000   33.5470 C   0  0  0  0  0  0  0  0  0  0  0  0
   37.3500   20.6330   32.5710 N   0  0  0  0  0  0  0  0  0  0  0  0
   36.5090   19.6400   32.5160 O   0  0  0  0  0  0  0  0  0  0  0  0
   35.5920   19.8260   33.4640 C   0  0  0  0  0  0  0  0  0  0  0  0
   35.8900   20.9600   34.1020 N   0  0  0  0  0  0  0  0  0  0  0  0
   40.1867   22.1928   34.3982 H   0  0  0  0  0  0  0  0  0  0  0  0
   37.7259   23.5529   38.4380 H   0  0  0  0  0  0  0  0  0  0  0  0
   42.3423   24.1990   36.4839 H   0  0  0  0  0  0  0  0  0  0  0  0
   43.2203   23.2354   37.7241 H   0  0  0  0  0  0  0  0  0  0  0  0
   43.6573   23.4374   34.8257 H   0  0  0  0  0  0  0  0  0  0  0  0
   44.7439   22.8323   36.1309 H   0  0  0  0  0  0  0  0  0  0  0  0
   43.4710   19.5828   36.1191 H   0  0  0  0  0  0  0  0  0  0  0  0
   44.2974   20.8424   37.0771 H   0  0  0  0  0  0  0  0  0  0  0  0
   42.3091   20.8888   38.2374 H   0  0  0  0  0  0  0  0  0  0  0  0
   41.3859   20.1740   36.8686 H   0  0  0  0  0  0  0  0  0  0  0  0
   34.7413   19.1636   33.6821 H   0  0  0  0  0  0  0  0  0  0  0  0
  1  2  2  0
  1  6  1  0
  2  3  1  0
  3  7  1  0
  3  4  2  0
  5  4  1  0
  6  5  2  0
  7 12  1  0
  8  7  1  0
  9  8  1  0
 10  9  1  0
 10 11  1  0
 11 12  1  0
 13  1  1  0
 14 13  2  0
 15 13  1  0
 15 19  1  0
 16 15  2  0
 17 16  1  0
 17 18  1  0
 18 19  2  0
  2 20  1  0
  5 21  1  0
  8 22  1  0
  8 23  1  0
  9 24  1  0
  9 25  1  0
 11 26  1  0
 11 27  1  0
 12 28  1  0
 12 29  1  0
 18 30  1  0
M  ISO  8  20  14  21  14  22  13  23  13  24  13  25  13  26  13  27  13
M  ISO  3  28  13  29  13  30  14
M  END
>  <minimizedAffinity>  (1) 
-4.19164371

>  <minimizedRMSD>  (1) 
5.40249681

$$$$
