
     RDKit          3D

 32 34  0  0  0  0  0  0  0  0999 V2000
   37.9070   22.0640   33.5340 C   0  0  0  0  0  0  0  0  0  0  0  0
   37.9560   23.3010   32.9290 C   0  0  0  0  0  0  0  0  0  0  0  0
   38.0450   24.4220   33.7120 C   0  0  0  0  0  0  0  0  0  0  0  0
   38.0810   24.2720   35.0620 N   0  0  0  0  0  0  0  0  0  0  0  0
   38.0320   23.0600   35.6340 C   0  0  0  0  0  0  0  0  0  0  0  0
   37.9470   21.9590   34.9020 N   0  0  0  0  0  0  0  0  0  0  0  0
   38.1060   25.7740   33.2820 N   0  0  0  0  0  0  0  0  0  0  0  0
   36.9440   26.6230   33.0450 C   0  0  0  0  0  0  0  0  0  0  0  0
   36.9340   27.0660   31.6050 C   0  0  0  0  0  0  0  0  0  0  0  0
   38.1640   26.7750   30.9830 O   0  0  0  0  0  0  0  0  0  0  0  0
   39.1820   27.3370   31.7590 C   0  0  0  0  0  0  0  0  0  0  0  0
   39.3300   26.5040   33.0160 C   0  0  0  0  0  0  0  0  0  0  0  0
   37.8190   20.9150   32.6760 C   0  0  0  0  0  0  0  0  0  0  0  0
   38.7960   20.3210   32.1450 O   0  0  0  0  0  0  0  0  0  0  0  0
   36.4910   20.3540   32.3660 C   0  0  0  0  0  0  0  0  0  0  0  0
   35.2800   21.0500   32.4760 C   0  0  0  0  0  0  0  0  0  0  0  0
   34.3270   20.1120   32.0800 C   0  0  0  0  0  0  0  0  0  0  0  0
   34.9200   18.9490   31.7590 N   0  0  0  0  0  0  0  0  0  0  0  0
   36.2340   19.0860   31.9300 N   0  0  0  0  0  0  0  0  0  0  0  0
   37.9241   23.3874   31.8329 H   0  0  0  0  0  0  0  0  0  0  0  0
   38.0629   22.9786   36.7305 H   0  0  0  0  0  0  0  0  0  0  0  0
   36.0258   26.0573   33.2614 H   0  0  0  0  0  0  0  0  0  0  0  0
   36.9931   27.5049   33.7007 H   0  0  0  0  0  0  0  0  0  0  0  0
   36.1274   26.5413   31.0720 H   0  0  0  0  0  0  0  0  0  0  0  0
   36.7710   28.1534   31.5720 H   0  0  0  0  0  0  0  0  0  0  0  0
   40.1265   27.3322   31.1952 H   0  0  0  0  0  0  0  0  0  0  0  0
   38.9339   28.3769   32.0179 H   0  0  0  0  0  0  0  0  0  0  0  0
   40.1567   25.7905   32.8834 H   0  0  0  0  0  0  0  0  0  0  0  0
   39.5409   27.1710   33.8649 H   0  0  0  0  0  0  0  0  0  0  0  0
   35.1191   22.0894   32.7982 H   0  0  0  0  0  0  0  0  0  0  0  0
   33.2436   20.2975   32.0365 H   0  0  0  0  0  0  0  0  0  0  0  0
   34.4400   18.0969   31.4358 H   0  0  0  0  0  0  0  0  0  0  0  0
  1  6  1  0
  2  1  2  0
  2  3  1  0
  3  4  2  0
  4  5  1  0
  6  5  2  0
  7  3  1  0
  8  7  1  0
  9  8  1  0
 10  9  1  0
 10 11  1  0
 11 12  1  0
 12  7  1  0
 13  1  1  0
 14 13  2  0
 15 16  1  0
 15 13  1  0
 17 16  2  0
 18 19  1  0
 18 17  1  0
 19 15  2  0
  2 20  1  0
  5 21  1  0
  8 22  1  0
  8 23  1  0
  9 24  1  0
  9 25  1  0
 11 26  1  0
 11 27  1  0
 12 28  1  0
 12 29  1  0
 16 30  1  0
 17 31  1  0
 18 32  1  0
M  ISO  8  20  14  21  14  22  13  23  13  24  13  25  13  26  13  27  13
M  ISO  5  28  13  29  13  30  14  31  14  32   9
M  END
>  <minimizedAffinity>  (1) 
-4.31230688

>  <minimizedRMSD>  (1) 
5.47361803

$$$$
