
     RDKit          3D

 35 37  0  0  0  0  0  0  0  0999 V2000
   39.7380   22.2580   34.6320 C   0  0  0  0  0  0  0  0  0  0  0  0
   38.5220   22.0420   34.0120 C   0  0  0  0  0  0  0  0  0  0  0  0
   38.4930   21.2350   32.8850 C   0  0  0  0  0  0  0  0  0  0  0  0
   39.6520   20.6850   32.4310 N   0  0  0  0  0  0  0  0  0  0  0  0
   40.8170   20.9180   33.0620 C   0  0  0  0  0  0  0  0  0  0  0  0
   40.8780   21.6940   34.1510 N   0  0  0  0  0  0  0  0  0  0  0  0
   37.3510   20.8930   32.1120 N   0  0  0  0  0  0  0  0  0  0  0  0
   36.8630   21.6320   30.9680 C   0  0  0  0  0  0  0  0  0  0  0  0
   35.4620   22.1160   31.2330 C   0  0  0  0  0  0  0  0  0  0  0  0
   34.9320   21.4790   32.3710 O   0  0  0  0  0  0  0  0  0  0  0  0
   35.0400   20.1120   32.2110 C   0  0  0  0  0  0  0  0  0  0  0  0
   36.5040   19.7310   32.3710 C   0  0  0  0  0  0  0  0  0  0  0  0
   39.7360   23.0990   35.7930 C   0  0  0  0  0  0  0  0  0  0  0  0
   40.0130   22.7120   36.9750 O   0  0  0  0  0  0  0  0  0  0  0  0
   39.4110   24.5270   35.7580 C   0  0  0  0  0  0  0  0  0  0  0  0
   38.3520   25.0450   36.4740 C   0  0  0  0  0  0  0  0  0  0  0  0
   38.0830   26.4080   36.4070 C   0  0  0  0  0  0  0  0  0  0  0  0
   38.8550   27.2670   35.6370 C   0  0  0  0  0  0  0  0  0  0  0  0
   39.9140   26.7530   34.9210 C   0  0  0  0  0  0  0  0  0  0  0  0
   40.1740   25.3860   34.9950 C   0  0  0  0  0  0  0  0  0  0  0  0
   37.6007   22.4987   34.4026 H   0  0  0  0  0  0  0  0  0  0  0  0
   41.7395   20.4609   32.6747 H   0  0  0  0  0  0  0  0  0  0  0  0
   36.8621   20.9776   30.0839 H   0  0  0  0  0  0  0  0  0  0  0  0
   37.5181   22.4972   30.7882 H   0  0  0  0  0  0  0  0  0  0  0  0
   35.4793   23.2030   31.4006 H   0  0  0  0  0  0  0  0  0  0  0  0
   34.8311   21.8787   30.3637 H   0  0  0  0  0  0  0  0  0  0  0  0
   34.4358   19.5986   32.9734 H   0  0  0  0  0  0  0  0  0  0  0  0
   34.6757   19.8150   31.2165 H   0  0  0  0  0  0  0  0  0  0  0  0
   36.7530   18.9317   31.6575 H   0  0  0  0  0  0  0  0  0  0  0  0
   36.6765   19.3787   33.3987 H   0  0  0  0  0  0  0  0  0  0  0  0
   37.7255   24.3858   37.0928 H   0  0  0  0  0  0  0  0  0  0  0  0
   37.2365   26.8158   36.9790 H   0  0  0  0  0  0  0  0  0  0  0  0
   38.6248   28.3420   35.5990 H   0  0  0  0  0  0  0  0  0  0  0  0
   40.5429   27.4099   34.3021 H   0  0  0  0  0  0  0  0  0  0  0  0
   41.0198   24.9765   34.4232 H   0  0  0  0  0  0  0  0  0  0  0  0
  1 13  1  0
  2  1  2  0
  3  2  1  0
  4  3  2  0
  4  5  1  0
  5  6  2  0
  6  1  1  0
  7 12  1  0
  7  3  1  0
  8  9  1  0
  8  7  1  0
  9 10  1  0
 11 10  1  0
 11 12  1  0
 13 14  2  0
 15 13  1  0
 15 16  2  0
 17 16  1  0
 18 17  2  0
 19 20  2  0
 19 18  1  0
 20 15  1  0
  2 21  1  0
  5 22  1  0
  8 23  1  0
  8 24  1  0
  9 25  1  0
  9 26  1  0
 11 27  1  0
 11 28  1  0
 12 29  1  0
 12 30  1  0
 16 31  1  0
 17 32  1  0
 18 33  1  0
 19 34  1  0
 20 35  1  0
M  ISO  8  21  14  22  14  23  13  24  13  25  13  26  13  27  13  28  13
M  ISO  7  29  13  30  13  31  14  32  14  33  14  34  14  35  14
M  END
>  <minimizedAffinity>  (1) 
-4.94586658

>  <minimizedRMSD>  (1) 
4.51520634

$$$$
