
     RDKit          3D

 26 27  0  0  0  0  0  0  0  0999 V2000
   38.8040   22.5050   33.6810 N   0  0  0  0  0  0  0  0  0  0  0  0
   38.4920   23.6340   32.8220 C   0  0  0  0  0  0  0  0  0  0  0  0
   37.0590   23.5270   32.3410 C   0  0  0  0  0  0  0  0  0  0  0  0
   36.5580   22.2340   32.6100 O   0  0  0  0  0  0  0  0  0  0  0  0
   37.4250   21.2900   32.0670 C   0  0  0  0  0  0  0  0  0  0  0  0
   38.6610   21.2460   32.9370 C   0  0  0  0  0  0  0  0  0  0  0  0
   38.9850   23.0040   37.3650 C   0  0  0  0  0  0  0  0  0  0  0  0
   38.4280   22.9920   36.1030 C   0  0  0  0  0  0  0  0  0  0  0  0
   39.1890   22.5850   35.0380 C   0  0  0  0  0  0  0  0  0  0  0  0
   40.4780   22.2060   35.2750 N   0  0  0  0  0  0  0  0  0  0  0  0
   40.9960   22.2250   36.5080 C   0  0  0  0  0  0  0  0  0  0  0  0
   40.2830   22.6130   37.5530 N   0  0  0  0  0  0  0  0  0  0  0  0
   38.1250   23.4430   38.4400 C   0  0  0  0  0  0  0  0  0  0  0  0
   38.0350   24.6400   38.8360 O   0  0  0  0  0  0  0  0  0  0  0  0
   37.3630   22.4250   39.0470 O   0  0  0  0  0  0  0  0  0  0  0  0
   38.6197   24.5695   33.3864 H   0  0  0  0  0  0  0  0  0  0  0  0
   39.1691   23.6311   31.9551 H   0  0  0  0  0  0  0  0  0  0  0  0
   37.0227   23.7144   31.2577 H   0  0  0  0  0  0  0  0  0  0  0  0
   36.4433   24.2712   32.8673 H   0  0  0  0  0  0  0  0  0  0  0  0
   36.9416   20.3020   32.0527 H   0  0  0  0  0  0  0  0  0  0  0  0
   37.6905   21.5601   31.0343 H   0  0  0  0  0  0  0  0  0  0  0  0
   38.5748   20.4115   33.6485 H   0  0  0  0  0  0  0  0  0  0  0  0
   39.5448   21.1051   32.2974 H   0  0  0  0  0  0  0  0  0  0  0  0
   37.3844   23.3057   35.9529 H   0  0  0  0  0  0  0  0  0  0  0  0
   42.0395   21.9106   36.6569 H   0  0  0  0  0  0  0  0  0  0  0  0
   36.7486   22.6439   39.7918 H   0  0  0  0  0  0  0  0  0  0  0  0
  1  9  1  0
  2  1  1  0
  3  4  1  0
  3  2  1  0
  5  4  1  0
  5  6  1  0
  6  1  1  0
  7 12  2  0
  7 13  1  0
  8  7  1  0
  9 10  1  0
  9  8  2  0
 10 11  2  0
 11 12  1  0
 13 14  2  0
 13 15  1  0
  2 16  1  0
  2 17  1  0
  3 18  1  0
  3 19  1  0
  5 20  1  0
  5 21  1  0
  6 22  1  0
  6 23  1  0
  8 24  1  0
 11 25  1  0
 15 26  1  0
M  ISO  8  16  13  17  13  18  13  19  13  20  13  21  13  22  13  23  13
M  ISO  3  24  14  25  14  26   3
M  END
>  <minimizedAffinity>  (1) 
-4.08118677

>  <minimizedRMSD>  (1) 
0.742951453

$$$$
