
     RDKit          3D

 46 50  0  0  0  0  0  0  0  0999 V2000
   40.2210   22.7310   33.5440 C   0  0  0  0  0  0  0  0  0  0  0  0
   38.9850   22.1350   33.4480 C   0  0  0  0  0  0  0  0  0  0  0  0
   38.5810   21.6430   32.2100 C   0  0  0  0  0  0  0  0  0  0  0  0
   39.4210   21.7680   31.1430 N   0  0  0  0  0  0  0  0  0  0  0  0
   40.6170   22.3560   31.2830 C   0  0  0  0  0  0  0  0  0  0  0  0
   41.0280   22.8370   32.4590 N   0  0  0  0  0  0  0  0  0  0  0  0
   37.3560   21.0020   31.9130 N   0  0  0  0  0  0  0  0  0  0  0  0
   36.1410   21.6670   31.4680 C   0  0  0  0  0  0  0  0  0  0  0  0
   35.0300   21.4190   32.4500 C   0  0  0  0  0  0  0  0  0  0  0  0
   35.3890   20.4000   33.3480 O   0  0  0  0  0  0  0  0  0  0  0  0
   35.7720   19.2760   32.6240 C   0  0  0  0  0  0  0  0  0  0  0  0
   37.1390   19.5550   32.0140 C   0  0  0  0  0  0  0  0  0  0  0  0
   40.6090   23.2310   34.8400 C   0  0  0  0  0  0  0  0  0  0  0  0
   41.8060   23.3860   35.2340 O   0  0  0  0  0  0  0  0  0  0  0  0
   39.6450   23.6270   35.8740 C   0  0  0  0  0  0  0  0  0  0  0  0
   39.2980   22.7820   36.9060 C   0  0  0  0  0  0  0  0  0  0  0  0
   38.3840   23.2090   37.8540 C   0  0  0  0  0  0  0  0  0  0  0  0
   37.8050   24.4590   37.8030 C   0  0  0  0  0  0  0  0  0  0  0  0
   38.1470   25.3050   36.7790 C   0  0  0  0  0  0  0  0  0  0  0  0
   39.0670   24.8700   35.8280 C   0  0  0  0  0  0  0  0  0  0  0  0
   39.3730   25.8070   34.7930 N   0  0  0  0  0  0  0  0  0  0  0  0
   40.3650   26.6870   34.5650 C   0  0  0  0  0  0  0  0  0  0  0  0
   40.1380   27.3250   33.4020 N   0  0  0  0  0  0  0  0  0  0  0  0
   38.9890   26.8440   32.8840 C   0  0  0  0  0  0  0  0  0  0  0  0
   38.3470   27.1960   31.6970 C   0  0  0  0  0  0  0  0  0  0  0  0
   37.1820   26.5570   31.3930 N   0  0  0  0  0  0  0  0  0  0  0  0
   36.7070   25.6230   32.2440 C   0  0  0  0  0  0  0  0  0  0  0  0
   37.3350   25.2940   33.3850 N   0  0  0  0  0  0  0  0  0  0  0  0
   38.5060   25.8900   33.7570 C   0  0  0  0  0  0  0  0  0  0  0  0
   38.3313   22.0492   34.3286 H   0  0  0  0  0  0  0  0  0  0  0  0
   41.2767   22.4447   30.4073 H   0  0  0  0  0  0  0  0  0  0  0  0
   36.3249   22.7488   31.3916 H   0  0  0  0  0  0  0  0  0  0  0  0
   35.8501   21.2677   30.4852 H   0  0  0  0  0  0  0  0  0  0  0  0
   34.8297   22.3433   33.0118 H   0  0  0  0  0  0  0  0  0  0  0  0
   34.1296   21.1088   31.8995 H   0  0  0  0  0  0  0  0  0  0  0  0
   35.8317   18.4039   33.2917 H   0  0  0  0  0  0  0  0  0  0  0  0
   35.0371   19.0603   31.8344 H   0  0  0  0  0  0  0  0  0  0  0  0
   37.1883   19.1081   31.0101 H   0  0  0  0  0  0  0  0  0  0  0  0
   37.9176   19.1165   32.6555 H   0  0  0  0  0  0  0  0  0  0  0  0
   39.7428   21.7784   36.9757 H   0  0  0  0  0  0  0  0  0  0  0  0
   38.1110   22.5290   38.6744 H   0  0  0  0  0  0  0  0  0  0  0  0
   37.0815   24.7724   38.5700 H   0  0  0  0  0  0  0  0  0  0  0  0
   37.7027   26.3089   36.7101 H   0  0  0  0  0  0  0  0  0  0  0  0
   41.2272   26.8583   35.2262 H   0  0  0  0  0  0  0  0  0  0  0  0
   38.7663   27.9629   31.0291 H   0  0  0  0  0  0  0  0  0  0  0  0
   35.7669   25.1101   31.9928 H   0  0  0  0  0  0  0  0  0  0  0  0
  1 13  1  0
  2  1  2  0
  3  2  1  0
  4  5  1  0
  4  3  2  0
  5  6  2  0
  6  1  1  0
  7 12  1  0
  7  3  1  0
  8  7  1  0
  8  9  1  0
  9 10  1  0
 11 10  1  0
 12 11  1  0
 13 14  2  0
 13 15  1  0
 15 16  2  0
 16 17  1  0
 18 17  2  0
 19 18  1  0
 20 15  1  0
 20 19  2  0
 21 20  1  0
 22 21  1  0
 23 22  2  0
 24 23  1  0
 24 29  2  0
 25 24  1  0
 26 25  2  0
 26 27  1  0
 27 28  2  0
 28 29  1  0
 29 21  1  0
  2 30  1  0
  5 31  1  0
  8 32  1  0
  8 33  1  0
  9 34  1  0
  9 35  1  0
 11 36  1  0
 11 37  1  0
 12 38  1  0
 12 39  1  0
 16 40  1  0
 17 41  1  0
 18 42  1  0
 19 43  1  0
 22 44  1  0
 25 45  1  0
 27 46  1  0
M  ISO  8  30  14  31  14  32  13  33  13  34  13  35  13  36  13  37  13
M  ISO  8  38  13  39  13  40  14  41  14  42  14  43  14  44  14  45  14
M  ISO  1  46  14
M  END
>  <minimizedAffinity>  (1) 
-5.79667807

>  <minimizedRMSD>  (1) 
3.26327753

$$$$
