
     RDKit          3D

 49 53  0  0  0  0  0  0  0  0999 V2000
   40.0480   22.9490   35.5770 C   0  0  0  0  0  0  0  0  0  0  0  0
   40.4570   22.5700   36.7170 O   0  0  0  0  0  0  0  0  0  0  0  0
   39.9280   22.1120   34.4280 C   0  0  0  0  0  0  0  0  0  0  0  0
   38.6760   21.9660   33.8630 C   0  0  0  0  0  0  0  0  0  0  0  0
   38.5370   21.1580   32.7470 C   0  0  0  0  0  0  0  0  0  0  0  0
   39.6200   20.5330   32.2360 N   0  0  0  0  0  0  0  0  0  0  0  0
   40.8320   20.6950   32.8130 C   0  0  0  0  0  0  0  0  0  0  0  0
   41.0020   21.4620   33.8830 N   0  0  0  0  0  0  0  0  0  0  0  0
   37.3290   20.8900   32.0390 N   0  0  0  0  0  0  0  0  0  0  0  0
   36.8230   21.6540   30.9170 C   0  0  0  0  0  0  0  0  0  0  0  0
   35.4710   22.2270   31.2540 C   0  0  0  0  0  0  0  0  0  0  0  0
   34.9650   21.6420   32.4360 O   0  0  0  0  0  0  0  0  0  0  0  0
   34.9750   20.2680   32.2910 C   0  0  0  0  0  0  0  0  0  0  0  0
   36.4290   19.7910   32.3620 C   0  0  0  0  0  0  0  0  0  0  0  0
   39.7060   24.3730   35.5760 C   0  0  0  0  0  0  0  0  0  0  0  0
   38.5310   24.8330   36.1620 C   0  0  0  0  0  0  0  0  0  0  0  0
   38.2470   26.2050   36.1270 C   0  0  0  0  0  0  0  0  0  0  0  0
   39.1130   27.1150   35.5200 C   0  0  0  0  0  0  0  0  0  0  0  0
   40.2750   26.6520   34.9430 C   0  0  0  0  0  0  0  0  0  0  0  0
   40.5580   25.2840   34.9790 C   0  0  0  0  0  0  0  0  0  0  0  0
   41.8200   24.8390   34.3990 C   0  0  0  0  0  0  0  0  0  0  0  0
   41.6790   24.7100   33.0440 N   0  0  0  0  0  0  0  0  0  0  0  0
   42.7370   24.3140   32.2710 C   0  0  0  0  0  0  0  0  0  0  0  0
   43.9260   24.0460   32.8360 N   0  0  0  0  0  0  0  0  0  0  0  0
   44.0490   24.1750   34.1590 C   0  0  0  0  0  0  0  0  0  0  0  0
   45.2470   23.9170   34.8260 C   0  0  0  0  0  0  0  0  0  0  0  0
   45.3540   24.0560   36.2030 C   0  0  0  0  0  0  0  0  0  0  0  0
   44.2560   24.4640   36.9720 C   0  0  0  0  0  0  0  0  0  0  0  0
   43.0310   24.7380   36.3560 C   0  0  0  0  0  0  0  0  0  0  0  0
   43.0200   24.5720   34.9990 C   0  0  0  0  0  0  0  0  0  0  0  0
   37.8047   22.4825   34.2920 H   0  0  0  0  0  0  0  0  0  0  0  0
   41.7019   20.1765   32.3835 H   0  0  0  0  0  0  0  0  0  0  0  0
   36.7320   20.9967   30.0397 H   0  0  0  0  0  0  0  0  0  0  0  0
   37.5195   22.4761   30.6955 H   0  0  0  0  0  0  0  0  0  0  0  0
   35.5645   23.3133   31.3994 H   0  0  0  0  0  0  0  0  0  0  0  0
   34.7782   22.0127   30.4269 H   0  0  0  0  0  0  0  0  0  0  0  0
   34.5396   19.9927   31.3191 H   0  0  0  0  0  0  0  0  0  0  0  0
   34.3807   19.7970   33.0879 H   0  0  0  0  0  0  0  0  0  0  0  0
   36.5798   18.9729   31.6423 H   0  0  0  0  0  0  0  0  0  0  0  0
   36.6436   19.4354   33.3806 H   0  0  0  0  0  0  0  0  0  0  0  0
   37.8357   24.1308   36.6453 H   0  0  0  0  0  0  0  0  0  0  0  0
   37.3192   26.5731   36.5891 H   0  0  0  0  0  0  0  0  0  0  0  0
   38.8711   28.1879   35.5024 H   0  0  0  0  0  0  0  0  0  0  0  0
   40.9726   27.3515   34.4592 H   0  0  0  0  0  0  0  0  0  0  0  0
   42.6131   24.2148   31.1825 H   0  0  0  0  0  0  0  0  0  0  0  0
   46.1262   23.5963   34.2479 H   0  0  0  0  0  0  0  0  0  0  0  0
   46.3135   23.8430   36.6970 H   0  0  0  0  0  0  0  0  0  0  0  0
   44.3579   24.5689   38.0622 H   0  0  0  0  0  0  0  0  0  0  0  0
   42.1440   25.0623   36.9201 H   0  0  0  0  0  0  0  0  0  0  0  0
  1  2  2  0
  3  1  1  0
  4  3  2  0
  5  4  1  0
  6  5  2  0
  6  7  1  0
  7  8  2  0
  8  3  1  0
  9 14  1  0
  9  5  1  0
 10 11  1  0
 10  9  1  0
 11 12  1  0
 13 14  1  0
 13 12  1  0
 15  1  1  0
 15 16  2  0
 17 16  1  0
 18 17  2  0
 19 20  2  0
 19 18  1  0
 20 15  1  0
 21 20  1  0
 21 30  1  0
 22 21  2  0
 23 24  2  0
 23 22  1  0
 24 25  1  0
 25 26  1  0
 25 30  2  0
 26 27  2  0
 27 28  1  0
 29 28  2  0
 30 29  1  0
  4 31  1  0
  7 32  1  0
 10 33  1  0
 10 34  1  0
 11 35  1  0
 11 36  1  0
 13 37  1  0
 13 38  1  0
 14 39  1  0
 14 40  1  0
 16 41  1  0
 17 42  1  0
 18 43  1  0
 19 44  1  0
 23 45  1  0
 26 46  1  0
 27 47  1  0
 28 48  1  0
 29 49  1  0
M  ISO  8  31  14  32  14  33  13  34  13  35  13  36  13  37  13  38  13
M  ISO  8  39  13  40  13  41  14  42  14  43  14  44  14  45  14  46  14
M  ISO  3  47  14  48  14  49  14
M  END
>  <minimizedAffinity>  (1) 
-5.89525127

>  <minimizedRMSD>  (1) 
0.938062489

$$$$
