
     RDKit          3D

 48 52  0  0  0  0  0  0  0  0999 V2000
   41.0070   22.9270   35.8350 C   0  0  0  0  0  0  0  0  0  0  0  0
   41.1290   22.7590   37.1010 O   0  0  0  0  0  0  0  0  0  0  0  0
   41.2850   21.9210   34.8510 C   0  0  0  0  0  0  0  0  0  0  0  0
   40.3850   21.8100   33.8030 C   0  0  0  0  0  0  0  0  0  0  0  0
   40.6230   20.8430   32.8280 C   0  0  0  0  0  0  0  0  0  0  0  0
   41.7150   20.0580   32.9460 N   0  0  0  0  0  0  0  0  0  0  0  0
   42.5670   20.1940   33.9790 C   0  0  0  0  0  0  0  0  0  0  0  0
   42.3710   21.1060   34.9270 N   0  0  0  0  0  0  0  0  0  0  0  0
   39.8250   20.5810   31.6910 N   0  0  0  0  0  0  0  0  0  0  0  0
   39.9770   21.2030   30.3900 C   0  0  0  0  0  0  0  0  0  0  0  0
   38.7240   21.9320   30.0210 C   0  0  0  0  0  0  0  0  0  0  0  0
   37.6650   21.5820   30.8930 O   0  0  0  0  0  0  0  0  0  0  0  0
   37.5460   20.2030   30.8940 C   0  0  0  0  0  0  0  0  0  0  0  0
   38.7110   19.6210   31.6760 C   0  0  0  0  0  0  0  0  0  0  0  0
   40.5500   24.2710   35.5170 C   0  0  0  0  0  0  0  0  0  0  0  0
   41.3680   25.2030   34.9230 C   0  0  0  0  0  0  0  0  0  0  0  0
   40.8810   26.4720   34.6420 C   0  0  0  0  0  0  0  0  0  0  0  0
   39.5800   26.8350   34.9410 C   0  0  0  0  0  0  0  0  0  0  0  0
   38.7450   25.9030   35.5410 C   0  0  0  0  0  0  0  0  0  0  0  0
   39.2640   24.6390   35.8100 C   0  0  0  0  0  0  0  0  0  0  0  0
   38.3170   23.7690   36.4240 N   0  0  0  0  0  0  0  0  0  0  0  0
   38.0470   23.8140   37.7620 C   0  0  0  0  0  0  0  0  0  0  0  0
   37.1130   22.8920   38.1070 N   0  0  0  0  0  0  0  0  0  0  0  0
   36.7830   22.2450   36.9620 C   0  0  0  0  0  0  0  0  0  0  0  0
   35.9170   21.2190   36.6030 C   0  0  0  0  0  0  0  0  0  0  0  0
   35.8140   20.7840   35.3310 N   0  0  0  0  0  0  0  0  0  0  0  0
   36.5730   21.3620   34.3720 C   0  0  0  0  0  0  0  0  0  0  0  0
   37.4400   22.3740   34.6620 N   0  0  0  0  0  0  0  0  0  0  0  0
   37.5190   22.7820   35.9370 C   0  0  0  0  0  0  0  0  0  0  0  0
   35.1230   20.6180   37.6240 N   0  0  0  0  0  0  0  0  0  0  0  0
   39.5056   22.4680   33.7423 H   0  0  0  0  0  0  0  0  0  0  0  0
   43.4460   19.5355   34.0406 H   0  0  0  0  0  0  0  0  0  0  0  0
   40.8158   21.9139   30.4220 H   0  0  0  0  0  0  0  0  0  0  0  0
   40.1758   20.4243   29.6389 H   0  0  0  0  0  0  0  0  0  0  0  0
   38.9036   23.0152   30.0880 H   0  0  0  0  0  0  0  0  0  0  0  0
   38.4429   21.6540   28.9945 H   0  0  0  0  0  0  0  0  0  0  0  0
   36.5975   19.9124   31.3694 H   0  0  0  0  0  0  0  0  0  0  0  0
   37.5562   19.8224   29.8620 H   0  0  0  0  0  0  0  0  0  0  0  0
   38.3920   19.4145   32.7083 H   0  0  0  0  0  0  0  0  0  0  0  0
   39.0408   18.6867   31.1981 H   0  0  0  0  0  0  0  0  0  0  0  0
   42.4067   24.9433   34.6709 H   0  0  0  0  0  0  0  0  0  0  0  0
   41.5472   27.2086   34.1690 H   0  0  0  0  0  0  0  0  0  0  0  0
   39.2135   27.8454   34.7071 H   0  0  0  0  0  0  0  0  0  0  0  0
   37.7051   26.1549   35.7963 H   0  0  0  0  0  0  0  0  0  0  0  0
   38.5250   24.5081   38.4689 H   0  0  0  0  0  0  0  0  0  0  0  0
   36.4889   21.0075   33.3341 H   0  0  0  0  0  0  0  0  0  0  0  0
   34.4721   19.8554   37.3883 H   0  0  0  0  0  0  0  0  0  0  0  0
   35.2005   20.9466   38.5971 H   0  0  0  0  0  0  0  0  0  0  0  0
  1  2  2  0
  3  8  1  0
  3  1  1  0
  4  3  2  0
  5  6  2  0
  5  4  1  0
  6  7  1  0
  7  8  2  0
  9  5  1  0
 10  9  1  0
 11 10  1  0
 11 12  1  0
 12 13  1  0
 13 14  1  0
 14  9  1  0
 15 20  1  0
 15  1  1  0
 16 15  2  0
 17 16  1  0
 17 18  2  0
 18 19  1  0
 19 20  2  0
 20 21  1  0
 21 22  1  0
 22 23  2  0
 24 23  1  0
 25 24  2  0
 25 30  1  0
 26 25  1  0
 27 28  1  0
 27 26  2  0
 28 29  2  0
 29 21  1  0
 29 24  1  0
  4 31  1  0
  7 32  1  0
 10 33  1  0
 10 34  1  0
 11 35  1  0
 11 36  1  0
 13 37  1  0
 13 38  1  0
 14 39  1  0
 14 40  1  0
 16 41  1  0
 17 42  1  0
 18 43  1  0
 19 44  1  0
 22 45  1  0
 27 46  1  0
 30 47  1  0
 30 48  1  0
M  ISO  8  31  14  32  14  33  13  34  13  35  13  36  13  37  13  38  13
M  ISO  8  39  13  40  13  41  14  42  14  43  14  44  14  45  14  46  14
M  END
>  <minimizedAffinity>  (1) 
-5.98750257

>  <minimizedRMSD>  (1) 
4.49832869

$$$$
