
     RDKit          3D

 51 55  0  0  0  0  0  0  0  0999 V2000
   39.9390   22.1480   34.4410 C   0  0  0  0  0  0  0  0  0  0  0  0
   38.6910   21.9900   33.8670 C   0  0  0  0  0  0  0  0  0  0  0  0
   38.5420   21.1940   32.7540 C   0  0  0  0  0  0  0  0  0  0  0  0
   39.6400   20.5800   32.2470 N   0  0  0  0  0  0  0  0  0  0  0  0
   40.8480   20.7520   32.8280 C   0  0  0  0  0  0  0  0  0  0  0  0
   41.0180   21.5140   33.9030 N   0  0  0  0  0  0  0  0  0  0  0  0
   37.3500   20.9210   32.0430 N   0  0  0  0  0  0  0  0  0  0  0  0
   36.8350   21.6810   30.9350 C   0  0  0  0  0  0  0  0  0  0  0  0
   35.4720   22.2240   31.2790 C   0  0  0  0  0  0  0  0  0  0  0  0
   34.9780   21.6060   32.4400 O   0  0  0  0  0  0  0  0  0  0  0  0
   35.0100   20.2380   32.2730 C   0  0  0  0  0  0  0  0  0  0  0  0
   36.4570   19.7940   32.3530 C   0  0  0  0  0  0  0  0  0  0  0  0
   40.0300   22.9880   35.5920 C   0  0  0  0  0  0  0  0  0  0  0  0
   40.4490   22.6040   36.7440 O   0  0  0  0  0  0  0  0  0  0  0  0
   39.6600   24.3960   35.6060 C   0  0  0  0  0  0  0  0  0  0  0  0
   38.5150   24.8540   36.2180 C   0  0  0  0  0  0  0  0  0  0  0  0
   38.2080   26.2020   36.2060 C   0  0  0  0  0  0  0  0  0  0  0  0
   39.0290   27.1210   35.5900 C   0  0  0  0  0  0  0  0  0  0  0  0
   40.1900   26.6800   34.9680 C   0  0  0  0  0  0  0  0  0  0  0  0
   40.4710   25.3150   34.9970 C   0  0  0  0  0  0  0  0  0  0  0  0
   41.7170   25.0210   34.2960 C   0  0  0  0  0  0  0  0  0  0  0  0
   41.5780   24.9690   32.9110 C   0  0  0  0  0  0  0  0  0  0  0  0
   42.6610   24.7030   32.1040 C   0  0  0  0  0  0  0  0  0  0  0  0
   43.9170   24.4790   32.6620 C   0  0  0  0  0  0  0  0  0  0  0  0
   44.0450   24.5320   34.0360 C   0  0  0  0  0  0  0  0  0  0  0  0
   45.2690   24.3170   34.6470 C   0  0  0  0  0  0  0  0  0  0  0  0
   45.3490   24.3810   36.0270 C   0  0  0  0  0  0  0  0  0  0  0  0
   44.2380   24.6530   36.8230 C   0  0  0  0  0  0  0  0  0  0  0  0
   43.0090   24.8690   36.2350 C   0  0  0  0  0  0  0  0  0  0  0  0
   42.9710   24.7970   34.8590 C   0  0  0  0  0  0  0  0  0  0  0  0
   37.8177   22.5002   34.2996 H   0  0  0  0  0  0  0  0  0  0  0  0
   41.7218   20.2428   32.3953 H   0  0  0  0  0  0  0  0  0  0  0  0
   36.7568   21.0310   30.0510 H   0  0  0  0  0  0  0  0  0  0  0  0
   37.5160   22.5177   30.7203 H   0  0  0  0  0  0  0  0  0  0  0  0
   35.5460   23.3083   31.4489 H   0  0  0  0  0  0  0  0  0  0  0  0
   34.7848   22.0184   30.4450 H   0  0  0  0  0  0  0  0  0  0  0  0
   34.5906   19.9711   31.2917 H   0  0  0  0  0  0  0  0  0  0  0  0
   34.4128   19.7422   33.0525 H   0  0  0  0  0  0  0  0  0  0  0  0
   36.6294   18.9837   31.6294 H   0  0  0  0  0  0  0  0  0  0  0  0
   36.6681   19.4374   33.3720 H   0  0  0  0  0  0  0  0  0  0  0  0
   37.8409   24.1438   36.7191 H   0  0  0  0  0  0  0  0  0  0  0  0
   37.2878   26.5484   36.6992 H   0  0  0  0  0  0  0  0  0  0  0  0
   38.7685   28.1897   35.5907 H   0  0  0  0  0  0  0  0  0  0  0  0
   40.8677   27.3871   34.4673 H   0  0  0  0  0  0  0  0  0  0  0  0
   40.5913   25.1425   32.4568 H   0  0  0  0  0  0  0  0  0  0  0  0
   42.5335   24.6672   31.0120 H   0  0  0  0  0  0  0  0  0  0  0  0
   44.7867   24.2649   32.0234 H   0  0  0  0  0  0  0  0  0  0  0  0
   46.1634   24.0988   34.0450 H   0  0  0  0  0  0  0  0  0  0  0  0
   46.3218   24.2116   36.5117 H   0  0  0  0  0  0  0  0  0  0  0  0
   44.3408   24.6954   37.9174 H   0  0  0  0  0  0  0  0  0  0  0  0
   42.1101   25.0864   36.8305 H   0  0  0  0  0  0  0  0  0  0  0  0
  1 13  1  0
  2  1  2  0
  3  2  1  0
  4  3  2  0
  4  5  1  0
  5  6  2  0
  6  1  1  0
  7 12  1  0
  7  3  1  0
  8  9  1  0
  8  7  1  0
  9 10  1  0
 11 12  1  0
 11 10  1  0
 13 15  1  0
 13 14  2  0
 15 16  2  0
 17 16  1  0
 18 17  2  0
 19 20  2  0
 19 18  1  0
 20 15  1  0
 21 30  1  0
 21 20  1  0
 22 21  2  0
 23 24  2  0
 23 22  1  0
 24 25  1  0
 25 26  1  0
 25 30  2  0
 26 27  2  0
 27 28  1  0
 29 28  2  0
 30 29  1  0
  2 31  1  0
  5 32  1  0
  8 33  1  0
  8 34  1  0
  9 35  1  0
  9 36  1  0
 11 37  1  0
 11 38  1  0
 12 39  1  0
 12 40  1  0
 16 41  1  0
 17 42  1  0
 18 43  1  0
 19 44  1  0
 22 45  1  0
 23 46  1  0
 24 47  1  0
 26 48  1  0
 27 49  1  0
 28 50  1  0
 29 51  1  0
M  ISO  8  31  14  32  14  33  13  34  13  35  13  36  13  37  13  38  13
M  ISO  8  39  13  40  13  41  14  42  14  43  14  44  14  45  14  46  14
M  ISO  5  47  14  48  14  49  14  50  14  51  14
M  END
>  <minimizedAffinity>  (1) 
-5.92928362

>  <minimizedRMSD>  (1) 
0.573376417

$$$$
