
     RDKit          3D

 51 54  0  0  0  0  0  0  0  0999 V2000
   39.7750   22.1670   34.5280 C   0  0  0  0  0  0  0  0  0  0  0  0
   38.5410   21.9710   33.9260 C   0  0  0  0  0  0  0  0  0  0  0  0
   38.4830   21.1600   32.8080 C   0  0  0  0  0  0  0  0  0  0  0  0
   39.6160   20.5910   32.3430 N   0  0  0  0  0  0  0  0  0  0  0  0
   40.7930   20.8040   32.9510 C   0  0  0  0  0  0  0  0  0  0  0  0
   40.8740   21.5750   34.0220 N   0  0  0  0  0  0  0  0  0  0  0  0
   37.3190   20.8310   32.0550 N   0  0  0  0  0  0  0  0  0  0  0  0
   36.7990   21.5690   30.9330 C   0  0  0  0  0  0  0  0  0  0  0  0
   35.4070   22.0470   31.2400 C   0  0  0  0  0  0  0  0  0  0  0  0
   34.9120   21.3990   32.3920 O   0  0  0  0  0  0  0  0  0  0  0  0
   35.0080   20.0360   32.2260 C   0  0  0  0  0  0  0  0  0  0  0  0
   36.4740   19.6600   32.3360 C   0  0  0  0  0  0  0  0  0  0  0  0
   39.8130   23.0310   35.6840 C   0  0  0  0  0  0  0  0  0  0  0  0
   40.0910   22.6260   36.8600 O   0  0  0  0  0  0  0  0  0  0  0  0
   39.5390   24.4540   35.6380 C   0  0  0  0  0  0  0  0  0  0  0  0
   38.3810   24.9760   36.1960 C   0  0  0  0  0  0  0  0  0  0  0  0
   38.1030   26.3310   36.1390 C   0  0  0  0  0  0  0  0  0  0  0  0
   38.9970   27.2040   35.5090 C   0  0  0  0  0  0  0  0  0  0  0  0
   40.1490   26.6750   34.9560 C   0  0  0  0  0  0  0  0  0  0  0  0
   40.4030   25.3200   35.0290 C   0  0  0  0  0  0  0  0  0  0  0  0
   41.7120   24.9750   34.3990 C   0  0  0  0  0  0  0  0  0  0  0  0
   41.7700   25.2580   32.9470 C   0  0  0  0  0  0  0  0  0  0  0  0
   42.4240   26.5380   32.5210 C   0  0  0  0  0  0  0  0  0  0  0  0
   43.3990   27.1370   33.4600 C   0  0  0  0  0  0  0  0  0  0  0  0
   43.9520   26.1020   34.3760 C   0  0  0  0  0  0  0  0  0  0  0  0
   42.8970   25.4760   35.2000 C   0  0  0  0  0  0  0  0  0  0  0  0
   37.6341   22.4474   34.3268 H   0  0  0  0  0  0  0  0  0  0  0  0
   41.7028   20.3308   32.5530 H   0  0  0  0  0  0  0  0  0  0  0  0
   36.7745   20.9176   30.0470 H   0  0  0  0  0  0  0  0  0  0  0  0
   37.4463   22.4365   30.7369 H   0  0  0  0  0  0  0  0  0  0  0  0
   35.4258   23.1330   31.4138 H   0  0  0  0  0  0  0  0  0  0  0  0
   34.7515   21.8143   30.3878 H   0  0  0  0  0  0  0  0  0  0  0  0
   34.6214   19.7510   31.2364 H   0  0  0  0  0  0  0  0  0  0  0  0
   34.4173   19.5120   32.9919 H   0  0  0  0  0  0  0  0  0  0  0  0
   36.7011   18.8650   31.6104 H   0  0  0  0  0  0  0  0  0  0  0  0
   36.6789   19.3050   33.3568 H   0  0  0  0  0  0  0  0  0  0  0  0
   37.6699   24.3001   36.6934 H   0  0  0  0  0  0  0  0  0  0  0  0
   37.1786   26.7217   36.5893 H   0  0  0  0  0  0  0  0  0  0  0  0
   38.7889   28.2828   35.4550 H   0  0  0  0  0  0  0  0  0  0  0  0
   40.8683   27.3389   34.4542 H   0  0  0  0  0  0  0  0  0  0  0  0
   41.7930   23.8789   34.4431 H   0  0  0  0  0  0  0  0  0  0  0  0
   42.3192   24.4322   32.4712 H   0  0  0  0  0  0  0  0  0  0  0  0
   40.7195   25.3613   32.6375 H   0  0  0  0  0  0  0  0  0  0  0  0
   42.9503   26.3434   31.5749 H   0  0  0  0  0  0  0  0  0  0  0  0
   41.6052   27.2694   32.4528 H   0  0  0  0  0  0  0  0  0  0  0  0
   44.2220   27.5885   32.8866 H   0  0  0  0  0  0  0  0  0  0  0  0
   42.8867   27.9032   34.0605 H   0  0  0  0  0  0  0  0  0  0  0  0
   44.4443   25.3224   33.7761 H   0  0  0  0  0  0  0  0  0  0  0  0
   44.6675   26.5923   35.0526 H   0  0  0  0  0  0  0  0  0  0  0  0
   42.5358   26.2203   35.9250 H   0  0  0  0  0  0  0  0  0  0  0  0
   43.3487   24.5990   35.6866 H   0  0  0  0  0  0  0  0  0  0  0  0
  1 13  1  0
  2  1  2  0
  3  2  1  0
  4  3  2  0
  4  5  1  0
  5  6  2  0
  6  1  1  0
  7 12  1  0
  7  3  1  0
  8  9  1  0
  8  7  1  0
  9 10  1  0
 11 12  1  0
 11 10  1  0
 13 14  2  0
 15 13  1  0
 15 16  2  0
 17 16  1  0
 18 17  2  0
 19 20  2  0
 19 18  1  0
 20 15  1  0
 21 20  1  0
 21 26  1  0
 22 21  1  0
 23 22  1  0
 23 24  1  0
 24 25  1  0
 25 26  1  0
  2 27  1  0
  5 28  1  0
  8 29  1  0
  8 30  1  0
  9 31  1  0
  9 32  1  0
 11 33  1  0
 11 34  1  0
 12 35  1  0
 12 36  1  0
 16 37  1  0
 17 38  1  0
 18 39  1  0
 19 40  1  0
 21 41  1  0
 22 42  1  0
 22 43  1  0
 23 44  1  0
 23 45  1  0
 24 46  1  0
 24 47  1  0
 25 48  1  0
 25 49  1  0
 26 50  1  0
 26 51  1  0
M  ISO  8  27  14  28  14  29  13  30  13  31  13  32  13  33  13  34  13
M  ISO  8  35  13  36  13  37  14  38  14  39  14  40  14  41  13  42  13
M  ISO  8  43  13  44  13  45  13  46  13  47  13  48  13  49  13  50  13
M  ISO  1  51  13
M  END
>  <minimizedAffinity>  (1) 
-5.49842358

>  <minimizedRMSD>  (1) 
0.258019567

$$$$
