
     RDKit          3D

 42 45  0  0  0  0  0  0  0  0999 V2000
   39.9570   22.3690   34.5550 C   0  0  0  0  0  0  0  0  0  0  0  0
   38.7170   22.1730   33.9730 C   0  0  0  0  0  0  0  0  0  0  0  0
   38.6010   21.3200   32.8950 C   0  0  0  0  0  0  0  0  0  0  0  0
   39.7350   20.6970   32.4430 N   0  0  0  0  0  0  0  0  0  0  0  0
   40.9220   20.9080   33.0290 C   0  0  0  0  0  0  0  0  0  0  0  0
   41.0350   21.7280   34.0660 N   0  0  0  0  0  0  0  0  0  0  0  0
   37.4280   20.9920   32.1740 N   0  0  0  0  0  0  0  0  0  0  0  0
   36.9350   21.6950   31.0160 C   0  0  0  0  0  0  0  0  0  0  0  0
   35.5650   22.2410   31.3020 C   0  0  0  0  0  0  0  0  0  0  0  0
   35.0450   21.6690   32.4920 O   0  0  0  0  0  0  0  0  0  0  0  0
   35.0940   20.2970   32.3940 C   0  0  0  0  0  0  0  0  0  0  0  0
   36.5430   19.8690   32.5160 C   0  0  0  0  0  0  0  0  0  0  0  0
   40.0310   23.2620   35.6680 C   0  0  0  0  0  0  0  0  0  0  0  0
   40.5050   22.9520   36.8210 O   0  0  0  0  0  0  0  0  0  0  0  0
   39.5770   24.6390   35.6390 C   0  0  0  0  0  0  0  0  0  0  0  0
   38.3400   25.0170   36.1530 C   0  0  0  0  0  0  0  0  0  0  0  0
   37.9040   26.3340   36.0930 C   0  0  0  0  0  0  0  0  0  0  0  0
   38.6870   27.3040   35.5180 C   0  0  0  0  0  0  0  0  0  0  0  0
   39.9020   26.9400   35.0110 C   0  0  0  0  0  0  0  0  0  0  0  0
   40.3500   25.6050   35.0740 C   0  0  0  0  0  0  0  0  0  0  0  0
   41.7410   25.5540   34.6450 C   0  0  0  0  0  0  0  0  0  0  0  0
   42.2350   25.1600   33.3960 C   0  0  0  0  0  0  0  0  0  0  0  0
   43.5790   25.1840   33.3800 N   0  0  0  0  0  0  0  0  0  0  0  0
   44.0100   25.5800   34.5640 C   0  0  0  0  0  0  0  0  0  0  0  0
   42.9090   25.7830   35.2670 N   0  0  0  0  0  0  0  0  0  0  0  0
   37.8312   22.6930   34.3666 H   0  0  0  0  0  0  0  0  0  0  0  0
   41.8153   20.3939   32.6446 H   0  0  0  0  0  0  0  0  0  0  0  0
   36.8822   21.0028   30.1627 H   0  0  0  0  0  0  0  0  0  0  0  0
   37.6157   22.5250   30.7759 H   0  0  0  0  0  0  0  0  0  0  0  0
   35.6272   23.3327   31.4213 H   0  0  0  0  0  0  0  0  0  0  0  0
   34.8981   21.9907   30.4638 H   0  0  0  0  0  0  0  0  0  0  0  0
   34.5018   19.8438   33.2026 H   0  0  0  0  0  0  0  0  0  0  0  0
   34.6788   19.9682   31.4299 H   0  0  0  0  0  0  0  0  0  0  0  0
   36.7348   19.0315   31.8292 H   0  0  0  0  0  0  0  0  0  0  0  0
   36.7413   19.5545   33.5513 H   0  0  0  0  0  0  0  0  0  0  0  0
   37.6943   24.2566   36.6164 H   0  0  0  0  0  0  0  0  0  0  0  0
   36.9222   26.6025   36.5100 H   0  0  0  0  0  0  0  0  0  0  0  0
   38.3446   28.3481   35.4668 H   0  0  0  0  0  0  0  0  0  0  0  0
   40.5428   27.7029   34.5448 H   0  0  0  0  0  0  0  0  0  0  0  0
   41.6069   24.8693   32.5410 H   0  0  0  0  0  0  0  0  0  0  0  0
   45.0518   25.7115   34.8917 H   0  0  0  0  0  0  0  0  0  0  0  0
   42.9453   26.1018   36.2457 H   0  0  0  0  0  0  0  0  0  0  0  0
  1 13  1  0
  2  1  2  0
  3  2  1  0
  4  3  2  0
  4  5  1  0
  5  6  2  0
  6  1  1  0
  7 12  1  0
  7  3  1  0
  8  9  1  0
  8  7  1  0
  9 10  1  0
 11 10  1  0
 11 12  1  0
 13 14  2  0
 15 13  1  0
 15 16  2  0
 17 16  1  0
 18 17  2  0
 19 20  2  0
 19 18  1  0
 20 15  1  0
 21 20  1  0
 21 25  1  0
 22 21  2  0
 23 22  1  0
 23 24  2  0
 24 25  1  0
  2 26  1  0
  5 27  1  0
  8 28  1  0
  8 29  1  0
  9 30  1  0
  9 31  1  0
 11 32  1  0
 11 33  1  0
 12 34  1  0
 12 35  1  0
 16 36  1  0
 17 37  1  0
 18 38  1  0
 19 39  1  0
 22 40  1  0
 24 41  1  0
 25 42  1  0
M  ISO  8  26  14  27  14  28  13  29  13  30  13  31  13  32  13  33  13
M  ISO  8  34  13  35  13  36  14  37  14  38  14  39  14  40  14  41  14
M  ISO  1  42   9
M  END
>  <minimizedAffinity>  (1) 
-5.42977476

>  <minimizedRMSD>  (1) 
0.439082325

$$$$
