
     RDKit          3D

 46 49  0  0  1  0  0  0  0  0999 V2000
   39.7620   22.2480   34.5550 C   0  0  0  0  0  0  0  0  0  0  0  0
   38.5460   22.0090   33.9440 C   0  0  0  0  0  0  0  0  0  0  0  0
   38.4880   21.1830   32.8430 C   0  0  0  0  0  0  0  0  0  0  0  0
   39.6420   20.6270   32.3960 N   0  0  0  0  0  0  0  0  0  0  0  0
   40.8120   20.8740   33.0060 C   0  0  0  0  0  0  0  0  0  0  0  0
   40.8760   21.6720   34.0710 N   0  0  0  0  0  0  0  0  0  0  0  0
   37.3420   20.8200   32.0910 N   0  0  0  0  0  0  0  0  0  0  0  0
   36.8300   21.5320   30.9520 C   0  0  0  0  0  0  0  0  0  0  0  0
   35.4290   21.9960   31.2320 C   0  0  0  0  0  0  0  0  0  0  0  0
   34.9210   21.3610   32.3930 O   0  0  0  0  0  0  0  0  0  0  0  0
   35.0440   19.9980   32.2450 C   0  0  0  0  0  0  0  0  0  0  0  0
   36.5100   19.6460   32.3850 C   0  0  0  0  0  0  0  0  0  0  0  0
   39.7750   23.1180   35.6860 C   0  0  0  0  0  0  0  0  0  0  0  0
   40.0520   22.7390   36.8850 O   0  0  0  0  0  0  0  0  0  0  0  0
   39.4760   24.5350   35.6320 C   0  0  0  0  0  0  0  0  0  0  0  0
   38.2770   25.0440   36.1210 C   0  0  0  0  0  0  0  0  0  0  0  0
   37.9810   26.3910   36.0540 C   0  0  0  0  0  0  0  0  0  0  0  0
   38.8870   27.2790   35.4870 C   0  0  0  0  0  0  0  0  0  0  0  0
   40.0780   26.7800   35.0010 C   0  0  0  0  0  0  0  0  0  0  0  0
   40.3600   25.4040   35.0830 C   0  0  0  0  0  0  0  0  0  0  0  0
   41.6980   25.2170   34.5420 C   0  0  0  0  0  0  0  0  0  0  0  0
   42.8760   25.2850   35.2490 C   0  0  0  0  0  0  0  0  0  0  0  0
   44.1500   25.2040   34.7960 C   0  0  0  0  0  0  0  0  0  0  0  0
   44.3250   25.0300   33.4450 C   0  0  0  0  0  0  0  0  0  0  0  0
   43.1760   24.9560   32.6900 C   0  0  0  0  0  0  0  0  0  0  0  0
   41.9780   25.0480   33.2410 N   0  0  0  0  0  0  0  0  0  0  0  0
   37.6295   22.4756   34.3344 H   0  0  0  0  0  0  0  0  0  0  0  0
   41.7321   20.4104   32.6206 H   0  0  0  0  0  0  0  0  0  0  0  0
   36.8265   20.8664   30.0762 H   0  0  0  0  0  0  0  0  0  0  0  0
   37.4690   22.4044   30.7507 H   0  0  0  0  0  0  0  0  0  0  0  0
   35.4319   23.0851   31.3864 H   0  0  0  0  0  0  0  0  0  0  0  0
   34.7895   21.7375   30.3751 H   0  0  0  0  0  0  0  0  0  0  0  0
   34.6800   19.6954   31.2521 H   0  0  0  0  0  0  0  0  0  0  0  0
   34.4492   19.4742   33.0078 H   0  0  0  0  0  0  0  0  0  0  0  0
   36.7589   18.8383   31.6810 H   0  0  0  0  0  0  0  0  0  0  0  0
   36.7040   19.3169   33.4165 H   0  0  0  0  0  0  0  0  0  0  0  0
   38.7110   22.9028   35.8638 H   0  0  0  0  0  0  0  0  0  0  0  0
   39.6101   23.3436   37.5326 H   0  0  0  0  0  0  0  0  0  0  0  0
   37.5467   24.3562   36.5722 H   0  0  0  0  0  0  0  0  0  0  0  0
   37.0247   26.7624   36.4508 H   0  0  0  0  0  0  0  0  0  0  0  0
   38.6602   28.3537   35.4271 H   0  0  0  0  0  0  0  0  0  0  0  0
   40.8116   27.4622   34.5466 H   0  0  0  0  0  0  0  0  0  0  0  0
   42.7683   25.4248   36.3348 H   0  0  0  0  0  0  0  0  0  0  0  0
   45.0078   25.2746   35.4810 H   0  0  0  0  0  0  0  0  0  0  0  0
   45.3248   24.9542   32.9925 H   0  0  0  0  0  0  0  0  0  0  0  0
   43.2569   24.8169   31.6018 H   0  0  0  0  0  0  0  0  0  0  0  0
  1 13  1  0
  2  1  2  0
  3  2  1  0
  4  3  2  0
  4  5  1  0
  5  6  2  0
  6  1  1  0
  7 12  1  0
  7  3  1  0
  8  9  1  0
  8  7  1  0
  9 10  1  0
 11 12  1  0
 11 10  1  0
 13 14  1  0
 15 13  1  0
 15 16  2  0
 17 16  1  0
 18 17  2  0
 19 20  2  0
 19 18  1  0
 20 15  1  0
 21 20  1  0
 21 22  2  0
 23 22  1  0
 24 23  2  0
 25 26  2  0
 25 24  1  0
 26 21  1  0
  2 27  1  0
  5 28  1  0
  8 29  1  0
  8 30  1  0
  9 31  1  0
  9 32  1  0
 11 33  1  0
 11 34  1  0
 12 35  1  0
 12 36  1  0
 13 37  1  0
 14 38  1  0
 16 39  1  0
 17 40  1  0
 18 41  1  0
 19 42  1  0
 22 43  1  0
 23 44  1  0
 24 45  1  0
 25 46  1  0
M  ISO  8  27  14  28  14  29  13  30  13  31  13  32  13  33  13  34  13
M  ISO  8  35  13  36  13  37   8  38   3  39  14  40  14  41  14  42  14
M  ISO  4  43  14  44  14  45  14  46  14
M  END
>  <minimizedAffinity>  (1) 
-5.43822479

>  <minimizedRMSD>  (1) 
0.540770352

$$$$
