
     RDKit          3D

 48 51  0  0  0  0  0  0  0  0999 V2000
   39.8250   22.4620   34.5550 C   0  0  0  0  0  0  0  0  0  0  0  0
   38.6130   22.2020   33.9440 C   0  0  0  0  0  0  0  0  0  0  0  0
   38.5720   21.3270   32.8740 C   0  0  0  0  0  0  0  0  0  0  0  0
   39.7360   20.7480   32.4560 N   0  0  0  0  0  0  0  0  0  0  0  0
   40.8940   21.0280   33.0760 C   0  0  0  0  0  0  0  0  0  0  0  0
   40.9510   21.8680   34.1080 N   0  0  0  0  0  0  0  0  0  0  0  0
   37.4370   20.9340   32.1240 N   0  0  0  0  0  0  0  0  0  0  0  0
   36.9380   21.5890   30.9430 C   0  0  0  0  0  0  0  0  0  0  0  0
   35.5410   22.0700   31.1800 C   0  0  0  0  0  0  0  0  0  0  0  0
   35.0140   21.4970   32.3650 O   0  0  0  0  0  0  0  0  0  0  0  0
   35.1320   20.1240   32.2870 C   0  0  0  0  0  0  0  0  0  0  0  0
   36.5970   19.7750   32.4640 C   0  0  0  0  0  0  0  0  0  0  0  0
   39.8220   23.3750   35.6590 C   0  0  0  0  0  0  0  0  0  0  0  0
   40.2830   23.1030   36.8260 O   0  0  0  0  0  0  0  0  0  0  0  0
   39.2920   24.7270   35.5960 C   0  0  0  0  0  0  0  0  0  0  0  0
   37.9670   24.9960   35.9120 C   0  0  0  0  0  0  0  0  0  0  0  0
   37.4940   26.3090   35.8260 C   0  0  0  0  0  0  0  0  0  0  0  0
   38.3140   27.3450   35.4340 C   0  0  0  0  0  0  0  0  0  0  0  0
   39.6380   27.0750   35.1180 C   0  0  0  0  0  0  0  0  0  0  0  0
   40.1060   25.7540   35.2060 C   0  0  0  0  0  0  0  0  0  0  0  0
   44.2360   25.8860   34.0510 C   0  0  0  0  0  0  0  0  0  0  0  0
   43.3110   26.7350   33.4790 C   0  0  0  0  0  0  0  0  0  0  0  0
   42.0050   26.6130   33.9090 C   0  0  0  0  0  0  0  0  0  0  0  0
   41.5240   25.7120   34.8700 C   0  0  0  0  0  0  0  0  0  0  0  0
   42.5000   24.8950   35.4010 C   0  0  0  0  0  0  0  0  0  0  0  0
   43.8160   24.9790   35.0040 C   0  0  0  0  0  0  0  0  0  0  0  0
   45.9030   25.9760   33.5630 S   0  0  0  0  0  0  0  0  0  0  0  0
   46.3160   27.3290   33.0790 O   0  0  0  0  0  0  0  0  0  0  0  0
   46.7490   25.6850   34.7740 O   0  0  0  0  0  0  0  0  0  0  0  0
   37.6927   22.6849   34.3042 H   0  0  0  0  0  0  0  0  0  0  0  0
   41.8198   20.5510   32.7221 H   0  0  0  0  0  0  0  0  0  0  0  0
   36.9418   20.8790   30.1028 H   0  0  0  0  0  0  0  0  0  0  0  0
   37.5820   22.4487   30.7058 H   0  0  0  0  0  0  0  0  0  0  0  0
   35.5470   23.1655   31.2790 H   0  0  0  0  0  0  0  0  0  0  0  0
   34.9118   21.7702   30.3290 H   0  0  0  0  0  0  0  0  0  0  0  0
   34.5359   19.6513   33.0815 H   0  0  0  0  0  0  0  0  0  0  0  0
   34.7647   19.7609   31.3158 H   0  0  0  0  0  0  0  0  0  0  0  0
   36.8531   18.9336   31.8033 H   0  0  0  0  0  0  0  0  0  0  0  0
   36.7765   19.4952   33.5126 H   0  0  0  0  0  0  0  0  0  0  0  0
   37.2956   24.1837   36.2271 H   0  0  0  0  0  0  0  0  0  0  0  0
   36.4439   26.5198   36.0768 H   0  0  0  0  0  0  0  0  0  0  0  0
   37.9243   28.3718   35.3725 H   0  0  0  0  0  0  0  0  0  0  0  0
   40.3120   27.8851   34.8027 H   0  0  0  0  0  0  0  0  0  0  0  0
   43.6004   27.4736   32.7169 H   0  0  0  0  0  0  0  0  0  0  0  0
   41.2681   27.2900   33.4523 H   0  0  0  0  0  0  0  0  0  0  0  0
   42.2190   24.1544   36.1642 H   0  0  0  0  0  0  0  0  0  0  0  0
   44.5548   24.3034   35.4597 H   0  0  0  0  0  0  0  0  0  0  0  0
   46.0655   25.0849   32.5352 H   0  0  0  0  0  0  0  0  0  0  0  0
  1 13  1  0
  2  1  2  0
  3  2  1  0
  4  3  2  0
  4  5  1  0
  5  6  2  0
  6  1  1  0
  7 12  1  0
  7  3  1  0
  8  9  1  0
  8  7  1  0
  9 10  1  0
 11 10  1  0
 11 12  1  0
 13 14  2  0
 15 13  1  0
 15 16  2  0
 17 16  1  0
 18 17  2  0
 19 20  2  0
 19 18  1  0
 20 15  1  0
 21 26  2  0
 22 23  2  0
 22 21  1  0
 23 24  1  0
 24 20  1  0
 24 25  2  0
 26 25  1  0
 27 21  1  0
 27 29  2  0
 28 27  2  0
  2 30  1  0
  5 31  1  0
  8 32  1  0
  8 33  1  0
  9 34  1  0
  9 35  1  0
 11 36  1  0
 11 37  1  0
 12 38  1  0
 12 39  1  0
 16 40  1  0
 17 41  1  0
 18 42  1  0
 19 43  1  0
 22 44  1  0
 23 45  1  0
 25 46  1  0
 26 47  1  0
 27 48  1  0
M  ISO  8  30  14  31  14  32  13  33  13  34  13  35  13  36  13  37  13
M  ISO  8  38  13  39  13  40  14  41  14  42  14  43  14  44  14  45  14
M  ISO  3  46  14  47  14  48  11
M  END
>  <minimizedAffinity>  (1) 
-5.47523403

>  <minimizedRMSD>  (1) 
1.1392889

$$$$
