
     RDKit          3D

 43 46  0  0  0  0  0  0  0  0999 V2000
   39.7800   22.2500   34.5790 C   0  0  0  0  0  0  0  0  0  0  0  0
   38.5480   22.0290   33.9750 C   0  0  0  0  0  0  0  0  0  0  0  0
   38.4990   21.2090   32.8610 C   0  0  0  0  0  0  0  0  0  0  0  0
   39.6510   20.6500   32.3920 N   0  0  0  0  0  0  0  0  0  0  0  0
   40.8180   20.8950   33.0110 C   0  0  0  0  0  0  0  0  0  0  0  0
   40.8910   21.6740   34.0780 N   0  0  0  0  0  0  0  0  0  0  0  0
   37.3410   20.8570   32.1130 N   0  0  0  0  0  0  0  0  0  0  0  0
   36.8330   21.5720   30.9710 C   0  0  0  0  0  0  0  0  0  0  0  0
   35.4410   22.0520   31.2500 C   0  0  0  0  0  0  0  0  0  0  0  0
   34.9300   21.4220   32.4120 O   0  0  0  0  0  0  0  0  0  0  0  0
   35.0380   20.0570   32.2650 C   0  0  0  0  0  0  0  0  0  0  0  0
   36.4980   19.6910   32.4230 C   0  0  0  0  0  0  0  0  0  0  0  0
   39.8000   23.1150   35.7200 C   0  0  0  0  0  0  0  0  0  0  0  0
   40.0970   22.7380   36.9100 O   0  0  0  0  0  0  0  0  0  0  0  0
   39.4830   24.5290   35.6760 C   0  0  0  0  0  0  0  0  0  0  0  0
   38.3020   25.0340   36.2080 C   0  0  0  0  0  0  0  0  0  0  0  0
   37.9840   26.3800   36.1440 C   0  0  0  0  0  0  0  0  0  0  0  0
   38.8500   27.2620   35.5380 C   0  0  0  0  0  0  0  0  0  0  0  0
   40.0250   26.7790   35.0080 C   0  0  0  0  0  0  0  0  0  0  0  0
   40.3380   25.4080   35.0830 C   0  0  0  0  0  0  0  0  0  0  0  0
   41.6670   25.2450   34.4850 C   0  0  0  0  0  0  0  0  0  0  0  0
   42.8420   25.3970   35.1900 C   0  0  0  0  0  0  0  0  0  0  0  0
   44.1250   25.3530   34.7240 C   0  0  0  0  0  0  0  0  0  0  0  0
   44.2360   25.1320   33.3830 N   0  0  0  0  0  0  0  0  0  0  0  0
   43.0940   24.9780   32.6540 C   0  0  0  0  0  0  0  0  0  0  0  0
   41.8800   25.0370   33.2020 N   0  0  0  0  0  0  0  0  0  0  0  0
   37.6341   22.4944   34.3726 H   0  0  0  0  0  0  0  0  0  0  0  0
   41.7378   20.4355   32.6201 H   0  0  0  0  0  0  0  0  0  0  0  0
   36.8204   20.9034   30.0976 H   0  0  0  0  0  0  0  0  0  0  0  0
   37.4811   22.4370   30.7666 H   0  0  0  0  0  0  0  0  0  0  0  0
   35.4562   23.1411   31.4040 H   0  0  0  0  0  0  0  0  0  0  0  0
   34.7969   21.8028   30.3938 H   0  0  0  0  0  0  0  0  0  0  0  0
   34.4390   19.5488   33.0350 H   0  0  0  0  0  0  0  0  0  0  0  0
   34.6676   19.7455   31.2772 H   0  0  0  0  0  0  0  0  0  0  0  0
   36.7448   18.8688   31.7352 H   0  0  0  0  0  0  0  0  0  0  0  0
   36.6828   19.3749   33.4603 H   0  0  0  0  0  0  0  0  0  0  0  0
   37.5984   24.3427   36.6949 H   0  0  0  0  0  0  0  0  0  0  0  0
   37.0406   26.7442   36.5768 H   0  0  0  0  0  0  0  0  0  0  0  0
   38.6074   28.3333   35.4784 H   0  0  0  0  0  0  0  0  0  0  0  0
   40.7271   27.4714   34.5206 H   0  0  0  0  0  0  0  0  0  0  0  0
   42.7316   25.5774   36.2695 H   0  0  0  0  0  0  0  0  0  0  0  0
   44.9993   25.4853   35.3783 H   0  0  0  0  0  0  0  0  0  0  0  0
   43.1776   24.7981   31.5720 H   0  0  0  0  0  0  0  0  0  0  0  0
  1 13  1  0
  2  1  2  0
  3  2  1  0
  4  3  2  0
  4  5  1  0
  5  6  2  0
  6  1  1  0
  7 12  1  0
  7  3  1  0
  8  9  1  0
  8  7  1  0
  9 10  1  0
 11 10  1  0
 11 12  1  0
 13 14  2  0
 15 13  1  0
 15 16  2  0
 17 16  1  0
 18 17  2  0
 19 20  2  0
 19 18  1  0
 20 15  1  0
 21 20  1  0
 21 22  2  0
 23 22  1  0
 24 23  2  0
 25 26  2  0
 25 24  1  0
 26 21  1  0
  2 27  1  0
  5 28  1  0
  8 29  1  0
  8 30  1  0
  9 31  1  0
  9 32  1  0
 11 33  1  0
 11 34  1  0
 12 35  1  0
 12 36  1  0
 16 37  1  0
 17 38  1  0
 18 39  1  0
 19 40  1  0
 22 41  1  0
 23 42  1  0
 25 43  1  0
M  ISO  8  27  14  28  14  29  13  30  13  31  13  32  13  33  13  34  13
M  ISO  8  35  13  36  13  37  14  38  14  39  14  40  14  41  14  42  14
M  ISO  1  43  14
M  END
>  <minimizedAffinity>  (1) 
-5.4334178

>  <minimizedRMSD>  (1) 
0.322407156

$$$$
