
     RDKit          3D

 44 47  0  0  1  0  0  0  0  0999 V2000
   39.8130   22.2740   34.5890 C   0  0  0  0  0  0  0  0  0  0  0  0
   38.5890   22.0760   33.9760 C   0  0  0  0  0  0  0  0  0  0  0  0
   38.5120   21.2540   32.8720 C   0  0  0  0  0  0  0  0  0  0  0  0
   39.6600   20.6630   32.4250 N   0  0  0  0  0  0  0  0  0  0  0  0
   40.8260   20.8760   33.0410 C   0  0  0  0  0  0  0  0  0  0  0  0
   40.9110   21.6650   34.1050 N   0  0  0  0  0  0  0  0  0  0  0  0
   37.3580   20.9260   32.1170 N   0  0  0  0  0  0  0  0  0  0  0  0
   36.8700   21.6500   30.9720 C   0  0  0  0  0  0  0  0  0  0  0  0
   35.4860   22.1590   31.2450 C   0  0  0  0  0  0  0  0  0  0  0  0
   34.9560   21.5420   32.4070 O   0  0  0  0  0  0  0  0  0  0  0  0
   35.0340   20.1730   32.2680 C   0  0  0  0  0  0  0  0  0  0  0  0
   36.4880   19.7740   32.4110 C   0  0  0  0  0  0  0  0  0  0  0  0
   39.8490   23.1390   35.7270 C   0  0  0  0  0  0  0  0  0  0  0  0
   40.1810   22.7650   36.9120 O   0  0  0  0  0  0  0  0  0  0  0  0
   39.5150   24.5480   35.6910 C   0  0  0  0  0  0  0  0  0  0  0  0
   38.3360   25.0350   36.2470 C   0  0  0  0  0  0  0  0  0  0  0  0
   37.9960   26.3730   36.1930 C   0  0  0  0  0  0  0  0  0  0  0  0
   38.8320   27.2710   35.5740 C   0  0  0  0  0  0  0  0  0  0  0  0
   40.0100   26.8070   35.0130 C   0  0  0  0  0  0  0  0  0  0  0  0
   40.3390   25.4400   35.0830 C   0  0  0  0  0  0  0  0  0  0  0  0
   41.6480   25.2810   34.4690 C   0  0  0  0  0  0  0  0  0  0  0  0
   42.9080   25.4660   34.9920 C   0  0  0  0  0  0  0  0  0  0  0  0
   43.9240   25.3200   34.0790 C   0  0  0  0  0  0  0  0  0  0  0  0
   43.2500   25.0350   32.9550 N   0  0  0  0  0  0  0  0  0  0  0  0
   41.9540   25.0160   33.1970 N   0  0  0  0  0  0  0  0  0  0  0  0
   37.6863   22.5694   34.3654 H   0  0  0  0  0  0  0  0  0  0  0  0
   41.7344   20.3875   32.6586 H   0  0  0  0  0  0  0  0  0  0  0  0
   36.8475   20.9808   30.0992 H   0  0  0  0  0  0  0  0  0  0  0  0
   37.5367   22.5012   30.7693 H   0  0  0  0  0  0  0  0  0  0  0  0
   35.5230   23.2478   31.3968 H   0  0  0  0  0  0  0  0  0  0  0  0
   34.8407   21.9205   30.3867 H   0  0  0  0  0  0  0  0  0  0  0  0
   34.4333   19.6830   33.0484 H   0  0  0  0  0  0  0  0  0  0  0  0
   34.6462   19.8643   31.2860 H   0  0  0  0  0  0  0  0  0  0  0  0
   36.7129   18.9588   31.7075 H   0  0  0  0  0  0  0  0  0  0  0  0
   36.6704   19.4378   33.4424 H   0  0  0  0  0  0  0  0  0  0  0  0
   38.7984   22.8963   35.9447 H   0  0  0  0  0  0  0  0  0  0  0  0
   39.6953   23.3121   37.5789 H   0  0  0  0  0  0  0  0  0  0  0  0
   37.6526   24.3319   36.7456 H   0  0  0  0  0  0  0  0  0  0  0  0
   37.0554   26.7198   36.6458 H   0  0  0  0  0  0  0  0  0  0  0  0
   38.5704   28.3383   35.5251 H   0  0  0  0  0  0  0  0  0  0  0  0
   40.6914   27.5094   34.5107 H   0  0  0  0  0  0  0  0  0  0  0  0
   43.0859   25.7097   36.0498 H   0  0  0  0  0  0  0  0  0  0  0  0
   45.0095   25.4128   34.2306 H   0  0  0  0  0  0  0  0  0  0  0  0
   43.6817   24.8570   32.0369 H   0  0  0  0  0  0  0  0  0  0  0  0
  1 13  1  0
  2  1  2  0
  3  2  1  0
  4  3  2  0
  4  5  1  0
  5  6  2  0
  6  1  1  0
  7 12  1  0
  7  3  1  0
  8  9  1  0
  8  7  1  0
  9 10  1  0
 11 10  1  0
 11 12  1  0
 13 14  1  0
 15 13  1  0
 15 16  2  0
 17 16  1  0
 18 17  2  0
 19 20  2  0
 19 18  1  0
 20 15  1  0
 21 22  1  0
 21 20  1  0
 23 22  2  0
 24 25  1  0
 24 23  1  0
 25 21  2  0
  2 26  1  0
  5 27  1  0
  8 28  1  0
  8 29  1  0
  9 30  1  0
  9 31  1  0
 11 32  1  0
 11 33  1  0
 12 34  1  0
 12 35  1  0
 13 36  1  0
 14 37  1  0
 16 38  1  0
 17 39  1  0
 18 40  1  0
 19 41  1  0
 22 42  1  0
 23 43  1  0
 24 44  1  0
M  ISO  8  26  14  27  14  28  13  29  13  30  13  31  13  32  13  33  13
M  ISO  8  34  13  35  13  36   8  37   3  38  14  39  14  40  14  41  14
M  ISO  3  42  14  43  14  44   9
M  END
>  <minimizedAffinity>  (1) 
-5.2966938

>  <minimizedRMSD>  (1) 
0.268185019

$$$$
