
     RDKit          3D

 48 51  0  0  0  0  0  0  0  0999 V2000
   39.7620   22.2020   34.5240 C   0  0  0  0  0  0  0  0  0  0  0  0
   38.5360   21.9720   33.9240 C   0  0  0  0  0  0  0  0  0  0  0  0
   38.4700   21.1390   32.8200 C   0  0  0  0  0  0  0  0  0  0  0  0
   39.6200   20.5740   32.3620 N   0  0  0  0  0  0  0  0  0  0  0  0
   40.7940   20.8210   32.9730 C   0  0  0  0  0  0  0  0  0  0  0  0
   40.8740   21.6170   34.0330 N   0  0  0  0  0  0  0  0  0  0  0  0
   37.3240   20.7850   32.0750 N   0  0  0  0  0  0  0  0  0  0  0  0
   36.8210   21.4970   30.9240 C   0  0  0  0  0  0  0  0  0  0  0  0
   35.4220   21.9830   31.2010 C   0  0  0  0  0  0  0  0  0  0  0  0
   34.9070   21.3690   32.3640 O   0  0  0  0  0  0  0  0  0  0  0  0
   35.0120   19.9990   32.2340 C   0  0  0  0  0  0  0  0  0  0  0  0
   36.4770   19.6210   32.3790 C   0  0  0  0  0  0  0  0  0  0  0  0
   39.7750   23.0740   35.6680 C   0  0  0  0  0  0  0  0  0  0  0  0
   40.0630   22.6900   36.8580 O   0  0  0  0  0  0  0  0  0  0  0  0
   39.4640   24.4930   35.6120 C   0  0  0  0  0  0  0  0  0  0  0  0
   38.2630   24.9860   36.0630 C   0  0  0  0  0  0  0  0  0  0  0  0
   38.0160   26.3560   35.9800 C   0  0  0  0  0  0  0  0  0  0  0  0
   38.9360   27.2400   35.4600 C   0  0  0  0  0  0  0  0  0  0  0  0
   40.1420   26.7450   35.0070 C   0  0  0  0  0  0  0  0  0  0  0  0
   40.3800   25.3670   35.0950 C   0  0  0  0  0  0  0  0  0  0  0  0
   41.6710   25.0320   34.5970 N   0  0  0  0  0  0  0  0  0  0  0  0
   42.9310   24.6760   35.2640 C   0  0  0  0  0  0  0  0  0  0  0  0
   43.9190   25.8060   35.0350 C   0  0  0  0  0  0  0  0  0  0  0  0
   43.7570   26.3780   33.7750 O   0  0  0  0  0  0  0  0  0  0  0  0
   43.2860   25.4960   32.8150 C   0  0  0  0  0  0  0  0  0  0  0  0
   41.8900   25.0160   33.1420 C   0  0  0  0  0  0  0  0  0  0  0  0
   37.6252   22.4453   34.3195 H   0  0  0  0  0  0  0  0  0  0  0  0
   41.7099   20.3517   32.5845 H   0  0  0  0  0  0  0  0  0  0  0  0
   36.8091   20.8241   30.0539 H   0  0  0  0  0  0  0  0  0  0  0  0
   37.4720   22.3587   30.7147 H   0  0  0  0  0  0  0  0  0  0  0  0
   35.4392   23.0735   31.3446 H   0  0  0  0  0  0  0  0  0  0  0  0
   34.7792   21.7234   30.3469 H   0  0  0  0  0  0  0  0  0  0  0  0
   34.4200   19.5038   33.0178 H   0  0  0  0  0  0  0  0  0  0  0  0
   34.6317   19.6794   31.2526 H   0  0  0  0  0  0  0  0  0  0  0  0
   36.7143   18.8044   31.6813 H   0  0  0  0  0  0  0  0  0  0  0  0
   36.6672   19.2930   33.4116 H   0  0  0  0  0  0  0  0  0  0  0  0
   37.5059   24.3083   36.4843 H   0  0  0  0  0  0  0  0  0  0  0  0
   37.0528   26.7445   36.3424 H   0  0  0  0  0  0  0  0  0  0  0  0
   38.7143   28.3161   35.4071 H   0  0  0  0  0  0  0  0  0  0  0  0
   40.9018   27.4193   34.5850 H   0  0  0  0  0  0  0  0  0  0  0  0
   42.7582   24.5441   36.3423 H   0  0  0  0  0  0  0  0  0  0  0  0
   43.3265   23.7342   34.8558 H   0  0  0  0  0  0  0  0  0  0  0  0
   43.7618   26.5792   35.8015 H   0  0  0  0  0  0  0  0  0  0  0  0
   44.9366   25.3931   35.0985 H   0  0  0  0  0  0  0  0  0  0  0  0
   43.9601   24.6281   32.7653 H   0  0  0  0  0  0  0  0  0  0  0  0
   43.2532   26.0217   31.8493 H   0  0  0  0  0  0  0  0  0  0  0  0
   41.1564   25.6771   32.6575 H   0  0  0  0  0  0  0  0  0  0  0  0
   41.7709   23.9862   32.7740 H   0  0  0  0  0  0  0  0  0  0  0  0
  1 13  1  0
  2  1  2  0
  3  2  1  0
  4  3  2  0
  4  5  1  0
  5  6  2  0
  6  1  1  0
  7 12  1  0
  7  3  1  0
  8  9  1  0
  8  7  1  0
  9 10  1  0
 11 10  1  0
 11 12  1  0
 13 14  2  0
 15 13  1  0
 15 16  2  0
 17 16  1  0
 18 17  2  0
 19 20  2  0
 19 18  1  0
 20 15  1  0
 21 20  1  0
 21 22  1  0
 23 22  1  0
 24 23  1  0
 25 26  1  0
 25 24  1  0
 26 21  1  0
  2 27  1  0
  5 28  1  0
  8 29  1  0
  8 30  1  0
  9 31  1  0
  9 32  1  0
 11 33  1  0
 11 34  1  0
 12 35  1  0
 12 36  1  0
 16 37  1  0
 17 38  1  0
 18 39  1  0
 19 40  1  0
 22 41  1  0
 22 42  1  0
 23 43  1  0
 23 44  1  0
 25 45  1  0
 25 46  1  0
 26 47  1  0
 26 48  1  0
M  ISO  8  27  14  28  14  29  13  30  13  31  13  32  13  33  13  34  13
M  ISO  8  35  13  36  13  37  14  38  14  39  14  40  14  41  13  42  13
M  ISO  6  43  13  44  13  45  13  46  13  47  13  48  13
M  END
>  <minimizedAffinity>  (1) 
-5.33179188

>  <minimizedRMSD>  (1) 
0.393384904

$$$$
