
     RDKit          3D

 41 44  0  0  0  0  0  0  0  0999 V2000
   40.0390   22.2670   34.4830 C   0  0  0  0  0  0  0  0  0  0  0  0
   38.7870   22.1150   33.9370 C   0  0  0  0  0  0  0  0  0  0  0  0
   38.6420   21.2630   32.8530 C   0  0  0  0  0  0  0  0  0  0  0  0
   39.7270   20.6100   32.3670 N   0  0  0  0  0  0  0  0  0  0  0  0
   40.9430   20.7850   32.9310 C   0  0  0  0  0  0  0  0  0  0  0  0
   41.1080   21.6080   33.9860 N   0  0  0  0  0  0  0  0  0  0  0  0
   37.4410   20.9780   32.1570 N   0  0  0  0  0  0  0  0  0  0  0  0
   36.9440   21.7030   31.0060 C   0  0  0  0  0  0  0  0  0  0  0  0
   35.5880   22.2920   31.3270 C   0  0  0  0  0  0  0  0  0  0  0  0
   35.0780   21.7470   32.5150 O   0  0  0  0  0  0  0  0  0  0  0  0
   35.0840   20.3710   32.4070 C   0  0  0  0  0  0  0  0  0  0  0  0
   36.5200   19.8930   32.5050 C   0  0  0  0  0  0  0  0  0  0  0  0
   40.1540   23.1560   35.6050 C   0  0  0  0  0  0  0  0  0  0  0  0
   40.7030   22.8590   36.7220 O   0  0  0  0  0  0  0  0  0  0  0  0
   39.6550   24.5240   35.6140 C   0  0  0  0  0  0  0  0  0  0  0  0
   38.4760   24.8660   36.2230 C   0  0  0  0  0  0  0  0  0  0  0  0
   38.0600   26.2020   36.1910 C   0  0  0  0  0  0  0  0  0  0  0  0
   38.7890   27.1930   35.5700 C   0  0  0  0  0  0  0  0  0  0  0  0
   39.9670   26.8550   34.9610 C   0  0  0  0  0  0  0  0  0  0  0  0
   40.3830   25.5280   34.9910 C   0  0  0  0  0  0  0  0  0  0  0  0
   41.6160   25.1940   34.3490 N   0  0  0  0  0  0  0  0  0  0  0  0
   42.6820   25.2970   35.1680 C   0  0  0  0  0  0  0  0  0  0  0  0
   43.7960   24.9610   34.4680 N   0  0  0  0  0  0  0  0  0  0  0  0
   43.4040   24.6580   33.2390 C   0  0  0  0  0  0  0  0  0  0  0  0
   42.0500   24.8000   33.1540 N   0  0  0  0  0  0  0  0  0  0  0  0
   37.9222   22.6554   34.3494 H   0  0  0  0  0  0  0  0  0  0  0  0
   41.8115   20.2474   32.5227 H   0  0  0  0  0  0  0  0  0  0  0  0
   36.8523   21.0161   30.1517 H   0  0  0  0  0  0  0  0  0  0  0  0
   37.6443   22.5125   30.7526 H   0  0  0  0  0  0  0  0  0  0  0  0
   35.6860   23.3815   31.4427 H   0  0  0  0  0  0  0  0  0  0  0  0
   34.8967   22.0556   30.5047 H   0  0  0  0  0  0  0  0  0  0  0  0
   34.6575   20.0719   31.4382 H   0  0  0  0  0  0  0  0  0  0  0  0
   34.4798   19.9247   33.2106 H   0  0  0  0  0  0  0  0  0  0  0  0
   36.6709   19.0523   31.8118 H   0  0  0  0  0  0  0  0  0  0  0  0
   36.7204   19.5702   33.5373 H   0  0  0  0  0  0  0  0  0  0  0  0
   37.8664   24.1028   36.7289 H   0  0  0  0  0  0  0  0  0  0  0  0
   37.1130   26.4718   36.6813 H   0  0  0  0  0  0  0  0  0  0  0  0
   38.4317   28.2333   35.5640 H   0  0  0  0  0  0  0  0  0  0  0  0
   40.5749   27.6201   34.4561 H   0  0  0  0  0  0  0  0  0  0  0  0
   42.6540   25.6017   36.2246 H   0  0  0  0  0  0  0  0  0  0  0  0
   44.0650   24.3424   32.4183 H   0  0  0  0  0  0  0  0  0  0  0  0
  1 13  1  0
  2  1  2  0
  3  2  1  0
  4  3  2  0
  4  5  1  0
  5  6  2  0
  6  1  1  0
  7 12  1  0
  7  3  1  0
  8  9  1  0
  8  7  1  0
  9 10  1  0
 11 12  1  0
 11 10  1  0
 13 15  1  0
 13 14  2  0
 15 16  2  0
 17 16  1  0
 18 17  2  0
 19 20  2  0
 19 18  1  0
 20 15  1  0
 21 20  1  0
 21 22  1  0
 23 22  2  0
 24 23  1  0
 25 24  2  0
 25 21  1  0
  2 26  1  0
  5 27  1  0
  8 28  1  0
  8 29  1  0
  9 30  1  0
  9 31  1  0
 11 32  1  0
 11 33  1  0
 12 34  1  0
 12 35  1  0
 16 36  1  0
 17 37  1  0
 18 38  1  0
 19 39  1  0
 22 40  1  0
 24 41  1  0
M  ISO  8  26  14  27  14  28  13  29  13  30  13  31  13  32  13  33  13
M  ISO  8  34  13  35  13  36  14  37  14  38  14  39  14  40  14  41  14
M  END
>  <minimizedAffinity>  (1) 
-5.16439152

>  <minimizedRMSD>  (1) 
0.559552848

$$$$
