
     RDKit          3D

 40 42  0  0  1  0  0  0  0  0999 V2000
   39.7210   22.2720   34.6200 C   0  0  0  0  0  0  0  0  0  0  0  0
   38.5170   22.0250   33.9920 C   0  0  0  0  0  0  0  0  0  0  0  0
   38.4850   21.2100   32.8770 C   0  0  0  0  0  0  0  0  0  0  0  0
   39.6630   20.6760   32.4350 N   0  0  0  0  0  0  0  0  0  0  0  0
   40.8210   20.9360   33.0690 C   0  0  0  0  0  0  0  0  0  0  0  0
   40.8510   21.7190   34.1420 N   0  0  0  0  0  0  0  0  0  0  0  0
   37.3510   20.8450   32.1110 N   0  0  0  0  0  0  0  0  0  0  0  0
   36.8470   21.5570   30.9690 C   0  0  0  0  0  0  0  0  0  0  0  0
   35.4340   22.0060   31.2320 C   0  0  0  0  0  0  0  0  0  0  0  0
   34.9150   21.3670   32.3830 O   0  0  0  0  0  0  0  0  0  0  0  0
   35.0520   20.0060   32.2350 C   0  0  0  0  0  0  0  0  0  0  0  0
   36.5210   19.6630   32.3900 C   0  0  0  0  0  0  0  0  0  0  0  0
   39.7020   23.1260   35.7590 C   0  0  0  0  0  0  0  0  0  0  0  0
   39.9790   22.7470   36.9580 O   0  0  0  0  0  0  0  0  0  0  0  0
   39.3660   24.5360   35.7210 C   0  0  0  0  0  0  0  0  0  0  0  0
   38.2020   25.0410   36.2340 C   0  0  0  0  0  0  0  0  0  0  0  0
   37.9440   26.3970   36.1630 C   0  0  0  0  0  0  0  0  0  0  0  0
   38.8030   27.2970   35.5960 C   0  0  0  0  0  0  0  0  0  0  0  0
   39.9620   26.8030   35.0840 C   0  0  0  0  0  0  0  0  0  0  0  0
   40.2190   25.4360   35.1570 C   0  0  0  0  0  0  0  0  0  0  0  0
   41.5090   25.1630   34.5680 C   0  0  0  0  0  0  0  0  0  0  0  0
   42.6010   25.7410   34.8290 O   0  0  0  0  0  0  0  0  0  0  0  0
   42.4500   24.6000   33.7960 O   0  0  0  0  0  0  0  0  0  0  0  0
   37.5894   22.4740   34.3766 H   0  0  0  0  0  0  0  0  0  0  0  0
   41.7558   20.4942   32.6937 H   0  0  0  0  0  0  0  0  0  0  0  0
   36.8626   20.8958   30.0901 H   0  0  0  0  0  0  0  0  0  0  0  0
   37.4793   22.4373   30.7812 H   0  0  0  0  0  0  0  0  0  0  0  0
   35.4236   23.0949   31.3873 H   0  0  0  0  0  0  0  0  0  0  0  0
   34.8100   21.7394   30.3663 H   0  0  0  0  0  0  0  0  0  0  0  0
   34.4639   19.4857   33.0054 H   0  0  0  0  0  0  0  0  0  0  0  0
   34.6884   19.6908   31.2458 H   0  0  0  0  0  0  0  0  0  0  0  0
   36.7831   18.8604   31.6849 H   0  0  0  0  0  0  0  0  0  0  0  0
   36.7050   19.3309   33.4224 H   0  0  0  0  0  0  0  0  0  0  0  0
   38.6430   22.8799   35.9259 H   0  0  0  0  0  0  0  0  0  0  0  0
   39.5371   23.3516   37.6056 H   0  0  0  0  0  0  0  0  0  0  0  0
   37.4707   24.3667   36.7035 H   0  0  0  0  0  0  0  0  0  0  0  0
   36.9993   26.7712   36.5842 H   0  0  0  0  0  0  0  0  0  0  0  0
   38.5676   28.3708   35.5558 H   0  0  0  0  0  0  0  0  0  0  0  0
   40.6921   27.4790   34.6150 H   0  0  0  0  0  0  0  0  0  0  0  0
   42.2074   23.8700   33.1728 H   0  0  0  0  0  0  0  0  0  0  0  0
  1 13  1  0
  2  1  2  0
  3  2  1  0
  4  3  2  0
  4  5  1  0
  5  6  2  0
  6  1  1  0
  7 12  1  0
  7  3  1  0
  8  9  1  0
  8  7  1  0
  9 10  1  0
 11 10  1  0
 11 12  1  0
 13 14  1  0
 15 13  1  0
 15 16  2  0
 17 16  1  0
 18 17  2  0
 19 20  2  0
 19 18  1  0
 20 15  1  0
 21 22  2  0
 21 20  1  0
 23 21  1  0
  2 24  1  0
  5 25  1  0
  8 26  1  0
  8 27  1  0
  9 28  1  0
  9 29  1  0
 11 30  1  0
 11 31  1  0
 12 32  1  0
 12 33  1  0
 13 34  1  0
 14 35  1  0
 16 36  1  0
 17 37  1  0
 18 38  1  0
 19 39  1  0
 23 40  1  0
M  ISO  8  24  14  25  14  26  13  27  13  28  13  29  13  30  13  31  13
M  ISO  8  32  13  33  13  34   8  35   3  36  14  37  14  38  14  39  14
M  ISO  1  40   3
M  END
>  <minimizedAffinity>  (1) 
-5.08779907

>  <minimizedRMSD>  (1) 
0.234223321

$$$$
