
     RDKit          3D

 46 48  0  0  1  0  0  0  0  0999 V2000
   39.9460   22.3150   34.5530 C   0  0  0  0  0  0  0  0  0  0  0  0
   38.7080   22.1340   33.9670 C   0  0  0  0  0  0  0  0  0  0  0  0
   38.5930   21.3090   32.8670 C   0  0  0  0  0  0  0  0  0  0  0  0
   39.7110   20.7020   32.3970 N   0  0  0  0  0  0  0  0  0  0  0  0
   40.9000   20.8980   32.9880 C   0  0  0  0  0  0  0  0  0  0  0  0
   41.0220   21.6840   34.0440 N   0  0  0  0  0  0  0  0  0  0  0  0
   37.4130   21.0000   32.1430 N   0  0  0  0  0  0  0  0  0  0  0  0
   36.8980   21.7270   31.0160 C   0  0  0  0  0  0  0  0  0  0  0  0
   35.5230   22.2470   31.3340 C   0  0  0  0  0  0  0  0  0  0  0  0
   35.0240   21.6450   32.5040 O   0  0  0  0  0  0  0  0  0  0  0  0
   35.0840   20.2740   32.3590 C   0  0  0  0  0  0  0  0  0  0  0  0
   36.5380   19.8600   32.4620 C   0  0  0  0  0  0  0  0  0  0  0  0
   40.0220   23.1950   35.6710 C   0  0  0  0  0  0  0  0  0  0  0  0
   40.4620   22.8420   36.8310 O   0  0  0  0  0  0  0  0  0  0  0  0
   39.6110   24.5990   35.6450 C   0  0  0  0  0  0  0  0  0  0  0  0
   38.4340   24.9810   36.2860 C   0  0  0  0  0  0  0  0  0  0  0  0
   38.0280   26.2980   36.2770 C   0  0  0  0  0  0  0  0  0  0  0  0
   38.7860   27.2560   35.6300 C   0  0  0  0  0  0  0  0  0  0  0  0
   39.9480   26.8670   34.9990 C   0  0  0  0  0  0  0  0  0  0  0  0
   40.3630   25.5360   35.0050 C   0  0  0  0  0  0  0  0  0  0  0  0
   41.6380   25.3680   34.2860 C   0  0  0  0  0  0  0  0  0  0  0  0
   42.8040   25.2760   35.2940 C   0  0  0  0  0  0  0  0  0  0  0  0
   42.0020   26.6290   33.4800 C   0  0  0  0  0  0  0  0  0  0  0  0
   37.8218   22.6431   34.3738 H   0  0  0  0  0  0  0  0  0  0  0  0
   41.7912   20.3943   32.5855 H   0  0  0  0  0  0  0  0  0  0  0  0
   36.8437   21.0590   30.1437 H   0  0  0  0  0  0  0  0  0  0  0  0
   37.5648   22.5728   30.7924 H   0  0  0  0  0  0  0  0  0  0  0  0
   35.5734   23.3360   31.4810 H   0  0  0  0  0  0  0  0  0  0  0  0
   34.8507   22.0067   30.4972 H   0  0  0  0  0  0  0  0  0  0  0  0
   34.6810   19.9836   31.3776 H   0  0  0  0  0  0  0  0  0  0  0  0
   34.4875   19.7788   33.1394 H   0  0  0  0  0  0  0  0  0  0  0  0
   36.7342   19.0416   31.7537 H   0  0  0  0  0  0  0  0  0  0  0  0
   36.7446   19.5242   33.4889 H   0  0  0  0  0  0  0  0  0  0  0  0
   39.0037   22.9045   35.9689 H   0  0  0  0  0  0  0  0  0  0  0  0
   39.9198   23.2770   37.5360 H   0  0  0  0  0  0  0  0  0  0  0  0
   37.8243   24.2255   36.8032 H   0  0  0  0  0  0  0  0  0  0  0  0
   37.0973   26.5879   36.7866 H   0  0  0  0  0  0  0  0  0  0  0  0
   38.4678   28.3089   35.6190 H   0  0  0  0  0  0  0  0  0  0  0  0
   40.5593   27.6207   34.4811 H   0  0  0  0  0  0  0  0  0  0  0  0
   41.5092   24.4761   33.6552 H   0  0  0  0  0  0  0  0  0  0  0  0
   42.4059   25.3074   36.3190 H   0  0  0  0  0  0  0  0  0  0  0  0
   43.3477   24.3322   35.1406 H   0  0  0  0  0  0  0  0  0  0  0  0
   43.4890   26.1229   35.1406 H   0  0  0  0  0  0  0  0  0  0  0  0
   42.2392   27.4506   34.1719 H   0  0  0  0  0  0  0  0  0  0  0  0
   42.8763   26.4194   32.8462 H   0  0  0  0  0  0  0  0  0  0  0  0
   41.1505   26.9176   32.8462 H   0  0  0  0  0  0  0  0  0  0  0  0
  1 13  1  0
  2  1  2  0
  3  2  1  0
  4  3  2  0
  4  5  1  0
  5  6  2  0
  6  1  1  0
  7 12  1  0
  7  3  1  0
  8  9  1  0
  8  7  1  0
  9 10  1  0
 11 12  1  0
 11 10  1  0
 13 14  1  0
 15 13  1  0
 15 16  2  0
 17 16  1  0
 18 17  2  0
 19 20  2  0
 19 18  1  0
 20 15  1  0
 21 20  1  0
 21 22  1  0
 23 21  1  0
  2 24  1  0
  5 25  1  0
  8 26  1  0
  8 27  1  0
  9 28  1  0
  9 29  1  0
 11 30  1  0
 11 31  1  0
 12 32  1  0
 12 33  1  0
 13 34  1  0
 14 35  1  0
 16 36  1  0
 17 37  1  0
 18 38  1  0
 19 39  1  0
 21 40  1  0
 22 41  1  0
 22 42  1  0
 22 43  1  0
 23 44  1  0
 23 45  1  0
 23 46  1  0
M  ISO  8  24  14  25  14  26  13  27  13  28  13  29  13  30  13  31  13
M  ISO  8  32  13  33  13  34   8  35   3  36  14  37  14  38  14  39  14
M  ISO  7  40   8  41   8  42   8  43   8  44   8  45   8  46   8
M  END
>  <minimizedAffinity>  (1) 
-5.18822002

>  <minimizedRMSD>  (1) 
0.290532947

$$$$
