
     RDKit          3D

 40 42  0  0  1  0  0  0  0  0999 V2000
   39.9280   22.2860   34.5560 C   0  0  0  0  0  0  0  0  0  0  0  0
   38.6810   22.1120   33.9680 C   0  0  0  0  0  0  0  0  0  0  0  0
   38.5810   21.2630   32.8760 C   0  0  0  0  0  0  0  0  0  0  0  0
   39.7030   20.6340   32.4210 N   0  0  0  0  0  0  0  0  0  0  0  0
   40.8830   20.8340   33.0210 C   0  0  0  0  0  0  0  0  0  0  0  0
   41.0180   21.6380   34.0690 N   0  0  0  0  0  0  0  0  0  0  0  0
   37.4060   20.9500   32.1450 N   0  0  0  0  0  0  0  0  0  0  0  0
   36.9140   21.6580   30.9940 C   0  0  0  0  0  0  0  0  0  0  0  0
   35.5430   22.2050   31.2830 C   0  0  0  0  0  0  0  0  0  0  0  0
   35.0210   21.6350   32.4600 O   0  0  0  0  0  0  0  0  0  0  0  0
   35.0640   20.2600   32.3500 C   0  0  0  0  0  0  0  0  0  0  0  0
   36.5110   19.8300   32.4800 C   0  0  0  0  0  0  0  0  0  0  0  0
   39.9960   23.1740   35.6680 C   0  0  0  0  0  0  0  0  0  0  0  0
   40.4260   22.8450   36.8350 O   0  0  0  0  0  0  0  0  0  0  0  0
   39.5790   24.5800   35.6130 C   0  0  0  0  0  0  0  0  0  0  0  0
   38.3440   24.9720   36.1050 C   0  0  0  0  0  0  0  0  0  0  0  0
   37.9630   26.2970   36.0600 C   0  0  0  0  0  0  0  0  0  0  0  0
   38.7980   27.2510   35.5270 C   0  0  0  0  0  0  0  0  0  0  0  0
   40.0150   26.8630   35.0410 C   0  0  0  0  0  0  0  0  0  0  0  0
   40.4080   25.5310   35.0830 C   0  0  0  0  0  0  0  0  0  0  0  0
   41.7440   25.2980   34.4750 C   0  0  0  0  0  0  0  0  0  0  0  0
   42.5830   24.5350   35.3140 F   0  0  0  0  0  0  0  0  0  0  0  0
   42.4590   26.5170   34.4280 F   0  0  0  0  0  0  0  0  0  0  0  0
   41.7200   24.6500   33.2770 F   0  0  0  0  0  0  0  0  0  0  0  0
   37.7955   22.6345   34.3589 H   0  0  0  0  0  0  0  0  0  0  0  0
   41.7712   20.3144   32.6324 H   0  0  0  0  0  0  0  0  0  0  0  0
   36.8601   20.9703   30.1372 H   0  0  0  0  0  0  0  0  0  0  0  0
   37.5955   22.4888   30.7586 H   0  0  0  0  0  0  0  0  0  0  0  0
   35.6077   23.2960   31.4074 H   0  0  0  0  0  0  0  0  0  0  0  0
   34.8775   21.9571   30.4430 H   0  0  0  0  0  0  0  0  0  0  0  0
   34.4641   19.8017   33.1500 H   0  0  0  0  0  0  0  0  0  0  0  0
   34.6533   19.9390   31.3813 H   0  0  0  0  0  0  0  0  0  0  0  0
   36.7043   18.9925   31.7936 H   0  0  0  0  0  0  0  0  0  0  0  0
   36.7007   19.5167   33.5172 H   0  0  0  0  0  0  0  0  0  0  0  0
   38.9764   22.8840   35.9619 H   0  0  0  0  0  0  0  0  0  0  0  0
   39.8639   23.2751   37.5272 H   0  0  0  0  0  0  0  0  0  0  0  0
   37.6634   24.2218   36.5340 H   0  0  0  0  0  0  0  0  0  0  0  0
   36.9802   26.5939   36.4549 H   0  0  0  0  0  0  0  0  0  0  0  0
   38.4919   28.3070   35.4925 H   0  0  0  0  0  0  0  0  0  0  0  0
   40.6925   27.6153   34.6108 H   0  0  0  0  0  0  0  0  0  0  0  0
  1 13  1  0
  2  1  2  0
  3  2  1  0
  4  3  2  0
  4  5  1  0
  5  6  2  0
  6  1  1  0
  7 12  1  0
  7  3  1  0
  8  9  1  0
  8  7  1  0
  9 10  1  0
 11 10  1  0
 11 12  1  0
 13 14  1  0
 15 13  1  0
 15 16  2  0
 17 16  1  0
 18 17  2  0
 19 20  2  0
 19 18  1  0
 20 15  1  0
 21 20  1  0
 21 22  1  0
 23 21  1  0
 24 21  1  0
  2 25  1  0
  5 26  1  0
  8 27  1  0
  8 28  1  0
  9 29  1  0
  9 30  1  0
 11 31  1  0
 11 32  1  0
 12 33  1  0
 12 34  1  0
 13 35  1  0
 14 36  1  0
 16 37  1  0
 17 38  1  0
 18 39  1  0
 19 40  1  0
M  ISO  8  25  14  26  14  27  13  28  13  29  13  30  13  31  13  32  13
M  ISO  8  33  13  34  13  35   8  36   3  37  14  38  14  39  14  40  14
M  END
>  <minimizedAffinity>  (1) 
-5.18552732

>  <minimizedRMSD>  (1) 
0.365605503

$$$$
