
     RDKit          3D

 38 40  0  0  0  0  0  0  0  0999 V2000
   39.9590   22.2910   34.5460 C   0  0  0  0  0  0  0  0  0  0  0  0
   38.7040   22.1230   33.9770 C   0  0  0  0  0  0  0  0  0  0  0  0
   38.5940   21.2740   32.8820 C   0  0  0  0  0  0  0  0  0  0  0  0
   39.6930   20.6460   32.4130 N   0  0  0  0  0  0  0  0  0  0  0  0
   40.9020   20.8370   32.9960 C   0  0  0  0  0  0  0  0  0  0  0  0
   41.0310   21.6440   34.0440 N   0  0  0  0  0  0  0  0  0  0  0  0
   37.4000   20.9720   32.1630 N   0  0  0  0  0  0  0  0  0  0  0  0
   36.9120   21.6910   31.0090 C   0  0  0  0  0  0  0  0  0  0  0  0
   35.5560   22.2670   31.2970 C   0  0  0  0  0  0  0  0  0  0  0  0
   35.0350   21.7160   32.4690 O   0  0  0  0  0  0  0  0  0  0  0  0
   35.0550   20.3420   32.3690 C   0  0  0  0  0  0  0  0  0  0  0  0
   36.5020   19.8770   32.5110 C   0  0  0  0  0  0  0  0  0  0  0  0
   40.0410   23.1710   35.6730 C   0  0  0  0  0  0  0  0  0  0  0  0
   40.4970   22.8630   36.8110 O   0  0  0  0  0  0  0  0  0  0  0  0
   39.5940   24.5650   35.6330 C   0  0  0  0  0  0  0  0  0  0  0  0
   38.3810   24.9590   36.1740 C   0  0  0  0  0  0  0  0  0  0  0  0
   38.0010   26.2980   36.1100 C   0  0  0  0  0  0  0  0  0  0  0  0
   38.7950   27.2550   35.5210 C   0  0  0  0  0  0  0  0  0  0  0  0
   39.9990   26.8760   34.9800 C   0  0  0  0  0  0  0  0  0  0  0  0
   40.3870   25.5350   35.0410 C   0  0  0  0  0  0  0  0  0  0  0  0
   41.7040   25.1600   34.4420 C   0  0  0  0  0  0  0  0  0  0  0  0
   37.8240   22.6455   34.3802 H   0  0  0  0  0  0  0  0  0  0  0  0
   41.7861   20.3182   32.5971 H   0  0  0  0  0  0  0  0  0  0  0  0
   36.8409   21.0023   30.1542 H   0  0  0  0  0  0  0  0  0  0  0  0
   37.6085   22.5090   30.7729 H   0  0  0  0  0  0  0  0  0  0  0  0
   35.6425   23.3572   31.4157 H   0  0  0  0  0  0  0  0  0  0  0  0
   34.8819   22.0315   30.4602 H   0  0  0  0  0  0  0  0  0  0  0  0
   34.4415   19.9010   33.1685 H   0  0  0  0  0  0  0  0  0  0  0  0
   34.6463   20.0246   31.3983 H   0  0  0  0  0  0  0  0  0  0  0  0
   36.6819   19.0267   31.8367 H   0  0  0  0  0  0  0  0  0  0  0  0
   36.6874   19.5663   33.5498 H   0  0  0  0  0  0  0  0  0  0  0  0
   37.7217   24.2191   36.6513 H   0  0  0  0  0  0  0  0  0  0  0  0
   37.0362   26.5994   36.5439 H   0  0  0  0  0  0  0  0  0  0  0  0
   38.4710   28.3055   35.4841 H   0  0  0  0  0  0  0  0  0  0  0  0
   40.6522   27.6215   34.5029 H   0  0  0  0  0  0  0  0  0  0  0  0
   42.4268   24.9542   35.2452 H   0  0  0  0  0  0  0  0  0  0  0  0
   41.5813   24.2611   33.8200 H   0  0  0  0  0  0  0  0  0  0  0  0
   42.0732   25.9887   33.8200 H   0  0  0  0  0  0  0  0  0  0  0  0
  1 13  1  0
  2  1  2  0
  3  2  1  0
  4  3  2  0
  4  5  1  0
  5  6  2  0
  6  1  1  0
  7 12  1  0
  7  3  1  0
  8  9  1  0
  8  7  1  0
  9 10  1  0
 11 10  1  0
 11 12  1  0
 13 14  2  0
 15 13  1  0
 15 16  2  0
 17 16  1  0
 18 17  2  0
 19 20  2  0
 19 18  1  0
 20 15  1  0
 21 20  1  0
  2 22  1  0
  5 23  1  0
  8 24  1  0
  8 25  1  0
  9 26  1  0
  9 27  1  0
 11 28  1  0
 11 29  1  0
 12 30  1  0
 12 31  1  0
 16 32  1  0
 17 33  1  0
 18 34  1  0
 19 35  1  0
 21 36  1  0
 21 37  1  0
 21 38  1  0
M  ISO  8  22  14  23  14  24  13  25  13  26  13  27  13  28  13  29  13
M  ISO  8  30  13  31  13  32  14  33  14  34  14  35  14  36   8  37   8
M  ISO  1  38   8
M  END
>  <minimizedAffinity>  (1) 
-5.03910112

>  <minimizedRMSD>  (1) 
0.261410803

$$$$
