
     RDKit          3D

 36 40  0  0  0  0  0  0  0  0999 V2000
   39.7290   22.8260   37.9360 C   0  0  0  0  0  0  0  0  0  0  0  0
   38.8370   23.6110   38.6940 C   0  0  0  0  0  0  0  0  0  0  0  0
   37.8370   24.3250   37.9970 C   0  0  0  0  0  0  0  0  0  0  0  0
   37.8160   24.1980   36.6310 N   0  0  0  0  0  0  0  0  0  0  0  0
   38.6930   23.4340   35.9410 C   0  0  0  0  0  0  0  0  0  0  0  0
   39.6340   22.7630   36.6120 N   0  0  0  0  0  0  0  0  0  0  0  0
   38.5170   23.4240   34.5340 N   0  0  0  0  0  0  0  0  0  0  0  0
   38.8630   22.3370   33.7750 C   0  0  0  0  0  0  0  0  0  0  0  0
   38.5890   22.5970   32.4710 N   0  0  0  0  0  0  0  0  0  0  0  0
   38.0690   23.8410   32.3770 C   0  0  0  0  0  0  0  0  0  0  0  0
   37.5960   24.6810   31.3680 C   0  0  0  0  0  0  0  0  0  0  0  0
   37.1300   25.9070   31.6330 N   0  0  0  0  0  0  0  0  0  0  0  0
   37.1180   26.3420   32.9080 C   0  0  0  0  0  0  0  0  0  0  0  0
   37.5650   25.5680   33.9180 N   0  0  0  0  0  0  0  0  0  0  0  0
   38.0380   24.3300   33.6770 C   0  0  0  0  0  0  0  0  0  0  0  0
   37.6830   24.0590   30.0880 N   0  0  0  0  0  0  0  0  0  0  0  0
   36.6240   27.6440   33.1920 N   0  0  0  0  0  0  0  0  0  0  0  0
   36.2510   27.9650   34.4610 C   0  0  0  0  0  0  0  0  0  0  0  0
   35.8120   29.2360   34.5290 N   0  0  0  0  0  0  0  0  0  0  0  0
   35.9030   29.7480   33.2830 C   0  0  0  0  0  0  0  0  0  0  0  0
   35.6420   30.9360   32.6340 C   0  0  0  0  0  0  0  0  0  0  0  0
   35.8600   31.1090   31.3240 N   0  0  0  0  0  0  0  0  0  0  0  0
   36.3590   30.0890   30.5670 C   0  0  0  0  0  0  0  0  0  0  0  0
   36.6400   28.8880   31.1400 N   0  0  0  0  0  0  0  0  0  0  0  0
   36.4110   28.7480   32.4500 C   0  0  0  0  0  0  0  0  0  0  0  0
   35.1180   31.9940   33.4490 N   0  0  0  0  0  0  0  0  0  0  0  0
   40.5173   22.2557   38.4491 H   0  0  0  0  0  0  0  0  0  0  0  0
   38.9167   23.6658   39.7897 H   0  0  0  0  0  0  0  0  0  0  0  0
   37.1071   24.9552   38.5262 H   0  0  0  0  0  0  0  0  0  0  0  0
   39.2945   21.4017   34.1611 H   0  0  0  0  0  0  0  0  0  0  0  0
   38.0616   23.1048   30.0038 H   0  0  0  0  0  0  0  0  0  0  0  0
   37.3673   24.5638   29.2476 H   0  0  0  0  0  0  0  0  0  0  0  0
   36.3015   27.2770   35.3178 H   0  0  0  0  0  0  0  0  0  0  0  0
   36.5343   30.2385   29.4914 H   0  0  0  0  0  0  0  0  0  0  0  0
   34.9005   32.9087   33.0283 H   0  0  0  0  0  0  0  0  0  0  0  0
   34.9593   31.8389   34.4548 H   0  0  0  0  0  0  0  0  0  0  0  0
  1  2  2  0
  3  2  1  0
  4  3  2  0
  5  6  2  0
  5  4  1  0
  6  1  1  0
  7  5  1  0
  8  7  1  0
  9  8  2  0
 10  9  1  0
 10 15  2  0
 11 12  2  0
 11 10  1  0
 12 13  1  0
 13 17  1  0
 13 14  2  0
 15 14  1  0
 15  7  1  0
 16 11  1  0
 17 18  1  0
 18 19  2  0
 20 19  1  0
 21 20  2  0
 21 26  1  0
 22 21  1  0
 23 24  1  0
 23 22  2  0
 24 25  2  0
 25 17  1  0
 25 20  1  0
  1 27  1  0
  2 28  1  0
  3 29  1  0
  8 30  1  0
 16 31  1  0
 16 32  1  0
 18 33  1  0
 23 34  1  0
 26 35  1  0
 26 36  1  0
M  ISO  6  27  14  28  14  29  14  30  14  33  14  34  14
M  END
>  <minimizedAffinity>  (1) 
-6.60565376

>  <minimizedRMSD>  (1) 
2.04674768

$$$$
