
     RDKit          3D

 33 36  0  0  0  0  0  0  0  0999 V2000
   39.7210   22.7940   37.8870 C   0  0  0  0  0  0  0  0  0  0  0  0
   38.7730   23.5220   38.6420 C   0  0  0  0  0  0  0  0  0  0  0  0
   37.7660   24.2190   37.9380 C   0  0  0  0  0  0  0  0  0  0  0  0
   37.7760   24.1400   36.5650 N   0  0  0  0  0  0  0  0  0  0  0  0
   38.7140   23.4220   35.8970 C   0  0  0  0  0  0  0  0  0  0  0  0
   39.6700   22.7610   36.5580 N   0  0  0  0  0  0  0  0  0  0  0  0
   38.5740   23.4400   34.4730 N   0  0  0  0  0  0  0  0  0  0  0  0
   38.9680   22.3830   33.6900 C   0  0  0  0  0  0  0  0  0  0  0  0
   38.7080   22.6630   32.3920 N   0  0  0  0  0  0  0  0  0  0  0  0
   38.1480   23.8940   32.3200 C   0  0  0  0  0  0  0  0  0  0  0  0
   37.6600   24.7490   31.3270 C   0  0  0  0  0  0  0  0  0  0  0  0
   37.1520   25.9460   31.6100 N   0  0  0  0  0  0  0  0  0  0  0  0
   37.1060   26.3470   32.8920 C   0  0  0  0  0  0  0  0  0  0  0  0
   37.5610   25.5640   33.8910 N   0  0  0  0  0  0  0  0  0  0  0  0
   38.0810   24.3480   33.6290 C   0  0  0  0  0  0  0  0  0  0  0  0
   37.7810   24.1510   30.0420 N   0  0  0  0  0  0  0  0  0  0  0  0
   36.5710   27.6190   33.2450 N   0  0  0  0  0  0  0  0  0  0  0  0
   36.4030   28.1570   34.4560 C   0  0  0  0  0  0  0  0  0  0  0  0
   35.8580   29.4220   34.5490 C   0  0  0  0  0  0  0  0  0  0  0  0
   35.4840   30.1460   33.4500 C   0  0  0  0  0  0  0  0  0  0  0  0
   34.9870   31.2960   33.5420 O   0  0  0  0  0  0  0  0  0  0  0  0
   35.6740   29.5560   32.2470 N   0  0  0  0  0  0  0  0  0  0  0  0
   36.2100   28.3110   32.1250 C   0  0  0  0  0  0  0  0  0  0  0  0
   36.3150   27.9180   30.9370 O   0  0  0  0  0  0  0  0  0  0  0  0
   40.5173   22.2434   38.4093 H   0  0  0  0  0  0  0  0  0  0  0  0
   38.8180   23.5449   39.7408 H   0  0  0  0  0  0  0  0  0  0  0  0
   37.0009   24.8042   38.4692 H   0  0  0  0  0  0  0  0  0  0  0  0
   39.4241   21.4531   34.0604 H   0  0  0  0  0  0  0  0  0  0  0  0
   38.1942   23.2122   29.9477 H   0  0  0  0  0  0  0  0  0  0  0  0
   37.4554   24.6567   29.2059 H   0  0  0  0  0  0  0  0  0  0  0  0
   36.6931   27.6032   35.3611 H   0  0  0  0  0  0  0  0  0  0  0  0
   35.7190   29.8653   35.5461 H   0  0  0  0  0  0  0  0  0  0  0  0
   35.4037   30.0668   31.3944 H   0  0  0  0  0  0  0  0  0  0  0  0
  1  2  2  0
  3  2  1  0
  4  3  2  0
  5  6  2  0
  5  4  1  0
  6  1  1  0
  7  5  1  0
  8  7  1  0
  9  8  2  0
 10  9  1  0
 10 15  2  0
 11 12  2  0
 11 10  1  0
 12 13  1  0
 13 17  1  0
 13 14  2  0
 15 14  1  0
 15  7  1  0
 16 11  1  0
 17 18  1  0
 18 19  2  0
 20 21  2  0
 20 19  1  0
 22 20  1  0
 23 22  1  0
 23 17  1  0
 24 23  2  0
  1 25  1  0
  2 26  1  0
  3 27  1  0
  8 28  1  0
 16 29  1  0
 16 30  1  0
 18 31  1  0
 19 32  1  0
 22 33  1  0
M  ISO  7  25  14  26  14  27  14  28  14  31  14  32  14  33   9
M  END
>  <minimizedAffinity>  (1) 
-6.5293045

>  <minimizedRMSD>  (1) 
1.88368881

$$$$
