
     RDKit          3D

 30 33  0  0  0  0  0  0  0  0999 V2000
   39.7410   22.8030   37.9180 C   0  0  0  0  0  0  0  0  0  0  0  0
   38.8320   23.5200   38.6990 C   0  0  0  0  0  0  0  0  0  0  0  0
   37.8100   24.2250   38.0320 C   0  0  0  0  0  0  0  0  0  0  0  0
   37.7980   24.1450   36.6640 N   0  0  0  0  0  0  0  0  0  0  0  0
   38.6930   23.4430   35.9420 C   0  0  0  0  0  0  0  0  0  0  0  0
   39.6580   22.7780   36.5810 N   0  0  0  0  0  0  0  0  0  0  0  0
   38.5320   23.4710   34.5330 N   0  0  0  0  0  0  0  0  0  0  0  0
   38.9000   22.4420   33.7250 C   0  0  0  0  0  0  0  0  0  0  0  0
   38.6250   22.7560   32.4360 N   0  0  0  0  0  0  0  0  0  0  0  0
   38.0740   23.9940   32.3960 C   0  0  0  0  0  0  0  0  0  0  0  0
   37.5910   24.8540   31.4160 C   0  0  0  0  0  0  0  0  0  0  0  0
   37.0950   26.0530   31.7250 N   0  0  0  0  0  0  0  0  0  0  0  0
   37.0690   26.4220   33.0190 C   0  0  0  0  0  0  0  0  0  0  0  0
   37.5220   25.6310   34.0050 N   0  0  0  0  0  0  0  0  0  0  0  0
   38.0250   24.4200   33.7130 C   0  0  0  0  0  0  0  0  0  0  0  0
   37.6980   24.2940   30.1100 N   0  0  0  0  0  0  0  0  0  0  0  0
   36.5350   27.7240   33.4020 C   0  0  0  0  0  0  0  0  0  0  0  0
   36.2600   28.6920   32.4310 C   0  0  0  0  0  0  0  0  0  0  0  0
   35.7650   29.8310   33.0610 C   0  0  0  0  0  0  0  0  0  0  0  0
   35.7710   29.4700   34.4130 C   0  0  0  0  0  0  0  0  0  0  0  0
   36.2180   28.2590   34.5590 O   0  0  0  0  0  0  0  0  0  0  0  0
   40.5475   22.2433   38.4143 H   0  0  0  0  0  0  0  0  0  0  0  0
   38.9109   23.5340   39.7961 H   0  0  0  0  0  0  0  0  0  0  0  0
   37.0589   24.8106   38.5824 H   0  0  0  0  0  0  0  0  0  0  0  0
   39.3519   21.4987   34.0654 H   0  0  0  0  0  0  0  0  0  0  0  0
   38.0994   23.3538   29.9841 H   0  0  0  0  0  0  0  0  0  0  0  0
   37.3739   24.8294   29.2919 H   0  0  0  0  0  0  0  0  0  0  0  0
   36.4100   28.5733   31.3478 H   0  0  0  0  0  0  0  0  0  0  0  0
   35.4472   30.7813   32.6072 H   0  0  0  0  0  0  0  0  0  0  0  0
   35.4430   30.1207   35.2370 H   0  0  0  0  0  0  0  0  0  0  0  0
  1  2  2  0
  3  2  1  0
  4  3  2  0
  5  6  2  0
  5  4  1  0
  6  1  1  0
  7  5  1  0
  8  7  1  0
  9  8  2  0
 10  9  1  0
 10 15  2  0
 11 12  2  0
 11 10  1  0
 12 13  1  0
 13 17  1  0
 13 14  2  0
 15 14  1  0
 15  7  1  0
 16 11  1  0
 17 21  1  0
 18 19  1  0
 18 17  2  0
 19 20  2  0
 20 21  1  0
  1 22  1  0
  2 23  1  0
  3 24  1  0
  8 25  1  0
 16 26  1  0
 16 27  1  0
 18 28  1  0
 19 29  1  0
 20 30  1  0
M  ISO  7  22  14  23  14  24  14  25  14  28  14  29  14  30  14
M  END
>  <minimizedAffinity>  (1) 
-5.71789026

>  <minimizedRMSD>  (1) 
1.61132705

$$$$
