
     RDKit          3D

 36 39  0  0  0  0  0  0  0  0999 V2000
   39.5580   22.8090   37.9810 C   0  0  0  0  0  0  0  0  0  0  0  0
   38.7700   23.7060   38.7080 C   0  0  0  0  0  0  0  0  0  0  0  0
   37.8620   24.5110   38.0050 C   0  0  0  0  0  0  0  0  0  0  0  0
   37.8100   24.3580   36.6420 N   0  0  0  0  0  0  0  0  0  0  0  0
   38.5920   23.4750   35.9750 C   0  0  0  0  0  0  0  0  0  0  0  0
   39.4730   22.6920   36.6410 N   0  0  0  0  0  0  0  0  0  0  0  0
   38.4240   23.4310   34.5590 N   0  0  0  0  0  0  0  0  0  0  0  0
   38.6230   22.3000   33.8290 C   0  0  0  0  0  0  0  0  0  0  0  0
   38.3930   22.5490   32.5180 N   0  0  0  0  0  0  0  0  0  0  0  0
   38.0420   23.8530   32.3950 C   0  0  0  0  0  0  0  0  0  0  0  0
   37.6900   24.7040   31.3490 C   0  0  0  0  0  0  0  0  0  0  0  0
   37.3890   25.9930   31.5810 N   0  0  0  0  0  0  0  0  0  0  0  0
   37.4270   26.4660   32.8420 C   0  0  0  0  0  0  0  0  0  0  0  0
   37.7640   25.6640   33.8790 N   0  0  0  0  0  0  0  0  0  0  0  0
   38.0680   24.3850   33.6790 C   0  0  0  0  0  0  0  0  0  0  0  0
   37.6980   24.0500   30.0820 N   0  0  0  0  0  0  0  0  0  0  0  0
   37.0940   27.8900   33.1020 C   0  0  0  0  0  0  0  0  0  0  0  0
   36.0430   28.4420   32.1750 C   0  0  0  0  0  0  0  0  0  0  0  0
   35.6270   29.6780   32.9590 C   0  0  0  0  0  0  0  0  0  0  0  0
   35.3760   29.0910   34.3330 C   0  0  0  0  0  0  0  0  0  0  0  0
   36.5070   28.0940   34.4920 C   0  0  0  0  0  0  0  0  0  0  0  0
   40.2746   22.1746   38.5231 H   0  0  0  0  0  0  0  0  0  0  0  0
   38.8597   23.7785   39.8019 H   0  0  0  0  0  0  0  0  0  0  0  0
   37.2178   25.2355   38.5247 H   0  0  0  0  0  0  0  0  0  0  0  0
   38.9260   21.3269   34.2429 H   0  0  0  0  0  0  0  0  0  0  0  0
   37.9457   23.0522   30.0190 H   0  0  0  0  0  0  0  0  0  0  0  0
   37.4561   24.5754   29.2297 H   0  0  0  0  0  0  0  0  0  0  0  0
   38.0570   28.4036   32.9648 H   0  0  0  0  0  0  0  0  0  0  0  0
   35.2058   27.7409   32.0426 H   0  0  0  0  0  0  0  0  0  0  0  0
   36.3853   28.6367   31.1479 H   0  0  0  0  0  0  0  0  0  0  0  0
   36.4308   30.4285   32.9830 H   0  0  0  0  0  0  0  0  0  0  0  0
   34.7638   30.2107   32.5334 H   0  0  0  0  0  0  0  0  0  0  0  0
   35.4230   29.8688   35.1094 H   0  0  0  0  0  0  0  0  0  0  0  0
   34.3800   28.6351   34.4334 H   0  0  0  0  0  0  0  0  0  0  0  0
   36.1230   27.1419   34.8870 H   0  0  0  0  0  0  0  0  0  0  0  0
   37.2672   28.4603   35.1977 H   0  0  0  0  0  0  0  0  0  0  0  0
  1  2  2  0
  3  2  1  0
  4  3  2  0
  5  6  2  0
  5  4  1  0
  6  1  1  0
  7  5  1  0
  8  7  1  0
  9  8  2  0
 10  9  1  0
 10 15  2  0
 11 12  2  0
 11 10  1  0
 12 13  1  0
 13 17  1  0
 13 14  2  0
 15 14  1  0
 15  7  1  0
 16 11  1  0
 17 21  1  0
 18 19  1  0
 18 17  1  0
 19 20  1  0
 20 21  1  0
  1 22  1  0
  2 23  1  0
  3 24  1  0
  8 25  1  0
 16 26  1  0
 16 27  1  0
 17 28  1  0
 18 29  1  0
 18 30  1  0
 19 31  1  0
 19 32  1  0
 20 33  1  0
 20 34  1  0
 21 35  1  0
 21 36  1  0
M  ISO  8  22  14  23  14  24  14  25  14  28  13  29  13  30  13  31  13
M  ISO  5  32  13  33  13  34  13  35  13  36  13
M  END
>  <minimizedAffinity>  (1) 
-5.78214502

>  <minimizedRMSD>  (1) 
2.01599622

$$$$
