
     RDKit          3D

 29 32  0  0  0  0  0  0  0  0999 V2000
   39.7410   22.7820   37.8610 C   0  0  0  0  0  0  0  0  0  0  0  0
   38.7710   23.4680   38.5920 C   0  0  0  0  0  0  0  0  0  0  0  0
   37.7450   24.1260   37.8830 C   0  0  0  0  0  0  0  0  0  0  0  0
   37.7720   24.0470   36.5190 N   0  0  0  0  0  0  0  0  0  0  0  0
   38.7280   23.3740   35.8430 C   0  0  0  0  0  0  0  0  0  0  0  0
   39.7060   22.7470   36.5240 N   0  0  0  0  0  0  0  0  0  0  0  0
   38.6360   23.3730   34.4260 N   0  0  0  0  0  0  0  0  0  0  0  0
   39.0970   22.3680   33.6410 C   0  0  0  0  0  0  0  0  0  0  0  0
   38.8650   22.6520   32.3380 N   0  0  0  0  0  0  0  0  0  0  0  0
   38.2450   23.8600   32.2670 C   0  0  0  0  0  0  0  0  0  0  0  0
   37.7570   24.6850   31.2530 C   0  0  0  0  0  0  0  0  0  0  0  0
   37.1750   25.8640   31.5410 N   0  0  0  0  0  0  0  0  0  0  0  0
   37.0730   26.2280   32.8230 C   0  0  0  0  0  0  0  0  0  0  0  0
   37.5320   25.4580   33.8250 N   0  0  0  0  0  0  0  0  0  0  0  0
   38.1190   24.2750   33.5730 C   0  0  0  0  0  0  0  0  0  0  0  0
   37.9580   24.1220   29.9560 N   0  0  0  0  0  0  0  0  0  0  0  0
   36.4330   27.5240   33.1420 C   0  0  0  0  0  0  0  0  0  0  0  0
   36.4590   28.2280   34.4520 C   0  0  0  0  0  0  0  0  0  0  0  0
   35.4860   29.6940   34.0570 S   0  0  0  0  0  0  0  0  0  0  0  0
   35.2010   29.1590   32.2550 C   0  0  0  0  0  0  0  0  0  0  0  0
   35.7800   28.0860   32.1430 N   0  0  0  0  0  0  0  0  0  0  0  0
   40.5497   22.2602   38.3937 H   0  0  0  0  0  0  0  0  0  0  0  0
   38.8055   23.4949   39.6911 H   0  0  0  0  0  0  0  0  0  0  0  0
   36.9535   24.6814   38.4075 H   0  0  0  0  0  0  0  0  0  0  0  0
   39.5879   21.4551   34.0093 H   0  0  0  0  0  0  0  0  0  0  0  0
   38.4185   23.2059   29.8579 H   0  0  0  0  0  0  0  0  0  0  0  0
   37.6424   24.6320   29.1186 H   0  0  0  0  0  0  0  0  0  0  0  0
   36.9382   27.9358   35.3981 H   0  0  0  0  0  0  0  0  0  0  0  0
   34.6370   29.6978   31.4794 H   0  0  0  0  0  0  0  0  0  0  0  0
  1  2  2  0
  3  2  1  0
  4  3  2  0
  5  4  1  0
  5  6  2  0
  6  1  1  0
  7  5  1  0
  8  7  1  0
  9  8  2  0
 10  9  1  0
 10 15  2  0
 11 12  2  0
 11 10  1  0
 12 13  1  0
 13 17  1  0
 13 14  2  0
 15 14  1  0
 15  7  1  0
 16 11  1  0
 17 18  2  0
 19 18  1  0
 20 19  1  0
 21 20  2  0
 21 17  1  0
  1 22  1  0
  2 23  1  0
  3 24  1  0
  8 25  1  0
 16 26  1  0
 16 27  1  0
 18 28  1  0
 20 29  1  0
M  ISO  6  22  14  23  14  24  14  25  14  28  14  29  14
M  END
>  <minimizedAffinity>  (1) 
-5.47857618

>  <minimizedRMSD>  (1) 
1.91569114

$$$$
