
     RDKit          3D

 30 33  0  0  0  0  0  0  0  0999 V2000
   39.7520   22.7690   37.9080 C   0  0  0  0  0  0  0  0  0  0  0  0
   38.8410   23.4880   38.6800 C   0  0  0  0  0  0  0  0  0  0  0  0
   37.8310   24.1960   38.0090 C   0  0  0  0  0  0  0  0  0  0  0  0
   37.8190   24.1280   36.6450 N   0  0  0  0  0  0  0  0  0  0  0  0
   38.7170   23.4220   35.9280 C   0  0  0  0  0  0  0  0  0  0  0  0
   39.6770   22.7490   36.5750 N   0  0  0  0  0  0  0  0  0  0  0  0
   38.5700   23.4500   34.5200 N   0  0  0  0  0  0  0  0  0  0  0  0
   38.9630   22.4360   33.7080 C   0  0  0  0  0  0  0  0  0  0  0  0
   38.6970   22.7450   32.4160 N   0  0  0  0  0  0  0  0  0  0  0  0
   38.1290   23.9630   32.3720 C   0  0  0  0  0  0  0  0  0  0  0  0
   37.6350   24.8260   31.3890 C   0  0  0  0  0  0  0  0  0  0  0  0
   37.1110   26.0250   31.7100 N   0  0  0  0  0  0  0  0  0  0  0  0
   37.0640   26.3910   32.9990 C   0  0  0  0  0  0  0  0  0  0  0  0
   37.5290   25.5890   33.9790 N   0  0  0  0  0  0  0  0  0  0  0  0
   38.0580   24.3860   33.6900 C   0  0  0  0  0  0  0  0  0  0  0  0
   37.7650   24.2790   30.0790 N   0  0  0  0  0  0  0  0  0  0  0  0
   36.5140   27.6620   33.4020 C   0  0  0  0  0  0  0  0  0  0  0  0
   36.3670   28.3890   34.5670 C   0  0  0  0  0  0  0  0  0  0  0  0
   35.7290   29.5560   34.2030 C   0  0  0  0  0  0  0  0  0  0  0  0
   35.4970   29.5450   32.8710 N   0  0  0  0  0  0  0  0  0  0  0  0
   35.9760   28.3990   32.4120 N   0  0  0  0  0  0  0  0  0  0  0  0
   40.5521   22.2044   38.4090 H   0  0  0  0  0  0  0  0  0  0  0  0
   38.9109   23.5003   39.7777 H   0  0  0  0  0  0  0  0  0  0  0  0
   37.0800   24.7816   38.5595 H   0  0  0  0  0  0  0  0  0  0  0  0
   39.4294   21.5000   34.0491 H   0  0  0  0  0  0  0  0  0  0  0  0
   38.1836   23.3469   29.9493 H   0  0  0  0  0  0  0  0  0  0  0  0
   37.4403   24.8159   29.2622 H   0  0  0  0  0  0  0  0  0  0  0  0
   36.6918   28.0973   35.5767 H   0  0  0  0  0  0  0  0  0  0  0  0
   35.4519   30.3695   34.8896 H   0  0  0  0  0  0  0  0  0  0  0  0
   35.0372   30.2842   32.3205 H   0  0  0  0  0  0  0  0  0  0  0  0
  1  2  2  0
  3  2  1  0
  4  3  2  0
  5  6  2  0
  5  4  1  0
  6  1  1  0
  7  5  1  0
  8  7  1  0
  9  8  2  0
 10  9  1  0
 10 15  2  0
 11 12  2  0
 11 10  1  0
 12 13  1  0
 13 17  1  0
 13 14  2  0
 15 14  1  0
 15  7  1  0
 16 11  1  0
 17 18  1  0
 19 18  2  0
 20 19  1  0
 21 20  1  0
 21 17  2  0
  1 22  1  0
  2 23  1  0
  3 24  1  0
  8 25  1  0
 16 26  1  0
 16 27  1  0
 18 28  1  0
 19 29  1  0
 20 30  1  0
M  ISO  7  22  14  23  14  24  14  25  14  28  14  29  14  30   9
M  END
>  <minimizedAffinity>  (1) 
-5.60427713

>  <minimizedRMSD>  (1) 
1.64491284

$$$$
