
     RDKit          3D

 26 28  0  0  0  0  0  0  0  0999 V2000
   39.7170   22.8410   37.7000 C   0  0  0  0  0  0  0  0  0  0  0  0
   38.9170   23.3940   38.7060 C   0  0  0  0  0  0  0  0  0  0  0  0
   37.8740   24.2380   38.3030 C   0  0  0  0  0  0  0  0  0  0  0  0
   37.7020   24.4690   36.9580 N   0  0  0  0  0  0  0  0  0  0  0  0
   38.5120   23.9010   36.0310 C   0  0  0  0  0  0  0  0  0  0  0  0
   39.5120   23.0940   36.3980 N   0  0  0  0  0  0  0  0  0  0  0  0
   38.2100   24.2330   34.6770 N   0  0  0  0  0  0  0  0  0  0  0  0
   38.4450   23.3690   33.6370 C   0  0  0  0  0  0  0  0  0  0  0  0
   38.0610   23.9500   32.4740 N   0  0  0  0  0  0  0  0  0  0  0  0
   37.5780   25.1820   32.7440 C   0  0  0  0  0  0  0  0  0  0  0  0
   37.0430   26.2510   32.0160 C   0  0  0  0  0  0  0  0  0  0  0  0
   36.6480   27.3730   32.6200 N   0  0  0  0  0  0  0  0  0  0  0  0
   36.7660   27.4790   33.9490 C   0  0  0  0  0  0  0  0  0  0  0  0
   37.2740   26.4770   34.6930 N   0  0  0  0  0  0  0  0  0  0  0  0
   37.6800   25.3410   34.1260 C   0  0  0  0  0  0  0  0  0  0  0  0
   36.9910   25.9660   30.6120 N   0  0  0  0  0  0  0  0  0  0  0  0
   36.3320   28.7190   34.6470 C   0  0  0  0  0  0  0  0  0  0  0  0
   40.5440   22.1747   37.9867 H   0  0  0  0  0  0  0  0  0  0  0  0
   39.0994   23.1753   39.7685 H   0  0  0  0  0  0  0  0  0  0  0  0
   37.2087   24.7047   39.0443 H   0  0  0  0  0  0  0  0  0  0  0  0
   38.8775   22.3621   33.7323 H   0  0  0  0  0  0  0  0  0  0  0  0
   37.3267   25.0589   30.2578 H   0  0  0  0  0  0  0  0  0  0  0  0
   36.6180   26.6683   29.9574 H   0  0  0  0  0  0  0  0  0  0  0  0
   36.3858   28.5653   35.7349 H   0  0  0  0  0  0  0  0  0  0  0  0
   36.9924   29.5510   34.3611 H   0  0  0  0  0  0  0  0  0  0  0  0
   35.2969   28.9576   34.3611 H   0  0  0  0  0  0  0  0  0  0  0  0
  1  2  2  0
  3  2  1  0
  4  3  2  0
  5  6  2  0
  5  4  1  0
  6  1  1  0
  7  5  1  0
  8  7  1  0
  9 10  1  0
  9  8  2  0
 10 15  2  0
 11 12  2  0
 11 10  1  0
 12 13  1  0
 13 17  1  0
 13 14  2  0
 15  7  1  0
 15 14  1  0
 16 11  1  0
  1 18  1  0
  2 19  1  0
  3 20  1  0
  8 21  1  0
 16 22  1  0
 16 23  1  0
 17 24  1  0
 17 25  1  0
 17 26  1  0
M  ISO  7  18  14  19  14  20  14  21  14  24   8  25   8  26   8
M  END
>  <minimizedAffinity>  (1) 
-5.23140287

>  <minimizedRMSD>  (1) 
0.246313974

$$$$
