
     RDKit          3D

 35 37  0  0  0  0  0  0  0  0999 V2000
   39.6720   22.7710   37.9050 C   0  0  0  0  0  0  0  0  0  0  0  0
   38.6630   23.5950   38.4580 C   0  0  0  0  0  0  0  0  0  0  0  0
   37.7460   24.1980   37.5910 C   0  0  0  0  0  0  0  0  0  0  0  0
   37.8870   23.9470   36.2470 N   0  0  0  0  0  0  0  0  0  0  0  0
   38.8670   23.1510   35.7550 C   0  0  0  0  0  0  0  0  0  0  0  0
   39.7570   22.5650   36.5830 N   0  0  0  0  0  0  0  0  0  0  0  0
   38.8780   22.9920   34.3410 N   0  0  0  0  0  0  0  0  0  0  0  0
   39.3530   21.8600   33.7290 C   0  0  0  0  0  0  0  0  0  0  0  0
   39.2430   21.9800   32.3880 N   0  0  0  0  0  0  0  0  0  0  0  0
   38.6970   23.1860   32.1070 C   0  0  0  0  0  0  0  0  0  0  0  0
   38.3330   23.8960   30.9580 C   0  0  0  0  0  0  0  0  0  0  0  0
   37.7910   25.1270   31.0570 N   0  0  0  0  0  0  0  0  0  0  0  0
   37.6040   25.6640   32.2640 C   0  0  0  0  0  0  0  0  0  0  0  0
   37.9400   25.0150   33.3920 N   0  0  0  0  0  0  0  0  0  0  0  0
   38.4830   23.7850   33.3370 C   0  0  0  0  0  0  0  0  0  0  0  0
   38.6140   23.1480   29.7650 N   0  0  0  0  0  0  0  0  0  0  0  0
   37.0130   27.0080   32.3770 C   0  0  0  0  0  0  0  0  0  0  0  0
   35.6750   26.9840   31.6630 C   0  0  0  0  0  0  0  0  0  0  0  0
   37.9390   27.9950   31.6650 C   0  0  0  0  0  0  0  0  0  0  0  0
   36.8990   27.4360   33.8220 C   0  0  0  0  0  0  0  0  0  0  0  0
   40.4012   22.2898   38.5734 H   0  0  0  0  0  0  0  0  0  0  0  0
   38.6014   23.7574   39.5442 H   0  0  0  0  0  0  0  0  0  0  0  0
   36.9433   24.8477   37.9699 H   0  0  0  0  0  0  0  0  0  0  0  0
   39.7629   20.9839   34.2528 H   0  0  0  0  0  0  0  0  0  0  0  0
   39.0333   22.2096   29.8323 H   0  0  0  0  0  0  0  0  0  0  0  0
   38.3963   23.5498   28.8419 H   0  0  0  0  0  0  0  0  0  0  0  0
   34.8634   26.9694   32.4054 H   0  0  0  0  0  0  0  0  0  0  0  0
   35.5795   27.8806   31.0329 H   0  0  0  0  0  0  0  0  0  0  0  0
   35.6117   26.0846   31.0329 H   0  0  0  0  0  0  0  0  0  0  0  0
   38.4914   28.5838   32.4121 H   0  0  0  0  0  0  0  0  0  0  0  0
   38.6508   27.4411   31.0354 H   0  0  0  0  0  0  0  0  0  0  0  0
   37.3408   28.6701   31.0354 H   0  0  0  0  0  0  0  0  0  0  0  0
   37.1266   26.5817   34.4765 H   0  0  0  0  0  0  0  0  0  0  0  0
   37.6116   28.2501   34.0206 H   0  0  0  0  0  0  0  0  0  0  0  0
   35.8759   27.7877   34.0206 H   0  0  0  0  0  0  0  0  0  0  0  0
  1  2  2  0
  3  2  1  0
  4  3  2  0
  5  4  1  0
  5  6  2  0
  6  1  1  0
  7  5  1  0
  8  7  1  0
  9  8  2  0
 10  9  1  0
 10 15  2  0
 11 12  2  0
 11 10  1  0
 12 13  1  0
 13 17  1  0
 13 14  2  0
 15 14  1  0
 15  7  1  0
 16 11  1  0
 17 20  1  0
 18 17  1  0
 19 17  1  0
  1 21  1  0
  2 22  1  0
  3 23  1  0
  8 24  1  0
 16 25  1  0
 16 26  1  0
 18 27  1  0
 18 28  1  0
 18 29  1  0
 19 30  1  0
 19 31  1  0
 19 32  1  0
 20 33  1  0
 20 34  1  0
 20 35  1  0
M  ISO  8  21  14  22  14  23  14  24  14  27   8  28   8  29   8  30   8
M  ISO  5  31   8  32   8  33   8  34   8  35   8
M  END
>  <minimizedAffinity>  (1) 
-4.87581539

>  <minimizedRMSD>  (1) 
2.4786613

$$$$
