
     RDKit          3D

 25 27  0  0  0  0  0  0  0  0999 V2000
   39.7170   22.8370   37.6360 C   0  0  0  0  0  0  0  0  0  0  0  0
   38.9420   23.3970   38.6740 C   0  0  0  0  0  0  0  0  0  0  0  0
   37.9000   24.2750   38.3070 C   0  0  0  0  0  0  0  0  0  0  0  0
   37.7120   24.5260   36.9690 N   0  0  0  0  0  0  0  0  0  0  0  0
   38.4850   23.9630   36.0070 C   0  0  0  0  0  0  0  0  0  0  0  0
   39.4690   23.1320   36.3630 N   0  0  0  0  0  0  0  0  0  0  0  0
   38.1610   24.3250   34.6730 N   0  0  0  0  0  0  0  0  0  0  0  0
   38.3770   23.4760   33.6170 C   0  0  0  0  0  0  0  0  0  0  0  0
   37.9760   24.0820   32.4760 N   0  0  0  0  0  0  0  0  0  0  0  0
   37.5040   25.3050   32.7670 C   0  0  0  0  0  0  0  0  0  0  0  0
   36.9600   26.4000   32.0830 C   0  0  0  0  0  0  0  0  0  0  0  0
   36.5790   27.5110   32.7160 N   0  0  0  0  0  0  0  0  0  0  0  0
   36.7210   27.5870   34.0450 C   0  0  0  0  0  0  0  0  0  0  0  0
   37.2380   26.5670   34.7550 N   0  0  0  0  0  0  0  0  0  0  0  0
   37.6280   25.4420   34.1520 C   0  0  0  0  0  0  0  0  0  0  0  0
   36.8810   26.1490   30.6810 N   0  0  0  0  0  0  0  0  0  0  0  0
   36.3040   28.7870   34.6860 N   0  0  0  0  0  0  0  0  0  0  0  0
   40.5374   22.1471   37.8831 H   0  0  0  0  0  0  0  0  0  0  0  0
   39.1425   23.1582   39.7289 H   0  0  0  0  0  0  0  0  0  0  0  0
   37.2585   24.7437   39.0678 H   0  0  0  0  0  0  0  0  0  0  0  0
   38.8068   22.4659   33.6869 H   0  0  0  0  0  0  0  0  0  0  0  0
   37.2067   25.2493   30.2997 H   0  0  0  0  0  0  0  0  0  0  0  0
   36.4982   26.8674   30.0500 H   0  0  0  0  0  0  0  0  0  0  0  0
   36.3968   28.8845   35.7072 H   0  0  0  0  0  0  0  0  0  0  0  0
   35.9093   29.5582   34.1288 H   0  0  0  0  0  0  0  0  0  0  0  0
  1  2  2  0
  3  2  1  0
  4  3  2  0
  5  6  2  0
  5  4  1  0
  6  1  1  0
  7  5  1  0
  8  7  1  0
  9 10  1  0
  9  8  2  0
 10 15  2  0
 11 12  2  0
 11 10  1  0
 12 13  1  0
 13 17  1  0
 13 14  2  0
 15  7  1  0
 15 14  1  0
 16 11  1  0
  1 18  1  0
  2 19  1  0
  3 20  1  0
  8 21  1  0
 16 22  1  0
 16 23  1  0
 17 24  1  0
 17 25  1  0
M  ISO  4  18  14  19  14  20  14  21  14
M  END
>  <minimizedAffinity>  (1) 
-5.20417452

>  <minimizedRMSD>  (1) 
0.121587761

$$$$
