
     RDKit          3D

 34 37  0  0  1  0  0  0  0  0999 V2000
   37.0920   22.8290   36.9690 C   0  0  0  0  0  0  0  0  0  0  0  0
   38.0140   22.6020   35.9650 C   0  0  0  0  0  0  0  0  0  0  0  0
   39.3540   22.7480   36.2760 C   0  0  0  0  0  0  0  0  0  0  0  0
   39.6840   23.1100   37.5470 N   0  0  0  0  0  0  0  0  0  0  0  0
   38.7820   23.3240   38.4910 C   0  0  0  0  0  0  0  0  0  0  0  0
   37.5090   23.1780   38.1800 N   0  0  0  0  0  0  0  0  0  0  0  0
   40.4250   22.7480   35.3350 C   0  0  0  0  0  0  0  0  0  0  0  0
   41.3700   22.7490   34.5050 N   0  0  0  0  0  0  0  0  0  0  0  0
   42.2840   22.6940   33.7100 C   0  0  0  0  0  0  0  0  0  0  0  0
   42.3110   24.0060   33.4820 N   0  0  0  0  0  0  0  0  0  0  0  0
   41.4060   24.7960   34.1470 C   0  0  0  0  0  0  0  0  0  0  0  0
   41.4850   26.1510   33.7660 C   0  0  0  0  0  0  0  0  0  0  0  0
   40.5540   26.9750   34.3260 C   0  0  0  0  0  0  0  0  0  0  0  0
   39.5630   26.6170   35.2100 C   0  0  0  0  0  0  0  0  0  0  0  0
   39.6520   25.2580   35.4610 C   0  0  0  0  0  0  0  0  0  0  0  0
   40.4930   24.1770   35.0420 C   0  0  0  0  0  0  0  0  0  0  0  0
   37.5200   22.3160   34.6590 N   0  0  0  0  0  0  0  0  0  0  0  0
   37.6610   22.9440   33.4440 C   0  0  0  0  0  0  0  0  0  0  0  0
   36.9840   22.2540   32.5160 N   0  0  0  0  0  0  0  0  0  0  0  0
   36.4160   21.1910   33.1550 C   0  0  0  0  0  0  0  0  0  0  0  0
   36.7630   21.2530   34.4810 N   0  0  0  0  0  0  0  0  0  0  0  0
   36.0164   22.7209   36.7654 H   0  0  0  0  0  0  0  0  0  0  0  0
   39.0857   23.6157   39.5072 H   0  0  0  0  0  0  0  0  0  0  0  0
   39.7161   22.9853   34.5281 H   0  0  0  0  0  0  0  0  0  0  0  0
   40.7874   23.2530   33.8213 H   0  0  0  0  0  0  0  0  0  0  0  0
   43.2169   22.3151   34.1528 H   0  0  0  0  0  0  0  0  0  0  0  0
   42.1721   22.0245   32.8444 H   0  0  0  0  0  0  0  0  0  0  0  0
   42.9910   24.4160   32.8259 H   0  0  0  0  0  0  0  0  0  0  0  0
   42.2472   26.5192   33.0635 H   0  0  0  0  0  0  0  0  0  0  0  0
   40.6004   28.0365   34.0411 H   0  0  0  0  0  0  0  0  0  0  0  0
   38.8197   27.2999   35.6471 H   0  0  0  0  0  0  0  0  0  0  0  0
   38.8759   24.9217   36.1642 H   0  0  0  0  0  0  0  0  0  0  0  0
   38.2364   23.8639   33.2631 H   0  0  0  0  0  0  0  0  0  0  0  0
   35.7883   20.4178   32.6879 H   0  0  0  0  0  0  0  0  0  0  0  0
  1  6  2  0
  2  3  2  0
  2  1  1  0
  3  4  1  0
  4  5  2  0
  6  5  1  0
  7  3  1  0
  8  7  1  0
  9  8  1  0
 10  9  1  0
 10 11  1  0
 11 16  2  0
 12 11  1  0
 12 13  2  0
 13 14  1  0
 14 15  2  0
 16  7  1  0
 16 15  1  0
 17  2  1  0
 18 17  1  0
 19 20  1  0
 19 18  2  0
 20 21  2  0
 21 17  1  0
  1 22  1  0
  5 23  1  0
  7 24  1  0
  8 25  1  0
  9 26  1  0
  9 27  1  0
 10 28  1  0
 12 29  1  0
 13 30  1  0
 14 31  1  0
 15 32  1  0
 18 33  1  0
 20 34  1  0
M  ISO  8  22  14  23  14  24  13  25   5  26  13  27  13  29  14  30  14
M  ISO  4  31  14  32  14  33  14  34  14
M  END
>  <minimizedAffinity>  (1) 
-4.77404499

>  <minimizedRMSD>  (1) 
1.1201489

$$$$
