
     RDKit          3D

 26 28  0  0  0  0  0  0  0  0999 V2000
   37.8630   23.5180   36.2800 C   0  0  0  0  0  0  0  0  0  0  0  0
   39.1980   23.1610   35.9960 C   0  0  0  0  0  0  0  0  0  0  0  0
   40.0690   22.9410   37.0470 C   0  0  0  0  0  0  0  0  0  0  0  0
   39.5870   23.0830   38.3170 N   0  0  0  0  0  0  0  0  0  0  0  0
   38.2970   23.4290   38.5630 C   0  0  0  0  0  0  0  0  0  0  0  0
   37.4520   23.6420   37.5490 N   0  0  0  0  0  0  0  0  0  0  0  0
   41.4530   22.5710   36.7730 C   0  0  0  0  0  0  0  0  0  0  0  0
   41.6770   21.1960   36.9120 C   0  0  0  0  0  0  0  0  0  0  0  0
   42.9040   20.6240   36.6960 C   0  0  0  0  0  0  0  0  0  0  0  0
   43.9510   21.4110   36.3320 C   0  0  0  0  0  0  0  0  0  0  0  0
   43.7510   22.7620   36.1900 C   0  0  0  0  0  0  0  0  0  0  0  0
   42.5230   23.3520   36.4040 C   0  0  0  0  0  0  0  0  0  0  0  0
   39.5340   23.0650   34.6310 N   0  0  0  0  0  0  0  0  0  0  0  0
   40.0060   23.9950   33.7350 C   0  0  0  0  0  0  0  0  0  0  0  0
   40.1690   23.4020   32.5280 N   0  0  0  0  0  0  0  0  0  0  0  0
   39.7920   22.0920   32.6810 C   0  0  0  0  0  0  0  0  0  0  0  0
   39.4030   21.9020   33.9820 N   0  0  0  0  0  0  0  0  0  0  0  0
   37.1564   23.6953   35.4558 H   0  0  0  0  0  0  0  0  0  0  0  0
   37.9461   23.5344   39.6002 H   0  0  0  0  0  0  0  0  0  0  0  0
   40.8365   20.5501   37.2057 H   0  0  0  0  0  0  0  0  0  0  0  0
   43.0400   19.5391   36.8160 H   0  0  0  0  0  0  0  0  0  0  0  0
   44.9437   20.9720   36.1539 H   0  0  0  0  0  0  0  0  0  0  0  0
   44.6002   23.3960   35.8952 H   0  0  0  0  0  0  0  0  0  0  0  0
   42.4005   24.4382   36.2806 H   0  0  0  0  0  0  0  0  0  0  0  0
   40.2172   25.0505   33.9617 H   0  0  0  0  0  0  0  0  0  0  0  0
   39.8003   21.3241   31.8934 H   0  0  0  0  0  0  0  0  0  0  0  0
  1  6  2  0
  2  1  1  0
  2  3  2  0
  3  4  1  0
  4  5  2  0
  6  5  1  0
  7  8  2  0
  7  3  1  0
  9  8  1  0
 10  9  2  0
 11 10  1  0
 11 12  2  0
 12  7  1  0
 13  2  1  0
 14 13  1  0
 15 16  1  0
 15 14  2  0
 16 17  2  0
 17 13  1  0
  1 18  1  0
  5 19  1  0
  8 20  1  0
  9 21  1  0
 10 22  1  0
 11 23  1  0
 12 24  1  0
 14 25  1  0
 16 26  1  0
M  ISO  8  18  14  19  14  20  14  21  14  22  14  23  14  24  14  25  14
M  ISO  1  26  14
M  END
>  <minimizedAffinity>  (1) 
-4.17278767

>  <minimizedRMSD>  (1) 
2.90256596

$$$$
