
     RDKit          3D

 32 35  0  0  0  0  0  0  0  0999 V2000
   37.4040   22.9410   36.6250 C   0  0  0  0  0  0  0  0  0  0  0  0
   38.6620   22.9580   36.0030 C   0  0  0  0  0  0  0  0  0  0  0  0
   39.7830   23.1320   36.7810 C   0  0  0  0  0  0  0  0  0  0  0  0
   39.6170   23.2830   38.1380 N   0  0  0  0  0  0  0  0  0  0  0  0
   38.3840   23.2610   38.7080 C   0  0  0  0  0  0  0  0  0  0  0  0
   37.2920   23.0890   37.9380 N   0  0  0  0  0  0  0  0  0  0  0  0
   41.1030   23.1940   36.1680 C   0  0  0  0  0  0  0  0  0  0  0  0
   41.3110   24.3660   35.4230 C   0  0  0  0  0  0  0  0  0  0  0  0
   42.4900   24.5560   34.7410 C   0  0  0  0  0  0  0  0  0  0  0  0
   43.4630   23.5770   34.7950 C   0  0  0  0  0  0  0  0  0  0  0  0
   43.2810   22.4090   35.5240 C   0  0  0  0  0  0  0  0  0  0  0  0
   44.2510   21.4220   35.6150 C   0  0  0  0  0  0  0  0  0  0  0  0
   43.9590   20.3210   36.4000 C   0  0  0  0  0  0  0  0  0  0  0  0
   42.7660   20.1840   37.0710 C   0  0  0  0  0  0  0  0  0  0  0  0
   41.7710   21.1760   36.9800 C   0  0  0  0  0  0  0  0  0  0  0  0
   42.1040   22.2710   36.1800 C   0  0  0  0  0  0  0  0  0  0  0  0
   38.6690   22.8150   34.5850 N   0  0  0  0  0  0  0  0  0  0  0  0
   38.2920   23.6770   33.5860 C   0  0  0  0  0  0  0  0  0  0  0  0
   38.4700   23.0620   32.3900 N   0  0  0  0  0  0  0  0  0  0  0  0
   38.9570   21.8280   32.6710 C   0  0  0  0  0  0  0  0  0  0  0  0
   39.0820   21.6700   34.0300 N   0  0  0  0  0  0  0  0  0  0  0  0
   36.4989   22.8031   36.0152 H   0  0  0  0  0  0  0  0  0  0  0  0
   38.2775   23.3834   39.7960 H   0  0  0  0  0  0  0  0  0  0  0  0
   40.5266   25.1363   35.3847 H   0  0  0  0  0  0  0  0  0  0  0  0
   42.6560   25.4753   34.1602 H   0  0  0  0  0  0  0  0  0  0  0  0
   44.4051   23.7262   34.2471 H   0  0  0  0  0  0  0  0  0  0  0  0
   45.2112   21.5108   35.0858 H   0  0  0  0  0  0  0  0  0  0  0  0
   44.7108   19.5232   36.4913 H   0  0  0  0  0  0  0  0  0  0  0  0
   42.5874   19.2894   37.6856 H   0  0  0  0  0  0  0  0  0  0  0  0
   40.8049   21.0946   37.4996 H   0  0  0  0  0  0  0  0  0  0  0  0
   37.9088   24.6979   33.7310 H   0  0  0  0  0  0  0  0  0  0  0  0
   39.2142   21.0655   31.9210 H   0  0  0  0  0  0  0  0  0  0  0  0
  1  6  2  0
  2  1  1  0
  2  3  2  0
  3  4  1  0
  4  5  2  0
  6  5  1  0
  7 16  1  0
  7  3  1  0
  8  7  2  0
  9 10  2  0
  9  8  1  0
 10 11  1  0
 11 12  1  0
 11 16  2  0
 12 13  2  0
 13 14  1  0
 15 14  2  0
 16 15  1  0
 17  2  1  0
 18 17  1  0
 19 20  1  0
 19 18  2  0
 20 21  2  0
 21 17  1  0
  1 22  1  0
  5 23  1  0
  8 24  1  0
  9 25  1  0
 10 26  1  0
 12 27  1  0
 13 28  1  0
 14 29  1  0
 15 30  1  0
 18 31  1  0
 20 32  1  0
M  ISO  8  22  14  23  14  24  14  25  14  26  14  27  14  28  14  29  14
M  ISO  3  30  14  31  14  32  14
M  END
>  <minimizedAffinity>  (1) 
-4.54283047

>  <minimizedRMSD>  (1) 
3.345716

$$$$
