
     RDKit          3D

 23 25  0  0  0  0  0  0  0  0999 V2000
   37.4860   23.9520   37.0480 C   0  0  0  0  0  0  0  0  0  0  0  0
   38.4400   23.1860   36.3370 C   0  0  0  0  0  0  0  0  0  0  0  0
   39.5580   22.7170   37.0010 C   0  0  0  0  0  0  0  0  0  0  0  0
   39.7040   23.0070   38.3240 N   0  0  0  0  0  0  0  0  0  0  0  0
   38.7950   23.7320   38.9860 C   0  0  0  0  0  0  0  0  0  0  0  0
   37.6930   24.2020   38.3520 N   0  0  0  0  0  0  0  0  0  0  0  0
   38.1620   22.9680   34.9760 N   0  0  0  0  0  0  0  0  0  0  0  0
   38.4290   23.6700   33.8520 C   0  0  0  0  0  0  0  0  0  0  0  0
   37.9320   23.0210   32.7740 N   0  0  0  0  0  0  0  0  0  0  0  0
   37.3440   21.8930   33.2320 C   0  0  0  0  0  0  0  0  0  0  0  0
   37.4960   21.8810   34.5740 N   0  0  0  0  0  0  0  0  0  0  0  0
   40.5840   21.9240   36.3260 C   0  0  0  0  0  0  0  0  0  0  0  0
   41.9610   22.5580   36.2000 C   0  0  0  0  0  0  0  0  0  0  0  0
   41.7660   21.4420   37.1220 C   0  0  0  0  0  0  0  0  0  0  0  0
   36.5888   24.3369   36.5411 H   0  0  0  0  0  0  0  0  0  0  0  0
   38.9433   23.9486   40.0542 H   0  0  0  0  0  0  0  0  0  0  0  0
   38.9702   24.6271   33.8188 H   0  0  0  0  0  0  0  0  0  0  0  0
   36.8368   21.1283   32.6253 H   0  0  0  0  0  0  0  0  0  0  0  0
   39.8523   21.4514   35.6543 H   0  0  0  0  0  0  0  0  0  0  0  0
   42.5490   22.4143   35.2815 H   0  0  0  0  0  0  0  0  0  0  0  0
   42.3543   23.5810   36.2943 H   0  0  0  0  0  0  0  0  0  0  0  0
   41.8012   21.6188   38.2071 H   0  0  0  0  0  0  0  0  0  0  0  0
   42.2527   20.4650   37.2584 H   0  0  0  0  0  0  0  0  0  0  0  0
  1  6  2  0
  2  3  2  0
  2  1  1  0
  3  4  1  0
  4  5  2  0
  6  5  1  0
  7  2  1  0
  8  7  1  0
  9 10  1  0
  9  8  2  0
 10 11  2  0
 11  7  1  0
 12  3  1  0
 12 14  1  0
 13 12  1  0
 13 14  1  0
  1 15  1  0
  5 16  1  0
  8 17  1  0
 10 18  1  0
 12 19  1  0
 13 20  1  0
 13 21  1  0
 14 22  1  0
 14 23  1  0
M  ISO  8  15  14  16  14  17  14  18  14  19  13  20  13  21  13  22  13
M  ISO  1  23  13
M  END
>  <minimizedAffinity>  (1) 
-3.84626222

>  <minimizedRMSD>  (1) 
1.99668884

$$$$
