
     RDKit          3D

 23 24  0  0  0  0  0  0  0  0999 V2000
   37.5390   24.0330   37.0310 C   0  0  0  0  0  0  0  0  0  0  0  0
   38.3950   23.2230   36.2480 C   0  0  0  0  0  0  0  0  0  0  0  0
   39.5080   22.6510   36.8370 C   0  0  0  0  0  0  0  0  0  0  0  0
   39.7560   22.8800   38.1490 N   0  0  0  0  0  0  0  0  0  0  0  0
   38.9230   23.6600   38.8860 C   0  0  0  0  0  0  0  0  0  0  0  0
   37.8260   24.2290   38.3270 N   0  0  0  0  0  0  0  0  0  0  0  0
   40.3630   21.8360   36.0970 N   0  0  0  0  0  0  0  0  0  0  0  0
   41.7400   22.1720   35.9600 C   0  0  0  0  0  0  0  0  0  0  0  0
   42.1850   23.2520   36.5450 N   0  0  0  0  0  0  0  0  0  0  0  0
   42.7070   21.4030   35.2120 N   0  0  0  0  0  0  0  0  0  0  0  0
   43.1790   23.5490   36.4810 H   0  0  0  0  0  0  0  0  0  0  0  0
   38.0380   23.0780   34.8960 N   0  0  0  0  0  0  0  0  0  0  0  0
   38.0190   23.9610   33.8470 C   0  0  0  0  0  0  0  0  0  0  0  0
   37.5810   23.3230   32.7320 N   0  0  0  0  0  0  0  0  0  0  0  0
   37.3240   22.0230   33.1040 C   0  0  0  0  0  0  0  0  0  0  0  0
   37.6110   21.9050   34.4190 N   0  0  0  0  0  0  0  0  0  0  0  0
   36.6482   24.4969   36.5823 H   0  0  0  0  0  0  0  0  0  0  0  0
   39.1411   23.8324   39.9503 H   0  0  0  0  0  0  0  0  0  0  0  0
   39.9965   20.9854   35.6464 H   0  0  0  0  0  0  0  0  0  0  0  0
   43.6870   21.7162   35.1625 H   0  0  0  0  0  0  0  0  0  0  0  0
   42.4166   20.5414   34.7280 H   0  0  0  0  0  0  0  0  0  0  0  0
   38.3125   25.0197   33.9007 H   0  0  0  0  0  0  0  0  0  0  0  0
   36.9514   21.2228   32.4477 H   0  0  0  0  0  0  0  0  0  0  0  0
  1  6  2  0
  2  3  2  0
  2  1  1  0
  3  4  1  0
  4  5  2  0
  6  5  1  0
  7  3  1  0
  8  7  1  0
  8  9  2  0
 10  8  1  0
 11  9  1  0
 12  2  1  0
 13 12  1  0
 14 15  1  0
 14 13  2  0
 15 16  2  0
 16 12  1  0
  1 17  1  0
  5 18  1  0
  7 19  1  0
 10 20  1  0
 10 21  1  0
 13 22  1  0
 15 23  1  0
M  ISO  4  17  14  18  14  22  14  23  14
M  END
>  <minimizedAffinity>  (1) 
-3.71516514

>  <minimizedRMSD>  (1) 
1.44944847

$$$$
