
     RDKit          3D

 19 20  0  0  0  0  0  0  0  0999 V2000
   37.4850   23.7830   37.0960 C   0  0  0  0  0  0  0  0  0  0  0  0
   38.3920   23.1820   36.2330 C   0  0  0  0  0  0  0  0  0  0  0  0
   39.6090   22.7410   36.7460 C   0  0  0  0  0  0  0  0  0  0  0  0
   39.8570   22.9170   38.0700 N   0  0  0  0  0  0  0  0  0  0  0  0
   38.9520   23.5070   38.8860 C   0  0  0  0  0  0  0  0  0  0  0  0
   37.7820   23.9320   38.3940 N   0  0  0  0  0  0  0  0  0  0  0  0
   38.0160   23.0560   34.8720 N   0  0  0  0  0  0  0  0  0  0  0  0
   38.1140   23.8790   33.8000 C   0  0  0  0  0  0  0  0  0  0  0  0
   37.5950   23.2650   32.7140 N   0  0  0  0  0  0  0  0  0  0  0  0
   37.1650   22.0310   33.1270 C   0  0  0  0  0  0  0  0  0  0  0  0
   37.4350   21.9260   34.4550 N   0  0  0  0  0  0  0  0  0  0  0  0
   40.5660   22.1010   35.8090 C   0  0  0  0  0  0  0  0  0  0  0  0
   36.5175   24.1386   36.7119 H   0  0  0  0  0  0  0  0  0  0  0  0
   39.1785   23.6372   39.9545 H   0  0  0  0  0  0  0  0  0  0  0  0
   38.5484   24.8895   33.8120 H   0  0  0  0  0  0  0  0  0  0  0  0
   36.6881   21.2648   32.4981 H   0  0  0  0  0  0  0  0  0  0  0  0
   41.3466   21.5790   36.3819 H   0  0  0  0  0  0  0  0  0  0  0  0
   40.0310   21.3783   35.1754 H   0  0  0  0  0  0  0  0  0  0  0  0
   41.0296   22.8715   35.1754 H   0  0  0  0  0  0  0  0  0  0  0  0
  1  6  2  0
  2  3  2  0
  2  1  1  0
  3  4  1  0
  4  5  2  0
  6  5  1  0
  7  2  1  0
  8  7  1  0
  9 10  1  0
  9  8  2  0
 10 11  2  0
 11  7  1  0
 12  3  1  0
  1 13  1  0
  5 14  1  0
  8 15  1  0
 10 16  1  0
 12 17  1  0
 12 18  1  0
 12 19  1  0
M  ISO  7  13  14  14  14  15  14  16  14  17   8  18   8  19   8
M  END
>  <minimizedAffinity>  (1) 
-3.4334147

>  <minimizedRMSD>  (1) 
1.47150123

$$$$
