
     RDKit          3D

 34 38  0  0  0  0  0  0  0  0999 V2000
   40.8890   22.0210   34.1340 N   0  0  0  0  0  0  0  0  0  0  0  0
   40.6810   21.0430   33.2540 N   0  0  0  0  0  0  0  0  0  0  0  0
   41.4940   21.1470   32.2060 C   0  0  0  0  0  0  0  0  0  0  0  0
   42.2750   22.2570   32.4180 C   0  0  0  0  0  0  0  0  0  0  0  0
   41.8850   22.7990   33.6370 C   0  0  0  0  0  0  0  0  0  0  0  0
   42.5280   23.9720   34.1240 N   0  0  0  0  0  0  0  0  0  0  0  0
   42.1040   25.2220   33.7740 C   0  0  0  0  0  0  0  0  0  0  0  0
   42.8420   26.2090   34.3380 N   0  0  0  0  0  0  0  0  0  0  0  0
   43.7750   25.5610   35.0760 C   0  0  0  0  0  0  0  0  0  0  0  0
   44.8240   25.9370   35.8920 C   0  0  0  0  0  0  0  0  0  0  0  0
   45.5720   25.0020   36.4900 N   0  0  0  0  0  0  0  0  0  0  0  0
   45.3660   23.6650   36.3490 C   0  0  0  0  0  0  0  0  0  0  0  0
   44.3340   23.2710   35.5470 N   0  0  0  0  0  0  0  0  0  0  0  0
   43.5740   24.2040   34.9390 C   0  0  0  0  0  0  0  0  0  0  0  0
   38.3870   23.1750   36.5850 C   0  0  0  0  0  0  0  0  0  0  0  0
   38.9950   22.8320   35.3590 C   0  0  0  0  0  0  0  0  0  0  0  0
   40.3030   22.3590   35.3870 C   0  0  0  0  0  0  0  0  0  0  0  0
   40.9290   22.2470   36.5830 N   0  0  0  0  0  0  0  0  0  0  0  0
   40.3310   22.5790   37.7340 C   0  0  0  0  0  0  0  0  0  0  0  0
   39.0550   23.0440   37.7360 N   0  0  0  0  0  0  0  0  0  0  0  0
   38.2010   23.0090   34.2070 N   0  0  0  0  0  0  0  0  0  0  0  0
   38.0580   24.0870   33.3710 C   0  0  0  0  0  0  0  0  0  0  0  0
   37.1680   23.7590   32.3960 N   0  0  0  0  0  0  0  0  0  0  0  0
   36.7710   22.4760   32.6460 C   0  0  0  0  0  0  0  0  0  0  0  0
   37.4200   22.0460   33.7590 N   0  0  0  0  0  0  0  0  0  0  0  0
   41.5332   20.4737   31.3370 H   0  0  0  0  0  0  0  0  0  0  0  0
   43.0594   22.6432   31.7504 H   0  0  0  0  0  0  0  0  0  0  0  0
   41.2519   25.4085   33.1038 H   0  0  0  0  0  0  0  0  0  0  0  0
   45.0443   27.0030   36.0501 H   0  0  0  0  0  0  0  0  0  0  0  0
   46.0054   22.9306   36.8607 H   0  0  0  0  0  0  0  0  0  0  0  0
   37.3542   23.5536   36.5942 H   0  0  0  0  0  0  0  0  0  0  0  0
   40.8764   22.4745   38.6835 H   0  0  0  0  0  0  0  0  0  0  0  0
   38.5751   25.0526   33.4719 H   0  0  0  0  0  0  0  0  0  0  0  0
   36.0523   21.8937   32.0507 H   0  0  0  0  0  0  0  0  0  0  0  0
  1 17  1  0
  2  1  1  0
  3  4  1  0
  3  2  2  0
  4  5  2  0
  5  6  1  0
  5  1  1  0
  6 14  1  0
  7  6  1  0
  7  8  2  0
  8  9  1  0
  9 10  2  0
 10 11  1  0
 12 11  2  0
 13 12  1  0
 14  9  1  0
 14 13  2  0
 15 20  2  0
 16 17  2  0
 16 15  1  0
 17 18  1  0
 18 19  2  0
 19 20  1  0
 21 16  1  0
 22 21  1  0
 23 24  1  0
 23 22  2  0
 24 25  2  0
 25 21  1  0
  3 26  1  0
  4 27  1  0
  7 28  1  0
 10 29  1  0
 12 30  1  0
 15 31  1  0
 19 32  1  0
 22 33  1  0
 24 34  1  0
M  ISO  8  26  14  27  14  28  14  29  14  30  14  31  14  32  14  33  14
M  ISO  1  34  14
M  END
>  <minimizedAffinity>  (1) 
-4.1057148

>  <minimizedRMSD>  (1) 
2.53306365

$$$$
