
     RDKit          3D

 37 40  0  0  0  0  0  0  0  0999 V2000
   37.7820   23.2880   36.5850 C   0  0  0  0  0  0  0  0  0  0  0  0
   38.5720   22.9870   35.4560 C   0  0  0  0  0  0  0  0  0  0  0  0
   39.9070   22.7030   35.6540 C   0  0  0  0  0  0  0  0  0  0  0  0
   40.3910   22.7270   36.9230 N   0  0  0  0  0  0  0  0  0  0  0  0
   39.6270   23.0140   37.9760 C   0  0  0  0  0  0  0  0  0  0  0  0
   38.3150   23.2960   37.8070 N   0  0  0  0  0  0  0  0  0  0  0  0
   37.8970   23.0080   34.2100 N   0  0  0  0  0  0  0  0  0  0  0  0
   37.7400   24.0190   33.2950 C   0  0  0  0  0  0  0  0  0  0  0  0
   37.0120   23.5580   32.2550 N   0  0  0  0  0  0  0  0  0  0  0  0
   36.7230   22.2620   32.5340 C   0  0  0  0  0  0  0  0  0  0  0  0
   37.2770   21.9600   33.7310 N   0  0  0  0  0  0  0  0  0  0  0  0
   40.6820   22.4000   34.4900 N   0  0  0  0  0  0  0  0  0  0  0  0
   40.8400   21.3130   33.7550 N   0  0  0  0  0  0  0  0  0  0  0  0
   41.6820   21.5170   32.7540 C   0  0  0  0  0  0  0  0  0  0  0  0
   42.0970   22.8250   32.8480 C   0  0  0  0  0  0  0  0  0  0  0  0
   41.4560   23.3710   33.9510 C   0  0  0  0  0  0  0  0  0  0  0  0
   41.7350   24.7330   34.2480 N   0  0  0  0  0  0  0  0  0  0  0  0
   40.9670   25.7690   33.6440 C   0  0  0  0  0  0  0  0  0  0  0  0
   41.4160   27.1510   33.9280 C   0  0  0  0  0  0  0  0  0  0  0  0
   42.7620   27.3410   34.3170 N   0  0  0  0  0  0  0  0  0  0  0  0
   43.5890   26.1760   34.3720 C   0  0  0  0  0  0  0  0  0  0  0  0
   42.7800   25.1340   35.1530 C   0  0  0  0  0  0  0  0  0  0  0  0
   36.7143   23.5187   36.4558 H   0  0  0  0  0  0  0  0  0  0  0  0
   40.0643   23.0216   38.9853 H   0  0  0  0  0  0  0  0  0  0  0  0
   38.1416   25.0384   33.3928 H   0  0  0  0  0  0  0  0  0  0  0  0
   36.1411   21.5776   31.8992 H   0  0  0  0  0  0  0  0  0  0  0  0
   41.9899   20.7831   31.9947 H   0  0  0  0  0  0  0  0  0  0  0  0
   42.8015   23.3393   32.1778 H   0  0  0  0  0  0  0  0  0  0  0  0
   39.9302   25.6712   33.9981 H   0  0  0  0  0  0  0  0  0  0  0  0
   41.0828   25.6336   32.5585 H   0  0  0  0  0  0  0  0  0  0  0  0
   41.2516   27.7432   33.0157 H   0  0  0  0  0  0  0  0  0  0  0  0
   40.8285   27.4578   34.8059 H   0  0  0  0  0  0  0  0  0  0  0  0
   43.1903   27.9955   33.6469 H   0  0  0  0  0  0  0  0  0  0  0  0
   43.8070   25.8114   33.3573 H   0  0  0  0  0  0  0  0  0  0  0  0
   44.5560   26.3851   34.8528 H   0  0  0  0  0  0  0  0  0  0  0  0
   42.3546   25.5769   36.0656 H   0  0  0  0  0  0  0  0  0  0  0  0
   43.3982   24.2846   35.4791 H   0  0  0  0  0  0  0  0  0  0  0  0
  1  6  2  0
  2  3  2  0
  2  1  1  0
  3  4  1  0
  4  5  2  0
  6  5  1  0
  7  2  1  0
  8  7  1  0
  9 10  1  0
  9  8  2  0
 10 11  2  0
 11  7  1  0
 12  3  1  0
 13 12  1  0
 14 15  1  0
 14 13  2  0
 15 16  2  0
 16 17  1  0
 16 12  1  0
 17 22  1  0
 18 19  1  0
 18 17  1  0
 19 20  1  0
 20 21  1  0
 21 22  1  0
  1 23  1  0
  5 24  1  0
  8 25  1  0
 10 26  1  0
 14 27  1  0
 15 28  1  0
 18 29  1  0
 18 30  1  0
 19 31  1  0
 19 32  1  0
 20 33  1  0
 21 34  1  0
 21 35  1  0
 22 36  1  0
 22 37  1  0
M  ISO  8  23  14  24  14  25  14  26  14  27  14  28  14  29  13  30  13
M  ISO  7  31  13  32  13  33   5  34  13  35  13  36  13  37  13
M  END
>  <minimizedAffinity>  (1) 
-4.33149052

>  <minimizedRMSD>  (1) 
1.27852285

$$$$
