
     RDKit          3D

 34 37  0  0  0  0  0  0  0  0999 V2000
   37.3760   23.1940   36.9650 C   0  0  0  0  0  0  0  0  0  0  0  0
   38.3480   22.8450   36.0050 C   0  0  0  0  0  0  0  0  0  0  0  0
   39.6690   22.7510   36.4100 C   0  0  0  0  0  0  0  0  0  0  0  0
   39.9760   23.0000   37.7150 N   0  0  0  0  0  0  0  0  0  0  0  0
   39.0290   23.3280   38.6030 C   0  0  0  0  0  0  0  0  0  0  0  0
   37.7400   23.4230   38.2240 N   0  0  0  0  0  0  0  0  0  0  0  0
   37.8670   22.6210   34.6990 N   0  0  0  0  0  0  0  0  0  0  0  0
   37.8100   23.4590   33.5940 C   0  0  0  0  0  0  0  0  0  0  0  0
   37.2480   22.7740   32.5620 N   0  0  0  0  0  0  0  0  0  0  0  0
   36.9640   21.5250   33.0290 C   0  0  0  0  0  0  0  0  0  0  0  0
   37.3510   21.4560   34.3370 N   0  0  0  0  0  0  0  0  0  0  0  0
   40.6160   22.3880   35.4230 N   0  0  0  0  0  0  0  0  0  0  0  0
   41.0970   21.2570   34.9440 N   0  0  0  0  0  0  0  0  0  0  0  0
   41.9940   21.4240   33.9900 C   0  0  0  0  0  0  0  0  0  0  0  0
   42.1220   22.7700   33.8170 C   0  0  0  0  0  0  0  0  0  0  0  0
   41.2580   23.3590   34.7170 C   0  0  0  0  0  0  0  0  0  0  0  0
   41.1990   24.7780   34.7540 N   0  0  0  0  0  0  0  0  0  0  0  0
   42.5120   25.3740   34.8810 C   0  0  0  0  0  0  0  0  0  0  0  0
   42.6080   26.3420   33.6920 C   0  0  0  0  0  0  0  0  0  0  0  0
   41.8460   27.4200   34.0730 O   0  0  0  0  0  0  0  0  0  0  0  0
   40.5670   27.1350   34.4350 C   0  0  0  0  0  0  0  0  0  0  0  0
   40.1640   25.7450   34.6780 C   0  0  0  0  0  0  0  0  0  0  0  0
   36.3186   23.2768   36.6735 H   0  0  0  0  0  0  0  0  0  0  0  0
   39.3058   23.5213   39.6499 H   0  0  0  0  0  0  0  0  0  0  0  0
   38.1602   24.5012   33.5588 H   0  0  0  0  0  0  0  0  0  0  0  0
   36.5018   20.7113   32.4508 H   0  0  0  0  0  0  0  0  0  0  0  0
   42.5310   20.6345   33.4437 H   0  0  0  0  0  0  0  0  0  0  0  0
   42.7821   23.2838   33.1027 H   0  0  0  0  0  0  0  0  0  0  0  0
   42.6027   25.9169   35.8334 H   0  0  0  0  0  0  0  0  0  0  0  0
   43.3158   24.6231   34.8767 H   0  0  0  0  0  0  0  0  0  0  0  0
   42.2025   25.8806   32.7795 H   0  0  0  0  0  0  0  0  0  0  0  0
   43.6461   26.6211   33.4585 H   0  0  0  0  0  0  0  0  0  0  0  0
   39.8334   27.9471   34.5459 H   0  0  0  0  0  0  0  0  0  0  0  0
   39.1067   25.4655   34.7959 H   0  0  0  0  0  0  0  0  0  0  0  0
  1  6  2  0
  2  3  2  0
  2  1  1  0
  3  4  1  0
  4  5  2  0
  6  5  1  0
  7  2  1  0
  8  7  1  0
  9 10  1  0
  9  8  2  0
 10 11  2  0
 11  7  1  0
 12  3  1  0
 13 12  1  0
 14 13  2  0
 15 14  1  0
 15 16  2  0
 16 17  1  0
 16 12  1  0
 17 18  1  0
 19 20  1  0
 19 18  1  0
 20 21  1  0
 21 22  2  0
 22 17  1  0
  1 23  1  0
  5 24  1  0
  8 25  1  0
 10 26  1  0
 14 27  1  0
 15 28  1  0
 18 29  1  0
 18 30  1  0
 19 31  1  0
 19 32  1  0
 21 33  1  0
 22 34  1  0
M  ISO  8  23  14  24  14  25  14  26  14  27  14  28  14  29  13  30  13
M  ISO  4  31  13  32  13  33  13  34  13
M  END
>  <minimizedAffinity>  (1) 
-4.09989023

>  <minimizedRMSD>  (1) 
0.902702093

$$$$
