
     RDKit          3D

 33 36  0  0  0  0  0  0  0  0999 V2000
   39.3410   23.8520   34.1650 N   0  0  0  0  0  0  0  0  0  0  0  0
   40.5950   23.6360   34.5860 N   0  0  0  0  0  0  0  0  0  0  0  0
   40.9180   22.3580   34.4740 C   0  0  0  0  0  0  0  0  0  0  0  0
   39.8180   21.7110   33.9550 C   0  0  0  0  0  0  0  0  0  0  0  0
   38.8270   22.6750   33.7640 C   0  0  0  0  0  0  0  0  0  0  0  0
   37.5670   22.1740   33.2250 C   0  0  0  0  0  0  0  0  0  0  0  0
   37.1510   22.5920   31.9560 C   0  0  0  0  0  0  0  0  0  0  0  0
   35.9980   22.2320   31.2940 C   0  0  0  0  0  0  0  0  0  0  0  0
   35.1850   21.3630   31.9820 C   0  0  0  0  0  0  0  0  0  0  0  0
   35.5060   20.8980   33.2300 C   0  0  0  0  0  0  0  0  0  0  0  0
   36.6750   21.3080   33.8180 C   0  0  0  0  0  0  0  0  0  0  0  0
   37.0340   26.5520   35.1640 C   0  0  0  0  0  0  0  0  0  0  0  0
   37.8340   25.3910   35.2190 C   0  0  0  0  0  0  0  0  0  0  0  0
   38.5390   25.0310   34.0850 C   0  0  0  0  0  0  0  0  0  0  0  0
   38.4200   25.8140   32.9860 N   0  0  0  0  0  0  0  0  0  0  0  0
   37.6640   26.9020   32.9500 C   0  0  0  0  0  0  0  0  0  0  0  0
   36.9640   27.2770   34.0460 N   0  0  0  0  0  0  0  0  0  0  0  0
   37.8330   24.7020   36.4530 N   0  0  0  0  0  0  0  0  0  0  0  0
   37.4250   23.4340   36.7600 C   0  0  0  0  0  0  0  0  0  0  0  0
   37.6320   23.2420   38.0980 N   0  0  0  0  0  0  0  0  0  0  0  0
   38.1610   24.3860   38.5900 C   0  0  0  0  0  0  0  0  0  0  0  0
   38.2700   25.2540   37.5600 N   0  0  0  0  0  0  0  0  0  0  0  0
   41.8809   21.8996   34.7437 H   0  0  0  0  0  0  0  0  0  0  0  0
   39.7362   20.6368   33.7329 H   0  0  0  0  0  0  0  0  0  0  0  0
   37.8204   23.2866   31.4274 H   0  0  0  0  0  0  0  0  0  0  0  0
   35.7472   22.6107   30.2921 H   0  0  0  0  0  0  0  0  0  0  0  0
   34.2462   21.0301   31.5153 H   0  0  0  0  0  0  0  0  0  0  0  0
   34.8334   20.2034   33.7546 H   0  0  0  0  0  0  0  0  0  0  0  0
   36.9140   20.9234   34.8205 H   0  0  0  0  0  0  0  0  0  0  0  0
   36.4626   26.8624   36.0512 H   0  0  0  0  0  0  0  0  0  0  0  0
   37.6054   27.5005   32.0289 H   0  0  0  0  0  0  0  0  0  0  0  0
   37.0053   22.6996   36.0567 H   0  0  0  0  0  0  0  0  0  0  0  0
   38.4490   24.5746   39.6348 H   0  0  0  0  0  0  0  0  0  0  0  0
  1  2  1  0
  3  2  2  0
  4  3  1  0
  5  4  2  0
  5  1  1  0
  6  5  1  0
  6 11  1  0
  7  6  2  0
  8  7  1  0
  8  9  2  0
  9 10  1  0
 10 11  2  0
 12 13  2  0
 13 18  1  0
 14  1  1  0
 14 13  1  0
 15 14  2  0
 16 15  1  0
 16 17  2  0
 17 12  1  0
 18 19  1  0
 18 22  1  0
 19 20  2  0
 20 21  1  0
 22 21  2  0
  3 23  1  0
  4 24  1  0
  7 25  1  0
  8 26  1  0
  9 27  1  0
 10 28  1  0
 11 29  1  0
 12 30  1  0
 16 31  1  0
 19 32  1  0
 21 33  1  0
M  ISO  8  23  14  24  14  25  14  26  14  27  14  28  14  29  14  30  14
M  ISO  3  31  14  32  14  33  14
M  END
>  <minimizedAffinity>  (1) 
-4.84471893

>  <minimizedRMSD>  (1) 
5.59316158

$$$$
