
     RDKit          3D

 33 36  0  0  0  0  0  0  0  0999 V2000
   37.5470   23.1840   36.6730 C   0  0  0  0  0  0  0  0  0  0  0  0
   38.4660   22.7940   35.6730 C   0  0  0  0  0  0  0  0  0  0  0  0
   39.7950   22.6400   36.0740 C   0  0  0  0  0  0  0  0  0  0  0  0
   40.1290   22.8650   37.3630 N   0  0  0  0  0  0  0  0  0  0  0  0
   39.2280   23.2320   38.2770 C   0  0  0  0  0  0  0  0  0  0  0  0
   37.9290   23.3930   37.9290 N   0  0  0  0  0  0  0  0  0  0  0  0
   37.9490   22.5960   34.3910 N   0  0  0  0  0  0  0  0  0  0  0  0
   37.6770   23.4750   33.3890 C   0  0  0  0  0  0  0  0  0  0  0  0
   37.1860   22.8170   32.3220 N   0  0  0  0  0  0  0  0  0  0  0  0
   37.1540   21.4980   32.6780 C   0  0  0  0  0  0  0  0  0  0  0  0
   37.6280   21.3880   33.9520 N   0  0  0  0  0  0  0  0  0  0  0  0
   40.7190   22.2480   35.0550 N   0  0  0  0  0  0  0  0  0  0  0  0
   41.2770   21.0780   34.7240 N   0  0  0  0  0  0  0  0  0  0  0  0
   42.0810   21.2070   33.6760 C   0  0  0  0  0  0  0  0  0  0  0  0
   42.0460   22.5120   33.3110 C   0  0  0  0  0  0  0  0  0  0  0  0
   41.1830   23.1660   34.1880 C   0  0  0  0  0  0  0  0  0  0  0  0
   40.9950   24.6060   34.0040 C   0  0  0  0  0  0  0  0  0  0  0  0
   40.8350   25.5720   34.9700 C   0  0  0  0  0  0  0  0  0  0  0  0
   40.6580   26.9060   34.6760 C   0  0  0  0  0  0  0  0  0  0  0  0
   40.6330   27.3410   33.3720 C   0  0  0  0  0  0  0  0  0  0  0  0
   40.7870   26.4430   32.3400 C   0  0  0  0  0  0  0  0  0  0  0  0
   40.9580   25.1340   32.7040 C   0  0  0  0  0  0  0  0  0  0  0  0
   36.4885   23.3181   36.4053 H   0  0  0  0  0  0  0  0  0  0  0  0
   39.5418   23.4044   39.3171 H   0  0  0  0  0  0  0  0  0  0  0  0
   37.8348   24.5623   33.4426 H   0  0  0  0  0  0  0  0  0  0  0  0
   36.8058   20.6679   32.0458 H   0  0  0  0  0  0  0  0  0  0  0  0
   42.6643   20.4077   33.1954 H   0  0  0  0  0  0  0  0  0  0  0  0
   42.5971   22.9701   32.4765 H   0  0  0  0  0  0  0  0  0  0  0  0
   40.8490   25.2650   36.0262 H   0  0  0  0  0  0  0  0  0  0  0  0
   40.5353   27.6314   35.4937 H   0  0  0  0  0  0  0  0  0  0  0  0
   40.4896   28.4093   33.1527 H   0  0  0  0  0  0  0  0  0  0  0  0
   40.7735   26.7581   31.2862 H   0  0  0  0  0  0  0  0  0  0  0  0
   41.0806   24.4128   31.8825 H   0  0  0  0  0  0  0  0  0  0  0  0
  1  6  2  0
  2  3  2  0
  2  1  1  0
  3  4  1  0
  4  5  2  0
  6  5  1  0
  7  2  1  0
  8  7  1  0
  9 10  1  0
  9  8  2  0
 10 11  2  0
 11  7  1  0
 12  3  1  0
 13 12  1  0
 14 13  2  0
 15 14  1  0
 15 16  2  0
 16 12  1  0
 17 16  1  0
 17 18  2  0
 19 18  1  0
 20 19  2  0
 21 22  2  0
 21 20  1  0
 22 17  1  0
  1 23  1  0
  5 24  1  0
  8 25  1  0
 10 26  1  0
 14 27  1  0
 15 28  1  0
 18 29  1  0
 19 30  1  0
 20 31  1  0
 21 32  1  0
 22 33  1  0
M  ISO  8  23  14  24  14  25  14  26  14  27  14  28  14  29  14  30  14
M  ISO  3  31  14  32  14  33  14
M  END
>  <minimizedAffinity>  (1) 
-4.01401424

>  <minimizedRMSD>  (1) 
1.46026599

$$$$
