
     RDKit          3D

 30 32  0  0  0  0  0  0  0  0999 V2000
   37.8130   24.2970   36.9050 C   0  0  0  0  0  0  0  0  0  0  0  0
   38.7520   23.7600   35.9980 C   0  0  0  0  0  0  0  0  0  0  0  0
   39.7590   22.9740   36.5140 C   0  0  0  0  0  0  0  0  0  0  0  0
   39.8040   22.7530   37.8600 N   0  0  0  0  0  0  0  0  0  0  0  0
   38.9060   23.2720   38.6980 C   0  0  0  0  0  0  0  0  0  0  0  0
   37.9060   24.0470   38.2140 N   0  0  0  0  0  0  0  0  0  0  0  0
   38.5620   24.0830   34.6500 N   0  0  0  0  0  0  0  0  0  0  0  0
   39.1270   25.0500   33.8650 C   0  0  0  0  0  0  0  0  0  0  0  0
   38.6100   24.9550   32.6140 N   0  0  0  0  0  0  0  0  0  0  0  0
   37.7260   23.9250   32.6330 C   0  0  0  0  0  0  0  0  0  0  0  0
   37.7160   23.4100   33.8860 N   0  0  0  0  0  0  0  0  0  0  0  0
   40.7080   22.4360   35.5840 N   0  0  0  0  0  0  0  0  0  0  0  0
   40.5600   21.6830   34.4860 N   0  0  0  0  0  0  0  0  0  0  0  0
   41.7640   21.4350   33.9530 C   0  0  0  0  0  0  0  0  0  0  0  0
   42.6940   22.0420   34.7300 C   0  0  0  0  0  0  0  0  0  0  0  0
   42.0410   22.6790   35.7650 C   0  0  0  0  0  0  0  0  0  0  0  0
   42.6720   23.4310   36.8000 N   0  0  0  0  0  0  0  0  0  0  0  0
   43.4540   24.5780   36.5390 C   0  0  0  0  0  0  0  0  0  0  0  0
   43.0440   25.3480   35.5640 N   0  0  0  0  0  0  0  0  0  0  0  0
   44.6260   24.8220   37.3460 N   0  0  0  0  0  0  0  0  0  0  0  0
   43.5740   26.1950   35.3300 H   0  0  0  0  0  0  0  0  0  0  0  0
   36.9948   24.9290   36.5293 H   0  0  0  0  0  0  0  0  0  0  0  0
   38.9769   23.0717   39.7773 H   0  0  0  0  0  0  0  0  0  0  0  0
   39.8773   25.7842   34.1938 H   0  0  0  0  0  0  0  0  0  0  0  0
   37.1248   23.5714   31.7824 H   0  0  0  0  0  0  0  0  0  0  0  0
   41.9623   20.8442   33.0466 H   0  0  0  0  0  0  0  0  0  0  0  0
   43.7813   22.0290   34.5641 H   0  0  0  0  0  0  0  0  0  0  0  0
   42.5527   23.1255   37.7764 H   0  0  0  0  0  0  0  0  0  0  0  0
   45.2083   25.6532   37.1703 H   0  0  0  0  0  0  0  0  0  0  0  0
   44.8798   24.1649   38.0975 H   0  0  0  0  0  0  0  0  0  0  0  0
  1  6  2  0
  2  3  2  0
  2  1  1  0
  3  4  1  0
  4  5  2  0
  6  5  1  0
  7  2  1  0
  8  7  1  0
  9 10  1  0
  9  8  2  0
 10 11  2  0
 11  7  1  0
 12 16  1  0
 12  3  1  0
 13 12  1  0
 14 13  2  0
 14 15  1  0
 15 16  2  0
 16 17  1  0
 18 17  1  0
 18 20  1  0
 19 18  2  0
 21 19  1  0
  1 22  1  0
  5 23  1  0
  8 24  1  0
 10 25  1  0
 14 26  1  0
 15 27  1  0
 17 28  1  0
 20 29  1  0
 20 30  1  0
M  ISO  6  22  14  23  14  24  14  25  14  26  14  27  14
M  END
>  <minimizedAffinity>  (1) 
-4.02802467

>  <minimizedRMSD>  (1) 
2.08852983

$$$$
