
     RDKit          3D

 29 32  0  0  0  0  0  0  0  0999 V2000
   37.2810   23.0060   36.9400 C   0  0  0  0  0  0  0  0  0  0  0  0
   38.2940   22.7810   35.9910 C   0  0  0  0  0  0  0  0  0  0  0  0
   39.6060   22.8340   36.3970 C   0  0  0  0  0  0  0  0  0  0  0  0
   39.8760   23.1040   37.7110 N   0  0  0  0  0  0  0  0  0  0  0  0
   38.9030   23.3130   38.5950 C   0  0  0  0  0  0  0  0  0  0  0  0
   37.6000   23.2650   38.2120 N   0  0  0  0  0  0  0  0  0  0  0  0
   37.8460   22.5150   34.6740 N   0  0  0  0  0  0  0  0  0  0  0  0
   37.7240   23.3660   33.5900 C   0  0  0  0  0  0  0  0  0  0  0  0
   37.2460   22.6310   32.5420 N   0  0  0  0  0  0  0  0  0  0  0  0
   37.0860   21.3700   32.9840 C   0  0  0  0  0  0  0  0  0  0  0  0
   37.4610   21.3310   34.2910 N   0  0  0  0  0  0  0  0  0  0  0  0
   40.6080   22.6010   35.4110 N   0  0  0  0  0  0  0  0  0  0  0  0
   41.2440   21.5030   34.9940 N   0  0  0  0  0  0  0  0  0  0  0  0
   42.1160   21.8090   34.0230 C   0  0  0  0  0  0  0  0  0  0  0  0
   42.0370   23.1640   33.8050 C   0  0  0  0  0  0  0  0  0  0  0  0
   41.0860   23.6490   34.6840 C   0  0  0  0  0  0  0  0  0  0  0  0
   40.7230   25.0320   34.7550 N   0  0  0  0  0  0  0  0  0  0  0  0
   41.4700   26.0140   34.2190 C   0  0  0  0  0  0  0  0  0  0  0  0
   40.9100   27.2170   34.4230 N   0  0  0  0  0  0  0  0  0  0  0  0
   39.7620   26.9650   35.1180 C   0  0  0  0  0  0  0  0  0  0  0  0
   39.6560   25.6200   35.3170 N   0  0  0  0  0  0  0  0  0  0  0  0
   36.2247   22.9688   36.6352 H   0  0  0  0  0  0  0  0  0  0  0  0
   39.1557   23.5263   39.6441 H   0  0  0  0  0  0  0  0  0  0  0  0
   37.9674   24.4386   33.5746 H   0  0  0  0  0  0  0  0  0  0  0  0
   36.7166   20.5197   32.3920 H   0  0  0  0  0  0  0  0  0  0  0  0
   42.7754   21.1036   33.4961 H   0  0  0  0  0  0  0  0  0  0  0  0
   42.6165   23.7478   33.0747 H   0  0  0  0  0  0  0  0  0  0  0  0
   42.4169   25.8523   33.6830 H   0  0  0  0  0  0  0  0  0  0  0  0
   39.0414   27.7221   35.4609 H   0  0  0  0  0  0  0  0  0  0  0  0
  1  6  2  0
  2  3  2  0
  2  1  1  0
  3  4  1  0
  4  5  2  0
  6  5  1  0
  7  2  1  0
  8  7  1  0
  9 10  1  0
  9  8  2  0
 10 11  2  0
 11  7  1  0
 12  3  1  0
 13 12  1  0
 14 13  2  0
 15 14  1  0
 15 16  2  0
 16 17  1  0
 16 12  1  0
 17 21  1  0
 18 19  2  0
 18 17  1  0
 19 20  1  0
 20 21  2  0
  1 22  1  0
  5 23  1  0
  8 24  1  0
 10 25  1  0
 14 26  1  0
 15 27  1  0
 18 28  1  0
 20 29  1  0
M  ISO  8  22  14  23  14  24  14  25  14  26  14  27  14  28  14  29  14
M  END
>  <minimizedAffinity>  (1) 
-4.06167078

>  <minimizedRMSD>  (1) 
0.879221737

$$$$
