
     RDKit          3D

 26 28  0  0  0  0  0  0  0  0999 V2000
   37.4020   23.2210   36.9560 C   0  0  0  0  0  0  0  0  0  0  0  0
   38.4020   22.9990   35.9920 C   0  0  0  0  0  0  0  0  0  0  0  0
   39.7140   22.9150   36.4290 C   0  0  0  0  0  0  0  0  0  0  0  0
   39.9730   23.0500   37.7600 N   0  0  0  0  0  0  0  0  0  0  0  0
   38.9900   23.2610   38.6480 C   0  0  0  0  0  0  0  0  0  0  0  0
   37.6990   23.3470   38.2450 N   0  0  0  0  0  0  0  0  0  0  0  0
   37.9720   22.8830   34.6650 N   0  0  0  0  0  0  0  0  0  0  0  0
   37.8820   23.8390   33.6700 C   0  0  0  0  0  0  0  0  0  0  0  0
   37.4040   23.2380   32.5430 N   0  0  0  0  0  0  0  0  0  0  0  0
   37.2080   21.9430   32.8520 C   0  0  0  0  0  0  0  0  0  0  0  0
   37.5630   21.7500   34.1570 N   0  0  0  0  0  0  0  0  0  0  0  0
   40.7220   22.6890   35.4390 N   0  0  0  0  0  0  0  0  0  0  0  0
   41.2470   21.5970   34.9090 N   0  0  0  0  0  0  0  0  0  0  0  0
   42.1770   21.9060   34.0030 C   0  0  0  0  0  0  0  0  0  0  0  0
   42.2540   23.2620   33.9460 C   0  0  0  0  0  0  0  0  0  0  0  0
   41.3340   23.7510   34.8540 C   0  0  0  0  0  0  0  0  0  0  0  0
   41.1440   25.2310   35.0590 C   0  0  0  0  0  0  0  0  0  0  0  0
   36.3520   23.2918   36.6360 H   0  0  0  0  0  0  0  0  0  0  0  0
   39.2346   23.3654   39.7154 H   0  0  0  0  0  0  0  0  0  0  0  0
   38.1498   24.9012   33.7702 H   0  0  0  0  0  0  0  0  0  0  0  0
   36.8262   21.1700   32.1688 H   0  0  0  0  0  0  0  0  0  0  0  0
   42.7717   21.1945   33.4114 H   0  0  0  0  0  0  0  0  0  0  0  0
   42.9197   23.8552   33.3019 H   0  0  0  0  0  0  0  0  0  0  0  0
   41.1157   25.4513   36.1363 H   0  0  0  0  0  0  0  0  0  0  0  0
   41.9796   25.7757   34.5952 H   0  0  0  0  0  0  0  0  0  0  0  0
   40.1979   25.5469   34.5952 H   0  0  0  0  0  0  0  0  0  0  0  0
  1  6  2  0
  2  3  2  0
  2  1  1  0
  3  4  1  0
  4  5  2  0
  6  5  1  0
  7  2  1  0
  8  7  1  0
  9 10  1  0
  9  8  2  0
 10 11  2  0
 11  7  1  0
 12  3  1  0
 13 12  1  0
 14 13  2  0
 15 14  1  0
 15 16  2  0
 16 17  1  0
 16 12  1  0
  1 18  1  0
  5 19  1  0
  8 20  1  0
 10 21  1  0
 14 22  1  0
 15 23  1  0
 17 24  1  0
 17 25  1  0
 17 26  1  0
M  ISO  8  18  14  19  14  20  14  21  14  22  14  23  14  24   8  25   8
M  ISO  1  26   8
M  END
>  <minimizedAffinity>  (1) 
-3.65429854

>  <minimizedRMSD>  (1) 
0.287939936

$$$$
