
     RDKit          3D

 48 51  0  0  0  0  0  0  0  0999 V2000
   38.6240   23.7660   36.9440 C   0  0  0  0  0  0  0  0  0  0  0  0
   41.8040   21.7650   36.9230 C   0  0  0  0  0  0  0  0  0  0  0  0
   40.5230   22.1520   37.2440 C   0  0  0  0  0  0  0  0  0  0  0  0
   39.9760   23.2980   36.6500 C   0  0  0  0  0  0  0  0  0  0  0  0
   40.7460   23.9780   35.7750 N   0  0  0  0  0  0  0  0  0  0  0  0
   42.0000   23.5820   35.4720 C   0  0  0  0  0  0  0  0  0  0  0  0
   42.5260   22.4730   36.0500 N   0  0  0  0  0  0  0  0  0  0  0  0
   42.3510   20.5350   37.5860 C   0  0  0  0  0  0  0  0  0  0  0  0
   43.2090   19.7230   36.6810 C   0  0  0  0  0  0  0  0  0  0  0  0
   38.4090   23.6210   38.4400 C   0  0  0  0  0  0  0  0  0  0  0  0
   38.3630   25.1940   36.5060 C   0  0  0  0  0  0  0  0  0  0  0  0
   37.6210   22.8830   36.2310 C   0  0  0  0  0  0  0  0  0  0  0  0
   37.8710   22.7890   34.8160 N   0  0  0  0  0  0  0  0  0  0  0  0
   37.9790   21.7120   34.0090 C   0  0  0  0  0  0  0  0  0  0  0  0
   38.2190   22.1320   32.7470 N   0  0  0  0  0  0  0  0  0  0  0  0
   38.2650   23.4600   32.7500 C   0  0  0  0  0  0  0  0  0  0  0  0
   38.0500   23.8230   34.0170 N   0  0  0  0  0  0  0  0  0  0  0  0
   38.4730   24.5780   31.8060 C   0  0  0  0  0  0  0  0  0  0  0  0
   39.1880   24.5380   30.6650 N   0  0  0  0  0  0  0  0  0  0  0  0
   39.3580   25.5490   29.8380 C   0  0  0  0  0  0  0  0  0  0  0  0
   38.8180   26.7470   30.0700 N   0  0  0  0  0  0  0  0  0  0  0  0
   38.0740   26.9090   31.1930 C   0  0  0  0  0  0  0  0  0  0  0  0
   37.5170   28.1430   31.4300 C   0  0  0  0  0  0  0  0  0  0  0  0
   36.7560   28.3580   32.5530 C   0  0  0  0  0  0  0  0  0  0  0  0
   36.5710   27.3050   33.4240 C   0  0  0  0  0  0  0  0  0  0  0  0
   37.1540   26.0910   33.1330 C   0  0  0  0  0  0  0  0  0  0  0  0
   37.9250   25.8210   32.0240 C   0  0  0  0  0  0  0  0  0  0  0  0
   39.9316   21.5655   37.9625 H   0  0  0  0  0  0  0  0  0  0  0  0
   42.5984   24.1610   34.7532 H   0  0  0  0  0  0  0  0  0  0  0  0
   42.9502   20.8420   38.4559 H   0  0  0  0  0  0  0  0  0  0  0  0
   41.4951   19.9093   37.8791 H   0  0  0  0  0  0  0  0  0  0  0  0
   43.8785   19.0894   37.2813 H   0  0  0  0  0  0  0  0  0  0  0  0
   42.5740   19.0874   36.0464 H   0  0  0  0  0  0  0  0  0  0  0  0
   43.8087   20.3920   36.0464 H   0  0  0  0  0  0  0  0  0  0  0  0
   39.2043   24.1573   38.9784 H   0  0  0  0  0  0  0  0  0  0  0  0
   37.4313   24.0449   38.7127 H   0  0  0  0  0  0  0  0  0  0  0  0
   38.4357   22.5557   38.7127 H   0  0  0  0  0  0  0  0  0  0  0  0
   38.2460   25.8340   37.3930 H   0  0  0  0  0  0  0  0  0  0  0  0
   39.2103   25.5535   35.9036 H   0  0  0  0  0  0  0  0  0  0  0  0
   37.4433   25.2305   35.9036 H   0  0  0  0  0  0  0  0  0  0  0  0
   37.6699   21.8734   36.6649 H   0  0  0  0  0  0  0  0  0  0  0  0
   36.6269   23.3349   36.3636 H   0  0  0  0  0  0  0  0  0  0  0  0
   37.8867   20.6630   34.3270 H   0  0  0  0  0  0  0  0  0  0  0  0
   39.9621   25.4016   28.9306 H   0  0  0  0  0  0  0  0  0  0  0  0
   37.6817   28.9634   30.7160 H   0  0  0  0  0  0  0  0  0  0  0  0
   36.3068   29.3422   32.7520 H   0  0  0  0  0  0  0  0  0  0  0  0
   35.9684   27.4321   34.3354 H   0  0  0  0  0  0  0  0  0  0  0  0
   36.9901   25.2691   33.8455 H   0  0  0  0  0  0  0  0  0  0  0  0
  1 10  1  0
  2  3  2  0
  2  8  1  0
  4  1  1  0
  4  3  1  0
  5  4  2  0
  6  5  1  0
  6  7  2  0
  7  2  1  0
  9  8  1  0
 11  1  1  0
 12  1  1  0
 13 12  1  0
 14 13  1  0
 15 16  1  0
 15 14  2  0
 16 17  2  0
 17 13  1  0
 18 27  1  0
 18 16  1  0
 19 18  2  0
 20 21  2  0
 20 19  1  0
 21 22  1  0
 22 23  1  0
 22 27  2  0
 23 24  2  0
 24 25  1  0
 26 25  2  0
 27 26  1  0
  3 28  1  0
  6 29  1  0
  8 30  1  0
  8 31  1  0
  9 32  1  0
  9 33  1  0
  9 34  1  0
 10 35  1  0
 10 36  1  0
 10 37  1  0
 11 38  1  0
 11 39  1  0
 11 40  1  0
 12 41  1  0
 12 42  1  0
 14 43  1  0
 20 44  1  0
 23 45  1  0
 24 46  1  0
 25 47  1  0
 26 48  1  0
M  ISO  8  28  14  29  14  30   8  31   8  32   8  33   8  34   8  35   8
M  ISO  8  36   8  37   8  38   8  39   8  40   8  41   8  42   8  43  14
M  ISO  5  44  14  45  14  46  14  47  14  48  14
M  END
>  <minimizedAffinity>  (1) 
-5.45936394

>  <minimizedRMSD>  (1) 
0.644767106

$$$$
