
     RDKit          3D

 38 41  0  0  0  0  0  0  0  0999 V2000
   37.7350   22.9790   36.4740 C   0  0  0  0  0  0  0  0  0  0  0  0
   38.4550   22.6450   35.3220 C   0  0  0  0  0  0  0  0  0  0  0  0
   39.8170   22.4700   35.4290 C   0  0  0  0  0  0  0  0  0  0  0  0
   40.4030   22.6310   36.6550 N   0  0  0  0  0  0  0  0  0  0  0  0
   39.6760   22.9510   37.7360 C   0  0  0  0  0  0  0  0  0  0  0  0
   38.3410   23.1250   37.6450 N   0  0  0  0  0  0  0  0  0  0  0  0
   37.7070   22.5150   34.1320 N   0  0  0  0  0  0  0  0  0  0  0  0
   37.4820   23.3790   33.0990 C   0  0  0  0  0  0  0  0  0  0  0  0
   36.6890   22.7860   32.1800 N   0  0  0  0  0  0  0  0  0  0  0  0
   36.4210   21.5330   32.6550 C   0  0  0  0  0  0  0  0  0  0  0  0
   37.0550   21.3960   33.8470 N   0  0  0  0  0  0  0  0  0  0  0  0
   40.5330   22.1350   34.2480 N   0  0  0  0  0  0  0  0  0  0  0  0
   40.7650   20.9940   33.6100 N   0  0  0  0  0  0  0  0  0  0  0  0
   41.5100   21.1930   32.5350 C   0  0  0  0  0  0  0  0  0  0  0  0
   41.7870   22.5400   32.4560 C   0  0  0  0  0  0  0  0  0  0  0  0
   41.1650   23.1150   33.5420 C   0  0  0  0  0  0  0  0  0  0  0  0
   41.2600   24.5270   33.7360 N   0  0  0  0  0  0  0  0  0  0  0  0
   40.4200   25.3530   32.9000 C   0  0  0  0  0  0  0  0  0  0  0  0
   40.0830   26.6230   33.6540 C   0  0  0  0  0  0  0  0  0  0  0  0
   41.3210   27.4260   33.9660 C   0  0  0  0  0  0  0  0  0  0  0  0
   42.5540   26.5250   34.0610 C   0  0  0  0  0  0  0  0  0  0  0  0
   42.0960   25.2310   34.6850 C   0  0  0  0  0  0  0  0  0  0  0  0
   36.6465   23.1232   36.4076 H   0  0  0  0  0  0  0  0  0  0  0  0
   40.1745   23.0731   38.7089 H   0  0  0  0  0  0  0  0  0  0  0  0
   37.8843   24.4002   33.0263 H   0  0  0  0  0  0  0  0  0  0  0  0
   35.8016   20.7710   32.1593 H   0  0  0  0  0  0  0  0  0  0  0  0
   41.8482   20.4199   31.8294 H   0  0  0  0  0  0  0  0  0  0  0  0
   42.3821   23.0509   31.6848 H   0  0  0  0  0  0  0  0  0  0  0  0
   39.4945   24.8113   32.6551 H   0  0  0  0  0  0  0  0  0  0  0  0
   40.9472   25.6000   31.9667 H   0  0  0  0  0  0  0  0  0  0  0  0
   39.4059   27.2345   33.0395 H   0  0  0  0  0  0  0  0  0  0  0  0
   39.6046   26.3434   34.6042 H   0  0  0  0  0  0  0  0  0  0  0  0
   41.4786   28.1673   33.1687 H   0  0  0  0  0  0  0  0  0  0  0  0
   41.1780   27.9250   34.9358 H   0  0  0  0  0  0  0  0  0  0  0  0
   42.9653   26.3379   33.0581 H   0  0  0  0  0  0  0  0  0  0  0  0
   43.3445   26.9972   34.6627 H   0  0  0  0  0  0  0  0  0  0  0  0
   41.5207   25.4439   35.5981 H   0  0  0  0  0  0  0  0  0  0  0  0
   42.9674   24.6128   34.9468 H   0  0  0  0  0  0  0  0  0  0  0  0
  1  6  2  0
  2  3  2  0
  2  1  1  0
  3  4  1  0
  4  5  2  0
  6  5  1  0
  7  2  1  0
  8  7  1  0
  9 10  1  0
  9  8  2  0
 10 11  2  0
 11  7  1  0
 12  3  1  0
 13 12  1  0
 14 13  2  0
 15 14  1  0
 15 16  2  0
 16 17  1  0
 16 12  1  0
 17 22  1  0
 18 19  1  0
 18 17  1  0
 19 20  1  0
 20 21  1  0
 21 22  1  0
  1 23  1  0
  5 24  1  0
  8 25  1  0
 10 26  1  0
 14 27  1  0
 15 28  1  0
 18 29  1  0
 18 30  1  0
 19 31  1  0
 19 32  1  0
 20 33  1  0
 20 34  1  0
 21 35  1  0
 21 36  1  0
 22 37  1  0
 22 38  1  0
M  ISO  8  23  14  24  14  25  14  26  14  27  14  28  14  29  13  30  13
M  ISO  8  31  13  32  13  33  13  34  13  35  13  36  13  37  13  38  13
M  END
>  <minimizedAffinity>  (1) 
-3.86767316

>  <minimizedRMSD>  (1) 
1.71892059

$$$$
