
     RDKit          3D

 26 28  0  0  0  0  0  0  0  0999 V2000
   37.7050   23.3560   36.7060 C   0  0  0  0  0  0  0  0  0  0  0  0
   38.5570   23.0860   35.6290 C   0  0  0  0  0  0  0  0  0  0  0  0
   39.8860   22.8060   35.8960 C   0  0  0  0  0  0  0  0  0  0  0  0
   40.2920   22.8110   37.1900 N   0  0  0  0  0  0  0  0  0  0  0  0
   39.4650   23.0720   38.1990 C   0  0  0  0  0  0  0  0  0  0  0  0
   38.1600   23.3480   37.9660 N   0  0  0  0  0  0  0  0  0  0  0  0
   37.9630   23.1230   34.3430 N   0  0  0  0  0  0  0  0  0  0  0  0
   37.8700   24.1450   33.4300 C   0  0  0  0  0  0  0  0  0  0  0  0
   37.2020   23.6690   32.3420 N   0  0  0  0  0  0  0  0  0  0  0  0
   36.8940   22.3820   32.5880 C   0  0  0  0  0  0  0  0  0  0  0  0
   37.3730   22.0810   33.8160 N   0  0  0  0  0  0  0  0  0  0  0  0
   40.7320   22.5340   34.7850 N   0  0  0  0  0  0  0  0  0  0  0  0
   40.9010   21.4790   33.9970 N   0  0  0  0  0  0  0  0  0  0  0  0
   41.8430   21.7310   33.0730 C   0  0  0  0  0  0  0  0  0  0  0  0
   42.3010   22.9940   33.2700 C   0  0  0  0  0  0  0  0  0  0  0  0
   41.5940   23.4920   34.3510 C   0  0  0  0  0  0  0  0  0  0  0  0
   41.8050   24.8760   34.8950 C   0  0  0  0  0  0  0  0  0  0  0  0
   42.5440   24.7630   36.0570 F   0  0  0  0  0  0  0  0  0  0  0  0
   40.5910   25.4500   35.2140 F   0  0  0  0  0  0  0  0  0  0  0  0
   42.5160   25.6260   34.0100 F   0  0  0  0  0  0  0  0  0  0  0  0
   36.6448   23.5783   36.5148 H   0  0  0  0  0  0  0  0  0  0  0  0
   39.8447   23.0635   39.2314 H   0  0  0  0  0  0  0  0  0  0  0  0
   38.2640   25.1644   33.5548 H   0  0  0  0  0  0  0  0  0  0  0  0
   36.3528   21.7011   31.9146 H   0  0  0  0  0  0  0  0  0  0  0  0
   42.1841   21.0351   32.2924 H   0  0  0  0  0  0  0  0  0  0  0  0
   43.0760   23.5153   32.6889 H   0  0  0  0  0  0  0  0  0  0  0  0
  1  6  2  0
  2  3  2  0
  2  1  1  0
  3  4  1  0
  4  5  2  0
  6  5  1  0
  7  2  1  0
  8  7  1  0
  9 10  1  0
  9  8  2  0
 10 11  2  0
 11  7  1  0
 12  3  1  0
 13 12  1  0
 14 15  1  0
 14 13  2  0
 15 16  2  0
 16 12  1  0
 16 17  1  0
 17 19  1  0
 17 18  1  0
 20 17  1  0
  1 21  1  0
  5 22  1  0
  8 23  1  0
 10 24  1  0
 14 25  1  0
 15 26  1  0
M  ISO  6  21  14  22  14  23  14  24  14  25  14  26  14
M  END
>  <minimizedAffinity>  (1) 
-3.74175429

>  <minimizedRMSD>  (1) 
1.00029182

$$$$
