
     RDKit          3D

 31 34  0  0  0  0  0  0  0  0999 V2000
   37.5830   22.7450   36.3280 C   0  0  0  0  0  0  0  0  0  0  0  0
   38.1880   22.4700   35.0900 C   0  0  0  0  0  0  0  0  0  0  0  0
   39.5690   22.4740   35.0460 C   0  0  0  0  0  0  0  0  0  0  0  0
   40.2610   22.7400   36.1890 N   0  0  0  0  0  0  0  0  0  0  0  0
   39.6560   22.9960   37.3430 C   0  0  0  0  0  0  0  0  0  0  0  0
   38.3110   22.9990   37.4160 N   0  0  0  0  0  0  0  0  0  0  0  0
   37.3260   22.2170   34.0150 N   0  0  0  0  0  0  0  0  0  0  0  0
   37.0960   22.9060   32.8600 C   0  0  0  0  0  0  0  0  0  0  0  0
   36.1620   22.2500   32.1310 N   0  0  0  0  0  0  0  0  0  0  0  0
   35.8190   21.1510   32.8450 C   0  0  0  0  0  0  0  0  0  0  0  0
   36.5440   21.1500   33.9950 N   0  0  0  0  0  0  0  0  0  0  0  0
   40.1830   22.1950   33.7800 N   0  0  0  0  0  0  0  0  0  0  0  0
   40.3870   21.0570   33.1050 N   0  0  0  0  0  0  0  0  0  0  0  0
   41.0040   21.2820   31.9570 C   0  0  0  0  0  0  0  0  0  0  0  0
   41.2060   22.6210   31.8860 C   0  0  0  0  0  0  0  0  0  0  0  0
   40.6880   23.1990   33.0400 C   0  0  0  0  0  0  0  0  0  0  0  0
   40.7010   24.6380   33.3600 C   0  0  0  0  0  0  0  0  0  0  0  0
   41.8110   25.1740   33.9760 C   0  0  0  0  0  0  0  0  0  0  0  0
   41.7510   26.5270   34.2460 C   0  0  0  0  0  0  0  0  0  0  0  0
   40.6740   27.2850   33.9280 N   0  0  0  0  0  0  0  0  0  0  0  0
   39.5960   26.7190   33.3200 C   0  0  0  0  0  0  0  0  0  0  0  0
   39.6340   25.4010   33.0480 N   0  0  0  0  0  0  0  0  0  0  0  0
   36.4855   22.7509   36.4013 H   0  0  0  0  0  0  0  0  0  0  0  0
   40.2547   23.2061   38.2416 H   0  0  0  0  0  0  0  0  0  0  0  0
   37.5902   23.8443   32.5677 H   0  0  0  0  0  0  0  0  0  0  0  0
   35.0818   20.3913   32.5461 H   0  0  0  0  0  0  0  0  0  0  0  0
   41.2957   20.5312   31.2078 H   0  0  0  0  0  0  0  0  0  0  0  0
   41.6948   23.1570   31.0591 H   0  0  0  0  0  0  0  0  0  0  0  0
   42.6883   24.5635   34.2359 H   0  0  0  0  0  0  0  0  0  0  0  0
   42.6098   27.0073   34.7377 H   0  0  0  0  0  0  0  0  0  0  0  0
   38.7153   27.3235   33.0573 H   0  0  0  0  0  0  0  0  0  0  0  0
  1  6  2  0
  2  1  1  0
  3  2  2  0
  3  4  1  0
  4  5  2  0
  5  6  1  0
  7  2  1  0
  8  7  1  0
  9 10  1  0
  9  8  2  0
 10 11  2  0
 11  7  1  0
 12  3  1  0
 13 12  1  0
 14 13  2  0
 15 14  1  0
 15 16  2  0
 16 17  1  0
 16 12  1  0
 17 18  2  0
 18 19  1  0
 20 19  2  0
 21 20  1  0
 22 21  2  0
 22 17  1  0
  1 23  1  0
  5 24  1  0
  8 25  1  0
 10 26  1  0
 14 27  1  0
 15 28  1  0
 18 29  1  0
 19 30  1  0
 21 31  1  0
M  ISO  8  23  14  24  14  25  14  26  14  27  14  28  14  29  14  30  14
M  ISO  1  31  14
M  END
>  <minimizedAffinity>  (1) 
-3.73311687

>  <minimizedRMSD>  (1) 
2.14130092

$$$$
