
     RDKit          3D

 25 27  0  0  0  0  0  0  0  0999 V2000
   37.3840   23.1820   36.9500 C   0  0  0  0  0  0  0  0  0  0  0  0
   38.3610   22.9780   35.9680 C   0  0  0  0  0  0  0  0  0  0  0  0
   39.6850   22.9180   36.3530 C   0  0  0  0  0  0  0  0  0  0  0  0
   39.9870   23.0610   37.6830 N   0  0  0  0  0  0  0  0  0  0  0  0
   39.0210   23.2580   38.6000 C   0  0  0  0  0  0  0  0  0  0  0  0
   37.7280   23.3180   38.2360 N   0  0  0  0  0  0  0  0  0  0  0  0
   37.8860   22.8490   34.6460 N   0  0  0  0  0  0  0  0  0  0  0  0
   37.8540   23.7430   33.6060 C   0  0  0  0  0  0  0  0  0  0  0  0
   37.2920   23.1320   32.5270 N   0  0  0  0  0  0  0  0  0  0  0  0
   36.9850   21.8750   32.9070 C   0  0  0  0  0  0  0  0  0  0  0  0
   37.3570   21.7240   34.2050 N   0  0  0  0  0  0  0  0  0  0  0  0
   40.6570   22.7080   35.3350 N   0  0  0  0  0  0  0  0  0  0  0  0
   41.1160   21.6440   34.7090 N   0  0  0  0  0  0  0  0  0  0  0  0
   42.0430   21.9670   33.8180 C   0  0  0  0  0  0  0  0  0  0  0  0
   42.1980   23.3270   33.8640 C   0  0  0  0  0  0  0  0  0  0  0  0
   41.3190   23.7900   34.8260 C   0  0  0  0  0  0  0  0  0  0  0  0
   41.1840   25.1820   35.1710 N   0  0  0  0  0  0  0  0  0  0  0  0
   36.3236   23.2309   36.6616 H   0  0  0  0  0  0  0  0  0  0  0  0
   39.2929   23.3712   39.6598 H   0  0  0  0  0  0  0  0  0  0  0  0
   38.2208   24.7795   33.6384 H   0  0  0  0  0  0  0  0  0  0  0  0
   36.5153   21.1060   32.2761 H   0  0  0  0  0  0  0  0  0  0  0  0
   42.5873   21.2711   33.1627 H   0  0  0  0  0  0  0  0  0  0  0  0
   42.8862   23.9320   33.2555 H   0  0  0  0  0  0  0  0  0  0  0  0
   40.5120   25.4699   35.8966 H   0  0  0  0  0  0  0  0  0  0  0  0
   41.7594   25.8894   34.6921 H   0  0  0  0  0  0  0  0  0  0  0  0
  1  6  2  0
  2  3  2  0
  2  1  1  0
  3  4  1  0
  4  5  2  0
  6  5  1  0
  7  2  1  0
  8  7  1  0
  9 10  1  0
  9  8  2  0
 10 11  2  0
 11  7  1  0
 12  3  1  0
 13 12  1  0
 14 15  1  0
 14 13  2  0
 15 16  2  0
 16 17  1  0
 16 12  1  0
  1 18  1  0
  5 19  1  0
  8 20  1  0
 10 21  1  0
 14 22  1  0
 15 23  1  0
 17 24  1  0
 17 25  1  0
M  ISO  6  18  14  19  14  20  14  21  14  22  14  23  14
M  END
>  <minimizedAffinity>  (1) 
-3.59387589

>  <minimizedRMSD>  (1) 
0.349609047

$$$$
