
     RDKit          3D

 25 27  0  0  0  0  0  0  0  0999 V2000
   37.3990   23.2030   36.9570 C   0  0  0  0  0  0  0  0  0  0  0  0
   38.3900   22.9590   35.9950 C   0  0  0  0  0  0  0  0  0  0  0  0
   39.6940   22.8700   36.4360 C   0  0  0  0  0  0  0  0  0  0  0  0
   39.9710   23.0190   37.7560 N   0  0  0  0  0  0  0  0  0  0  0  0
   38.9930   23.2520   38.6450 C   0  0  0  0  0  0  0  0  0  0  0  0
   37.6980   23.3450   38.2480 N   0  0  0  0  0  0  0  0  0  0  0  0
   37.9520   22.8280   34.6630 N   0  0  0  0  0  0  0  0  0  0  0  0
   37.8690   23.7570   33.6480 C   0  0  0  0  0  0  0  0  0  0  0  0
   37.3830   23.1480   32.5460 N   0  0  0  0  0  0  0  0  0  0  0  0
   37.1690   21.8510   32.8820 C   0  0  0  0  0  0  0  0  0  0  0  0
   37.5270   21.6900   34.1870 N   0  0  0  0  0  0  0  0  0  0  0  0
   40.6960   22.6210   35.4450 N   0  0  0  0  0  0  0  0  0  0  0  0
   41.2160   21.5260   34.9160 N   0  0  0  0  0  0  0  0  0  0  0  0
   42.1410   21.8020   34.0100 C   0  0  0  0  0  0  0  0  0  0  0  0
   42.2360   23.1560   33.9340 C   0  0  0  0  0  0  0  0  0  0  0  0
   41.3290   23.6590   34.8350 C   0  0  0  0  0  0  0  0  0  0  0  0
   41.1300   25.0820   35.0510 C   0  0  0  0  0  0  0  0  0  0  0  0
   42.0650   25.9390   34.9240 O   0  0  0  0  0  0  0  0  0  0  0  0
   36.3490   23.2791   36.6381 H   0  0  0  0  0  0  0  0  0  0  0  0
   39.2440   23.3692   39.7096 H   0  0  0  0  0  0  0  0  0  0  0  0
   38.1516   24.8174   33.7236 H   0  0  0  0  0  0  0  0  0  0  0  0
   36.7757   21.0673   32.2178 H   0  0  0  0  0  0  0  0  0  0  0  0
   42.7234   21.0726   33.4279 H   0  0  0  0  0  0  0  0  0  0  0  0
   42.9061   23.7341   33.2807 H   0  0  0  0  0  0  0  0  0  0  0  0
   40.1282   25.4353   35.3367 H   0  0  0  0  0  0  0  0  0  0  0  0
  1  6  2  0
  2  3  2  0
  2  1  1  0
  3  4  1  0
  4  5  2  0
  6  5  1  0
  7  2  1  0
  8  7  1  0
  9 10  1  0
  9  8  2  0
 10 11  2  0
 11  7  1  0
 12  3  1  0
 13 12  1  0
 14 13  2  0
 15 14  1  0
 15 16  2  0
 16 17  1  0
 16 12  1  0
 18 17  2  0
  1 19  1  0
  5 20  1  0
  8 21  1  0
 10 22  1  0
 14 23  1  0
 15 24  1  0
 17 25  1  0
M  ISO  7  19  14  20  14  21  14  22  14  23  14  24  14  25   6
M  END
>  <minimizedAffinity>  (1) 
-3.60677743

>  <minimizedRMSD>  (1) 
0.487728029

$$$$
