
     RDKit          3D

 47 50  0  0  0  0  0  0  0  0999 V2000
   38.6680   23.5490   37.1200 C   0  0  0  0  0  0  0  0  0  0  0  0
   41.9320   21.7040   36.9950 C   0  0  0  0  0  0  0  0  0  0  0  0
   40.6210   22.0090   37.3240 C   0  0  0  0  0  0  0  0  0  0  0  0
   40.0300   23.1730   36.8170 C   0  0  0  0  0  0  0  0  0  0  0  0
   40.7770   23.9640   36.0130 N   0  0  0  0  0  0  0  0  0  0  0  0
   42.0560   23.6480   35.7040 C   0  0  0  0  0  0  0  0  0  0  0  0
   42.6240   22.5230   36.1950 N   0  0  0  0  0  0  0  0  0  0  0  0
   42.5210   20.4540   37.5580 C   0  0  0  0  0  0  0  0  0  0  0  0
   43.1940   19.6160   36.5210 C   0  0  0  0  0  0  0  0  0  0  0  0
   38.3660   23.1290   38.5600 C   0  0  0  0  0  0  0  0  0  0  0  0
   38.3680   25.0210   36.9340 C   0  0  0  0  0  0  0  0  0  0  0  0
   37.7150   22.7750   36.2210 C   0  0  0  0  0  0  0  0  0  0  0  0
   37.9510   23.0390   34.8260 N   0  0  0  0  0  0  0  0  0  0  0  0
   38.3870   22.2070   33.8520 C   0  0  0  0  0  0  0  0  0  0  0  0
   38.4660   22.8870   32.6690 N   0  0  0  0  0  0  0  0  0  0  0  0
   38.0680   24.1500   32.9410 C   0  0  0  0  0  0  0  0  0  0  0  0
   37.7670   24.2140   34.2330 N   0  0  0  0  0  0  0  0  0  0  0  0
   38.0430   25.1070   31.8900 N   0  0  0  0  0  0  0  0  0  0  0  0
   38.8020   24.8600   30.7980 C   0  0  0  0  0  0  0  0  0  0  0  0
   38.6240   25.8900   29.9400 N   0  0  0  0  0  0  0  0  0  0  0  0
   37.7650   26.7690   30.4890 C   0  0  0  0  0  0  0  0  0  0  0  0
   37.1860   27.9930   30.1310 C   0  0  0  0  0  0  0  0  0  0  0  0
   36.3360   28.5870   30.9890 N   0  0  0  0  0  0  0  0  0  0  0  0
   36.0130   28.0580   32.1810 C   0  0  0  0  0  0  0  0  0  0  0  0
   36.5470   26.8690   32.5770 N   0  0  0  0  0  0  0  0  0  0  0  0
   37.3950   26.2750   31.7240 C   0  0  0  0  0  0  0  0  0  0  0  0
   37.5570   28.5160   28.8610 N   0  0  0  0  0  0  0  0  0  0  0  0
   40.0466   21.3393   37.9810 H   0  0  0  0  0  0  0  0  0  0  0  0
   42.6386   24.3116   35.0480 H   0  0  0  0  0  0  0  0  0  0  0  0
   43.2614   20.7278   38.3240 H   0  0  0  0  0  0  0  0  0  0  0  0
   41.6976   19.8604   37.9819 H   0  0  0  0  0  0  0  0  0  0  0  0
   43.8101   18.8488   37.0127 H   0  0  0  0  0  0  0  0  0  0  0  0
   42.4335   19.1286   35.8932 H   0  0  0  0  0  0  0  0  0  0  0  0
   43.8340   20.2534   35.8932 H   0  0  0  0  0  0  0  0  0  0  0  0
   38.8634   23.8208   39.2557 H   0  0  0  0  0  0  0  0  0  0  0  0
   37.2795   23.1565   38.7298 H   0  0  0  0  0  0  0  0  0  0  0  0
   38.7379   22.1078   38.7298 H   0  0  0  0  0  0  0  0  0  0  0  0
   38.2699   25.5024   37.9182 H   0  0  0  0  0  0  0  0  0  0  0  0
   39.1881   25.4945   36.3743 H   0  0  0  0  0  0  0  0  0  0  0  0
   37.4280   25.1358   36.3743 H   0  0  0  0  0  0  0  0  0  0  0  0
   37.8486   21.6989   36.4057 H   0  0  0  0  0  0  0  0  0  0  0  0
   36.6901   23.0968   36.4577 H   0  0  0  0  0  0  0  0  0  0  0  0
   38.6393   21.1454   33.9911 H   0  0  0  0  0  0  0  0  0  0  0  0
   39.4457   23.9826   30.6374 H   0  0  0  0  0  0  0  0  0  0  0  0
   35.3122   28.5889   32.8421 H   0  0  0  0  0  0  0  0  0  0  0  0
   37.1658   29.4128   28.5391 H   0  0  0  0  0  0  0  0  0  0  0  0
   38.2168   27.9979   28.2634 H   0  0  0  0  0  0  0  0  0  0  0  0
  1 10  1  0
  2  3  2  0
  2  8  1  0
  4  1  1  0
  4  3  1  0
  5  4  2  0
  6  5  1  0
  6  7  2  0
  7  2  1  0
  9  8  1  0
 11  1  1  0
 12  1  1  0
 13 12  1  0
 14 13  1  0
 15 16  1  0
 15 14  2  0
 16 17  2  0
 17 13  1  0
 18 16  1  0
 19 18  1  0
 20 21  1  0
 20 19  2  0
 21 26  2  0
 22 21  1  0
 22 23  2  0
 23 24  1  0
 24 25  2  0
 26 18  1  0
 26 25  1  0
 27 22  1  0
  3 28  1  0
  6 29  1  0
  8 30  1  0
  8 31  1  0
  9 32  1  0
  9 33  1  0
  9 34  1  0
 10 35  1  0
 10 36  1  0
 10 37  1  0
 11 38  1  0
 11 39  1  0
 11 40  1  0
 12 41  1  0
 12 42  1  0
 14 43  1  0
 19 44  1  0
 24 45  1  0
 27 46  1  0
 27 47  1  0
M  ISO  8  28  14  29  14  30   8  31   8  32   8  33   8  34   8  35   8
M  ISO  8  36   8  37   8  38   8  39   8  40   8  41   8  42   8  43  14
M  ISO  2  44  14  45  14
M  END
>  <minimizedAffinity>  (1) 
-5.44479084

>  <minimizedRMSD>  (1) 
0.98779875

$$$$
