
     RDKit          3D

 45 49  0  0  1  0  0  0  0  0999 V2000
   38.4090   22.8730   32.0260 N   0  0  0  0  0  0  0  0  0  0  0  0
   39.1820   22.2320   31.1420 N   0  0  0  0  0  0  0  0  0  0  0  0
   39.0000   22.7360   29.9250 C   0  0  0  0  0  0  0  0  0  0  0  0
   38.0780   23.7380   30.0200 C   0  0  0  0  0  0  0  0  0  0  0  0
   37.7080   23.8180   31.3570 C   0  0  0  0  0  0  0  0  0  0  0  0
   37.0780   21.7250   35.2650 C   0  0  0  0  0  0  0  0  0  0  0  0
   37.2680   21.8630   33.8770 C   0  0  0  0  0  0  0  0  0  0  0  0
   38.2230   22.7400   33.4360 C   0  0  0  0  0  0  0  0  0  0  0  0
   38.9430   23.4380   34.3690 N   0  0  0  0  0  0  0  0  0  0  0  0
   38.7430   23.2900   35.6790 C   0  0  0  0  0  0  0  0  0  0  0  0
   37.8080   22.4310   36.1310 N   0  0  0  0  0  0  0  0  0  0  0  0
   36.4410   21.0680   33.0470 N   0  0  0  0  0  0  0  0  0  0  0  0
   35.1550   21.2410   32.6210 C   0  0  0  0  0  0  0  0  0  0  0  0
   34.8260   20.1830   31.8350 N   0  0  0  0  0  0  0  0  0  0  0  0
   35.9080   19.3640   31.7830 C   0  0  0  0  0  0  0  0  0  0  0  0
   36.8830   19.9320   32.5340 N   0  0  0  0  0  0  0  0  0  0  0  0
   36.6990   24.8000   31.8340 C   0  0  2  0  0  0  0  0  0  0  0  0
   35.3780   24.6860   31.1620 C   0  0  0  0  0  0  0  0  0  0  0  0
   37.3240   26.1880   31.7190 C   0  0  0  0  0  0  0  0  0  0  0  0
   36.9310   27.0740   32.7840 N   0  0  0  0  0  0  0  0  0  0  0  0
   37.1110   26.9650   34.1130 C   0  0  0  0  0  0  0  0  0  0  0  0
   36.5880   28.0150   34.7730 N   0  0  0  0  0  0  0  0  0  0  0  0
   36.0410   28.8520   33.8530 C   0  0  0  0  0  0  0  0  0  0  0  0
   35.3720   30.0580   33.8650 C   0  0  0  0  0  0  0  0  0  0  0  0
   34.9570   30.6170   32.7130 N   0  0  0  0  0  0  0  0  0  0  0  0
   35.1880   30.0080   31.5220 C   0  0  0  0  0  0  0  0  0  0  0  0
   35.8370   28.8320   31.4700 N   0  0  0  0  0  0  0  0  0  0  0  0
   36.2610   28.2510   32.6080 C   0  0  0  0  0  0  0  0  0  0  0  0
   35.1450   30.6770   35.1450 N   0  0  0  0  0  0  0  0  0  0  0  0
   39.5032   22.4042   29.0048 H   0  0  0  0  0  0  0  0  0  0  0  0
   37.7005   24.3621   29.1966 H   0  0  0  0  0  0  0  0  0  0  0  0
   36.3171   21.0254   35.6412 H   0  0  0  0  0  0  0  0  0  0  0  0
   39.3437   23.8715   36.3938 H   0  0  0  0  0  0  0  0  0  0  0  0
   34.5001   22.0888   32.8707 H   0  0  0  0  0  0  0  0  0  0  0  0
   35.9799   18.4143   31.2326 H   0  0  0  0  0  0  0  0  0  0  0  0
   36.4520   24.5870   32.8845 H   0  0  0  0  0  0  0  0  0  0  0  0
   34.5850   24.6176   31.9213 H   0  0  0  0  0  0  0  0  0  0  0  0
   35.2085   25.5729   30.5337 H   0  0  0  0  0  0  0  0  0  0  0  0
   35.3629   23.7832   30.5337 H   0  0  0  0  0  0  0  0  0  0  0  0
   38.4187   26.0818   31.7379 H   0  0  0  0  0  0  0  0  0  0  0  0
   36.9696   26.6305   30.7763 H   0  0  0  0  0  0  0  0  0  0  0  0
   37.6225   26.1217   34.6000 H   0  0  0  0  0  0  0  0  0  0  0  0
   34.8411   30.4809   30.5914 H   0  0  0  0  0  0  0  0  0  0  0  0
   34.6493   31.5782   35.2006 H   0  0  0  0  0  0  0  0  0  0  0  0
   35.4783   30.2186   36.0051 H   0  0  0  0  0  0  0  0  0  0  0  0
  1  8  1  0
  2  1  1  0
  3  4  1  0
  3  2  2  0
  4  5  2  0
  5 17  1  0
  5  1  1  0
  6 11  2  0
  7  6  1  0
  8  7  2  0
  8  9  1  0
  9 10  2  0
 10 11  1  0
 12  7  1  0
 13 12  1  0
 14 13  2  0
 15 14  1  0
 15 16  2  0
 16 12  1  0
 18 17  1  0
 19 17  1  0
 19 20  1  0
 20 21  1  0
 21 22  2  0
 23 24  2  0
 23 22  1  0
 24 29  1  0
 25 24  1  0
 26 25  2  0
 27 26  1  0
 27 28  2  0
 28 20  1  0
 28 23  1  0
  3 30  1  0
  4 31  1  0
  6 32  1  0
 10 33  1  0
 13 34  1  0
 15 35  1  0
 17 36  1  1
 18 37  1  0
 18 38  1  0
 18 39  1  0
 19 40  1  0
 19 41  1  0
 21 42  1  0
 26 43  1  0
 29 44  1  0
 29 45  1  0
M  ISO  8  30  14  31  14  32  14  33  14  34  14  35  14  36   8  37   8
M  ISO  6  38   8  39   8  40   8  41   8  42  14  43  14
M  END
>  <minimizedAffinity>  (1) 
-5.39705896

>  <minimizedRMSD>  (1) 
2.7191689

$$$$
