
     RDKit          3D

 46 50  0  0  1  0  0  0  0  0999 V2000
   38.7820   27.1270   32.6460 N   0  0  0  0  0  0  0  0  0  0  0  0
   39.8550   27.1920   31.8450 N   0  0  0  0  0  0  0  0  0  0  0  0
   39.5470   27.7690   30.6820 C   0  0  0  0  0  0  0  0  0  0  0  0
   38.2300   28.0950   30.7190 C   0  0  0  0  0  0  0  0  0  0  0  0
   37.7530   27.6930   31.9490 C   0  0  0  0  0  0  0  0  0  0  0  0
   38.0730   24.7850   35.3830 C   0  0  0  0  0  0  0  0  0  0  0  0
   38.2890   25.2910   34.0910 C   0  0  0  0  0  0  0  0  0  0  0  0
   38.5670   26.6260   33.9540 C   0  0  0  0  0  0  0  0  0  0  0  0
   38.6200   27.4030   35.0870 N   0  0  0  0  0  0  0  0  0  0  0  0
   38.4110   26.8980   36.3030 C   0  0  0  0  0  0  0  0  0  0  0  0
   38.1360   25.5820   36.4550 N   0  0  0  0  0  0  0  0  0  0  0  0
   38.2000   24.3620   33.0280 N   0  0  0  0  0  0  0  0  0  0  0  0
   37.1470   23.9520   32.2700 C   0  0  0  0  0  0  0  0  0  0  0  0
   37.5890   23.0380   31.3750 N   0  0  0  0  0  0  0  0  0  0  0  0
   38.9240   22.8840   31.5840 C   0  0  0  0  0  0  0  0  0  0  0  0
   39.2630   23.7080   32.6010 N   0  0  0  0  0  0  0  0  0  0  0  0
   36.3220   27.8680   32.3750 C   0  0  2  0  0  0  0  0  0  0  0  0
   35.3870   26.9750   31.6110 C   0  0  0  0  0  0  0  0  0  0  0  0
   35.9810   29.3290   32.2350 C   0  0  0  0  0  0  0  0  0  0  0  0
   34.8220   29.6190   33.0580 C   0  0  0  0  0  0  0  0  0  0  0  0
   33.5910   29.1510   32.6810 N   0  0  0  0  0  0  0  0  0  0  0  0
   32.4860   29.3480   33.3950 C   0  0  0  0  0  0  0  0  0  0  0  0
   32.4610   30.0340   34.5740 N   0  0  0  0  0  0  0  0  0  0  0  0
   33.6600   30.5300   35.0100 C   0  0  0  0  0  0  0  0  0  0  0  0
   33.6800   31.2350   36.1860 C   0  0  0  0  0  0  0  0  0  0  0  0
   34.8980   31.7570   36.6320 C   0  0  0  0  0  0  0  0  0  0  0  0
   36.0530   31.5470   35.8750 C   0  0  0  0  0  0  0  0  0  0  0  0
   35.9540   30.8320   34.7120 C   0  0  0  0  0  0  0  0  0  0  0  0
   34.7760   30.3040   34.2410 C   0  0  0  0  0  0  0  0  0  0  0  0
   40.2365   27.9482   29.8439 H   0  0  0  0  0  0  0  0  0  0  0  0
   37.6536   28.5858   29.9209 H   0  0  0  0  0  0  0  0  0  0  0  0
   37.8485   23.7163   35.5154 H   0  0  0  0  0  0  0  0  0  0  0  0
   38.4623   27.5531   37.1852 H   0  0  0  0  0  0  0  0  0  0  0  0
   36.1097   24.3045   32.3682 H   0  0  0  0  0  0  0  0  0  0  0  0
   39.6000   22.2156   31.0305 H   0  0  0  0  0  0  0  0  0  0  0  0
   36.1999   27.5614   33.4243 H   0  0  0  0  0  0  0  0  0  0  0  0
   34.7772   26.3926   32.3173 H   0  0  0  0  0  0  0  0  0  0  0  0
   34.7292   27.5887   30.9780 H   0  0  0  0  0  0  0  0  0  0  0  0
   35.9698   26.2897   30.9780 H   0  0  0  0  0  0  0  0  0  0  0  0
   36.8327   29.9410   32.5669 H   0  0  0  0  0  0  0  0  0  0  0  0
   35.7604   29.5624   31.1829 H   0  0  0  0  0  0  0  0  0  0  0  0
   31.5404   28.9351   33.0138 H   0  0  0  0  0  0  0  0  0  0  0  0
   32.7577   31.3866   36.7660 H   0  0  0  0  0  0  0  0  0  0  0  0
   34.9463   32.3281   37.5709 H   0  0  0  0  0  0  0  0  0  0  0  0
   37.0221   31.9480   36.2067 H   0  0  0  0  0  0  0  0  0  0  0  0
   36.8681   30.6711   34.1217 H   0  0  0  0  0  0  0  0  0  0  0  0
  1  8  1  0
  2  1  1  0
  3  4  1  0
  3  2  2  0
  4  5  2  0
  5 17  1  0
  5  1  1  0
  6 11  2  0
  7  6  1  0
  8  7  2  0
  8  9  1  0
  9 10  2  0
 10 11  1  0
 12  7  1  0
 13 12  1  0
 14 15  1  0
 14 13  2  0
 15 16  2  0
 16 12  1  0
 18 17  1  0
 19 17  1  0
 19 20  1  0
 20 29  1  0
 21 20  2  0
 21 22  1  0
 22 23  2  0
 23 24  1  0
 24 25  2  0
 25 26  1  0
 27 26  2  0
 28 27  1  0
 29 28  2  0
 29 24  1  0
  3 30  1  0
  4 31  1  0
  6 32  1  0
 10 33  1  0
 13 34  1  0
 15 35  1  0
 17 36  1  1
 18 37  1  0
 18 38  1  0
 18 39  1  0
 19 40  1  0
 19 41  1  0
 22 42  1  0
 25 43  1  0
 26 44  1  0
 27 45  1  0
 28 46  1  0
M  ISO  8  30  14  31  14  32  14  33  14  34  14  35  14  36   8  37   8
M  ISO  8  38   8  39   8  40   8  41   8  42  14  43  14  44  14  45  14
M  ISO  1  46  14
M  END
>  <minimizedAffinity>  (1) 
-5.79123163

>  <minimizedRMSD>  (1) 
2.27776885

$$$$
