
     RDKit          3D

 47 49  0  0  0  0  0  0  0  0999 V2000
   38.7910   23.7080   36.8740 C   0  0  0  0  0  0  0  0  0  0  0  0
   41.9810   21.7280   36.8800 C   0  0  0  0  0  0  0  0  0  0  0  0
   40.6880   22.1020   37.1810 C   0  0  0  0  0  0  0  0  0  0  0  0
   40.1490   23.2520   36.6030 C   0  0  0  0  0  0  0  0  0  0  0  0
   40.9310   23.9690   35.7510 N   0  0  0  0  0  0  0  0  0  0  0  0
   42.1910   23.5920   35.4670 C   0  0  0  0  0  0  0  0  0  0  0  0
   42.7110   22.4670   36.0360 N   0  0  0  0  0  0  0  0  0  0  0  0
   42.5240   20.4930   37.5180 C   0  0  0  0  0  0  0  0  0  0  0  0
   43.2150   19.5930   36.5500 C   0  0  0  0  0  0  0  0  0  0  0  0
   38.4500   23.3100   38.3050 C   0  0  0  0  0  0  0  0  0  0  0  0
   38.5820   25.1900   36.6800 C   0  0  0  0  0  0  0  0  0  0  0  0
   37.8260   22.9980   35.9500 C   0  0  0  0  0  0  0  0  0  0  0  0
   37.8410   23.5300   34.6130 N   0  0  0  0  0  0  0  0  0  0  0  0
   38.1890   22.9350   33.4350 C   0  0  0  0  0  0  0  0  0  0  0  0
   38.0410   23.8360   32.4250 N   0  0  0  0  0  0  0  0  0  0  0  0
   37.6040   24.9800   32.9890 C   0  0  0  0  0  0  0  0  0  0  0  0
   37.4900   24.7720   34.3110 N   0  0  0  0  0  0  0  0  0  0  0  0
   37.3700   26.0920   32.1340 N   0  0  0  0  0  0  0  0  0  0  0  0
   36.6100   27.1700   32.3800 C   0  0  0  0  0  0  0  0  0  0  0  0
   36.4950   28.1610   31.4280 C   0  0  0  0  0  0  0  0  0  0  0  0
   35.6600   29.3450   31.6990 C   0  0  0  0  0  0  0  0  0  0  0  0
   37.1620   28.0400   30.2260 C   0  0  0  0  0  0  0  0  0  0  0  0
   37.0600   28.9470   29.3490 O   0  0  0  0  0  0  0  0  0  0  0  0
   37.9210   26.9350   30.0150 N   0  0  0  0  0  0  0  0  0  0  0  0
   38.0290   25.9580   30.9640 C   0  0  0  0  0  0  0  0  0  0  0  0
   38.7700   25.0090   30.6010 O   0  0  0  0  0  0  0  0  0  0  0  0
   40.0846   21.4966   37.8734 H   0  0  0  0  0  0  0  0  0  0  0  0
   42.8018   24.1913   34.7758 H   0  0  0  0  0  0  0  0  0  0  0  0
   43.2425   20.7877   38.2971 H   0  0  0  0  0  0  0  0  0  0  0  0
   41.6720   19.9360   37.9349 H   0  0  0  0  0  0  0  0  0  0  0  0
   43.7948   18.8379   37.1010 H   0  0  0  0  0  0  0  0  0  0  0  0
   42.4675   19.0917   35.9175 H   0  0  0  0  0  0  0  0  0  0  0  0
   43.8923   20.1856   35.9175 H   0  0  0  0  0  0  0  0  0  0  0  0
   39.0016   23.9538   39.0060 H   0  0  0  0  0  0  0  0  0  0  0  0
   37.3691   23.4288   38.4710 H   0  0  0  0  0  0  0  0  0  0  0  0
   38.7332   22.2601   38.4710 H   0  0  0  0  0  0  0  0  0  0  0  0
   38.5126   25.6821   37.6614 H   0  0  0  0  0  0  0  0  0  0  0  0
   39.4299   25.6095   36.1186 H   0  0  0  0  0  0  0  0  0  0  0  0
   37.6512   25.3586   36.1186 H   0  0  0  0  0  0  0  0  0  0  0  0
   38.0988   21.9332   35.9077 H   0  0  0  0  0  0  0  0  0  0  0  0
   36.8130   23.1438   36.3533 H   0  0  0  0  0  0  0  0  0  0  0  0
   38.5331   21.8965   33.3202 H   0  0  0  0  0  0  0  0  0  0  0  0
   36.0797   27.2631   33.3392 H   0  0  0  0  0  0  0  0  0  0  0  0
   35.5622   29.4837   32.7858 H   0  0  0  0  0  0  0  0  0  0  0  0
   36.1313   30.2351   31.2567 H   0  0  0  0  0  0  0  0  0  0  0  0
   34.6634   29.1998   31.2567 H   0  0  0  0  0  0  0  0  0  0  0  0
   38.4251   26.8309   29.1228 H   0  0  0  0  0  0  0  0  0  0  0  0
  1 10  1  0
  2  3  2  0
  2  8  1  0
  4  1  1  0
  4  3  1  0
  5  4  2  0
  6  5  1  0
  6  7  2  0
  7  2  1  0
  9  8  1  0
 11  1  1  0
 12  1  1  0
 13 12  1  0
 14 13  1  0
 15 16  1  0
 15 14  2  0
 16 17  2  0
 17 13  1  0
 18 19  1  0
 18 16  1  0
 20 21  1  0
 20 19  2  0
 22 20  1  0
 23 22  2  0
 24 22  1  0
 24 25  1  0
 25 18  1  0
 26 25  2  0
  3 27  1  0
  6 28  1  0
  8 29  1  0
  8 30  1  0
  9 31  1  0
  9 32  1  0
  9 33  1  0
 10 34  1  0
 10 35  1  0
 10 36  1  0
 11 37  1  0
 11 38  1  0
 11 39  1  0
 12 40  1  0
 12 41  1  0
 14 42  1  0
 19 43  1  0
 21 44  1  0
 21 45  1  0
 21 46  1  0
 24 47  1  0
M  ISO  8  27  14  28  14  29   8  30   8  31   8  32   8  33   8  34   8
M  ISO  8  35   8  36   8  37   8  38   8  39   8  40   8  41   8  42  14
M  ISO  5  43  14  44   8  45   8  46   8  47   9
M  END
>  <minimizedAffinity>  (1) 
-5.41066313

>  <minimizedRMSD>  (1) 
1.86804307

$$$$
