
     RDKit          3D

 42 45  0  0  1  0  0  0  0  0999 V2000
   38.9940   24.7510   32.5100 N   0  0  0  0  0  0  0  0  0  0  0  0
   40.0980   24.4870   31.8130 N   0  0  0  0  0  0  0  0  0  0  0  0
   39.9560   24.8570   30.5490 C   0  0  0  0  0  0  0  0  0  0  0  0
   38.7020   25.3900   30.4050 C   0  0  0  0  0  0  0  0  0  0  0  0
   38.1070   25.3140   31.6570 C   0  0  0  0  0  0  0  0  0  0  0  0
   37.8260   23.1220   35.5950 C   0  0  0  0  0  0  0  0  0  0  0  0
   38.1880   23.3230   34.2570 C   0  0  0  0  0  0  0  0  0  0  0  0
   38.6300   24.5610   33.8750 C   0  0  0  0  0  0  0  0  0  0  0  0
   38.6950   25.5470   34.8310 N   0  0  0  0  0  0  0  0  0  0  0  0
   38.3450   25.3290   36.0970 C   0  0  0  0  0  0  0  0  0  0  0  0
   37.9090   24.1150   36.4820 N   0  0  0  0  0  0  0  0  0  0  0  0
   38.0630   22.2080   33.4030 N   0  0  0  0  0  0  0  0  0  0  0  0
   36.9900   21.7080   32.7100 C   0  0  0  0  0  0  0  0  0  0  0  0
   37.3960   20.6060   32.0290 N   0  0  0  0  0  0  0  0  0  0  0  0
   38.7060   20.4240   32.2960 C   0  0  0  0  0  0  0  0  0  0  0  0
   39.0870   21.4170   33.1380 N   0  0  0  0  0  0  0  0  0  0  0  0
   36.7090   25.7980   31.8870 C   0  0  2  0  0  0  0  0  0  0  0  0
   35.6630   24.8150   31.4970 C   0  0  0  0  0  0  0  0  0  0  0  0
   36.5750   27.1480   31.2300 C   0  0  0  0  0  0  0  0  0  0  0  0
   36.2560   28.1390   32.2320 N   0  0  0  0  0  0  0  0  0  0  0  0
   36.4470   27.8290   33.5340 C   0  0  0  0  0  0  0  0  0  0  0  0
   36.1910   28.6400   34.6210 C   0  0  0  0  0  0  0  0  0  0  0  0
   35.6950   29.8780   34.3540 C   0  0  0  0  0  0  0  0  0  0  0  0
   35.4350   30.6750   35.2860 O   0  0  0  0  0  0  0  0  0  0  0  0
   35.5020   30.1960   33.0670 N   0  0  0  0  0  0  0  0  0  0  0  0
   35.7650   29.3760   32.0360 C   0  0  0  0  0  0  0  0  0  0  0  0
   35.5670   29.7260   30.8480 O   0  0  0  0  0  0  0  0  0  0  0  0
   40.7110   24.7545   29.7556 H   0  0  0  0  0  0  0  0  0  0  0  0
   38.2571   25.7957   29.4844 H   0  0  0  0  0  0  0  0  0  0  0  0
   37.4688   22.1332   35.9184 H   0  0  0  0  0  0  0  0  0  0  0  0
   38.4124   26.1448   36.8318 H   0  0  0  0  0  0  0  0  0  0  0  0
   35.9735   22.1284   32.7066 H   0  0  0  0  0  0  0  0  0  0  0  0
   39.3460   19.6199   31.9038 H   0  0  0  0  0  0  0  0  0  0  0  0
   36.5295   25.9102   32.9664 H   0  0  0  0  0  0  0  0  0  0  0  0
   35.2070   24.3865   32.4017 H   0  0  0  0  0  0  0  0  0  0  0  0
   34.8892   25.3203   30.9005 H   0  0  0  0  0  0  0  0  0  0  0  0
   36.1193   24.0113   30.9005 H   0  0  0  0  0  0  0  0  0  0  0  0
   37.5233   27.4135   30.7399 H   0  0  0  0  0  0  0  0  0  0  0  0
   35.7725   27.1133   30.4785 H   0  0  0  0  0  0  0  0  0  0  0  0
   36.8476   26.8274   33.7491 H   0  0  0  0  0  0  0  0  0  0  0  0
   36.3786   28.3023   35.6509 H   0  0  0  0  0  0  0  0  0  0  0  0
   35.1271   31.1314   32.8539 H   0  0  0  0  0  0  0  0  0  0  0  0
  1  8  1  0
  2  1  1  0
  3  2  2  0
  4  3  1  0
  4  5  2  0
  5 17  1  0
  5  1  1  0
  6 11  2  0
  7  6  1  0
  8  7  2  0
  8  9  1  0
  9 10  2  0
 10 11  1  0
 12  7  1  0
 13 12  1  0
 14 15  1  0
 14 13  2  0
 15 16  2  0
 16 12  1  0
 18 17  1  0
 19 17  1  0
 19 20  1  0
 20 21  1  0
 21 22  2  0
 23 22  1  0
 23 24  2  0
 25 23  1  0
 26 20  1  0
 26 25  1  0
 27 26  2  0
  3 28  1  0
  4 29  1  0
  6 30  1  0
 10 31  1  0
 13 32  1  0
 15 33  1  0
 17 34  1  1
 18 35  1  0
 18 36  1  0
 18 37  1  0
 19 38  1  0
 19 39  1  0
 21 40  1  0
 22 41  1  0
 25 42  1  0
M  ISO  8  28  14  29  14  30  14  31  14  32  14  33  14  34   8  35   8
M  ISO  7  36   8  37   8  38   8  39   8  40  14  41  14  42   9
M  END
>  <minimizedAffinity>  (1) 
-4.78454399

>  <minimizedRMSD>  (1) 
2.18464136

$$$$
