
     RDKit          3D

 45 48  0  0  1  0  0  0  0  0999 V2000
   39.4750   23.9090   33.0660 N   0  0  0  0  0  0  0  0  0  0  0  0
   40.4610   23.4280   32.3080 N   0  0  0  0  0  0  0  0  0  0  0  0
   40.5650   24.1200   31.1830 C   0  0  0  0  0  0  0  0  0  0  0  0
   39.6090   25.0940   31.2040 C   0  0  0  0  0  0  0  0  0  0  0  0
   38.9180   24.9570   32.4020 C   0  0  0  0  0  0  0  0  0  0  0  0
   37.5250   22.1650   35.6570 C   0  0  0  0  0  0  0  0  0  0  0  0
   38.0390   22.5290   34.4060 C   0  0  0  0  0  0  0  0  0  0  0  0
   38.9550   23.5440   34.3480 C   0  0  0  0  0  0  0  0  0  0  0  0
   39.3250   24.1560   35.5190 N   0  0  0  0  0  0  0  0  0  0  0  0
   38.8180   23.7880   36.6970 C   0  0  0  0  0  0  0  0  0  0  0  0
   37.9150   22.7900   36.7720 N   0  0  0  0  0  0  0  0  0  0  0  0
   37.5560   21.7990   33.2890 N   0  0  0  0  0  0  0  0  0  0  0  0
   36.4070   21.9230   32.5610 C   0  0  0  0  0  0  0  0  0  0  0  0
   36.4230   20.9740   31.5880 N   0  0  0  0  0  0  0  0  0  0  0  0
   37.5750   20.2740   31.7220 C   0  0  0  0  0  0  0  0  0  0  0  0
   38.2480   20.8030   32.7730 N   0  0  0  0  0  0  0  0  0  0  0  0
   37.7900   25.8410   32.7710 C   0  0  2  0  0  0  0  0  0  0  0  0
   36.5220   25.5240   32.0620 C   0  0  0  0  0  0  0  0  0  0  0  0
   38.2430   27.2830   32.5650 C   0  0  0  0  0  0  0  0  0  0  0  0
   34.7730   29.7930   32.4780 C   0  0  0  0  0  0  0  0  0  0  0  0
   35.5440   29.6040   31.3450 C   0  0  0  0  0  0  0  0  0  0  0  0
   36.6390   28.7810   31.4740 C   0  0  0  0  0  0  0  0  0  0  0  0
   37.0230   28.1280   32.6510 C   0  0  0  0  0  0  0  0  0  0  0  0
   36.2280   28.3420   33.7600 C   0  0  0  0  0  0  0  0  0  0  0  0
   35.1270   29.1660   33.6450 C   0  0  0  0  0  0  0  0  0  0  0  0
   33.3730   30.8340   32.3560 S   0  0  0  0  0  0  0  0  0  0  0  0
   32.1460   30.0090   32.6350 O   0  0  0  0  0  0  0  0  0  0  0  0
   33.2330   31.4090   30.9700 O   0  0  0  0  0  0  0  0  0  0  0  0
   41.2915   23.9416   30.3766 H   0  0  0  0  0  0  0  0  0  0  0  0
   39.4213   25.8443   30.4218 H   0  0  0  0  0  0  0  0  0  0  0  0
   36.7880   21.3511   35.7228 H   0  0  0  0  0  0  0  0  0  0  0  0
   39.1394   24.3031   37.6143 H   0  0  0  0  0  0  0  0  0  0  0  0
   35.6093   22.6608   32.7320 H   0  0  0  0  0  0  0  0  0  0  0  0
   37.9034   19.4324   31.0944 H   0  0  0  0  0  0  0  0  0  0  0  0
   37.5365   25.6755   33.8285 H   0  0  0  0  0  0  0  0  0  0  0  0
   35.7296   25.3259   32.7988 H   0  0  0  0  0  0  0  0  0  0  0  0
   36.2314   26.3771   31.4314 H   0  0  0  0  0  0  0  0  0  0  0  0
   36.6670   24.6345   31.4314 H   0  0  0  0  0  0  0  0  0  0  0  0
   38.7137   27.3955   31.5772 H   0  0  0  0  0  0  0  0  0  0  0  0
   38.9840   27.5780   33.3225 H   0  0  0  0  0  0  0  0  0  0  0  0
   35.2942   30.0874   30.3890 H   0  0  0  0  0  0  0  0  0  0  0  0
   37.2621   28.6237   30.5813 H   0  0  0  0  0  0  0  0  0  0  0  0
   36.4688   27.8628   34.7204 H   0  0  0  0  0  0  0  0  0  0  0  0
   34.5013   29.3281   34.5351 H   0  0  0  0  0  0  0  0  0  0  0  0
   33.5183   31.8607   33.2513 H   0  0  0  0  0  0  0  0  0  0  0  0
  1  8  1  0
  2  1  1  0
  3  4  1  0
  3  2  2  0
  4  5  2  0
  5 17  1  0
  5  1  1  0
  6 11  2  0
  7  6  1  0
  8  7  2  0
  8  9  1  0
  9 10  2  0
 10 11  1  0
 12  7  1  0
 13 12  1  0
 14 15  1  0
 14 13  2  0
 15 16  2  0
 16 12  1  0
 18 17  1  0
 19 23  1  0
 19 17  1  0
 20 25  2  0
 21 22  2  0
 21 20  1  0
 22 23  1  0
 23 24  2  0
 25 24  1  0
 26 20  1  0
 26 27  2  0
 28 26  2  0
  3 29  1  0
  4 30  1  0
  6 31  1  0
 10 32  1  0
 13 33  1  0
 15 34  1  0
 17 35  1  1
 18 36  1  0
 18 37  1  0
 18 38  1  0
 19 39  1  0
 19 40  1  0
 21 41  1  0
 22 42  1  0
 24 43  1  0
 25 44  1  0
 26 45  1  0
M  ISO  8  29  14  30  14  31  14  32  14  33  14  34  14  35   8  36   8
M  ISO  8  37   8  38   8  39   8  40   8  41  14  42  14  43  14  44  14
M  ISO  1  45  11
M  END
>  <minimizedAffinity>  (1) 
-4.94605541

>  <minimizedRMSD>  (1) 
2.08729959

$$$$
