
     RDKit          3D

 40 43  0  0  1  0  0  0  0  0999 V2000
   39.4390   25.7240   35.0420 N   0  0  0  0  0  0  0  0  0  0  0  0
   40.7220   26.0090   34.7990 N   0  0  0  0  0  0  0  0  0  0  0  0
   40.8280   26.9060   33.8180 C   0  0  0  0  0  0  0  0  0  0  0  0
   39.5640   27.2170   33.4070 C   0  0  0  0  0  0  0  0  0  0  0  0
   38.6880   26.4680   34.1830 C   0  0  0  0  0  0  0  0  0  0  0  0
   37.9300   22.6970   36.4870 C   0  0  0  0  0  0  0  0  0  0  0  0
   38.5740   23.5560   35.5900 C   0  0  0  0  0  0  0  0  0  0  0  0
   38.7810   24.8570   35.9660 C   0  0  0  0  0  0  0  0  0  0  0  0
   38.3500   25.2610   37.2070 N   0  0  0  0  0  0  0  0  0  0  0  0
   37.7360   24.4160   38.0470 C   0  0  0  0  0  0  0  0  0  0  0  0
   37.5310   23.1390   37.6820 N   0  0  0  0  0  0  0  0  0  0  0  0
   38.9600   22.9930   34.3470 N   0  0  0  0  0  0  0  0  0  0  0  0
   38.2800   22.8420   33.1730 C   0  0  0  0  0  0  0  0  0  0  0  0
   39.1080   22.2360   32.2810 N   0  0  0  0  0  0  0  0  0  0  0  0
   40.2840   22.0190   32.9040 C   0  0  0  0  0  0  0  0  0  0  0  0
   40.1680   22.4930   34.1710 N   0  0  0  0  0  0  0  0  0  0  0  0
   37.2180   26.5400   34.0050 C   0  0  2  0  0  0  0  0  0  0  0  0
   36.7610   26.1970   32.6330 C   0  0  0  0  0  0  0  0  0  0  0  0
   36.7680   27.9270   34.4570 C   0  0  0  0  0  0  0  0  0  0  0  0
   36.1530   28.6860   33.3610 C   0  0  0  0  0  0  0  0  0  0  0  0
   34.8670   29.1340   33.5610 C   0  0  0  0  0  0  0  0  0  0  0  0
   34.2140   29.8580   32.5770 C   0  0  0  0  0  0  0  0  0  0  0  0
   34.8600   30.1140   31.4240 N   0  0  0  0  0  0  0  0  0  0  0  0
   36.1200   29.6850   31.2070 C   0  0  0  0  0  0  0  0  0  0  0  0
   36.7020   28.9910   32.1900 N   0  0  0  0  0  0  0  0  0  0  0  0
   41.7635   27.3199   33.4137 H   0  0  0  0  0  0  0  0  0  0  0  0
   39.2907   27.9263   32.6119 H   0  0  0  0  0  0  0  0  0  0  0  0
   37.7509   21.6488   36.2054 H   0  0  0  0  0  0  0  0  0  0  0  0
   37.4003   24.7674   39.0339 H   0  0  0  0  0  0  0  0  0  0  0  0
   37.2432   23.1558   32.9820 H   0  0  0  0  0  0  0  0  0  0  0  0
   41.1745   21.5447   32.4658 H   0  0  0  0  0  0  0  0  0  0  0  0
   36.7405   25.7684   34.6268 H   0  0  0  0  0  0  0  0  0  0  0  0
   35.8826   25.5377   32.6932 H   0  0  0  0  0  0  0  0  0  0  0  0
   36.4920   27.1181   32.0952 H   0  0  0  0  0  0  0  0  0  0  0  0
   37.5702   25.6814   32.0952 H   0  0  0  0  0  0  0  0  0  0  0  0
   36.0339   27.8160   35.2687 H   0  0  0  0  0  0  0  0  0  0  0  0
   37.6557   28.4794   34.7988 H   0  0  0  0  0  0  0  0  0  0  0  0
   34.3540   28.9155   34.5092 H   0  0  0  0  0  0  0  0  0  0  0  0
   33.1864   30.2172   32.7349 H   0  0  0  0  0  0  0  0  0  0  0  0
   36.6450   29.8966   30.2638 H   0  0  0  0  0  0  0  0  0  0  0  0
  1  8  1  0
  2  1  1  0
  3  2  2  0
  4  3  1  0
  4  5  2  0
  5  1  1  0
  6 11  2  0
  7  8  2  0
  7  6  1  0
  8  9  1  0
  9 10  2  0
 11 10  1  0
 12  7  1  0
 13 12  1  0
 14 15  1  0
 14 13  2  0
 15 16  2  0
 16 12  1  0
 17  5  1  0
 17 19  1  0
 18 17  1  0
 20 21  2  0
 20 19  1  0
 22 21  1  0
 23 22  2  0
 24 23  1  0
 24 25  2  0
 25 20  1  0
  3 26  1  0
  4 27  1  0
  6 28  1  0
 10 29  1  0
 13 30  1  0
 15 31  1  0
 17 32  1  1
 18 33  1  0
 18 34  1  0
 18 35  1  0
 19 36  1  0
 19 37  1  0
 21 38  1  0
 22 39  1  0
 24 40  1  0
M  ISO  8  26  14  27  14  28  14  29  14  30  14  31  14  32   8  33   8
M  ISO  7  34   8  35   8  36   8  37   8  38  14  39  14  40  14
M  END
>  <minimizedAffinity>  (1) 
-4.70459557

>  <minimizedRMSD>  (1) 
1.72575533

$$$$
