
     RDKit          3D

 45 48  0  0  1  0  0  0  0  0999 V2000
   38.0060   27.7020   32.3650 N   0  0  0  0  0  0  0  0  0  0  0  0
   38.8500   27.7430   31.3290 N   0  0  0  0  0  0  0  0  0  0  0  0
   38.3700   28.5270   30.3670 C   0  0  0  0  0  0  0  0  0  0  0  0
   37.1700   29.0160   30.7910 C   0  0  0  0  0  0  0  0  0  0  0  0
   36.9430   28.4910   32.0580 C   0  0  0  0  0  0  0  0  0  0  0  0
   37.7170   25.0540   34.8900 C   0  0  0  0  0  0  0  0  0  0  0  0
   37.6900   25.7100   33.6620 C   0  0  0  0  0  0  0  0  0  0  0  0
   38.0360   27.0340   33.6290 C   0  0  0  0  0  0  0  0  0  0  0  0
   38.3900   27.6490   34.8050 N   0  0  0  0  0  0  0  0  0  0  0  0
   38.4070   26.9960   35.9640 C   0  0  0  0  0  0  0  0  0  0  0  0
   38.0680   25.6840   36.0160 N   0  0  0  0  0  0  0  0  0  0  0  0
   37.3040   24.9360   32.5390 N   0  0  0  0  0  0  0  0  0  0  0  0
   36.1060   24.8090   31.8980 C   0  0  0  0  0  0  0  0  0  0  0  0
   36.2700   23.9340   30.8690 N   0  0  0  0  0  0  0  0  0  0  0  0
   37.5570   23.5320   30.8830 C   0  0  0  0  0  0  0  0  0  0  0  0
   38.1750   24.1600   31.9180 N   0  0  0  0  0  0  0  0  0  0  0  0
   35.7220   28.7960   32.8290 C   0  0  2  0  0  0  0  0  0  0  0  0
   34.4600   28.3470   32.1880 C   0  0  0  0  0  0  0  0  0  0  0  0
   35.7180   30.2910   33.1360 C   0  0  0  0  0  0  0  0  0  0  0  0
   34.8230   30.4590   34.2670 N   0  0  0  0  0  0  0  0  0  0  0  0
   33.6520   29.8300   34.4780 C   0  0  0  0  0  0  0  0  0  0  0  0
   32.9110   30.0960   35.6050 C   0  0  0  0  0  0  0  0  0  0  0  0
   31.6230   29.3880   35.8140 C   0  0  0  0  0  0  0  0  0  0  0  0
   33.3310   31.0090   36.5520 C   0  0  0  0  0  0  0  0  0  0  0  0
   32.6930   31.2870   37.5940 O   0  0  0  0  0  0  0  0  0  0  0  0
   34.5050   31.6330   36.3310 N   0  0  0  0  0  0  0  0  0  0  0  0
   35.2140   31.3550   35.2190 C   0  0  0  0  0  0  0  0  0  0  0  0
   36.3120   31.9870   35.0830 O   0  0  0  0  0  0  0  0  0  0  0  0
   38.8543   28.7419   29.4030 H   0  0  0  0  0  0  0  0  0  0  0  0
   36.5075   29.6965   30.2361 H   0  0  0  0  0  0  0  0  0  0  0  0
   37.4424   23.9898   34.9349 H   0  0  0  0  0  0  0  0  0  0  0  0
   38.6975   27.5230   36.8848 H   0  0  0  0  0  0  0  0  0  0  0  0
   35.1716   25.3237   32.1662 H   0  0  0  0  0  0  0  0  0  0  0  0
   38.0230   22.8232   30.1827 H   0  0  0  0  0  0  0  0  0  0  0  0
   35.7532   28.2133   33.7614 H   0  0  0  0  0  0  0  0  0  0  0  0
   33.7266   28.0861   32.9652 H   0  0  0  0  0  0  0  0  0  0  0  0
   34.0582   29.1573   31.5620 H   0  0  0  0  0  0  0  0  0  0  0  0
   34.6603   27.4650   31.5620 H   0  0  0  0  0  0  0  0  0  0  0  0
   36.7313   30.6317   33.3952 H   0  0  0  0  0  0  0  0  0  0  0  0
   35.3900   30.8821   32.2682 H   0  0  0  0  0  0  0  0  0  0  0  0
   33.2852   29.0979   33.7435 H   0  0  0  0  0  0  0  0  0  0  0  0
   31.4328   29.2835   36.8924 H   0  0  0  0  0  0  0  0  0  0  0  0
   30.8083   29.9650   35.3522 H   0  0  0  0  0  0  0  0  0  0  0  0
   31.6735   28.3909   35.3522 H   0  0  0  0  0  0  0  0  0  0  0  0
   34.8597   32.3210   37.0106 H   0  0  0  0  0  0  0  0  0  0  0  0
  1  8  1  0
  2  1  1  0
  3  4  1  0
  3  2  2  0
  4  5  2  0
  5  1  1  0
  5 17  1  0
  6 11  2  0
  7  6  1  0
  8  7  2  0
  8  9  1  0
  9 10  2  0
 10 11  1  0
 12  7  1  0
 13 12  1  0
 14 15  1  0
 14 13  2  0
 15 16  2  0
 16 12  1  0
 17 19  1  0
 18 17  1  0
 19 20  1  0
 20 21  1  0
 20 27  1  0
 21 22  2  0
 22 23  1  0
 22 24  1  0
 24 25  2  0
 26 24  1  0
 27 26  1  0
 28 27  2  0
  3 29  1  0
  4 30  1  0
  6 31  1  0
 10 32  1  0
 13 33  1  0
 15 34  1  0
 17 35  1  1
 18 36  1  0
 18 37  1  0
 18 38  1  0
 19 39  1  0
 19 40  1  0
 21 41  1  0
 23 42  1  0
 23 43  1  0
 23 44  1  0
 26 45  1  0
M  ISO  8  29  14  30  14  31  14  32  14  33  14  34  14  35   8  36   8
M  ISO  8  37   8  38   8  39   8  40   8  41  14  42   8  43   8  44   8
M  ISO  1  45   9
M  END
>  <minimizedAffinity>  (1) 
-5.01403522

>  <minimizedRMSD>  (1) 
3.23353434

$$$$
