
     RDKit          3D

 38 41  0  0  1  0  0  0  0  0999 V2000
   39.2150   24.8300   33.8320 N   0  0  0  0  0  0  0  0  0  0  0  0
   40.4320   24.7390   33.2860 N   0  0  0  0  0  0  0  0  0  0  0  0
   40.4890   25.4460   32.1570 C   0  0  0  0  0  0  0  0  0  0  0  0
   39.2650   26.0150   31.9620 C   0  0  0  0  0  0  0  0  0  0  0  0
   38.4680   25.6180   33.0280 C   0  0  0  0  0  0  0  0  0  0  0  0
   37.4940   22.4930   36.0940 C   0  0  0  0  0  0  0  0  0  0  0  0
   38.0690   23.0370   34.9390 C   0  0  0  0  0  0  0  0  0  0  0  0
   38.6320   24.2850   35.0140 C   0  0  0  0  0  0  0  0  0  0  0  0
   38.6010   24.9340   36.2240 N   0  0  0  0  0  0  0  0  0  0  0  0
   38.0500   24.3990   37.3070 C   0  0  0  0  0  0  0  0  0  0  0  0
   37.4940   23.1730   37.2440 N   0  0  0  0  0  0  0  0  0  0  0  0
   38.0170   22.2340   33.7720 N   0  0  0  0  0  0  0  0  0  0  0  0
   37.0510   22.0980   32.8130 C   0  0  0  0  0  0  0  0  0  0  0  0
   37.4920   21.1940   31.8980 N   0  0  0  0  0  0  0  0  0  0  0  0
   38.7140   20.7830   32.2930 C   0  0  0  0  0  0  0  0  0  0  0  0
   39.0110   21.4370   33.4440 N   0  0  0  0  0  0  0  0  0  0  0  0
   37.0490   26.0460   33.1420 C   0  0  2  0  0  0  0  0  0  0  0  0
   36.2890   25.9930   31.8640 C   0  0  0  0  0  0  0  0  0  0  0  0
   37.0300   27.4260   33.7890 C   0  0  0  0  0  0  0  0  0  0  0  0
   36.5760   28.3880   32.7340 C   0  0  0  0  0  0  0  0  0  0  0  0
   35.3290   29.0160   32.9020 C   0  0  0  0  0  0  0  0  0  0  0  0
   35.1580   30.0920   31.4240 S   0  0  0  0  0  0  0  0  0  0  0  0
   36.8540   29.4900   30.8120 C   0  0  0  0  0  0  0  0  0  0  0  0
   37.1620   28.7760   31.6190 N   0  0  0  0  0  0  0  0  0  0  0  0
   41.3656   25.5514   31.5009 H   0  0  0  0  0  0  0  0  0  0  0  0
   38.9671   26.6622   31.1239 H   0  0  0  0  0  0  0  0  0  0  0  0
   37.0366   21.4934   36.0540 H   0  0  0  0  0  0  0  0  0  0  0  0
   38.0473   24.9563   38.2554 H   0  0  0  0  0  0  0  0  0  0  0  0
   36.0869   22.6270   32.7867 H   0  0  0  0  0  0  0  0  0  0  0  0
   39.3530   20.0515   31.7766 H   0  0  0  0  0  0  0  0  0  0  0  0
   36.5138   25.3240   33.7763 H   0  0  0  0  0  0  0  0  0  0  0  0
   35.2130   25.9180   32.0801 H   0  0  0  0  0  0  0  0  0  0  0  0
   36.4836   26.9069   31.2835 H   0  0  0  0  0  0  0  0  0  0  0  0
   36.6085   25.1150   31.2835 H   0  0  0  0  0  0  0  0  0  0  0  0
   36.3314   27.4371   34.6386 H   0  0  0  0  0  0  0  0  0  0  0  0
   38.0247   27.6980   34.1719 H   0  0  0  0  0  0  0  0  0  0  0  0
   34.6171   28.8909   33.7312 H   0  0  0  0  0  0  0  0  0  0  0  0
   37.3960   29.7713   29.8971 H   0  0  0  0  0  0  0  0  0  0  0  0
  1  8  1  0
  2  1  1  0
  3  2  2  0
  4  3  1  0
  4  5  2  0
  5 17  1  0
  5  1  1  0
  6 11  2  0
  7  8  2  0
  7  6  1  0
  8  9  1  0
  9 10  2  0
 11 10  1  0
 12  7  1  0
 13 12  1  0
 14 15  1  0
 14 13  2  0
 15 16  2  0
 16 12  1  0
 17 19  1  0
 18 17  1  0
 20 21  2  0
 20 19  1  0
 22 21  1  0
 23 22  1  0
 23 24  2  0
 24 20  1  0
  3 25  1  0
  4 26  1  0
  6 27  1  0
 10 28  1  0
 13 29  1  0
 15 30  1  0
 17 31  1  1
 18 32  1  0
 18 33  1  0
 18 34  1  0
 19 35  1  0
 19 36  1  0
 21 37  1  0
 23 38  1  0
M  ISO  8  25  14  26  14  27  14  28  14  29  14  30  14  31   8  32   8
M  ISO  6  33   8  34   8  35   8  36   8  37  14  38  14
M  END
>  <minimizedAffinity>  (1) 
-4.41246653

>  <minimizedRMSD>  (1) 
1.59928942

$$$$
