
     RDKit          3D

 39 42  0  0  1  0  0  0  0  0999 V2000
   39.1780   24.6610   33.6910 N   0  0  0  0  0  0  0  0  0  0  0  0
   40.3820   24.5510   33.1180 N   0  0  0  0  0  0  0  0  0  0  0  0
   40.4200   25.2330   31.9780 C   0  0  0  0  0  0  0  0  0  0  0  0
   39.1970   25.8100   31.7980 C   0  0  0  0  0  0  0  0  0  0  0  0
   38.4190   25.4430   32.8870 C   0  0  0  0  0  0  0  0  0  0  0  0
   37.4550   22.4160   36.0250 C   0  0  0  0  0  0  0  0  0  0  0  0
   38.0010   22.9220   34.8500 C   0  0  0  0  0  0  0  0  0  0  0  0
   38.6170   24.1430   34.9000 C   0  0  0  0  0  0  0  0  0  0  0  0
   38.6670   24.8120   36.0970 N   0  0  0  0  0  0  0  0  0  0  0  0
   38.1320   24.2970   37.2100 C   0  0  0  0  0  0  0  0  0  0  0  0
   37.5190   23.0880   37.1780 N   0  0  0  0  0  0  0  0  0  0  0  0
   37.8710   22.1170   33.6920 N   0  0  0  0  0  0  0  0  0  0  0  0
   36.8530   21.9870   32.7910 C   0  0  0  0  0  0  0  0  0  0  0  0
   37.2370   21.0740   31.8570 N   0  0  0  0  0  0  0  0  0  0  0  0
   38.4750   20.6530   32.1840 C   0  0  0  0  0  0  0  0  0  0  0  0
   38.8430   21.3080   33.3140 N   0  0  0  0  0  0  0  0  0  0  0  0
   37.0100   25.8790   33.0250 C   0  0  2  0  0  0  0  0  0  0  0  0
   36.2210   25.8110   31.7680 C   0  0  0  0  0  0  0  0  0  0  0  0
   37.0130   27.2750   33.6470 C   0  0  0  0  0  0  0  0  0  0  0  0
   36.5870   28.2620   32.6530 N   0  0  0  0  0  0  0  0  0  0  0  0
   37.2020   28.7140   31.5770 N   0  0  0  0  0  0  0  0  0  0  0  0
   36.4420   29.6240   30.9420 C   0  0  0  0  0  0  0  0  0  0  0  0
   35.2490   29.7810   31.6460 C   0  0  0  0  0  0  0  0  0  0  0  0
   35.3890   28.9090   32.7060 C   0  0  0  0  0  0  0  0  0  0  0  0
   41.2829   25.3172   31.3010 H   0  0  0  0  0  0  0  0  0  0  0  0
   38.8876   26.4433   30.9535 H   0  0  0  0  0  0  0  0  0  0  0  0
   36.9568   21.4355   36.0044 H   0  0  0  0  0  0  0  0  0  0  0  0
   38.1897   24.8569   38.1551 H   0  0  0  0  0  0  0  0  0  0  0  0
   35.8935   22.5244   32.8156 H   0  0  0  0  0  0  0  0  0  0  0  0
   39.0769   19.9137   31.6352 H   0  0  0  0  0  0  0  0  0  0  0  0
   36.4877   25.1695   33.6837 H   0  0  0  0  0  0  0  0  0  0  0  0
   35.1520   25.7189   32.0106 H   0  0  0  0  0  0  0  0  0  0  0  0
   36.3863   26.7267   31.1814 H   0  0  0  0  0  0  0  0  0  0  0  0
   36.5405   24.9371   31.1814 H   0  0  0  0  0  0  0  0  0  0  0  0
   36.3209   27.2954   34.5017 H   0  0  0  0  0  0  0  0  0  0  0  0
   38.0302   27.5185   33.9877 H   0  0  0  0  0  0  0  0  0  0  0  0
   36.7164   30.1565   30.0194 H   0  0  0  0  0  0  0  0  0  0  0  0
   34.4005   30.4410   31.4126 H   0  0  0  0  0  0  0  0  0  0  0  0
   34.6332   28.7562   33.4905 H   0  0  0  0  0  0  0  0  0  0  0  0
  1  8  1  0
  2  1  1  0
  3  2  2  0
  4  3  1  0
  4  5  2  0
  5 17  1  0
  5  1  1  0
  6 11  2  0
  7  8  2  0
  7  6  1  0
  8  9  1  0
  9 10  2  0
 11 10  1  0
 12  7  1  0
 13 12  1  0
 14 15  1  0
 14 13  2  0
 15 16  2  0
 16 12  1  0
 17 19  1  0
 18 17  1  0
 20 24  1  0
 20 19  1  0
 21 20  1  0
 22 21  2  0
 22 23  1  0
 23 24  2  0
  3 25  1  0
  4 26  1  0
  6 27  1  0
 10 28  1  0
 13 29  1  0
 15 30  1  0
 17 31  1  1
 18 32  1  0
 18 33  1  0
 18 34  1  0
 19 35  1  0
 19 36  1  0
 22 37  1  0
 23 38  1  0
 24 39  1  0
M  ISO  8  25  14  26  14  27  14  28  14  29  14  30  14  31   8  32   8
M  ISO  7  33   8  34   8  35   8  36   8  37  14  38  14  39  14
M  END
>  <minimizedAffinity>  (1) 
-4.41024971

>  <minimizedRMSD>  (1) 
1.58843327

$$$$
