
     RDKit          3D

 39 42  0  0  1  0  0  0  0  0999 V2000
   39.3540   25.5220   34.8630 N   0  0  0  0  0  0  0  0  0  0  0  0
   40.6510   25.7100   34.5960 N   0  0  0  0  0  0  0  0  0  0  0  0
   40.8010   26.6640   33.6750 C   0  0  0  0  0  0  0  0  0  0  0  0
   39.5590   27.1070   33.3340 C   0  0  0  0  0  0  0  0  0  0  0  0
   38.6460   26.3790   34.0900 C   0  0  0  0  0  0  0  0  0  0  0  0
   37.6310   22.5410   36.1520 C   0  0  0  0  0  0  0  0  0  0  0  0
   38.3130   23.4040   35.2900 C   0  0  0  0  0  0  0  0  0  0  0  0
   38.6600   24.6470   35.7500 C   0  0  0  0  0  0  0  0  0  0  0  0
   38.3240   24.9930   37.0360 N   0  0  0  0  0  0  0  0  0  0  0  0
   37.6720   24.1450   37.8400 C   0  0  0  0  0  0  0  0  0  0  0  0
   37.3200   22.9070   37.4000 N   0  0  0  0  0  0  0  0  0  0  0  0
   38.5900   22.9070   33.9910 N   0  0  0  0  0  0  0  0  0  0  0  0
   37.8490   22.9080   32.8450 C   0  0  0  0  0  0  0  0  0  0  0  0
   38.5740   22.3050   31.8700 N   0  0  0  0  0  0  0  0  0  0  0  0
   39.7610   21.9350   32.4200 C   0  0  0  0  0  0  0  0  0  0  0  0
   39.7380   22.3180   33.7180 N   0  0  0  0  0  0  0  0  0  0  0  0
   37.1820   26.5900   33.9700 C   0  0  2  0  0  0  0  0  0  0  0  0
   36.6440   26.3330   32.6090 C   0  0  0  0  0  0  0  0  0  0  0  0
   36.8740   27.9940   34.4820 C   0  0  0  0  0  0  0  0  0  0  0  0
   36.0620   28.6700   33.4340 C   0  0  0  0  0  0  0  0  0  0  0  0
   36.5460   29.1420   32.2250 C   0  0  0  0  0  0  0  0  0  0  0  0
   35.5230   29.7090   31.5010 C   0  0  0  0  0  0  0  0  0  0  0  0
   34.4260   29.5800   32.2720 N   0  0  0  0  0  0  0  0  0  0  0  0
   34.7520   28.9770   33.3870 N   0  0  0  0  0  0  0  0  0  0  0  0
   41.7552   27.0270   33.2653 H   0  0  0  0  0  0  0  0  0  0  0  0
   39.3227   27.8916   32.6001 H   0  0  0  0  0  0  0  0  0  0  0  0
   37.3442   21.5403   35.7967 H   0  0  0  0  0  0  0  0  0  0  0  0
   37.4185   24.4517   38.8655 H   0  0  0  0  0  0  0  0  0  0  0  0
   36.8378   23.3259   32.7315 H   0  0  0  0  0  0  0  0  0  0  0  0
   40.5862   21.4204   31.9060 H   0  0  0  0  0  0  0  0  0  0  0  0
   36.6604   25.8432   34.5866 H   0  0  0  0  0  0  0  0  0  0  0  0
   35.6541   25.8601   32.6893 H   0  0  0  0  0  0  0  0  0  0  0  0
   36.5527   27.2847   32.0651 H   0  0  0  0  0  0  0  0  0  0  0  0
   37.3270   25.6639   32.0651 H   0  0  0  0  0  0  0  0  0  0  0  0
   36.3059   27.9372   35.4222 H   0  0  0  0  0  0  0  0  0  0  0  0
   37.8010   28.5516   34.6814 H   0  0  0  0  0  0  0  0  0  0  0  0
   37.5926   29.0736   31.8933 H   0  0  0  0  0  0  0  0  0  0  0  0
   35.5871   30.1698   30.5042 H   0  0  0  0  0  0  0  0  0  0  0  0
   33.4805   29.9044   32.0235 H   0  0  0  0  0  0  0  0  0  0  0  0
  1  8  1  0
  2  1  1  0
  3  2  2  0
  4  3  1  0
  4  5  2  0
  5  1  1  0
  6 11  2  0
  7  8  2  0
  7  6  1  0
  8  9  1  0
  9 10  2  0
 11 10  1  0
 12  7  1  0
 13 12  1  0
 14 15  1  0
 14 13  2  0
 15 16  2  0
 16 12  1  0
 17  5  1  0
 17 19  1  0
 18 17  1  0
 20 19  1  0
 21 20  1  0
 22 21  2  0
 22 23  1  0
 23 24  1  0
 24 20  2  0
  3 25  1  0
  4 26  1  0
  6 27  1  0
 10 28  1  0
 13 29  1  0
 15 30  1  0
 17 31  1  1
 18 32  1  0
 18 33  1  0
 18 34  1  0
 19 35  1  0
 19 36  1  0
 21 37  1  0
 22 38  1  0
 23 39  1  0
M  ISO  8  25  14  26  14  27  14  28  14  29  14  30  14  31   8  32   8
M  ISO  7  33   8  34   8  35   8  36   8  37  14  38  14  39   9
M  END
>  <minimizedAffinity>  (1) 
-4.50241232

>  <minimizedRMSD>  (1) 
1.33851886

$$$$
