
     RDKit          3D

 45 48  0  0  1  0  0  0  0  0999 V2000
   39.3460   24.6350   33.6000 N   0  0  0  0  0  0  0  0  0  0  0  0
   40.5640   24.4470   33.0800 N   0  0  0  0  0  0  0  0  0  0  0  0
   40.6750   25.0730   31.9020 C   0  0  0  0  0  0  0  0  0  0  0  0
   39.4870   25.6870   31.6550 C   0  0  0  0  0  0  0  0  0  0  0  0
   38.6610   25.4100   32.7180 C   0  0  0  0  0  0  0  0  0  0  0  0
   37.5370   22.5180   35.9950 C   0  0  0  0  0  0  0  0  0  0  0  0
   38.1570   22.9550   34.8180 C   0  0  0  0  0  0  0  0  0  0  0  0
   38.7190   24.2030   34.8050 C   0  0  0  0  0  0  0  0  0  0  0  0
   38.6540   24.9740   35.9390 N   0  0  0  0  0  0  0  0  0  0  0  0
   38.0610   24.5380   37.0400 C   0  0  0  0  0  0  0  0  0  0  0  0
   37.4920   23.2990   37.0830 N   0  0  0  0  0  0  0  0  0  0  0  0
   38.1420   22.0530   33.7370 N   0  0  0  0  0  0  0  0  0  0  0  0
   37.1410   21.7090   32.8600 C   0  0  0  0  0  0  0  0  0  0  0  0
   37.6410   20.7840   31.9910 N   0  0  0  0  0  0  0  0  0  0  0  0
   38.9350   20.5680   32.3370 C   0  0  0  0  0  0  0  0  0  0  0  0
   39.2110   21.3560   33.4060 N   0  0  0  0  0  0  0  0  0  0  0  0
   37.2570   25.9160   32.7830 C   0  0  2  0  0  0  0  0  0  0  0  0
   36.3030   25.1480   31.9360 C   0  0  0  0  0  0  0  0  0  0  0  0
   37.2840   27.4040   32.4700 C   0  0  0  0  0  0  0  0  0  0  0  0
   36.2560   28.1750   33.0130 N   0  0  0  0  0  0  0  0  0  0  0  0
   35.2620   28.7380   32.1920 C   0  0  0  0  0  0  0  0  0  0  0  0
   35.1510   30.2500   32.3120 C   0  0  0  0  0  0  0  0  0  0  0  0
   35.6150   30.6570   33.5550 O   0  0  0  0  0  0  0  0  0  0  0  0
   35.3670   29.7410   34.5570 C   0  0  0  0  0  0  0  0  0  0  0  0
   36.2240   28.4770   34.3820 C   0  0  0  0  0  0  0  0  0  0  0  0
   41.5633   25.0880   31.2534 H   0  0  0  0  0  0  0  0  0  0  0  0
   39.2347   26.2913   30.7712 H   0  0  0  0  0  0  0  0  0  0  0  0
   37.0798   21.5180   36.0270 H   0  0  0  0  0  0  0  0  0  0  0  0
   38.0269   25.1828   37.9306 H   0  0  0  0  0  0  0  0  0  0  0  0
   36.1165   22.1094   32.8591 H   0  0  0  0  0  0  0  0  0  0  0  0
   39.6338   19.8787   31.8405 H   0  0  0  0  0  0  0  0  0  0  0  0
   36.8635   25.7621   33.7986 H   0  0  0  0  0  0  0  0  0  0  0  0
   35.6086   24.5890   32.5804 H   0  0  0  0  0  0  0  0  0  0  0  0
   35.7346   25.8435   31.3009 H   0  0  0  0  0  0  0  0  0  0  0  0
   36.8611   24.4442   31.3009 H   0  0  0  0  0  0  0  0  0  0  0  0
   38.2367   27.8066   32.8445 H   0  0  0  0  0  0  0  0  0  0  0  0
   37.1541   27.4736   31.3799 H   0  0  0  0  0  0  0  0  0  0  0  0
   34.2931   28.2961   32.4677 H   0  0  0  0  0  0  0  0  0  0  0  0
   35.5437   28.5189   31.1515 H   0  0  0  0  0  0  0  0  0  0  0  0
   35.7539   30.7244   31.5236 H   0  0  0  0  0  0  0  0  0  0  0  0
   34.0977   30.5473   32.2017 H   0  0  0  0  0  0  0  0  0  0  0  0
   35.6005   30.2007   35.5287 H   0  0  0  0  0  0  0  0  0  0  0  0
   34.3069   29.4515   34.5085 H   0  0  0  0  0  0  0  0  0  0  0  0
   35.7782   27.6408   34.9406 H   0  0  0  0  0  0  0  0  0  0  0  0
   37.2414   28.6428   34.7658 H   0  0  0  0  0  0  0  0  0  0  0  0
  1  8  1  0
  2  1  1  0
  3  2  2  0
  4  3  1  0
  4  5  2  0
  5 17  1  0
  5  1  1  0
  6 11  2  0
  7  6  1  0
  8  7  2  0
  8  9  1  0
  9 10  2  0
 10 11  1  0
 12  7  1  0
 13 12  1  0
 14 15  1  0
 14 13  2  0
 15 16  2  0
 16 12  1  0
 18 17  1  0
 19 17  1  0
 19 20  1  0
 20 25  1  0
 21 22  1  0
 21 20  1  0
 22 23  1  0
 23 24  1  0
 25 24  1  0
  3 26  1  0
  4 27  1  0
  6 28  1  0
 10 29  1  0
 13 30  1  0
 15 31  1  0
 17 32  1  1
 18 33  1  0
 18 34  1  0
 18 35  1  0
 19 36  1  0
 19 37  1  0
 21 38  1  0
 21 39  1  0
 22 40  1  0
 22 41  1  0
 24 42  1  0
 24 43  1  0
 25 44  1  0
 25 45  1  0
M  ISO  8  26  14  27  14  28  14  29  14  30  14  31  14  32   8  33   8
M  ISO  8  34   8  35   8  36   8  37   8  38  13  39  13  40  13  41  13
M  ISO  4  42  13  43  13  44  13  45  13
M  END
>  <minimizedAffinity>  (1) 
-4.48496866

>  <minimizedRMSD>  (1) 
1.00953257

$$$$
