
     RDKit          3D

 33 35  0  0  1  0  0  0  0  0999 V2000
   39.2700   25.0290   34.2520 N   0  0  0  0  0  0  0  0  0  0  0  0
   40.5190   25.0310   33.7960 N   0  0  0  0  0  0  0  0  0  0  0  0
   40.6410   25.8450   32.7490 C   0  0  0  0  0  0  0  0  0  0  0  0
   39.4130   26.3960   32.5160 C   0  0  0  0  0  0  0  0  0  0  0  0
   38.5510   25.8710   33.4730 C   0  0  0  0  0  0  0  0  0  0  0  0
   37.4760   22.4290   36.1440 C   0  0  0  0  0  0  0  0  0  0  0  0
   38.1190   23.0990   35.0920 C   0  0  0  0  0  0  0  0  0  0  0  0
   38.6170   24.3530   35.3290 C   0  0  0  0  0  0  0  0  0  0  0  0
   38.4650   24.8960   36.5780 N   0  0  0  0  0  0  0  0  0  0  0  0
   37.8540   24.2450   37.5620 C   0  0  0  0  0  0  0  0  0  0  0  0
   37.3500   22.9940   37.3480 N   0  0  0  0  0  0  0  0  0  0  0  0
   38.1970   22.4090   33.8640 N   0  0  0  0  0  0  0  0  0  0  0  0
   37.3620   22.3860   32.7800 C   0  0  0  0  0  0  0  0  0  0  0  0
   37.8990   21.5520   31.8490 N   0  0  0  0  0  0  0  0  0  0  0  0
   39.0590   21.0660   32.3620 C   0  0  0  0  0  0  0  0  0  0  0  0
   39.2070   21.6100   33.5880 N   0  0  0  0  0  0  0  0  0  0  0  0
   37.1120   26.2440   33.5150 C   0  0  2  0  0  0  0  0  0  0  0  0
   36.4720   26.3210   32.1770 C   0  0  0  0  0  0  0  0  0  0  0  0
   36.9940   27.5400   34.3110 C   0  0  0  0  0  0  0  0  0  0  0  0
   35.9560   28.7610   33.4660 S   0  0  0  0  0  0  0  0  0  0  0  0
   41.5608   26.0380   32.1774 H   0  0  0  0  0  0  0  0  0  0  0  0
   39.1557   27.1155   31.7248 H   0  0  0  0  0  0  0  0  0  0  0  0
   37.0687   21.4213   35.9744 H   0  0  0  0  0  0  0  0  0  0  0  0
   37.7539   24.7149   38.5515 H   0  0  0  0  0  0  0  0  0  0  0  0
   36.4200   22.9449   32.6790 H   0  0  0  0  0  0  0  0  0  0  0  0
   39.7473   20.3623   31.8711 H   0  0  0  0  0  0  0  0  0  0  0  0
   36.5471   25.4440   34.0159 H   0  0  0  0  0  0  0  0  0  0  0  0
   35.3864   26.4516   32.2968 H   0  0  0  0  0  0  0  0  0  0  0  0
   36.8851   27.1759   31.6216 H   0  0  0  0  0  0  0  0  0  0  0  0
   36.6705   25.3925   31.6216 H   0  0  0  0  0  0  0  0  0  0  0  0
   36.5510   27.3152   35.2925 H   0  0  0  0  0  0  0  0  0  0  0  0
   38.0022   27.9664   34.4187 H   0  0  0  0  0  0  0  0  0  0  0  0
   35.3042   29.5278   34.3956 H   0  0  0  0  0  0  0  0  0  0  0  0
  1  8  1  0
  2  1  1  0
  3  2  2  0
  4  3  1  0
  4  5  2  0
  5 17  1  0
  5  1  1  0
  6 11  2  0
  7  8  2  0
  7  6  1  0
  8  9  1  0
  9 10  2  0
 11 10  1  0
 12  7  1  0
 13 12  1  0
 14 15  1  0
 14 13  2  0
 15 16  2  0
 16 12  1  0
 17 19  1  0
 18 17  1  0
 20 19  1  0
  3 21  1  0
  4 22  1  0
  6 23  1  0
 10 24  1  0
 13 25  1  0
 15 26  1  0
 17 27  1  1
 18 28  1  0
 18 29  1  0
 18 30  1  0
 19 31  1  0
 19 32  1  0
 20 33  1  0
M  ISO  8  21  14  22  14  23  14  24  14  25  14  26  14  27   8  28   8
M  ISO  5  29   8  30   8  31   8  32   8  33  11
M  END
>  <minimizedAffinity>  (1) 
-3.80537176

>  <minimizedRMSD>  (1) 
0.277284861

$$$$
