
     RDKit          3D

 33 35  0  0  1  0  0  0  0  0999 V2000
   39.2820   25.0550   34.3840 N   0  0  0  0  0  0  0  0  0  0  0  0
   40.5130   25.0050   33.8810 N   0  0  0  0  0  0  0  0  0  0  0  0
   40.6480   25.8850   32.8850 C   0  0  0  0  0  0  0  0  0  0  0  0
   39.4580   26.5300   32.7400 C   0  0  0  0  0  0  0  0  0  0  0  0
   38.5860   26.0070   33.6890 C   0  0  0  0  0  0  0  0  0  0  0  0
   37.4280   22.4370   36.1700 C   0  0  0  0  0  0  0  0  0  0  0  0
   38.0800   23.1260   35.1550 C   0  0  0  0  0  0  0  0  0  0  0  0
   38.6160   24.3560   35.4330 C   0  0  0  0  0  0  0  0  0  0  0  0
   38.4780   24.8420   36.7100 N   0  0  0  0  0  0  0  0  0  0  0  0
   37.8480   24.1620   37.6670 C   0  0  0  0  0  0  0  0  0  0  0  0
   37.3160   22.9440   37.3980 N   0  0  0  0  0  0  0  0  0  0  0  0
   38.1400   22.4810   33.8850 N   0  0  0  0  0  0  0  0  0  0  0  0
   37.3270   22.5590   32.7960 C   0  0  0  0  0  0  0  0  0  0  0  0
   37.8340   21.7370   31.8370 N   0  0  0  0  0  0  0  0  0  0  0  0
   38.9550   21.1590   32.3430 C   0  0  0  0  0  0  0  0  0  0  0  0
   39.1200   21.6350   33.6040 N   0  0  0  0  0  0  0  0  0  0  0  0
   37.1840   26.4690   33.8130 C   0  0  2  0  0  0  0  0  0  0  0  0
   36.5300   26.7650   32.5100 C   0  0  0  0  0  0  0  0  0  0  0  0
   37.1790   27.6540   34.7770 C   0  0  0  0  0  0  0  0  0  0  0  0
   36.1010   28.4610   34.3970 O   0  0  0  0  0  0  0  0  0  0  0  0
   41.5567   26.0573   32.2895 H   0  0  0  0  0  0  0  0  0  0  0  0
   39.2286   27.3185   32.0081 H   0  0  0  0  0  0  0  0  0  0  0  0
   36.9937   21.4494   35.9553 H   0  0  0  0  0  0  0  0  0  0  0  0
   37.7593   24.5892   38.6768 H   0  0  0  0  0  0  0  0  0  0  0  0
   36.4212   23.1767   32.7069 H   0  0  0  0  0  0  0  0  0  0  0  0
   39.6075   20.4393   31.8270 H   0  0  0  0  0  0  0  0  0  0  0  0
   36.5650   25.6542   34.2168 H   0  0  0  0  0  0  0  0  0  0  0  0
   35.5413   27.2125   32.6893 H   0  0  0  0  0  0  0  0  0  0  0  0
   37.1529   27.4689   31.9386 H   0  0  0  0  0  0  0  0  0  0  0  0
   36.4122   25.8324   31.9386 H   0  0  0  0  0  0  0  0  0  0  0  0
   37.0472   27.3037   35.8114 H   0  0  0  0  0  0  0  0  0  0  0  0
   38.1285   28.2079   34.7366 H   0  0  0  0  0  0  0  0  0  0  0  0
   35.6438   28.8032   35.2057 H   0  0  0  0  0  0  0  0  0  0  0  0
  1  8  1  0
  2  1  1  0
  3  2  2  0
  4  3  1  0
  4  5  2  0
  5 17  1  0
  5  1  1  0
  6 11  2  0
  7  8  2  0
  7  6  1  0
  8  9  1  0
  9 10  2  0
 11 10  1  0
 12  7  1  0
 13 12  1  0
 14 15  1  0
 14 13  2  0
 15 16  2  0
 16 12  1  0
 17 19  1  0
 18 17  1  0
 20 19  1  0
  3 21  1  0
  4 22  1  0
  6 23  1  0
 10 24  1  0
 13 25  1  0
 15 26  1  0
 17 27  1  1
 18 28  1  0
 18 29  1  0
 18 30  1  0
 19 31  1  0
 19 32  1  0
 20 33  1  0
M  ISO  8  21  14  22  14  23  14  24  14  25  14  26  14  27   8  28   8
M  ISO  5  29   8  30   8  31   8  32   8  33   3
M  END
>  <minimizedAffinity>  (1) 
-3.85054731

>  <minimizedRMSD>  (1) 
0.342852473

$$$$
