
     RDKit          3D

 32 34  0  0  0  0  0  0  0  0999 V2000
   43.6540   19.7260   37.0970 C   0  0  0  0  0  0  0  0  0  0  0  0
   42.4760   20.4550   37.2930 C   0  0  0  0  0  0  0  0  0  0  0  0
   41.9720   21.2260   36.2390 C   0  0  0  0  0  0  0  0  0  0  0  0
   42.6850   21.2090   35.0650 N   0  0  0  0  0  0  0  0  0  0  0  0
   43.8040   20.5020   34.9160 C   0  0  0  0  0  0  0  0  0  0  0  0
   44.2950   19.7550   35.9350 N   0  0  0  0  0  0  0  0  0  0  0  0
   44.4780   20.5440   33.6630 N   0  0  0  0  0  0  0  0  0  0  0  0
   44.9530   21.8260   33.1780 C   0  0  0  0  0  0  0  0  0  0  0  0
   46.2730   21.5540   32.4950 C   0  0  0  0  0  0  0  0  0  0  0  0
   46.1330   20.6660   31.3840 N   0  0  0  0  0  0  0  0  0  0  0  0
   44.9770   19.8160   31.4180 C   0  0  0  0  0  0  0  0  0  0  0  0
   44.7110   19.3640   32.8530 C   0  0  0  0  0  0  0  0  0  0  0  0
   40.7530   22.0000   36.3920 C   0  0  0  0  0  0  0  0  0  0  0  0
   39.8230   22.4740   35.5160 N   0  0  0  0  0  0  0  0  0  0  0  0
   38.9090   23.1200   36.1790 O   0  0  0  0  0  0  0  0  0  0  0  0
   39.1920   23.0970   37.4690 C   0  0  0  0  0  0  0  0  0  0  0  0
   40.3310   22.4060   37.6020 N   0  0  0  0  0  0  0  0  0  0  0  0
   38.4200   23.7060   38.5660 C   0  0  0  0  0  0  0  0  0  0  0  0
   39.2510   23.8720   39.6750 F   0  0  0  0  0  0  0  0  0  0  0  0
   37.3690   22.8890   38.9700 F   0  0  0  0  0  0  0  0  0  0  0  0
   37.9500   24.9390   38.2000 F   0  0  0  0  0  0  0  0  0  0  0  0
   44.0562   19.1179   37.9207 H   0  0  0  0  0  0  0  0  0  0  0  0
   41.9539   20.4228   38.2606 H   0  0  0  0  0  0  0  0  0  0  0  0
   44.2345   22.2535   32.4632 H   0  0  0  0  0  0  0  0  0  0  0  0
   45.0675   22.5485   33.9995 H   0  0  0  0  0  0  0  0  0  0  0  0
   46.6894   22.5070   32.1366 H   0  0  0  0  0  0  0  0  0  0  0  0
   46.9401   21.0760   33.2275 H   0  0  0  0  0  0  0  0  0  0  0  0
   46.9687   20.0649   31.3502 H   0  0  0  0  0  0  0  0  0  0  0  0
   44.1046   20.3704   31.0418 H   0  0  0  0  0  0  0  0  0  0  0  0
   45.1554   18.9337   30.7857 H   0  0  0  0  0  0  0  0  0  0  0  0
   43.8250   18.7126   32.8802 H   0  0  0  0  0  0  0  0  0  0  0  0
   45.5729   18.8009   33.2403 H   0  0  0  0  0  0  0  0  0  0  0  0
  1  2  2  0
  3 13  1  0
  3  2  1  0
  4  3  2  0
  5  4  1  0
  5  6  2  0
  6  1  1  0
  7  5  1  0
  8  7  1  0
  9  8  1  0
 10 11  1  0
 10  9  1  0
 11 12  1  0
 12  7  1  0
 13 17  1  0
 14 15  1  0
 14 13  2  0
 15 16  1  0
 16 17  2  0
 16 18  1  0
 18 20  1  0
 18 19  1  0
 21 18  1  0
  1 22  1  0
  2 23  1  0
  8 24  1  0
  8 25  1  0
  9 26  1  0
  9 27  1  0
 10 28  1  0
 11 29  1  0
 11 30  1  0
 12 31  1  0
 12 32  1  0
M  ISO  8  22  14  23  14  24  13  25  13  26  13  27  13  28   5  29  13
M  ISO  3  30  13  31  13  32  13
M  END
>  <minimizedAffinity>  (1) 
-4.32065105

>  <minimizedRMSD>  (1) 
0.215608567

$$$$
