
     RDKit          3D

 25 26  0  0  0  0  0  0  0  0999 V2000
   43.6620   19.7290   37.0890 C   0  0  0  0  0  0  0  0  0  0  0  0
   42.4750   20.4490   37.2820 C   0  0  0  0  0  0  0  0  0  0  0  0
   41.9860   21.2330   36.2490 C   0  0  0  0  0  0  0  0  0  0  0  0
   42.7090   21.2550   35.0810 N   0  0  0  0  0  0  0  0  0  0  0  0
   43.8350   20.5640   34.9160 C   0  0  0  0  0  0  0  0  0  0  0  0
   44.3140   19.7960   35.9270 N   0  0  0  0  0  0  0  0  0  0  0  0
   44.5450   20.6210   33.6830 N   0  0  0  0  0  0  0  0  0  0  0  0
   45.0340   21.8680   33.2150 C   0  0  0  0  0  0  0  0  0  0  0  0
   44.3630   22.9150   33.6070 N   0  0  0  0  0  0  0  0  0  0  0  0
   46.1920   21.8800   32.3730 N   0  0  0  0  0  0  0  0  0  0  0  0
   44.7190   23.8350   33.2660 H   0  0  0  0  0  0  0  0  0  0  0  0
   40.7580   22.0030   36.3950 C   0  0  0  0  0  0  0  0  0  0  0  0
   39.8170   22.4660   35.5280 N   0  0  0  0  0  0  0  0  0  0  0  0
   38.9040   23.1090   36.1870 O   0  0  0  0  0  0  0  0  0  0  0  0
   39.1940   23.0960   37.4770 C   0  0  0  0  0  0  0  0  0  0  0  0
   40.3410   22.4110   37.6070 N   0  0  0  0  0  0  0  0  0  0  0  0
   38.4250   23.7050   38.5670 C   0  0  0  0  0  0  0  0  0  0  0  0
   39.2500   23.8700   39.6730 F   0  0  0  0  0  0  0  0  0  0  0  0
   37.3780   22.8880   38.9780 F   0  0  0  0  0  0  0  0  0  0  0  0
   37.9510   24.9380   38.1990 F   0  0  0  0  0  0  0  0  0  0  0  0
   44.0592   19.1037   37.9022 H   0  0  0  0  0  0  0  0  0  0  0  0
   41.9386   20.3925   38.2407 H   0  0  0  0  0  0  0  0  0  0  0  0
   44.7024   19.7633   33.1349 H   0  0  0  0  0  0  0  0  0  0  0  0
   46.6531   20.9947   32.1187 H   0  0  0  0  0  0  0  0  0  0  0  0
   46.5640   22.7739   32.0216 H   0  0  0  0  0  0  0  0  0  0  0  0
  1  2  2  0
  3 12  1  0
  3  2  1  0
  4  3  2  0
  5  4  1  0
  5  6  2  0
  6  1  1  0
  7  5  1  0
  8  9  2  0
  8  7  1  0
 10  8  1  0
 11  9  1  0
 12 16  1  0
 13 14  1  0
 13 12  2  0
 14 15  1  0
 15 16  2  0
 15 17  1  0
 17 19  1  0
 17 18  1  0
 20 17  1  0
  1 21  1  0
  2 22  1  0
  7 23  1  0
 10 24  1  0
 10 25  1  0
M  ISO  2  21  14  22  14
M  END
>  <minimizedAffinity>  (1) 
-4.31969595

>  <minimizedRMSD>  (1) 
0.18940258

$$$$
