
     RDKit          3D

 21 22  0  0  0  0  0  0  0  0999 V2000
   43.6180   19.7360   37.0670 C   0  0  0  0  0  0  0  0  0  0  0  0
   42.4780   20.5180   37.2890 C   0  0  0  0  0  0  0  0  0  0  0  0
   41.9440   21.2280   36.2070 C   0  0  0  0  0  0  0  0  0  0  0  0
   42.5850   21.1050   34.9970 N   0  0  0  0  0  0  0  0  0  0  0  0
   43.6730   20.3520   34.8120 C   0  0  0  0  0  0  0  0  0  0  0  0
   44.1930   19.6600   35.8700 N   0  0  0  0  0  0  0  0  0  0  0  0
   40.7610   22.0590   36.3640 C   0  0  0  0  0  0  0  0  0  0  0  0
   39.9080   22.6580   35.4960 N   0  0  0  0  0  0  0  0  0  0  0  0
   38.9990   23.2970   36.1710 O   0  0  0  0  0  0  0  0  0  0  0  0
   39.2140   23.1470   37.4640 C   0  0  0  0  0  0  0  0  0  0  0  0
   40.3040   22.3810   37.5890 N   0  0  0  0  0  0  0  0  0  0  0  0
   38.4150   23.7090   38.5740 C   0  0  0  0  0  0  0  0  0  0  0  0
   39.2450   23.8760   39.6810 F   0  0  0  0  0  0  0  0  0  0  0  0
   37.3890   22.8640   38.9410 F   0  0  0  0  0  0  0  0  0  0  0  0
   37.9330   24.9540   38.2300 F   0  0  0  0  0  0  0  0  0  0  0  0
   44.3210   20.2600   33.4840 C   0  0  0  0  0  0  0  0  0  0  0  0
   44.0497   19.1692   37.9051 H   0  0  0  0  0  0  0  0  0  0  0  0
   42.0151   20.5729   38.2853 H   0  0  0  0  0  0  0  0  0  0  0  0
   45.4025   20.1065   33.6136 H   0  0  0  0  0  0  0  0  0  0  0  0
   43.8947   19.4134   32.9259 H   0  0  0  0  0  0  0  0  0  0  0  0
   44.1472   21.1918   32.9259 H   0  0  0  0  0  0  0  0  0  0  0  0
  1  2  2  0
  3  7  1  0
  3  2  1  0
  4  3  2  0
  5  4  1  0
  5  6  2  0
  6  1  1  0
  7 11  1  0
  8  9  1  0
  8  7  2  0
  9 10  1  0
 10 11  2  0
 10 12  1  0
 12 14  1  0
 12 13  1  0
 15 12  1  0
 16  5  1  0
  1 17  1  0
  2 18  1  0
 16 19  1  0
 16 20  1  0
 16 21  1  0
M  ISO  5  17  14  18  14  19   8  20   8  21   8
M  END
>  <minimizedAffinity>  (1) 
-4.22041178

>  <minimizedRMSD>  (1) 
0.0444914773

$$$$
