
     RDKit          3D

 31 33  0  0  0  0  0  0  0  0999 V2000
   43.6290   19.7130   37.0850 C   0  0  0  0  0  0  0  0  0  0  0  0
   42.4690   20.4660   37.3020 C   0  0  0  0  0  0  0  0  0  0  0  0
   41.9870   21.2350   36.2580 C   0  0  0  0  0  0  0  0  0  0  0  0
   42.6780   21.2120   35.0660 N   0  0  0  0  0  0  0  0  0  0  0  0
   43.7900   20.4770   34.8910 C   0  0  0  0  0  0  0  0  0  0  0  0
   44.2690   19.7200   35.9110 N   0  0  0  0  0  0  0  0  0  0  0  0
   40.7810   22.0570   36.3890 C   0  0  0  0  0  0  0  0  0  0  0  0
   39.9210   22.6360   35.5060 N   0  0  0  0  0  0  0  0  0  0  0  0
   39.0090   23.2690   36.1680 O   0  0  0  0  0  0  0  0  0  0  0  0
   39.2170   23.1410   37.4750 C   0  0  0  0  0  0  0  0  0  0  0  0
   40.3120   22.3910   37.6030 N   0  0  0  0  0  0  0  0  0  0  0  0
   38.4240   23.6970   38.5690 C   0  0  0  0  0  0  0  0  0  0  0  0
   39.2460   23.8780   39.6810 F   0  0  0  0  0  0  0  0  0  0  0  0
   37.3890   22.8680   38.9410 F   0  0  0  0  0  0  0  0  0  0  0  0
   37.9350   24.9410   38.2270 F   0  0  0  0  0  0  0  0  0  0  0  0
   44.4770   20.4980   33.6020 C   0  0  0  0  0  0  0  0  0  0  0  0
   45.8160   19.7500   33.6300 C   0  0  0  0  0  0  0  0  0  0  0  0
   46.1950   19.9840   32.1610 C   0  0  0  0  0  0  0  0  0  0  0  0
   45.8730   21.4490   31.9800 C   0  0  0  0  0  0  0  0  0  0  0  0
   44.9310   21.8380   33.1250 C   0  0  0  0  0  0  0  0  0  0  0  0
   44.0261   19.0968   37.9052 H   0  0  0  0  0  0  0  0  0  0  0  0
   41.9556   20.4468   38.2746 H   0  0  0  0  0  0  0  0  0  0  0  0
   43.6972   20.0615   32.9606 H   0  0  0  0  0  0  0  0  0  0  0  0
   46.5361   20.2031   34.3272 H   0  0  0  0  0  0  0  0  0  0  0  0
   45.7875   18.7041   33.9694 H   0  0  0  0  0  0  0  0  0  0  0  0
   47.2630   19.7857   31.9878 H   0  0  0  0  0  0  0  0  0  0  0  0
   45.6660   19.3246   31.4572 H   0  0  0  0  0  0  0  0  0  0  0  0
   46.7943   22.0482   32.0269 H   0  0  0  0  0  0  0  0  0  0  0  0
   45.4041   21.6330   31.0021 H   0  0  0  0  0  0  0  0  0  0  0  0
   45.4639   22.3870   33.9154 H   0  0  0  0  0  0  0  0  0  0  0  0
   44.1127   22.5094   32.8254 H   0  0  0  0  0  0  0  0  0  0  0  0
  1  2  2  0
  3  7  1  0
  3  2  1  0
  4  3  2  0
  5  4  1  0
  5  6  2  0
  6  1  1  0
  7 11  1  0
  8  9  1  0
  8  7  2  0
  9 10  1  0
 10 11  2  0
 10 12  1  0
 12 14  1  0
 12 13  1  0
 15 12  1  0
 16 17  1  0
 16  5  1  0
 18 17  1  0
 19 18  1  0
 19 20  1  0
 20 16  1  0
  1 21  1  0
  2 22  1  0
 16 23  1  0
 17 24  1  0
 17 25  1  0
 18 26  1  0
 18 27  1  0
 19 28  1  0
 19 29  1  0
 20 30  1  0
 20 31  1  0
M  ISO  8  21  14  22  14  23  13  24  13  25  13  26  13  27  13  28  13
M  ISO  3  29  13  30  13  31  13
M  END
>  <minimizedAffinity>  (1) 
-4.10196352

>  <minimizedRMSD>  (1) 
0.169157073

$$$$
