
     RDKit          3D

 30 31  0  0  0  0  0  0  0  0999 V2000
   43.6370   19.7020   37.0920 C   0  0  0  0  0  0  0  0  0  0  0  0
   42.4830   20.4680   37.2950 C   0  0  0  0  0  0  0  0  0  0  0  0
   42.0050   21.2320   36.2400 C   0  0  0  0  0  0  0  0  0  0  0  0
   42.6990   21.1880   35.0510 N   0  0  0  0  0  0  0  0  0  0  0  0
   43.7970   20.4410   34.8970 C   0  0  0  0  0  0  0  0  0  0  0  0
   44.2710   19.6920   35.9260 N   0  0  0  0  0  0  0  0  0  0  0  0
   40.8100   22.0510   36.3870 C   0  0  0  0  0  0  0  0  0  0  0  0
   39.9420   22.6420   35.5030 N   0  0  0  0  0  0  0  0  0  0  0  0
   39.0240   23.2730   36.1560 O   0  0  0  0  0  0  0  0  0  0  0  0
   39.2320   23.1370   37.4650 C   0  0  0  0  0  0  0  0  0  0  0  0
   40.3340   22.3830   37.6030 N   0  0  0  0  0  0  0  0  0  0  0  0
   38.4280   23.6930   38.5570 C   0  0  0  0  0  0  0  0  0  0  0  0
   39.2490   23.8720   39.6670 F   0  0  0  0  0  0  0  0  0  0  0  0
   37.3920   22.8570   38.9200 F   0  0  0  0  0  0  0  0  0  0  0  0
   37.9540   24.9410   38.2080 F   0  0  0  0  0  0  0  0  0  0  0  0
   44.4700   20.4720   33.5590 C   0  0  0  0  0  0  0  0  0  0  0  0
   44.1900   21.8100   32.9420 C   0  0  0  0  0  0  0  0  0  0  0  0
   45.9730   20.4040   33.7860 C   0  0  0  0  0  0  0  0  0  0  0  0
   44.0360   19.3220   32.7010 C   0  0  0  0  0  0  0  0  0  0  0  0
   44.0284   19.0928   37.9201 H   0  0  0  0  0  0  0  0  0  0  0  0
   41.9679   20.4643   38.2669 H   0  0  0  0  0  0  0  0  0  0  0  0
   44.0342   22.5547   33.7364 H   0  0  0  0  0  0  0  0  0  0  0  0
   45.0443   22.1123   32.3185 H   0  0  0  0  0  0  0  0  0  0  0  0
   43.2861   21.7443   32.3185 H   0  0  0  0  0  0  0  0  0  0  0  0
   46.1806   20.3946   34.8662 H   0  0  0  0  0  0  0  0  0  0  0  0
   46.3719   19.4869   33.3280 H   0  0  0  0  0  0  0  0  0  0  0  0
   46.4531   21.2813   33.3280 H   0  0  0  0  0  0  0  0  0  0  0  0
   43.7202   18.4853   33.3415 H   0  0  0  0  0  0  0  0  0  0  0  0
   43.1943   19.6355   32.0659 H   0  0  0  0  0  0  0  0  0  0  0  0
   44.8749   19.0013   32.0659 H   0  0  0  0  0  0  0  0  0  0  0  0
  1  2  2  0
  3  7  1  0
  3  2  1  0
  4  3  2  0
  5  4  1  0
  5  6  2  0
  6  1  1  0
  7 11  1  0
  8  9  1  0
  8  7  2  0
  9 10  1  0
 10 11  2  0
 10 12  1  0
 12 14  1  0
 12 13  1  0
 15 12  1  0
 16 18  1  0
 16  5  1  0
 17 16  1  0
 19 16  1  0
  1 20  1  0
  2 21  1  0
 17 22  1  0
 17 23  1  0
 17 24  1  0
 18 25  1  0
 18 26  1  0
 18 27  1  0
 19 28  1  0
 19 29  1  0
 19 30  1  0
M  ISO  8  20  14  21  14  22   8  23   8  24   8  25   8  26   8  27   8
M  ISO  3  28   8  29   8  30   8
M  END
>  <minimizedAffinity>  (1) 
-4.11573982

>  <minimizedRMSD>  (1) 
0.163463011

$$$$
