
     RDKit          3D

 25 27  0  0  0  0  0  0  0  0999 V2000
   43.6270   19.7120   37.0850 C   0  0  0  0  0  0  0  0  0  0  0  0
   42.4800   20.4800   37.3170 C   0  0  0  0  0  0  0  0  0  0  0  0
   41.9780   21.2210   36.2430 C   0  0  0  0  0  0  0  0  0  0  0  0
   42.6460   21.1370   35.0600 N   0  0  0  0  0  0  0  0  0  0  0  0
   43.7370   20.3980   34.8660 C   0  0  0  0  0  0  0  0  0  0  0  0
   44.2320   19.6740   35.9030 N   0  0  0  0  0  0  0  0  0  0  0  0
   44.4080   20.3480   33.5720 C   0  0  0  0  0  0  0  0  0  0  0  0
   44.9120   19.1990   32.9930 C   0  0  0  0  0  0  0  0  0  0  0  0
   45.4500   19.5820   31.8090 N   0  0  0  0  0  0  0  0  0  0  0  0
   45.2830   20.9160   31.6640 C   0  0  0  0  0  0  0  0  0  0  0  0
   44.6400   21.3910   32.7530 N   0  0  0  0  0  0  0  0  0  0  0  0
   40.7840   22.0480   36.3890 C   0  0  0  0  0  0  0  0  0  0  0  0
   39.9170   22.6270   35.5060 N   0  0  0  0  0  0  0  0  0  0  0  0
   39.0050   23.2700   36.1730 O   0  0  0  0  0  0  0  0  0  0  0  0
   39.2270   23.1430   37.4710 C   0  0  0  0  0  0  0  0  0  0  0  0
   40.3280   22.3870   37.6000 N   0  0  0  0  0  0  0  0  0  0  0  0
   38.4290   23.7140   38.5710 C   0  0  0  0  0  0  0  0  0  0  0  0
   39.2380   23.8700   39.6730 F   0  0  0  0  0  0  0  0  0  0  0  0
   37.3960   22.8550   38.9570 F   0  0  0  0  0  0  0  0  0  0  0  0
   37.9380   24.9380   38.2180 F   0  0  0  0  0  0  0  0  0  0  0  0
   44.0428   19.1179   37.9121 H   0  0  0  0  0  0  0  0  0  0  0  0
   41.9937   20.4997   38.3035 H   0  0  0  0  0  0  0  0  0  0  0  0
   44.8827   18.1808   33.4082 H   0  0  0  0  0  0  0  0  0  0  0  0
   45.6153   21.5145   30.8030 H   0  0  0  0  0  0  0  0  0  0  0  0
   44.3757   22.3715   32.9252 H   0  0  0  0  0  0  0  0  0  0  0  0
  1  2  2  0
  3 12  1  0
  3  2  1  0
  4  3  2  0
  5  4  1  0
  5  6  2  0
  6  1  1  0
  7  5  1  0
  8  7  2  0
  9  8  1  0
 10  9  2  0
 10 11  1  0
 11  7  1  0
 12 16  1  0
 13 14  1  0
 13 12  2  0
 14 15  1  0
 15 16  2  0
 15 17  1  0
 17 19  1  0
 17 18  1  0
 20 17  1  0
  1 21  1  0
  2 22  1  0
  8 23  1  0
 10 24  1  0
 11 25  1  0
M  ISO  5  21  14  22  14  23  14  24  14  25   9
M  END
>  <minimizedAffinity>  (1) 
-4.09015274

>  <minimizedRMSD>  (1) 
0.0417223312

$$$$
