
     RDKit          3D

 44 46  0  0  0  0  0  0  0  0999 V2000
   38.6020   23.9540   36.0380 C   0  0  0  0  0  0  0  0  0  0  0  0
   41.7110   22.0530   36.8880 C   0  0  0  0  0  0  0  0  0  0  0  0
   40.3790   22.3990   36.8280 C   0  0  0  0  0  0  0  0  0  0  0  0
   39.9870   23.5500   36.1280 C   0  0  0  0  0  0  0  0  0  0  0  0
   40.9470   24.2870   35.5330 N   0  0  0  0  0  0  0  0  0  0  0  0
   42.2550   23.9300   35.6030 C   0  0  0  0  0  0  0  0  0  0  0  0
   42.6250   22.8170   36.2800 N   0  0  0  0  0  0  0  0  0  0  0  0
   42.0900   20.8210   37.6410 C   0  0  0  0  0  0  0  0  0  0  0  0
   43.0820   19.9830   36.9250 C   0  0  0  0  0  0  0  0  0  0  0  0
   37.8040   23.2360   37.1040 C   0  0  0  0  0  0  0  0  0  0  0  0
   38.3910   25.4520   36.1460 C   0  0  0  0  0  0  0  0  0  0  0  0
   38.0390   23.5470   34.6840 C   0  0  0  0  0  0  0  0  0  0  0  0
   38.1200   24.5880   33.7080 N   0  0  0  0  0  0  0  0  0  0  0  0
   39.0290   24.7590   32.7130 C   0  0  0  0  0  0  0  0  0  0  0  0
   38.7120   25.8970   32.0230 N   0  0  0  0  0  0  0  0  0  0  0  0
   37.6230   26.4050   32.5990 C   0  0  0  0  0  0  0  0  0  0  0  0
   37.2750   25.6040   33.6160 N   0  0  0  0  0  0  0  0  0  0  0  0
   37.0870   27.6380   32.0310 C   0  0  0  0  0  0  0  0  0  0  0  0
   37.2470   27.9800   30.6980 C   0  0  0  0  0  0  0  0  0  0  0  0
   36.7160   29.1610   30.2180 C   0  0  0  0  0  0  0  0  0  0  0  0
   36.0180   30.0390   31.0240 C   0  0  0  0  0  0  0  0  0  0  0  0
   35.8400   29.7230   32.3700 C   0  0  0  0  0  0  0  0  0  0  0  0
   36.3790   28.5270   32.8480 C   0  0  0  0  0  0  0  0  0  0  0  0
   39.6242   21.7742   37.3279 H   0  0  0  0  0  0  0  0  0  0  0  0
   43.0181   24.5480   35.1073 H   0  0  0  0  0  0  0  0  0  0  0  0
   42.5183   21.1203   38.6089 H   0  0  0  0  0  0  0  0  0  0  0  0
   41.1783   20.2177   37.7626 H   0  0  0  0  0  0  0  0  0  0  0  0
   43.7098   19.4526   37.6561 H   0  0  0  0  0  0  0  0  0  0  0  0
   42.5564   19.2513   36.2939 H   0  0  0  0  0  0  0  0  0  0  0  0
   43.7156   20.6235   36.2939 H   0  0  0  0  0  0  0  0  0  0  0  0
   38.1538   23.5508   38.0983 H   0  0  0  0  0  0  0  0  0  0  0  0
   36.7382   23.4853   36.9944 H   0  0  0  0  0  0  0  0  0  0  0  0
   37.9397   22.1499   36.9944 H   0  0  0  0  0  0  0  0  0  0  0  0
   38.3503   25.7410   37.2066 H   0  0  0  0  0  0  0  0  0  0  0  0
   39.2242   25.9760   35.6549 H   0  0  0  0  0  0  0  0  0  0  0  0
   37.4455   25.7255   35.6549 H   0  0  0  0  0  0  0  0  0  0  0  0
   38.6042   22.6778   34.3166 H   0  0  0  0  0  0  0  0  0  0  0  0
   36.9736   23.3141   34.8280 H   0  0  0  0  0  0  0  0  0  0  0  0
   39.8781   24.0936   32.4980 H   0  0  0  0  0  0  0  0  0  0  0  0
   37.7976   27.3101   30.0212 H   0  0  0  0  0  0  0  0  0  0  0  0
   36.8539   29.4114   29.1558 H   0  0  0  0  0  0  0  0  0  0  0  0
   35.6091   30.9727   30.6104 H   0  0  0  0  0  0  0  0  0  0  0  0
   35.2883   30.3995   33.0393 H   0  0  0  0  0  0  0  0  0  0  0  0
   36.2417   28.2732   33.9095 H   0  0  0  0  0  0  0  0  0  0  0  0
  1  4  1  0
  1 11  1  0
  1 10  1  0
  2  8  1  0
  3  2  2  0
  4  3  1  0
  5  6  1  0
  5  4  2  0
  6  7  2  0
  7  2  1  0
  9  8  1  0
 12  1  1  0
 13 12  1  0
 14 13  1  0
 15 16  1  0
 15 14  2  0
 16 17  2  0
 17 13  1  0
 18 16  1  0
 18 23  1  0
 19 18  2  0
 20 19  1  0
 20 21  2  0
 21 22  1  0
 22 23  2  0
  3 24  1  0
  6 25  1  0
  8 26  1  0
  8 27  1  0
  9 28  1  0
  9 29  1  0
  9 30  1  0
 10 31  1  0
 10 32  1  0
 10 33  1  0
 11 34  1  0
 11 35  1  0
 11 36  1  0
 12 37  1  0
 12 38  1  0
 14 39  1  0
 19 40  1  0
 20 41  1  0
 21 42  1  0
 22 43  1  0
 23 44  1  0
M  ISO  8  24  14  25  14  26   8  27   8  28   8  29   8  30   8  31   8
M  ISO  8  32   8  33   8  34   8  35   8  36   8  37   8  38   8  39  14
M  ISO  5  40  14  41  14  42  14  43  14  44  14
M  END
>  <minimizedAffinity>  (1) 
-4.98930931

>  <minimizedRMSD>  (1) 
2.79874492

$$$$
