
     RDKit          3D

 25 27  0  0  0  0  0  0  0  0999 V2000
   43.7040   19.7210   37.0580 C   0  0  0  0  0  0  0  0  0  0  0  0
   42.4940   20.3860   37.2310 C   0  0  0  0  0  0  0  0  0  0  0  0
   42.0710   21.3040   36.2840 C   0  0  0  0  0  0  0  0  0  0  0  0
   42.9040   21.5020   35.2040 N   0  0  0  0  0  0  0  0  0  0  0  0
   44.0620   20.8560   35.0530 C   0  0  0  0  0  0  0  0  0  0  0  0
   44.4640   19.9590   35.9890 N   0  0  0  0  0  0  0  0  0  0  0  0
   40.8200   22.0220   36.4190 C   0  0  0  0  0  0  0  0  0  0  0  0
   39.8470   22.4220   35.5480 N   0  0  0  0  0  0  0  0  0  0  0  0
   38.9190   23.0430   36.2020 O   0  0  0  0  0  0  0  0  0  0  0  0
   39.2200   23.0850   37.4920 C   0  0  0  0  0  0  0  0  0  0  0  0
   40.3900   22.4550   37.6170 N   0  0  0  0  0  0  0  0  0  0  0  0
   38.4340   23.6960   38.5670 C   0  0  0  0  0  0  0  0  0  0  0  0
   39.2540   23.8700   39.6800 F   0  0  0  0  0  0  0  0  0  0  0  0
   37.3960   22.8680   38.9780 F   0  0  0  0  0  0  0  0  0  0  0  0
   37.9640   24.9200   38.1940 F   0  0  0  0  0  0  0  0  0  0  0  0
   44.9260   21.1050   33.8680 C   0  0  0  0  0  0  0  0  0  0  0  0
   45.8890   22.2580   33.9420 C   0  0  0  0  0  0  0  0  0  0  0  0
   44.7050   22.3220   33.0420 C   0  0  0  0  0  0  0  0  0  0  0  0
   44.0368   18.9915   37.8110 H   0  0  0  0  0  0  0  0  0  0  0  0
   41.8751   20.1832   38.1175 H   0  0  0  0  0  0  0  0  0  0  0  0
   44.9937   20.0294   33.6476 H   0  0  0  0  0  0  0  0  0  0  0  0
   45.9295   22.8851   34.8448 H   0  0  0  0  0  0  0  0  0  0  0  0
   46.9748   22.3771   33.8124 H   0  0  0  0  0  0  0  0  0  0  0  0
   44.8424   22.2766   31.9516 H   0  0  0  0  0  0  0  0  0  0  0  0
   43.8706   23.0265   32.9104 H   0  0  0  0  0  0  0  0  0  0  0  0
  1  2  2  0
  3  7  1  0
  3  2  1  0
  4  3  2  0
  5  4  1  0
  5  6  2  0
  6  1  1  0
  7 11  1  0
  8  9  1  0
  8  7  2  0
  9 10  1  0
 10 11  2  0
 10 12  1  0
 12 14  1  0
 12 13  1  0
 15 12  1  0
 16 17  1  0
 16  5  1  0
 18 16  1  0
 18 17  1  0
  1 19  1  0
  2 20  1  0
 16 21  1  0
 17 22  1  0
 17 23  1  0
 18 24  1  0
 18 25  1  0
M  ISO  7  19  14  20  14  21  13  22  13  23  13  24  13  25  13
M  END
>  <minimizedAffinity>  (1) 
-4.09091806

>  <minimizedRMSD>  (1) 
0.955515206

$$$$
