
     RDKit          3D

 27 28  0  0  0  0  0  0  0  0999 V2000
   43.6390   19.7090   37.0750 C   0  0  0  0  0  0  0  0  0  0  0  0
   42.4840   20.4760   37.3050 C   0  0  0  0  0  0  0  0  0  0  0  0
   41.9920   21.2220   36.2500 C   0  0  0  0  0  0  0  0  0  0  0  0
   42.6670   21.1560   35.0660 N   0  0  0  0  0  0  0  0  0  0  0  0
   43.7620   20.4230   34.8650 C   0  0  0  0  0  0  0  0  0  0  0  0
   44.2490   19.6890   35.8960 N   0  0  0  0  0  0  0  0  0  0  0  0
   40.8000   22.0460   36.3980 C   0  0  0  0  0  0  0  0  0  0  0  0
   39.9360   22.6320   35.5130 N   0  0  0  0  0  0  0  0  0  0  0  0
   39.0240   23.2680   36.1710 O   0  0  0  0  0  0  0  0  0  0  0  0
   39.2280   23.1400   37.4730 C   0  0  0  0  0  0  0  0  0  0  0  0
   40.3230   22.3860   37.6000 N   0  0  0  0  0  0  0  0  0  0  0  0
   38.4290   23.7020   38.5640 C   0  0  0  0  0  0  0  0  0  0  0  0
   39.2420   23.8730   39.6740 F   0  0  0  0  0  0  0  0  0  0  0  0
   37.4070   22.8520   38.9560 F   0  0  0  0  0  0  0  0  0  0  0  0
   37.9410   24.9380   38.2150 F   0  0  0  0  0  0  0  0  0  0  0  0
   44.4590   20.3830   33.5650 C   0  0  0  0  0  0  0  0  0  0  0  0
   44.9900   21.7790   33.3130 C   0  0  0  0  0  0  0  0  0  0  0  0
   45.5460   19.3650   33.4710 C   0  0  0  0  0  0  0  0  0  0  0  0
   44.0506   19.1062   37.8979 H   0  0  0  0  0  0  0  0  0  0  0  0
   41.9899   20.4826   38.2877 H   0  0  0  0  0  0  0  0  0  0  0  0
   43.7409   20.0675   32.7937 H   0  0  0  0  0  0  0  0  0  0  0  0
   45.1799   22.2782   34.2746 H   0  0  0  0  0  0  0  0  0  0  0  0
   45.9273   21.7170   32.7407 H   0  0  0  0  0  0  0  0  0  0  0  0
   44.2484   22.3556   32.7407 H   0  0  0  0  0  0  0  0  0  0  0  0
   45.8608   19.0702   34.4829 H   0  0  0  0  0  0  0  0  0  0  0  0
   45.1753   18.4816   32.9304 H   0  0  0  0  0  0  0  0  0  0  0  0
   46.4032   19.7927   32.9304 H   0  0  0  0  0  0  0  0  0  0  0  0
  1  2  2  0
  3  7  1  0
  3  2  1  0
  4  3  2  0
  5  4  1  0
  5  6  2  0
  6  1  1  0
  7 11  1  0
  8  9  1  0
  8  7  2  0
  9 10  1  0
 10 11  2  0
 10 12  1  0
 12 14  1  0
 12 13  1  0
 15 12  1  0
 16  5  1  0
 17 16  1  0
 18 16  1  0
  1 19  1  0
  2 20  1  0
 16 21  1  0
 17 22  1  0
 17 23  1  0
 17 24  1  0
 18 25  1  0
 18 26  1  0
 18 27  1  0
M  ISO  8  19  14  20  14  21   8  22   8  23   8  24   8  25   8  26   8
M  ISO  1  27   8
M  END
>  <minimizedAffinity>  (1) 
-4.08973169

>  <minimizedRMSD>  (1) 
0.0462093875

$$$$
