
     RDKit          3D

 25 27  0  0  0  0  0  0  0  0999 V2000
   43.6210   19.7240   37.0890 C   0  0  0  0  0  0  0  0  0  0  0  0
   42.4800   20.5020   37.3060 C   0  0  0  0  0  0  0  0  0  0  0  0
   41.9510   21.2200   36.2300 C   0  0  0  0  0  0  0  0  0  0  0  0
   42.5940   21.1110   35.0220 N   0  0  0  0  0  0  0  0  0  0  0  0
   43.6850   20.3560   34.8500 C   0  0  0  0  0  0  0  0  0  0  0  0
   44.2010   19.6580   35.8930 N   0  0  0  0  0  0  0  0  0  0  0  0
   40.7640   22.0550   36.3740 C   0  0  0  0  0  0  0  0  0  0  0  0
   39.9170   22.6570   35.5030 N   0  0  0  0  0  0  0  0  0  0  0  0
   39.0040   23.2990   36.1700 O   0  0  0  0  0  0  0  0  0  0  0  0
   39.2180   23.1430   37.4740 C   0  0  0  0  0  0  0  0  0  0  0  0
   40.2990   22.3790   37.5920 N   0  0  0  0  0  0  0  0  0  0  0  0
   38.4160   23.7040   38.5740 C   0  0  0  0  0  0  0  0  0  0  0  0
   39.2420   23.8820   39.6840 F   0  0  0  0  0  0  0  0  0  0  0  0
   37.3840   22.8670   38.9370 F   0  0  0  0  0  0  0  0  0  0  0  0
   37.9400   24.9560   38.2330 F   0  0  0  0  0  0  0  0  0  0  0  0
   44.3260   20.2890   33.5130 C   0  0  0  0  0  0  0  0  0  0  0  0
   45.7170   20.0210   33.3790 C   0  0  0  0  0  0  0  0  0  0  0  0
   46.2200   19.9780   32.1040 C   0  0  0  0  0  0  0  0  0  0  0  0
   45.3840   20.1900   30.9870 C   0  0  0  0  0  0  0  0  0  0  0  0
   43.7370   20.4770   31.8170 S   0  0  0  0  0  0  0  0  0  0  0  0
   44.0493   19.1532   37.9261 H   0  0  0  0  0  0  0  0  0  0  0  0
   42.0100   20.5479   38.2995 H   0  0  0  0  0  0  0  0  0  0  0  0
   46.3588   19.8560   34.2570 H   0  0  0  0  0  0  0  0  0  0  0  0
   47.2901   19.7754   31.9498 H   0  0  0  0  0  0  0  0  0  0  0  0
   45.6352   20.1869   29.9161 H   0  0  0  0  0  0  0  0  0  0  0  0
  1  2  2  0
  3  7  1  0
  3  2  1  0
  4  3  2  0
  5  4  1  0
  5  6  2  0
  6  1  1  0
  7 11  1  0
  8  9  1  0
  8  7  2  0
  9 10  1  0
 10 11  2  0
 10 12  1  0
 12 14  1  0
 12 13  1  0
 15 12  1  0
 16  5  1  0
 17 16  2  0
 18 17  1  0
 19 20  1  0
 19 18  2  0
 20 16  1  0
  1 21  1  0
  2 22  1  0
 17 23  1  0
 18 24  1  0
 19 25  1  0
M  ISO  5  21  14  22  14  23  14  24  14  25  14
M  END
>  <minimizedAffinity>  (1) 
-4.07754993

>  <minimizedRMSD>  (1) 
0.261268467

$$$$
