
     RDKit          3D

 28 30  0  0  0  0  0  0  0  0999 V2000
   43.6220   19.7210   37.0880 C   0  0  0  0  0  0  0  0  0  0  0  0
   42.4780   20.5010   37.3060 C   0  0  0  0  0  0  0  0  0  0  0  0
   41.9520   21.2220   36.2300 C   0  0  0  0  0  0  0  0  0  0  0  0
   42.6000   21.1140   35.0220 N   0  0  0  0  0  0  0  0  0  0  0  0
   43.6810   20.3630   34.8580 C   0  0  0  0  0  0  0  0  0  0  0  0
   44.1970   19.6600   35.8970 N   0  0  0  0  0  0  0  0  0  0  0  0
   44.3420   20.2880   33.5270 C   0  0  0  0  0  0  0  0  0  0  0  0
   45.7170   20.0320   33.3720 C   0  0  0  0  0  0  0  0  0  0  0  0
   46.1930   19.9930   32.0990 C   0  0  0  0  0  0  0  0  0  0  0  0
   45.3770   20.1930   30.9860 C   0  0  0  0  0  0  0  0  0  0  0  0
   43.7420   20.4700   31.8220 S   0  0  0  0  0  0  0  0  0  0  0  0
   45.5020   20.2240   29.5980 C   0  0  0  0  0  0  0  0  0  0  0  0
   40.7670   22.0590   36.3700 C   0  0  0  0  0  0  0  0  0  0  0  0
   39.9270   22.6570   35.5050 N   0  0  0  0  0  0  0  0  0  0  0  0
   39.0120   23.2980   36.1730 O   0  0  0  0  0  0  0  0  0  0  0  0
   39.2210   23.1430   37.4730 C   0  0  0  0  0  0  0  0  0  0  0  0
   40.3040   22.3780   37.5970 N   0  0  0  0  0  0  0  0  0  0  0  0
   38.4140   23.7050   38.5700 C   0  0  0  0  0  0  0  0  0  0  0  0
   39.2380   23.8830   39.6810 F   0  0  0  0  0  0  0  0  0  0  0  0
   37.3900   22.8760   38.9300 F   0  0  0  0  0  0  0  0  0  0  0  0
   37.9570   24.9770   38.2360 F   0  0  0  0  0  0  0  0  0  0  0  0
   44.0507   19.1480   37.9234 H   0  0  0  0  0  0  0  0  0  0  0  0
   42.0060   20.5447   38.2986 H   0  0  0  0  0  0  0  0  0  0  0  0
   46.3749   19.8712   34.2388 H   0  0  0  0  0  0  0  0  0  0  0  0
   47.2636   19.7960   31.9409 H   0  0  0  0  0  0  0  0  0  0  0  0
   46.5372   20.4807   29.3287 H   0  0  0  0  0  0  0  0  0  0  0  0
   45.2499   19.2361   29.1850 H   0  0  0  0  0  0  0  0  0  0  0  0
   44.8175   20.9796   29.1850 H   0  0  0  0  0  0  0  0  0  0  0  0
  1  2  2  0
  3 13  1  0
  3  2  1  0
  4  3  2  0
  5  4  1  0
  5  6  2  0
  6  1  1  0
  7  5  1  0
  8  7  2  0
  9  8  1  0
 10 11  1  0
 10  9  2  0
 11  7  1  0
 12 10  1  0
 13 17  1  0
 14 15  1  0
 14 13  2  0
 15 16  1  0
 16 17  2  0
 16 18  1  0
 18 20  1  0
 18 19  1  0
 21 18  1  0
  1 22  1  0
  2 23  1  0
  8 24  1  0
  9 25  1  0
 12 26  1  0
 12 27  1  0
 12 28  1  0
M  ISO  7  22  14  23  14  24  14  25  14  26   8  27   8  28   8
M  END
>  <minimizedAffinity>  (1) 
-4.08397293

>  <minimizedRMSD>  (1) 
0.0218797382

$$$$
