
     RDKit          3D

 27 29  0  0  0  0  0  0  0  0999 V2000
   43.6120   19.7340   37.0850 C   0  0  0  0  0  0  0  0  0  0  0  0
   42.4760   20.5030   37.3070 C   0  0  0  0  0  0  0  0  0  0  0  0
   41.9470   21.2280   36.2270 C   0  0  0  0  0  0  0  0  0  0  0  0
   42.5950   21.1260   35.0120 N   0  0  0  0  0  0  0  0  0  0  0  0
   43.6780   20.3770   34.8520 C   0  0  0  0  0  0  0  0  0  0  0  0
   44.2070   19.6640   35.8920 N   0  0  0  0  0  0  0  0  0  0  0  0
   44.3420   20.2970   33.5250 C   0  0  0  0  0  0  0  0  0  0  0  0
   45.7160   20.0210   33.3750 C   0  0  0  0  0  0  0  0  0  0  0  0
   46.2080   19.9710   32.1080 C   0  0  0  0  0  0  0  0  0  0  0  0
   45.3870   20.1810   31.0000 C   0  0  0  0  0  0  0  0  0  0  0  0
   43.7320   20.4880   31.8220 S   0  0  0  0  0  0  0  0  0  0  0  0
   45.5280   20.2040   29.6690 N   0  0  0  0  0  0  0  0  0  0  0  0
   40.7580   22.0610   36.3670 C   0  0  0  0  0  0  0  0  0  0  0  0
   39.9100   22.6530   35.4980 N   0  0  0  0  0  0  0  0  0  0  0  0
   38.9980   23.2940   36.1700 O   0  0  0  0  0  0  0  0  0  0  0  0
   39.2140   23.1440   37.4750 C   0  0  0  0  0  0  0  0  0  0  0  0
   40.2990   22.3850   37.5950 N   0  0  0  0  0  0  0  0  0  0  0  0
   38.4160   23.7060   38.5770 C   0  0  0  0  0  0  0  0  0  0  0  0
   39.2430   23.8820   39.6850 F   0  0  0  0  0  0  0  0  0  0  0  0
   37.3770   22.8750   38.9250 F   0  0  0  0  0  0  0  0  0  0  0  0
   37.9370   24.9550   38.2310 F   0  0  0  0  0  0  0  0  0  0  0  0
   44.0366   19.1619   37.9231 H   0  0  0  0  0  0  0  0  0  0  0  0
   42.0047   20.5426   38.3001 H   0  0  0  0  0  0  0  0  0  0  0  0
   46.3643   19.8528   34.2476 H   0  0  0  0  0  0  0  0  0  0  0  0
   47.2766   19.7604   31.9537 H   0  0  0  0  0  0  0  0  0  0  0  0
   46.4511   20.0314   29.2458 H   0  0  0  0  0  0  0  0  0  0  0  0
   44.7134   20.3943   29.0680 H   0  0  0  0  0  0  0  0  0  0  0  0
  1  2  2  0
  3 13  1  0
  3  2  1  0
  4  3  2  0
  5  4  1  0
  5  6  2  0
  6  1  1  0
  7  5  1  0
  8  7  2  0
  9  8  1  0
 10 11  1  0
 10  9  2  0
 11  7  1  0
 12 10  1  0
 13 17  1  0
 14 15  1  0
 14 13  2  0
 15 16  1  0
 16 17  2  0
 16 18  1  0
 18 20  1  0
 18 19  1  0
 21 18  1  0
  1 22  1  0
  2 23  1  0
  8 24  1  0
  9 25  1  0
 12 26  1  0
 12 27  1  0
M  ISO  4  22  14  23  14  24  14  25  14
M  END
>  <minimizedAffinity>  (1) 
-4.07944822

>  <minimizedRMSD>  (1) 
0.0180177782

$$$$
