
     RDKit          3D

 26 28  0  0  0  0  0  0  0  0999 V2000
   43.6160   19.7300   37.0870 C   0  0  0  0  0  0  0  0  0  0  0  0
   42.4780   20.5040   37.3000 C   0  0  0  0  0  0  0  0  0  0  0  0
   41.9490   21.2220   36.2250 C   0  0  0  0  0  0  0  0  0  0  0  0
   42.5910   21.1180   35.0080 N   0  0  0  0  0  0  0  0  0  0  0  0
   43.6750   20.3690   34.8400 C   0  0  0  0  0  0  0  0  0  0  0  0
   44.1970   19.6650   35.8910 N   0  0  0  0  0  0  0  0  0  0  0  0
   44.3180   20.3050   33.5040 C   0  0  0  0  0  0  0  0  0  0  0  0
   45.6940   20.0660   33.3540 C   0  0  0  0  0  0  0  0  0  0  0  0
   46.2290   20.0170   32.1110 C   0  0  0  0  0  0  0  0  0  0  0  0
   45.4000   20.2050   31.0040 C   0  0  0  0  0  0  0  0  0  0  0  0
   43.7300   20.4710   31.8100 S   0  0  0  0  0  0  0  0  0  0  0  0
   45.6760   20.2220   29.2370 S   0  0  0  0  0  0  0  0  0  0  0  0
   40.7580   22.0580   36.3630 C   0  0  0  0  0  0  0  0  0  0  0  0
   39.9090   22.6480   35.5010 N   0  0  0  0  0  0  0  0  0  0  0  0
   38.9970   23.2930   36.1680 O   0  0  0  0  0  0  0  0  0  0  0  0
   39.2110   23.1500   37.4680 C   0  0  0  0  0  0  0  0  0  0  0  0
   40.2990   22.3880   37.5870 N   0  0  0  0  0  0  0  0  0  0  0  0
   38.4200   23.7130   38.5800 C   0  0  0  0  0  0  0  0  0  0  0  0
   39.2430   23.8810   39.6900 F   0  0  0  0  0  0  0  0  0  0  0  0
   37.3920   22.8670   38.9330 F   0  0  0  0  0  0  0  0  0  0  0  0
   37.9310   24.9530   38.2350 F   0  0  0  0  0  0  0  0  0  0  0  0
   44.0439   19.1602   37.9249 H   0  0  0  0  0  0  0  0  0  0  0  0
   42.0063   20.5489   38.2927 H   0  0  0  0  0  0  0  0  0  0  0  0
   46.3314   19.9199   34.2385 H   0  0  0  0  0  0  0  0  0  0  0  0
   47.3047   19.8312   31.9753 H   0  0  0  0  0  0  0  0  0  0  0  0
   47.0202   20.3048   28.9855 H   0  0  0  0  0  0  0  0  0  0  0  0
  1  2  2  0
  3 13  1  0
  3  2  1  0
  4  3  2  0
  5  4  1  0
  5  6  2  0
  6  1  1  0
  7  5  1  0
  8  7  2  0
  9  8  1  0
 10 11  1  0
 10  9  2  0
 11  7  1  0
 12 10  1  0
 13 17  1  0
 14 15  1  0
 14 13  2  0
 15 16  1  0
 16 17  2  0
 16 18  1  0
 18 20  1  0
 18 19  1  0
 21 18  1  0
  1 22  1  0
  2 23  1  0
  8 24  1  0
  9 25  1  0
 12 26  1  0
M  ISO  5  22  14  23  14  24  14  25  14  26  11
M  END
>  <minimizedAffinity>  (1) 
-4.075737

>  <minimizedRMSD>  (1) 
0.0195198283

$$$$
