
     RDKit          3D

 39 42  0  0  0  0  0  0  0  0999 V2000
   43.6130   19.7500   37.0760 C   0  0  0  0  0  0  0  0  0  0  0  0
   42.4750   20.5180   37.3010 C   0  0  0  0  0  0  0  0  0  0  0  0
   41.9440   21.2240   36.2330 C   0  0  0  0  0  0  0  0  0  0  0  0
   42.5780   21.1240   35.0100 N   0  0  0  0  0  0  0  0  0  0  0  0
   43.6630   20.3780   34.8400 C   0  0  0  0  0  0  0  0  0  0  0  0
   44.1980   19.6780   35.8780 N   0  0  0  0  0  0  0  0  0  0  0  0
   44.3160   20.2970   33.5110 C   0  0  0  0  0  0  0  0  0  0  0  0
   45.6900   20.0310   33.3410 C   0  0  0  0  0  0  0  0  0  0  0  0
   46.1570   19.9860   32.0680 C   0  0  0  0  0  0  0  0  0  0  0  0
   45.3360   20.1910   30.9630 C   0  0  0  0  0  0  0  0  0  0  0  0
   43.7100   20.4810   31.8090 S   0  0  0  0  0  0  0  0  0  0  0  0
   45.4420   20.2190   29.6490 N   0  0  0  0  0  0  0  0  0  0  0  0
   45.1830   19.0850   28.7840 C   0  0  0  0  0  0  0  0  0  0  0  0
   44.6060   19.6230   27.4790 C   0  0  0  0  0  0  0  0  0  0  0  0
   43.8530   20.8240   27.7260 N   0  0  0  0  0  0  0  0  0  0  0  0
   44.6590   21.9230   28.1770 C   0  0  0  0  0  0  0  0  0  0  0  0
   45.8430   21.4540   29.0070 C   0  0  0  0  0  0  0  0  0  0  0  0
   40.7470   22.0640   36.3650 C   0  0  0  0  0  0  0  0  0  0  0  0
   39.9020   22.6610   35.5050 N   0  0  0  0  0  0  0  0  0  0  0  0
   38.9890   23.3010   36.1780 O   0  0  0  0  0  0  0  0  0  0  0  0
   39.2060   23.1460   37.4770 C   0  0  0  0  0  0  0  0  0  0  0  0
   40.2850   22.3880   37.5850 N   0  0  0  0  0  0  0  0  0  0  0  0
   38.4080   23.7060   38.5810 C   0  0  0  0  0  0  0  0  0  0  0  0
   39.2430   23.8870   39.6940 F   0  0  0  0  0  0  0  0  0  0  0  0
   37.3800   22.8760   38.9360 F   0  0  0  0  0  0  0  0  0  0  0  0
   37.9470   24.9760   38.2520 F   0  0  0  0  0  0  0  0  0  0  0  0
   44.0455   19.1829   37.9135 H   0  0  0  0  0  0  0  0  0  0  0  0
   42.0104   20.5636   38.2970 H   0  0  0  0  0  0  0  0  0  0  0  0
   46.3541   19.8672   34.2025 H   0  0  0  0  0  0  0  0  0  0  0  0
   47.2248   19.7797   31.9030 H   0  0  0  0  0  0  0  0  0  0  0  0
   46.1195   18.5434   28.5850 H   0  0  0  0  0  0  0  0  0  0  0  0
   44.4772   18.3888   29.2606 H   0  0  0  0  0  0  0  0  0  0  0  0
   43.9448   18.8647   27.0342 H   0  0  0  0  0  0  0  0  0  0  0  0
   45.4316   19.8527   26.7894 H   0  0  0  0  0  0  0  0  0  0  0  0
   43.3845   21.1007   26.8514 H   0  0  0  0  0  0  0  0  0  0  0  0
   45.0341   22.4721   27.3008 H   0  0  0  0  0  0  0  0  0  0  0  0
   44.0325   22.5680   28.8106 H   0  0  0  0  0  0  0  0  0  0  0  0
   46.7139   21.2781   28.3585 H   0  0  0  0  0  0  0  0  0  0  0  0
   46.1271   22.2117   29.7521 H   0  0  0  0  0  0  0  0  0  0  0  0
  1  2  2  0
  3 18  1  0
  3  2  1  0
  4  3  2  0
  5  4  1  0
  5  6  2  0
  6  1  1  0
  7  5  1  0
  8  7  2  0
  9  8  1  0
 10 11  1  0
 10  9  2  0
 11  7  1  0
 12 10  1  0
 13 12  1  0
 14 15  1  0
 14 13  1  0
 15 16  1  0
 16 17  1  0
 17 12  1  0
 18 22  1  0
 19 20  1  0
 19 18  2  0
 20 21  1  0
 21 22  2  0
 21 23  1  0
 23 25  1  0
 23 24  1  0
 26 23  1  0
  1 27  1  0
  2 28  1  0
  8 29  1  0
  9 30  1  0
 13 31  1  0
 13 32  1  0
 14 33  1  0
 14 34  1  0
 15 35  1  0
 16 36  1  0
 16 37  1  0
 17 38  1  0
 17 39  1  0
M  ISO  8  27  14  28  14  29  14  30  14  31  13  32  13  33  13  34  13
M  ISO  5  35   5  36  13  37  13  38  13  39  13
M  END
>  <minimizedAffinity>  (1) 
-3.88939762

>  <minimizedRMSD>  (1) 
0.556940079

$$$$
