
     RDKit          3D

 38 41  0  0  0  0  0  0  0  0999 V2000
   43.6190   19.7240   37.0880 C   0  0  0  0  0  0  0  0  0  0  0  0
   42.4770   20.5020   37.3010 C   0  0  0  0  0  0  0  0  0  0  0  0
   41.9460   21.2290   36.2250 C   0  0  0  0  0  0  0  0  0  0  0  0
   42.5920   21.1240   35.0190 N   0  0  0  0  0  0  0  0  0  0  0  0
   43.6740   20.3760   34.8470 C   0  0  0  0  0  0  0  0  0  0  0  0
   44.1970   19.6670   35.8910 N   0  0  0  0  0  0  0  0  0  0  0  0
   44.3340   20.2970   33.5250 C   0  0  0  0  0  0  0  0  0  0  0  0
   45.7110   20.0430   33.3640 C   0  0  0  0  0  0  0  0  0  0  0  0
   46.2110   19.9890   32.1030 C   0  0  0  0  0  0  0  0  0  0  0  0
   45.3700   20.1830   31.0080 C   0  0  0  0  0  0  0  0  0  0  0  0
   43.7470   20.4630   31.8260 S   0  0  0  0  0  0  0  0  0  0  0  0
   45.5370   20.1960   29.6440 N   0  0  0  0  0  0  0  0  0  0  0  0
   44.4420   20.4340   28.8630 C   0  0  0  0  0  0  0  0  0  0  0  0
   44.6480   20.4390   27.4810 C   0  0  0  0  0  0  0  0  0  0  0  0
   43.4470   20.7000   26.6370 C   0  0  0  0  0  0  0  0  0  0  0  0
   45.9080   20.2130   26.9480 C   0  0  0  0  0  0  0  0  0  0  0  0
   46.0540   20.2250   25.7040 O   0  0  0  0  0  0  0  0  0  0  0  0
   46.9460   19.9850   27.7830 N   0  0  0  0  0  0  0  0  0  0  0  0
   46.7300   19.9820   29.1110 C   0  0  0  0  0  0  0  0  0  0  0  0
   47.7620   19.7600   29.8270 O   0  0  0  0  0  0  0  0  0  0  0  0
   40.7600   22.0580   36.3760 C   0  0  0  0  0  0  0  0  0  0  0  0
   39.9030   22.6490   35.4930 N   0  0  0  0  0  0  0  0  0  0  0  0
   38.9920   23.2930   36.1630 O   0  0  0  0  0  0  0  0  0  0  0  0
   39.2190   23.1450   37.4760 C   0  0  0  0  0  0  0  0  0  0  0  0
   40.3020   22.3900   37.5920 N   0  0  0  0  0  0  0  0  0  0  0  0
   38.4240   23.7100   38.5810 C   0  0  0  0  0  0  0  0  0  0  0  0
   39.2400   23.8780   39.6850 F   0  0  0  0  0  0  0  0  0  0  0  0
   37.3890   22.8630   38.9400 F   0  0  0  0  0  0  0  0  0  0  0  0
   37.9320   24.9440   38.2390 F   0  0  0  0  0  0  0  0  0  0  0  0
   44.0464   19.1499   37.9233 H   0  0  0  0  0  0  0  0  0  0  0  0
   42.0039   20.5433   38.2932 H   0  0  0  0  0  0  0  0  0  0  0  0
   46.3632   19.8925   34.2369 H   0  0  0  0  0  0  0  0  0  0  0  0
   47.2816   19.7918   31.9449 H   0  0  0  0  0  0  0  0  0  0  0  0
   43.4484   20.6127   29.2998 H   0  0  0  0  0  0  0  0  0  0  0  0
   42.5779   20.8889   27.2844 H   0  0  0  0  0  0  0  0  0  0  0  0
   43.6292   21.5795   26.0020 H   0  0  0  0  0  0  0  0  0  0  0  0
   43.2478   19.8242   26.0020 H   0  0  0  0  0  0  0  0  0  0  0  0
   47.8901   19.8157   27.4076 H   0  0  0  0  0  0  0  0  0  0  0  0
  1  2  2  0
  3 21  1  0
  3  2  1  0
  4  3  2  0
  5  4  1  0
  5  6  2  0
  6  1  1  0
  7  5  1  0
  8  7  2  0
  9  8  1  0
 10 11  1  0
 10  9  2  0
 11  7  1  0
 12 10  1  0
 13 12  1  0
 14 13  2  0
 15 14  1  0
 16 14  1  0
 16 18  1  0
 17 16  2  0
 18 19  1  0
 19 12  1  0
 19 20  2  0
 21 25  1  0
 22 23  1  0
 22 21  2  0
 23 24  1  0
 24 25  2  0
 24 26  1  0
 26 28  1  0
 26 27  1  0
 29 26  1  0
  1 30  1  0
  2 31  1  0
  8 32  1  0
  9 33  1  0
 13 34  1  0
 15 35  1  0
 15 36  1  0
 15 37  1  0
 18 38  1  0
M  ISO  8  30  14  31  14  32  14  33  14  34  14  35   8  36   8  37   8
M  ISO  1  38   9
M  END
>  <minimizedAffinity>  (1) 
-3.8866353

>  <minimizedRMSD>  (1) 
0.0150493383

$$$$
