
     RDKit          3D

 34 36  0  0  0  0  0  0  0  0999 V2000
   43.6260   19.7210   37.0970 C   0  0  0  0  0  0  0  0  0  0  0  0
   42.4780   20.5060   37.3090 C   0  0  0  0  0  0  0  0  0  0  0  0
   41.9460   21.2230   36.2310 C   0  0  0  0  0  0  0  0  0  0  0  0
   42.5930   21.1090   35.0180 N   0  0  0  0  0  0  0  0  0  0  0  0
   43.6750   20.3580   34.8540 C   0  0  0  0  0  0  0  0  0  0  0  0
   44.1920   19.6620   35.8990 N   0  0  0  0  0  0  0  0  0  0  0  0
   44.3300   20.2710   33.5320 C   0  0  0  0  0  0  0  0  0  0  0  0
   45.7050   20.0140   33.3700 C   0  0  0  0  0  0  0  0  0  0  0  0
   46.1840   19.9590   32.0970 C   0  0  0  0  0  0  0  0  0  0  0  0
   45.3560   20.1490   30.9960 C   0  0  0  0  0  0  0  0  0  0  0  0
   43.7360   20.4330   31.8210 S   0  0  0  0  0  0  0  0  0  0  0  0
   45.4560   20.1700   29.6050 C   0  0  0  0  0  0  0  0  0  0  0  0
   44.1620   19.7180   28.9560 C   0  0  0  0  0  0  0  0  0  0  0  0
   46.5260   19.1780   29.1360 C   0  0  0  0  0  0  0  0  0  0  0  0
   40.7610   22.0570   36.3700 C   0  0  0  0  0  0  0  0  0  0  0  0
   39.9180   22.6540   35.5020 N   0  0  0  0  0  0  0  0  0  0  0  0
   39.0040   23.2970   36.1710 O   0  0  0  0  0  0  0  0  0  0  0  0
   39.2170   23.1430   37.4740 C   0  0  0  0  0  0  0  0  0  0  0  0
   40.2980   22.3800   37.5930 N   0  0  0  0  0  0  0  0  0  0  0  0
   38.4120   23.7070   38.5710 C   0  0  0  0  0  0  0  0  0  0  0  0
   39.2420   23.8840   39.6870 F   0  0  0  0  0  0  0  0  0  0  0  0
   37.3880   22.8760   38.9300 F   0  0  0  0  0  0  0  0  0  0  0  0
   37.9410   24.9580   38.2370 F   0  0  0  0  0  0  0  0  0  0  0  0
   44.0582   19.1509   37.9325 H   0  0  0  0  0  0  0  0  0  0  0  0
   42.0078   20.5554   38.3022 H   0  0  0  0  0  0  0  0  0  0  0  0
   46.3652   19.8638   34.2369 H   0  0  0  0  0  0  0  0  0  0  0  0
   47.2535   19.7591   31.9350 H   0  0  0  0  0  0  0  0  0  0  0  0
   45.7003   21.2043   29.3214 H   0  0  0  0  0  0  0  0  0  0  0  0
   43.4302   19.4624   29.7364 H   0  0  0  0  0  0  0  0  0  0  0  0
   43.7625   20.5298   28.3304 H   0  0  0  0  0  0  0  0  0  0  0  0
   44.3548   18.8340   28.3304 H   0  0  0  0  0  0  0  0  0  0  0  0
   47.0147   18.7249   30.0111 H   0  0  0  0  0  0  0  0  0  0  0  0
   46.0550   18.3899   28.5301 H   0  0  0  0  0  0  0  0  0  0  0  0
   47.2762   19.7072   28.5301 H   0  0  0  0  0  0  0  0  0  0  0  0
  1  2  2  0
  3 15  1  0
  3  2  1  0
  4  3  2  0
  5  4  1  0
  5  6  2  0
  6  1  1  0
  7  5  1  0
  8  7  2  0
  9  8  1  0
 10 11  1  0
 10  9  2  0
 11  7  1  0
 12 10  1  0
 13 12  1  0
 14 12  1  0
 15 19  1  0
 16 17  1  0
 16 15  2  0
 17 18  1  0
 18 19  2  0
 18 20  1  0
 20 22  1  0
 20 21  1  0
 23 20  1  0
  1 24  1  0
  2 25  1  0
  8 26  1  0
  9 27  1  0
 12 28  1  0
 13 29  1  0
 13 30  1  0
 13 31  1  0
 14 32  1  0
 14 33  1  0
 14 34  1  0
M  ISO  8  24  14  25  14  26  14  27  14  28   8  29   8  30   8  31   8
M  ISO  3  32   8  33   8  34   8
M  END
>  <minimizedAffinity>  (1) 
-3.88833189

>  <minimizedRMSD>  (1) 
0.0322860293

$$$$
