
     RDKit          3D

 36 40  0  0  0  0  0  0  0  0999 V2000
   43.6470   19.7520   37.0900 C   0  0  0  0  0  0  0  0  0  0  0  0
   42.4830   20.4990   37.3020 C   0  0  0  0  0  0  0  0  0  0  0  0
   41.9280   21.2080   36.2220 C   0  0  0  0  0  0  0  0  0  0  0  0
   42.5760   21.1150   35.0140 N   0  0  0  0  0  0  0  0  0  0  0  0
   43.6780   20.3990   34.8440 C   0  0  0  0  0  0  0  0  0  0  0  0
   44.2230   19.7080   35.8890 N   0  0  0  0  0  0  0  0  0  0  0  0
   44.3370   20.3310   33.5230 C   0  0  0  0  0  0  0  0  0  0  0  0
   45.7170   20.0810   33.3600 C   0  0  0  0  0  0  0  0  0  0  0  0
   46.2180   20.0380   32.0990 C   0  0  0  0  0  0  0  0  0  0  0  0
   45.3830   20.2390   30.9990 C   0  0  0  0  0  0  0  0  0  0  0  0
   43.7380   20.5120   31.8280 S   0  0  0  0  0  0  0  0  0  0  0  0
   45.5620   20.2600   29.6320 N   0  0  0  0  0  0  0  0  0  0  0  0
   45.7110   19.1850   28.8380 C   0  0  0  0  0  0  0  0  0  0  0  0
   45.8580   19.6260   27.5760 N   0  0  0  0  0  0  0  0  0  0  0  0
   45.8030   20.9630   27.5730 C   0  0  0  0  0  0  0  0  0  0  0  0
   45.8890   21.9270   26.5950 C   0  0  0  0  0  0  0  0  0  0  0  0
   45.7940   23.2180   26.9080 N   0  0  0  0  0  0  0  0  0  0  0  0
   45.6090   23.6180   28.1870 C   0  0  0  0  0  0  0  0  0  0  0  0
   45.5160   22.6980   29.1930 N   0  0  0  0  0  0  0  0  0  0  0  0
   45.6120   21.3720   28.8920 C   0  0  0  0  0  0  0  0  0  0  0  0
   40.7250   21.9990   36.3790 C   0  0  0  0  0  0  0  0  0  0  0  0
   39.8070   22.5030   35.5010 N   0  0  0  0  0  0  0  0  0  0  0  0
   38.8990   23.1550   36.1670 O   0  0  0  0  0  0  0  0  0  0  0  0
   39.1850   23.1010   37.4750 C   0  0  0  0  0  0  0  0  0  0  0  0
   40.3070   22.3890   37.5960 N   0  0  0  0  0  0  0  0  0  0  0  0
   38.4160   23.7070   38.5760 C   0  0  0  0  0  0  0  0  0  0  0  0
   39.2510   23.8820   39.6670 F   0  0  0  0  0  0  0  0  0  0  0  0
   37.3570   22.8920   38.9510 F   0  0  0  0  0  0  0  0  0  0  0  0
   37.9560   24.9480   38.2180 F   0  0  0  0  0  0  0  0  0  0  0  0
   44.0928   19.1934   37.9262 H   0  0  0  0  0  0  0  0  0  0  0  0
   42.0109   20.5310   38.2950 H   0  0  0  0  0  0  0  0  0  0  0  0
   46.3692   19.9251   34.2320 H   0  0  0  0  0  0  0  0  0  0  0  0
   47.2894   19.8434   31.9432 H   0  0  0  0  0  0  0  0  0  0  0  0
   45.7124   18.1339   29.1624 H   0  0  0  0  0  0  0  0  0  0  0  0
   46.0374   21.6291   25.5466 H   0  0  0  0  0  0  0  0  0  0  0  0
   45.5330   24.6907   28.4186 H   0  0  0  0  0  0  0  0  0  0  0  0
  1  2  2  0
  3 21  1  0
  3  2  1  0
  4  3  2  0
  5  4  1  0
  5  6  2  0
  6  1  1  0
  7  5  1  0
  8  7  2  0
  9  8  1  0
 10 11  1  0
 10  9  2  0
 11  7  1  0
 12 10  1  0
 13 12  1  0
 14 13  2  0
 15 14  1  0
 15 20  2  0
 16 17  2  0
 16 15  1  0
 17 18  1  0
 18 19  2  0
 20 19  1  0
 20 12  1  0
 21 25  1  0
 22 23  1  0
 22 21  2  0
 23 24  1  0
 24 25  2  0
 24 26  1  0
 26 28  1  0
 26 27  1  0
 29 26  1  0
  1 30  1  0
  2 31  1  0
  8 32  1  0
  9 33  1  0
 13 34  1  0
 16 35  1  0
 18 36  1  0
M  ISO  7  30  14  31  14  32  14  33  14  34  14  35  14  36  14
M  END
>  <minimizedAffinity>  (1) 
-3.88869286

>  <minimizedRMSD>  (1) 
1.14544058

$$$$
