
     RDKit          3D

 35 38  0  0  0  0  0  0  0  0999 V2000
   43.6470   19.7440   37.0920 C   0  0  0  0  0  0  0  0  0  0  0  0
   42.4880   20.4970   37.3040 C   0  0  0  0  0  0  0  0  0  0  0  0
   41.9350   21.2020   36.2310 C   0  0  0  0  0  0  0  0  0  0  0  0
   42.5820   21.1020   35.0250 N   0  0  0  0  0  0  0  0  0  0  0  0
   43.6810   20.3780   34.8540 C   0  0  0  0  0  0  0  0  0  0  0  0
   44.2290   19.6860   35.8950 N   0  0  0  0  0  0  0  0  0  0  0  0
   44.3300   20.3210   33.5140 C   0  0  0  0  0  0  0  0  0  0  0  0
   45.7200   20.0830   33.3630 C   0  0  0  0  0  0  0  0  0  0  0  0
   46.2110   20.0530   32.0970 C   0  0  0  0  0  0  0  0  0  0  0  0
   45.3790   20.2490   31.0070 C   0  0  0  0  0  0  0  0  0  0  0  0
   43.7420   20.5000   31.8240 S   0  0  0  0  0  0  0  0  0  0  0  0
   45.5200   20.2870   29.5870 C   0  0  0  0  0  0  0  0  0  0  0  0
   44.3990   20.5110   28.8190 C   0  0  0  0  0  0  0  0  0  0  0  0
   44.6080   20.5360   27.4360 C   0  0  0  0  0  0  0  0  0  0  0  0
   45.8850   20.3440   26.9000 C   0  0  0  0  0  0  0  0  0  0  0  0
   46.9860   20.1200   27.7330 C   0  0  0  0  0  0  0  0  0  0  0  0
   46.7950   20.0910   29.1200 C   0  0  0  0  0  0  0  0  0  0  0  0
   40.7360   21.9960   36.3880 C   0  0  0  0  0  0  0  0  0  0  0  0
   39.8190   22.5040   35.5130 N   0  0  0  0  0  0  0  0  0  0  0  0
   38.9100   23.1580   36.1720 O   0  0  0  0  0  0  0  0  0  0  0  0
   39.1930   23.1020   37.4750 C   0  0  0  0  0  0  0  0  0  0  0  0
   40.3120   22.3880   37.5980 N   0  0  0  0  0  0  0  0  0  0  0  0
   38.4180   23.7090   38.5680 C   0  0  0  0  0  0  0  0  0  0  0  0
   39.2510   23.8710   39.6630 F   0  0  0  0  0  0  0  0  0  0  0  0
   37.3660   22.8950   38.9620 F   0  0  0  0  0  0  0  0  0  0  0  0
   37.9520   24.9440   38.1990 F   0  0  0  0  0  0  0  0  0  0  0  0
   44.0879   19.1873   37.9320 H   0  0  0  0  0  0  0  0  0  0  0  0
   42.0193   20.5340   38.2984 H   0  0  0  0  0  0  0  0  0  0  0  0
   46.3731   19.9292   34.2347 H   0  0  0  0  0  0  0  0  0  0  0  0
   47.2836   19.8706   31.9351 H   0  0  0  0  0  0  0  0  0  0  0  0
   43.4042   20.6605   29.2640 H   0  0  0  0  0  0  0  0  0  0  0  0
   43.7565   20.7090   26.7614 H   0  0  0  0  0  0  0  0  0  0  0  0
   46.0256   20.3694   25.8093 H   0  0  0  0  0  0  0  0  0  0  0  0
   47.9878   19.9687   27.3047 H   0  0  0  0  0  0  0  0  0  0  0  0
   47.6351   19.9177   29.8087 H   0  0  0  0  0  0  0  0  0  0  0  0
  1  2  2  0
  3 18  1  0
  3  2  1  0
  4  3  2  0
  5  4  1  0
  5  6  2  0
  6  1  1  0
  7  5  1  0
  8  7  2  0
  9  8  1  0
 10 11  1  0
 10  9  2  0
 11  7  1  0
 12 10  1  0
 13 12  2  0
 14 13  1  0
 15 14  2  0
 15 16  1  0
 16 17  2  0
 17 12  1  0
 18 22  1  0
 19 20  1  0
 19 18  2  0
 20 21  1  0
 21 22  2  0
 21 23  1  0
 23 25  1  0
 23 24  1  0
 26 23  1  0
  1 27  1  0
  2 28  1  0
  8 29  1  0
  9 30  1  0
 13 31  1  0
 14 32  1  0
 15 33  1  0
 16 34  1  0
 17 35  1  0
M  ISO  8  27  14  28  14  29  14  30  14  31  14  32  14  33  14  34  14
M  ISO  1  35  14
M  END
>  <minimizedAffinity>  (1) 
-3.88676429

>  <minimizedRMSD>  (1) 
0.384279817

$$$$
