
     RDKit          3D

 32 35  0  0  0  0  0  0  0  0999 V2000
   43.6230   19.7240   37.0890 C   0  0  0  0  0  0  0  0  0  0  0  0
   42.4810   20.5000   37.3140 C   0  0  0  0  0  0  0  0  0  0  0  0
   41.9580   21.2100   36.2440 C   0  0  0  0  0  0  0  0  0  0  0  0
   42.5980   21.1040   35.0230 N   0  0  0  0  0  0  0  0  0  0  0  0
   43.6810   20.3540   34.8600 C   0  0  0  0  0  0  0  0  0  0  0  0
   44.1980   19.6570   35.9010 N   0  0  0  0  0  0  0  0  0  0  0  0
   44.3410   20.2750   33.5270 C   0  0  0  0  0  0  0  0  0  0  0  0
   45.7210   20.0090   33.3810 C   0  0  0  0  0  0  0  0  0  0  0  0
   46.1980   19.9690   32.1090 C   0  0  0  0  0  0  0  0  0  0  0  0
   45.3840   20.1760   30.9960 C   0  0  0  0  0  0  0  0  0  0  0  0
   43.7460   20.4640   31.8210 S   0  0  0  0  0  0  0  0  0  0  0  0
   45.5140   20.2060   29.6660 N   0  0  0  0  0  0  0  0  0  0  0  0
   44.6220   19.8720   28.7150 C   0  0  0  0  0  0  0  0  0  0  0  0
   45.2130   20.0700   27.4700 C   0  0  0  0  0  0  0  0  0  0  0  0
   46.4740   20.5290   27.6940 N   0  0  0  0  0  0  0  0  0  0  0  0
   46.6530   20.6100   29.0320 C   0  0  0  0  0  0  0  0  0  0  0  0
   40.7680   22.0520   36.3700 C   0  0  0  0  0  0  0  0  0  0  0  0
   39.9270   22.6530   35.5080 N   0  0  0  0  0  0  0  0  0  0  0  0
   39.0150   23.2960   36.1740 O   0  0  0  0  0  0  0  0  0  0  0  0
   39.2220   23.1410   37.4710 C   0  0  0  0  0  0  0  0  0  0  0  0
   40.2940   22.3810   37.5840 N   0  0  0  0  0  0  0  0  0  0  0  0
   38.4170   23.7050   38.5690 C   0  0  0  0  0  0  0  0  0  0  0  0
   39.2430   23.8810   39.6850 F   0  0  0  0  0  0  0  0  0  0  0  0
   37.3930   22.8750   38.9300 F   0  0  0  0  0  0  0  0  0  0  0  0
   37.9570   24.9750   38.2320 F   0  0  0  0  0  0  0  0  0  0  0  0
   44.0546   19.1534   37.9246 H   0  0  0  0  0  0  0  0  0  0  0  0
   42.0128   20.5455   38.3083 H   0  0  0  0  0  0  0  0  0  0  0  0
   46.3743   19.8432   34.2503 H   0  0  0  0  0  0  0  0  0  0  0  0
   47.2675   19.7655   31.9515 H   0  0  0  0  0  0  0  0  0  0  0  0
   43.6001   19.5051   28.8914 H   0  0  0  0  0  0  0  0  0  0  0  0
   44.7479   19.8893   26.4897 H   0  0  0  0  0  0  0  0  0  0  0  0
   47.5728   20.9486   29.5313 H   0  0  0  0  0  0  0  0  0  0  0  0
  1  2  2  0
  3 17  1  0
  3  2  1  0
  4  3  2  0
  5  4  1  0
  5  6  2  0
  6  1  1  0
  7  5  1  0
  8  7  2  0
  9  8  1  0
 10 11  1  0
 10  9  2  0
 11  7  1  0
 12 10  1  0
 13 12  1  0
 14 15  1  0
 14 13  2  0
 15 16  2  0
 16 12  1  0
 17 21  1  0
 18 19  1  0
 18 17  2  0
 19 20  1  0
 20 21  2  0
 20 22  1  0
 22 24  1  0
 22 23  1  0
 25 22  1  0
  1 26  1  0
  2 27  1  0
  8 28  1  0
  9 29  1  0
 13 30  1  0
 14 31  1  0
 16 32  1  0
M  ISO  7  26  14  27  14  28  14  29  14  30  14  31  14  32  14
M  END
>  <minimizedAffinity>  (1) 
-3.8854835

>  <minimizedRMSD>  (1) 
0.0151190758

$$$$
