
     RDKit          3D

 31 34  0  0  0  0  0  0  0  0999 V2000
   43.6250   19.7250   37.0860 C   0  0  0  0  0  0  0  0  0  0  0  0
   42.4830   20.5000   37.3100 C   0  0  0  0  0  0  0  0  0  0  0  0
   41.9480   21.2200   36.2370 C   0  0  0  0  0  0  0  0  0  0  0  0
   42.5920   21.1150   35.0220 N   0  0  0  0  0  0  0  0  0  0  0  0
   43.6770   20.3700   34.8440 C   0  0  0  0  0  0  0  0  0  0  0  0
   44.2000   19.6650   35.8920 N   0  0  0  0  0  0  0  0  0  0  0  0
   44.3330   20.2950   33.5170 C   0  0  0  0  0  0  0  0  0  0  0  0
   45.7040   20.0360   33.3620 C   0  0  0  0  0  0  0  0  0  0  0  0
   46.2340   19.9820   32.1140 C   0  0  0  0  0  0  0  0  0  0  0  0
   45.3920   20.1860   31.0180 C   0  0  0  0  0  0  0  0  0  0  0  0
   43.7380   20.4730   31.8240 S   0  0  0  0  0  0  0  0  0  0  0  0
   45.6250   20.1940   29.6260 N   0  0  0  0  0  0  0  0  0  0  0  0
   46.5510   20.9140   28.9740 C   0  0  0  0  0  0  0  0  0  0  0  0
   46.4770   20.6660   27.6680 N   0  0  0  0  0  0  0  0  0  0  0  0
   45.4990   19.7810   27.4800 C   0  0  0  0  0  0  0  0  0  0  0  0
   44.9900   19.5050   28.6920 N   0  0  0  0  0  0  0  0  0  0  0  0
   40.7580   22.0580   36.3700 C   0  0  0  0  0  0  0  0  0  0  0  0
   39.9070   22.6560   35.5040 N   0  0  0  0  0  0  0  0  0  0  0  0
   38.9990   23.2950   36.1670 O   0  0  0  0  0  0  0  0  0  0  0  0
   39.2140   23.1460   37.4680 C   0  0  0  0  0  0  0  0  0  0  0  0
   40.2960   22.3850   37.5890 N   0  0  0  0  0  0  0  0  0  0  0  0
   38.4160   23.7090   38.5730 C   0  0  0  0  0  0  0  0  0  0  0  0
   39.2420   23.8800   39.6870 F   0  0  0  0  0  0  0  0  0  0  0  0
   37.3940   22.8700   38.9360 F   0  0  0  0  0  0  0  0  0  0  0  0
   37.9400   24.9610   38.2300 F   0  0  0  0  0  0  0  0  0  0  0  0
   44.0568   19.1515   37.9195 H   0  0  0  0  0  0  0  0  0  0  0  0
   42.0169   20.5424   38.3055 H   0  0  0  0  0  0  0  0  0  0  0  0
   46.3425   19.8783   34.2437 H   0  0  0  0  0  0  0  0  0  0  0  0
   47.3057   19.7815   31.9681 H   0  0  0  0  0  0  0  0  0  0  0  0
   47.2639   21.6051   29.4474 H   0  0  0  0  0  0  0  0  0  0  0  0
   45.1718   19.3583   26.5186 H   0  0  0  0  0  0  0  0  0  0  0  0
  1  2  2  0
  3 17  1  0
  3  2  1  0
  4  3  2  0
  5  4  1  0
  5  6  2  0
  6  1  1  0
  7  5  1  0
  8  7  2  0
  9  8  1  0
 10 11  1  0
 10  9  2  0
 11  7  1  0
 12 10  1  0
 13 12  1  0
 14 13  2  0
 15 14  1  0
 15 16  2  0
 16 12  1  0
 17 21  1  0
 18 19  1  0
 18 17  2  0
 19 20  1  0
 20 21  2  0
 20 22  1  0
 22 24  1  0
 22 23  1  0
 25 22  1  0
  1 26  1  0
  2 27  1  0
  8 28  1  0
  9 29  1  0
 13 30  1  0
 15 31  1  0
M  ISO  6  26  14  27  14  28  14  29  14  30  14  31  14
M  END
>  <minimizedAffinity>  (1) 
-3.88381028

>  <minimizedRMSD>  (1) 
0.0191902872

$$$$
