
     RDKit          3D

 32 35  0  0  0  0  0  0  0  0999 V2000
   43.6240   19.7240   37.0890 C   0  0  0  0  0  0  0  0  0  0  0  0
   42.4770   20.5070   37.3010 C   0  0  0  0  0  0  0  0  0  0  0  0
   41.9490   21.2190   36.2340 C   0  0  0  0  0  0  0  0  0  0  0  0
   42.5940   21.1100   35.0160 N   0  0  0  0  0  0  0  0  0  0  0  0
   43.6770   20.3610   34.8480 C   0  0  0  0  0  0  0  0  0  0  0  0
   44.2060   19.6550   35.8930 N   0  0  0  0  0  0  0  0  0  0  0  0
   44.3180   20.2980   33.5100 C   0  0  0  0  0  0  0  0  0  0  0  0
   45.6970   20.0660   33.3620 C   0  0  0  0  0  0  0  0  0  0  0  0
   46.2260   20.0220   32.1070 C   0  0  0  0  0  0  0  0  0  0  0  0
   45.3910   20.2080   31.0070 C   0  0  0  0  0  0  0  0  0  0  0  0
   43.7400   20.4610   31.8170 S   0  0  0  0  0  0  0  0  0  0  0  0
   45.5820   20.2270   29.6260 C   0  0  0  0  0  0  0  0  0  0  0  0
   45.2390   19.2350   28.7550 C   0  0  0  0  0  0  0  0  0  0  0  0
   45.6050   19.6610   27.4720 C   0  0  0  0  0  0  0  0  0  0  0  0
   46.1540   20.8960   27.6240 N   0  0  0  0  0  0  0  0  0  0  0  0
   46.1330   21.2170   28.9090 N   0  0  0  0  0  0  0  0  0  0  0  0
   40.7590   22.0580   36.3650 C   0  0  0  0  0  0  0  0  0  0  0  0
   39.9140   22.6610   35.5010 N   0  0  0  0  0  0  0  0  0  0  0  0
   39.0000   23.3030   36.1660 O   0  0  0  0  0  0  0  0  0  0  0  0
   39.2150   23.1450   37.4700 C   0  0  0  0  0  0  0  0  0  0  0  0
   40.2960   22.3800   37.5880 N   0  0  0  0  0  0  0  0  0  0  0  0
   38.4160   23.7040   38.5760 C   0  0  0  0  0  0  0  0  0  0  0  0
   39.2490   23.8830   39.6890 F   0  0  0  0  0  0  0  0  0  0  0  0
   37.3870   22.8690   38.9250 F   0  0  0  0  0  0  0  0  0  0  0  0
   37.9360   24.9580   38.2320 F   0  0  0  0  0  0  0  0  0  0  0  0
   44.0505   19.1558   37.9287 H   0  0  0  0  0  0  0  0  0  0  0  0
   42.0066   20.5546   38.2942 H   0  0  0  0  0  0  0  0  0  0  0  0
   46.3379   19.9225   34.2444 H   0  0  0  0  0  0  0  0  0  0  0  0
   47.3016   19.8414   31.9636 H   0  0  0  0  0  0  0  0  0  0  0  0
   44.7629   18.2774   29.0126 H   0  0  0  0  0  0  0  0  0  0  0  0
   45.4746   19.1077   26.5303 H   0  0  0  0  0  0  0  0  0  0  0  0
   46.5251   21.4849   26.8648 H   0  0  0  0  0  0  0  0  0  0  0  0
  1  2  2  0
  3 17  1  0
  3  2  1  0
  4  3  2  0
  5  4  1  0
  5  6  2  0
  6  1  1  0
  7  5  1  0
  8  7  2  0
  9  8  1  0
 10 11  1  0
 10  9  2  0
 11  7  1  0
 12 10  1  0
 13 12  1  0
 14 15  1  0
 14 13  2  0
 15 16  1  0
 16 12  2  0
 17 21  1  0
 18 19  1  0
 18 17  2  0
 19 20  1  0
 20 21  2  0
 20 22  1  0
 22 24  1  0
 22 23  1  0
 25 22  1  0
  1 26  1  0
  2 27  1  0
  8 28  1  0
  9 29  1  0
 13 30  1  0
 14 31  1  0
 15 32  1  0
M  ISO  7  26  14  27  14  28  14  29  14  30  14  31  14  32   9
M  END
>  <minimizedAffinity>  (1) 
-3.88240719

>  <minimizedRMSD>  (1) 
0.0169429854

$$$$
