
     RDKit          3D

 33 36  0  0  0  0  0  0  0  0999 V2000
   43.6250   19.7200   37.0910 C   0  0  0  0  0  0  0  0  0  0  0  0
   42.4830   20.4970   37.3090 C   0  0  0  0  0  0  0  0  0  0  0  0
   41.9580   21.2100   36.2410 C   0  0  0  0  0  0  0  0  0  0  0  0
   42.6040   21.1020   35.0280 N   0  0  0  0  0  0  0  0  0  0  0  0
   43.6870   20.3530   34.8630 C   0  0  0  0  0  0  0  0  0  0  0  0
   44.2070   19.6540   35.8960 N   0  0  0  0  0  0  0  0  0  0  0  0
   44.3430   20.2790   33.5220 C   0  0  0  0  0  0  0  0  0  0  0  0
   45.7160   20.0190   33.3700 C   0  0  0  0  0  0  0  0  0  0  0  0
   46.2070   19.9770   32.1030 C   0  0  0  0  0  0  0  0  0  0  0  0
   45.3820   20.1830   31.0040 C   0  0  0  0  0  0  0  0  0  0  0  0
   43.7430   20.4660   31.8170 S   0  0  0  0  0  0  0  0  0  0  0  0
   45.4990   20.2190   29.6010 C   0  0  0  0  0  0  0  0  0  0  0  0
   45.4720   21.4280   28.9430 C   0  0  0  0  0  0  0  0  0  0  0  0
   45.5970   21.3390   27.5510 C   0  0  0  0  0  0  0  0  0  0  0  0
   45.7340   20.1420   26.9100 N   0  0  0  0  0  0  0  0  0  0  0  0
   45.7520   19.0000   27.6190 C   0  0  0  0  0  0  0  0  0  0  0  0
   45.6340   19.0360   28.9790 N   0  0  0  0  0  0  0  0  0  0  0  0
   40.7650   22.0520   36.3710 C   0  0  0  0  0  0  0  0  0  0  0  0
   39.9210   22.6460   35.4990 N   0  0  0  0  0  0  0  0  0  0  0  0
   39.0090   23.2910   36.1660 O   0  0  0  0  0  0  0  0  0  0  0  0
   39.2250   23.1410   37.4780 C   0  0  0  0  0  0  0  0  0  0  0  0
   40.3020   22.3810   37.5930 N   0  0  0  0  0  0  0  0  0  0  0  0
   38.4220   23.7090   38.5740 C   0  0  0  0  0  0  0  0  0  0  0  0
   39.2420   23.8810   39.6870 F   0  0  0  0  0  0  0  0  0  0  0  0
   37.3950   22.8730   38.9290 F   0  0  0  0  0  0  0  0  0  0  0  0
   37.9390   24.9590   38.2260 F   0  0  0  0  0  0  0  0  0  0  0  0
   44.0530   19.1491   37.9282 H   0  0  0  0  0  0  0  0  0  0  0  0
   42.0127   20.5418   38.3024 H   0  0  0  0  0  0  0  0  0  0  0  0
   46.3672   19.8560   34.2414 H   0  0  0  0  0  0  0  0  0  0  0  0
   47.2769   19.7763   31.9449 H   0  0  0  0  0  0  0  0  0  0  0  0
   45.3610   22.3877   29.4689 H   0  0  0  0  0  0  0  0  0  0  0  0
   45.5844   22.2636   26.9552 H   0  0  0  0  0  0  0  0  0  0  0  0
   45.8620   18.0349   27.1028 H   0  0  0  0  0  0  0  0  0  0  0  0
  1  2  2  0
  3 18  1  0
  3  2  1  0
  4  3  2  0
  5  4  1  0
  5  6  2  0
  6  1  1  0
  7  5  1  0
  8  7  2  0
  9  8  1  0
 10 11  1  0
 10  9  2  0
 11  7  1  0
 12 10  1  0
 13 12  2  0
 14 13  1  0
 15 14  2  0
 15 16  1  0
 16 17  2  0
 17 12  1  0
 18 22  1  0
 19 20  1  0
 19 18  2  0
 20 21  1  0
 21 22  2  0
 21 23  1  0
 23 25  1  0
 23 24  1  0
 26 23  1  0
  1 27  1  0
  2 28  1  0
  8 29  1  0
  9 30  1  0
 13 31  1  0
 14 32  1  0
 16 33  1  0
M  ISO  7  27  14  28  14  29  14  30  14  31  14  32  14  33  14
M  END
>  <minimizedAffinity>  (1) 
-3.88063312

>  <minimizedRMSD>  (1) 
0.0215371475

$$$$
