
     RDKit          3D

 32 35  0  0  0  0  0  0  0  0999 V2000
   43.6180   19.7340   37.0800 C   0  0  0  0  0  0  0  0  0  0  0  0
   42.4800   20.5060   37.3040 C   0  0  0  0  0  0  0  0  0  0  0  0
   41.9480   21.2280   36.2250 C   0  0  0  0  0  0  0  0  0  0  0  0
   42.5880   21.1220   35.0140 N   0  0  0  0  0  0  0  0  0  0  0  0
   43.6720   20.3740   34.8390 C   0  0  0  0  0  0  0  0  0  0  0  0
   44.2010   19.6650   35.8830 N   0  0  0  0  0  0  0  0  0  0  0  0
   44.3090   20.3070   33.5040 C   0  0  0  0  0  0  0  0  0  0  0  0
   45.6870   20.0750   33.3590 C   0  0  0  0  0  0  0  0  0  0  0  0
   46.2400   20.0130   32.1200 C   0  0  0  0  0  0  0  0  0  0  0  0
   45.4090   20.1840   31.0200 C   0  0  0  0  0  0  0  0  0  0  0  0
   43.7340   20.4510   31.8080 S   0  0  0  0  0  0  0  0  0  0  0  0
   45.5800   20.1900   29.6490 C   0  0  0  0  0  0  0  0  0  0  0  0
   46.6280   20.5170   28.9040 C   0  0  0  0  0  0  0  0  0  0  0  0
   46.5530   20.4390   27.5420 C   0  0  0  0  0  0  0  0  0  0  0  0
   45.2810   19.9880   26.9940 C   0  0  0  0  0  0  0  0  0  0  0  0
   44.3010   19.7170   28.5980 S   0  0  0  0  0  0  0  0  0  0  0  0
   40.7600   22.0620   36.3680 C   0  0  0  0  0  0  0  0  0  0  0  0
   39.9070   22.6600   35.4950 N   0  0  0  0  0  0  0  0  0  0  0  0
   38.9970   23.3000   36.1640 O   0  0  0  0  0  0  0  0  0  0  0  0
   39.2160   23.1470   37.4700 C   0  0  0  0  0  0  0  0  0  0  0  0
   40.2990   22.3860   37.5910 N   0  0  0  0  0  0  0  0  0  0  0  0
   38.4160   23.7080   38.5720 C   0  0  0  0  0  0  0  0  0  0  0  0
   39.2450   23.8760   39.6850 F   0  0  0  0  0  0  0  0  0  0  0  0
   37.3950   22.8670   38.9450 F   0  0  0  0  0  0  0  0  0  0  0  0
   37.9280   24.9460   38.2280 F   0  0  0  0  0  0  0  0  0  0  0  0
   44.0486   19.1639   37.9164 H   0  0  0  0  0  0  0  0  0  0  0  0
   42.0119   20.5482   38.2985 H   0  0  0  0  0  0  0  0  0  0  0  0
   46.3187   19.9434   34.2498 H   0  0  0  0  0  0  0  0  0  0  0  0
   47.3173   19.8322   31.9910 H   0  0  0  0  0  0  0  0  0  0  0  0
   47.5594   20.8517   29.3840 H   0  0  0  0  0  0  0  0  0  0  0  0
   47.4041   20.7016   26.8965 H   0  0  0  0  0  0  0  0  0  0  0  0
   44.9747   19.8449   25.9472 H   0  0  0  0  0  0  0  0  0  0  0  0
  1  2  2  0
  3 17  1  0
  3  2  1  0
  4  3  2  0
  5  4  1  0
  5  6  2  0
  6  1  1  0
  7  5  1  0
  8  7  2  0
  9  8  1  0
 10 11  1  0
 10  9  2  0
 11  7  1  0
 12 10  1  0
 13 12  2  0
 14 13  1  0
 15 14  2  0
 15 16  1  0
 16 12  1  0
 17 21  1  0
 18 19  1  0
 18 17  2  0
 19 20  1  0
 20 21  2  0
 20 22  1  0
 22 24  1  0
 22 23  1  0
 25 22  1  0
  1 26  1  0
  2 27  1  0
  8 28  1  0
  9 29  1  0
 13 30  1  0
 14 31  1  0
 15 32  1  0
M  ISO  7  26  14  27  14  28  14  29  14  30  14  31  14  32  14
M  END
>  <minimizedAffinity>  (1) 
-3.88284969

>  <minimizedRMSD>  (1) 
0.0237929095

$$$$
