
     RDKit          3D

 31 34  0  0  0  0  0  0  0  0999 V2000
   42.5300   20.9760   36.7570 C   0  0  0  0  0  0  0  0  0  0  0  0
   41.4980   21.6500   37.4150 C   0  0  0  0  0  0  0  0  0  0  0  0
   40.4920   22.1870   36.6290 C   0  0  0  0  0  0  0  0  0  0  0  0
   40.5840   22.0170   35.2780 N   0  0  0  0  0  0  0  0  0  0  0  0
   41.5860   21.3670   34.6820 C   0  0  0  0  0  0  0  0  0  0  0  0
   42.5650   20.8420   35.4200 N   0  0  0  0  0  0  0  0  0  0  0  0
   41.6030   21.2370   33.2650 N   0  0  0  0  0  0  0  0  0  0  0  0
   42.7100   21.2870   32.5050 C   0  0  0  0  0  0  0  0  0  0  0  0
   42.4260   21.1360   31.2170 N   0  0  0  0  0  0  0  0  0  0  0  0
   41.0920   20.9840   31.1320 C   0  0  0  0  0  0  0  0  0  0  0  0
   40.2370   20.7930   30.0630 C   0  0  0  0  0  0  0  0  0  0  0  0
   40.7560   20.7420   28.9130 O   0  0  0  0  0  0  0  0  0  0  0  0
   38.9210   20.6740   30.3220 N   0  0  0  0  0  0  0  0  0  0  0  0
   38.4230   20.7360   31.5690 C   0  0  0  0  0  0  0  0  0  0  0  0
   37.0130   20.5970   31.7160 N   0  0  0  0  0  0  0  0  0  0  0  0
   39.2300   20.9230   32.6520 N   0  0  0  0  0  0  0  0  0  0  0  0
   40.5600   21.0460   32.4240 C   0  0  0  0  0  0  0  0  0  0  0  0
   39.3950   22.8990   37.2710 C   0  0  0  0  0  0  0  0  0  0  0  0
   38.5220   23.7510   36.6090 C   0  0  0  0  0  0  0  0  0  0  0  0
   37.6560   24.2040   37.5630 N   0  0  0  0  0  0  0  0  0  0  0  0
   38.0080   23.6400   38.7330 C   0  0  0  0  0  0  0  0  0  0  0  0
   39.0550   22.8490   38.5830 N   0  0  0  0  0  0  0  0  0  0  0  0
   43.3434   20.5391   37.3549 H   0  0  0  0  0  0  0  0  0  0  0  0
   41.4851   21.7498   38.5104 H   0  0  0  0  0  0  0  0  0  0  0  0
   43.7256   21.4347   32.9010 H   0  0  0  0  0  0  0  0  0  0  0  0
   38.2718   20.5301   29.5354 H   0  0  0  0  0  0  0  0  0  0  0  0
   36.5863   20.6379   32.6526 H   0  0  0  0  0  0  0  0  0  0  0  0
   36.4201   20.4556   30.8857 H   0  0  0  0  0  0  0  0  0  0  0  0
   38.5266   24.0078   35.5394 H   0  0  0  0  0  0  0  0  0  0  0  0
   37.4917   23.8148   39.6885 H   0  0  0  0  0  0  0  0  0  0  0  0
   39.5224   22.3008   39.3192 H   0  0  0  0  0  0  0  0  0  0  0  0
  1  2  2  0
  3 18  1  0
  3  2  1  0
  4  3  2  0
  5  4  1  0
  5  6  2  0
  6  1  1  0
  7  5  1  0
  8  7  1  0
  9  8  2  0
 10  9  1  0
 10 17  2  0
 11 13  1  0
 11 10  1  0
 12 11  2  0
 13 14  1  0
 14 15  1  0
 14 16  2  0
 17 16  1  0
 17  7  1  0
 18 22  1  0
 19 18  2  0
 19 20  1  0
 20 21  2  0
 22 21  1  0
  1 23  1  0
  2 24  1  0
  8 25  1  0
 13 26  1  0
 15 27  1  0
 15 28  1  0
 19 29  1  0
 21 30  1  0
 22 31  1  0
M  ISO  7  23  14  24  14  25  14  26   9  29  14  30  14  31   9
M  END
>  <minimizedAffinity>  (1) 
-4.47481632

>  <minimizedRMSD>  (1) 
0.932469726

$$$$
