
     RDKit          3D

 28 31  0  0  0  0  0  0  0  0999 V2000
   42.5300   20.8110   37.0400 C   0  0  0  0  0  0  0  0  0  0  0  0
   41.4400   21.4990   37.5770 C   0  0  0  0  0  0  0  0  0  0  0  0
   40.5790   22.1710   36.7170 C   0  0  0  0  0  0  0  0  0  0  0  0
   40.8390   22.1270   35.3770 N   0  0  0  0  0  0  0  0  0  0  0  0
   41.8990   21.4530   34.8940 C   0  0  0  0  0  0  0  0  0  0  0  0
   42.7380   20.8010   35.7110 N   0  0  0  0  0  0  0  0  0  0  0  0
   42.1600   21.4150   33.4930 N   0  0  0  0  0  0  0  0  0  0  0  0
   43.3350   21.6050   32.8810 C   0  0  0  0  0  0  0  0  0  0  0  0
   43.1770   21.4900   31.5450 N   0  0  0  0  0  0  0  0  0  0  0  0
   41.8870   21.2230   31.3080 C   0  0  0  0  0  0  0  0  0  0  0  0
   41.1610   21.0070   30.1360 C   0  0  0  0  0  0  0  0  0  0  0  0
   39.8590   20.7610   30.2500 N   0  0  0  0  0  0  0  0  0  0  0  0
   39.2470   20.7180   31.4630 C   0  0  0  0  0  0  0  0  0  0  0  0
   39.8940   20.9200   32.6480 N   0  0  0  0  0  0  0  0  0  0  0  0
   41.2290   21.1730   32.5350 C   0  0  0  0  0  0  0  0  0  0  0  0
   39.4420   22.8860   37.3010 C   0  0  0  0  0  0  0  0  0  0  0  0
   38.6070   23.7260   36.5820 C   0  0  0  0  0  0  0  0  0  0  0  0
   37.6830   24.1910   37.4810 N   0  0  0  0  0  0  0  0  0  0  0  0
   37.9760   23.6400   38.6740 C   0  0  0  0  0  0  0  0  0  0  0  0
   39.0280   22.8540   38.5850 N   0  0  0  0  0  0  0  0  0  0  0  0
   43.2216   20.2749   37.7066 H   0  0  0  0  0  0  0  0  0  0  0  0
   41.2654   21.5091   38.6630 H   0  0  0  0  0  0  0  0  0  0  0  0
   44.2859   21.8221   33.3896 H   0  0  0  0  0  0  0  0  0  0  0  0
   41.6493   21.0391   29.1508 H   0  0  0  0  0  0  0  0  0  0  0  0
   38.1676   20.5082   31.4914 H   0  0  0  0  0  0  0  0  0  0  0  0
   38.6722   23.9693   35.5112 H   0  0  0  0  0  0  0  0  0  0  0  0
   37.4112   23.8225   39.6001 H   0  0  0  0  0  0  0  0  0  0  0  0
   39.4553   22.3153   39.3519 H   0  0  0  0  0  0  0  0  0  0  0  0
  1  2  2  0
  3 16  1  0
  3  2  1  0
  4  3  2  0
  5  4  1  0
  5  6  2  0
  6  1  1  0
  7  5  1  0
  8  7  1  0
  9  8  2  0
 10  9  1  0
 10 15  2  0
 11 12  2  0
 11 10  1  0
 12 13  1  0
 13 14  2  0
 15 14  1  0
 15  7  1  0
 16 20  1  0
 17 16  2  0
 17 18  1  0
 18 19  2  0
 20 19  1  0
  1 21  1  0
  2 22  1  0
  8 23  1  0
 11 24  1  0
 13 25  1  0
 17 26  1  0
 19 27  1  0
 20 28  1  0
M  ISO  8  21  14  22  14  23  14  24  14  25  14  26  14  27  14  28   9
M  END
>  <minimizedAffinity>  (1) 
-4.21828556

>  <minimizedRMSD>  (1) 
0.150716767

$$$$
