
     RDKit          3D

 30 32  0  0  0  0  0  0  0  0999 V2000
   42.5310   20.7350   37.1030 C   0  0  0  0  0  0  0  0  0  0  0  0
   41.4480   21.4550   37.6290 C   0  0  0  0  0  0  0  0  0  0  0  0
   40.6330   22.1680   36.7370 C   0  0  0  0  0  0  0  0  0  0  0  0
   40.9330   22.1270   35.3950 N   0  0  0  0  0  0  0  0  0  0  0  0
   41.9870   21.4180   34.9480 C   0  0  0  0  0  0  0  0  0  0  0  0
   42.7730   20.7330   35.7860 N   0  0  0  0  0  0  0  0  0  0  0  0
   42.3160   21.3610   33.5680 N   0  0  0  0  0  0  0  0  0  0  0  0
   43.5610   21.4220   33.0440 C   0  0  0  0  0  0  0  0  0  0  0  0
   43.7800   21.3600   31.6980 C   0  0  0  0  0  0  0  0  0  0  0  0
   45.1540   21.4270   31.1330 C   0  0  0  0  0  0  0  0  0  0  0  0
   42.7080   21.2310   30.8450 C   0  0  0  0  0  0  0  0  0  0  0  0
   42.8980   21.1740   29.6160 O   0  0  0  0  0  0  0  0  0  0  0  0
   41.4590   21.1690   31.3260 N   0  0  0  0  0  0  0  0  0  0  0  0
   41.3100   21.2350   32.6610 C   0  0  0  0  0  0  0  0  0  0  0  0
   40.1340   21.1760   33.0990 O   0  0  0  0  0  0  0  0  0  0  0  0
   39.5100   22.9150   37.2780 C   0  0  0  0  0  0  0  0  0  0  0  0
   38.7500   23.8210   36.5460 C   0  0  0  0  0  0  0  0  0  0  0  0
   37.8010   24.3050   37.4050 N   0  0  0  0  0  0  0  0  0  0  0  0
   38.0070   23.6970   38.6020 C   0  0  0  0  0  0  0  0  0  0  0  0
   39.0230   22.8630   38.5470 N   0  0  0  0  0  0  0  0  0  0  0  0
   43.1874   20.1669   37.7786 H   0  0  0  0  0  0  0  0  0  0  0  0
   41.2437   21.4604   38.7098 H   0  0  0  0  0  0  0  0  0  0  0  0
   44.4216   21.5245   33.7214 H   0  0  0  0  0  0  0  0  0  0  0  0
   45.8863   21.4627   31.9530 H   0  0  0  0  0  0  0  0  0  0  0  0
   45.3397   20.5368   30.5140 H   0  0  0  0  0  0  0  0  0  0  0  0
   45.2523   22.3310   30.5140 H   0  0  0  0  0  0  0  0  0  0  0  0
   40.6469   21.0747   30.6995 H   0  0  0  0  0  0  0  0  0  0  0  0
   38.8847   24.0937   35.4889 H   0  0  0  0  0  0  0  0  0  0  0  0
   37.4017   23.8787   39.5023 H   0  0  0  0  0  0  0  0  0  0  0  0
   39.3814   22.2815   39.3179 H   0  0  0  0  0  0  0  0  0  0  0  0
  1  2  2  0
  3 16  1  0
  3  2  1  0
  4  3  2  0
  5  4  1  0
  5  6  2  0
  6  1  1  0
  7  5  1  0
  8  7  1  0
  9  8  2  0
 10  9  1  0
 11 13  1  0
 11  9  1  0
 12 11  2  0
 13 14  1  0
 14 15  2  0
 14  7  1  0
 16 20  1  0
 17 16  2  0
 17 18  1  0
 18 19  2  0
 20 19  1  0
  1 21  1  0
  2 22  1  0
  8 23  1  0
 10 24  1  0
 10 25  1  0
 10 26  1  0
 13 27  1  0
 17 28  1  0
 19 29  1  0
 20 30  1  0
M  ISO  8  21  14  22  14  23  14  24   8  25   8  26   8  27   9  28  14
M  ISO  2  29  14  30   9
M  END
>  <minimizedAffinity>  (1) 
-4.06106472

>  <minimizedRMSD>  (1) 
0.15808697

$$$$
