
     RDKit          3D

 25 27  0  0  0  0  0  0  0  0999 V2000
   42.5420   20.8130   37.0610 C   0  0  0  0  0  0  0  0  0  0  0  0
   41.4510   21.4940   37.6060 C   0  0  0  0  0  0  0  0  0  0  0  0
   40.5920   22.1520   36.7160 C   0  0  0  0  0  0  0  0  0  0  0  0
   40.8730   22.0880   35.3820 N   0  0  0  0  0  0  0  0  0  0  0  0
   41.9290   21.4240   34.9080 C   0  0  0  0  0  0  0  0  0  0  0  0
   42.7540   20.7930   35.7400 N   0  0  0  0  0  0  0  0  0  0  0  0
   39.4370   22.8760   37.2670 C   0  0  0  0  0  0  0  0  0  0  0  0
   38.5970   23.6740   36.5030 C   0  0  0  0  0  0  0  0  0  0  0  0
   37.6740   24.1520   37.3710 N   0  0  0  0  0  0  0  0  0  0  0  0
   37.9590   23.6560   38.5940 C   0  0  0  0  0  0  0  0  0  0  0  0
   39.0310   22.8720   38.5650 N   0  0  0  0  0  0  0  0  0  0  0  0
   42.1350   21.4200   33.4710 C   0  0  0  0  0  0  0  0  0  0  0  0
   43.2260   22.0340   32.8730 C   0  0  0  0  0  0  0  0  0  0  0  0
   43.3860   22.0070   31.4890 C   0  0  0  0  0  0  0  0  0  0  0  0
   42.4670   21.3730   30.7030 N   0  0  0  0  0  0  0  0  0  0  0  0
   41.4190   20.7880   31.3240 C   0  0  0  0  0  0  0  0  0  0  0  0
   41.2450   20.8020   32.6660 N   0  0  0  0  0  0  0  0  0  0  0  0
   43.2383   20.2845   37.7287 H   0  0  0  0  0  0  0  0  0  0  0  0
   41.2732   21.5129   38.6914 H   0  0  0  0  0  0  0  0  0  0  0  0
   38.6661   23.8751   35.4238 H   0  0  0  0  0  0  0  0  0  0  0  0
   37.3763   23.8739   39.5012 H   0  0  0  0  0  0  0  0  0  0  0  0
   39.4615   22.3698   39.3546 H   0  0  0  0  0  0  0  0  0  0  0  0
   43.9720   22.5472   33.4975 H   0  0  0  0  0  0  0  0  0  0  0  0
   44.2557   22.4982   31.0281 H   0  0  0  0  0  0  0  0  0  0  0  0
   40.6681   20.2735   30.7064 H   0  0  0  0  0  0  0  0  0  0  0  0
  1  2  2  0
  3  7  1  0
  3  2  1  0
  4  3  2  0
  5  4  1  0
  5  6  2  0
  6  1  1  0
  7 11  1  0
  8  7  2  0
  8  9  1  0
  9 10  2  0
 11 10  1  0
 12  5  1  0
 13 12  2  0
 14 13  1  0
 15 16  1  0
 15 14  2  0
 16 17  2  0
 17 12  1  0
  1 18  1  0
  2 19  1  0
  8 20  1  0
 10 21  1  0
 11 22  1  0
 13 23  1  0
 14 24  1  0
 16 25  1  0
M  ISO  8  18  14  19  14  20  14  21  14  22   9  23  14  24  14  25  14
M  END
>  <minimizedAffinity>  (1) 
-3.74467182

>  <minimizedRMSD>  (1) 
0.146775752

$$$$
