
     RDKit          3D

 23 25  0  0  0  0  0  0  0  0999 V2000
   42.5360   20.8200   36.9820 C   0  0  0  0  0  0  0  0  0  0  0  0
   41.4460   21.4980   37.5270 C   0  0  0  0  0  0  0  0  0  0  0  0
   40.5690   22.1860   36.7070 C   0  0  0  0  0  0  0  0  0  0  0  0
   40.8300   22.1610   35.3520 N   0  0  0  0  0  0  0  0  0  0  0  0
   41.8850   21.4980   34.8700 C   0  0  0  0  0  0  0  0  0  0  0  0
   42.7350   20.8330   35.6550 N   0  0  0  0  0  0  0  0  0  0  0  0
   39.4380   22.8890   37.2890 C   0  0  0  0  0  0  0  0  0  0  0  0
   38.5880   23.7210   36.5650 C   0  0  0  0  0  0  0  0  0  0  0  0
   37.6700   24.1810   37.4640 N   0  0  0  0  0  0  0  0  0  0  0  0
   37.9740   23.6370   38.6570 C   0  0  0  0  0  0  0  0  0  0  0  0
   39.0470   22.8460   38.5820 N   0  0  0  0  0  0  0  0  0  0  0  0
   41.9610   21.6100   33.3950 C   0  0  0  0  0  0  0  0  0  0  0  0
   42.2660   20.5640   32.2910 C   0  0  0  0  0  0  0  0  0  0  0  0
   42.1310   21.6360   30.8250 S   0  0  0  0  0  0  0  0  0  0  0  0
   41.7210   23.1890   31.8340 C   0  0  0  0  0  0  0  0  0  0  0  0
   41.7120   22.8660   33.0160 N   0  0  0  0  0  0  0  0  0  0  0  0
   43.2310   20.2758   37.6384 H   0  0  0  0  0  0  0  0  0  0  0  0
   41.2825   21.4858   38.6147 H   0  0  0  0  0  0  0  0  0  0  0  0
   38.6446   23.9580   35.4923 H   0  0  0  0  0  0  0  0  0  0  0  0
   37.4073   23.8217   39.5815 H   0  0  0  0  0  0  0  0  0  0  0  0
   39.4847   22.3148   39.3483 H   0  0  0  0  0  0  0  0  0  0  0  0
   42.4960   19.4912   32.3702 H   0  0  0  0  0  0  0  0  0  0  0  0
   41.5270   24.1944   31.4321 H   0  0  0  0  0  0  0  0  0  0  0  0
  1  2  2  0
  3  7  1  0
  3  2  1  0
  4  3  2  0
  5  4  1  0
  5  6  2  0
  6  1  1  0
  7 11  1  0
  8  7  2  0
  8  9  1  0
  9 10  2  0
 11 10  1  0
 12  5  1  0
 13 12  2  0
 14 15  1  0
 14 13  1  0
 15 16  2  0
 16 12  1  0
  1 17  1  0
  2 18  1  0
  8 19  1  0
 10 20  1  0
 11 21  1  0
 13 22  1  0
 15 23  1  0
M  ISO  7  17  14  18  14  19  14  20  14  21   9  22  14  23  14
M  END
>  <minimizedAffinity>  (1) 
-3.75558329

>  <minimizedRMSD>  (1) 
0.683439314

$$$$
