
     RDKit          3D

 24 26  0  0  0  0  0  0  0  0999 V2000
   42.5570   20.8300   36.9730 C   0  0  0  0  0  0  0  0  0  0  0  0
   41.4650   21.5120   37.5620 C   0  0  0  0  0  0  0  0  0  0  0  0
   40.5850   22.1480   36.7040 C   0  0  0  0  0  0  0  0  0  0  0  0
   40.8280   22.0750   35.3560 N   0  0  0  0  0  0  0  0  0  0  0  0
   41.8700   21.4220   34.8400 C   0  0  0  0  0  0  0  0  0  0  0  0
   42.7340   20.8010   35.6340 N   0  0  0  0  0  0  0  0  0  0  0  0
   39.4430   22.8640   37.2710 C   0  0  0  0  0  0  0  0  0  0  0  0
   38.5850   23.6730   36.5060 C   0  0  0  0  0  0  0  0  0  0  0  0
   37.6600   24.1580   37.3770 N   0  0  0  0  0  0  0  0  0  0  0  0
   37.9770   23.6470   38.5950 C   0  0  0  0  0  0  0  0  0  0  0  0
   39.0450   22.8660   38.5530 N   0  0  0  0  0  0  0  0  0  0  0  0
   41.8880   21.5050   33.3820 C   0  0  0  0  0  0  0  0  0  0  0  0
   40.9170   20.9430   32.5810 C   0  0  0  0  0  0  0  0  0  0  0  0
   41.2590   21.2210   31.2620 C   0  0  0  0  0  0  0  0  0  0  0  0
   42.4190   21.9380   31.3030 N   0  0  0  0  0  0  0  0  0  0  0  0
   42.7820   22.1000   32.5730 N   0  0  0  0  0  0  0  0  0  0  0  0
   43.2786   20.3113   37.6212 H   0  0  0  0  0  0  0  0  0  0  0  0
   41.3225   21.5353   38.6525 H   0  0  0  0  0  0  0  0  0  0  0  0
   38.6486   23.8725   35.4261 H   0  0  0  0  0  0  0  0  0  0  0  0
   37.4097   23.8585   39.5134 H   0  0  0  0  0  0  0  0  0  0  0  0
   39.4801   22.3642   39.3403 H   0  0  0  0  0  0  0  0  0  0  0  0
   40.0358   20.3796   32.9217 H   0  0  0  0  0  0  0  0  0  0  0  0
   40.7029   20.9213   30.3615 H   0  0  0  0  0  0  0  0  0  0  0  0
   42.9308   22.2959   30.4839 H   0  0  0  0  0  0  0  0  0  0  0  0
  1  2  2  0
  3  7  1  0
  3  2  1  0
  4  3  2  0
  5  4  1  0
  5  6  2  0
  6  1  1  0
  7 11  1  0
  8  7  2  0
  8  9  1  0
  9 10  2  0
 11 10  1  0
 12  5  1  0
 13 12  1  0
 14 15  1  0
 14 13  2  0
 15 16  1  0
 16 12  2  0
  1 17  1  0
  2 18  1  0
  8 19  1  0
 10 20  1  0
 11 21  1  0
 13 22  1  0
 14 23  1  0
 15 24  1  0
M  ISO  8  17  14  18  14  19  14  20  14  21   9  22  14  23  14  24   9
M  END
>  <minimizedAffinity>  (1) 
-3.7341094

>  <minimizedRMSD>  (1) 
0.200261518

$$$$
