
     RDKit          3D

 24 26  0  0  0  0  0  0  0  0999 V2000
   42.5460   20.8070   37.0550 C   0  0  0  0  0  0  0  0  0  0  0  0
   41.4450   21.4950   37.5720 C   0  0  0  0  0  0  0  0  0  0  0  0
   40.5800   22.1650   36.7260 C   0  0  0  0  0  0  0  0  0  0  0  0
   40.8750   22.1050   35.3940 N   0  0  0  0  0  0  0  0  0  0  0  0
   41.9280   21.4480   34.9000 C   0  0  0  0  0  0  0  0  0  0  0  0
   42.7580   20.8040   35.7160 N   0  0  0  0  0  0  0  0  0  0  0  0
   39.4410   22.8730   37.2900 C   0  0  0  0  0  0  0  0  0  0  0  0
   38.5930   23.6840   36.5180 C   0  0  0  0  0  0  0  0  0  0  0  0
   37.6660   24.1620   37.3910 N   0  0  0  0  0  0  0  0  0  0  0  0
   37.9570   23.6570   38.6040 C   0  0  0  0  0  0  0  0  0  0  0  0
   39.0330   22.8710   38.5680 N   0  0  0  0  0  0  0  0  0  0  0  0
   42.0980   21.4840   33.4520 C   0  0  0  0  0  0  0  0  0  0  0  0
   41.2060   20.9780   32.5400 C   0  0  0  0  0  0  0  0  0  0  0  0
   41.7190   21.2040   31.2770 C   0  0  0  0  0  0  0  0  0  0  0  0
   42.9190   21.8450   31.4750 C   0  0  0  0  0  0  0  0  0  0  0  0
   43.0960   21.9870   32.7680 O   0  0  0  0  0  0  0  0  0  0  0  0
   43.2336   20.2733   37.7276 H   0  0  0  0  0  0  0  0  0  0  0  0
   41.2654   21.5037   38.6572 H   0  0  0  0  0  0  0  0  0  0  0  0
   38.6634   23.8885   35.4395 H   0  0  0  0  0  0  0  0  0  0  0  0
   37.3772   23.8673   39.5148 H   0  0  0  0  0  0  0  0  0  0  0  0
   39.4619   22.3670   39.3572 H   0  0  0  0  0  0  0  0  0  0  0  0
   40.2527   20.4811   32.7729 H   0  0  0  0  0  0  0  0  0  0  0  0
   41.2628   20.9287   30.3147 H   0  0  0  0  0  0  0  0  0  0  0  0
   43.6101   22.1803   30.6876 H   0  0  0  0  0  0  0  0  0  0  0  0
  1  2  2  0
  3  7  1  0
  3  2  1  0
  4  3  2  0
  5  4  1  0
  5  6  2  0
  6  1  1  0
  7 11  1  0
  8  7  2  0
  8  9  1  0
  9 10  2  0
 11 10  1  0
 12  5  1  0
 13 12  2  0
 14 15  2  0
 14 13  1  0
 15 16  1  0
 16 12  1  0
  1 17  1  0
  2 18  1  0
  8 19  1  0
 10 20  1  0
 11 21  1  0
 13 22  1  0
 14 23  1  0
 15 24  1  0
M  ISO  8  17  14  18  14  19  14  20  14  21   9  22  14  23  14  24  14
M  END
>  <minimizedAffinity>  (1) 
-3.72264695

>  <minimizedRMSD>  (1) 
0.164820954

$$$$
