
     RDKit          3D

 19 20  0  0  0  0  0  0  0  0999 V2000
   42.5430   20.8040   37.0470 C   0  0  0  0  0  0  0  0  0  0  0  0
   41.4410   21.4860   37.5910 C   0  0  0  0  0  0  0  0  0  0  0  0
   40.5930   22.1560   36.7130 C   0  0  0  0  0  0  0  0  0  0  0  0
   40.8900   22.1060   35.3640 N   0  0  0  0  0  0  0  0  0  0  0  0
   41.9530   21.4400   34.9060 C   0  0  0  0  0  0  0  0  0  0  0  0
   42.7750   20.7940   35.7290 N   0  0  0  0  0  0  0  0  0  0  0  0
   39.4530   22.8620   37.2710 C   0  0  0  0  0  0  0  0  0  0  0  0
   38.6010   23.6670   36.5000 C   0  0  0  0  0  0  0  0  0  0  0  0
   37.6750   24.1420   37.3780 N   0  0  0  0  0  0  0  0  0  0  0  0
   37.9650   23.6470   38.5950 C   0  0  0  0  0  0  0  0  0  0  0  0
   39.0310   22.8760   38.5450 N   0  0  0  0  0  0  0  0  0  0  0  0
   42.2340   21.4090   33.4770 C   0  0  0  0  0  0  0  0  0  0  0  0
   41.4680   20.8710   32.6570 O   0  0  0  0  0  0  0  0  0  0  0  0
   43.2291   20.2672   37.7186 H   0  0  0  0  0  0  0  0  0  0  0  0
   41.2545   21.4903   38.6751 H   0  0  0  0  0  0  0  0  0  0  0  0
   38.6668   23.8702   35.4209 H   0  0  0  0  0  0  0  0  0  0  0  0
   37.3893   23.8580   39.5083 H   0  0  0  0  0  0  0  0  0  0  0  0
   39.4611   22.3765   39.3364 H   0  0  0  0  0  0  0  0  0  0  0  0
   43.1580   21.8788   33.1089 H   0  0  0  0  0  0  0  0  0  0  0  0
  1  2  2  0
  3  7  1  0
  3  2  1  0
  4  3  2  0
  5  4  1  0
  5  6  2  0
  6  1  1  0
  7 11  1  0
  8  7  2  0
  8  9  1  0
  9 10  2  0
 11 10  1  0
 12  5  1  0
 13 12  2  0
  1 14  1  0
  2 15  1  0
  8 16  1  0
 10 17  1  0
 11 18  1  0
 12 19  1  0
M  ISO  6  14  14  15  14  16  14  17  14  18   9  19   6
M  END
>  <minimizedAffinity>  (1) 
-3.62987447

>  <minimizedRMSD>  (1) 
0.0875599459

$$$$
