
     RDKit          3D

 24 26  0  0  0  0  0  0  0  0999 V2000
   42.5490   20.8010   37.0490 C   0  0  0  0  0  0  0  0  0  0  0  0
   41.4480   21.4830   37.5920 C   0  0  0  0  0  0  0  0  0  0  0  0
   40.6010   22.1500   36.7240 C   0  0  0  0  0  0  0  0  0  0  0  0
   40.8860   22.1110   35.3730 N   0  0  0  0  0  0  0  0  0  0  0  0
   41.9470   21.4480   34.9070 C   0  0  0  0  0  0  0  0  0  0  0  0
   42.7830   20.7920   35.7310 N   0  0  0  0  0  0  0  0  0  0  0  0
   39.4470   22.8680   37.2690 C   0  0  0  0  0  0  0  0  0  0  0  0
   38.5950   23.6700   36.5010 C   0  0  0  0  0  0  0  0  0  0  0  0
   37.6640   24.1480   37.3750 N   0  0  0  0  0  0  0  0  0  0  0  0
   37.9670   23.6430   38.5850 C   0  0  0  0  0  0  0  0  0  0  0  0
   39.0340   22.8740   38.5430 N   0  0  0  0  0  0  0  0  0  0  0  0
   42.1480   21.4800   33.4250 C   0  0  0  0  0  0  0  0  0  0  0  0
   41.6220   20.2640   32.6450 C   0  0  0  0  0  0  0  0  0  0  0  0
   41.0330   21.6040   32.4820 C   0  0  0  0  0  0  0  0  0  0  0  0
   43.2336   20.2628   37.7210 H   0  0  0  0  0  0  0  0  0  0  0  0
   41.2640   21.4870   38.6765 H   0  0  0  0  0  0  0  0  0  0  0  0
   38.6622   23.8718   35.4218 H   0  0  0  0  0  0  0  0  0  0  0  0
   37.3916   23.8484   39.4997 H   0  0  0  0  0  0  0  0  0  0  0  0
   39.4662   22.3752   39.3338 H   0  0  0  0  0  0  0  0  0  0  0  0
   43.0903   22.0342   33.5469 H   0  0  0  0  0  0  0  0  0  0  0  0
   42.2232   19.8202   31.8378 H   0  0  0  0  0  0  0  0  0  0  0  0
   41.2452   19.2638   32.9050 H   0  0  0  0  0  0  0  0  0  0  0  0
   41.1807   22.1489   31.5379 H   0  0  0  0  0  0  0  0  0  0  0  0
   40.0095   21.9985   32.5643 H   0  0  0  0  0  0  0  0  0  0  0  0
  1  2  2  0
  3  7  1  0
  3  2  1  0
  4  3  2  0
  5  4  1  0
  5  6  2  0
  6  1  1  0
  7 11  1  0
  8  7  2  0
  8  9  1  0
  9 10  2  0
 11 10  1  0
 12  5  1  0
 13 12  1  0
 14 13  1  0
 14 12  1  0
  1 15  1  0
  2 16  1  0
  8 17  1  0
 10 18  1  0
 11 19  1  0
 12 20  1  0
 13 21  1  0
 13 22  1  0
 14 23  1  0
 14 24  1  0
M  ISO  8  15  14  16  14  17  14  18  14  19   9  20  13  21  13  22  13
M  ISO  2  23  13  24  13
M  END
>  <minimizedAffinity>  (1) 
-3.69299006

>  <minimizedRMSD>  (1) 
0.0825383663

$$$$
