
     RDKit          3D

 30 32  0  0  0  0  0  0  0  0999 V2000
   42.5180   20.8420   36.9200 C   0  0  0  0  0  0  0  0  0  0  0  0
   41.4450   21.5090   37.5330 C   0  0  0  0  0  0  0  0  0  0  0  0
   40.5620   22.1850   36.7080 C   0  0  0  0  0  0  0  0  0  0  0  0
   40.7940   22.1560   35.3640 N   0  0  0  0  0  0  0  0  0  0  0  0
   41.8230   21.5140   34.8090 C   0  0  0  0  0  0  0  0  0  0  0  0
   42.6870   20.8560   35.5770 N   0  0  0  0  0  0  0  0  0  0  0  0
   39.4240   22.8960   37.3080 C   0  0  0  0  0  0  0  0  0  0  0  0
   38.5710   23.7360   36.5900 C   0  0  0  0  0  0  0  0  0  0  0  0
   37.6710   24.1860   37.4970 N   0  0  0  0  0  0  0  0  0  0  0  0
   37.9840   23.6300   38.7000 C   0  0  0  0  0  0  0  0  0  0  0  0
   39.0470   22.8420   38.6100 N   0  0  0  0  0  0  0  0  0  0  0  0
   42.2740   21.6820   30.5670 C   0  0  0  0  0  0  0  0  0  0  0  0
   41.9230   22.8090   31.2930 C   0  0  0  0  0  0  0  0  0  0  0  0
   41.7900   22.7070   32.6480 C   0  0  0  0  0  0  0  0  0  0  0  0
   41.9840   21.5420   33.3590 C   0  0  0  0  0  0  0  0  0  0  0  0
   42.3330   20.4280   32.6230 C   0  0  0  0  0  0  0  0  0  0  0  0
   42.4710   20.5140   31.2510 C   0  0  0  0  0  0  0  0  0  0  0  0
   42.4210   21.9010   28.8400 S   0  0  0  0  0  0  0  0  0  0  0  0
   42.3550   23.3850   28.5790 O   0  0  0  0  0  0  0  0  0  0  0  0
   41.3530   21.2060   28.0840 O   0  0  0  0  0  0  0  0  0  0  0  0
   43.2384   20.2951   37.5461 H   0  0  0  0  0  0  0  0  0  0  0  0
   41.3113   21.4950   38.6248 H   0  0  0  0  0  0  0  0  0  0  0  0
   38.6193   23.9800   35.5185 H   0  0  0  0  0  0  0  0  0  0  0  0
   37.4252   23.8117   39.6299 H   0  0  0  0  0  0  0  0  0  0  0  0
   39.4916   22.3037   39.3673 H   0  0  0  0  0  0  0  0  0  0  0  0
   41.7542   23.7704   30.7857 H   0  0  0  0  0  0  0  0  0  0  0  0
   41.5103   23.6117   33.2078 H   0  0  0  0  0  0  0  0  0  0  0  0
   42.5021   19.4671   33.1311 H   0  0  0  0  0  0  0  0  0  0  0  0
   42.7493   19.6106   30.6885 H   0  0  0  0  0  0  0  0  0  0  0  0
   43.6045   21.3579   28.4144 H   0  0  0  0  0  0  0  0  0  0  0  0
  1  2  2  0
  3  7  1  0
  3  2  1  0
  4  3  2  0
  5  4  1  0
  5  6  2  0
  6  1  1  0
  7 11  1  0
  8  7  2  0
  8  9  1  0
  9 10  2  0
 11 10  1  0
 12 17  2  0
 12 13  1  0
 13 14  2  0
 14 15  1  0
 15  5  1  0
 16 15  2  0
 17 16  1  0
 18 12  1  0
 19 18  2  0
 20 18  2  0
  1 21  1  0
  2 22  1  0
  8 23  1  0
 10 24  1  0
 11 25  1  0
 13 26  1  0
 14 27  1  0
 16 28  1  0
 17 29  1  0
 18 30  1  0
M  ISO  8  21  14  22  14  23  14  24  14  25   9  26  14  27  14  28  14
M  ISO  2  29  14  30  11
M  END
>  <minimizedAffinity>  (1) 
-3.64857674

>  <minimizedRMSD>  (1) 
0.547541559

$$$$
