
     RDKit          3D

 24 26  0  0  0  0  0  0  0  0999 V2000
   42.5390   20.8110   37.0200 C   0  0  0  0  0  0  0  0  0  0  0  0
   41.4470   21.4870   37.5840 C   0  0  0  0  0  0  0  0  0  0  0  0
   40.5960   22.1600   36.7090 C   0  0  0  0  0  0  0  0  0  0  0  0
   40.8720   22.1230   35.3590 N   0  0  0  0  0  0  0  0  0  0  0  0
   41.9290   21.4610   34.8820 C   0  0  0  0  0  0  0  0  0  0  0  0
   42.7630   20.8040   35.7020 N   0  0  0  0  0  0  0  0  0  0  0  0
   39.4580   22.8690   37.2720 C   0  0  0  0  0  0  0  0  0  0  0  0
   38.6070   23.6840   36.5360 C   0  0  0  0  0  0  0  0  0  0  0  0
   37.6790   24.1580   37.4120 N   0  0  0  0  0  0  0  0  0  0  0  0
   37.9760   23.6400   38.6160 C   0  0  0  0  0  0  0  0  0  0  0  0
   39.0370   22.8670   38.5490 N   0  0  0  0  0  0  0  0  0  0  0  0
   42.1540   21.4680   33.4380 C   0  0  0  0  0  0  0  0  0  0  0  0
   43.0280   20.7160   32.6830 C   0  0  0  0  0  0  0  0  0  0  0  0
   42.8860   21.0670   31.3860 N   0  0  0  0  0  0  0  0  0  0  0  0
   41.9510   22.0210   31.2840 C   0  0  0  0  0  0  0  0  0  0  0  0
   41.5290   22.2410   32.5430 N   0  0  0  0  0  0  0  0  0  0  0  0
   43.2317   20.2705   37.6819 H   0  0  0  0  0  0  0  0  0  0  0  0
   41.2699   21.4860   38.6697 H   0  0  0  0  0  0  0  0  0  0  0  0
   38.6704   23.9027   35.4598 H   0  0  0  0  0  0  0  0  0  0  0  0
   37.4063   23.8369   39.5362 H   0  0  0  0  0  0  0  0  0  0  0  0
   39.4672   22.3537   39.3315 H   0  0  0  0  0  0  0  0  0  0  0  0
   43.7240   19.9577   33.0710 H   0  0  0  0  0  0  0  0  0  0  0  0
   41.6025   22.5184   30.3669 H   0  0  0  0  0  0  0  0  0  0  0  0
   40.8039   22.9295   32.7903 H   0  0  0  0  0  0  0  0  0  0  0  0
  1  2  2  0
  3  7  1  0
  3  2  1  0
  4  3  2  0
  5  4  1  0
  5  6  2  0
  6  1  1  0
  7 11  1  0
  8  7  2  0
  8  9  1  0
  9 10  2  0
 11 10  1  0
 12  5  1  0
 13 12  2  0
 14 13  1  0
 15 14  2  0
 15 16  1  0
 16 12  1  0
  1 17  1  0
  2 18  1  0
  8 19  1  0
 10 20  1  0
 11 21  1  0
 13 22  1  0
 15 23  1  0
 16 24  1  0
M  ISO  8  17  14  18  14  19  14  20  14  21   9  22  14  23  14  24   9
M  END
>  <minimizedAffinity>  (1) 
-3.69637561

>  <minimizedRMSD>  (1) 
0.0720244646

$$$$
