
     RDKit          3D

 41 43  0  0  0  0  0  0  0  0999 V2000
   38.6080   23.6110   37.0370 C   0  0  0  0  0  0  0  0  0  0  0  0
   41.8540   21.7270   37.0000 C   0  0  0  0  0  0  0  0  0  0  0  0
   40.5470   22.0520   37.2980 C   0  0  0  0  0  0  0  0  0  0  0  0
   39.9740   23.2070   36.7680 C   0  0  0  0  0  0  0  0  0  0  0  0
   40.7520   23.9750   35.9630 N   0  0  0  0  0  0  0  0  0  0  0  0
   42.0340   23.6540   35.6720 C   0  0  0  0  0  0  0  0  0  0  0  0
   42.5770   22.5190   36.2010 N   0  0  0  0  0  0  0  0  0  0  0  0
   42.4290   20.4800   37.5890 C   0  0  0  0  0  0  0  0  0  0  0  0
   43.2130   19.6780   36.6220 C   0  0  0  0  0  0  0  0  0  0  0  0
   38.3230   23.2790   38.5060 C   0  0  0  0  0  0  0  0  0  0  0  0
   38.3180   25.0610   36.7580 C   0  0  0  0  0  0  0  0  0  0  0  0
   37.6660   22.7870   36.1890 C   0  0  0  0  0  0  0  0  0  0  0  0
   37.9730   22.8710   34.7890 N   0  0  0  0  0  0  0  0  0  0  0  0
   38.2880   21.8930   33.8890 C   0  0  0  0  0  0  0  0  0  0  0  0
   38.5010   22.4480   32.6740 N   0  0  0  0  0  0  0  0  0  0  0  0
   38.3180   23.7680   32.8210 C   0  0  0  0  0  0  0  0  0  0  0  0
   38.0010   24.0020   34.1020 N   0  0  0  0  0  0  0  0  0  0  0  0
   38.4640   24.7060   31.7120 C   0  0  0  0  0  0  0  0  0  0  0  0
   38.6710   26.0640   31.5880 C   0  0  0  0  0  0  0  0  0  0  0  0
   38.7100   26.3000   30.2240 C   0  0  0  0  0  0  0  0  0  0  0  0
   38.5300   25.1160   29.5690 N   0  0  0  0  0  0  0  0  0  0  0  0
   38.3830   24.1640   30.4820 N   0  0  0  0  0  0  0  0  0  0  0  0
   39.9554   21.3981   37.9555 H   0  0  0  0  0  0  0  0  0  0  0  0
   42.6330   24.3019   35.0151 H   0  0  0  0  0  0  0  0  0  0  0  0
   43.0880   20.7608   38.4238 H   0  0  0  0  0  0  0  0  0  0  0  0
   41.5838   19.8569   37.9166 H   0  0  0  0  0  0  0  0  0  0  0  0
   43.8805   18.9952   37.1680 H   0  0  0  0  0  0  0  0  0  0  0  0
   42.5282   19.0937   35.9898 H   0  0  0  0  0  0  0  0  0  0  0  0
   43.8127   20.3494   35.9898 H   0  0  0  0  0  0  0  0  0  0  0  0
   38.9022   23.9538   39.1535 H   0  0  0  0  0  0  0  0  0  0  0  0
   37.2496   23.4075   38.7094 H   0  0  0  0  0  0  0  0  0  0  0  0
   38.6126   22.2375   38.7094 H   0  0  0  0  0  0  0  0  0  0  0  0
   38.2096   25.6029   37.7091 H   0  0  0  0  0  0  0  0  0  0  0  0
   39.1469   25.4962   36.1805 H   0  0  0  0  0  0  0  0  0  0  0  0
   37.3855   25.1439   36.1805 H   0  0  0  0  0  0  0  0  0  0  0  0
   37.7363   21.7352   36.5034 H   0  0  0  0  0  0  0  0  0  0  0  0
   36.6506   23.1844   36.3337 H   0  0  0  0  0  0  0  0  0  0  0  0
   38.3577   20.8192   34.1172 H   0  0  0  0  0  0  0  0  0  0  0  0
   38.7813   26.8004   32.3976 H   0  0  0  0  0  0  0  0  0  0  0  0
   38.8611   27.2797   29.7472 H   0  0  0  0  0  0  0  0  0  0  0  0
   38.5115   24.9847   28.5476 H   0  0  0  0  0  0  0  0  0  0  0  0
  1 10  1  0
  2  3  2  0
  2  8  1  0
  4  1  1  0
  4  3  1  0
  5  4  2  0
  6  5  1  0
  6  7  2  0
  7  2  1  0
  9  8  1  0
 11  1  1  0
 12  1  1  0
 13 12  1  0
 14 13  1  0
 15 16  1  0
 15 14  2  0
 16 17  2  0
 17 13  1  0
 18 16  1  0
 19 18  1  0
 20 19  2  0
 21 20  1  0
 21 22  1  0
 22 18  2  0
  3 23  1  0
  6 24  1  0
  8 25  1  0
  8 26  1  0
  9 27  1  0
  9 28  1  0
  9 29  1  0
 10 30  1  0
 10 31  1  0
 10 32  1  0
 11 33  1  0
 11 34  1  0
 11 35  1  0
 12 36  1  0
 12 37  1  0
 14 38  1  0
 19 39  1  0
 20 40  1  0
 21 41  1  0
M  ISO  8  23  14  24  14  25   8  26   8  27   8  28   8  29   8  30   8
M  ISO  8  31   8  32   8  33   8  34   8  35   8  36   8  37   8  38  14
M  ISO  3  39  14  40  14  41   9
M  END
>  <minimizedAffinity>  (1) 
-4.5147109

>  <minimizedRMSD>  (1) 
0.516945541

$$$$
