
     RDKit          3D

 47 51  0  0  1  0  0  0  0  0999 V2000
   43.2530   23.8200   34.3460 C   0  0  1  0  0  0  0  0  0  0  0  0
   42.4240   23.6760   33.1010 C   0  0  0  0  0  0  0  0  0  0  0  0
   42.8220   24.5920   31.9880 C   0  0  0  0  0  0  0  0  0  0  0  0
   43.2810   25.9220   32.4910 C   0  0  0  0  0  0  0  0  0  0  0  0
   42.7200   26.1870   33.8520 C   0  0  0  0  0  0  0  0  0  0  0  0
   43.3460   25.2470   34.8520 C   0  0  2  0  0  0  0  0  0  0  0  0
   44.7320   25.6390   35.2100 C   0  0  0  0  0  0  0  0  0  0  0  0
   45.7210   26.1300   34.3550 C   0  0  0  0  0  0  0  0  0  0  0  0
   46.8460   26.3780   35.0150 N   0  0  0  0  0  0  0  0  0  0  0  0
   46.6670   26.0710   36.3150 C   0  0  0  0  0  0  0  0  0  0  0  0
   47.4760   26.1240   37.4500 C   0  0  0  0  0  0  0  0  0  0  0  0
   47.0040   25.7290   38.7060 C   0  0  0  0  0  0  0  0  0  0  0  0
   45.6980   25.2850   38.7640 C   0  0  0  0  0  0  0  0  0  0  0  0
   44.8360   25.2030   37.6840 C   0  0  0  0  0  0  0  0  0  0  0  0
   45.3620   25.6120   36.4550 C   0  0  0  0  0  0  0  0  0  0  0  0
   42.5920   21.2140   36.8150 C   0  0  0  0  0  0  0  0  0  0  0  0
   41.3450   21.5610   37.3360 C   0  0  0  0  0  0  0  0  0  0  0  0
   40.7140   22.7030   36.8390 C   0  0  0  0  0  0  0  0  0  0  0  0
   41.3660   23.4130   35.8650 N   0  0  0  0  0  0  0  0  0  0  0  0
   42.5640   23.0330   35.4020 C   0  0  0  0  0  0  0  0  0  0  0  0
   43.1750   21.9570   35.8600 N   0  0  0  0  0  0  0  0  0  0  0  0
   39.4070   23.0750   37.3740 C   0  0  0  0  0  0  0  0  0  0  0  0
   38.4260   23.7380   36.6480 C   0  0  0  0  0  0  0  0  0  0  0  0
   37.3800   23.8860   37.5150 N   0  0  0  0  0  0  0  0  0  0  0  0
   37.7620   23.3260   38.6900 C   0  0  0  0  0  0  0  0  0  0  0  0
   38.9710   22.8260   38.6480 N   0  0  0  0  0  0  0  0  0  0  0  0
   44.2742   23.4824   34.1153 H   0  0  0  0  0  0  0  0  0  0  0  0
   42.5157   22.6396   32.7439 H   0  0  0  0  0  0  0  0  0  0  0  0
   41.3931   23.9434   33.3760 H   0  0  0  0  0  0  0  0  0  0  0  0
   41.9565   24.7427   31.3260 H   0  0  0  0  0  0  0  0  0  0  0  0
   43.6603   24.1260   31.4494 H   0  0  0  0  0  0  0  0  0  0  0  0
   44.3797   25.9299   32.5441 H   0  0  0  0  0  0  0  0  0  0  0  0
   42.9301   26.7044   31.8020 H   0  0  0  0  0  0  0  0  0  0  0  0
   42.9372   27.2259   34.1411 H   0  0  0  0  0  0  0  0  0  0  0  0
   41.6317   26.0282   33.8346 H   0  0  0  0  0  0  0  0  0  0  0  0
   42.7771   25.3135   35.7911 H   0  0  0  0  0  0  0  0  0  0  0  0
   45.5856   26.2904   33.2752 H   0  0  0  0  0  0  0  0  0  0  0  0
   47.7145   26.7454   34.6007 H   0  0  0  0  0  0  0  0  0  0  0  0
   48.5106   26.4853   37.3550 H   0  0  0  0  0  0  0  0  0  0  0  0
   47.6409   25.7700   39.6019 H   0  0  0  0  0  0  0  0  0  0  0  0
   45.3122   24.9719   39.7454 H   0  0  0  0  0  0  0  0  0  0  0  0
   43.8030   24.8392   37.7863 H   0  0  0  0  0  0  0  0  0  0  0  0
   43.1058   20.3176   37.1924 H   0  0  0  0  0  0  0  0  0  0  0  0
   40.8710   20.9503   38.1185 H   0  0  0  0  0  0  0  0  0  0  0  0
   38.4794   24.0719   35.6013 H   0  0  0  0  0  0  0  0  0  0  0  0
   37.1226   23.2953   39.5846 H   0  0  0  0  0  0  0  0  0  0  0  0
   39.4815   22.3504   39.4057 H   0  0  0  0  0  0  0  0  0  0  0  0
  1  6  1  0
  1 20  1  0
  2  1  1  0
  3  4  1  0
  3  2  1  0
  4  5  1  0
  5  6  1  0
  6  7  1  0
  7 15  1  0
  8  9  1  0
  8  7  2  0
  9 10  1  0
 10 15  2  0
 10 11  1  0
 11 12  2  0
 12 13  1  0
 14 13  2  0
 15 14  1  0
 16 17  2  0
 18 17  1  0
 18 22  1  0
 19 18  2  0
 20 21  2  0
 20 19  1  0
 21 16  1  0
 22 26  1  0
 23 22  2  0
 23 24  1  0
 24 25  2  0
 26 25  1  0
  1 27  1  6
  2 28  1  0
  2 29  1  0
  3 30  1  0
  3 31  1  0
  4 32  1  0
  4 33  1  0
  5 34  1  0
  5 35  1  0
  6 36  1  1
  8 37  1  0
  9 38  1  0
 11 39  1  0
 12 40  1  0
 13 41  1  0
 14 42  1  0
 16 43  1  0
 17 44  1  0
 23 45  1  0
 25 46  1  0
 26 47  1  0
M  ISO  8  27  13  28  13  29  13  30  13  31  13  32  13  33  13  34  13
M  ISO  8  35  13  36  13  37  14  38   9  39  14  40  14  41  14  42  14
M  ISO  5  43  14  44  14  45  14  46  14  47   9
M  END
>  <minimizedAffinity>  (1) 
-6.03020763

>  <minimizedRMSD>  (1) 
3.16848397

$$$$
