
     RDKit          3D

 46 49  0  0  1  0  0  0  0  0999 V2000
   37.9080   22.5350   32.2370 C   0  0  1  0  0  0  0  0  0  0  0  0
   36.6000   22.0040   32.7560 C   0  0  0  0  0  0  0  0  0  0  0  0
   35.4540   22.1890   31.8030 C   0  0  0  0  0  0  0  0  0  0  0  0
   35.5510   23.4770   31.0400 C   0  0  0  0  0  0  0  0  0  0  0  0
   36.3960   24.4490   31.7960 C   0  0  0  0  0  0  0  0  0  0  0  0
   37.8340   23.9620   31.7610 C   0  0  1  0  0  0  0  0  0  0  0  0
   38.7470   24.8630   32.4260 N   0  0  0  0  0  0  0  0  0  0  0  0
   38.4620   25.5370   33.5630 C   0  0  0  0  0  0  0  0  0  0  0  0
   39.4050   26.3760   34.1200 C   0  0  0  0  0  0  0  0  0  0  0  0
   39.1080   27.1300   35.3750 C   0  0  0  0  0  0  0  0  0  0  0  0
   40.6380   26.5570   33.5650 C   0  0  0  0  0  0  0  0  0  0  0  0
   41.5430   27.3050   34.0200 O   0  0  0  0  0  0  0  0  0  0  0  0
   40.9030   25.8760   32.4340 N   0  0  0  0  0  0  0  0  0  0  0  0
   39.9710   25.0580   31.8960 C   0  0  0  0  0  0  0  0  0  0  0  0
   40.3310   24.4620   30.8230 O   0  0  0  0  0  0  0  0  0  0  0  0
   40.9600   22.0460   34.1890 C   0  0  0  0  0  0  0  0  0  0  0  0
   40.6030   22.4370   35.4720 C   0  0  0  0  0  0  0  0  0  0  0  0
   39.3040   22.8750   35.6890 C   0  0  0  0  0  0  0  0  0  0  0  0
   38.4510   22.8950   34.6150 N   0  0  0  0  0  0  0  0  0  0  0  0
   38.8430   22.5090   33.4000 C   0  0  0  0  0  0  0  0  0  0  0  0
   40.0780   22.0920   33.1940 N   0  0  0  0  0  0  0  0  0  0  0  0
   38.9070   23.2860   37.0370 C   0  0  0  0  0  0  0  0  0  0  0  0
   37.9290   24.2310   37.3210 C   0  0  0  0  0  0  0  0  0  0  0  0
   37.8760   24.3080   38.6830 N   0  0  0  0  0  0  0  0  0  0  0  0
   38.7880   23.4450   39.1600 C   0  0  0  0  0  0  0  0  0  0  0  0
   39.4260   22.8130   38.2050 N   0  0  0  0  0  0  0  0  0  0  0  0
   38.2186   21.9219   31.3782 H   0  0  0  0  0  0  0  0  0  0  0  0
   36.7161   20.9285   32.9553 H   0  0  0  0  0  0  0  0  0  0  0  0
   36.3585   22.5749   33.6647 H   0  0  0  0  0  0  0  0  0  0  0  0
   35.4502   21.3534   31.0877 H   0  0  0  0  0  0  0  0  0  0  0  0
   34.5262   22.2163   32.3933 H   0  0  0  0  0  0  0  0  0  0  0  0
   34.5438   23.8975   30.9033 H   0  0  0  0  0  0  0  0  0  0  0  0
   36.0080   23.2846   30.0581 H   0  0  0  0  0  0  0  0  0  0  0  0
   36.3286   25.4423   31.3282 H   0  0  0  0  0  0  0  0  0  0  0  0
   36.0473   24.5237   32.8366 H   0  0  0  0  0  0  0  0  0  0  0  0
   38.1812   23.9662   30.7172 H   0  0  0  0  0  0  0  0  0  0  0  0
   37.4797   25.4166   34.0432 H   0  0  0  0  0  0  0  0  0  0  0  0
   39.3544   26.5044   36.2456 H   0  0  0  0  0  0  0  0  0  0  0  0
   39.7111   28.0495   35.4017 H   0  0  0  0  0  0  0  0  0  0  0  0
   38.0398   27.3912   35.4017 H   0  0  0  0  0  0  0  0  0  0  0  0
   41.8202   25.9789   31.9767 H   0  0  0  0  0  0  0  0  0  0  0  0
   41.9836   21.6942   33.9927 H   0  0  0  0  0  0  0  0  0  0  0  0
   41.3310   22.4007   36.2958 H   0  0  0  0  0  0  0  0  0  0  0  0
   37.3236   24.7987   36.5990 H   0  0  0  0  0  0  0  0  0  0  0  0
   38.9782   23.2863   40.2318 H   0  0  0  0  0  0  0  0  0  0  0  0
   40.1663   22.1054   38.3147 H   0  0  0  0  0  0  0  0  0  0  0  0
  1  2  1  0
  1 20  1  0
  3  2  1  0
  4  5  1  0
  4  3  1  0
  6  5  1  0
  6  1  1  0
  6  7  1  0
  7  8  1  0
  8  9  2  0
  9 10  1  0
 11 12  2  0
 11  9  1  0
 13 11  1  0
 14  7  1  0
 14 13  1  0
 15 14  2  0
 16 17  2  0
 17 18  1  0
 18 22  1  0
 19 18  2  0
 20 19  1  0
 21 20  2  0
 21 16  1  0
 22 23  2  0
 22 26  1  0
 23 24  1  0
 24 25  2  0
 26 25  1  0
  1 27  1  6
  2 28  1  0
  2 29  1  0
  3 30  1  0
  3 31  1  0
  4 32  1  0
  4 33  1  0
  5 34  1  0
  5 35  1  0
  6 36  1  6
  8 37  1  0
 10 38  1  0
 10 39  1  0
 10 40  1  0
 13 41  1  0
 16 42  1  0
 17 43  1  0
 23 44  1  0
 25 45  1  0
 26 46  1  0
M  ISO  8  27  13  28  13  29  13  30  13  31  13  32  13  33  13  34  13
M  ISO  8  35  13  36  13  37  14  38   8  39   8  40   8  41   9  42  14
M  ISO  4  43  14  44  14  45  14  46   9
M  END
>  <minimizedAffinity>  (1) 
-5.84961796

>  <minimizedRMSD>  (1) 
3.90120888

$$$$
