
     RDKit          3D

 46 49  0  0  1  0  0  0  0  0999 V2000
   42.3270   21.3410   33.5470 C   0  0  1  0  0  0  0  0  0  0  0  0
   41.0100   21.4350   32.8260 C   0  0  0  0  0  0  0  0  0  0  0  0
   41.1310   21.6240   31.3480 C   0  0  0  0  0  0  0  0  0  0  0  0
   42.2760   22.5190   30.9900 C   0  0  0  0  0  0  0  0  0  0  0  0
   42.6860   23.3530   32.1540 C   0  0  0  0  0  0  0  0  0  0  0  0
   43.2710   22.4780   33.2110 C   0  0  1  0  0  0  0  0  0  0  0  0
   42.5930   20.7950   37.1410 C   0  0  0  0  0  0  0  0  0  0  0  0
   41.5140   21.5210   37.6570 C   0  0  0  0  0  0  0  0  0  0  0  0
   40.6830   22.2030   36.7760 C   0  0  0  0  0  0  0  0  0  0  0  0
   40.9950   22.1080   35.4520 N   0  0  0  0  0  0  0  0  0  0  0  0
   42.0200   21.4170   34.9860 C   0  0  0  0  0  0  0  0  0  0  0  0
   42.8130   20.7650   35.8220 N   0  0  0  0  0  0  0  0  0  0  0  0
   39.5630   22.9550   37.3210 C   0  0  0  0  0  0  0  0  0  0  0  0
   38.8240   23.8810   36.5880 C   0  0  0  0  0  0  0  0  0  0  0  0
   37.8800   24.3540   37.4540 N   0  0  0  0  0  0  0  0  0  0  0  0
   38.0700   23.7300   38.6210 C   0  0  0  0  0  0  0  0  0  0  0  0
   39.0670   22.8870   38.5790 N   0  0  0  0  0  0  0  0  0  0  0  0
   44.7630   24.7270   36.5700 C   0  0  0  0  0  0  0  0  0  0  0  0
   45.4070   23.5770   36.1740 C   0  0  0  0  0  0  0  0  0  0  0  0
   44.9490   22.8360   35.1050 C   0  0  0  0  0  0  0  0  0  0  0  0
   43.8180   23.1920   34.3610 C   0  0  0  0  0  0  0  0  0  0  0  0
   43.2320   24.3710   34.8360 C   0  0  0  0  0  0  0  0  0  0  0  0
   43.6450   25.1510   35.8970 C   0  0  0  0  0  0  0  0  0  0  0  0
   45.3380   25.6550   37.9100 S   0  0  0  0  0  0  0  0  0  0  0  0
   46.3820   24.8130   38.6300 O   0  0  0  0  0  0  0  0  0  0  0  0
   44.2340   25.8600   38.9300 O   0  0  0  0  0  0  0  0  0  0  0  0
   42.8253   20.4067   33.2490 H   0  0  0  0  0  0  0  0  0  0  0  0
   40.4493   20.5067   33.0100 H   0  0  0  0  0  0  0  0  0  0  0  0
   40.4991   22.3271   33.2173 H   0  0  0  0  0  0  0  0  0  0  0  0
   41.2860   20.6427   30.8758 H   0  0  0  0  0  0  0  0  0  0  0  0
   40.2048   22.0962   30.9885 H   0  0  0  0  0  0  0  0  0  0  0  0
   43.1290   21.9018   30.6715 H   0  0  0  0  0  0  0  0  0  0  0  0
   41.9577   23.1864   30.1756 H   0  0  0  0  0  0  0  0  0  0  0  0
   43.4363   24.0897   31.8311 H   0  0  0  0  0  0  0  0  0  0  0  0
   41.8071   23.8775   32.5571 H   0  0  0  0  0  0  0  0  0  0  0  0
   44.1756   22.0184   32.7861 H   0  0  0  0  0  0  0  0  0  0  0  0
   43.2618   20.2477   37.8215 H   0  0  0  0  0  0  0  0  0  0  0  0
   41.3267   21.5515   38.7405 H   0  0  0  0  0  0  0  0  0  0  0  0
   38.9697   24.1694   35.5365 H   0  0  0  0  0  0  0  0  0  0  0  0
   37.4557   23.9066   39.5162 H   0  0  0  0  0  0  0  0  0  0  0  0
   39.4070   22.2912   39.3473 H   0  0  0  0  0  0  0  0  0  0  0  0
   46.3021   23.2433   36.7194 H   0  0  0  0  0  0  0  0  0  0  0  0
   45.4969   21.9244   34.8244 H   0  0  0  0  0  0  0  0  0  0  0  0
   42.3359   24.7170   34.3000 H   0  0  0  0  0  0  0  0  0  0  0  0
   43.1061   26.0648   36.1879 H   0  0  0  0  0  0  0  0  0  0  0  0
   45.8086   26.8547   37.4450 H   0  0  0  0  0  0  0  0  0  0  0  0
  1 11  1  0
  2  1  1  0
  3  2  1  0
  4  3  1  0
  4  5  1  0
  5  6  1  0
  6  1  1  0
  6 21  1  0
  7  8  2  0
  9 13  1  0
  9  8  1  0
 10  9  2  0
 11 10  1  0
 11 12  2  0
 12  7  1  0
 13 17  1  0
 14 13  2  0
 14 15  1  0
 15 16  2  0
 17 16  1  0
 18 24  1  0
 19 18  2  0
 20 19  1  0
 21 22  1  0
 21 20  2  0
 22 23  2  0
 23 18  1  0
 24 25  2  0
 24 26  2  0
  1 27  1  1
  2 28  1  0
  2 29  1  0
  3 30  1  0
  3 31  1  0
  4 32  1  0
  4 33  1  0
  5 34  1  0
  5 35  1  0
  6 36  1  6
  7 37  1  0
  8 38  1  0
 14 39  1  0
 16 40  1  0
 17 41  1  0
 19 42  1  0
 20 43  1  0
 22 44  1  0
 23 45  1  0
 24 46  1  0
M  ISO  8  27  13  28  13  29  13  30  13  31  13  32  13  33  13  34  13
M  ISO  8  35  13  36  13  37  14  38  14  39  14  40  14  41   9  42  14
M  ISO  4  43  14  44  14  45  14  46  11
M  END
>  <minimizedAffinity>  (1) 
-5.16133022

>  <minimizedRMSD>  (1) 
1.41199327

$$$$
