
     RDKit          3D

 47 51  0  0  1  0  0  0  0  0999 V2000
   39.3750   23.2360   36.0430 C   0  0  1  0  0  0  0  0  0  0  0  0
   39.6770   23.0290   37.4990 C   0  0  0  0  0  0  0  0  0  0  0  0
   38.4750   23.1830   38.3840 C   0  0  0  0  0  0  0  0  0  0  0  0
   37.5820   24.2850   37.9310 C   0  0  0  0  0  0  0  0  0  0  0  0
   38.3260   25.2400   37.0420 C   0  0  0  0  0  0  0  0  0  0  0  0
   38.6680   24.5360   35.7480 C   0  0  1  0  0  0  0  0  0  0  0  0
   39.3710   25.3720   34.8250 N   0  0  0  0  0  0  0  0  0  0  0  0
   40.3810   26.1870   35.1860 C   0  0  0  0  0  0  0  0  0  0  0  0
   40.8210   26.8300   34.0830 N   0  0  0  0  0  0  0  0  0  0  0  0
   40.0650   26.3940   33.0600 C   0  0  0  0  0  0  0  0  0  0  0  0
   40.0410   26.6840   31.7010 C   0  0  0  0  0  0  0  0  0  0  0  0
   40.8540   27.5180   31.2190 O   0  0  0  0  0  0  0  0  0  0  0  0
   39.1660   26.1050   30.8320 N   0  0  0  0  0  0  0  0  0  0  0  0
   38.2790   25.2060   31.3180 C   0  0  0  0  0  0  0  0  0  0  0  0
   37.3390   24.5650   30.4660 N   0  0  0  0  0  0  0  0  0  0  0  0
   38.2940   24.9170   32.6320 N   0  0  0  0  0  0  0  0  0  0  0  0
   39.1500   25.4780   33.5050 C   0  0  0  0  0  0  0  0  0  0  0  0
   41.9040   23.0220   33.4070 C   0  0  0  0  0  0  0  0  0  0  0  0
   43.0830   23.3600   34.0520 C   0  0  0  0  0  0  0  0  0  0  0  0
   43.0320   23.6670   35.4010 C   0  0  0  0  0  0  0  0  0  0  0  0
   41.8100   23.6190   36.0310 N   0  0  0  0  0  0  0  0  0  0  0  0
   40.6990   23.2850   35.3580 C   0  0  0  0  0  0  0  0  0  0  0  0
   40.7500   22.9930   34.0700 N   0  0  0  0  0  0  0  0  0  0  0  0
   44.2680   24.0190   36.1040 C   0  0  0  0  0  0  0  0  0  0  0  0
   44.3510   24.9080   37.1680 C   0  0  0  0  0  0  0  0  0  0  0  0
   45.6680   24.9410   37.5210 N   0  0  0  0  0  0  0  0  0  0  0  0
   46.3150   24.1050   36.6920 C   0  0  0  0  0  0  0  0  0  0  0  0
   45.5100   23.5340   35.8270 N   0  0  0  0  0  0  0  0  0  0  0  0
   38.7111   22.4263   35.7058 H   0  0  0  0  0  0  0  0  0  0  0  0
   40.0795   22.0138   37.6309 H   0  0  0  0  0  0  0  0  0  0  0  0
   40.3996   23.8040   37.7945 H   0  0  0  0  0  0  0  0  0  0  0  0
   37.9070   22.2410   38.3774 H   0  0  0  0  0  0  0  0  0  0  0  0
   38.8293   23.4291   39.3959 H   0  0  0  0  0  0  0  0  0  0  0  0
   36.7355   23.8577   37.3735 H   0  0  0  0  0  0  0  0  0  0  0  0
   37.2203   24.8325   38.8138 H   0  0  0  0  0  0  0  0  0  0  0  0
   37.6952   26.1160   36.8307 H   0  0  0  0  0  0  0  0  0  0  0  0
   39.2479   25.5736   37.5408 H   0  0  0  0  0  0  0  0  0  0  0  0
   37.7287   24.2947   35.2288 H   0  0  0  0  0  0  0  0  0  0  0  0
   40.7790   26.3080   36.2043 H   0  0  0  0  0  0  0  0  0  0  0  0
   39.1793   26.3454   29.8305 H   0  0  0  0  0  0  0  0  0  0  0  0
   36.6720   23.8835   30.8554 H   0  0  0  0  0  0  0  0  0  0  0  0
   37.3248   24.7820   29.4592 H   0  0  0  0  0  0  0  0  0  0  0  0
   41.9219   22.7749   32.3353 H   0  0  0  0  0  0  0  0  0  0  0  0
   44.0370   23.3838   33.5050 H   0  0  0  0  0  0  0  0  0  0  0  0
   43.5255   25.4692   37.6302 H   0  0  0  0  0  0  0  0  0  0  0  0
   47.3985   23.9198   36.7336 H   0  0  0  0  0  0  0  0  0  0  0  0
   45.7646   22.8593   35.0915 H   0  0  0  0  0  0  0  0  0  0  0  0
  1  2  1  0
  2  3  1  0
  4  3  1  0
  5  4  1  0
  6  1  1  0
  6  5  1  0
  7  8  1  0
  7  6  1  0
  9  8  2  0
 10 17  2  0
 10  9  1  0
 11 10  1  0
 12 11  2  0
 13 14  1  0
 13 11  1  0
 14 16  2  0
 15 14  1  0
 16 17  1  0
 17  7  1  0
 18 19  2  0
 18 23  1  0
 19 20  1  0
 20 21  2  0
 20 24  1  0
 22 21  1  0
 22  1  1  0
 23 22  2  0
 24 25  2  0
 25 26  1  0
 27 26  2  0
 28 24  1  0
 28 27  1  0
  1 29  1  6
  2 30  1  0
  2 31  1  0
  3 32  1  0
  3 33  1  0
  4 34  1  0
  4 35  1  0
  5 36  1  0
  5 37  1  0
  6 38  1  6
  8 39  1  0
 13 40  1  0
 15 41  1  0
 15 42  1  0
 18 43  1  0
 19 44  1  0
 25 45  1  0
 27 46  1  0
 28 47  1  0
M  ISO  8  29  13  30  13  31  13  32  13  33  13  34  13  35  13  36  13
M  ISO  8  37  13  38  13  39  14  40   9  43  14  44  14  45  14  46  14
M  ISO  1  47   9
M  END
>  <minimizedAffinity>  (1) 
-5.50225306

>  <minimizedRMSD>  (1) 
6.15404415

$$$$
