
     RDKit          3D

 43 46  0  0  1  0  0  0  0  0999 V2000
   43.0860   23.2480   33.9530 C   0  0  1  0  0  0  0  0  0  0  0  0
   42.3880   22.6140   32.7830 C   0  0  0  0  0  0  0  0  0  0  0  0
   42.7060   23.2460   31.4710 C   0  0  0  0  0  0  0  0  0  0  0  0
   42.7940   24.7450   31.5750 C   0  0  0  0  0  0  0  0  0  0  0  0
   42.1740   25.2500   32.8220 C   0  0  0  0  0  0  0  0  0  0  0  0
   42.8770   24.7420   34.0430 C   0  0  2  0  0  0  0  0  0  0  0  0
   42.6410   21.1120   36.8830 C   0  0  0  0  0  0  0  0  0  0  0  0
   41.4230   21.5390   37.4110 C   0  0  0  0  0  0  0  0  0  0  0  0
   40.7450   22.5560   36.7710 C   0  0  0  0  0  0  0  0  0  0  0  0
   41.3110   23.0950   35.6430 N   0  0  0  0  0  0  0  0  0  0  0  0
   42.4860   22.6510   35.1730 C   0  0  0  0  0  0  0  0  0  0  0  0
   43.1450   21.6800   35.7740 N   0  0  0  0  0  0  0  0  0  0  0  0
   39.4650   23.0060   37.3190 C   0  0  0  0  0  0  0  0  0  0  0  0
   38.4950   23.6890   36.5930 C   0  0  0  0  0  0  0  0  0  0  0  0
   37.4730   23.9130   37.4670 N   0  0  0  0  0  0  0  0  0  0  0  0
   37.8460   23.3780   38.6480 C   0  0  0  0  0  0  0  0  0  0  0  0
   39.0300   22.8270   38.5970 N   0  0  0  0  0  0  0  0  0  0  0  0
   44.0960   25.4920   34.4120 C   0  0  0  0  0  0  0  0  0  0  0  0
   44.2370   26.8590   34.2760 C   0  0  0  0  0  0  0  0  0  0  0  0
   45.3650   27.5750   34.6190 C   0  0  0  0  0  0  0  0  0  0  0  0
   46.4490   26.8970   35.1400 C   0  0  0  0  0  0  0  0  0  0  0  0
   46.3980   25.5280   35.3120 C   0  0  0  0  0  0  0  0  0  0  0  0
   45.2380   24.8800   34.9460 C   0  0  0  0  0  0  0  0  0  0  0  0
   44.1661   23.0714   33.8430 H   0  0  0  0  0  0  0  0  0  0  0  0
   42.6825   21.5551   32.7371 H   0  0  0  0  0  0  0  0  0  0  0  0
   41.3084   22.7472   32.9466 H   0  0  0  0  0  0  0  0  0  0  0  0
   41.9167   22.9855   30.7505 H   0  0  0  0  0  0  0  0  0  0  0  0
   43.6854   22.8698   31.1406 H   0  0  0  0  0  0  0  0  0  0  0  0
   43.8533   25.0409   31.5595 H   0  0  0  0  0  0  0  0  0  0  0  0
   42.2485   25.1782   30.7236 H   0  0  0  0  0  0  0  0  0  0  0  0
   42.2157   26.3492   32.8196 H   0  0  0  0  0  0  0  0  0  0  0  0
   41.1345   24.8916   32.8543 H   0  0  0  0  0  0  0  0  0  0  0  0
   42.2059   24.9350   34.8929 H   0  0  0  0  0  0  0  0  0  0  0  0
   43.1952   20.3017   37.3794 H   0  0  0  0  0  0  0  0  0  0  0  0
   41.0112   21.0745   38.3191 H   0  0  0  0  0  0  0  0  0  0  0  0
   38.5425   23.9862   35.5350 H   0  0  0  0  0  0  0  0  0  0  0  0
   37.2224   23.4028   39.5538 H   0  0  0  0  0  0  0  0  0  0  0  0
   39.5302   22.3554   39.3640 H   0  0  0  0  0  0  0  0  0  0  0  0
   43.3853   27.4193   33.8629 H   0  0  0  0  0  0  0  0  0  0  0  0
   45.4002   28.6656   34.4801 H   0  0  0  0  0  0  0  0  0  0  0  0
   47.3578   27.4502   35.4194 H   0  0  0  0  0  0  0  0  0  0  0  0
   47.2531   24.9740   35.7266 H   0  0  0  0  0  0  0  0  0  0  0  0
   45.2058   23.7893   35.0849 H   0  0  0  0  0  0  0  0  0  0  0  0
  1  6  1  0
  1 11  1  0
  2  1  1  0
  3  4  1  0
  3  2  1  0
  4  5  1  0
  5  6  1  0
  6 18  1  0
  7  8  2  0
  9 13  1  0
  9  8  1  0
 10  9  2  0
 11 10  1  0
 11 12  2  0
 12  7  1  0
 13 17  1  0
 14 13  2  0
 14 15  1  0
 15 16  2  0
 17 16  1  0
 18 23  1  0
 19 18  2  0
 19 20  1  0
 20 21  2  0
 21 22  1  0
 23 22  2  0
  1 24  1  6
  2 25  1  0
  2 26  1  0
  3 27  1  0
  3 28  1  0
  4 29  1  0
  4 30  1  0
  5 31  1  0
  5 32  1  0
  6 33  1  1
  7 34  1  0
  8 35  1  0
 14 36  1  0
 16 37  1  0
 17 38  1  0
 19 39  1  0
 20 40  1  0
 21 41  1  0
 22 42  1  0
 23 43  1  0
M  ISO  8  24  13  25  13  26  13  27  13  28  13  29  13  30  13  31  13
M  ISO  8  32  13  33  13  34  14  35  14  36  14  37  14  38   9  39  14
M  ISO  4  40  14  41  14  42  14  43  14
M  END
>  <minimizedAffinity>  (1) 
-4.58937216

>  <minimizedRMSD>  (1) 
2.23997831

$$$$
