
     RDKit          3D

 48 51  0  0  1  0  0  0  0  0999 V2000
   43.5630   22.9690   34.4090 C   0  0  1  0  0  0  0  0  0  0  0  0
   43.4330   21.9900   33.2750 C   0  0  0  0  0  0  0  0  0  0  0  0
   43.9510   22.4920   31.9660 C   0  0  0  0  0  0  0  0  0  0  0  0
   43.6970   23.9640   31.7770 C   0  0  0  0  0  0  0  0  0  0  0  0
   42.5810   24.3970   32.6520 C   0  0  0  0  0  0  0  0  0  0  0  0
   42.9980   24.3290   34.1130 C   0  0  2  0  0  0  0  0  0  0  0  0
   42.5830   20.8040   37.1860 C   0  0  0  0  0  0  0  0  0  0  0  0
   41.3550   21.3370   37.5970 C   0  0  0  0  0  0  0  0  0  0  0  0
   40.8510   22.4480   36.9190 C   0  0  0  0  0  0  0  0  0  0  0  0
   41.5980   22.9470   35.8860 N   0  0  0  0  0  0  0  0  0  0  0  0
   42.7710   22.4000   35.5290 C   0  0  0  0  0  0  0  0  0  0  0  0
   43.2540   21.3510   36.1660 N   0  0  0  0  0  0  0  0  0  0  0  0
   39.5890   22.9830   37.3660 C   0  0  0  0  0  0  0  0  0  0  0  0
   38.7710   23.7990   36.5650 C   0  0  0  0  0  0  0  0  0  0  0  0
   37.6860   24.1000   37.3330 N   0  0  0  0  0  0  0  0  0  0  0  0
   37.8700   23.4860   38.5220 C   0  0  0  0  0  0  0  0  0  0  0  0
   38.9900   22.8160   38.5730 N   0  0  0  0  0  0  0  0  0  0  0  0
   43.7550   25.4550   34.4250 N   0  0  0  0  0  0  0  0  0  0  0  0
   44.4100   25.4600   35.7090 C   0  0  0  0  0  0  0  0  0  0  0  0
   45.5790   26.4210   35.7040 C   0  0  0  0  0  0  0  0  0  0  0  0
   45.8970   26.7300   34.2540 C   0  0  0  0  0  0  0  0  0  0  0  0
   44.7320   27.4660   33.6290 C   0  0  0  0  0  0  0  0  0  0  0  0
   43.4310   26.7480   34.0240 C   0  0  0  0  0  0  0  0  0  0  0  0
   44.6335   23.1075   34.6207 H   0  0  0  0  0  0  0  0  0  0  0  0
   43.9911   21.0799   33.5400 H   0  0  0  0  0  0  0  0  0  0  0  0
   42.3569   21.8074   33.1386 H   0  0  0  0  0  0  0  0  0  0  0  0
   45.0352   22.3117   31.9221 H   0  0  0  0  0  0  0  0  0  0  0  0
   43.4213   21.9539   31.1661 H   0  0  0  0  0  0  0  0  0  0  0  0
   44.6050   24.5277   32.0372 H   0  0  0  0  0  0  0  0  0  0  0  0
   43.4306   24.1549   30.7270 H   0  0  0  0  0  0  0  0  0  0  0  0
   42.3041   25.4317   32.4016 H   0  0  0  0  0  0  0  0  0  0  0  0
   41.7223   23.7280   32.4938 H   0  0  0  0  0  0  0  0  0  0  0  0
   42.1555   24.3967   34.8170 H   0  0  0  0  0  0  0  0  0  0  0  0
   42.9992   19.9286   37.7060 H   0  0  0  0  0  0  0  0  0  0  0  0
   40.8002   20.8902   38.4352 H   0  0  0  0  0  0  0  0  0  0  0  0
   38.9661   24.1264   35.5331 H   0  0  0  0  0  0  0  0  0  0  0  0
   37.1550   23.5439   39.3559 H   0  0  0  0  0  0  0  0  0  0  0  0
   39.3475   22.2699   39.3698 H   0  0  0  0  0  0  0  0  0  0  0  0
   43.6904   25.7694   36.4813 H   0  0  0  0  0  0  0  0  0  0  0  0
   44.7829   24.4473   35.9220 H   0  0  0  0  0  0  0  0  0  0  0  0
   45.3098   27.3452   36.2363 H   0  0  0  0  0  0  0  0  0  0  0  0
   46.4503   25.9798   36.2101 H   0  0  0  0  0  0  0  0  0  0  0  0
   46.7984   27.3584   34.2020 H   0  0  0  0  0  0  0  0  0  0  0  0
   46.0732   25.7911   33.7087 H   0  0  0  0  0  0  0  0  0  0  0  0
   44.8378   27.4660   32.5341 H   0  0  0  0  0  0  0  0  0  0  0  0
   44.7102   28.5068   33.9843 H   0  0  0  0  0  0  0  0  0  0  0  0
   42.9458   27.2847   34.8525 H   0  0  0  0  0  0  0  0  0  0  0  0
   42.7373   26.7197   33.1708 H   0  0  0  0  0  0  0  0  0  0  0  0
  1 11  1  0
  2  1  1  0
  3  2  1  0
  4  3  1  0
  4  5  1  0
  5  6  1  0
  6  1  1  0
  6 18  1  0
  7  8  2  0
  9 13  1  0
  9  8  1  0
 10  9  2  0
 11 10  1  0
 11 12  2  0
 12  7  1  0
 13 17  1  0
 14 15  1  0
 14 13  2  0
 15 16  2  0
 16 17  1  0
 18 19  1  0
 20 19  1  0
 21 20  1  0
 22 23  1  0
 22 21  1  0
 23 18  1  0
  1 24  1  1
  2 25  1  0
  2 26  1  0
  3 27  1  0
  3 28  1  0
  4 29  1  0
  4 30  1  0
  5 31  1  0
  5 32  1  0
  6 33  1  1
  7 34  1  0
  8 35  1  0
 14 36  1  0
 16 37  1  0
 17 38  1  0
 19 39  1  0
 19 40  1  0
 20 41  1  0
 20 42  1  0
 21 43  1  0
 21 44  1  0
 22 45  1  0
 22 46  1  0
 23 47  1  0
 23 48  1  0
M  ISO  8  24  13  25  13  26  13  27  13  28  13  29  13  30  13  31  13
M  ISO  8  32  13  33  13  34  14  35  14  36  14  37  14  38   9  39  13
M  ISO  8  40  13  41  13  42  13  43  13  44  13  45  13  46  13  47  13
M  ISO  1  48  13
M  END
>  <minimizedAffinity>  (1) 
-4.55976629

>  <minimizedRMSD>  (1) 
2.42077351

$$$$
