
     RDKit          3D

 44 47  0  0  1  0  0  0  0  0999 V2000
   43.8500   22.6620   34.6650 C   0  0  1  0  0  0  0  0  0  0  0  0
   44.0140   21.4950   33.7230 C   0  0  0  0  0  0  0  0  0  0  0  0
   44.6960   21.8450   32.4380 C   0  0  0  0  0  0  0  0  0  0  0  0
   44.3120   23.2280   31.9590 C   0  0  0  0  0  0  0  0  0  0  0  0
   43.0170   23.5940   32.5660 C   0  0  0  0  0  0  0  0  0  0  0  0
   43.2130   23.8690   34.0590 C   0  0  2  0  0  0  0  0  0  0  0  0
   43.9090   25.1190   34.1670 N   0  0  0  0  0  0  0  0  0  0  0  0
   43.5130   26.2320   33.4770 C   0  0  0  0  0  0  0  0  0  0  0  0
   44.1380   27.4590   33.5380 C   0  0  0  0  0  0  0  0  0  0  0  0
   45.2470   27.6270   34.3410 C   0  0  0  0  0  0  0  0  0  0  0  0
   45.9120   28.8620   34.4310 N   0  0  0  0  0  0  0  0  0  0  0  0
   45.6480   26.5480   35.0240 N   0  0  0  0  0  0  0  0  0  0  0  0
   44.9920   25.3820   34.9180 C   0  0  0  0  0  0  0  0  0  0  0  0
   45.4880   24.4770   35.6150 O   0  0  0  0  0  0  0  0  0  0  0  0
   42.5630   20.5800   37.3880 C   0  0  0  0  0  0  0  0  0  0  0  0
   41.3600   21.1840   37.7240 C   0  0  0  0  0  0  0  0  0  0  0  0
   40.9680   22.3060   37.0180 C   0  0  0  0  0  0  0  0  0  0  0  0
   41.7900   22.7670   36.0230 N   0  0  0  0  0  0  0  0  0  0  0  0
   42.9470   22.1550   35.7290 C   0  0  0  0  0  0  0  0  0  0  0  0
   43.3110   21.0820   36.4090 N   0  0  0  0  0  0  0  0  0  0  0  0
   39.6960   22.9380   37.3650 C   0  0  0  0  0  0  0  0  0  0  0  0
   38.9220   23.6950   36.4760 C   0  0  0  0  0  0  0  0  0  0  0  0
   37.8330   24.0930   37.1940 N   0  0  0  0  0  0  0  0  0  0  0  0
   37.9720   23.5940   38.4300 C   0  0  0  0  0  0  0  0  0  0  0  0
   39.0730   22.8960   38.5760 N   0  0  0  0  0  0  0  0  0  0  0  0
   44.8441   22.9912   35.0016 H   0  0  0  0  0  0  0  0  0  0  0  0
   44.6079   20.7207   34.2307 H   0  0  0  0  0  0  0  0  0  0  0  0
   43.0025   21.1488   33.4640 H   0  0  0  0  0  0  0  0  0  0  0  0
   45.7847   21.8104   32.5913 H   0  0  0  0  0  0  0  0  0  0  0  0
   44.3821   21.1182   31.6743 H   0  0  0  0  0  0  0  0  0  0  0  0
   45.0818   23.9525   32.2631 H   0  0  0  0  0  0  0  0  0  0  0  0
   44.2286   23.2361   30.8622 H   0  0  0  0  0  0  0  0  0  0  0  0
   42.6241   24.4967   32.0753 H   0  0  0  0  0  0  0  0  0  0  0  0
   42.3041   22.7664   32.4360 H   0  0  0  0  0  0  0  0  0  0  0  0
   42.2899   24.0065   34.6412 H   0  0  0  0  0  0  0  0  0  0  0  0
   42.6312   26.1410   32.8258 H   0  0  0  0  0  0  0  0  0  0  0  0
   43.7529   28.3032   32.9471 H   0  0  0  0  0  0  0  0  0  0  0  0
   46.7379   28.9591   35.0387 H   0  0  0  0  0  0  0  0  0  0  0  0
   45.5734   29.6699   33.8892 H   0  0  0  0  0  0  0  0  0  0  0  0
   42.8988   19.6848   37.9319 H   0  0  0  0  0  0  0  0  0  0  0  0
   40.7333   20.7798   38.5326 H   0  0  0  0  0  0  0  0  0  0  0  0
   39.1452   23.9205   35.4227 H   0  0  0  0  0  0  0  0  0  0  0  0
   37.2407   23.7528   39.2362 H   0  0  0  0  0  0  0  0  0  0  0  0
   39.3984   22.4166   39.4276 H   0  0  0  0  0  0  0  0  0  0  0  0
  1 19  1  0
  2  1  1  0
  3  2  1  0
  4  3  1  0
  4  5  1  0
  5  6  1  0
  6  7  1  0
  6  1  1  0
  7 13  1  0
  8  9  2  0
  8  7  1  0
  9 10  1  0
 10 11  1  0
 10 12  2  0
 13 12  1  0
 13 14  2  0
 15 16  2  0
 17 21  1  0
 17 16  1  0
 18 17  2  0
 19 18  1  0
 19 20  2  0
 20 15  1  0
 21 25  1  0
 22 23  1  0
 22 21  2  0
 23 24  2  0
 24 25  1  0
  1 26  1  1
  2 27  1  0
  2 28  1  0
  3 29  1  0
  3 30  1  0
  4 31  1  0
  4 32  1  0
  5 33  1  0
  5 34  1  0
  6 35  1  1
  8 36  1  0
  9 37  1  0
 11 38  1  0
 11 39  1  0
 15 40  1  0
 16 41  1  0
 22 42  1  0
 24 43  1  0
 25 44  1  0
M  ISO  8  26  13  27  13  28  13  29  13  30  13  31  13  32  13  33  13
M  ISO  8  34  13  35  13  36  14  37  14  40  14  41  14  42  14  43  14
M  ISO  1  44   9
M  END
>  <minimizedAffinity>  (1) 
-4.82495594

>  <minimizedRMSD>  (1) 
3.03252554

$$$$
