
     RDKit          3D

 43 46  0  0  1  0  0  0  0  0999 V2000
   42.3840   21.5170   33.5320 C   0  0  1  0  0  0  0  0  0  0  0  0
   41.0840   21.5000   32.7830 C   0  0  0  0  0  0  0  0  0  0  0  0
   41.2420   21.7520   31.3080 C   0  0  0  0  0  0  0  0  0  0  0  0
   42.2950   22.7800   31.0190 C   0  0  0  0  0  0  0  0  0  0  0  0
   42.5470   23.6300   32.2200 C   0  0  0  0  0  0  0  0  0  0  0  0
   43.1940   22.7710   33.2790 C   0  0  1  0  0  0  0  0  0  0  0  0
   43.5880   23.4790   34.4540 N   0  0  0  0  0  0  0  0  0  0  0  0
   44.6310   23.0620   35.2300 C   0  0  0  0  0  0  0  0  0  0  0  0
   45.0220   23.7350   36.3700 C   0  0  0  0  0  0  0  0  0  0  0  0
   44.2570   24.8460   36.6250 C   0  0  0  0  0  0  0  0  0  0  0  0
   44.5620   25.5220   37.6680 O   0  0  0  0  0  0  0  0  0  0  0  0
   43.2200   25.3270   35.9210 N   0  0  0  0  0  0  0  0  0  0  0  0
   42.9200   24.5970   34.8270 C   0  0  0  0  0  0  0  0  0  0  0  0
   41.9570   24.9610   34.0890 O   0  0  0  0  0  0  0  0  0  0  0  0
   42.5070   20.7740   37.1150 C   0  0  0  0  0  0  0  0  0  0  0  0
   41.4230   21.4800   37.6210 C   0  0  0  0  0  0  0  0  0  0  0  0
   40.6320   22.2180   36.7610 C   0  0  0  0  0  0  0  0  0  0  0  0
   40.9720   22.2090   35.4320 N   0  0  0  0  0  0  0  0  0  0  0  0
   42.0130   21.5270   34.9770 C   0  0  0  0  0  0  0  0  0  0  0  0
   42.7790   20.8130   35.8010 N   0  0  0  0  0  0  0  0  0  0  0  0
   39.4990   22.9440   37.2980 C   0  0  0  0  0  0  0  0  0  0  0  0
   38.7470   23.8720   36.5870 C   0  0  0  0  0  0  0  0  0  0  0  0
   37.7810   24.3230   37.4250 N   0  0  0  0  0  0  0  0  0  0  0  0
   37.9690   23.6700   38.5970 C   0  0  0  0  0  0  0  0  0  0  0  0
   38.9820   22.8390   38.5620 N   0  0  0  0  0  0  0  0  0  0  0  0
   42.9907   20.6557   33.2159 H   0  0  0  0  0  0  0  0  0  0  0  0
   40.6151   20.5145   32.9203 H   0  0  0  0  0  0  0  0  0  0  0  0
   40.4650   22.3143   33.1875 H   0  0  0  0  0  0  0  0  0  0  0  0
   41.5225   20.8093   30.8155 H   0  0  0  0  0  0  0  0  0  0  0  0
   40.2836   22.1333   30.9258 H   0  0  0  0  0  0  0  0  0  0  0  0
   43.2279   22.2712   30.7347 H   0  0  0  0  0  0  0  0  0  0  0  0
   41.9452   23.4231   30.1980 H   0  0  0  0  0  0  0  0  0  0  0  0
   43.2170   24.4609   31.9541 H   0  0  0  0  0  0  0  0  0  0  0  0
   41.6009   24.0472   32.5952 H   0  0  0  0  0  0  0  0  0  0  0  0
   44.1606   22.4378   32.8732 H   0  0  0  0  0  0  0  0  0  0  0  0
   45.1804   22.1556   34.9357 H   0  0  0  0  0  0  0  0  0  0  0  0
   45.8592   23.4145   37.0076 H   0  0  0  0  0  0  0  0  0  0  0  0
   42.7015   26.1749   36.1912 H   0  0  0  0  0  0  0  0  0  0  0  0
   43.1425   20.1830   37.7910 H   0  0  0  0  0  0  0  0  0  0  0  0
   41.1961   21.4519   38.6970 H   0  0  0  0  0  0  0  0  0  0  0  0
   38.9054   24.1815   35.5434 H   0  0  0  0  0  0  0  0  0  0  0  0
   37.3376   23.8213   39.4850 H   0  0  0  0  0  0  0  0  0  0  0  0
   39.3185   22.2341   39.3247 H   0  0  0  0  0  0  0  0  0  0  0  0
  1 19  1  0
  2  1  1  0
  3  2  1  0
  4  3  1  0
  4  5  1  0
  5  6  1  0
  6  1  1  0
  6  7  1  0
  7 13  1  0
  7  8  1  0
  8  9  2  0
  9 10  1  0
 10 11  2  0
 12 10  1  0
 13 12  1  0
 14 13  2  0
 15 16  2  0
 17 21  1  0
 17 16  1  0
 18 17  2  0
 19 18  1  0
 19 20  2  0
 20 15  1  0
 21 25  1  0
 22 21  2  0
 22 23  1  0
 23 24  2  0
 25 24  1  0
  1 26  1  1
  2 27  1  0
  2 28  1  0
  3 29  1  0
  3 30  1  0
  4 31  1  0
  4 32  1  0
  5 33  1  0
  5 34  1  0
  6 35  1  6
  8 36  1  0
  9 37  1  0
 12 38  1  0
 15 39  1  0
 16 40  1  0
 22 41  1  0
 24 42  1  0
 25 43  1  0
M  ISO  8  26  13  27  13  28  13  29  13  30  13  31  13  32  13  33  13
M  ISO  8  34  13  35  13  36  14  37  14  38   9  39  14  40  14  41  14
M  ISO  2  42  14  43   9
M  END
>  <minimizedAffinity>  (1) 
-5.11102104

>  <minimizedRMSD>  (1) 
0.769715726

$$$$
