
     RDKit          3D

 39 42  0  0  1  0  0  0  0  0999 V2000
   43.4650   23.1600   34.2810 C   0  0  1  0  0  0  0  0  0  0  0  0
   43.2830   22.2090   33.1330 C   0  0  0  0  0  0  0  0  0  0  0  0
   43.7710   22.7480   31.8250 C   0  0  0  0  0  0  0  0  0  0  0  0
   43.4670   24.2110   31.6700 C   0  0  0  0  0  0  0  0  0  0  0  0
   42.3960   24.6500   32.6170 C   0  0  0  0  0  0  0  0  0  0  0  0
   42.8530   24.5250   34.0310 C   0  0  2  0  0  0  0  0  0  0  0  0
   42.6230   20.9460   37.0690 C   0  0  0  0  0  0  0  0  0  0  0  0
   41.4000   21.4260   37.5110 C   0  0  0  0  0  0  0  0  0  0  0  0
   40.8400   22.5120   36.8680 C   0  0  0  0  0  0  0  0  0  0  0  0
   41.5360   23.0600   35.8140 N   0  0  0  0  0  0  0  0  0  0  0  0
   42.7100   22.5620   35.4260 C   0  0  0  0  0  0  0  0  0  0  0  0
   43.2490   21.5240   36.0380 N   0  0  0  0  0  0  0  0  0  0  0  0
   39.5470   23.0300   37.3190 C   0  0  0  0  0  0  0  0  0  0  0  0
   38.6880   23.8090   36.5540 C   0  0  0  0  0  0  0  0  0  0  0  0
   37.6150   24.0660   37.3490 N   0  0  0  0  0  0  0  0  0  0  0  0
   37.8480   23.4530   38.5320 C   0  0  0  0  0  0  0  0  0  0  0  0
   38.9980   22.8200   38.5570 N   0  0  0  0  0  0  0  0  0  0  0  0
   43.8190   25.5190   34.4140 N   0  0  0  0  0  0  0  0  0  0  0  0
   43.8240   26.8400   34.1010 C   0  0  0  0  0  0  0  0  0  0  0  0
   44.9290   27.3950   34.6780 N   0  0  0  0  0  0  0  0  0  0  0  0
   45.5880   26.4200   35.3330 C   0  0  0  0  0  0  0  0  0  0  0  0
   44.8850   25.2660   35.1570 N   0  0  0  0  0  0  0  0  0  0  0  0
   44.5426   23.2991   34.4527 H   0  0  0  0  0  0  0  0  0  0  0  0
   43.8360   21.2847   33.3562 H   0  0  0  0  0  0  0  0  0  0  0  0
   42.2021   22.0348   33.0269 H   0  0  0  0  0  0  0  0  0  0  0  0
   44.8598   22.6034   31.7654 H   0  0  0  0  0  0  0  0  0  0  0  0
   43.2528   22.2064   31.0200 H   0  0  0  0  0  0  0  0  0  0  0  0
   44.3809   24.7895   31.8705 H   0  0  0  0  0  0  0  0  0  0  0  0
   43.1126   24.3836   30.6431 H   0  0  0  0  0  0  0  0  0  0  0  0
   42.1422   25.7005   32.4119 H   0  0  0  0  0  0  0  0  0  0  0  0
   41.5149   24.0072   32.4740 H   0  0  0  0  0  0  0  0  0  0  0  0
   41.9484   24.6720   34.6393 H   0  0  0  0  0  0  0  0  0  0  0  0
   43.0829   20.0818   37.5708 H   0  0  0  0  0  0  0  0  0  0  0  0
   40.8850   20.9503   38.3586 H   0  0  0  0  0  0  0  0  0  0  0  0
   38.8436   24.1479   35.5191 H   0  0  0  0  0  0  0  0  0  0  0  0
   37.1495   23.4817   39.3813 H   0  0  0  0  0  0  0  0  0  0  0  0
   39.4004   22.2821   39.3378 H   0  0  0  0  0  0  0  0  0  0  0  0
   43.0739   27.3670   33.4930 H   0  0  0  0  0  0  0  0  0  0  0  0
   46.5210   26.5341   35.9043 H   0  0  0  0  0  0  0  0  0  0  0  0
  1 11  1  0
  2  1  1  0
  3  2  1  0
  4  3  1  0
  4  5  1  0
  5  6  1  0
  6  1  1  0
  6 18  1  0
  7  8  2  0
  9 13  1  0
  9  8  1  0
 10  9  2  0
 11 10  1  0
 11 12  2  0
 12  7  1  0
 13 17  1  0
 14 13  2  0
 14 15  1  0
 15 16  2  0
 16 17  1  0
 18 22  1  0
 19 18  1  0
 19 20  2  0
 20 21  1  0
 22 21  2  0
  1 23  1  1
  2 24  1  0
  2 25  1  0
  3 26  1  0
  3 27  1  0
  4 28  1  0
  4 29  1  0
  5 30  1  0
  5 31  1  0
  6 32  1  1
  7 33  1  0
  8 34  1  0
 14 35  1  0
 16 36  1  0
 17 37  1  0
 19 38  1  0
 21 39  1  0
M  ISO  8  23  13  24  13  25  13  26  13  27  13  28  13  29  13  30  13
M  ISO  8  31  13  32  13  33  14  34  14  35  14  36  14  37   9  38  14
M  ISO  1  39  14
M  END
>  <minimizedAffinity>  (1) 
-4.4810071

>  <minimizedRMSD>  (1) 
2.46980453

$$$$
