
     RDKit          3D

 42 44  0  0  0  0  0  0  0  0999 V2000
   38.6840   23.5410   37.0690 C   0  0  0  0  0  0  0  0  0  0  0  0
   41.9460   21.6890   36.9460 C   0  0  0  0  0  0  0  0  0  0  0  0
   40.6480   22.0050   37.2760 C   0  0  0  0  0  0  0  0  0  0  0  0
   40.0460   23.1510   36.7630 C   0  0  0  0  0  0  0  0  0  0  0  0
   40.7940   23.9350   35.9300 N   0  0  0  0  0  0  0  0  0  0  0  0
   42.0650   23.6190   35.6120 C   0  0  0  0  0  0  0  0  0  0  0  0
   42.6350   22.4940   36.1250 N   0  0  0  0  0  0  0  0  0  0  0  0
   42.5470   20.4500   37.5220 C   0  0  0  0  0  0  0  0  0  0  0  0
   43.1670   19.5710   36.4920 C   0  0  0  0  0  0  0  0  0  0  0  0
   38.3970   23.1220   38.4980 C   0  0  0  0  0  0  0  0  0  0  0  0
   38.3950   25.0070   36.8990 C   0  0  0  0  0  0  0  0  0  0  0  0
   37.7330   22.7940   36.1510 C   0  0  0  0  0  0  0  0  0  0  0  0
   37.8810   23.1630   34.7770 N   0  0  0  0  0  0  0  0  0  0  0  0
   38.1550   22.3800   33.6990 C   0  0  0  0  0  0  0  0  0  0  0  0
   38.2030   23.1690   32.5820 N   0  0  0  0  0  0  0  0  0  0  0  0
   37.9590   24.4220   32.9870 C   0  0  0  0  0  0  0  0  0  0  0  0
   37.7640   24.4120   34.3200 N   0  0  0  0  0  0  0  0  0  0  0  0
   37.9530   25.4740   31.9770 C   0  0  0  0  0  0  0  0  0  0  0  0
   36.8870   26.3790   31.9280 C   0  0  0  0  0  0  0  0  0  0  0  0
   36.8980   27.3790   30.9550 C   0  0  0  0  0  0  0  0  0  0  0  0
   37.9350   27.4360   30.0990 N   0  0  0  0  0  0  0  0  0  0  0  0
   38.9530   26.5750   30.1420 C   0  0  0  0  0  0  0  0  0  0  0  0
   38.9540   25.5960   31.0850 N   0  0  0  0  0  0  0  0  0  0  0  0
   40.0812   21.3467   37.9508 H   0  0  0  0  0  0  0  0  0  0  0  0
   42.6416   24.2698   34.9382 H   0  0  0  0  0  0  0  0  0  0  0  0
   43.3215   20.7405   38.2472 H   0  0  0  0  0  0  0  0  0  0  0  0
   41.7344   19.8795   37.9955 H   0  0  0  0  0  0  0  0  0  0  0  0
   43.7331   18.7685   36.9875 H   0  0  0  0  0  0  0  0  0  0  0  0
   42.3790   19.1300   35.8639 H   0  0  0  0  0  0  0  0  0  0  0  0
   43.8469   20.1653   35.8639 H   0  0  0  0  0  0  0  0  0  0  0  0
   38.8798   23.8269   39.1908 H   0  0  0  0  0  0  0  0  0  0  0  0
   37.3105   23.1251   38.6698 H   0  0  0  0  0  0  0  0  0  0  0  0
   38.7925   22.1100   38.6698 H   0  0  0  0  0  0  0  0  0  0  0  0
   38.3019   25.4795   37.8880 H   0  0  0  0  0  0  0  0  0  0  0  0
   39.2171   25.4806   36.3423 H   0  0  0  0  0  0  0  0  0  0  0  0
   37.4547   25.1332   36.3423 H   0  0  0  0  0  0  0  0  0  0  0  0
   37.9265   21.7155   36.2476 H   0  0  0  0  0  0  0  0  0  0  0  0
   36.7083   23.0547   36.4543 H   0  0  0  0  0  0  0  0  0  0  0  0
   38.3122   21.2915   33.7215 H   0  0  0  0  0  0  0  0  0  0  0  0
   36.0551   26.3035   32.6438 H   0  0  0  0  0  0  0  0  0  0  0  0
   36.0754   28.1063   30.8889 H   0  0  0  0  0  0  0  0  0  0  0  0
   39.7816   26.6563   29.4231 H   0  0  0  0  0  0  0  0  0  0  0  0
  1 10  1  0
  2  3  2  0
  2  8  1  0
  4  1  1  0
  4  3  1  0
  5  4  2  0
  6  5  1  0
  6  7  2  0
  7  2  1  0
  9  8  1  0
 11  1  1  0
 12  1  1  0
 13 12  1  0
 14 13  1  0
 15 16  1  0
 15 14  2  0
 16 17  2  0
 17 13  1  0
 18 16  1  0
 19 18  2  0
 20 19  1  0
 21 22  1  0
 21 20  2  0
 22 23  2  0
 23 18  1  0
  3 24  1  0
  6 25  1  0
  8 26  1  0
  8 27  1  0
  9 28  1  0
  9 29  1  0
  9 30  1  0
 10 31  1  0
 10 32  1  0
 10 33  1  0
 11 34  1  0
 11 35  1  0
 11 36  1  0
 12 37  1  0
 12 38  1  0
 14 39  1  0
 19 40  1  0
 20 41  1  0
 22 42  1  0
M  ISO  8  24  14  25  14  26   8  27   8  28   8  29   8  30   8  31   8
M  ISO  8  32   8  33   8  34   8  35   8  36   8  37   8  38   8  39  14
M  ISO  3  40  14  41  14  42  14
M  END
>  <minimizedAffinity>  (1) 
-4.42058182

>  <minimizedRMSD>  (1) 
1.09489012

$$$$
