
     RDKit          3D

 39 41  0  0  1  0  0  0  0  0999 V2000
   40.1500   24.5830   34.1820 C   0  0  1  0  0  0  0  0  0  0  0  0
   39.3890   23.4970   33.4510 C   0  0  0  0  0  0  0  0  0  0  0  0
   38.2270   23.9990   32.6510 C   0  0  0  0  0  0  0  0  0  0  0  0
   37.5400   25.1360   33.3040 C   0  0  0  0  0  0  0  0  0  0  0  0
   37.8330   25.1680   34.7660 C   0  0  0  0  0  0  0  0  0  0  0  0
   39.2910   25.4880   35.0140 C   0  0  2  0  0  0  0  0  0  0  0  0
   41.5520   22.0540   36.4140 C   0  0  0  0  0  0  0  0  0  0  0  0
   42.7800   22.5930   36.7610 C   0  0  0  0  0  0  0  0  0  0  0  0
   43.1590   23.8210   36.2540 C   0  0  0  0  0  0  0  0  0  0  0  0
   42.2720   24.4470   35.4150 N   0  0  0  0  0  0  0  0  0  0  0  0
   41.0880   23.8850   35.1030 C   0  0  0  0  0  0  0  0  0  0  0  0
   40.7260   22.7160   35.5850 N   0  0  0  0  0  0  0  0  0  0  0  0
   44.4450   24.3700   36.6230 C   0  0  0  0  0  0  0  0  0  0  0  0
   44.6370   25.2500   37.6960 C   0  0  0  0  0  0  0  0  0  0  0  0
   45.9640   25.5530   37.7080 N   0  0  0  0  0  0  0  0  0  0  0  0
   46.5070   24.8750   36.6910 C   0  0  0  0  0  0  0  0  0  0  0  0
   45.6330   24.1720   36.0370 N   0  0  0  0  0  0  0  0  0  0  0  0
   46.0180   23.3700   34.9100 C   0  0  0  0  0  0  0  0  0  0  0  0
   39.6070   26.9530   34.8100 C   0  0  0  0  0  0  0  0  0  0  0  0
   40.9970   27.0570   35.0160 F   0  0  0  0  0  0  0  0  0  0  0  0
   39.3670   27.4010   33.5480 F   0  0  0  0  0  0  0  0  0  0  0  0
   38.9660   27.6520   35.7910 F   0  0  0  0  0  0  0  0  0  0  0  0
   40.6360   25.2193   33.4277 H   0  0  0  0  0  0  0  0  0  0  0  0
   40.0845   22.9874   32.7680 H   0  0  0  0  0  0  0  0  0  0  0  0
   38.9792   22.8243   34.2188 H   0  0  0  0  0  0  0  0  0  0  0  0
   37.5063   23.1781   32.5219 H   0  0  0  0  0  0  0  0  0  0  0  0
   38.6140   24.3523   31.6838 H   0  0  0  0  0  0  0  0  0  0  0  0
   37.8849   26.0753   32.8472 H   0  0  0  0  0  0  0  0  0  0  0  0
   36.4552   25.0165   33.1661 H   0  0  0  0  0  0  0  0  0  0  0  0
   37.2085   25.9381   35.2424 H   0  0  0  0  0  0  0  0  0  0  0  0
   37.6114   24.1784   35.1922 H   0  0  0  0  0  0  0  0  0  0  0  0
   39.5167   25.2973   36.0736 H   0  0  0  0  0  0  0  0  0  0  0  0
   41.2504   21.0771   36.8197 H   0  0  0  0  0  0  0  0  0  0  0  0
   43.4514   22.0448   37.4383 H   0  0  0  0  0  0  0  0  0  0  0  0
   43.8689   25.6218   38.3901 H   0  0  0  0  0  0  0  0  0  0  0  0
   47.5766   24.9092   36.4366 H   0  0  0  0  0  0  0  0  0  0  0  0
   46.4686   22.4313   35.2648 H   0  0  0  0  0  0  0  0  0  0  0  0
   45.1305   23.1434   34.3009 H   0  0  0  0  0  0  0  0  0  0  0  0
   46.7499   23.9208   34.3009 H   0  0  0  0  0  0  0  0  0  0  0  0
  1  6  1  0
  1 11  1  0
  2  1  1  0
  3  4  1  0
  3  2  1  0
  4  5  1  0
  5  6  1  0
  7  8  2  0
  9 13  1  0
  9  8  1  0
 10  9  2  0
 11 10  1  0
 11 12  2  0
 12  7  1  0
 13 14  2  0
 14 15  1  0
 16 15  2  0
 17 13  1  0
 17 16  1  0
 18 17  1  0
 19  6  1  0
 19 20  1  0
 19 22  1  0
 21 19  1  0
  1 23  1  6
  2 24  1  0
  2 25  1  0
  3 26  1  0
  3 27  1  0
  4 28  1  0
  4 29  1  0
  5 30  1  0
  5 31  1  0
  6 32  1  1
  7 33  1  0
  8 34  1  0
 14 35  1  0
 16 36  1  0
 18 37  1  0
 18 38  1  0
 18 39  1  0
M  ISO  8  23  13  24  13  25  13  26  13  27  13  28  13  29  13  30  13
M  ISO  8  31  13  32  13  33  14  34  14  35  14  36  14  37   8  38   8
M  ISO  1  39   8
M  END
>  <minimizedAffinity>  (1) 
-4.6876359

>  <minimizedRMSD>  (1) 
5.31505871

$$$$
