
     RDKit          3D

 43 46  0  0  1  0  0  0  0  0999 V2000
   38.7940   25.2810   34.1350 C   0  0  1  0  0  0  0  0  0  0  0  0
   38.1870   26.6670   34.1760 C   0  0  0  0  0  0  0  0  0  0  0  0
   38.4270   27.3860   35.4680 C   0  0  0  0  0  0  0  0  0  0  0  0
   38.3950   26.4820   36.6390 C   0  0  0  0  0  0  0  0  0  0  0  0
   37.6620   25.2320   36.3190 C   0  0  0  0  0  0  0  0  0  0  0  0
   38.4230   24.4110   35.3030 C   0  0  2  0  0  0  0  0  0  0  0  0
   38.0190   24.6490   30.6220 C   0  0  0  0  0  0  0  0  0  0  0  0
   37.3170   23.4550   30.6650 C   0  0  0  0  0  0  0  0  0  0  0  0
   37.0860   22.8430   31.8820 C   0  0  0  0  0  0  0  0  0  0  0  0
   37.5790   23.4680   32.9960 N   0  0  0  0  0  0  0  0  0  0  0  0
   38.2600   24.6310   32.9070 C   0  0  0  0  0  0  0  0  0  0  0  0
   38.4790   25.2140   31.7530 N   0  0  0  0  0  0  0  0  0  0  0  0
   36.3460   21.6020   31.9110 C   0  0  0  0  0  0  0  0  0  0  0  0
   35.0070   21.5160   32.3060 C   0  0  0  0  0  0  0  0  0  0  0  0
   34.6530   20.2060   32.2030 N   0  0  0  0  0  0  0  0  0  0  0  0
   35.7440   19.5660   31.7660 C   0  0  0  0  0  0  0  0  0  0  0  0
   36.7560   20.3670   31.5870 N   0  0  0  0  0  0  0  0  0  0  0  0
   38.0310   19.8870   31.1210 C   0  0  0  0  0  0  0  0  0  0  0  0
   38.2160   18.7150   30.2660 C   0  0  0  0  0  0  0  0  0  0  0  0
   38.2290   19.9970   29.5830 C   0  0  0  0  0  0  0  0  0  0  0  0
   39.6090   23.6900   35.9050 C   0  0  0  0  0  0  0  0  0  0  0  0
   39.6700   22.4640   35.2260 F   0  0  0  0  0  0  0  0  0  0  0  0
   40.8000   24.3210   35.6900 F   0  0  0  0  0  0  0  0  0  0  0  0
   39.3290   23.4420   37.2140 F   0  0  0  0  0  0  0  0  0  0  0  0
   39.8884   25.3896   34.1576 H   0  0  0  0  0  0  0  0  0  0  0  0
   38.6227   27.2623   33.3600 H   0  0  0  0  0  0  0  0  0  0  0  0
   37.0987   26.5471   34.0696 H   0  0  0  0  0  0  0  0  0  0  0  0
   39.4140   27.8696   35.4236 H   0  0  0  0  0  0  0  0  0  0  0  0
   37.6189   28.1217   35.5940 H   0  0  0  0  0  0  0  0  0  0  0  0
   39.4259   26.2314   36.9296 H   0  0  0  0  0  0  0  0  0  0  0  0
   37.8781   26.9926   37.4649 H   0  0  0  0  0  0  0  0  0  0  0  0
   37.5360   24.6418   37.2387 H   0  0  0  0  0  0  0  0  0  0  0  0
   36.6809   25.4957   35.8971 H   0  0  0  0  0  0  0  0  0  0  0  0
   37.7663   23.6074   34.9384 H   0  0  0  0  0  0  0  0  0  0  0  0
   38.2018   25.1393   29.6544 H   0  0  0  0  0  0  0  0  0  0  0  0
   36.9460   22.9973   29.7361 H   0  0  0  0  0  0  0  0  0  0  0  0
   34.3648   22.3460   32.6358 H   0  0  0  0  0  0  0  0  0  0  0  0
   35.7822   18.4828   31.5785 H   0  0  0  0  0  0  0  0  0  0  0  0
   38.5082   20.1871   32.0656 H   0  0  0  0  0  0  0  0  0  0  0  0
   39.1488   18.1369   30.3413 H   0  0  0  0  0  0  0  0  0  0  0  0
   37.6344   17.7927   30.1204 H   0  0  0  0  0  0  0  0  0  0  0  0
   39.1672   20.3972   29.1712 H   0  0  0  0  0  0  0  0  0  0  0  0
   37.6769   20.4511   28.7470 H   0  0  0  0  0  0  0  0  0  0  0  0
  1  2  1  0
  1  6  1  0
  2  3  1  0
  3  4  1  0
  5  4  1  0
  6 21  1  0
  6  5  1  0
  7  8  2  0
  7 12  1  0
  8  9  1  0
  9 13  1  0
  9 10  2  0
 11 10  1  0
 11  1  1  0
 12 11  2  0
 13 14  2  0
 15 14  1  0
 16 15  2  0
 17 16  1  0
 17 13  1  0
 18 17  1  0
 19 18  1  0
 20 19  1  0
 20 18  1  0
 21 24  1  0
 22 21  1  0
 23 21  1  0
  1 25  1  6
  2 26  1  0
  2 27  1  0
  3 28  1  0
  3 29  1  0
  4 30  1  0
  4 31  1  0
  5 32  1  0
  5 33  1  0
  6 34  1  6
  7 35  1  0
  8 36  1  0
 14 37  1  0
 16 38  1  0
 18 39  1  0
 19 40  1  0
 19 41  1  0
 20 42  1  0
 20 43  1  0
M  ISO  8  25  13  26  13  27  13  28  13  29  13  30  13  31  13  32  13
M  ISO  8  33  13  34  13  35  14  36  14  37  14  38  14  39  13  40  13
M  ISO  3  41  13  42  13  43  13
M  END
>  <minimizedAffinity>  (1) 
-4.93164492

>  <minimizedRMSD>  (1) 
7.25285864

$$$$
