
     RDKit          3D

 39 41  0  0  1  0  0  0  0  0999 V2000
   41.9090   22.5870   37.0060 C   0  0  1  0  0  0  0  0  0  0  0  0
   41.8510   21.0750   37.1250 C   0  0  0  0  0  0  0  0  0  0  0  0
   43.1660   20.3950   36.9210 C   0  0  0  0  0  0  0  0  0  0  0  0
   43.9900   21.0690   35.8830 C   0  0  0  0  0  0  0  0  0  0  0  0
   43.1370   21.8820   34.9890 C   0  0  0  0  0  0  0  0  0  0  0  0
   42.5510   23.0610   35.7340 C   0  0  2  0  0  0  0  0  0  0  0  0
   38.4850   23.2070   38.0810 C   0  0  0  0  0  0  0  0  0  0  0  0
   37.9190   23.8600   36.9860 C   0  0  0  0  0  0  0  0  0  0  0  0
   38.7050   24.1050   35.8730 C   0  0  0  0  0  0  0  0  0  0  0  0
   39.9990   23.6800   35.9210 N   0  0  0  0  0  0  0  0  0  0  0  0
   40.4990   23.0570   36.9920 C   0  0  0  0  0  0  0  0  0  0  0  0
   39.7700   22.8190   38.0590 N   0  0  0  0  0  0  0  0  0  0  0  0
   38.1090   24.7960   34.7470 C   0  0  0  0  0  0  0  0  0  0  0  0
   37.6840   24.1320   33.5860 C   0  0  0  0  0  0  0  0  0  0  0  0
   37.1280   25.1010   32.7860 N   0  0  0  0  0  0  0  0  0  0  0  0
   37.2420   26.2590   33.4730 C   0  0  0  0  0  0  0  0  0  0  0  0
   37.8190   26.0940   34.6250 N   0  0  0  0  0  0  0  0  0  0  0  0
   38.0470   27.2240   35.4510 C   0  0  0  0  0  0  0  0  0  0  0  0
   38.0900   26.9910   36.8130 F   0  0  0  0  0  0  0  0  0  0  0  0
   39.3990   27.6870   35.2600 F   0  0  0  0  0  0  0  0  0  0  0  0
   37.3690   28.3600   35.0680 F   0  0  0  0  0  0  0  0  0  0  0  0
   43.5560   24.1670   35.9690 C   0  0  0  0  0  0  0  0  0  0  0  0
   42.8320   25.3640   35.7870 F   0  0  0  0  0  0  0  0  0  0  0  0
   44.0480   24.2010   37.2380 F   0  0  0  0  0  0  0  0  0  0  0  0
   44.5020   24.0740   34.9930 F   0  0  0  0  0  0  0  0  0  0  0  0
   42.5091   22.9779   37.8409 H   0  0  0  0  0  0  0  0  0  0  0  0
   41.4836   20.8217   38.1304 H   0  0  0  0  0  0  0  0  0  0  0  0
   41.1834   20.7198   36.3261 H   0  0  0  0  0  0  0  0  0  0  0  0
   43.7193   20.4006   37.8717 H   0  0  0  0  0  0  0  0  0  0  0  0
   42.9667   19.3681   36.5807 H   0  0  0  0  0  0  0  0  0  0  0  0
   44.7259   21.7229   36.3738 H   0  0  0  0  0  0  0  0  0  0  0  0
   44.5027   20.3022   35.2837 H   0  0  0  0  0  0  0  0  0  0  0  0
   42.3189   21.2560   34.6032 H   0  0  0  0  0  0  0  0  0  0  0  0
   43.7533   22.2592   34.1596 H   0  0  0  0  0  0  0  0  0  0  0  0
   41.7746   23.5137   35.0997 H   0  0  0  0  0  0  0  0  0  0  0  0
   37.8718   23.0078   38.9722 H   0  0  0  0  0  0  0  0  0  0  0  0
   36.8653   24.1751   37.0065 H   0  0  0  0  0  0  0  0  0  0  0  0
   37.7767   23.0589   33.3628 H   0  0  0  0  0  0  0  0  0  0  0  0
   36.8867   27.2306   33.0993 H   0  0  0  0  0  0  0  0  0  0  0  0
  1  2  1  0
  3  2  1  0
  4  3  1  0
  5  6  1  0
  5  4  1  0
  6 22  1  0
  6  1  1  0
  8  7  2  0
  9 10  2  0
  9  8  1  0
 10 11  1  0
 11  1  1  0
 11 12  2  0
 12  7  1  0
 13  9  1  0
 14 13  2  0
 15 16  2  0
 15 14  1  0
 16 17  1  0
 17 13  1  0
 17 18  1  0
 18 19  1  0
 20 18  1  0
 21 18  1  0
 22 24  1  0
 23 22  1  0
 25 22  1  0
  1 26  1  1
  2 27  1  0
  2 28  1  0
  3 29  1  0
  3 30  1  0
  4 31  1  0
  4 32  1  0
  5 33  1  0
  5 34  1  0
  6 35  1  6
  7 36  1  0
  8 37  1  0
 14 38  1  0
 16 39  1  0
M  ISO  8  26  13  27  13  28  13  29  13  30  13  31  13  32  13  33  13
M  ISO  6  34  13  35  13  36  14  37  14  38  14  39  14
M  END
>  <minimizedAffinity>  (1) 
-6.01124716

>  <minimizedRMSD>  (1) 
4.72363615

$$$$
