
     RDKit          3D

 35 37  0  0  1  0  0  0  0  0999 V2000
   39.7270   22.8730   37.1200 C   0  0  0  0  0  0  0  0  0  0  0  0
   39.2510   23.6440   36.0320 C   0  0  0  0  0  0  0  0  0  0  0  0
   38.3240   24.6320   36.3200 C   0  0  0  0  0  0  0  0  0  0  0  0
   37.9650   24.7690   37.5970 N   0  0  0  0  0  0  0  0  0  0  0  0
   38.3930   24.0680   38.6340 C   0  0  0  0  0  0  0  0  0  0  0  0
   39.2830   23.1120   38.3840 N   0  0  0  0  0  0  0  0  0  0  0  0
   40.8040   21.9290   37.1030 C   0  0  0  0  0  0  0  0  0  0  0  0
   41.7350   21.1120   37.0890 N   0  0  0  0  0  0  0  0  0  0  0  0
   42.5600   20.2090   37.1280 C   0  0  0  0  0  0  0  0  0  0  0  0
   43.5080   21.0140   36.6450 N   0  0  0  0  0  0  0  0  0  0  0  0
   43.2020   22.3150   36.3500 C   0  0  0  0  0  0  0  0  0  0  0  0
   44.2940   23.0290   35.7820 C   0  0  0  0  0  0  0  0  0  0  0  0
   44.0210   24.3080   35.3980 C   0  0  0  0  0  0  0  0  0  0  0  0
   42.8070   24.9520   35.5080 C   0  0  0  0  0  0  0  0  0  0  0  0
   41.8700   24.1060   36.0800 C   0  0  0  0  0  0  0  0  0  0  0  0
   41.8680   22.7620   36.5740 C   0  0  0  0  0  0  0  0  0  0  0  0
   37.7830   25.4500   35.2760 N   0  0  0  0  0  0  0  0  0  0  0  0
   38.1960   26.8010   35.1660 C   0  0  0  0  0  0  0  0  0  0  0  0
   38.7050   27.4360   36.1640 N   0  0  0  0  0  0  0  0  0  0  0  0
   38.0070   27.3990   33.8840 N   0  0  0  0  0  0  0  0  0  0  0  0
   39.0480   28.4120   36.1230 H   0  0  0  0  0  0  0  0  0  0  0  0
   39.6015   23.4664   35.0046 H   0  0  0  0  0  0  0  0  0  0  0  0
   38.0304   24.2662   39.6534 H   0  0  0  0  0  0  0  0  0  0  0  0
   41.3141   22.4967   37.8951 H   0  0  0  0  0  0  0  0  0  0  0  0
   41.9151   21.2810   36.0890 H   0  0  0  0  0  0  0  0  0  0  0  0
   42.7662   19.8395   38.1433 H   0  0  0  0  0  0  0  0  0  0  0  0
   42.3474   19.2540   36.6253 H   0  0  0  0  0  0  0  0  0  0  0  0
   44.4632   20.6590   36.4952 H   0  0  0  0  0  0  0  0  0  0  0  0
   45.2906   22.5794   35.6611 H   0  0  0  0  0  0  0  0  0  0  0  0
   44.8496   24.8820   34.9577 H   0  0  0  0  0  0  0  0  0  0  0  0
   42.6107   25.9861   35.1885 H   0  0  0  0  0  0  0  0  0  0  0  0
   40.8848   24.5852   36.1789 H   0  0  0  0  0  0  0  0  0  0  0  0
   37.0999   25.0597   34.6112 H   0  0  0  0  0  0  0  0  0  0  0  0
   38.2832   28.3788   33.7270 H   0  0  0  0  0  0  0  0  0  0  0  0
   37.5944   26.8508   33.1158 H   0  0  0  0  0  0  0  0  0  0  0  0
  1  6  2  0
  2  3  2  0
  2  1  1  0
  3  4  1  0
  4  5  2  0
  6  5  1  0
  7  1  1  0
  8  7  1  0
  8  9  1  0
 10  9  1  0
 11 16  2  0
 11 10  1  0
 12 11  1  0
 13 14  1  0
 13 12  2  0
 14 15  2  0
 15 16  1  0
 16  7  1  0
 17  3  1  0
 18 17  1  0
 18 19  2  0
 20 18  1  0
 21 19  1  0
  2 22  1  0
  5 23  1  0
  7 24  1  0
  8 25  1  0
  9 26  1  0
  9 27  1  0
 10 28  1  0
 12 29  1  0
 13 30  1  0
 14 31  1  0
 15 32  1  0
 17 33  1  0
 20 34  1  0
 20 35  1  0
M  ISO  8  22  14  23  14  24  13  25   5  26  13  27  13  29  14  30  14
M  ISO  2  31  14  32  14
M  END
>  <minimizedAffinity>  (1) 
-5.30736256

>  <minimizedRMSD>  (1) 
1.31776869

$$$$
