
     RDKit          3D

 30 32  0  0  0  0  0  0  0  0999 V2000
   39.9940   23.2160   37.0750 C   0  0  0  0  0  0  0  0  0  0  0  0
   39.4930   24.0400   36.0600 C   0  0  0  0  0  0  0  0  0  0  0  0
   38.2560   24.6530   36.2910 C   0  0  0  0  0  0  0  0  0  0  0  0
   37.6040   24.4300   37.4660 N   0  0  0  0  0  0  0  0  0  0  0  0
   38.1340   23.6240   38.4140 C   0  0  0  0  0  0  0  0  0  0  0  0
   39.3230   23.0170   38.2280 N   0  0  0  0  0  0  0  0  0  0  0  0
   41.2500   22.5740   36.8790 N   0  0  0  0  0  0  0  0  0  0  0  0
   41.5500   21.3040   37.2740 C   0  0  0  0  0  0  0  0  0  0  0  0
   42.8290   21.0250   36.9260 N   0  0  0  0  0  0  0  0  0  0  0  0
   43.3450   22.0870   36.3200 C   0  0  0  0  0  0  0  0  0  0  0  0
   44.5890   22.3120   35.7860 C   0  0  0  0  0  0  0  0  0  0  0  0
   44.8350   23.5130   35.2220 N   0  0  0  0  0  0  0  0  0  0  0  0
   43.8530   24.4560   35.2010 C   0  0  0  0  0  0  0  0  0  0  0  0
   42.6240   24.2590   35.7190 N   0  0  0  0  0  0  0  0  0  0  0  0
   42.3610   23.0720   36.2830 C   0  0  0  0  0  0  0  0  0  0  0  0
   37.6560   25.5150   35.3150 N   0  0  0  0  0  0  0  0  0  0  0  0
   38.0590   26.8860   35.2550 C   0  0  0  0  0  0  0  0  0  0  0  0
   38.5700   27.4780   36.2830 N   0  0  0  0  0  0  0  0  0  0  0  0
   37.8660   27.5550   34.0100 N   0  0  0  0  0  0  0  0  0  0  0  0
   38.8770   28.4650   36.2930 H   0  0  0  0  0  0  0  0  0  0  0  0
   45.6400   21.3770   35.7790 N   0  0  0  0  0  0  0  0  0  0  0  0
   40.0467   24.1986   35.1229 H   0  0  0  0  0  0  0  0  0  0  0  0
   37.5851   23.4610   39.3532 H   0  0  0  0  0  0  0  0  0  0  0  0
   40.8643   20.6170   37.7916 H   0  0  0  0  0  0  0  0  0  0  0  0
   44.0739   25.4288   34.7374 H   0  0  0  0  0  0  0  0  0  0  0  0
   36.9440   25.1516   34.6655 H   0  0  0  0  0  0  0  0  0  0  0  0
   38.1379   28.5433   33.9088 H   0  0  0  0  0  0  0  0  0  0  0  0
   37.4547   27.0498   33.2122 H   0  0  0  0  0  0  0  0  0  0  0  0
   46.5465   21.6243   35.3570 H   0  0  0  0  0  0  0  0  0  0  0  0
   45.5031   20.4451   36.1959 H   0  0  0  0  0  0  0  0  0  0  0  0
  1  6  2  0
  2  3  2  0
  2  1  1  0
  3  4  1  0
  4  5  2  0
  6  5  1  0
  7  1  1  0
  7  8  1  0
  9  8  2  0
 10  9  1  0
 11 10  2  0
 12 11  1  0
 13 12  2  0
 13 14  1  0
 14 15  2  0
 15 10  1  0
 15  7  1  0
 16  3  1  0
 17 16  1  0
 17 18  2  0
 18 20  1  0
 19 17  1  0
 21 11  1  0
  2 22  1  0
  5 23  1  0
  8 24  1  0
 13 25  1  0
 16 26  1  0
 19 27  1  0
 19 28  1  0
 21 29  1  0
 21 30  1  0
M  ISO  4  22  14  23  14  24  14  25  14
M  END
>  <minimizedAffinity>  (1) 
-5.23295879

>  <minimizedRMSD>  (1) 
1.09522939

$$$$
