
     RDKit          3D

 30 31  0  0  0  0  0  0  0  0999 V2000
   40.0750   23.2000   37.0250 C   0  0  0  0  0  0  0  0  0  0  0  0
   39.4720   24.0270   36.0740 C   0  0  0  0  0  0  0  0  0  0  0  0
   38.2520   24.6550   36.3490 C   0  0  0  0  0  0  0  0  0  0  0  0
   37.7140   24.4140   37.5590 N   0  0  0  0  0  0  0  0  0  0  0  0
   38.3010   23.6160   38.4670 C   0  0  0  0  0  0  0  0  0  0  0  0
   39.4780   23.0070   38.2070 N   0  0  0  0  0  0  0  0  0  0  0  0
   37.6330   25.4990   35.3870 N   0  0  0  0  0  0  0  0  0  0  0  0
   37.9940   26.8800   35.3440 C   0  0  0  0  0  0  0  0  0  0  0  0
   38.5510   27.4760   36.3500 N   0  0  0  0  0  0  0  0  0  0  0  0
   37.7070   27.5650   34.1330 N   0  0  0  0  0  0  0  0  0  0  0  0
   38.8230   28.4720   36.3600 H   0  0  0  0  0  0  0  0  0  0  0  0
   43.8140   21.3960   36.2320 C   0  0  0  0  0  0  0  0  0  0  0  0
   43.5810   22.7020   35.8420 C   0  0  0  0  0  0  0  0  0  0  0  0
   42.3310   23.2390   36.1310 C   0  0  0  0  0  0  0  0  0  0  0  0
   41.3430   22.5270   36.7790 C   0  0  0  0  0  0  0  0  0  0  0  0
   41.6310   21.2300   37.1450 C   0  0  0  0  0  0  0  0  0  0  0  0
   42.8480   20.6280   36.8920 C   0  0  0  0  0  0  0  0  0  0  0  0
   45.4000   20.7250   35.8620 S   0  0  0  0  0  0  0  0  0  0  0  0
   45.6840   19.5030   36.6670 O   0  0  0  0  0  0  0  0  0  0  0  0
   46.4790   21.7250   36.1070 O   0  0  0  0  0  0  0  0  0  0  0  0
   39.9602   24.1858   35.1011 H   0  0  0  0  0  0  0  0  0  0  0  0
   37.8138   23.4559   39.4401 H   0  0  0  0  0  0  0  0  0  0  0  0
   36.9349   25.1203   34.7311 H   0  0  0  0  0  0  0  0  0  0  0  0
   37.9427   28.5631   34.0376 H   0  0  0  0  0  0  0  0  0  0  0  0
   37.2632   27.0635   33.3504 H   0  0  0  0  0  0  0  0  0  0  0  0
   44.3522   23.2917   35.3247 H   0  0  0  0  0  0  0  0  0  0  0  0
   42.1212   24.2760   35.8299 H   0  0  0  0  0  0  0  0  0  0  0  0
   40.8553   20.6469   37.6629 H   0  0  0  0  0  0  0  0  0  0  0  0
   43.0492   19.5902   37.1960 H   0  0  0  0  0  0  0  0  0  0  0  0
   45.3803   20.3886   34.5341 H   0  0  0  0  0  0  0  0  0  0  0  0
  1  6  2  0
  2  3  2  0
  2  1  1  0
  3  4  1  0
  4  5  2  0
  6  5  1  0
  7  3  1  0
  8  7  1  0
  8  9  2  0
  9 11  1  0
 10  8  1  0
 12 17  2  0
 13 14  2  0
 13 12  1  0
 14 15  1  0
 15  1  1  0
 15 16  2  0
 17 16  1  0
 18 20  2  0
 18 12  1  0
 18 19  2  0
  2 21  1  0
  5 22  1  0
  7 23  1  0
 10 24  1  0
 10 25  1  0
 13 26  1  0
 14 27  1  0
 16 28  1  0
 17 29  1  0
 18 30  1  0
M  ISO  7  21  14  22  14  26  14  27  14  28  14  29  14  30  11
M  END
>  <minimizedAffinity>  (1) 
-5.00134373

>  <minimizedRMSD>  (1) 
0.960701168

$$$$
