
     RDKit          3D

 27 28  0  0  0  0  0  0  0  0999 V2000
   40.0550   23.2100   37.0240 C   0  0  0  0  0  0  0  0  0  0  0  0
   39.4490   24.0560   36.0900 C   0  0  0  0  0  0  0  0  0  0  0  0
   38.2410   24.6940   36.3930 C   0  0  0  0  0  0  0  0  0  0  0  0
   37.7130   24.4470   37.6090 N   0  0  0  0  0  0  0  0  0  0  0  0
   38.3070   23.6310   38.4940 C   0  0  0  0  0  0  0  0  0  0  0  0
   39.4740   23.0110   38.2120 N   0  0  0  0  0  0  0  0  0  0  0  0
   37.6050   25.5590   35.4610 N   0  0  0  0  0  0  0  0  0  0  0  0
   37.9470   26.9410   35.4410 C   0  0  0  0  0  0  0  0  0  0  0  0
   38.5060   27.5170   36.4540 N   0  0  0  0  0  0  0  0  0  0  0  0
   37.6410   27.6430   34.2500 N   0  0  0  0  0  0  0  0  0  0  0  0
   38.7690   28.5140   36.4790 H   0  0  0  0  0  0  0  0  0  0  0  0
   41.3100   22.5240   36.7540 C   0  0  0  0  0  0  0  0  0  0  0  0
   41.5000   21.2800   37.3170 C   0  0  0  0  0  0  0  0  0  0  0  0
   42.6660   20.5410   37.1210 C   0  0  0  0  0  0  0  0  0  0  0  0
   43.6860   21.0760   36.3260 C   0  0  0  0  0  0  0  0  0  0  0  0
   43.5060   22.3220   35.7580 C   0  0  0  0  0  0  0  0  0  0  0  0
   42.3360   23.0190   35.9770 C   0  0  0  0  0  0  0  0  0  0  0  0
   39.9244   24.2209   35.1118 H   0  0  0  0  0  0  0  0  0  0  0  0
   37.8324   23.4631   39.4721 H   0  0  0  0  0  0  0  0  0  0  0  0
   36.9022   25.1888   34.8053 H   0  0  0  0  0  0  0  0  0  0  0  0
   37.8632   28.6457   34.1716 H   0  0  0  0  0  0  0  0  0  0  0  0
   37.1962   27.1510   33.4620 H   0  0  0  0  0  0  0  0  0  0  0  0
   40.7024   20.8548   37.9439 H   0  0  0  0  0  0  0  0  0  0  0  0
   42.7826   19.5505   37.5851 H   0  0  0  0  0  0  0  0  0  0  0  0
   44.6158   20.5133   36.1563 H   0  0  0  0  0  0  0  0  0  0  0  0
   44.2966   22.7590   35.1303 H   0  0  0  0  0  0  0  0  0  0  0  0
   42.2167   24.0093   35.5133 H   0  0  0  0  0  0  0  0  0  0  0  0
  1  6  2  0
  2  3  2  0
  2  1  1  0
  3  4  1  0
  4  5  2  0
  6  5  1  0
  7  3  1  0
  8  7  1  0
  8  9  2  0
  9 11  1  0
 10  8  1  0
 12  1  1  0
 12 13  2  0
 14 13  1  0
 15 14  2  0
 16 17  2  0
 16 15  1  0
 17 12  1  0
  2 18  1  0
  5 19  1  0
  7 20  1  0
 10 21  1  0
 10 22  1  0
 13 23  1  0
 14 24  1  0
 15 25  1  0
 16 26  1  0
 17 27  1  0
M  ISO  7  18  14  19  14  23  14  24  14  25  14  26  14  27  14
M  END
>  <minimizedAffinity>  (1) 
-4.95684862

>  <minimizedRMSD>  (1) 
0.810270905

$$$$
