
     RDKit          3D

 33 34  0  0  0  0  0  0  0  0999 V2000
   40.0270   23.1120   36.9800 C   0  0  0  0  0  0  0  0  0  0  0  0
   39.4780   23.9340   35.9890 C   0  0  0  0  0  0  0  0  0  0  0  0
   38.3010   24.6360   36.3100 C   0  0  0  0  0  0  0  0  0  0  0  0
   37.7720   24.4770   37.5470 N   0  0  0  0  0  0  0  0  0  0  0  0
   38.3350   23.6710   38.4730 C   0  0  0  0  0  0  0  0  0  0  0  0
   39.4620   22.9910   38.1880 N   0  0  0  0  0  0  0  0  0  0  0  0
   37.6660   25.5020   35.3600 N   0  0  0  0  0  0  0  0  0  0  0  0
   38.0460   26.8710   35.3180 C   0  0  0  0  0  0  0  0  0  0  0  0
   38.5960   27.4590   36.3170 N   0  0  0  0  0  0  0  0  0  0  0  0
   37.7810   27.5550   34.0960 N   0  0  0  0  0  0  0  0  0  0  0  0
   38.9340   28.4470   36.3170 H   0  0  0  0  0  0  0  0  0  0  0  0
   41.2600   22.3720   36.6560 C   0  0  0  0  0  0  0  0  0  0  0  0
   42.4700   23.2670   36.5460 C   0  0  0  0  0  0  0  0  0  0  0  0
   43.6000   22.4990   35.9180 C   0  0  0  0  0  0  0  0  0  0  0  0
   43.3170   21.0170   35.8330 C   0  0  0  0  0  0  0  0  0  0  0  0
   42.6970   20.4500   37.0830 C   0  0  0  0  0  0  0  0  0  0  0  0
   41.5740   21.2690   37.6280 C   0  0  0  0  0  0  0  0  0  0  0  0
   39.9477   24.0277   34.9987 H   0  0  0  0  0  0  0  0  0  0  0  0
   37.8707   23.5694   39.4650 H   0  0  0  0  0  0  0  0  0  0  0  0
   36.9466   25.1382   34.7188 H   0  0  0  0  0  0  0  0  0  0  0  0
   38.0313   28.5493   33.9976 H   0  0  0  0  0  0  0  0  0  0  0  0
   37.3392   27.0550   33.3113 H   0  0  0  0  0  0  0  0  0  0  0  0
   41.0444   21.9249   35.6744 H   0  0  0  0  0  0  0  0  0  0  0  0
   42.2265   24.1391   35.9214 H   0  0  0  0  0  0  0  0  0  0  0  0
   42.7684   23.6085   37.5482 H   0  0  0  0  0  0  0  0  0  0  0  0
   43.7666   22.8850   34.9015 H   0  0  0  0  0  0  0  0  0  0  0  0
   44.4882   22.6333   36.5528 H   0  0  0  0  0  0  0  0  0  0  0  0
   42.6288   20.8418   34.9929 H   0  0  0  0  0  0  0  0  0  0  0  0
   44.2837   20.5110   35.6937 H   0  0  0  0  0  0  0  0  0  0  0  0
   42.3129   19.4451   36.8536 H   0  0  0  0  0  0  0  0  0  0  0  0
   43.4840   20.4369   37.8514 H   0  0  0  0  0  0  0  0  0  0  0  0
   41.8682   21.7019   38.5955 H   0  0  0  0  0  0  0  0  0  0  0  0
   40.6864   20.6355   37.7726 H   0  0  0  0  0  0  0  0  0  0  0  0
  1  6  2  0
  2  3  2  0
  2  1  1  0
  3  4  1  0
  4  5  2  0
  6  5  1  0
  7  3  1  0
  8  7  1  0
  8  9  2  0
  9 11  1  0
 10  8  1  0
 12  1  1  0
 12 17  1  0
 13 12  1  0
 14 13  1  0
 15 14  1  0
 15 16  1  0
 16 17  1  0
  2 18  1  0
  5 19  1  0
  7 20  1  0
 10 21  1  0
 10 22  1  0
 12 23  1  0
 13 24  1  0
 13 25  1  0
 14 26  1  0
 14 27  1  0
 15 28  1  0
 15 29  1  0
 16 30  1  0
 16 31  1  0
 17 32  1  0
 17 33  1  0
M  ISO  8  18  14  19  14  23  13  24  13  25  13  26  13  27  13  28  13
M  ISO  5  29  13  30  13  31  13  32  13  33  13
M  END
>  <minimizedAffinity>  (1) 
-5.02973461

>  <minimizedRMSD>  (1) 
0.728253305

$$$$
