
     RDKit          3D

 29 30  0  0  0  0  0  0  0  0999 V2000
   39.7970   23.0760   36.8680 C   0  0  0  0  0  0  0  0  0  0  0  0
   39.1840   23.9210   35.9410 C   0  0  0  0  0  0  0  0  0  0  0  0
   38.1350   24.7270   36.4360 C   0  0  0  0  0  0  0  0  0  0  0  0
   37.7860   24.6400   37.7530 N   0  0  0  0  0  0  0  0  0  0  0  0
   38.4230   23.7980   38.5950 C   0  0  0  0  0  0  0  0  0  0  0  0
   39.4300   23.0150   38.1530 N   0  0  0  0  0  0  0  0  0  0  0  0
   40.8590   22.2480   36.4070 N   0  0  0  0  0  0  0  0  0  0  0  0
   41.6450   21.2960   37.1690 C   0  0  0  0  0  0  0  0  0  0  0  0
   43.0340   21.5840   36.6250 C   0  0  0  0  0  0  0  0  0  0  0  0
   42.8700   22.3290   35.3300 C   0  0  0  0  0  0  0  0  0  0  0  0
   41.3850   22.1830   35.0550 C   0  0  0  0  0  0  0  0  0  0  0  0
   37.4260   25.6340   35.5890 N   0  0  0  0  0  0  0  0  0  0  0  0
   37.8610   26.9740   35.4800 C   0  0  0  0  0  0  0  0  0  0  0  0
   38.5740   27.5320   36.4030 N   0  0  0  0  0  0  0  0  0  0  0  0
   37.4800   27.6890   34.3050 N   0  0  0  0  0  0  0  0  0  0  0  0
   38.9110   28.5120   36.3860 H   0  0  0  0  0  0  0  0  0  0  0  0
   39.4992   23.9569   34.8877 H   0  0  0  0  0  0  0  0  0  0  0  0
   38.1185   23.7497   39.6509 H   0  0  0  0  0  0  0  0  0  0  0  0
   41.5837   21.4917   38.2497 H   0  0  0  0  0  0  0  0  0  0  0  0
   41.3213   20.2496   37.0676 H   0  0  0  0  0  0  0  0  0  0  0  0
   43.5977   22.1985   37.3424 H   0  0  0  0  0  0  0  0  0  0  0  0
   43.5875   20.6471   36.4640 H   0  0  0  0  0  0  0  0  0  0  0  0
   43.1520   23.3864   35.4409 H   0  0  0  0  0  0  0  0  0  0  0  0
   43.5066   21.9455   34.5190 H   0  0  0  0  0  0  0  0  0  0  0  0
   41.0046   23.0052   34.4311 H   0  0  0  0  0  0  0  0  0  0  0  0
   41.1085   21.2755   34.4982 H   0  0  0  0  0  0  0  0  0  0  0  0
   36.6022   25.3126   35.0608 H   0  0  0  0  0  0  0  0  0  0  0  0
   37.7733   28.6685   34.1804 H   0  0  0  0  0  0  0  0  0  0  0  0
   36.9118   27.2255   33.5817 H   0  0  0  0  0  0  0  0  0  0  0  0
  1  6  2  0
  2  3  2  0
  2  1  1  0
  3  4  1  0
  4  5  2  0
  6  5  1  0
  7  1  1  0
  7  8  1  0
  9  8  1  0
 10  9  1  0
 11 10  1  0
 11  7  1  0
 12  3  1  0
 13 12  1  0
 13 14  2  0
 15 13  1  0
 16 14  1  0
  2 17  1  0
  5 18  1  0
  8 19  1  0
  8 20  1  0
  9 21  1  0
  9 22  1  0
 10 23  1  0
 10 24  1  0
 11 25  1  0
 11 26  1  0
 12 27  1  0
 15 28  1  0
 15 29  1  0
M  ISO  8  17  14  18  14  19  13  20  13  21  13  22  13  23  13  24  13
M  ISO  2  25  13  26  13
M  END
>  <minimizedAffinity>  (1) 
-4.64490557

>  <minimizedRMSD>  (1) 
0.507637441

$$$$
