
     RDKit          3D

 32 33  0  0  0  0  0  0  0  0999 V2000
   40.2020   23.4090   36.3210 C   0  0  0  0  0  0  0  0  0  0  0  0
   39.4590   24.3320   35.5860 C   0  0  0  0  0  0  0  0  0  0  0  0
   38.2600   24.7740   36.1610 C   0  0  0  0  0  0  0  0  0  0  0  0
   37.8990   24.2840   37.3820 N   0  0  0  0  0  0  0  0  0  0  0  0
   38.6540   23.3920   38.0500 C   0  0  0  0  0  0  0  0  0  0  0  0
   39.8060   22.9580   37.5140 N   0  0  0  0  0  0  0  0  0  0  0  0
   41.4260   22.9170   35.8000 N   0  0  0  0  0  0  0  0  0  0  0  0
   42.6090   23.6490   35.4470 C   0  0  0  0  0  0  0  0  0  0  0  0
   43.8240   23.1770   36.2170 C   0  0  0  0  0  0  0  0  0  0  0  0
   43.9580   21.6930   36.2900 C   0  0  0  0  0  0  0  0  0  0  0  0
   42.6740   20.9680   36.5290 C   0  0  0  0  0  0  0  0  0  0  0  0
   41.6440   21.5100   35.5440 C   0  0  0  0  0  0  0  0  0  0  0  0
   37.4040   25.7200   35.5120 N   0  0  0  0  0  0  0  0  0  0  0  0
   37.7560   27.0890   35.5160 C   0  0  0  0  0  0  0  0  0  0  0  0
   38.5270   27.5870   36.4130 N   0  0  0  0  0  0  0  0  0  0  0  0
   37.2160   27.9040   34.4730 N   0  0  0  0  0  0  0  0  0  0  0  0
   38.8360   28.5770   36.4560 H   0  0  0  0  0  0  0  0  0  0  0  0
   39.7971   24.6949   34.6042 H   0  0  0  0  0  0  0  0  0  0  0  0
   38.3281   23.0196   39.0324 H   0  0  0  0  0  0  0  0  0  0  0  0
   42.7986   23.5187   34.3713 H   0  0  0  0  0  0  0  0  0  0  0  0
   42.4396   24.7065   35.6982 H   0  0  0  0  0  0  0  0  0  0  0  0
   44.7222   23.5816   35.7276 H   0  0  0  0  0  0  0  0  0  0  0  0
   43.7055   23.5368   37.2497 H   0  0  0  0  0  0  0  0  0  0  0  0
   44.3811   21.3386   35.3385 H   0  0  0  0  0  0  0  0  0  0  0  0
   44.6048   21.4785   37.1535 H   0  0  0  0  0  0  0  0  0  0  0  0
   42.8169   19.8896   36.3658 H   0  0  0  0  0  0  0  0  0  0  0  0
   42.3335   21.1193   37.5640 H   0  0  0  0  0  0  0  0  0  0  0  0
   40.6969   20.9640   35.6662 H   0  0  0  0  0  0  0  0  0  0  0  0
   42.0137   21.3772   34.5166 H   0  0  0  0  0  0  0  0  0  0  0  0
   36.5402   25.4063   35.0468 H   0  0  0  0  0  0  0  0  0  0  0  0
   37.4437   28.9077   34.4336 H   0  0  0  0  0  0  0  0  0  0  0  0
   36.5992   27.4875   33.7610 H   0  0  0  0  0  0  0  0  0  0  0  0
  1  6  2  0
  2  3  2  0
  2  1  1  0
  3  4  1  0
  4  5  2  0
  6  5  1  0
  7  1  1  0
  8  7  1  0
  8  9  1  0
  9 10  1  0
 10 11  1  0
 12  7  1  0
 12 11  1  0
 13 14  1  0
 13  3  1  0
 14 15  2  0
 15 17  1  0
 16 14  1  0
  2 18  1  0
  5 19  1  0
  8 20  1  0
  8 21  1  0
  9 22  1  0
  9 23  1  0
 10 24  1  0
 10 25  1  0
 11 26  1  0
 11 27  1  0
 12 28  1  0
 12 29  1  0
 13 30  1  0
 16 31  1  0
 16 32  1  0
M  ISO  8  18  14  19  14  20  13  21  13  22  13  23  13  24  13  25  13
M  ISO  4  26  13  27  13  28  13  29  13
M  END
>  <minimizedAffinity>  (1) 
-4.69097757

>  <minimizedRMSD>  (1) 
0.449082434

$$$$
