
     RDKit          3D

 41 43  0  0  0  0  0  0  0  0999 V2000
   38.5350   23.3700   36.5720 C   0  0  0  0  0  0  0  0  0  0  0  0
   41.9040   21.7450   36.9320 C   0  0  0  0  0  0  0  0  0  0  0  0
   40.5480   21.9600   37.0600 C   0  0  0  0  0  0  0  0  0  0  0  0
   39.9560   23.0780   36.4790 C   0  0  0  0  0  0  0  0  0  0  0  0
   40.7610   23.9310   35.7940 N   0  0  0  0  0  0  0  0  0  0  0  0
   42.0900   23.7180   35.6700 C   0  0  0  0  0  0  0  0  0  0  0  0
   42.6510   22.6160   36.2470 N   0  0  0  0  0  0  0  0  0  0  0  0
   42.4890   20.5290   37.5740 C   0  0  0  0  0  0  0  0  0  0  0  0
   43.2120   19.6580   36.6110 C   0  0  0  0  0  0  0  0  0  0  0  0
   38.1680   23.3900   38.0550 C   0  0  0  0  0  0  0  0  0  0  0  0
   38.1190   24.6480   35.9000 C   0  0  0  0  0  0  0  0  0  0  0  0
   37.7520   22.2340   35.9330 C   0  0  0  0  0  0  0  0  0  0  0  0
   37.8870   22.2130   34.5080 N   0  0  0  0  0  0  0  0  0  0  0  0
   38.8790   21.6890   33.7320 C   0  0  0  0  0  0  0  0  0  0  0  0
   38.5780   21.9070   32.4180 N   0  0  0  0  0  0  0  0  0  0  0  0
   37.4070   22.5640   32.3850 C   0  0  0  0  0  0  0  0  0  0  0  0
   37.0170   22.7320   33.6570 N   0  0  0  0  0  0  0  0  0  0  0  0
   36.6500   23.0340   31.1760 C   0  0  0  0  0  0  0  0  0  0  0  0
   36.7810   24.5080   30.8160 C   0  0  0  0  0  0  0  0  0  0  0  0
   35.4940   23.9340   31.3510 C   0  0  0  0  0  0  0  0  0  0  0  0
   39.9312   21.2448   37.6238 H   0  0  0  0  0  0  0  0  0  0  0  0
   42.7148   24.4278   35.1080 H   0  0  0  0  0  0  0  0  0  0  0  0
   43.1939   20.8493   38.3553 H   0  0  0  0  0  0  0  0  0  0  0  0
   41.6566   19.9421   37.9895 H   0  0  0  0  0  0  0  0  0  0  0  0
   43.8196   18.9260   37.1633 H   0  0  0  0  0  0  0  0  0  0  0  0
   42.4847   19.1280   35.9785 H   0  0  0  0  0  0  0  0  0  0  0  0
   43.8668   20.2753   35.9785 H   0  0  0  0  0  0  0  0  0  0  0  0
   39.0851   23.3400   38.6604 H   0  0  0  0  0  0  0  0  0  0  0  0
   37.6262   24.3190   38.2862 H   0  0  0  0  0  0  0  0  0  0  0  0
   37.5285   22.5254   38.2862 H   0  0  0  0  0  0  0  0  0  0  0  0
   37.8739   25.4009   36.6636 H   0  0  0  0  0  0  0  0  0  0  0  0
   38.9433   25.0173   35.2722 H   0  0  0  0  0  0  0  0  0  0  0  0
   37.2352   24.4613   35.2722 H   0  0  0  0  0  0  0  0  0  0  0  0
   38.1207   21.2796   36.3370 H   0  0  0  0  0  0  0  0  0  0  0  0
   36.6881   22.3863   36.1672 H   0  0  0  0  0  0  0  0  0  0  0  0
   39.7767   21.1739   34.1046 H   0  0  0  0  0  0  0  0  0  0  0  0
   36.7965   22.0761   30.6555 H   0  0  0  0  0  0  0  0  0  0  0  0
   37.3904   25.1792   31.4391 H   0  0  0  0  0  0  0  0  0  0  0  0
   37.0786   25.0775   29.9232 H   0  0  0  0  0  0  0  0  0  0  0  0
   34.6217   23.8378   30.6878 H   0  0  0  0  0  0  0  0  0  0  0  0
   34.8326   24.1821   32.1942 H   0  0  0  0  0  0  0  0  0  0  0  0
  1 10  1  0
  2  3  2  0
  2  8  1  0
  4  1  1  0
  4  3  1  0
  5  4  2  0
  6  5  1  0
  6  7  2  0
  7  2  1  0
  9  8  1  0
 11  1  1  0
 12  1  1  0
 13 12  1  0
 14 13  1  0
 15 14  2  0
 16 15  1  0
 16 17  2  0
 17 13  1  0
 18 20  1  0
 18 16  1  0
 19 18  1  0
 19 20  1  0
  3 21  1  0
  6 22  1  0
  8 23  1  0
  8 24  1  0
  9 25  1  0
  9 26  1  0
  9 27  1  0
 10 28  1  0
 10 29  1  0
 10 30  1  0
 11 31  1  0
 11 32  1  0
 11 33  1  0
 12 34  1  0
 12 35  1  0
 14 36  1  0
 18 37  1  0
 19 38  1  0
 19 39  1  0
 20 40  1  0
 20 41  1  0
M  ISO  8  21  14  22  14  23   8  24   8  25   8  26   8  27   8  28   8
M  ISO  8  29   8  30   8  31   8  32   8  33   8  34   8  35   8  36  14
M  ISO  5  37  13  38  13  39  13  40  13  41  13
M  END
>  <minimizedAffinity>  (1) 
-4.32142115

>  <minimizedRMSD>  (1) 
1.15970147

$$$$
