
     RDKit          3D

 22 23  0  0  0  0  0  0  0  0999 V2000
   39.7770   23.0050   37.0690 C   0  0  0  0  0  0  0  0  0  0  0  0
   39.2510   23.8180   36.0470 C   0  0  0  0  0  0  0  0  0  0  0  0
   38.1990   24.6860   36.4150 C   0  0  0  0  0  0  0  0  0  0  0  0
   37.7670   24.6840   37.7030 N   0  0  0  0  0  0  0  0  0  0  0  0
   38.3050   23.8880   38.6380 C   0  0  0  0  0  0  0  0  0  0  0  0
   39.3020   23.0560   38.3200 N   0  0  0  0  0  0  0  0  0  0  0  0
   37.5890   25.5580   35.4520 N   0  0  0  0  0  0  0  0  0  0  0  0
   38.0250   26.8980   35.3390 C   0  0  0  0  0  0  0  0  0  0  0  0
   38.6230   27.4840   36.3100 N   0  0  0  0  0  0  0  0  0  0  0  0
   37.7660   27.5430   34.1110 N   0  0  0  0  0  0  0  0  0  0  0  0
   38.9620   28.4720   36.3040 H   0  0  0  0  0  0  0  0  0  0  0  0
   40.8650   22.0890   36.7470 C   0  0  0  0  0  0  0  0  0  0  0  0
   41.3940   21.7790   35.5520 N   0  0  0  0  0  0  0  0  0  0  0  0
   42.3500   20.9190   35.6970 O   0  0  0  0  0  0  0  0  0  0  0  0
   42.4900   20.6300   36.9690 C   0  0  0  0  0  0  0  0  0  0  0  0
   41.5640   21.3590   37.6360 N   0  0  0  0  0  0  0  0  0  0  0  0
   39.6381   23.7794   35.0181 H   0  0  0  0  0  0  0  0  0  0  0  0
   37.9250   23.9195   39.6698 H   0  0  0  0  0  0  0  0  0  0  0  0
   36.8347   25.2080   34.8442 H   0  0  0  0  0  0  0  0  0  0  0  0
   38.0605   28.5199   33.9702 H   0  0  0  0  0  0  0  0  0  0  0  0
   37.2824   27.0369   33.3554 H   0  0  0  0  0  0  0  0  0  0  0  0
   43.2177   19.9317   37.4081 H   0  0  0  0  0  0  0  0  0  0  0  0
  1  6  2  0
  2  3  2  0
  2  1  1  0
  3  4  1  0
  4  5  2  0
  6  5  1  0
  7  3  1  0
  8  7  1  0
  8  9  2  0
 10  8  1  0
 11  9  1  0
 12  1  1  0
 12 16  1  0
 13 14  1  0
 13 12  2  0
 14 15  1  0
 15 16  2  0
  2 17  1  0
  5 18  1  0
  7 19  1  0
 10 20  1  0
 10 21  1  0
 15 22  1  0
M  ISO  3  17  14  18  14  22  14
M  END
>  <minimizedAffinity>  (1) 
-4.45486164

>  <minimizedRMSD>  (1) 
0.808952689

$$$$
