
     RDKit          3D

 24 25  0  0  0  0  0  0  0  0999 V2000
   39.9120   23.1390   37.2020 C   0  0  0  0  0  0  0  0  0  0  0  0
   39.4610   23.9320   36.1210 C   0  0  0  0  0  0  0  0  0  0  0  0
   38.2900   24.6750   36.3330 C   0  0  0  0  0  0  0  0  0  0  0  0
   37.6560   24.6050   37.5300 N   0  0  0  0  0  0  0  0  0  0  0  0
   38.1300   23.8290   38.5320 C   0  0  0  0  0  0  0  0  0  0  0  0
   39.2440   23.1020   38.3760 N   0  0  0  0  0  0  0  0  0  0  0  0
   37.7730   25.5040   35.2800 N   0  0  0  0  0  0  0  0  0  0  0  0
   38.1590   26.8760   35.2110 C   0  0  0  0  0  0  0  0  0  0  0  0
   38.6090   27.4990   36.2420 N   0  0  0  0  0  0  0  0  0  0  0  0
   38.0160   27.4960   33.9510 N   0  0  0  0  0  0  0  0  0  0  0  0
   38.9150   28.4900   36.2360 H   0  0  0  0  0  0  0  0  0  0  0  0
   41.1250   22.3400   37.0490 C   0  0  0  0  0  0  0  0  0  0  0  0
   42.2270   22.6850   36.2910 C   0  0  0  0  0  0  0  0  0  0  0  0
   43.1410   21.6590   36.4220 C   0  0  0  0  0  0  0  0  0  0  0  0
   42.5490   20.7130   37.2680 C   0  0  0  0  0  0  0  0  0  0  0  0
   41.3740   21.1740   37.5980 O   0  0  0  0  0  0  0  0  0  0  0  0
   40.0008   23.9645   35.1631 H   0  0  0  0  0  0  0  0  0  0  0  0
   37.5915   23.7947   39.4906 H   0  0  0  0  0  0  0  0  0  0  0  0
   37.1282   25.1108   34.5796 H   0  0  0  0  0  0  0  0  0  0  0  0
   38.2763   28.4854   33.8313 H   0  0  0  0  0  0  0  0  0  0  0  0
   37.6514   26.9591   33.1512 H   0  0  0  0  0  0  0  0  0  0  0  0
   42.3522   23.6021   35.6966 H   0  0  0  0  0  0  0  0  0  0  0  0
   44.1352   21.5969   35.9554 H   0  0  0  0  0  0  0  0  0  0  0  0
   42.9917   19.7600   37.5933 H   0  0  0  0  0  0  0  0  0  0  0  0
  1  6  2  0
  2  3  2  0
  2  1  1  0
  3  4  1  0
  4  5  2  0
  6  5  1  0
  7  3  1  0
  8  7  1  0
  8  9  2  0
 10  8  1  0
 11  9  1  0
 12  1  1  0
 12 16  1  0
 13 14  1  0
 13 12  2  0
 14 15  2  0
 15 16  1  0
  2 17  1  0
  5 18  1  0
  7 19  1  0
 10 20  1  0
 10 21  1  0
 13 22  1  0
 14 23  1  0
 15 24  1  0
M  ISO  5  17  14  18  14  22  14  23  14  24  14
M  END
>  <minimizedAffinity>  (1) 
-4.5581646

>  <minimizedRMSD>  (1) 
0.948870957

$$$$
