
     RDKit          3D

 24 25  0  0  0  0  0  0  0  0999 V2000
   39.7820   23.0360   37.0370 C   0  0  0  0  0  0  0  0  0  0  0  0
   39.2560   23.8440   36.0260 C   0  0  0  0  0  0  0  0  0  0  0  0
   38.1870   24.6980   36.4110 C   0  0  0  0  0  0  0  0  0  0  0  0
   37.7810   24.6560   37.6890 N   0  0  0  0  0  0  0  0  0  0  0  0
   38.3100   23.8650   38.6320 C   0  0  0  0  0  0  0  0  0  0  0  0
   39.3150   23.0550   38.2940 N   0  0  0  0  0  0  0  0  0  0  0  0
   37.5780   25.5680   35.4500 N   0  0  0  0  0  0  0  0  0  0  0  0
   38.0050   26.9140   35.3440 C   0  0  0  0  0  0  0  0  0  0  0  0
   38.6130   27.4980   36.3140 N   0  0  0  0  0  0  0  0  0  0  0  0
   37.7300   27.5720   34.1280 N   0  0  0  0  0  0  0  0  0  0  0  0
   38.9550   28.4830   36.3020 H   0  0  0  0  0  0  0  0  0  0  0  0
   40.8680   22.1630   36.6610 C   0  0  0  0  0  0  0  0  0  0  0  0
   41.6530   21.3390   37.4460 C   0  0  0  0  0  0  0  0  0  0  0  0
   42.6380   20.5920   36.8680 C   0  0  0  0  0  0  0  0  0  0  0  0
   42.7600   20.7480   35.4310 C   0  0  0  0  0  0  0  0  0  0  0  0
   41.4020   21.9960   35.0400 S   0  0  0  0  0  0  0  0  0  0  0  0
   39.6445   23.8208   34.9972 H   0  0  0  0  0  0  0  0  0  0  0  0
   37.9244   23.8829   39.6620 H   0  0  0  0  0  0  0  0  0  0  0  0
   36.8299   25.2149   34.8364 H   0  0  0  0  0  0  0  0  0  0  0  0
   38.0182   28.5520   33.9961 H   0  0  0  0  0  0  0  0  0  0  0  0
   37.2409   27.0727   33.3714 H   0  0  0  0  0  0  0  0  0  0  0  0
   41.4844   21.2858   38.5317 H   0  0  0  0  0  0  0  0  0  0  0  0
   43.2901   19.9223   37.4479 H   0  0  0  0  0  0  0  0  0  0  0  0
   43.4666   20.2610   34.7429 H   0  0  0  0  0  0  0  0  0  0  0  0
  1  6  2  0
  2  3  2  0
  2  1  1  0
  3  4  1  0
  4  5  2  0
  6  5  1  0
  7  3  1  0
  8  7  1  0
  8  9  2  0
 10  8  1  0
 11  9  1  0
 12  1  1  0
 12 13  2  0
 14 13  1  0
 15 14  2  0
 16 15  1  0
 16 12  1  0
  2 17  1  0
  5 18  1  0
  7 19  1  0
 10 20  1  0
 10 21  1  0
 13 22  1  0
 14 23  1  0
 15 24  1  0
M  ISO  5  17  14  18  14  22  14  23  14  24  14
M  END
>  <minimizedAffinity>  (1) 
-4.59619856

>  <minimizedRMSD>  (1) 
0.881479979

$$$$
