
     RDKit          3D

 24 25  0  0  0  0  0  0  0  0999 V2000
   39.8920   23.0160   36.7990 C   0  0  0  0  0  0  0  0  0  0  0  0
   39.2330   23.8760   35.9140 C   0  0  0  0  0  0  0  0  0  0  0  0
   38.2020   24.6710   36.4550 C   0  0  0  0  0  0  0  0  0  0  0  0
   37.9160   24.5550   37.7800 N   0  0  0  0  0  0  0  0  0  0  0  0
   38.5850   23.7050   38.5930 C   0  0  0  0  0  0  0  0  0  0  0  0
   39.5770   22.9330   38.0980 N   0  0  0  0  0  0  0  0  0  0  0  0
   37.4640   25.5840   35.6410 N   0  0  0  0  0  0  0  0  0  0  0  0
   37.8810   26.9410   35.5670 C   0  0  0  0  0  0  0  0  0  0  0  0
   38.6120   27.4770   36.4810 N   0  0  0  0  0  0  0  0  0  0  0  0
   37.4500   27.6780   34.4310 N   0  0  0  0  0  0  0  0  0  0  0  0
   38.9440   28.4580   36.4780 H   0  0  0  0  0  0  0  0  0  0  0  0
   40.9870   22.1510   36.2930 C   0  0  0  0  0  0  0  0  0  0  0  0
   42.4280   22.5160   36.5830 C   0  0  0  0  0  0  0  0  0  0  0  0
   41.7720   21.3860   37.3180 C   0  0  0  0  0  0  0  0  0  0  0  0
   39.5055   23.9293   34.8496 H   0  0  0  0  0  0  0  0  0  0  0  0
   38.3206   23.6425   39.6589 H   0  0  0  0  0  0  0  0  0  0  0  0
   36.6394   25.2628   35.1139 H   0  0  0  0  0  0  0  0  0  0  0  0
   37.7219   28.6657   34.3244 H   0  0  0  0  0  0  0  0  0  0  0  0
   36.8657   27.2245   33.7142 H   0  0  0  0  0  0  0  0  0  0  0  0
   40.4302   21.9137   35.3745 H   0  0  0  0  0  0  0  0  0  0  0  0
   43.2096   22.3080   35.8374 H   0  0  0  0  0  0  0  0  0  0  0  0
   42.9550   23.4356   36.8774 H   0  0  0  0  0  0  0  0  0  0  0  0
   41.5305   21.4934   38.3858 H   0  0  0  0  0  0  0  0  0  0  0  0
   42.0101   20.3238   37.4761 H   0  0  0  0  0  0  0  0  0  0  0  0
  1  6  2  0
  2  3  2  0
  2  1  1  0
  3  4  1  0
  4  5  2  0
  6  5  1  0
  7  3  1  0
  8  7  1  0
  8  9  2  0
 10  8  1  0
 11  9  1  0
 12 13  1  0
 12  1  1  0
 12 14  1  0
 13 14  1  0
  2 15  1  0
  5 16  1  0
  7 17  1  0
 10 18  1  0
 10 19  1  0
 12 20  1  0
 13 21  1  0
 13 22  1  0
 14 23  1  0
 14 24  1  0
M  ISO  7  15  14  16  14  20  13  21  13  22  13  23  13  24  13
M  END
>  <minimizedAffinity>  (1) 
-4.37432718

>  <minimizedRMSD>  (1) 
0.359959036

$$$$
