
     RDKit          3D

 31 34  0  0  0  0  0  0  0  0999 V2000
   39.8110   22.5880   38.1520 N   0  0  0  0  0  0  0  0  0  0  0  0
   38.6820   23.2930   38.0210 N   0  0  0  0  0  0  0  0  0  0  0  0
   38.6740   23.8960   36.8070 C   0  0  0  0  0  0  0  0  0  0  0  0
   39.8420   23.5570   36.1450 C   0  0  0  0  0  0  0  0  0  0  0  0
   40.5110   22.7460   37.0240 C   0  0  0  0  0  0  0  0  0  0  0  0
   41.7790   22.1510   36.7690 N   0  0  0  0  0  0  0  0  0  0  0  0
   42.1250   20.8530   36.8000 C   0  0  0  0  0  0  0  0  0  0  0  0
   43.4450   20.7020   36.4930 N   0  0  0  0  0  0  0  0  0  0  0  0
   43.9650   21.8980   36.2600 C   0  0  0  0  0  0  0  0  0  0  0  0
   45.1820   22.4760   35.9120 C   0  0  0  0  0  0  0  0  0  0  0  0
   45.3490   23.8080   35.7530 N   0  0  0  0  0  0  0  0  0  0  0  0
   44.3120   24.6360   35.9320 C   0  0  0  0  0  0  0  0  0  0  0  0
   43.1440   24.0990   36.2640 N   0  0  0  0  0  0  0  0  0  0  0  0
   42.9280   22.7770   36.4330 C   0  0  0  0  0  0  0  0  0  0  0  0
   37.6010   24.7070   36.3960 O   0  0  0  0  0  0  0  0  0  0  0  0
   37.8150   26.0310   36.0140 C   0  0  0  0  0  0  0  0  0  0  0  0
   38.3890   26.8440   36.7520 O   0  0  0  0  0  0  0  0  0  0  0  0
   37.3410   26.4570   34.6960 C   0  0  0  0  0  0  0  0  0  0  0  0
   37.4700   25.5730   33.6210 C   0  0  0  0  0  0  0  0  0  0  0  0
   37.0240   25.9600   32.3580 C   0  0  0  0  0  0  0  0  0  0  0  0
   36.4880   27.1840   32.2550 N   0  0  0  0  0  0  0  0  0  0  0  0
   36.3660   28.0280   33.2840 C   0  0  0  0  0  0  0  0  0  0  0  0
   36.7860   27.6850   34.5160 N   0  0  0  0  0  0  0  0  0  0  0  0
   40.0894   22.0274   38.9700 H   0  0  0  0  0  0  0  0  0  0  0  0
   40.1611   23.8687   35.1395 H   0  0  0  0  0  0  0  0  0  0  0  0
   41.4390   20.0272   37.0397 H   0  0  0  0  0  0  0  0  0  0  0  0
   46.0497   21.8175   35.7590 H   0  0  0  0  0  0  0  0  0  0  0  0
   44.4239   25.7233   35.8083 H   0  0  0  0  0  0  0  0  0  0  0  0
   37.9197   24.5803   33.7702 H   0  0  0  0  0  0  0  0  0  0  0  0
   37.1080   25.2926   31.4877 H   0  0  0  0  0  0  0  0  0  0  0  0
   35.9154   29.0183   33.1217 H   0  0  0  0  0  0  0  0  0  0  0  0
  2  1  1  0
  3  2  2  0
  4  3  1  0
  4  5  2  0
  5  1  1  0
  6  7  1  0
  6  5  1  0
  8  7  2  0
  9 14  2  0
  9  8  1  0
 10  9  1  0
 11 10  2  0
 11 12  1  0
 12 13  2  0
 13 14  1  0
 14  6  1  0
 15  3  1  0
 16 15  1  0
 16 17  2  0
 18 16  1  0
 19 18  2  0
 20 19  1  0
 21 20  2  0
 21 22  1  0
 22 23  2  0
 23 18  1  0
  1 24  1  0
  4 25  1  0
  7 26  1  0
 10 27  1  0
 12 28  1  0
 19 29  1  0
 20 30  1  0
 22 31  1  0
M  ISO  8  24   9  25  14  26  14  27  14  28  14  29  14  30  14  31  14
M  END
>  <minimizedAffinity>  (1) 
-5.23570156

>  <minimizedRMSD>  (1) 
1.37362373

$$$$
