
     RDKit          3D

 27 28  0  0  0  0  0  0  0  0999 V2000
   38.6770   23.1940   38.6660 N   0  0  0  0  0  0  0  0  0  0  0  0
   37.8700   24.0870   38.0880 N   0  0  0  0  0  0  0  0  0  0  0  0
   38.2020   24.1900   36.7790 C   0  0  0  0  0  0  0  0  0  0  0  0
   39.2470   23.3330   36.5380 C   0  0  0  0  0  0  0  0  0  0  0  0
   39.5350   22.7150   37.7270 C   0  0  0  0  0  0  0  0  0  0  0  0
   40.5500   21.7430   37.9520 N   0  0  0  0  0  0  0  0  0  0  0  0
   41.7270   21.6820   37.1550 C   0  0  0  0  0  0  0  0  0  0  0  0
   42.2260   22.8310   36.7780 N   0  0  0  0  0  0  0  0  0  0  0  0
   42.2680   20.3840   36.8320 N   0  0  0  0  0  0  0  0  0  0  0  0
   43.0930   22.7670   36.1910 H   0  0  0  0  0  0  0  0  0  0  0  0
   37.5250   25.0560   35.9090 O   0  0  0  0  0  0  0  0  0  0  0  0
   37.9460   26.3750   35.7390 C   0  0  0  0  0  0  0  0  0  0  0  0
   38.6520   26.9540   36.5880 O   0  0  0  0  0  0  0  0  0  0  0  0
   37.5400   27.0850   34.5270 C   0  0  0  0  0  0  0  0  0  0  0  0
   38.2670   26.8630   33.3570 C   0  0  0  0  0  0  0  0  0  0  0  0
   37.8980   27.5300   32.1880 C   0  0  0  0  0  0  0  0  0  0  0  0
   36.8460   28.3580   32.2720 N   0  0  0  0  0  0  0  0  0  0  0  0
   36.1520   28.5640   33.4040 C   0  0  0  0  0  0  0  0  0  0  0  0
   36.4920   27.9330   34.5340 N   0  0  0  0  0  0  0  0  0  0  0  0
   38.6533   22.9149   39.6572 H   0  0  0  0  0  0  0  0  0  0  0  0
   39.7554   23.1730   35.5757 H   0  0  0  0  0  0  0  0  0  0  0  0
   40.4287   21.0625   38.7156 H   0  0  0  0  0  0  0  0  0  0  0  0
   43.1191   20.3094   36.2567 H   0  0  0  0  0  0  0  0  0  0  0  0
   41.8031   19.5320   37.1767 H   0  0  0  0  0  0  0  0  0  0  0  0
   39.1213   26.1701   33.3560 H   0  0  0  0  0  0  0  0  0  0  0  0
   38.4432   27.3839   31.2438 H   0  0  0  0  0  0  0  0  0  0  0  0
   35.2976   29.2568   33.4018 H   0  0  0  0  0  0  0  0  0  0  0  0
  2  1  1  0
  3  2  2  0
  4  3  1  0
  4  5  2  0
  5  6  1  0
  5  1  1  0
  7  6  1  0
  8  7  2  0
  9  7  1  0
 10  8  1  0
 11  3  1  0
 12 11  1  0
 12 13  2  0
 14 19  1  0
 14 12  1  0
 15 14  2  0
 16 17  2  0
 16 15  1  0
 17 18  1  0
 18 19  2  0
  1 20  1  0
  4 21  1  0
  6 22  1  0
  9 23  1  0
  9 24  1  0
 15 25  1  0
 16 26  1  0
 18 27  1  0
M  ISO  5  20   9  21  14  25  14  26  14  27  14
M  END
>  <minimizedAffinity>  (1) 
-5.20777798

>  <minimizedRMSD>  (1) 
0.455427021

$$$$
