
     RDKit          3D

 36 37  0  0  0  0  0  0  0  0999 V2000
   38.6130   23.6080   36.8830 C   0  0  0  0  0  0  0  0  0  0  0  0
   41.8750   21.7560   36.8980 C   0  0  0  0  0  0  0  0  0  0  0  0
   40.5620   22.0760   37.1980 C   0  0  0  0  0  0  0  0  0  0  0  0
   39.9820   23.2070   36.6180 C   0  0  0  0  0  0  0  0  0  0  0  0
   40.7430   23.9610   35.7670 N   0  0  0  0  0  0  0  0  0  0  0  0
   42.0240   23.6250   35.4900 C   0  0  0  0  0  0  0  0  0  0  0  0
   42.5790   22.5220   36.0610 N   0  0  0  0  0  0  0  0  0  0  0  0
   42.4690   20.5460   37.5300 C   0  0  0  0  0  0  0  0  0  0  0  0
   43.2050   19.6790   36.5780 C   0  0  0  0  0  0  0  0  0  0  0  0
   38.3510   23.4050   38.3650 C   0  0  0  0  0  0  0  0  0  0  0  0
   38.3040   25.0350   36.5090 C   0  0  0  0  0  0  0  0  0  0  0  0
   37.6610   22.7130   36.1050 C   0  0  0  0  0  0  0  0  0  0  0  0
   37.9310   22.7250   34.6940 N   0  0  0  0  0  0  0  0  0  0  0  0
   38.4480   21.7580   33.8950 C   0  0  0  0  0  0  0  0  0  0  0  0
   38.5160   22.2420   32.6190 N   0  0  0  0  0  0  0  0  0  0  0  0
   38.0470   23.4880   32.6350 C   0  0  0  0  0  0  0  0  0  0  0  0
   37.6970   23.7610   33.9070 N   0  0  0  0  0  0  0  0  0  0  0  0
   37.9410   24.3850   31.4650 C   0  0  0  0  0  0  0  0  0  0  0  0
   37.1900   23.9700   30.5620 O   0  0  0  0  0  0  0  0  0  0  0  0
   39.9806   21.4455   37.8868 H   0  0  0  0  0  0  0  0  0  0  0  0
   42.6177   24.2447   34.8019 H   0  0  0  0  0  0  0  0  0  0  0  0
   43.1672   20.8712   38.3153 H   0  0  0  0  0  0  0  0  0  0  0  0
   41.6360   19.9499   37.9311 H   0  0  0  0  0  0  0  0  0  0  0  0
   43.8178   18.9572   37.1379 H   0  0  0  0  0  0  0  0  0  0  0  0
   42.4869   19.1372   35.9450 H   0  0  0  0  0  0  0  0  0  0  0  0
   43.8563   20.2996   35.9450 H   0  0  0  0  0  0  0  0  0  0  0  0
   39.0878   23.9759   38.9492 H   0  0  0  0  0  0  0  0  0  0  0  0
   37.3376   23.7560   38.6097 H   0  0  0  0  0  0  0  0  0  0  0  0
   38.4378   22.3361   38.6097 H   0  0  0  0  0  0  0  0  0  0  0  0
   38.1744   25.6337   37.4227 H   0  0  0  0  0  0  0  0  0  0  0  0
   39.1339   25.4465   35.9157 H   0  0  0  0  0  0  0  0  0  0  0  0
   37.3783   25.0663   35.9157 H   0  0  0  0  0  0  0  0  0  0  0  0
   37.7622   21.6823   36.4757 H   0  0  0  0  0  0  0  0  0  0  0  0
   36.6409   23.0960   36.2554 H   0  0  0  0  0  0  0  0  0  0  0  0
   38.7597   20.7542   34.2195 H   0  0  0  0  0  0  0  0  0  0  0  0
   38.4811   25.3409   31.3972 H   0  0  0  0  0  0  0  0  0  0  0  0
  1 10  1  0
  2  3  2  0
  2  8  1  0
  4  1  1  0
  4  3  1  0
  5  4  2  0
  6  5  1  0
  6  7  2  0
  7  2  1  0
  9  8  1  0
 11  1  1  0
 12  1  1  0
 13 12  1  0
 14 13  1  0
 15 16  1  0
 15 14  2  0
 16 17  2  0
 17 13  1  0
 18 16  1  0
 19 18  2  0
  3 20  1  0
  6 21  1  0
  8 22  1  0
  8 23  1  0
  9 24  1  0
  9 25  1  0
  9 26  1  0
 10 27  1  0
 10 28  1  0
 10 29  1  0
 11 30  1  0
 11 31  1  0
 11 32  1  0
 12 33  1  0
 12 34  1  0
 14 35  1  0
 18 36  1  0
M  ISO  8  20  14  21  14  22   8  23   8  24   8  25   8  26   8  27   8
M  ISO  8  28   8  29   8  30   8  31   8  32   8  33   8  34   8  35  14
M  ISO  1  36   6
M  END
>  <minimizedAffinity>  (1) 
-4.04223585

>  <minimizedRMSD>  (1) 
0.0539054275

$$$$
