
     RDKit          3D

 27 29  0  0  0  0  0  0  0  0999 V2000
   39.3810   22.7230   38.4570 N   0  0  0  0  0  0  0  0  0  0  0  0
   38.3430   23.4980   38.1970 N   0  0  0  0  0  0  0  0  0  0  0  0
   38.4250   23.9880   36.9370 C   0  0  0  0  0  0  0  0  0  0  0  0
   39.5890   23.4870   36.3710 C   0  0  0  0  0  0  0  0  0  0  0  0
   40.1470   22.7080   37.3530 C   0  0  0  0  0  0  0  0  0  0  0  0
   41.4140   22.0070   37.0990 C   0  0  0  0  0  0  0  0  0  0  0  0
   42.4000   22.4830   36.2590 C   0  0  0  0  0  0  0  0  0  0  0  0
   43.4760   21.6150   36.2160 C   0  0  0  0  0  0  0  0  0  0  0  0
   43.1010   20.6160   37.0510 N   0  0  0  0  0  0  0  0  0  0  0  0
   41.9090   20.8480   37.5590 N   0  0  0  0  0  0  0  0  0  0  0  0
   37.4490   24.8430   36.3980 O   0  0  0  0  0  0  0  0  0  0  0  0
   37.8010   26.1120   35.9430 C   0  0  0  0  0  0  0  0  0  0  0  0
   38.5240   26.8830   36.6130 O   0  0  0  0  0  0  0  0  0  0  0  0
   37.3080   26.5620   34.6300 C   0  0  0  0  0  0  0  0  0  0  0  0
   37.4030   25.6540   33.5630 C   0  0  0  0  0  0  0  0  0  0  0  0
   36.9310   26.0880   32.3090 C   0  0  0  0  0  0  0  0  0  0  0  0
   36.4260   27.3330   32.2270 N   0  0  0  0  0  0  0  0  0  0  0  0
   36.3540   28.1610   33.2590 C   0  0  0  0  0  0  0  0  0  0  0  0
   36.7930   27.8020   34.4900 N   0  0  0  0  0  0  0  0  0  0  0  0
   39.5677   22.2247   39.3389 H   0  0  0  0  0  0  0  0  0  0  0  0
   39.9781   23.6732   35.3591 H   0  0  0  0  0  0  0  0  0  0  0  0
   42.3384   23.4273   35.6981 H   0  0  0  0  0  0  0  0  0  0  0  0
   44.4098   21.7122   35.6428 H   0  0  0  0  0  0  0  0  0  0  0  0
   43.6728   19.7853   37.2605 H   0  0  0  0  0  0  0  0  0  0  0  0
   37.8272   24.6484   33.7005 H   0  0  0  0  0  0  0  0  0  0  0  0
   36.9736   25.4321   31.4270 H   0  0  0  0  0  0  0  0  0  0  0  0
   35.9275   29.1644   33.1130 H   0  0  0  0  0  0  0  0  0  0  0  0
  2  1  1  0
  3  2  2  0
  4  3  1  0
  4  5  2  0
  5  1  1  0
  6  5  1  0
  6 10  2  0
  7  6  1  0
  8  7  2  0
  8  9  1  0
  9 10  1  0
 11  3  1  0
 12 11  1  0
 12 13  2  0
 14 12  1  0
 15 14  2  0
 16 15  1  0
 17 16  2  0
 17 18  1  0
 18 19  2  0
 19 14  1  0
  1 20  1  0
  4 21  1  0
  7 22  1  0
  8 23  1  0
  9 24  1  0
 15 25  1  0
 16 26  1  0
 18 27  1  0
M  ISO  8  20   9  21  14  22  14  23  14  24   9  25  14  26  14  27  14
M  END
>  <minimizedAffinity>  (1) 
-4.96043539

>  <minimizedRMSD>  (1) 
0.961674452

$$$$
