
     RDKit          3D

 30 32  0  0  0  0  0  0  0  0999 V2000
   39.9810   22.6150   38.2240 N   0  0  0  0  0  0  0  0  0  0  0  0
   38.8570   23.3120   38.1060 N   0  0  0  0  0  0  0  0  0  0  0  0
   38.7620   23.8120   36.8460 C   0  0  0  0  0  0  0  0  0  0  0  0
   39.8780   23.4080   36.1500 C   0  0  0  0  0  0  0  0  0  0  0  0
   40.6080   22.6660   37.0430 C   0  0  0  0  0  0  0  0  0  0  0  0
   41.8550   22.0210   36.8090 N   0  0  0  0  0  0  0  0  0  0  0  0
   42.0370   20.6990   36.9850 C   0  0  0  0  0  0  0  0  0  0  0  0
   43.3010   20.1570   36.7290 C   0  0  0  0  0  0  0  0  0  0  0  0
   44.3350   20.9760   36.3040 C   0  0  0  0  0  0  0  0  0  0  0  0
   45.4560   20.4360   36.0870 O   0  0  0  0  0  0  0  0  0  0  0  0
   44.1020   22.3090   36.1400 N   0  0  0  0  0  0  0  0  0  0  0  0
   42.8690   22.8060   36.3950 C   0  0  0  0  0  0  0  0  0  0  0  0
   42.7530   24.0590   36.2130 O   0  0  0  0  0  0  0  0  0  0  0  0
   37.6710   24.5950   36.4300 O   0  0  0  0  0  0  0  0  0  0  0  0
   37.8630   25.8870   35.9420 C   0  0  0  0  0  0  0  0  0  0  0  0
   38.3730   26.7780   36.6310 O   0  0  0  0  0  0  0  0  0  0  0  0
   37.4440   26.1800   34.5720 C   0  0  0  0  0  0  0  0  0  0  0  0
   37.6150   25.1810   33.6020 C   0  0  0  0  0  0  0  0  0  0  0  0
   37.2190   25.4460   32.2920 C   0  0  0  0  0  0  0  0  0  0  0  0
   36.6910   26.6600   32.0400 N   0  0  0  0  0  0  0  0  0  0  0  0
   36.5310   27.6120   32.9760 C   0  0  0  0  0  0  0  0  0  0  0  0
   36.9070   27.3750   34.2480 N   0  0  0  0  0  0  0  0  0  0  0  0
   40.3096   22.1255   39.0686 H   0  0  0  0  0  0  0  0  0  0  0  0
   40.1303   23.6319   35.1030 H   0  0  0  0  0  0  0  0  0  0  0  0
   41.2092   20.0583   37.3230 H   0  0  0  0  0  0  0  0  0  0  0  0
   43.4744   19.0793   36.8652 H   0  0  0  0  0  0  0  0  0  0  0  0
   44.8582   22.9332   35.8245 H   0  0  0  0  0  0  0  0  0  0  0  0
   38.0528   24.2081   33.8698 H   0  0  0  0  0  0  0  0  0  0  0  0
   37.3328   24.6949   31.4965 H   0  0  0  0  0  0  0  0  0  0  0  0
   36.0934   28.5837   32.7034 H   0  0  0  0  0  0  0  0  0  0  0  0
  2  1  1  0
  3  2  2  0
  4  3  1  0
  4  5  2  0
  5  1  1  0
  6  7  1  0
  6  5  1  0
  8  7  2  0
  9  8  1  0
 10  9  2  0
 11  9  1  0
 11 12  1  0
 12  6  1  0
 13 12  2  0
 14  3  1  0
 15 14  1  0
 15 16  2  0
 17 15  1  0
 18 17  2  0
 19 18  1  0
 20 19  2  0
 20 21  1  0
 21 22  2  0
 22 17  1  0
  1 23  1  0
  4 24  1  0
  7 25  1  0
  8 26  1  0
 11 27  1  0
 18 28  1  0
 19 29  1  0
 21 30  1  0
M  ISO  8  23   9  24  14  25  14  26  14  27   9  28  14  29  14  30  14
M  END
>  <minimizedAffinity>  (1) 
-4.98849297

>  <minimizedRMSD>  (1) 
1.507249

$$$$
