
     RDKit          3D

 32 33  0  0  0  0  0  0  0  0999 V2000
   37.6430   24.7020   36.3920 O   0  0  0  0  0  0  0  0  0  0  0  0
   39.8180   22.5340   38.1090 N   0  0  0  0  0  0  0  0  0  0  0  0
   38.6990   23.2470   37.9850 N   0  0  0  0  0  0  0  0  0  0  0  0
   38.7200   23.8740   36.7780 C   0  0  0  0  0  0  0  0  0  0  0  0
   39.8950   23.5510   36.1060 C   0  0  0  0  0  0  0  0  0  0  0  0
   40.5460   22.7100   36.9820 C   0  0  0  0  0  0  0  0  0  0  0  0
   41.8840   22.1390   36.5970 C   0  0  0  0  0  0  0  0  0  0  0  0
   42.9780   23.1600   36.6160 C   0  0  0  0  0  0  0  0  0  0  0  0
   42.1800   20.9230   37.4470 C   0  0  0  0  0  0  0  0  0  0  0  0
   41.8300   21.6160   35.1570 C   0  0  0  0  0  0  0  0  0  0  0  0
   37.8400   26.0130   36.0020 C   0  0  0  0  0  0  0  0  0  0  0  0
   38.4100   26.8220   36.7460 O   0  0  0  0  0  0  0  0  0  0  0  0
   37.3630   26.4470   34.6780 C   0  0  0  0  0  0  0  0  0  0  0  0
   37.4680   25.5660   33.6130 C   0  0  0  0  0  0  0  0  0  0  0  0
   37.0140   25.9800   32.3630 C   0  0  0  0  0  0  0  0  0  0  0  0
   36.4990   27.2140   32.2610 N   0  0  0  0  0  0  0  0  0  0  0  0
   36.4080   28.0460   33.3030 C   0  0  0  0  0  0  0  0  0  0  0  0
   36.8330   27.6880   34.5270 N   0  0  0  0  0  0  0  0  0  0  0  0
   40.0815   21.9531   38.9177 H   0  0  0  0  0  0  0  0  0  0  0  0
   40.2254   23.8871   35.1121 H   0  0  0  0  0  0  0  0  0  0  0  0
   43.2364   23.4012   37.6577 H   0  0  0  0  0  0  0  0  0  0  0  0
   43.8637   22.7580   36.1022 H   0  0  0  0  0  0  0  0  0  0  0  0
   42.6381   24.0713   36.1022 H   0  0  0  0  0  0  0  0  0  0  0  0
   42.1139   21.1944   38.5109 H   0  0  0  0  0  0  0  0  0  0  0  0
   41.4480   20.1328   37.2240 H   0  0  0  0  0  0  0  0  0  0  0  0
   43.1933   20.5576   37.2240 H   0  0  0  0  0  0  0  0  0  0  0  0
   41.7170   20.5219   35.1683 H   0  0  0  0  0  0  0  0  0  0  0  0
   40.9737   22.0677   34.6347 H   0  0  0  0  0  0  0  0  0  0  0  0
   42.7605   21.8832   34.6347 H   0  0  0  0  0  0  0  0  0  0  0  0
   37.8996   24.5638   33.7517 H   0  0  0  0  0  0  0  0  0  0  0  0
   37.0759   25.3163   31.4879 H   0  0  0  0  0  0  0  0  0  0  0  0
   35.9754   29.0466   33.1556 H   0  0  0  0  0  0  0  0  0  0  0  0
  1  4  1  0
  3  2  1  0
  4  3  2  0
  5  4  1  0
  5  6  2  0
  6  2  1  0
  7  8  1  0
  7  6  1  0
  7  9  1  0
 10  7  1  0
 11  1  1  0
 11 12  2  0
 13 11  1  0
 14 13  2  0
 15 14  1  0
 16 15  2  0
 16 17  1  0
 17 18  2  0
 18 13  1  0
  2 19  1  0
  5 20  1  0
  8 21  1  0
  8 22  1  0
  8 23  1  0
  9 24  1  0
  9 25  1  0
  9 26  1  0
 10 27  1  0
 10 28  1  0
 10 29  1  0
 14 30  1  0
 15 31  1  0
 17 32  1  0
M  ISO  8  19   9  20  14  21   8  22   8  23   8  24   8  25   8  26   8
M  ISO  6  27   8  28   8  29   8  30  14  31  14  32  14
M  END
>  <minimizedAffinity>  (1) 
-4.92197514

>  <minimizedRMSD>  (1) 
1.28496468

$$$$
