
     RDKit          3D

 27 29  0  0  0  0  0  0  0  0999 V2000
   39.3900   22.7590   38.5010 N   0  0  0  0  0  0  0  0  0  0  0  0
   38.4020   23.6330   38.2960 N   0  0  0  0  0  0  0  0  0  0  0  0
   38.4130   24.0340   36.9990 C   0  0  0  0  0  0  0  0  0  0  0  0
   39.4610   23.3780   36.3590 C   0  0  0  0  0  0  0  0  0  0  0  0
   40.0340   22.6010   37.3340 C   0  0  0  0  0  0  0  0  0  0  0  0
   41.1680   21.7940   36.9450 N   0  0  0  0  0  0  0  0  0  0  0  0
   41.5200   21.7520   35.6590 N   0  0  0  0  0  0  0  0  0  0  0  0
   42.5990   20.9470   35.5050 C   0  0  0  0  0  0  0  0  0  0  0  0
   42.9240   20.4730   36.7500 C   0  0  0  0  0  0  0  0  0  0  0  0
   42.0160   21.0120   37.6560 C   0  0  0  0  0  0  0  0  0  0  0  0
   37.4790   24.9560   36.5050 O   0  0  0  0  0  0  0  0  0  0  0  0
   37.9100   26.1060   35.8440 C   0  0  0  0  0  0  0  0  0  0  0  0
   38.6840   26.9350   36.3810 O   0  0  0  0  0  0  0  0  0  0  0  0
   37.4470   26.3570   34.4800 C   0  0  0  0  0  0  0  0  0  0  0  0
   37.6020   25.3420   33.5370 C   0  0  0  0  0  0  0  0  0  0  0  0
   37.1760   25.5370   32.2270 C   0  0  0  0  0  0  0  0  0  0  0  0
   36.6180   26.7460   31.9540 N   0  0  0  0  0  0  0  0  0  0  0  0
   36.4730   27.7100   32.8650 C   0  0  0  0  0  0  0  0  0  0  0  0
   36.8840   27.5350   34.1430 N   0  0  0  0  0  0  0  0  0  0  0  0
   39.6164   22.2920   39.3907 H   0  0  0  0  0  0  0  0  0  0  0  0
   39.7629   23.4637   35.3047 H   0  0  0  0  0  0  0  0  0  0  0  0
   43.1156   20.7175   34.5614 H   0  0  0  0  0  0  0  0  0  0  0  0
   43.7526   19.7902   36.9892 H   0  0  0  0  0  0  0  0  0  0  0  0
   41.9913   20.8368   38.7417 H   0  0  0  0  0  0  0  0  0  0  0  0
   38.0615   24.3862   33.8289 H   0  0  0  0  0  0  0  0  0  0  0  0
   37.2844   24.7585   31.4574 H   0  0  0  0  0  0  0  0  0  0  0  0
   36.0111   28.6644   32.5723 H   0  0  0  0  0  0  0  0  0  0  0  0
  2  1  1  0
  3  2  2  0
  4  3  1  0
  4  5  2  0
  5  1  1  0
  6  5  1  0
  6 10  1  0
  7  6  1  0
  8  7  2  0
  8  9  1  0
  9 10  2  0
 11  3  1  0
 12 13  2  0
 12 11  1  0
 14 12  1  0
 15 14  2  0
 16 15  1  0
 17 16  2  0
 17 18  1  0
 18 19  2  0
 19 14  1  0
  1 20  1  0
  4 21  1  0
  8 22  1  0
  9 23  1  0
 10 24  1  0
 15 25  1  0
 16 26  1  0
 18 27  1  0
M  ISO  8  20   9  21  14  22  14  23  14  24  14  25  14  26  14  27  14
M  END
>  <minimizedAffinity>  (1) 
-4.91649246

>  <minimizedRMSD>  (1) 
1.07687569

$$$$
