
     RDKit          3D

 21 22  0  0  0  0  0  0  0  0999 V2000
   37.9330   26.2790   35.8210 C   0  0  0  0  0  0  0  0  0  0  0  0
   38.5060   26.9070   36.7130 O   0  0  0  0  0  0  0  0  0  0  0  0
   37.6850   26.9220   34.5250 C   0  0  0  0  0  0  0  0  0  0  0  0
   38.5990   26.6790   33.4880 C   0  0  0  0  0  0  0  0  0  0  0  0
   38.3690   27.2890   32.2520 C   0  0  0  0  0  0  0  0  0  0  0  0
   37.2880   28.0680   32.1360 N   0  0  0  0  0  0  0  0  0  0  0  0
   36.4230   28.2900   33.1410 C   0  0  0  0  0  0  0  0  0  0  0  0
   36.6090   27.7180   34.3540 N   0  0  0  0  0  0  0  0  0  0  0  0
   37.5100   24.9630   36.0070 O   0  0  0  0  0  0  0  0  0  0  0  0
   38.6990   23.0030   38.6740 N   0  0  0  0  0  0  0  0  0  0  0  0
   37.8610   23.8680   38.1260 N   0  0  0  0  0  0  0  0  0  0  0  0
   38.2340   24.0780   36.8320 C   0  0  0  0  0  0  0  0  0  0  0  0
   39.3530   23.3100   36.5680 C   0  0  0  0  0  0  0  0  0  0  0  0
   39.6130   22.6510   37.7410 C   0  0  0  0  0  0  0  0  0  0  0  0
   40.6530   21.7560   37.9590 O   0  0  0  0  0  0  0  0  0  0  0  0
   39.4713   26.0272   33.6437 H   0  0  0  0  0  0  0  0  0  0  0  0
   39.0528   27.1340   31.4044 H   0  0  0  0  0  0  0  0  0  0  0  0
   35.5541   28.9440   32.9759 H   0  0  0  0  0  0  0  0  0  0  0  0
   38.6618   22.6574   39.6436 H   0  0  0  0  0  0  0  0  0  0  0  0
   39.9122   23.2427   35.6231 H   0  0  0  0  0  0  0  0  0  0  0  0
   40.7600   21.3278   38.8452 H   0  0  0  0  0  0  0  0  0  0  0  0
  1  9  1  0
  1  2  2  0
  3  1  1  0
  4  3  2  0
  5  4  1  0
  6  5  2  0
  6  7  1  0
  7  8  2  0
  8  3  1  0
  9 12  1  0
 11 10  1  0
 12 11  2  0
 13 12  1  0
 13 14  2  0
 14 15  1  0
 14 10  1  0
  4 16  1  0
  5 17  1  0
  7 18  1  0
 10 19  1  0
 13 20  1  0
 15 21  1  0
M  ISO  6  16  14  17  14  18  14  19   9  20  14  21   3
M  END
>  <minimizedAffinity>  (1) 
-4.749547

>  <minimizedRMSD>  (1) 
0.203723758

$$$$
