
     RDKit          3D

 26 28  0  0  0  0  0  0  0  0999 V2000
   39.4740   22.6680   38.2040 N   0  0  0  0  0  0  0  0  0  0  0  0
   38.5010   23.5490   38.1160 N   0  0  0  0  0  0  0  0  0  0  0  0
   38.4670   24.0870   36.8740 C   0  0  0  0  0  0  0  0  0  0  0  0
   39.4780   23.5010   36.1600 C   0  0  0  0  0  0  0  0  0  0  0  0
   40.0970   22.6180   37.0050 C   0  0  0  0  0  0  0  0  0  0  0  0
   41.2520   21.7440   36.6850 C   0  0  0  0  0  0  0  0  0  0  0  0
   41.7680   21.6600   35.3530 C   0  0  0  0  0  0  0  0  0  0  0  0
   43.1420   20.4910   35.4860 S   0  0  0  0  0  0  0  0  0  0  0  0
   42.8250   20.2780   37.3370 C   0  0  0  0  0  0  0  0  0  0  0  0
   41.9480   20.9650   37.4810 N   0  0  0  0  0  0  0  0  0  0  0  0
   37.5200   25.0630   36.5050 O   0  0  0  0  0  0  0  0  0  0  0  0
   37.9350   26.2290   35.8590 C   0  0  0  0  0  0  0  0  0  0  0  0
   38.7740   27.0210   36.3510 O   0  0  0  0  0  0  0  0  0  0  0  0
   37.3660   26.5390   34.5510 C   0  0  0  0  0  0  0  0  0  0  0  0
   37.4370   25.5470   33.5580 C   0  0  0  0  0  0  0  0  0  0  0  0
   36.9020   25.8120   32.2940 C   0  0  0  0  0  0  0  0  0  0  0  0
   36.3410   27.0260   32.1080 N   0  0  0  0  0  0  0  0  0  0  0  0
   36.2820   27.9520   33.0580 C   0  0  0  0  0  0  0  0  0  0  0  0
   36.7910   27.7320   34.2960 N   0  0  0  0  0  0  0  0  0  0  0  0
   39.7178   22.1148   39.0379 H   0  0  0  0  0  0  0  0  0  0  0  0
   39.7420   23.7006   35.1110 H   0  0  0  0  0  0  0  0  0  0  0  0
   41.4112   22.1854   34.4548 H   0  0  0  0  0  0  0  0  0  0  0  0
   43.3540   19.6530   38.0715 H   0  0  0  0  0  0  0  0  0  0  0  0
   37.9069   24.5758   33.7724 H   0  0  0  0  0  0  0  0  0  0  0  0
   36.9365   25.0651   31.4872 H   0  0  0  0  0  0  0  0  0  0  0  0
   35.8093   28.9201   32.8358 H   0  0  0  0  0  0  0  0  0  0  0  0
  2  1  1  0
  3  2  2  0
  4  3  1  0
  4  5  2  0
  5  1  1  0
  6  5  1  0
  6 10  1  0
  7  8  1  0
  7  6  2  0
  8  9  1  0
  9 10  2  0
 11  3  1  0
 12 13  2  0
 12 11  1  0
 14 12  1  0
 15 14  2  0
 16 15  1  0
 17 16  2  0
 17 18  1  0
 18 19  2  0
 19 14  1  0
  1 20  1  0
  4 21  1  0
  7 22  1  0
  9 23  1  0
 15 24  1  0
 16 25  1  0
 18 26  1  0
M  ISO  7  20   9  21  14  22  14  23  14  24  14  25  14  26  14
M  END
>  <minimizedAffinity>  (1) 
-4.82037067

>  <minimizedRMSD>  (1) 
1.24657655

$$$$
