
     RDKit          3D

 37 38  0  0  0  0  0  0  0  0999 V2000
   38.6280   23.6110   36.8920 C   0  0  0  0  0  0  0  0  0  0  0  0
   41.8870   21.7480   36.9010 C   0  0  0  0  0  0  0  0  0  0  0  0
   40.5750   22.0790   37.2000 C   0  0  0  0  0  0  0  0  0  0  0  0
   39.9890   23.2100   36.6250 C   0  0  0  0  0  0  0  0  0  0  0  0
   40.7510   23.9510   35.7760 N   0  0  0  0  0  0  0  0  0  0  0  0
   42.0270   23.6230   35.4900 C   0  0  0  0  0  0  0  0  0  0  0  0
   42.5900   22.5170   36.0570 N   0  0  0  0  0  0  0  0  0  0  0  0
   42.4740   20.5380   37.5330 C   0  0  0  0  0  0  0  0  0  0  0  0
   43.2070   19.6730   36.5690 C   0  0  0  0  0  0  0  0  0  0  0  0
   38.3780   23.4210   38.3870 C   0  0  0  0  0  0  0  0  0  0  0  0
   38.3130   25.0380   36.5140 C   0  0  0  0  0  0  0  0  0  0  0  0
   37.6780   22.7220   36.1270 C   0  0  0  0  0  0  0  0  0  0  0  0
   37.9370   22.7200   34.7220 N   0  0  0  0  0  0  0  0  0  0  0  0
   38.4580   21.7390   33.9290 C   0  0  0  0  0  0  0  0  0  0  0  0
   38.5260   22.1790   32.6530 N   0  0  0  0  0  0  0  0  0  0  0  0
   38.0460   23.4340   32.6560 C   0  0  0  0  0  0  0  0  0  0  0  0
   37.6990   23.7410   33.9020 N   0  0  0  0  0  0  0  0  0  0  0  0
   37.9270   24.3260   31.4550 C   0  0  0  0  0  0  0  0  0  0  0  0
   39.9939   21.4506   37.8910 H   0  0  0  0  0  0  0  0  0  0  0  0
   42.6140   24.2468   34.7998 H   0  0  0  0  0  0  0  0  0  0  0  0
   43.1742   20.8581   38.3186 H   0  0  0  0  0  0  0  0  0  0  0  0
   41.6422   19.9441   37.9397 H   0  0  0  0  0  0  0  0  0  0  0  0
   43.8219   18.9474   37.1216 H   0  0  0  0  0  0  0  0  0  0  0  0
   42.4852   19.1355   35.9364 H   0  0  0  0  0  0  0  0  0  0  0  0
   43.8557   20.2968   35.9364 H   0  0  0  0  0  0  0  0  0  0  0  0
   39.1261   23.9895   38.9590 H   0  0  0  0  0  0  0  0  0  0  0  0
   37.3705   23.7834   38.6393 H   0  0  0  0  0  0  0  0  0  0  0  0
   38.4574   22.3533   38.6393 H   0  0  0  0  0  0  0  0  0  0  0  0
   38.1805   25.6382   37.4262 H   0  0  0  0  0  0  0  0  0  0  0  0
   39.1415   25.4514   35.9202 H   0  0  0  0  0  0  0  0  0  0  0  0
   37.3874   25.0642   35.9202 H   0  0  0  0  0  0  0  0  0  0  0  0
   37.7767   21.6936   36.5047 H   0  0  0  0  0  0  0  0  0  0  0  0
   36.6613   23.1141   36.2774 H   0  0  0  0  0  0  0  0  0  0  0  0
   38.7738   20.7438   34.2750 H   0  0  0  0  0  0  0  0  0  0  0  0
   37.7882   25.3666   31.7835 H   0  0  0  0  0  0  0  0  0  0  0  0
   38.8431   24.2514   30.8506 H   0  0  0  0  0  0  0  0  0  0  0  0
   37.0625   24.0138   30.8506 H   0  0  0  0  0  0  0  0  0  0  0  0
  1 10  1  0
  2  3  2  0
  2  8  1  0
  4  1  1  0
  4  3  1  0
  5  4  2  0
  6  5  1  0
  6  7  2  0
  7  2  1  0
  9  8  1  0
 11  1  1  0
 12  1  1  0
 13 12  1  0
 14 13  1  0
 15 16  1  0
 15 14  2  0
 16 17  2  0
 17 13  1  0
 18 16  1  0
  3 19  1  0
  6 20  1  0
  8 21  1  0
  8 22  1  0
  9 23  1  0
  9 24  1  0
  9 25  1  0
 10 26  1  0
 10 27  1  0
 10 28  1  0
 11 29  1  0
 11 30  1  0
 11 31  1  0
 12 32  1  0
 12 33  1  0
 14 34  1  0
 18 35  1  0
 18 36  1  0
 18 37  1  0
M  ISO  8  19  14  20  14  21   8  22   8  23   8  24   8  25   8  26   8
M  ISO  8  27   8  28   8  29   8  30   8  31   8  32   8  33   8  34  14
M  ISO  3  35   8  36   8  37   8
M  END
>  <minimizedAffinity>  (1) 
-3.99984002

>  <minimizedRMSD>  (1) 
0.0135943675

$$$$
