
     RDKit          3D

 22 23  0  0  0  0  0  0  0  0999 V2000
   37.8400   26.1320   35.8720 C   0  0  0  0  0  0  0  0  0  0  0  0
   38.6570   26.8540   36.4890 O   0  0  0  0  0  0  0  0  0  0  0  0
   37.2950   26.6190   34.5940 C   0  0  0  0  0  0  0  0  0  0  0  0
   37.3460   25.7570   33.5030 C   0  0  0  0  0  0  0  0  0  0  0  0
   36.8290   26.2070   32.2770 C   0  0  0  0  0  0  0  0  0  0  0  0
   36.3170   27.4540   32.2460 N   0  0  0  0  0  0  0  0  0  0  0  0
   36.2800   28.2590   33.3060 C   0  0  0  0  0  0  0  0  0  0  0  0
   36.7660   27.8590   34.4920 N   0  0  0  0  0  0  0  0  0  0  0  0
   37.4370   24.8960   36.3520 O   0  0  0  0  0  0  0  0  0  0  0  0
   39.2300   22.8860   38.6270 N   0  0  0  0  0  0  0  0  0  0  0  0
   38.2420   23.7170   38.2960 N   0  0  0  0  0  0  0  0  0  0  0  0
   38.3560   24.0290   36.9750 C   0  0  0  0  0  0  0  0  0  0  0  0
   39.4510   23.3700   36.4640 C   0  0  0  0  0  0  0  0  0  0  0  0
   39.9640   22.6710   37.5280 C   0  0  0  0  0  0  0  0  0  0  0  0
   41.1420   21.8140   37.4740 C   0  0  0  0  0  0  0  0  0  0  0  0
   41.5810   21.4190   36.3430 O   0  0  0  0  0  0  0  0  0  0  0  0
   37.7794   24.7505   33.5980 H   0  0  0  0  0  0  0  0  0  0  0  0
   36.8413   25.5695   31.3807 H   0  0  0  0  0  0  0  0  0  0  0  0
   35.8456   29.2649   33.2088 H   0  0  0  0  0  0  0  0  0  0  0  0
   39.3984   22.4822   39.5595 H   0  0  0  0  0  0  0  0  0  0  0  0
   39.8307   23.3974   35.4320 H   0  0  0  0  0  0  0  0  0  0  0  0
   41.6488   21.5100   38.4018 H   0  0  0  0  0  0  0  0  0  0  0  0
  1  9  1  0
  1  2  2  0
  3  1  1  0
  4  3  2  0
  5  4  1  0
  6  5  2  0
  6  7  1  0
  7  8  2  0
  8  3  1  0
  9 12  1  0
 11 10  1  0
 12 11  2  0
 13 12  1  0
 13 14  2  0
 14 10  1  0
 15 14  1  0
 16 15  2  0
  4 17  1  0
  5 18  1  0
  7 19  1  0
 10 20  1  0
 13 21  1  0
 15 22  1  0
M  ISO  6  17  14  18  14  19  14  20   9  21  14  22   6
M  END
>  <minimizedAffinity>  (1) 
-4.4899416

>  <minimizedRMSD>  (1) 
0.782570004

$$$$
