
     RDKit          3D

 41 44  0  0  0  0  0  0  0  0999 V2000
   37.8700   25.7930   36.0270 C   0  0  0  0  0  0  0  0  0  0  0  0
   38.4150   26.4810   36.9170 O   0  0  0  0  0  0  0  0  0  0  0  0
   37.3490   26.4530   34.8280 C   0  0  0  0  0  0  0  0  0  0  0  0
   37.4290   25.7830   33.6280 C   0  0  0  0  0  0  0  0  0  0  0  0
   36.9360   26.3970   32.4710 C   0  0  0  0  0  0  0  0  0  0  0  0
   36.4060   27.6300   32.6190 N   0  0  0  0  0  0  0  0  0  0  0  0
   36.3340   28.2660   33.7870 C   0  0  0  0  0  0  0  0  0  0  0  0
   36.8060   27.6820   34.9000 N   0  0  0  0  0  0  0  0  0  0  0  0
   35.7550   29.5800   33.8640 N   0  0  0  0  0  0  0  0  0  0  0  0
   35.8160   30.2510   35.0380 C   0  0  0  0  0  0  0  0  0  0  0  0
   35.2500   31.5150   35.0900 C   0  0  0  0  0  0  0  0  0  0  0  0
   35.2920   32.2920   36.3550 C   0  0  0  0  0  0  0  0  0  0  0  0
   34.6750   31.9730   33.9350 C   0  0  0  0  0  0  0  0  0  0  0  0
   34.1620   33.1300   34.0000 O   0  0  0  0  0  0  0  0  0  0  0  0
   34.6020   31.3290   32.7680 N   0  0  0  0  0  0  0  0  0  0  0  0
   35.1640   30.1060   32.7640 C   0  0  0  0  0  0  0  0  0  0  0  0
   35.1180   29.4560   31.6670 O   0  0  0  0  0  0  0  0  0  0  0  0
   37.7510   24.4260   36.1520 O   0  0  0  0  0  0  0  0  0  0  0  0
   39.9210   22.4490   38.1010 N   0  0  0  0  0  0  0  0  0  0  0  0
   38.8180   23.1590   37.8960 N   0  0  0  0  0  0  0  0  0  0  0  0
   38.8210   23.6340   36.6260 C   0  0  0  0  0  0  0  0  0  0  0  0
   39.9670   23.2080   36.0080 C   0  0  0  0  0  0  0  0  0  0  0  0
   40.6330   22.4740   36.9460 C   0  0  0  0  0  0  0  0  0  0  0  0
   41.9290   21.8120   36.7280 C   0  0  0  0  0  0  0  0  0  0  0  0
   42.9400   22.5040   36.0860 C   0  0  0  0  0  0  0  0  0  0  0  0
   44.1170   21.8090   35.9250 C   0  0  0  0  0  0  0  0  0  0  0  0
   44.3460   20.5370   36.3360 N   0  0  0  0  0  0  0  0  0  0  0  0
   43.3270   19.9050   36.9560 C   0  0  0  0  0  0  0  0  0  0  0  0
   42.1470   20.5520   37.1390 N   0  0  0  0  0  0  0  0  0  0  0  0
   37.8745   24.7784   33.5792 H   0  0  0  0  0  0  0  0  0  0  0  0
   36.9782   25.9001   31.4905 H   0  0  0  0  0  0  0  0  0  0  0  0
   36.2988   29.8078   35.9214 H   0  0  0  0  0  0  0  0  0  0  0  0
   35.2547   31.6018   37.2107 H   0  0  0  0  0  0  0  0  0  0  0  0
   36.2230   32.8764   36.3956 H   0  0  0  0  0  0  0  0  0  0  0  0
   34.4294   32.9733   36.3956 H   0  0  0  0  0  0  0  0  0  0  0  0
   34.1511   31.7359   31.9361 H   0  0  0  0  0  0  0  0  0  0  0  0
   40.1864   21.9693   38.9730 H   0  0  0  0  0  0  0  0  0  0  0  0
   40.2833   23.4139   34.9748 H   0  0  0  0  0  0  0  0  0  0  0  0
   42.8124   23.5367   35.7293 H   0  0  0  0  0  0  0  0  0  0  0  0
   44.9432   22.3302   35.4193 H   0  0  0  0  0  0  0  0  0  0  0  0
   43.4517   18.8714   37.3111 H   0  0  0  0  0  0  0  0  0  0  0  0
  1 18  1  0
  1  2  2  0
  3  8  1  0
  3  1  1  0
  4  3  2  0
  5  6  2  0
  5  4  1  0
  6  7  1  0
  7  9  1  0
  7  8  2  0
  9 10  1  0
 10 11  2  0
 11 12  1  0
 13 14  2  0
 13 11  1  0
 15 13  1  0
 16 15  1  0
 16  9  1  0
 17 16  2  0
 18 21  1  0
 20 19  1  0
 21 20  2  0
 22 21  1  0
 22 23  2  0
 23 19  1  0
 24 23  1  0
 24 29  1  0
 25 24  2  0
 26 25  1  0
 26 27  2  0
 27 28  1  0
 28 29  2  0
  4 30  1  0
  5 31  1  0
 10 32  1  0
 12 33  1  0
 12 34  1  0
 12 35  1  0
 15 36  1  0
 19 37  1  0
 22 38  1  0
 25 39  1  0
 26 40  1  0
 28 41  1  0
M  ISO  8  30  14  31  14  32  14  33   8  34   8  35   8  36   9  37   9
M  ISO  4  38  14  39  14  40  14  41  14
M  END
>  <minimizedAffinity>  (1) 
-6.50132513

>  <minimizedRMSD>  (1) 
0.735223174

$$$$
