
     RDKit          3D

 39 42  0  0  0  0  0  0  0  0999 V2000
   37.8760   25.9900   35.7290 C   0  0  0  0  0  0  0  0  0  0  0  0
   38.4460   26.9960   36.2190 O   0  0  0  0  0  0  0  0  0  0  0  0
   37.4780   26.0050   34.3070 C   0  0  0  0  0  0  0  0  0  0  0  0
   37.6610   24.8530   33.5650 C   0  0  0  0  0  0  0  0  0  0  0  0
   37.2790   24.8840   32.2170 C   0  0  0  0  0  0  0  0  0  0  0  0
   36.7600   26.0270   31.7350 N   0  0  0  0  0  0  0  0  0  0  0  0
   36.5960   27.1170   32.4730 C   0  0  0  0  0  0  0  0  0  0  0  0
   36.9480   27.1450   33.7790 N   0  0  0  0  0  0  0  0  0  0  0  0
   36.0540   28.3500   32.0140 N   0  0  0  0  0  0  0  0  0  0  0  0
   34.9130   28.8020   32.5670 C   0  0  0  0  0  0  0  0  0  0  0  0
   34.4080   30.0130   32.0940 C   0  0  0  0  0  0  0  0  0  0  0  0
   35.1230   30.6470   31.0990 C   0  0  0  0  0  0  0  0  0  0  0  0
   34.7120   31.8790   30.5410 N   0  0  0  0  0  0  0  0  0  0  0  0
   36.2710   30.1500   30.5730 N   0  0  0  0  0  0  0  0  0  0  0  0
   36.7550   28.9640   31.0440 C   0  0  0  0  0  0  0  0  0  0  0  0
   37.8110   28.5030   30.5630 O   0  0  0  0  0  0  0  0  0  0  0  0
   37.6180   24.8820   36.4930 O   0  0  0  0  0  0  0  0  0  0  0  0
   39.6590   22.6180   38.2620 N   0  0  0  0  0  0  0  0  0  0  0  0
   38.5800   23.3910   38.1060 N   0  0  0  0  0  0  0  0  0  0  0  0
   38.6400   24.0090   36.9020 C   0  0  0  0  0  0  0  0  0  0  0  0
   39.8020   23.6200   36.2560 C   0  0  0  0  0  0  0  0  0  0  0  0
   40.4080   22.7550   37.1350 C   0  0  0  0  0  0  0  0  0  0  0  0
   41.6970   22.0800   36.8650 C   0  0  0  0  0  0  0  0  0  0  0  0
   42.7060   22.7740   36.2430 C   0  0  0  0  0  0  0  0  0  0  0  0
   43.8670   22.0530   36.0390 C   0  0  0  0  0  0  0  0  0  0  0  0
   44.0720   20.7690   36.3910 N   0  0  0  0  0  0  0  0  0  0  0  0
   43.0480   20.1330   36.9980 C   0  0  0  0  0  0  0  0  0  0  0  0
   41.8920   20.7980   37.2210 N   0  0  0  0  0  0  0  0  0  0  0  0
   38.0903   23.9461   34.0157 H   0  0  0  0  0  0  0  0  0  0  0  0
   37.4000   24.0005   31.5730 H   0  0  0  0  0  0  0  0  0  0  0  0
   34.3995   28.2388   33.3602 H   0  0  0  0  0  0  0  0  0  0  0  0
   33.4796   30.4440   32.4969 H   0  0  0  0  0  0  0  0  0  0  0  0
   35.2733   32.3212   29.7992 H   0  0  0  0  0  0  0  0  0  0  0  0
   33.8512   32.3345   30.8762 H   0  0  0  0  0  0  0  0  0  0  0  0
   39.8808   22.0311   39.0789 H   0  0  0  0  0  0  0  0  0  0  0  0
   40.1589   23.9328   35.2637 H   0  0  0  0  0  0  0  0  0  0  0  0
   42.5981   23.8233   35.9312 H   0  0  0  0  0  0  0  0  0  0  0  0
   44.6994   22.5749   35.5443 H   0  0  0  0  0  0  0  0  0  0  0  0
   43.1529   19.0830   37.3086 H   0  0  0  0  0  0  0  0  0  0  0  0
  1  2  2  0
  1 17  1  0
  3  1  1  0
  4  3  2  0
  5  4  1  0
  6  5  2  0
  6  7  1  0
  7  8  2  0
  8  3  1  0
  9  7  1  0
  9 10  1  0
 11 10  2  0
 12 11  1  0
 13 12  1  0
 14 15  1  0
 14 12  2  0
 15  9  1  0
 16 15  2  0
 17 20  1  0
 19 18  1  0
 20 19  2  0
 21 20  1  0
 21 22  2  0
 22 18  1  0
 23 22  1  0
 23 28  1  0
 24 23  2  0
 25 24  1  0
 25 26  2  0
 26 27  1  0
 27 28  2  0
  4 29  1  0
  5 30  1  0
 10 31  1  0
 11 32  1  0
 13 33  1  0
 13 34  1  0
 18 35  1  0
 21 36  1  0
 24 37  1  0
 25 38  1  0
 27 39  1  0
M  ISO  8  29  14  30  14  31  14  32  14  35   9  36  14  37  14  38  14
M  ISO  1  39  14
M  END
>  <minimizedAffinity>  (1) 
-6.44194221

>  <minimizedRMSD>  (1) 
1.21222806

$$$$
