
     RDKit          3D

 38 41  0  0  0  0  0  0  0  0999 V2000
   37.8560   26.0160   35.8960 C   0  0  0  0  0  0  0  0  0  0  0  0
   38.4520   26.9210   36.5240 O   0  0  0  0  0  0  0  0  0  0  0  0
   37.4250   26.2570   34.5160 C   0  0  0  0  0  0  0  0  0  0  0  0
   37.5540   25.2280   33.6090 C   0  0  0  0  0  0  0  0  0  0  0  0
   37.1470   25.4380   32.2830 C   0  0  0  0  0  0  0  0  0  0  0  0
   36.6450   26.6700   31.9890 N   0  0  0  0  0  0  0  0  0  0  0  0
   36.5400   27.6260   32.8870 C   0  0  0  0  0  0  0  0  0  0  0  0
   36.9170   27.4680   34.1660 N   0  0  0  0  0  0  0  0  0  0  0  0
   35.9920   28.8300   32.3720 N   0  0  0  0  0  0  0  0  0  0  0  0
   35.3900   29.7980   33.0930 C   0  0  0  0  0  0  0  0  0  0  0  0
   34.8870   30.9400   32.4920 C   0  0  0  0  0  0  0  0  0  0  0  0
   34.9940   31.1050   31.1370 C   0  0  0  0  0  0  0  0  0  0  0  0
   34.5310   32.1530   30.5910 O   0  0  0  0  0  0  0  0  0  0  0  0
   35.6010   30.1240   30.4210 N   0  0  0  0  0  0  0  0  0  0  0  0
   36.0850   29.0140   31.0430 C   0  0  0  0  0  0  0  0  0  0  0  0
   36.6280   28.1800   30.2460 O   0  0  0  0  0  0  0  0  0  0  0  0
   37.5990   24.7860   36.4900 O   0  0  0  0  0  0  0  0  0  0  0  0
   39.7050   22.5890   38.2690 N   0  0  0  0  0  0  0  0  0  0  0  0
   38.6190   23.3420   38.1150 N   0  0  0  0  0  0  0  0  0  0  0  0
   38.6480   23.9350   36.8880 C   0  0  0  0  0  0  0  0  0  0  0  0
   39.7910   23.5450   36.2430 C   0  0  0  0  0  0  0  0  0  0  0  0
   40.4270   22.7080   37.1300 C   0  0  0  0  0  0  0  0  0  0  0  0
   41.7130   22.0420   36.8610 C   0  0  0  0  0  0  0  0  0  0  0  0
   42.7210   22.7540   36.2250 C   0  0  0  0  0  0  0  0  0  0  0  0
   43.8880   22.0490   36.0160 C   0  0  0  0  0  0  0  0  0  0  0  0
   44.1100   20.7610   36.3730 N   0  0  0  0  0  0  0  0  0  0  0  0
   43.0950   20.1060   36.9910 C   0  0  0  0  0  0  0  0  0  0  0  0
   41.9290   20.7600   37.2170 N   0  0  0  0  0  0  0  0  0  0  0  0
   37.9692   24.2578   33.9194 H   0  0  0  0  0  0  0  0  0  0  0  0
   37.2289   24.6493   31.5206 H   0  0  0  0  0  0  0  0  0  0  0  0
   35.2965   29.6778   34.1824 H   0  0  0  0  0  0  0  0  0  0  0  0
   34.4014   31.7147   33.1035 H   0  0  0  0  0  0  0  0  0  0  0  0
   35.6960   30.2203   29.3999 H   0  0  0  0  0  0  0  0  0  0  0  0
   39.9493   22.0245   39.0952 H   0  0  0  0  0  0  0  0  0  0  0  0
   40.1267   23.8368   35.2370 H   0  0  0  0  0  0  0  0  0  0  0  0
   42.5983   23.8012   35.9115 H   0  0  0  0  0  0  0  0  0  0  0  0
   44.7113   22.5794   35.5152 H   0  0  0  0  0  0  0  0  0  0  0  0
   43.2165   19.0586   37.3044 H   0  0  0  0  0  0  0  0  0  0  0  0
  1 17  1  0
  1  2  2  0
  3  1  1  0
  4  3  2  0
  5  4  1  0
  6  5  2  0
  6  7  1  0
  7  8  2  0
  8  3  1  0
  9  7  1  0
  9 10  1  0
 11 10  2  0
 12 11  1  0
 13 12  2  0
 14 15  1  0
 14 12  1  0
 15  9  1  0
 16 15  2  0
 17 20  1  0
 19 18  1  0
 20 19  2  0
 21 20  1  0
 21 22  2  0
 22 18  1  0
 23 22  1  0
 23 28  1  0
 24 23  2  0
 25 24  1  0
 25 26  2  0
 26 27  1  0
 27 28  2  0
  4 29  1  0
  5 30  1  0
 10 31  1  0
 11 32  1  0
 14 33  1  0
 18 34  1  0
 21 35  1  0
 24 36  1  0
 25 37  1  0
 27 38  1  0
M  ISO  8  29  14  30  14  31  14  32  14  33   9  34   9  35  14  36  14
M  ISO  2  37  14  38  14
M  END
>  <minimizedAffinity>  (1) 
-6.50240898

>  <minimizedRMSD>  (1) 
0.59921217

$$$$
