
     RDKit          3D

 44 48  0  0  0  0  0  0  0  0999 V2000
   37.8960   26.7950   35.4330 C   0  0  0  0  0  0  0  0  0  0  0  0
   39.0280   27.1520   35.8410 O   0  0  0  0  0  0  0  0  0  0  0  0
   37.1020   27.7100   34.5880 C   0  0  0  0  0  0  0  0  0  0  0  0
   37.0250   27.4730   33.2380 C   0  0  0  0  0  0  0  0  0  0  0  0
   36.2670   28.3570   32.4740 C   0  0  0  0  0  0  0  0  0  0  0  0
   35.6680   29.3730   33.1090 N   0  0  0  0  0  0  0  0  0  0  0  0
   35.7450   29.5950   34.4000 C   0  0  0  0  0  0  0  0  0  0  0  0
   36.4680   28.7560   35.1400 N   0  0  0  0  0  0  0  0  0  0  0  0
   35.1560   30.6570   35.2270 C   0  0  0  0  0  0  0  0  0  0  0  0
   35.8720   31.7680   35.6880 C   0  0  0  0  0  0  0  0  0  0  0  0
   35.3390   32.7660   36.4580 C   0  0  0  0  0  0  0  0  0  0  0  0
   34.0170   32.7150   36.8240 C   0  0  0  0  0  0  0  0  0  0  0  0
   33.2590   31.6530   36.4040 C   0  0  0  0  0  0  0  0  0  0  0  0
   31.9380   31.6460   36.7950 C   0  0  0  0  0  0  0  0  0  0  0  0
   31.1070   30.6140   36.4130 C   0  0  0  0  0  0  0  0  0  0  0  0
   31.6750   29.6040   35.6260 C   0  0  0  0  0  0  0  0  0  0  0  0
   32.9910   29.6790   35.2780 C   0  0  0  0  0  0  0  0  0  0  0  0
   33.8430   30.6760   35.6330 C   0  0  0  0  0  0  0  0  0  0  0  0
   37.3720   25.5620   35.7550 O   0  0  0  0  0  0  0  0  0  0  0  0
   38.8640   23.0550   37.7430 N   0  0  0  0  0  0  0  0  0  0  0  0
   37.9560   23.9990   37.4870 N   0  0  0  0  0  0  0  0  0  0  0  0
   38.2040   24.5330   36.2600 C   0  0  0  0  0  0  0  0  0  0  0  0
   39.3070   23.9070   35.7170 C   0  0  0  0  0  0  0  0  0  0  0  0
   39.6930   22.9940   36.6650 C   0  0  0  0  0  0  0  0  0  0  0  0
   40.8420   22.0800   36.5260 C   0  0  0  0  0  0  0  0  0  0  0  0
   41.3830   21.8800   35.2770 C   0  0  0  0  0  0  0  0  0  0  0  0
   42.4530   21.0130   35.2380 C   0  0  0  0  0  0  0  0  0  0  0  0
   42.9870   20.3710   36.3060 N   0  0  0  0  0  0  0  0  0  0  0  0
   42.4210   20.6010   37.5060 C   0  0  0  0  0  0  0  0  0  0  0  0
   41.3690   21.4450   37.5880 N   0  0  0  0  0  0  0  0  0  0  0  0
   37.5419   26.6181   32.7776 H   0  0  0  0  0  0  0  0  0  0  0  0
   36.1638   28.2254   31.3868 H   0  0  0  0  0  0  0  0  0  0  0  0
   36.9343   31.8440   35.4129 H   0  0  0  0  0  0  0  0  0  0  0  0
   35.9687   33.6073   36.7829 H   0  0  0  0  0  0  0  0  0  0  0  0
   33.5748   33.5104   37.4419 H   0  0  0  0  0  0  0  0  0  0  0  0
   31.5450   32.4661   37.4138 H   0  0  0  0  0  0  0  0  0  0  0  0
   30.0488   30.5853   36.7120 H   0  0  0  0  0  0  0  0  0  0  0  0
   31.0622   28.7544   35.2904 H   0  0  0  0  0  0  0  0  0  0  0  0
   33.3964   28.8653   34.6588 H   0  0  0  0  0  0  0  0  0  0  0  0
   38.9259   22.4807   38.5958 H   0  0  0  0  0  0  0  0  0  0  0  0
   39.7739   24.0980   34.7395 H   0  0  0  0  0  0  0  0  0  0  0  0
   40.9905   22.3754   34.3767 H   0  0  0  0  0  0  0  0  0  0  0  0
   42.9133   20.8257   34.2566 H   0  0  0  0  0  0  0  0  0  0  0  0
   42.8104   20.1077   38.4088 H   0  0  0  0  0  0  0  0  0  0  0  0
  1 19  1  0
  1  2  2  0
  3  8  1  0
  3  1  1  0
  4  3  2  0
  5  6  2  0
  5  4  1  0
  6  7  1  0
  7  8  2  0
  7  9  1  0
  9 18  1  0
  9 10  2  0
 10 11  1  0
 11 12  2  0
 13 14  2  0
 13 12  1  0
 15 14  1  0
 16 15  2  0
 17 16  1  0
 17 18  2  0
 18 13  1  0
 19 22  1  0
 21 20  1  0
 22 21  2  0
 23 22  1  0
 23 24  2  0
 24 20  1  0
 25 24  1  0
 25 30  1  0
 26 25  2  0
 27 26  1  0
 27 28  2  0
 28 29  1  0
 29 30  2  0
  4 31  1  0
  5 32  1  0
 10 33  1  0
 11 34  1  0
 12 35  1  0
 14 36  1  0
 15 37  1  0
 16 38  1  0
 17 39  1  0
 20 40  1  0
 23 41  1  0
 26 42  1  0
 27 43  1  0
 29 44  1  0
M  ISO  8  31  14  32  14  33  14  34  14  35  14  36  14  37  14  38  14
M  ISO  6  39  14  40   9  41  14  42  14  43  14  44  14
M  END
>  <minimizedAffinity>  (1) 
-6.9744935

>  <minimizedRMSD>  (1) 
2.4208746

$$$$
