
     RDKit          3D

 35 36  0  0  0  0  0  0  0  0999 V2000
   38.6310   23.6220   36.9000 C   0  0  0  0  0  0  0  0  0  0  0  0
   41.8820   21.7610   36.8960 C   0  0  0  0  0  0  0  0  0  0  0  0
   40.5800   22.0880   37.2010 C   0  0  0  0  0  0  0  0  0  0  0  0
   39.9880   23.2130   36.6310 C   0  0  0  0  0  0  0  0  0  0  0  0
   40.7380   23.9540   35.7830 N   0  0  0  0  0  0  0  0  0  0  0  0
   42.0180   23.6270   35.4880 C   0  0  0  0  0  0  0  0  0  0  0  0
   42.5870   22.5220   36.0520 N   0  0  0  0  0  0  0  0  0  0  0  0
   42.4630   20.5440   37.5380 C   0  0  0  0  0  0  0  0  0  0  0  0
   43.2000   19.6790   36.5640 C   0  0  0  0  0  0  0  0  0  0  0  0
   38.3680   23.4090   38.3840 C   0  0  0  0  0  0  0  0  0  0  0  0
   38.3090   25.0440   36.5240 C   0  0  0  0  0  0  0  0  0  0  0  0
   37.6660   22.7170   36.1290 C   0  0  0  0  0  0  0  0  0  0  0  0
   37.9390   22.7100   34.7250 N   0  0  0  0  0  0  0  0  0  0  0  0
   38.4630   21.7400   33.9320 C   0  0  0  0  0  0  0  0  0  0  0  0
   38.5420   22.1780   32.6510 N   0  0  0  0  0  0  0  0  0  0  0  0
   38.0630   23.4320   32.6500 C   0  0  0  0  0  0  0  0  0  0  0  0
   37.7030   23.7430   33.9000 N   0  0  0  0  0  0  0  0  0  0  0  0
   37.9710   24.2400   31.5230 O   0  0  0  0  0  0  0  0  0  0  0  0
   40.0053   21.4591   37.8969 H   0  0  0  0  0  0  0  0  0  0  0  0
   42.5994   24.2517   34.7939 H   0  0  0  0  0  0  0  0  0  0  0  0
   43.1609   20.8605   38.3272 H   0  0  0  0  0  0  0  0  0  0  0  0
   41.6309   19.9525   37.9475 H   0  0  0  0  0  0  0  0  0  0  0  0
   43.8183   18.9534   37.1128 H   0  0  0  0  0  0  0  0  0  0  0  0
   42.4781   19.1415   35.9317 H   0  0  0  0  0  0  0  0  0  0  0  0
   43.8454   20.3064   35.9317 H   0  0  0  0  0  0  0  0  0  0  0  0
   39.0904   23.9941   38.9721 H   0  0  0  0  0  0  0  0  0  0  0  0
   37.3465   23.7375   38.6262 H   0  0  0  0  0  0  0  0  0  0  0  0
   38.4770   22.3415   38.6262 H   0  0  0  0  0  0  0  0  0  0  0  0
   38.1734   25.6429   37.4367 H   0  0  0  0  0  0  0  0  0  0  0  0
   39.1352   25.4623   35.9303 H   0  0  0  0  0  0  0  0  0  0  0  0
   37.3832   25.0656   35.9303 H   0  0  0  0  0  0  0  0  0  0  0  0
   37.7590   21.6905   36.5134 H   0  0  0  0  0  0  0  0  0  0  0  0
   36.6477   23.1072   36.2737 H   0  0  0  0  0  0  0  0  0  0  0  0
   38.7774   20.7444   34.2782 H   0  0  0  0  0  0  0  0  0  0  0  0
   37.6058   25.1570   31.5998 H   0  0  0  0  0  0  0  0  0  0  0  0
  1 10  1  0
  2  3  2  0
  2  8  1  0
  4  1  1  0
  4  3  1  0
  5  4  2  0
  6  5  1  0
  6  7  2  0
  7  2  1  0
  9  8  1  0
 11  1  1  0
 12  1  1  0
 13 12  1  0
 14 13  1  0
 15 14  2  0
 16 15  1  0
 16 17  2  0
 17 13  1  0
 18 16  1  0
  3 19  1  0
  6 20  1  0
  8 21  1  0
  8 22  1  0
  9 23  1  0
  9 24  1  0
  9 25  1  0
 10 26  1  0
 10 27  1  0
 10 28  1  0
 11 29  1  0
 11 30  1  0
 11 31  1  0
 12 32  1  0
 12 33  1  0
 14 34  1  0
 18 35  1  0
M  ISO  8  19  14  20  14  21   8  22   8  23   8  24   8  25   8  26   8
M  ISO  8  27   8  28   8  29   8  30   8  31   8  32   8  33   8  34  14
M  ISO  1  35   3
M  END
>  <minimizedAffinity>  (1) 
-3.9713068

>  <minimizedRMSD>  (1) 
0.0182519834

$$$$
