
     RDKit          3D

 39 43  0  0  0  0  0  0  0  0999 V2000
   37.8120   26.1340   35.9530 C   0  0  0  0  0  0  0  0  0  0  0  0
   38.5110   26.9420   36.6290 O   0  0  0  0  0  0  0  0  0  0  0  0
   37.2850   26.5700   34.6590 C   0  0  0  0  0  0  0  0  0  0  0  0
   37.4260   25.6910   33.5910 C   0  0  0  0  0  0  0  0  0  0  0  0
   36.9270   26.0890   32.3380 C   0  0  0  0  0  0  0  0  0  0  0  0
   36.3470   27.2990   32.2720 N   0  0  0  0  0  0  0  0  0  0  0  0
   36.2230   28.1260   33.3140 C   0  0  0  0  0  0  0  0  0  0  0  0
   36.6900   27.7830   34.5390 N   0  0  0  0  0  0  0  0  0  0  0  0
   35.5930   29.3960   33.1640 N   0  0  0  0  0  0  0  0  0  0  0  0
   34.9700   29.8290   32.0480 C   0  0  0  0  0  0  0  0  0  0  0  0
   34.4830   31.0850   32.2530 N   0  0  0  0  0  0  0  0  0  0  0  0
   34.8220   31.4240   33.5300 C   0  0  0  0  0  0  0  0  0  0  0  0
   34.5910   32.5790   34.2790 C   0  0  0  0  0  0  0  0  0  0  0  0
   35.0680   32.5930   35.5370 N   0  0  0  0  0  0  0  0  0  0  0  0
   35.7360   31.5800   36.0890 C   0  0  0  0  0  0  0  0  0  0  0  0
   35.9520   30.4730   35.3550 N   0  0  0  0  0  0  0  0  0  0  0  0
   35.5160   30.3650   34.0940 C   0  0  0  0  0  0  0  0  0  0  0  0
   37.5530   24.8710   36.4220 O   0  0  0  0  0  0  0  0  0  0  0  0
   39.6400   22.6520   38.2100 N   0  0  0  0  0  0  0  0  0  0  0  0
   38.5550   23.4100   38.0530 N   0  0  0  0  0  0  0  0  0  0  0  0
   38.6000   24.0080   36.8310 C   0  0  0  0  0  0  0  0  0  0  0  0
   39.7540   23.6130   36.1960 C   0  0  0  0  0  0  0  0  0  0  0  0
   40.3780   22.7750   37.0720 C   0  0  0  0  0  0  0  0  0  0  0  0
   41.6600   22.1000   36.8270 C   0  0  0  0  0  0  0  0  0  0  0  0
   42.6820   22.8130   36.2130 C   0  0  0  0  0  0  0  0  0  0  0  0
   43.8490   22.1080   36.0210 C   0  0  0  0  0  0  0  0  0  0  0  0
   44.0640   20.8180   36.3770 N   0  0  0  0  0  0  0  0  0  0  0  0
   43.0340   20.1820   36.9690 C   0  0  0  0  0  0  0  0  0  0  0  0
   41.8750   20.8250   37.1780 N   0  0  0  0  0  0  0  0  0  0  0  0
   37.9133   24.7136   33.7223 H   0  0  0  0  0  0  0  0  0  0  0  0
   37.0078   25.4401   31.4535 H   0  0  0  0  0  0  0  0  0  0  0  0
   34.8705   29.2553   31.1148 H   0  0  0  0  0  0  0  0  0  0  0  0
   34.0448   33.4372   33.8605 H   0  0  0  0  0  0  0  0  0  0  0  0
   36.1033   31.6476   37.1237 H   0  0  0  0  0  0  0  0  0  0  0  0
   39.8755   22.0818   39.0348 H   0  0  0  0  0  0  0  0  0  0  0  0
   40.0999   23.9098   35.1949 H   0  0  0  0  0  0  0  0  0  0  0  0
   42.5675   23.8623   35.9034 H   0  0  0  0  0  0  0  0  0  0  0  0
   44.6810   22.6390   35.5354 H   0  0  0  0  0  0  0  0  0  0  0  0
   43.1436   19.1331   37.2817 H   0  0  0  0  0  0  0  0  0  0  0  0
  1 18  1  0
  1  2  2  0
  3  1  1  0
  4  3  2  0
  5  4  1  0
  6  5  2  0
  6  7  1  0
  7  8  2  0
  8  3  1  0
  9  7  1  0
  9 17  1  0
 10 11  2  0
 10  9  1  0
 11 12  1  0
 12 17  2  0
 12 13  1  0
 13 14  2  0
 14 15  1  0
 16 15  2  0
 17 16  1  0
 18 21  1  0
 20 19  1  0
 21 20  2  0
 22 21  1  0
 22 23  2  0
 23 19  1  0
 24 23  1  0
 24 29  1  0
 25 24  2  0
 26 25  1  0
 26 27  2  0
 27 28  1  0
 28 29  2  0
  4 30  1  0
  5 31  1  0
 10 32  1  0
 13 33  1  0
 15 34  1  0
 19 35  1  0
 22 36  1  0
 25 37  1  0
 26 38  1  0
 28 39  1  0
M  ISO  8  30  14  31  14  32  14  33  14  34  14  35   9  36  14  37  14
M  ISO  2  38  14  39  14
M  END
>  <minimizedAffinity>  (1) 
-6.58193493

>  <minimizedRMSD>  (1) 
0.197012559

$$$$
