
     RDKit          3D

 44 47  0  0  0  0  0  0  0  0999 V2000
   37.5730   24.8660   36.2680 O   0  0  0  0  0  0  0  0  0  0  0  0
   39.6190   22.6840   38.1250 N   0  0  0  0  0  0  0  0  0  0  0  0
   38.5390   23.4360   37.9340 N   0  0  0  0  0  0  0  0  0  0  0  0
   38.6070   24.0150   36.7110 C   0  0  0  0  0  0  0  0  0  0  0  0
   39.7700   23.6160   36.1040 C   0  0  0  0  0  0  0  0  0  0  0  0
   40.3790   22.7890   37.0080 C   0  0  0  0  0  0  0  0  0  0  0  0
   41.6740   22.1160   36.7850 C   0  0  0  0  0  0  0  0  0  0  0  0
   42.6980   22.8050   36.1910 C   0  0  0  0  0  0  0  0  0  0  0  0
   43.8740   22.0950   36.0220 C   0  0  0  0  0  0  0  0  0  0  0  0
   44.0700   20.8120   36.3920 N   0  0  0  0  0  0  0  0  0  0  0  0
   43.0290   20.1770   36.9730 C   0  0  0  0  0  0  0  0  0  0  0  0
   41.8650   20.8330   37.1560 N   0  0  0  0  0  0  0  0  0  0  0  0
   37.8230   26.1840   35.9130 C   0  0  0  0  0  0  0  0  0  0  0  0
   38.5290   26.9080   36.6420 O   0  0  0  0  0  0  0  0  0  0  0  0
   37.2510   26.7140   34.6810 C   0  0  0  0  0  0  0  0  0  0  0  0
   37.2410   25.9170   33.5560 C   0  0  0  0  0  0  0  0  0  0  0  0
   36.6940   26.4180   32.3710 C   0  0  0  0  0  0  0  0  0  0  0  0
   36.2020   27.6820   32.4220 N   0  0  0  0  0  0  0  0  0  0  0  0
   36.2180   28.4360   33.5110 C   0  0  0  0  0  0  0  0  0  0  0  0
   36.7420   27.9600   34.6500 N   0  0  0  0  0  0  0  0  0  0  0  0
   35.6280   29.8120   33.3790 C   0  0  0  0  0  0  0  0  0  0  0  0
   34.9020   30.2230   34.6210 C   0  0  0  0  0  0  0  0  0  0  0  0
   33.5360   29.6300   34.7770 C   0  0  0  0  0  0  0  0  0  0  0  0
   32.8170   29.4200   33.4910 C   0  0  0  0  0  0  0  0  0  0  0  0
   33.3790   30.1420   32.3110 C   0  0  0  0  0  0  0  0  0  0  0  0
   34.8430   29.9370   32.1160 C   0  0  0  0  0  0  0  0  0  0  0  0
   39.8367   22.1269   38.9636 H   0  0  0  0  0  0  0  0  0  0  0  0
   40.1347   23.8996   35.1057 H   0  0  0  0  0  0  0  0  0  0  0  0
   42.5928   23.8518   35.8700 H   0  0  0  0  0  0  0  0  0  0  0  0
   44.7171   22.6188   35.5478 H   0  0  0  0  0  0  0  0  0  0  0  0
   43.1301   19.1301   37.2952 H   0  0  0  0  0  0  0  0  0  0  0  0
   37.6582   24.8998   33.5904 H   0  0  0  0  0  0  0  0  0  0  0  0
   36.6640   25.8206   31.4479 H   0  0  0  0  0  0  0  0  0  0  0  0
   36.4425   30.5453   33.2847 H   0  0  0  0  0  0  0  0  0  0  0  0
   35.5077   29.9191   35.4875 H   0  0  0  0  0  0  0  0  0  0  0  0
   34.7600   31.3115   34.5500 H   0  0  0  0  0  0  0  0  0  0  0  0
   33.6367   28.6569   35.2799 H   0  0  0  0  0  0  0  0  0  0  0  0
   32.9417   30.3487   35.3603 H   0  0  0  0  0  0  0  0  0  0  0  0
   32.8319   28.3431   33.2671 H   0  0  0  0  0  0  0  0  0  0  0  0
   31.8073   29.8298   33.6410 H   0  0  0  0  0  0  0  0  0  0  0  0
   32.8571   29.7897   31.4091 H   0  0  0  0  0  0  0  0  0  0  0  0
   33.2295   31.2163   32.4941 H   0  0  0  0  0  0  0  0  0  0  0  0
   34.9853   29.0162   31.5314 H   0  0  0  0  0  0  0  0  0  0  0  0
   35.2176   30.8360   31.6046 H   0  0  0  0  0  0  0  0  0  0  0  0
  1  4  1  0
  3  2  1  0
  4  3  2  0
  5  4  1  0
  5  6  2  0
  6  2  1  0
  7  6  1  0
  7 12  1  0
  8  7  2  0
  9  8  1  0
  9 10  2  0
 10 11  1  0
 11 12  2  0
 13  1  1  0
 13 14  2  0
 15 13  1  0
 16 15  2  0
 17 18  2  0
 17 16  1  0
 18 19  1  0
 19 20  2  0
 20 15  1  0
 21 19  1  0
 21 22  1  0
 22 23  1  0
 24 23  1  0
 25 24  1  0
 26 25  1  0
 26 21  1  0
  2 27  1  0
  5 28  1  0
  8 29  1  0
  9 30  1  0
 11 31  1  0
 16 32  1  0
 17 33  1  0
 21 34  1  0
 22 35  1  0
 22 36  1  0
 23 37  1  0
 23 38  1  0
 24 39  1  0
 24 40  1  0
 25 41  1  0
 25 42  1  0
 26 43  1  0
 26 44  1  0
M  ISO  8  27   9  28  14  29  14  30  14  31  14  32  14  33  14  34  13
M  ISO  8  35  13  36  13  37  13  38  13  39  13  40  13  41  13  42  13
M  ISO  2  43  13  44  13
M  END
>  <minimizedAffinity>  (1) 
-5.98269367

>  <minimizedRMSD>  (1) 
1.19304156

$$$$
