
     RDKit          3D

 42 45  0  0  0  0  0  0  0  0999 V2000
   37.5800   24.7860   36.3870 O   0  0  0  0  0  0  0  0  0  0  0  0
   39.6790   22.6190   38.2150 N   0  0  0  0  0  0  0  0  0  0  0  0
   38.5880   23.3680   38.0440 N   0  0  0  0  0  0  0  0  0  0  0  0
   38.6280   23.9410   36.8110 C   0  0  0  0  0  0  0  0  0  0  0  0
   39.7790   23.5470   36.1740 C   0  0  0  0  0  0  0  0  0  0  0  0
   40.4100   22.7250   37.0770 C   0  0  0  0  0  0  0  0  0  0  0  0
   41.6970   22.0570   36.8350 C   0  0  0  0  0  0  0  0  0  0  0  0
   42.7130   22.7500   36.2200 C   0  0  0  0  0  0  0  0  0  0  0  0
   43.8870   22.0630   36.0260 C   0  0  0  0  0  0  0  0  0  0  0  0
   44.1090   20.7790   36.3920 N   0  0  0  0  0  0  0  0  0  0  0  0
   43.0820   20.1240   36.9990 C   0  0  0  0  0  0  0  0  0  0  0  0
   41.9200   20.7800   37.1990 N   0  0  0  0  0  0  0  0  0  0  0  0
   37.8250   26.0770   35.9950 C   0  0  0  0  0  0  0  0  0  0  0  0
   38.5260   26.8600   36.6980 O   0  0  0  0  0  0  0  0  0  0  0  0
   37.2700   26.5760   34.7350 C   0  0  0  0  0  0  0  0  0  0  0  0
   37.4360   25.7940   33.5960 C   0  0  0  0  0  0  0  0  0  0  0  0
   36.9130   26.2530   32.3830 C   0  0  0  0  0  0  0  0  0  0  0  0
   36.2720   27.4430   32.4010 N   0  0  0  0  0  0  0  0  0  0  0  0
   36.1310   28.1620   33.5010 C   0  0  0  0  0  0  0  0  0  0  0  0
   36.6120   27.7700   34.6890 N   0  0  0  0  0  0  0  0  0  0  0  0
   35.4360   29.3990   33.3950 N   0  0  0  0  0  0  0  0  0  0  0  0
   35.5140   30.3880   34.4530 C   0  0  0  0  0  0  0  0  0  0  0  0
   34.1460   31.0370   34.5810 C   0  0  0  0  0  0  0  0  0  0  0  0
   33.0950   30.1730   34.1080 N   0  0  0  0  0  0  0  0  0  0  0  0
   33.1900   29.8070   32.7280 C   0  0  0  0  0  0  0  0  0  0  0  0
   34.6120   29.7890   32.2670 C   0  0  0  0  0  0  0  0  0  0  0  0
   39.9199   22.0666   39.0503 H   0  0  0  0  0  0  0  0  0  0  0  0
   40.1198   23.8267   35.1662 H   0  0  0  0  0  0  0  0  0  0  0  0
   42.5926   23.7959   35.9012 H   0  0  0  0  0  0  0  0  0  0  0  0
   44.7120   22.5991   35.5342 H   0  0  0  0  0  0  0  0  0  0  0  0
   43.1972   19.0785   37.3208 H   0  0  0  0  0  0  0  0  0  0  0  0
   37.9685   24.8330   33.6488 H   0  0  0  0  0  0  0  0  0  0  0  0
   37.0185   25.6714   31.4553 H   0  0  0  0  0  0  0  0  0  0  0  0
   35.7881   29.9017   35.4009 H   0  0  0  0  0  0  0  0  0  0  0  0
   36.2783   31.1435   34.2183 H   0  0  0  0  0  0  0  0  0  0  0  0
   33.9624   31.2737   35.6394 H   0  0  0  0  0  0  0  0  0  0  0  0
   34.1419   31.9479   33.9643 H   0  0  0  0  0  0  0  0  0  0  0  0
   33.1135   29.3099   34.6698 H   0  0  0  0  0  0  0  0  0  0  0  0
   32.7568   28.8050   32.5925 H   0  0  0  0  0  0  0  0  0  0  0  0
   32.6417   30.5521   32.1329 H   0  0  0  0  0  0  0  0  0  0  0  0
   34.7312   29.0647   31.4478 H   0  0  0  0  0  0  0  0  0  0  0  0
   34.9098   30.7812   31.8970 H   0  0  0  0  0  0  0  0  0  0  0  0
  1  4  1  0
  3  2  1  0
  4  3  2  0
  5  4  1  0
  5  6  2  0
  6  2  1  0
  7  6  1  0
  7 12  1  0
  8  7  2  0
  9  8  1  0
  9 10  2  0
 10 11  1  0
 11 12  2  0
 13  1  1  0
 13 14  2  0
 15 13  1  0
 16 15  2  0
 17 18  2  0
 17 16  1  0
 18 19  1  0
 19 20  2  0
 20 15  1  0
 21 19  1  0
 21 22  1  0
 22 23  1  0
 24 23  1  0
 25 24  1  0
 26 25  1  0
 26 21  1  0
  2 27  1  0
  5 28  1  0
  8 29  1  0
  9 30  1  0
 11 31  1  0
 16 32  1  0
 17 33  1  0
 22 34  1  0
 22 35  1  0
 23 36  1  0
 23 37  1  0
 24 38  1  0
 25 39  1  0
 25 40  1  0
 26 41  1  0
 26 42  1  0
M  ISO  8  27   9  28  14  29  14  30  14  31  14  32  14  33  14  34  13
M  ISO  8  35  13  36  13  37  13  38   5  39  13  40  13  41  13  42  13
M  END
>  <minimizedAffinity>  (1) 
-5.9961257

>  <minimizedRMSD>  (1) 
0.331657857

$$$$
