
     RDKit          3D

 35 38  0  0  0  0  0  0  0  0999 V2000
   37.5950   24.8630   36.4650 O   0  0  0  0  0  0  0  0  0  0  0  0
   39.6670   22.6250   38.2470 N   0  0  0  0  0  0  0  0  0  0  0  0
   38.5850   23.3910   38.0900 N   0  0  0  0  0  0  0  0  0  0  0  0
   38.6360   23.9950   36.8710 C   0  0  0  0  0  0  0  0  0  0  0  0
   39.7840   23.5980   36.2420 C   0  0  0  0  0  0  0  0  0  0  0  0
   40.4090   22.7460   37.1180 C   0  0  0  0  0  0  0  0  0  0  0  0
   41.6960   22.0680   36.8610 C   0  0  0  0  0  0  0  0  0  0  0  0
   42.7020   22.7640   36.2320 C   0  0  0  0  0  0  0  0  0  0  0  0
   43.8620   22.0540   36.0350 C   0  0  0  0  0  0  0  0  0  0  0  0
   44.0790   20.7660   36.4010 N   0  0  0  0  0  0  0  0  0  0  0  0
   43.0510   20.1350   37.0160 C   0  0  0  0  0  0  0  0  0  0  0  0
   41.8960   20.7970   37.2280 N   0  0  0  0  0  0  0  0  0  0  0  0
   37.8820   26.0150   35.7430 C   0  0  0  0  0  0  0  0  0  0  0  0
   38.5050   26.9820   36.2550 O   0  0  0  0  0  0  0  0  0  0  0  0
   37.4500   26.1070   34.3520 C   0  0  0  0  0  0  0  0  0  0  0  0
   37.6790   25.0290   33.5210 C   0  0  0  0  0  0  0  0  0  0  0  0
   37.2650   25.1080   32.1780 C   0  0  0  0  0  0  0  0  0  0  0  0
   36.6620   26.2480   31.7840 N   0  0  0  0  0  0  0  0  0  0  0  0
   36.4570   27.2690   32.6130 C   0  0  0  0  0  0  0  0  0  0  0  0
   36.8350   27.2450   33.9160 N   0  0  0  0  0  0  0  0  0  0  0  0
   35.8230   28.4770   32.2150 N   0  0  0  0  0  0  0  0  0  0  0  0
   36.4530   29.0500   31.1820 N   0  0  0  0  0  0  0  0  0  0  0  0
   35.8270   30.1920   30.8320 C   0  0  0  0  0  0  0  0  0  0  0  0
   34.7580   30.3360   31.6830 C   0  0  0  0  0  0  0  0  0  0  0  0
   34.7770   29.2480   32.5400 C   0  0  0  0  0  0  0  0  0  0  0  0
   39.8954   22.0502   39.0706 H   0  0  0  0  0  0  0  0  0  0  0  0
   40.1332   23.8986   35.2432 H   0  0  0  0  0  0  0  0  0  0  0  0
   42.5867   23.8098   35.9110 H   0  0  0  0  0  0  0  0  0  0  0  0
   44.6900   22.5779   35.5350 H   0  0  0  0  0  0  0  0  0  0  0  0
   43.1576   19.0893   37.3404 H   0  0  0  0  0  0  0  0  0  0  0  0
   38.1761   24.1244   33.9014 H   0  0  0  0  0  0  0  0  0  0  0  0
   37.4267   24.2743   31.4788 H   0  0  0  0  0  0  0  0  0  0  0  0
   36.1165   30.8766   30.0211 H   0  0  0  0  0  0  0  0  0  0  0  0
   34.0270   31.1580   31.6836 H   0  0  0  0  0  0  0  0  0  0  0  0
   34.0572   29.0511   33.3481 H   0  0  0  0  0  0  0  0  0  0  0  0
  1  4  1  0
  3  2  1  0
  4  3  2  0
  5  4  1  0
  5  6  2  0
  6  2  1  0
  7  6  1  0
  7 12  1  0
  8  7  2  0
  9  8  1  0
  9 10  2  0
 10 11  1  0
 11 12  2  0
 13 14  2  0
 13  1  1  0
 15 13  1  0
 16 15  2  0
 17 16  1  0
 18 17  2  0
 18 19  1  0
 19 20  2  0
 20 15  1  0
 21 25  1  0
 21 19  1  0
 22 21  1  0
 23 22  2  0
 23 24  1  0
 24 25  2  0
  2 26  1  0
  5 27  1  0
  8 28  1  0
  9 29  1  0
 11 30  1  0
 16 31  1  0
 17 32  1  0
 23 33  1  0
 24 34  1  0
 25 35  1  0
M  ISO  8  26   9  27  14  28  14  29  14  30  14  31  14  32  14  33  14
M  ISO  2  34  14  35  14
M  END
>  <minimizedAffinity>  (1) 
-5.9015708

>  <minimizedRMSD>  (1) 
0.828013182

$$$$
