
     RDKit          3D

 40 43  0  0  0  0  0  0  0  0999 V2000
   37.5730   24.8170   36.4530 O   0  0  0  0  0  0  0  0  0  0  0  0
   39.6660   22.6180   38.2440 N   0  0  0  0  0  0  0  0  0  0  0  0
   38.5690   23.3730   38.0850 N   0  0  0  0  0  0  0  0  0  0  0  0
   38.6240   23.9670   36.8530 C   0  0  0  0  0  0  0  0  0  0  0  0
   39.7780   23.5850   36.2090 C   0  0  0  0  0  0  0  0  0  0  0  0
   40.4010   22.7430   37.1090 C   0  0  0  0  0  0  0  0  0  0  0  0
   41.6940   22.0820   36.8430 C   0  0  0  0  0  0  0  0  0  0  0  0
   42.6960   22.7800   36.2200 C   0  0  0  0  0  0  0  0  0  0  0  0
   43.8660   22.0800   36.0140 C   0  0  0  0  0  0  0  0  0  0  0  0
   44.0840   20.8080   36.3700 N   0  0  0  0  0  0  0  0  0  0  0  0
   43.0640   20.1440   36.9890 C   0  0  0  0  0  0  0  0  0  0  0  0
   41.9020   20.7990   37.2060 N   0  0  0  0  0  0  0  0  0  0  0  0
   37.8260   26.0940   35.9730 C   0  0  0  0  0  0  0  0  0  0  0  0
   38.4590   26.9160   36.6610 O   0  0  0  0  0  0  0  0  0  0  0  0
   37.3340   26.4650   34.6310 C   0  0  0  0  0  0  0  0  0  0  0  0
   37.5200   25.5720   33.5990 C   0  0  0  0  0  0  0  0  0  0  0  0
   37.0440   25.9440   32.3320 C   0  0  0  0  0  0  0  0  0  0  0  0
   36.4380   27.1590   32.2250 N   0  0  0  0  0  0  0  0  0  0  0  0
   36.2830   27.9800   33.2420 C   0  0  0  0  0  0  0  0  0  0  0  0
   36.7210   27.6670   34.4710 N   0  0  0  0  0  0  0  0  0  0  0  0
   35.6400   29.2360   33.0610 N   0  0  0  0  0  0  0  0  0  0  0  0
   35.1090   30.1450   34.0590 C   0  0  0  0  0  0  0  0  0  0  0  0
   35.6650   31.4920   33.5850 C   0  0  0  0  0  0  0  0  0  0  0  0
   36.0220   31.2870   32.1200 C   0  0  0  0  0  0  0  0  0  0  0  0
   35.3410   29.9460   31.8300 C   0  0  0  0  0  0  0  0  0  0  0  0
   39.9055   22.0511   39.0700 H   0  0  0  0  0  0  0  0  0  0  0  0
   40.1246   23.8818   35.2081 H   0  0  0  0  0  0  0  0  0  0  0  0
   42.5749   23.8272   35.9058 H   0  0  0  0  0  0  0  0  0  0  0  0
   44.6897   22.6116   35.5151 H   0  0  0  0  0  0  0  0  0  0  0  0
   43.1856   19.0973   37.3046 H   0  0  0  0  0  0  0  0  0  0  0  0
   38.0213   24.6064   33.7611 H   0  0  0  0  0  0  0  0  0  0  0  0
   37.1558   25.2813   31.4612 H   0  0  0  0  0  0  0  0  0  0  0  0
   34.0090   30.1430   34.0574 H   0  0  0  0  0  0  0  0  0  0  0  0
   35.3891   29.8861   35.0908 H   0  0  0  0  0  0  0  0  0  0  0  0
   34.9052   32.2805   33.6896 H   0  0  0  0  0  0  0  0  0  0  0  0
   36.5357   31.8076   34.1786 H   0  0  0  0  0  0  0  0  0  0  0  0
   35.6135   32.0907   31.4897 H   0  0  0  0  0  0  0  0  0  0  0  0
   37.1025   31.2974   31.9139 H   0  0  0  0  0  0  0  0  0  0  0  0
   34.2576   30.0630   31.6798 H   0  0  0  0  0  0  0  0  0  0  0  0
   35.6817   29.4437   30.9126 H   0  0  0  0  0  0  0  0  0  0  0  0
  1  4  1  0
  3  2  1  0
  4  3  2  0
  5  4  1  0
  5  6  2  0
  6  2  1  0
  7  6  1  0
  7 12  1  0
  8  7  2  0
  9  8  1  0
  9 10  2  0
 10 11  1  0
 11 12  2  0
 13  1  1  0
 13 14  2  0
 15 13  1  0
 16 15  2  0
 17 16  1  0
 18 17  2  0
 18 19  1  0
 19 20  2  0
 20 15  1  0
 21 19  1  0
 21 22  1  0
 23 22  1  0
 24 23  1  0
 25 24  1  0
 25 21  1  0
  2 26  1  0
  5 27  1  0
  8 28  1  0
  9 29  1  0
 11 30  1  0
 16 31  1  0
 17 32  1  0
 22 33  1  0
 22 34  1  0
 23 35  1  0
 23 36  1  0
 24 37  1  0
 24 38  1  0
 25 39  1  0
 25 40  1  0
M  ISO  8  26   9  27  14  28  14  29  14  30  14  31  14  32  14  33  13
M  ISO  7  34  13  35  13  36  13  37  13  38  13  39  13  40  13
M  END
>  <minimizedAffinity>  (1) 
-5.94469309

>  <minimizedRMSD>  (1) 
0.13006559

$$$$
