
     RDKit          3D

 35 38  0  0  0  0  0  0  0  0999 V2000
   37.5780   24.8960   36.4380 O   0  0  0  0  0  0  0  0  0  0  0  0
   39.6330   22.6530   38.2290 N   0  0  0  0  0  0  0  0  0  0  0  0
   38.5560   23.4210   38.0710 N   0  0  0  0  0  0  0  0  0  0  0  0
   38.6110   24.0230   36.8510 C   0  0  0  0  0  0  0  0  0  0  0  0
   39.7610   23.6240   36.2150 C   0  0  0  0  0  0  0  0  0  0  0  0
   40.3750   22.7750   37.0930 C   0  0  0  0  0  0  0  0  0  0  0  0
   41.6510   22.0870   36.8550 C   0  0  0  0  0  0  0  0  0  0  0  0
   42.6750   22.7760   36.2310 C   0  0  0  0  0  0  0  0  0  0  0  0
   43.8390   22.0780   36.0390 C   0  0  0  0  0  0  0  0  0  0  0  0
   44.0490   20.7910   36.4100 N   0  0  0  0  0  0  0  0  0  0  0  0
   43.0200   20.1670   37.0140 C   0  0  0  0  0  0  0  0  0  0  0  0
   41.8610   20.8180   37.2210 N   0  0  0  0  0  0  0  0  0  0  0  0
   37.8640   26.0410   35.7100 C   0  0  0  0  0  0  0  0  0  0  0  0
   38.4790   27.0050   36.2230 O   0  0  0  0  0  0  0  0  0  0  0  0
   37.4340   26.1300   34.3040 C   0  0  0  0  0  0  0  0  0  0  0  0
   37.6170   25.0090   33.5060 C   0  0  0  0  0  0  0  0  0  0  0  0
   37.2070   25.0990   32.1730 C   0  0  0  0  0  0  0  0  0  0  0  0
   36.6680   26.2570   31.7580 N   0  0  0  0  0  0  0  0  0  0  0  0
   36.5060   27.3140   32.5480 C   0  0  0  0  0  0  0  0  0  0  0  0
   36.8850   27.2800   33.8430 N   0  0  0  0  0  0  0  0  0  0  0  0
   35.9120   28.5370   32.0200 C   0  0  0  0  0  0  0  0  0  0  0  0
   34.9080   29.2860   32.6300 C   0  0  0  0  0  0  0  0  0  0  0  0
   34.6230   30.3750   31.8060 C   0  0  0  0  0  0  0  0  0  0  0  0
   35.4450   30.2480   30.7510 N   0  0  0  0  0  0  0  0  0  0  0  0
   36.2120   29.1620   30.8710 N   0  0  0  0  0  0  0  0  0  0  0  0
   39.8610   22.0774   39.0522 H   0  0  0  0  0  0  0  0  0  0  0  0
   40.1118   23.9227   35.2161 H   0  0  0  0  0  0  0  0  0  0  0  0
   42.5621   23.8215   35.9081 H   0  0  0  0  0  0  0  0  0  0  0  0
   44.6689   22.6040   35.5445 H   0  0  0  0  0  0  0  0  0  0  0  0
   43.1273   19.1217   37.3392 H   0  0  0  0  0  0  0  0  0  0  0  0
   38.0661   24.0881   33.9062 H   0  0  0  0  0  0  0  0  0  0  0  0
   37.3221   24.2482   31.4854 H   0  0  0  0  0  0  0  0  0  0  0  0
   34.4251   29.0587   33.5919 H   0  0  0  0  0  0  0  0  0  0  0  0
   33.8825   31.1690   31.9826 H   0  0  0  0  0  0  0  0  0  0  0  0
   35.4789   30.9015   29.9556 H   0  0  0  0  0  0  0  0  0  0  0  0
  1  4  1  0
  3  2  1  0
  4  3  2  0
  5  4  1  0
  5  6  2  0
  6  2  1  0
  7  6  1  0
  7 12  1  0
  8  7  2  0
  9  8  1  0
  9 10  2  0
 10 11  1  0
 11 12  2  0
 13 14  2  0
 13  1  1  0
 15 13  1  0
 16 15  2  0
 17 16  1  0
 18 17  2  0
 18 19  1  0
 19 20  2  0
 20 15  1  0
 21 19  1  0
 21 22  1  0
 23 22  2  0
 24 25  1  0
 24 23  1  0
 25 21  2  0
  2 26  1  0
  5 27  1  0
  8 28  1  0
  9 29  1  0
 11 30  1  0
 16 31  1  0
 17 32  1  0
 22 33  1  0
 23 34  1  0
 24 35  1  0
M  ISO  8  26   9  27  14  28  14  29  14  30  14  31  14  32  14  33  14
M  ISO  2  34  14  35   9
M  END
>  <minimizedAffinity>  (1) 
-5.76674986

>  <minimizedRMSD>  (1) 
0.877367437

$$$$
