
     RDKit          3D

 41 44  0  0  0  0  0  0  0  0999 V2000
   39.6710   22.6220   38.2260 N   0  0  0  0  0  0  0  0  0  0  0  0
   38.5800   23.3680   38.0640 N   0  0  0  0  0  0  0  0  0  0  0  0
   38.6170   23.9460   36.8390 C   0  0  0  0  0  0  0  0  0  0  0  0
   39.7720   23.5570   36.1970 C   0  0  0  0  0  0  0  0  0  0  0  0
   40.4000   22.7300   37.0980 C   0  0  0  0  0  0  0  0  0  0  0  0
   41.6960   22.0650   36.8430 C   0  0  0  0  0  0  0  0  0  0  0  0
   42.7070   22.7640   36.2230 C   0  0  0  0  0  0  0  0  0  0  0  0
   43.8810   22.0560   36.0270 C   0  0  0  0  0  0  0  0  0  0  0  0
   44.0980   20.7850   36.3840 N   0  0  0  0  0  0  0  0  0  0  0  0
   43.0690   20.1290   36.9980 C   0  0  0  0  0  0  0  0  0  0  0  0
   41.9220   20.7970   37.1970 N   0  0  0  0  0  0  0  0  0  0  0  0
   37.5710   24.7950   36.4120 O   0  0  0  0  0  0  0  0  0  0  0  0
   37.8220   26.0830   35.9850 C   0  0  0  0  0  0  0  0  0  0  0  0
   38.5030   26.8870   36.6720 O   0  0  0  0  0  0  0  0  0  0  0  0
   37.2810   26.5320   34.6910 C   0  0  0  0  0  0  0  0  0  0  0  0
   37.4470   25.6930   33.5990 C   0  0  0  0  0  0  0  0  0  0  0  0
   36.9370   26.1090   32.3600 C   0  0  0  0  0  0  0  0  0  0  0  0
   36.3130   27.3130   32.3210 N   0  0  0  0  0  0  0  0  0  0  0  0
   36.1730   28.0850   33.3790 C   0  0  0  0  0  0  0  0  0  0  0  0
   36.6480   27.7250   34.5910 N   0  0  0  0  0  0  0  0  0  0  0  0
   35.4750   29.4070   33.2840 C   0  0  0  0  0  0  0  0  0  0  0  0
   35.6110   30.2130   34.5380 C   0  0  0  0  0  0  0  0  0  0  0  0
   35.5720   31.6580   34.1650 C   0  0  0  0  0  0  0  0  0  0  0  0
   35.5820   31.6690   32.6320 C   0  0  0  0  0  0  0  0  0  0  0  0
   36.1170   30.3010   32.2400 C   0  0  0  0  0  0  0  0  0  0  0  0
   39.9127   22.0659   39.0586 H   0  0  0  0  0  0  0  0  0  0  0  0
   40.1142   23.8431   35.1915 H   0  0  0  0  0  0  0  0  0  0  0  0
   42.5906   23.8108   35.9057 H   0  0  0  0  0  0  0  0  0  0  0  0
   44.7091   22.5860   35.5337 H   0  0  0  0  0  0  0  0  0  0  0  0
   43.1774   19.0829   37.3202 H   0  0  0  0  0  0  0  0  0  0  0  0
   37.9644   24.7277   33.7017 H   0  0  0  0  0  0  0  0  0  0  0  0
   37.0387   25.4859   31.4592 H   0  0  0  0  0  0  0  0  0  0  0  0
   34.4309   29.1457   33.0571 H   0  0  0  0  0  0  0  0  0  0  0  0
   34.7813   29.9817   35.2221 H   0  0  0  0  0  0  0  0  0  0  0  0
   36.5581   29.9748   35.0442 H   0  0  0  0  0  0  0  0  0  0  0  0
   34.6572   32.1326   34.5496 H   0  0  0  0  0  0  0  0  0  0  0  0
   36.4181   32.2185   34.5891 H   0  0  0  0  0  0  0  0  0  0  0  0
   34.5653   31.8153   32.2384 H   0  0  0  0  0  0  0  0  0  0  0  0
   36.1942   32.4875   32.2256 H   0  0  0  0  0  0  0  0  0  0  0  0
   35.7996   30.0226   31.2242 H   0  0  0  0  0  0  0  0  0  0  0  0
   37.2152   30.2417   32.2167 H   0  0  0  0  0  0  0  0  0  0  0  0
  2  1  1  0
  3  2  2  0
  4  3  1  0
  4  5  2  0
  5  1  1  0
  6  5  1  0
  6 11  1  0
  7  6  2  0
  8  7  1  0
  8  9  2  0
  9 10  1  0
 10 11  2  0
 12  3  1  0
 13 12  1  0
 13 14  2  0
 15 13  1  0
 16 15  2  0
 17 16  1  0
 18 17  2  0
 18 19  1  0
 19 20  2  0
 20 15  1  0
 21 19  1  0
 21 22  1  0
 23 22  1  0
 24 23  1  0
 25 24  1  0
 25 21  1  0
  1 26  1  0
  4 27  1  0
  7 28  1  0
  8 29  1  0
 10 30  1  0
 16 31  1  0
 17 32  1  0
 21 33  1  0
 22 34  1  0
 22 35  1  0
 23 36  1  0
 23 37  1  0
 24 38  1  0
 24 39  1  0
 25 40  1  0
 25 41  1  0
M  ISO  8  26   9  27  14  28  14  29  14  30  14  31  14  32  14  33  13
M  ISO  8  34  13  35  13  36  13  37  13  38  13  39  13  40  13  41  13
M  END
>  <minimizedAffinity>  (1) 
-5.88037443

>  <minimizedRMSD>  (1) 
0.293787897

$$$$
