
     RDKit          3D

 37 39  0  0  0  0  0  0  0  0999 V2000
   39.6770   22.6110   38.2330 N   0  0  0  0  0  0  0  0  0  0  0  0
   38.5810   23.3620   38.0720 N   0  0  0  0  0  0  0  0  0  0  0  0
   38.6160   23.9450   36.8430 C   0  0  0  0  0  0  0  0  0  0  0  0
   39.7690   23.5500   36.2080 C   0  0  0  0  0  0  0  0  0  0  0  0
   40.4000   22.7220   37.1020 C   0  0  0  0  0  0  0  0  0  0  0  0
   41.6910   22.0560   36.8490 C   0  0  0  0  0  0  0  0  0  0  0  0
   42.7090   22.7580   36.2190 C   0  0  0  0  0  0  0  0  0  0  0  0
   43.8820   22.0600   36.0210 C   0  0  0  0  0  0  0  0  0  0  0  0
   44.0980   20.7920   36.3830 N   0  0  0  0  0  0  0  0  0  0  0  0
   43.0750   20.1300   37.0010 C   0  0  0  0  0  0  0  0  0  0  0  0
   41.9200   20.7900   37.2050 N   0  0  0  0  0  0  0  0  0  0  0  0
   37.5650   24.7940   36.4290 O   0  0  0  0  0  0  0  0  0  0  0  0
   37.8150   26.0820   35.9870 C   0  0  0  0  0  0  0  0  0  0  0  0
   38.4660   26.8860   36.7040 O   0  0  0  0  0  0  0  0  0  0  0  0
   37.3160   26.5060   34.6770 C   0  0  0  0  0  0  0  0  0  0  0  0
   37.4520   25.6260   33.6240 C   0  0  0  0  0  0  0  0  0  0  0  0
   36.9740   26.0290   32.3600 C   0  0  0  0  0  0  0  0  0  0  0  0
   36.4120   27.2620   32.2780 N   0  0  0  0  0  0  0  0  0  0  0  0
   36.2970   28.0850   33.3180 C   0  0  0  0  0  0  0  0  0  0  0  0
   36.7480   27.7250   34.5500 N   0  0  0  0  0  0  0  0  0  0  0  0
   35.6760   29.4290   33.1940 C   0  0  0  0  0  0  0  0  0  0  0  0
   34.2970   29.4110   32.6190 C   0  0  0  0  0  0  0  0  0  0  0  0
   35.6100   30.0010   34.5980 C   0  0  0  0  0  0  0  0  0  0  0  0
   39.9213   22.0538   39.0641 H   0  0  0  0  0  0  0  0  0  0  0  0
   40.1114   23.8354   35.2024 H   0  0  0  0  0  0  0  0  0  0  0  0
   42.5882   23.8033   35.8984 H   0  0  0  0  0  0  0  0  0  0  0  0
   44.7075   22.5908   35.5243 H   0  0  0  0  0  0  0  0  0  0  0  0
   43.1923   19.0849   37.3234 H   0  0  0  0  0  0  0  0  0  0  0  0
   37.9189   24.6401   33.7657 H   0  0  0  0  0  0  0  0  0  0  0  0
   37.0530   25.3737   31.4800 H   0  0  0  0  0  0  0  0  0  0  0  0
   36.2850   30.0283   32.5012 H   0  0  0  0  0  0  0  0  0  0  0  0
   33.5595   29.4014   33.4351 H   0  0  0  0  0  0  0  0  0  0  0  0
   34.1464   30.3073   31.9993 H   0  0  0  0  0  0  0  0  0  0  0  0
   34.1699   28.5111   31.9993 H   0  0  0  0  0  0  0  0  0  0  0  0
   35.7040   29.1860   35.3308 H   0  0  0  0  0  0  0  0  0  0  0  0
   36.4313   30.7188   34.7405 H   0  0  0  0  0  0  0  0  0  0  0  0
   34.6468   30.5129   34.7405 H   0  0  0  0  0  0  0  0  0  0  0  0
  2  1  1  0
  3  2  2  0
  4  3  1  0
  4  5  2  0
  5  1  1  0
  6  5  1  0
  6 11  1  0
  7  6  2  0
  8  7  1  0
  8  9  2  0
  9 10  1  0
 10 11  2  0
 12  3  1  0
 13 12  1  0
 13 14  2  0
 15 13  1  0
 16 15  2  0
 17 16  1  0
 18 17  2  0
 18 19  1  0
 19 20  2  0
 20 15  1  0
 21 19  1  0
 21 23  1  0
 22 21  1  0
  1 24  1  0
  4 25  1  0
  7 26  1  0
  8 27  1  0
 10 28  1  0
 16 29  1  0
 17 30  1  0
 21 31  1  0
 22 32  1  0
 22 33  1  0
 22 34  1  0
 23 35  1  0
 23 36  1  0
 23 37  1  0
M  ISO  8  24   9  25  14  26  14  27  14  28  14  29  14  30  14  31   8
M  ISO  6  32   8  33   8  34   8  35   8  36   8  37   8
M  END
>  <minimizedAffinity>  (1) 
-5.50248003

>  <minimizedRMSD>  (1) 
0.480286837

$$$$
