
     RDKit          3D

 30 32  0  0  0  0  0  0  0  0999 V2000
   39.6730   22.6200   38.2340 N   0  0  0  0  0  0  0  0  0  0  0  0
   38.5810   23.3670   38.0710 N   0  0  0  0  0  0  0  0  0  0  0  0
   38.6170   23.9500   36.8460 C   0  0  0  0  0  0  0  0  0  0  0  0
   39.7710   23.5640   36.2030 C   0  0  0  0  0  0  0  0  0  0  0  0
   40.4010   22.7380   37.0940 C   0  0  0  0  0  0  0  0  0  0  0  0
   41.6940   22.0740   36.8390 C   0  0  0  0  0  0  0  0  0  0  0  0
   42.6980   22.7720   36.2220 C   0  0  0  0  0  0  0  0  0  0  0  0
   43.8730   22.0830   36.0190 C   0  0  0  0  0  0  0  0  0  0  0  0
   44.0850   20.7970   36.3840 N   0  0  0  0  0  0  0  0  0  0  0  0
   43.0650   20.1440   36.9920 C   0  0  0  0  0  0  0  0  0  0  0  0
   41.9030   20.7970   37.2020 N   0  0  0  0  0  0  0  0  0  0  0  0
   37.5530   24.8040   36.4350 O   0  0  0  0  0  0  0  0  0  0  0  0
   37.8130   26.0840   35.9730 C   0  0  0  0  0  0  0  0  0  0  0  0
   38.4690   26.9040   36.6770 O   0  0  0  0  0  0  0  0  0  0  0  0
   37.3240   26.4980   34.6600 C   0  0  0  0  0  0  0  0  0  0  0  0
   37.4570   25.6000   33.6050 C   0  0  0  0  0  0  0  0  0  0  0  0
   36.9920   25.9920   32.3460 C   0  0  0  0  0  0  0  0  0  0  0  0
   36.4440   27.2150   32.2410 N   0  0  0  0  0  0  0  0  0  0  0  0
   36.3270   28.0570   33.2720 C   0  0  0  0  0  0  0  0  0  0  0  0
   36.7660   27.7150   34.5040 N   0  0  0  0  0  0  0  0  0  0  0  0
   35.7200   29.3200   32.9910 N   0  0  0  0  0  0  0  0  0  0  0  0
   39.9172   22.0614   39.0642 H   0  0  0  0  0  0  0  0  0  0  0  0
   40.1109   23.8544   35.1979 H   0  0  0  0  0  0  0  0  0  0  0  0
   42.5734   23.8188   35.9079 H   0  0  0  0  0  0  0  0  0  0  0  0
   44.6985   22.6161   35.5247 H   0  0  0  0  0  0  0  0  0  0  0  0
   43.1826   19.0974   37.3095 H   0  0  0  0  0  0  0  0  0  0  0  0
   37.9144   24.6112   33.7572 H   0  0  0  0  0  0  0  0  0  0  0  0
   37.0715   25.3252   31.4748 H   0  0  0  0  0  0  0  0  0  0  0  0
   35.6010   30.0130   33.7436 H   0  0  0  0  0  0  0  0  0  0  0  0
   35.4015   29.5372   32.0359 H   0  0  0  0  0  0  0  0  0  0  0  0
  2  1  1  0
  3  2  2  0
  4  3  1  0
  4  5  2  0
  5  1  1  0
  6  5  1  0
  6 11  1  0
  7  6  2  0
  8  7  1  0
  8  9  2  0
  9 10  1  0
 10 11  2  0
 12  3  1  0
 13 12  1  0
 13 14  2  0
 15 13  1  0
 16 15  2  0
 17 16  1  0
 18 17  2  0
 18 19  1  0
 19 20  2  0
 20 15  1  0
 21 19  1  0
  1 22  1  0
  4 23  1  0
  7 24  1  0
  8 25  1  0
 10 26  1  0
 16 27  1  0
 17 28  1  0
 21 29  1  0
 21 30  1  0
M  ISO  7  22   9  23  14  24  14  25  14  26  14  27  14  28  14
M  END
>  <minimizedAffinity>  (1) 
-5.1470437

>  <minimizedRMSD>  (1) 
0.021017801

$$$$
