
     RDKit          3D

 35 38  0  0  0  0  0  0  0  0999 V2000
   39.6760   22.6170   38.2090 N   0  0  0  0  0  0  0  0  0  0  0  0
   38.5840   23.3620   38.0340 N   0  0  0  0  0  0  0  0  0  0  0  0
   38.6310   23.9360   36.7960 C   0  0  0  0  0  0  0  0  0  0  0  0
   39.7830   23.5430   36.1710 C   0  0  0  0  0  0  0  0  0  0  0  0
   40.4100   22.7250   37.0750 C   0  0  0  0  0  0  0  0  0  0  0  0
   41.7060   22.0580   36.8300 C   0  0  0  0  0  0  0  0  0  0  0  0
   42.7260   22.7590   36.2120 C   0  0  0  0  0  0  0  0  0  0  0  0
   43.8880   22.0540   36.0300 C   0  0  0  0  0  0  0  0  0  0  0  0
   44.1100   20.7740   36.3940 N   0  0  0  0  0  0  0  0  0  0  0  0
   43.0820   20.1230   36.9980 C   0  0  0  0  0  0  0  0  0  0  0  0
   41.9130   20.7910   37.1960 N   0  0  0  0  0  0  0  0  0  0  0  0
   37.5770   24.7810   36.3690 O   0  0  0  0  0  0  0  0  0  0  0  0
   37.8080   26.0790   35.9970 C   0  0  0  0  0  0  0  0  0  0  0  0
   38.4880   26.8450   36.7380 O   0  0  0  0  0  0  0  0  0  0  0  0
   37.2720   26.6020   34.7350 C   0  0  0  0  0  0  0  0  0  0  0  0
   37.4050   25.8050   33.6070 C   0  0  0  0  0  0  0  0  0  0  0  0
   36.8980   26.2940   32.3960 C   0  0  0  0  0  0  0  0  0  0  0  0
   36.3130   27.5130   32.4130 N   0  0  0  0  0  0  0  0  0  0  0  0
   36.2050   28.2480   33.5110 C   0  0  0  0  0  0  0  0  0  0  0  0
   36.6810   27.8120   34.6990 N   0  0  0  0  0  0  0  0  0  0  0  0
   35.5390   29.5830   33.4170 C   0  0  0  0  0  0  0  0  0  0  0  0
   35.5940   30.4100   34.6720 C   0  0  0  0  0  0  0  0  0  0  0  0
   34.3080   29.8080   34.2370 C   0  0  0  0  0  0  0  0  0  0  0  0
   39.9155   22.0655   39.0453 H   0  0  0  0  0  0  0  0  0  0  0  0
   40.1296   23.8219   35.1650 H   0  0  0  0  0  0  0  0  0  0  0  0
   42.6132   23.8048   35.8903 H   0  0  0  0  0  0  0  0  0  0  0  0
   44.7189   22.5829   35.5402 H   0  0  0  0  0  0  0  0  0  0  0  0
   43.1923   19.0771   37.3205 H   0  0  0  0  0  0  0  0  0  0  0  0
   37.8929   24.8207   33.6619 H   0  0  0  0  0  0  0  0  0  0  0  0
   36.9729   25.7091   31.4674 H   0  0  0  0  0  0  0  0  0  0  0  0
   35.7893   29.7246   32.3553 H   0  0  0  0  0  0  0  0  0  0  0  0
   36.1087   30.0226   35.5636 H   0  0  0  0  0  0  0  0  0  0  0  0
   35.9322   31.4273   34.9185 H   0  0  0  0  0  0  0  0  0  0  0  0
   33.5033   30.4520   33.8527 H   0  0  0  0  0  0  0  0  0  0  0  0
   33.5612   29.1523   34.7086 H   0  0  0  0  0  0  0  0  0  0  0  0
  2  1  1  0
  3  2  2  0
  4  3  1  0
  4  5  2  0
  5  1  1  0
  6  5  1  0
  6 11  1  0
  7  6  2  0
  8  7  1  0
  8  9  2  0
  9 10  1  0
 10 11  2  0
 12  3  1  0
 13 12  1  0
 13 14  2  0
 15 13  1  0
 16 15  2  0
 17 18  2  0
 17 16  1  0
 18 19  1  0
 19 20  2  0
 20 15  1  0
 21 19  1  0
 21 23  1  0
 21 22  1  0
 23 22  1  0
  1 24  1  0
  4 25  1  0
  7 26  1  0
  8 27  1  0
 10 28  1  0
 16 29  1  0
 17 30  1  0
 21 31  1  0
 22 32  1  0
 22 33  1  0
 23 34  1  0
 23 35  1  0
M  ISO  8  24   9  25  14  26  14  27  14  28  14  29  14  30  14  31  13
M  ISO  4  32  13  33  13  34  13  35  13
M  END
>  <minimizedAffinity>  (1) 
-5.50422239

>  <minimizedRMSD>  (1) 
0.257898897

$$$$
