
     RDKit          3D

 40 42  0  0  0  0  0  0  0  0999 V2000
   39.6370   22.6560   38.1880 N   0  0  0  0  0  0  0  0  0  0  0  0
   38.5480   23.4100   38.0180 N   0  0  0  0  0  0  0  0  0  0  0  0
   38.6030   24.0080   36.7960 C   0  0  0  0  0  0  0  0  0  0  0  0
   39.7610   23.6190   36.1720 C   0  0  0  0  0  0  0  0  0  0  0  0
   40.3780   22.7840   37.0600 C   0  0  0  0  0  0  0  0  0  0  0  0
   41.6790   22.1160   36.8100 C   0  0  0  0  0  0  0  0  0  0  0  0
   42.6960   22.8270   36.2060 C   0  0  0  0  0  0  0  0  0  0  0  0
   43.8670   22.1140   36.0180 C   0  0  0  0  0  0  0  0  0  0  0  0
   44.0710   20.8220   36.3740 N   0  0  0  0  0  0  0  0  0  0  0  0
   43.0360   20.1740   36.9650 C   0  0  0  0  0  0  0  0  0  0  0  0
   41.8770   20.8250   37.1670 N   0  0  0  0  0  0  0  0  0  0  0  0
   37.5570   24.8640   36.3760 O   0  0  0  0  0  0  0  0  0  0  0  0
   37.8130   26.1330   35.9330 C   0  0  0  0  0  0  0  0  0  0  0  0
   38.5050   26.9280   36.6090 O   0  0  0  0  0  0  0  0  0  0  0  0
   37.2740   26.5740   34.6450 C   0  0  0  0  0  0  0  0  0  0  0  0
   37.4120   25.7210   33.5600 C   0  0  0  0  0  0  0  0  0  0  0  0
   36.8970   26.1340   32.3140 C   0  0  0  0  0  0  0  0  0  0  0  0
   36.3000   27.3380   32.2640 N   0  0  0  0  0  0  0  0  0  0  0  0
   36.1790   28.1410   33.3240 C   0  0  0  0  0  0  0  0  0  0  0  0
   36.6630   27.7770   34.5350 N   0  0  0  0  0  0  0  0  0  0  0  0
   35.4980   29.4590   33.1570 C   0  0  0  0  0  0  0  0  0  0  0  0
   35.5880   30.1770   34.4990 C   0  0  0  0  0  0  0  0  0  0  0  0
   34.0450   29.1840   32.8460 C   0  0  0  0  0  0  0  0  0  0  0  0
   36.1250   30.2870   32.0570 C   0  0  0  0  0  0  0  0  0  0  0  0
   39.8688   22.0878   39.0152 H   0  0  0  0  0  0  0  0  0  0  0  0
   40.1157   23.9150   35.1737 H   0  0  0  0  0  0  0  0  0  0  0  0
   42.5846   23.8772   35.8984 H   0  0  0  0  0  0  0  0  0  0  0  0
   44.7047   22.6412   35.5382 H   0  0  0  0  0  0  0  0  0  0  0  0
   43.1441   19.1246   37.2764 H   0  0  0  0  0  0  0  0  0  0  0  0
   37.9108   24.7466   33.6688 H   0  0  0  0  0  0  0  0  0  0  0  0
   36.9801   25.4980   31.4203 H   0  0  0  0  0  0  0  0  0  0  0  0
   35.4961   29.4439   35.3139 H   0  0  0  0  0  0  0  0  0  0  0  0
   36.5576   30.6908   34.5756 H   0  0  0  0  0  0  0  0  0  0  0  0
   34.7752   30.9143   34.5756 H   0  0  0  0  0  0  0  0  0  0  0  0
   33.4827   29.0776   33.7854 H   0  0  0  0  0  0  0  0  0  0  0  0
   33.6303   30.0196   32.2631 H   0  0  0  0  0  0  0  0  0  0  0  0
   33.9643   28.2546   32.2631 H   0  0  0  0  0  0  0  0  0  0  0  0
   36.7322   31.0888   32.5024 H   0  0  0  0  0  0  0  0  0  0  0  0
   36.7654   29.6449   31.4344 H   0  0  0  0  0  0  0  0  0  0  0  0
   35.3333   30.7293   31.4344 H   0  0  0  0  0  0  0  0  0  0  0  0
  2  1  1  0
  3  2  2  0
  4  3  1  0
  4  5  2  0
  5  1  1  0
  6  5  1  0
  6 11  1  0
  7  6  2  0
  8  7  1  0
  8  9  2  0
  9 10  1  0
 10 11  2  0
 12  3  1  0
 13 12  1  0
 13 14  2  0
 15 13  1  0
 16 15  2  0
 17 16  1  0
 18 17  2  0
 18 19  1  0
 19 20  2  0
 20 15  1  0
 21 19  1  0
 21 22  1  0
 23 21  1  0
 24 21  1  0
  1 25  1  0
  4 26  1  0
  7 27  1  0
  8 28  1  0
 10 29  1  0
 16 30  1  0
 17 31  1  0
 22 32  1  0
 22 33  1  0
 22 34  1  0
 23 35  1  0
 23 36  1  0
 23 37  1  0
 24 38  1  0
 24 39  1  0
 24 40  1  0
M  ISO  8  25   9  26  14  27  14  28  14  29  14  30  14  31  14  32   8
M  ISO  8  33   8  34   8  35   8  36   8  37   8  38   8  39   8  40   8
M  END
>  <minimizedAffinity>  (1) 
-5.67904043

>  <minimizedRMSD>  (1) 
0.223682225

$$$$
