
     RDKit          3D

 47 50  0  0  0  0  0  0  0  0999 V2000
   37.2250   26.8010   34.7430 C   0  0  0  0  0  0  0  0  0  0  0  0
   37.2400   26.1080   33.5430 C   0  0  0  0  0  0  0  0  0  0  0  0
   36.6230   26.7030   32.4280 C   0  0  0  0  0  0  0  0  0  0  0  0
   36.0540   27.9100   32.5900 N   0  0  0  0  0  0  0  0  0  0  0  0
   36.0510   28.5600   33.7570 C   0  0  0  0  0  0  0  0  0  0  0  0
   36.6390   28.0120   34.8530 N   0  0  0  0  0  0  0  0  0  0  0  0
   37.8700   26.1750   35.8970 C   0  0  0  0  0  0  0  0  0  0  0  0
   38.6360   26.8600   36.6120 O   0  0  0  0  0  0  0  0  0  0  0  0
   37.6260   24.8570   36.1770 O   0  0  0  0  0  0  0  0  0  0  0  0
   39.6300   22.6660   38.0870 N   0  0  0  0  0  0  0  0  0  0  0  0
   38.5480   23.4290   37.8800 N   0  0  0  0  0  0  0  0  0  0  0  0
   38.6450   24.0010   36.6430 C   0  0  0  0  0  0  0  0  0  0  0  0
   39.8090   23.5910   36.0630 C   0  0  0  0  0  0  0  0  0  0  0  0
   40.4040   22.7690   36.9670 C   0  0  0  0  0  0  0  0  0  0  0  0
   41.6990   22.0830   36.7700 C   0  0  0  0  0  0  0  0  0  0  0  0
   42.7330   22.7650   36.1730 C   0  0  0  0  0  0  0  0  0  0  0  0
   43.9040   22.0430   36.0320 C   0  0  0  0  0  0  0  0  0  0  0  0
   44.0910   20.7650   36.4250 N   0  0  0  0  0  0  0  0  0  0  0  0
   43.0350   20.1410   37.0070 C   0  0  0  0  0  0  0  0  0  0  0  0
   41.8880   20.8090   37.1600 N   0  0  0  0  0  0  0  0  0  0  0  0
   35.4020   29.8890   33.8570 C   0  0  0  0  0  0  0  0  0  0  0  0
   33.9030   29.6730   33.8920 C   0  0  0  0  0  0  0  0  0  0  0  0
   35.7540   30.6700   32.6200 C   0  0  0  0  0  0  0  0  0  0  0  0
   35.8460   30.6270   35.1110 C   0  0  0  0  0  0  0  0  0  0  0  0
   35.0210   31.8240   35.4050 C   0  0  0  0  0  0  0  0  0  0  0  0
   34.7970   32.0560   36.9120 C   0  0  0  0  0  0  0  0  0  0  0  0
   35.5530   33.0180   36.0980 C   0  0  0  0  0  0  0  0  0  0  0  0
   37.7204   25.1215   33.4649 H   0  0  0  0  0  0  0  0  0  0  0  0
   36.6065   26.1956   31.4521 H   0  0  0  0  0  0  0  0  0  0  0  0
   39.8376   22.1094   38.9284 H   0  0  0  0  0  0  0  0  0  0  0  0
   40.1882   23.8684   35.0684 H   0  0  0  0  0  0  0  0  0  0  0  0
   42.6360   23.8067   35.8331 H   0  0  0  0  0  0  0  0  0  0  0  0
   44.7559   22.5536   35.5592 H   0  0  0  0  0  0  0  0  0  0  0  0
   43.1226   19.0989   37.3482 H   0  0  0  0  0  0  0  0  0  0  0  0
   33.5639   29.6241   34.9373 H   0  0  0  0  0  0  0  0  0  0  0  0
   33.4002   30.5080   33.3821 H   0  0  0  0  0  0  0  0  0  0  0  0
   33.6564   28.7300   33.3821 H   0  0  0  0  0  0  0  0  0  0  0  0
   36.1901   31.6376   32.9090 H   0  0  0  0  0  0  0  0  0  0  0  0
   36.4834   30.1026   32.0233 H   0  0  0  0  0  0  0  0  0  0  0  0
   34.8458   30.8407   32.0233 H   0  0  0  0  0  0  0  0  0  0  0  0
   35.7789   29.9373   35.9653 H   0  0  0  0  0  0  0  0  0  0  0  0
   36.8762   30.9728   34.9404 H   0  0  0  0  0  0  0  0  0  0  0  0
   34.4462   31.7117   34.4739 H   0  0  0  0  0  0  0  0  0  0  0  0
   33.7969   32.3159   37.2891 H   0  0  0  0  0  0  0  0  0  0  0  0
   34.9898   31.4836   37.8313 H   0  0  0  0  0  0  0  0  0  0  0  0
   36.6381   33.1188   36.2474 H   0  0  0  0  0  0  0  0  0  0  0  0
   35.4641   34.1004   35.9232 H   0  0  0  0  0  0  0  0  0  0  0  0
  1  6  1  0
  1  7  1  0
  2  1  2  0
  3  4  2  0
  3  2  1  0
  4  5  1  0
  5 21  1  0
  5  6  2  0
  7  9  1  0
  7  8  2  0
  9 12  1  0
 11 10  1  0
 12 11  2  0
 13 12  1  0
 13 14  2  0
 14 10  1  0
 15 14  1  0
 15 20  1  0
 16 15  2  0
 17 16  1  0
 17 18  2  0
 18 19  1  0
 19 20  2  0
 21 22  1  0
 21 24  1  0
 23 21  1  0
 24 25  1  0
 25 27  1  0
 25 26  1  0
 27 26  1  0
  2 28  1  0
  3 29  1  0
 10 30  1  0
 13 31  1  0
 16 32  1  0
 17 33  1  0
 19 34  1  0
 22 35  1  0
 22 36  1  0
 22 37  1  0
 23 38  1  0
 23 39  1  0
 23 40  1  0
 24 41  1  0
 24 42  1  0
 25 43  1  0
 26 44  1  0
 26 45  1  0
 27 46  1  0
 27 47  1  0
M  ISO  8  28  14  29  14  30   9  31  14  32  14  33  14  34  14  35   8
M  ISO  8  36   8  37   8  38   8  39   8  40   8  41   8  42   8  43  13
M  ISO  4  44  13  45  13  46  13  47  13
M  END
>  <minimizedAffinity>  (1) 
-6.02967882

>  <minimizedRMSD>  (1) 
2.3710773

$$$$
