
     RDKit          3D

 47 50  0  0  0  0  0  0  0  0999 V2000
   37.2620   26.6420   34.6630 C   0  0  0  0  0  0  0  0  0  0  0  0
   37.3720   25.8320   33.5450 C   0  0  0  0  0  0  0  0  0  0  0  0
   36.8240   26.2770   32.3200 C   0  0  0  0  0  0  0  0  0  0  0  0
   36.2220   27.4800   32.3290 N   0  0  0  0  0  0  0  0  0  0  0  0
   36.1260   28.2520   33.4260 C   0  0  0  0  0  0  0  0  0  0  0  0
   36.6420   27.8530   34.6160 N   0  0  0  0  0  0  0  0  0  0  0  0
   37.8350   26.1650   35.9170 C   0  0  0  0  0  0  0  0  0  0  0  0
   38.5530   26.9300   36.5890 O   0  0  0  0  0  0  0  0  0  0  0  0
   37.5710   24.8780   36.3320 O   0  0  0  0  0  0  0  0  0  0  0  0
   39.6310   22.6720   38.1710 N   0  0  0  0  0  0  0  0  0  0  0  0
   38.5420   23.4320   37.9910 N   0  0  0  0  0  0  0  0  0  0  0  0
   38.6040   24.0210   36.7690 C   0  0  0  0  0  0  0  0  0  0  0  0
   39.7580   23.6300   36.1550 C   0  0  0  0  0  0  0  0  0  0  0  0
   40.3820   22.7930   37.0400 C   0  0  0  0  0  0  0  0  0  0  0  0
   41.6800   22.1220   36.7990 C   0  0  0  0  0  0  0  0  0  0  0  0
   42.6930   22.8240   36.1990 C   0  0  0  0  0  0  0  0  0  0  0  0
   43.8650   22.1160   36.0170 C   0  0  0  0  0  0  0  0  0  0  0  0
   44.0710   20.8240   36.3780 N   0  0  0  0  0  0  0  0  0  0  0  0
   43.0290   20.1740   36.9720 C   0  0  0  0  0  0  0  0  0  0  0  0
   41.8690   20.8280   37.1680 N   0  0  0  0  0  0  0  0  0  0  0  0
   35.4330   29.5740   33.3170 C   0  0  0  0  0  0  0  0  0  0  0  0
   35.5930   30.2580   34.6590 C   0  0  0  0  0  0  0  0  0  0  0  0
   33.9800   29.3100   33.0330 C   0  0  0  0  0  0  0  0  0  0  0  0
   36.0460   30.4270   32.2140 C   0  0  0  0  0  0  0  0  0  0  0  0
   35.7710   31.8580   32.4320 C   0  0  0  0  0  0  0  0  0  0  0  0
   36.4820   32.8990   32.9990 C   0  0  0  0  0  0  0  0  0  0  0  0
   35.6830   34.0290   32.9090 C   0  0  0  0  0  0  0  0  0  0  0  0
   34.5360   33.6320   32.3010 N   0  0  0  0  0  0  0  0  0  0  0  0
   34.5860   32.3420   32.0160 N   0  0  0  0  0  0  0  0  0  0  0  0
   37.8780   24.8574   33.6091 H   0  0  0  0  0  0  0  0  0  0  0  0
   36.8868   25.6697   31.4050 H   0  0  0  0  0  0  0  0  0  0  0  0
   39.8565   22.1067   39.0020 H   0  0  0  0  0  0  0  0  0  0  0  0
   40.1129   23.9258   35.1567 H   0  0  0  0  0  0  0  0  0  0  0  0
   42.5810   23.8725   35.8859 H   0  0  0  0  0  0  0  0  0  0  0  0
   44.7028   22.6444   35.5387 H   0  0  0  0  0  0  0  0  0  0  0  0
   43.1358   19.1257   37.2877 H   0  0  0  0  0  0  0  0  0  0  0  0
   35.4224   29.5289   35.4648 H   0  0  0  0  0  0  0  0  0  0  0  0
   36.6109   30.6663   34.7434 H   0  0  0  0  0  0  0  0  0  0  0  0
   34.8618   31.0755   34.7434 H   0  0  0  0  0  0  0  0  0  0  0  0
   33.4330   29.2106   33.9822 H   0  0  0  0  0  0  0  0  0  0  0  0
   33.5615   30.1468   32.4545 H   0  0  0  0  0  0  0  0  0  0  0  0
   33.8826   28.3795   32.4545 H   0  0  0  0  0  0  0  0  0  0  0  0
   35.6197   30.1230   31.2466 H   0  0  0  0  0  0  0  0  0  0  0  0
   37.1356   30.2765   32.2222 H   0  0  0  0  0  0  0  0  0  0  0  0
   37.4891   32.8420   33.4378 H   0  0  0  0  0  0  0  0  0  0  0  0
   35.9290   35.0422   33.2595 H   0  0  0  0  0  0  0  0  0  0  0  0
   33.7386   34.2493   32.0912 H   0  0  0  0  0  0  0  0  0  0  0  0
  1  7  1  0
  2  1  2  0
  3  4  2  0
  3  2  1  0
  4  5  1  0
  5  6  2  0
  6  1  1  0
  7  9  1  0
  7  8  2  0
  9 12  1  0
 11 10  1  0
 12 11  2  0
 13 12  1  0
 13 14  2  0
 14 10  1  0
 15 14  1  0
 15 20  1  0
 16 15  2  0
 17 16  1  0
 17 18  2  0
 18 19  1  0
 19 20  2  0
 21  5  1  0
 21 22  1  0
 23 21  1  0
 24 25  1  0
 24 21  1  0
 25 26  1  0
 27 26  2  0
 28 27  1  0
 29 28  1  0
 29 25  2  0
  2 30  1  0
  3 31  1  0
 10 32  1  0
 13 33  1  0
 16 34  1  0
 17 35  1  0
 19 36  1  0
 22 37  1  0
 22 38  1  0
 22 39  1  0
 23 40  1  0
 23 41  1  0
 23 42  1  0
 24 43  1  0
 24 44  1  0
 26 45  1  0
 27 46  1  0
 28 47  1  0
M  ISO  8  30  14  31  14  32   9  33  14  34  14  35  14  36  14  37   8
M  ISO  8  38   8  39   8  40   8  41   8  42   8  43   8  44   8  45  14
M  ISO  2  46  14  47   9
M  END
>  <minimizedAffinity>  (1) 
-5.72943115

>  <minimizedRMSD>  (1) 
0.605978906

$$$$
