
     RDKit          3D

 46 49  0  0  0  0  0  0  0  0999 V2000
   37.2210   26.7800   34.7130 C   0  0  0  0  0  0  0  0  0  0  0  0
   37.2940   26.0530   33.5420 C   0  0  0  0  0  0  0  0  0  0  0  0
   36.6900   26.5920   32.3760 C   0  0  0  0  0  0  0  0  0  0  0  0
   36.0820   27.7870   32.4970 N   0  0  0  0  0  0  0  0  0  0  0  0
   36.0310   28.4660   33.6520 C   0  0  0  0  0  0  0  0  0  0  0  0
   36.5970   27.9830   34.7860 N   0  0  0  0  0  0  0  0  0  0  0  0
   37.8510   26.2080   35.9060 C   0  0  0  0  0  0  0  0  0  0  0  0
   38.6250   26.9150   36.5890 O   0  0  0  0  0  0  0  0  0  0  0  0
   37.5760   24.9050   36.2530 O   0  0  0  0  0  0  0  0  0  0  0  0
   39.6180   22.7030   38.1230 N   0  0  0  0  0  0  0  0  0  0  0  0
   38.5400   23.4650   37.9240 N   0  0  0  0  0  0  0  0  0  0  0  0
   38.6170   24.0430   36.6930 C   0  0  0  0  0  0  0  0  0  0  0  0
   39.7790   23.6340   36.0960 C   0  0  0  0  0  0  0  0  0  0  0  0
   40.3760   22.8080   37.0030 C   0  0  0  0  0  0  0  0  0  0  0  0
   41.6710   22.1250   36.7840 C   0  0  0  0  0  0  0  0  0  0  0  0
   42.7000   22.8140   36.1920 C   0  0  0  0  0  0  0  0  0  0  0  0
   43.8730   22.0950   36.0280 C   0  0  0  0  0  0  0  0  0  0  0  0
   44.0600   20.8020   36.4020 N   0  0  0  0  0  0  0  0  0  0  0  0
   43.0160   20.1780   36.9770 C   0  0  0  0  0  0  0  0  0  0  0  0
   41.8500   20.8380   37.1590 N   0  0  0  0  0  0  0  0  0  0  0  0
   35.3270   29.7930   33.6760 C   0  0  0  0  0  0  0  0  0  0  0  0
   35.7830   30.5000   34.9360 C   0  0  0  0  0  0  0  0  0  0  0  0
   33.8550   29.5100   33.7700 C   0  0  0  0  0  0  0  0  0  0  0  0
   35.6390   30.6060   32.4530 C   0  0  0  0  0  0  0  0  0  0  0  0
   34.4110   31.3600   32.0120 C   0  0  0  0  0  0  0  0  0  0  0  0
   34.3080   32.6840   32.4750 C   0  0  0  0  0  0  0  0  0  0  0  0
   32.7190   33.2710   31.7470 S   0  0  0  0  0  0  0  0  0  0  0  0
   32.4710   31.5770   30.9240 C   0  0  0  0  0  0  0  0  0  0  0  0
   33.3850   31.0210   31.2570 N   0  0  0  0  0  0  0  0  0  0  0  0
   37.8073   25.0805   33.5131 H   0  0  0  0  0  0  0  0  0  0  0  0
   36.7175   26.0566   31.4155 H   0  0  0  0  0  0  0  0  0  0  0  0
   39.8320   22.1451   38.9620 H   0  0  0  0  0  0  0  0  0  0  0  0
   40.1515   23.9117   35.0989 H   0  0  0  0  0  0  0  0  0  0  0  0
   42.6006   23.8614   35.8709 H   0  0  0  0  0  0  0  0  0  0  0  0
   44.7216   22.6127   35.5569 H   0  0  0  0  0  0  0  0  0  0  0  0
   43.1110   19.1305   37.2992 H   0  0  0  0  0  0  0  0  0  0  0  0
   35.4259   29.9463   35.8168 H   0  0  0  0  0  0  0  0  0  0  0  0
   36.8819   30.5467   34.9530 H   0  0  0  0  0  0  0  0  0  0  0  0
   35.3723   31.5203   34.9530 H   0  0  0  0  0  0  0  0  0  0  0  0
   33.5594   29.4532   34.8280 H   0  0  0  0  0  0  0  0  0  0  0  0
   33.2942   30.3168   33.2754 H   0  0  0  0  0  0  0  0  0  0  0  0
   33.6333   28.5528   33.2754 H   0  0  0  0  0  0  0  0  0  0  0  0
   36.4422   31.3208   32.6852 H   0  0  0  0  0  0  0  0  0  0  0  0
   35.9618   29.9343   31.6439 H   0  0  0  0  0  0  0  0  0  0  0  0
   35.0083   33.2373   33.1180 H   0  0  0  0  0  0  0  0  0  0  0  0
   31.6443   31.2315   30.2859 H   0  0  0  0  0  0  0  0  0  0  0  0
  1  6  1  0
  1  7  1  0
  2  1  2  0
  3  4  2  0
  3  2  1  0
  4  5  1  0
  5 21  1  0
  5  6  2  0
  7  9  1  0
  7  8  2  0
  9 12  1  0
 11 10  1  0
 12 11  2  0
 13 12  1  0
 13 14  2  0
 14 10  1  0
 15 14  1  0
 15 20  1  0
 16 15  2  0
 17 16  1  0
 17 18  2  0
 18 19  1  0
 19 20  2  0
 21 23  1  0
 21 22  1  0
 24 21  1  0
 25 24  1  0
 25 26  2  0
 27 26  1  0
 28 29  2  0
 28 27  1  0
 29 25  1  0
  2 30  1  0
  3 31  1  0
 10 32  1  0
 13 33  1  0
 16 34  1  0
 17 35  1  0
 19 36  1  0
 22 37  1  0
 22 38  1  0
 22 39  1  0
 23 40  1  0
 23 41  1  0
 23 42  1  0
 24 43  1  0
 24 44  1  0
 26 45  1  0
 28 46  1  0
M  ISO  8  30  14  31  14  32   9  33  14  34  14  35  14  36  14  37   8
M  ISO  8  38   8  39   8  40   8  41   8  42   8  43   8  44   8  45  14
M  ISO  1  46  14
M  END
>  <minimizedAffinity>  (1) 
-5.69341564

>  <minimizedRMSD>  (1) 
0.937750995

$$$$
