
     RDKit          3D

 48 51  0  0  0  0  0  0  0  0999 V2000
   37.2520   26.6550   34.6380 C   0  0  0  0  0  0  0  0  0  0  0  0
   37.3690   25.8440   33.5270 C   0  0  0  0  0  0  0  0  0  0  0  0
   36.8200   26.3000   32.3020 C   0  0  0  0  0  0  0  0  0  0  0  0
   36.2190   27.5030   32.3080 N   0  0  0  0  0  0  0  0  0  0  0  0
   36.1220   28.2640   33.4030 C   0  0  0  0  0  0  0  0  0  0  0  0
   36.6370   27.8530   34.5860 N   0  0  0  0  0  0  0  0  0  0  0  0
   37.8240   26.1680   35.8970 C   0  0  0  0  0  0  0  0  0  0  0  0
   38.5590   26.9400   36.5720 O   0  0  0  0  0  0  0  0  0  0  0  0
   37.5610   24.9030   36.3210 O   0  0  0  0  0  0  0  0  0  0  0  0
   39.6200   22.6820   38.1610 N   0  0  0  0  0  0  0  0  0  0  0  0
   38.5380   23.4440   37.9760 N   0  0  0  0  0  0  0  0  0  0  0  0
   38.5990   24.0390   36.7520 C   0  0  0  0  0  0  0  0  0  0  0  0
   39.7580   23.6400   36.1430 C   0  0  0  0  0  0  0  0  0  0  0  0
   40.3640   22.8050   37.0350 C   0  0  0  0  0  0  0  0  0  0  0  0
   41.6640   22.1250   36.7980 C   0  0  0  0  0  0  0  0  0  0  0  0
   42.6860   22.8220   36.1980 C   0  0  0  0  0  0  0  0  0  0  0  0
   43.8610   22.1150   36.0150 C   0  0  0  0  0  0  0  0  0  0  0  0
   44.0570   20.8160   36.3830 N   0  0  0  0  0  0  0  0  0  0  0  0
   43.0180   20.1880   36.9670 C   0  0  0  0  0  0  0  0  0  0  0  0
   41.8620   20.8420   37.1590 N   0  0  0  0  0  0  0  0  0  0  0  0
   35.4340   29.5840   33.2980 C   0  0  0  0  0  0  0  0  0  0  0  0
   35.5840   30.2710   34.6600 C   0  0  0  0  0  0  0  0  0  0  0  0
   33.9760   29.3290   33.0340 C   0  0  0  0  0  0  0  0  0  0  0  0
   36.0420   30.4600   32.2190 C   0  0  0  0  0  0  0  0  0  0  0  0
   35.5940   31.8470   32.4690 C   0  0  0  0  0  0  0  0  0  0  0  0
   36.5340   32.7600   32.8990 C   0  0  0  0  0  0  0  0  0  0  0  0
   36.2490   34.0790   33.1680 C   0  0  0  0  0  0  0  0  0  0  0  0
   34.9560   34.4680   32.9880 N   0  0  0  0  0  0  0  0  0  0  0  0
   34.0260   33.6050   32.5750 C   0  0  0  0  0  0  0  0  0  0  0  0
   34.3270   32.3030   32.3130 N   0  0  0  0  0  0  0  0  0  0  0  0
   37.8750   24.8694   33.5905 H   0  0  0  0  0  0  0  0  0  0  0  0
   36.8830   25.6953   31.3853 H   0  0  0  0  0  0  0  0  0  0  0  0
   39.8434   22.1155   38.9917 H   0  0  0  0  0  0  0  0  0  0  0  0
   40.1228   23.9307   35.1468 H   0  0  0  0  0  0  0  0  0  0  0  0
   42.5768   23.8708   35.8847 H   0  0  0  0  0  0  0  0  0  0  0  0
   44.7009   22.6400   35.5365 H   0  0  0  0  0  0  0  0  0  0  0  0
   43.1171   19.1400   37.2862 H   0  0  0  0  0  0  0  0  0  0  0  0
   35.4233   29.5350   35.4616 H   0  0  0  0  0  0  0  0  0  0  0  0
   36.5956   30.6939   34.7479 H   0  0  0  0  0  0  0  0  0  0  0  0
   34.8407   31.0771   34.7479 H   0  0  0  0  0  0  0  0  0  0  0  0
   33.4411   29.2354   33.9906 H   0  0  0  0  0  0  0  0  0  0  0  0
   33.5554   30.1672   32.4591 H   0  0  0  0  0  0  0  0  0  0  0  0
   33.8649   28.3978   32.4591 H   0  0  0  0  0  0  0  0  0  0  0  0
   35.6997   30.1275   31.2279 H   0  0  0  0  0  0  0  0  0  0  0  0
   37.1400   30.3971   32.2414 H   0  0  0  0  0  0  0  0  0  0  0  0
   37.5695   32.4144   33.0345 H   0  0  0  0  0  0  0  0  0  0  0  0
   37.0234   34.7814   33.5099 H   0  0  0  0  0  0  0  0  0  0  0  0
   32.9911   33.9537   32.4430 H   0  0  0  0  0  0  0  0  0  0  0  0
  1  7  1  0
  2  1  2  0
  3  4  2  0
  3  2  1  0
  4  5  1  0
  5  6  2  0
  6  1  1  0
  7  9  1  0
  7  8  2  0
  9 12  1  0
 11 10  1  0
 12 11  2  0
 13 12  1  0
 13 14  2  0
 14 10  1  0
 15 14  1  0
 15 20  1  0
 16 15  2  0
 17 16  1  0
 17 18  2  0
 18 19  1  0
 19 20  2  0
 21  5  1  0
 21 22  1  0
 23 21  1  0
 24 25  1  0
 24 21  1  0
 25 26  2  0
 26 27  1  0
 28 27  2  0
 29 28  1  0
 30 25  1  0
 30 29  2  0
  2 31  1  0
  3 32  1  0
 10 33  1  0
 13 34  1  0
 16 35  1  0
 17 36  1  0
 19 37  1  0
 22 38  1  0
 22 39  1  0
 22 40  1  0
 23 41  1  0
 23 42  1  0
 23 43  1  0
 24 44  1  0
 24 45  1  0
 26 46  1  0
 27 47  1  0
 29 48  1  0
M  ISO  8  31  14  32  14  33   9  34  14  35  14  36  14  37  14  38   8
M  ISO  8  39   8  40   8  41   8  42   8  43   8  44   8  45   8  46  14
M  ISO  2  47  14  48  14
M  END
>  <minimizedAffinity>  (1) 
-5.75543213

>  <minimizedRMSD>  (1) 
0.52444768

$$$$
