
     RDKit          3D

 47 50  0  0  0  0  0  0  0  0999 V2000
   37.1250   26.9360   34.4980 C   0  0  0  0  0  0  0  0  0  0  0  0
   37.2340   26.2030   33.3370 C   0  0  0  0  0  0  0  0  0  0  0  0
   36.5790   26.6900   32.1830 C   0  0  0  0  0  0  0  0  0  0  0  0
   35.8970   27.8400   32.3170 N   0  0  0  0  0  0  0  0  0  0  0  0
   35.8060   28.5340   33.4540 C   0  0  0  0  0  0  0  0  0  0  0  0
   36.4200   28.0950   34.5740 N   0  0  0  0  0  0  0  0  0  0  0  0
   37.8060   26.4310   35.7050 C   0  0  0  0  0  0  0  0  0  0  0  0
   38.6690   27.1240   36.2690 O   0  0  0  0  0  0  0  0  0  0  0  0
   37.4660   25.1860   36.1880 O   0  0  0  0  0  0  0  0  0  0  0  0
   39.3600   22.9070   38.1100 N   0  0  0  0  0  0  0  0  0  0  0  0
   38.3100   23.7050   37.8840 N   0  0  0  0  0  0  0  0  0  0  0  0
   38.4390   24.2950   36.6700 C   0  0  0  0  0  0  0  0  0  0  0  0
   39.6140   23.8530   36.1030 C   0  0  0  0  0  0  0  0  0  0  0  0
   40.1600   23.0010   37.0100 C   0  0  0  0  0  0  0  0  0  0  0  0
   41.4340   22.2780   36.8370 C   0  0  0  0  0  0  0  0  0  0  0  0
   42.4830   22.9210   36.2030 C   0  0  0  0  0  0  0  0  0  0  0  0
   43.6370   22.1650   36.0850 C   0  0  0  0  0  0  0  0  0  0  0  0
   43.8000   20.8950   36.5320 N   0  0  0  0  0  0  0  0  0  0  0  0
   42.7310   20.3170   37.1470 C   0  0  0  0  0  0  0  0  0  0  0  0
   41.5900   21.0100   37.2840 N   0  0  0  0  0  0  0  0  0  0  0  0
   35.0180   29.7850   33.4460 C   0  0  0  0  0  0  0  0  0  0  0  0
   34.3400   29.8740   34.8210 C   0  0  0  0  0  0  0  0  0  0  0  0
   33.9260   29.6450   32.4060 C   0  0  0  0  0  0  0  0  0  0  0  0
   35.8440   31.0130   33.2150 C   0  0  0  0  0  0  0  0  0  0  0  0
   35.9810   31.4270   31.8600 N   0  0  0  0  0  0  0  0  0  0  0  0
   35.2820   32.4400   31.3240 N   0  0  0  0  0  0  0  0  0  0  0  0
   35.6550   32.5710   30.0370 C   0  0  0  0  0  0  0  0  0  0  0  0
   36.6180   31.6420   29.6900 C   0  0  0  0  0  0  0  0  0  0  0  0
   36.7930   30.9380   30.8790 C   0  0  0  0  0  0  0  0  0  0  0  0
   37.8126   25.2679   33.3087 H   0  0  0  0  0  0  0  0  0  0  0  0
   36.6252   26.1544   31.2233 H   0  0  0  0  0  0  0  0  0  0  0  0
   39.5303   22.3347   38.9493 H   0  0  0  0  0  0  0  0  0  0  0  0
   40.0245   24.1315   35.1212 H   0  0  0  0  0  0  0  0  0  0  0  0
   42.4060   23.9505   35.8232 H   0  0  0  0  0  0  0  0  0  0  0  0
   44.4965   22.6355   35.5851 H   0  0  0  0  0  0  0  0  0  0  0  0
   42.8025   19.2880   37.5292 H   0  0  0  0  0  0  0  0  0  0  0  0
   35.0988   29.7744   35.6111 H   0  0  0  0  0  0  0  0  0  0  0  0
   33.8347   30.8462   34.9184 H   0  0  0  0  0  0  0  0  0  0  0  0
   33.6009   29.0652   34.9184 H   0  0  0  0  0  0  0  0  0  0  0  0
   32.9552   29.5205   32.9081 H   0  0  0  0  0  0  0  0  0  0  0  0
   33.9006   30.5472   31.7773 H   0  0  0  0  0  0  0  0  0  0  0  0
   34.1290   28.7655   31.7773 H   0  0  0  0  0  0  0  0  0  0  0  0
   35.3818   31.8397   33.7744 H   0  0  0  0  0  0  0  0  0  0  0  0
   36.8593   30.7549   33.5504 H   0  0  0  0  0  0  0  0  0  0  0  0
   35.2446   33.3235   29.3476 H   0  0  0  0  0  0  0  0  0  0  0  0
   37.1186   31.4959   28.7215 H   0  0  0  0  0  0  0  0  0  0  0  0
   37.4928   30.0994   31.0096 H   0  0  0  0  0  0  0  0  0  0  0  0
  1  6  1  0
  1  7  1  0
  2  1  2  0
  3  4  2  0
  3  2  1  0
  4  5  1  0
  5  6  2  0
  7  9  1  0
  7  8  2  0
  9 12  1  0
 11 10  1  0
 12 11  2  0
 13 12  1  0
 13 14  2  0
 14 10  1  0
 15 14  1  0
 15 20  1  0
 16 15  2  0
 17 16  1  0
 17 18  2  0
 18 19  1  0
 19 20  2  0
 21  5  1  0
 21 22  1  0
 23 21  1  0
 24 21  1  0
 25 24  1  0
 26 25  1  0
 27 26  2  0
 28 27  1  0
 28 29  2  0
 29 25  1  0
  2 30  1  0
  3 31  1  0
 10 32  1  0
 13 33  1  0
 16 34  1  0
 17 35  1  0
 19 36  1  0
 22 37  1  0
 22 38  1  0
 22 39  1  0
 23 40  1  0
 23 41  1  0
 23 42  1  0
 24 43  1  0
 24 44  1  0
 27 45  1  0
 28 46  1  0
 29 47  1  0
M  ISO  8  30  14  31  14  32   9  33  14  34  14  35  14  36  14  37   8
M  ISO  8  38   8  39   8  40   8  41   8  42   8  43   8  44   8  45  14
M  ISO  2  46  14  47  14
M  END
>  <minimizedAffinity>  (1) 
-5.34118795

>  <minimizedRMSD>  (1) 
1.27294314

$$$$
