
     RDKit          3D

 47 50  0  0  0  0  0  0  0  0999 V2000
   37.1140   26.9800   34.4670 C   0  0  0  0  0  0  0  0  0  0  0  0
   37.2440   26.2940   33.2800 C   0  0  0  0  0  0  0  0  0  0  0  0
   36.5690   26.7890   32.1400 C   0  0  0  0  0  0  0  0  0  0  0  0
   35.8460   27.9060   32.3160 N   0  0  0  0  0  0  0  0  0  0  0  0
   35.7290   28.5580   33.4620 C   0  0  0  0  0  0  0  0  0  0  0  0
   36.3650   28.1090   34.5810 N   0  0  0  0  0  0  0  0  0  0  0  0
   37.8190   26.4590   35.6530 C   0  0  0  0  0  0  0  0  0  0  0  0
   38.7150   27.1340   36.1860 O   0  0  0  0  0  0  0  0  0  0  0  0
   37.4670   25.2280   36.1500 O   0  0  0  0  0  0  0  0  0  0  0  0
   39.3340   22.9390   38.0880 N   0  0  0  0  0  0  0  0  0  0  0  0
   38.2910   23.7420   37.8560 N   0  0  0  0  0  0  0  0  0  0  0  0
   38.4430   24.3260   36.6360 C   0  0  0  0  0  0  0  0  0  0  0  0
   39.6140   23.8810   36.0790 C   0  0  0  0  0  0  0  0  0  0  0  0
   40.1380   23.0250   37.0050 C   0  0  0  0  0  0  0  0  0  0  0  0
   41.4170   22.2960   36.8320 C   0  0  0  0  0  0  0  0  0  0  0  0
   42.4750   22.9240   36.2080 C   0  0  0  0  0  0  0  0  0  0  0  0
   43.6250   22.1750   36.0870 C   0  0  0  0  0  0  0  0  0  0  0  0
   43.7790   20.8940   36.5330 N   0  0  0  0  0  0  0  0  0  0  0  0
   42.7090   20.3340   37.1350 C   0  0  0  0  0  0  0  0  0  0  0  0
   41.5780   21.0340   37.2670 N   0  0  0  0  0  0  0  0  0  0  0  0
   34.9000   29.7820   33.5170 C   0  0  0  0  0  0  0  0  0  0  0  0
   33.9450   29.6160   34.7060 C   0  0  0  0  0  0  0  0  0  0  0  0
   34.0680   29.8350   32.2610 C   0  0  0  0  0  0  0  0  0  0  0  0
   35.7080   31.0350   33.6640 C   0  0  0  0  0  0  0  0  0  0  0  0
   36.1450   31.4850   32.3220 C   0  0  0  0  0  0  0  0  0  0  0  0
   35.8460   32.7940   31.9230 C   0  0  0  0  0  0  0  0  0  0  0  0
   36.3310   33.0290   30.6450 C   0  0  0  0  0  0  0  0  0  0  0  0
   36.9180   31.8240   30.3170 C   0  0  0  0  0  0  0  0  0  0  0  0
   36.7780   30.9870   31.3140 O   0  0  0  0  0  0  0  0  0  0  0  0
   37.8579   25.3832   33.2200 H   0  0  0  0  0  0  0  0  0  0  0  0
   36.6330   26.2866   31.1636 H   0  0  0  0  0  0  0  0  0  0  0  0
   39.4940   22.3660   38.9288 H   0  0  0  0  0  0  0  0  0  0  0  0
   40.0381   24.1535   35.1013 H   0  0  0  0  0  0  0  0  0  0  0  0
   42.4050   23.9553   35.8317 H   0  0  0  0  0  0  0  0  0  0  0  0
   44.4869   22.6463   35.5921 H   0  0  0  0  0  0  0  0  0  0  0  0
   42.7674   19.3038   37.5162 H   0  0  0  0  0  0  0  0  0  0  0  0
   34.5087   29.7140   35.6455 H   0  0  0  0  0  0  0  0  0  0  0  0
   33.1670   30.3924   34.6625 H   0  0  0  0  0  0  0  0  0  0  0  0
   33.4746   28.6226   34.6625 H   0  0  0  0  0  0  0  0  0  0  0  0
   33.0033   29.9028   32.5290 H   0  0  0  0  0  0  0  0  0  0  0  0
   34.3539   30.7168   31.6687 H   0  0  0  0  0  0  0  0  0  0  0  0
   34.2397   28.9241   31.6687 H   0  0  0  0  0  0  0  0  0  0  0  0
   35.0938   31.8173   34.1338 H   0  0  0  0  0  0  0  0  0  0  0  0
   36.5870   30.8394   34.2958 H   0  0  0  0  0  0  0  0  0  0  0  0
   35.3043   33.5299   32.5353 H   0  0  0  0  0  0  0  0  0  0  0  0
   36.2643   33.9472   30.0429 H   0  0  0  0  0  0  0  0  0  0  0  0
   37.4245   31.6014   29.3663 H   0  0  0  0  0  0  0  0  0  0  0  0
  1  6  1  0
  1  7  1  0
  2  1  2  0
  3  4  2  0
  3  2  1  0
  4  5  1  0
  5 21  1  0
  5  6  2  0
  7  9  1  0
  7  8  2  0
  9 12  1  0
 11 10  1  0
 12 11  2  0
 13 12  1  0
 13 14  2  0
 14 10  1  0
 15 14  1  0
 15 20  1  0
 16 15  2  0
 17 16  1  0
 17 18  2  0
 18 19  1  0
 19 20  2  0
 21 24  1  0
 21 22  1  0
 23 21  1  0
 25 24  1  0
 26 25  2  0
 27 26  1  0
 28 27  2  0
 28 29  1  0
 29 25  1  0
  2 30  1  0
  3 31  1  0
 10 32  1  0
 13 33  1  0
 16 34  1  0
 17 35  1  0
 19 36  1  0
 22 37  1  0
 22 38  1  0
 22 39  1  0
 23 40  1  0
 23 41  1  0
 23 42  1  0
 24 43  1  0
 24 44  1  0
 26 45  1  0
 27 46  1  0
 28 47  1  0
M  ISO  8  30  14  31  14  32   9  33  14  34  14  35  14  36  14  37   8
M  ISO  8  38   8  39   8  40   8  41   8  42   8  43   8  44   8  45  14
M  ISO  2  46  14  47  14
M  END
>  <minimizedAffinity>  (1) 
-5.45050287

>  <minimizedRMSD>  (1) 
1.56074107

$$$$
