
     RDKit          3D

 53 56  0  0  1  0  0  0  0  0999 V2000
   37.1340   26.7450   34.3680 C   0  0  0  0  0  0  0  0  0  0  0  0
   37.1800   25.8490   33.3020 C   0  0  0  0  0  0  0  0  0  0  0  0
   36.5380   26.1930   32.1030 C   0  0  0  0  0  0  0  0  0  0  0  0
   35.9130   27.3870   32.0640 N   0  0  0  0  0  0  0  0  0  0  0  0
   35.8720   28.2410   33.0920 C   0  0  0  0  0  0  0  0  0  0  0  0
   36.4850   27.9270   34.2560 N   0  0  0  0  0  0  0  0  0  0  0  0
   37.8030   26.3780   35.6100 C   0  0  0  0  0  0  0  0  0  0  0  0
   38.6760   27.1320   36.0790 O   0  0  0  0  0  0  0  0  0  0  0  0
   37.4570   25.2070   36.2370 O   0  0  0  0  0  0  0  0  0  0  0  0
   39.3580   22.9100   38.1320 N   0  0  0  0  0  0  0  0  0  0  0  0
   38.3060   23.7090   37.9250 N   0  0  0  0  0  0  0  0  0  0  0  0
   38.4380   24.3050   36.7080 C   0  0  0  0  0  0  0  0  0  0  0  0
   39.5950   23.8730   36.1370 C   0  0  0  0  0  0  0  0  0  0  0  0
   40.1400   23.0120   37.0420 C   0  0  0  0  0  0  0  0  0  0  0  0
   41.4300   22.2820   36.8440 C   0  0  0  0  0  0  0  0  0  0  0  0
   42.4660   22.9300   36.1910 C   0  0  0  0  0  0  0  0  0  0  0  0
   43.6100   22.1760   36.0600 C   0  0  0  0  0  0  0  0  0  0  0  0
   43.7870   20.9000   36.5060 N   0  0  0  0  0  0  0  0  0  0  0  0
   42.7330   20.3290   37.1360 C   0  0  0  0  0  0  0  0  0  0  0  0
   41.5820   21.0180   37.2950 N   0  0  0  0  0  0  0  0  0  0  0  0
   35.1540   29.5220   32.9320 C   0  0  0  0  0  0  0  0  0  0  0  0
   35.8780   30.5500   33.7900 C   0  0  0  0  0  0  0  0  0  0  0  0
   33.7490   29.3340   33.4450 C   0  0  0  0  0  0  0  0  0  0  0  0
   35.1370   29.9810   31.4710 C   0  0  0  0  0  0  0  0  0  0  0  0
   36.4560   30.2710   31.1440 O   0  0  0  0  0  0  0  0  0  0  0  0
   36.9200   30.9890   28.9520 N   0  0  0  0  0  0  0  0  0  0  0  0
   37.8330   30.6240   27.9170 C   0  0  0  0  0  0  0  0  0  0  0  0
   38.4160   29.2730   28.2860 C   0  0  0  0  0  0  0  0  0  0  0  0
   38.1940   29.2750   29.8050 C   0  0  0  0  0  0  0  0  0  0  0  0
   36.8260   29.8700   29.8700 C   0  0  1  0  0  0  0  0  0  0  0  0
   37.7098   24.8898   33.3987 H   0  0  0  0  0  0  0  0  0  0  0  0
   36.5442   25.5189   31.2338 H   0  0  0  0  0  0  0  0  0  0  0  0
   39.5352   22.3294   38.9641 H   0  0  0  0  0  0  0  0  0  0  0  0
   40.0028   24.1575   35.1558 H   0  0  0  0  0  0  0  0  0  0  0  0
   42.3815   23.9585   35.8101 H   0  0  0  0  0  0  0  0  0  0  0  0
   44.4615   22.6473   35.5473 H   0  0  0  0  0  0  0  0  0  0  0  0
   42.8143   19.3012   37.5194 H   0  0  0  0  0  0  0  0  0  0  0  0
   35.7158   30.3197   34.8533 H   0  0  0  0  0  0  0  0  0  0  0  0
   36.9550   30.5194   33.5683 H   0  0  0  0  0  0  0  0  0  0  0  0
   35.4864   31.5537   33.5683 H   0  0  0  0  0  0  0  0  0  0  0  0
   33.7571   29.3351   34.5450 H   0  0  0  0  0  0  0  0  0  0  0  0
   33.1132   30.1551   33.0822 H   0  0  0  0  0  0  0  0  0  0  0  0
   33.3515   28.3747   33.0822 H   0  0  0  0  0  0  0  0  0  0  0  0
   34.7501   29.1803   30.8235 H   0  0  0  0  0  0  0  0  0  0  0  0
   34.4861   30.8568   31.3319 H   0  0  0  0  0  0  0  0  0  0  0  0
   35.9941   31.1906   28.5483 H   0  0  0  0  0  0  0  0  0  0  0  0
   38.6355   31.3725   27.8417 H   0  0  0  0  0  0  0  0  0  0  0  0
   37.3205   30.5748   26.9449 H   0  0  0  0  0  0  0  0  0  0  0  0
   37.8734   28.4500   27.7978 H   0  0  0  0  0  0  0  0  0  0  0  0
   39.4613   29.1260   27.9767 H   0  0  0  0  0  0  0  0  0  0  0  0
   38.2160   28.2571   30.2215 H   0  0  0  0  0  0  0  0  0  0  0  0
   38.9597   29.8131   30.3830 H   0  0  0  0  0  0  0  0  0  0  0  0
   36.0435   29.1441   29.6039 H   0  0  0  0  0  0  0  0  0  0  0  0
  1  7  1  0
  2  1  2  0
  3  2  1  0
  4  3  2  0
  4  5  1  0
  5  6  2  0
  6  1  1  0
  7  8  2  0
  7  9  1  0
  9 12  1  0
 11 10  1  0
 12 11  2  0
 13 12  1  0
 13 14  2  0
 14 10  1  0
 15 14  1  0
 15 20  1  0
 16 15  2  0
 17 16  1  0
 17 18  2  0
 18 19  1  0
 19 20  2  0
 21  5  1  0
 21 23  1  0
 21 22  1  0
 24 21  1  0
 25 24  1  0
 26 30  1  0
 27 28  1  0
 27 26  1  0
 28 29  1  0
 29 30  1  0
 30 25  1  0
  2 31  1  0
  3 32  1  0
 10 33  1  0
 13 34  1  0
 16 35  1  0
 17 36  1  0
 19 37  1  0
 22 38  1  0
 22 39  1  0
 22 40  1  0
 23 41  1  0
 23 42  1  0
 23 43  1  0
 24 44  1  0
 24 45  1  0
 26 46  1  0
 27 47  1  0
 27 48  1  0
 28 49  1  0
 28 50  1  0
 29 51  1  0
 29 52  1  0
 30 53  1  6
M  ISO  8  31  14  32  14  33   9  34  14  35  14  36  14  37  14  38   8
M  ISO  8  39   8  40   8  41   8  42   8  43   8  44   8  45   8  46   5
M  ISO  7  47  13  48  13  49  13  50  13  51  13  52  13  53  13
M  END
>  <minimizedAffinity>  (1) 
-5.65352678

>  <minimizedRMSD>  (1) 
0.720750153

$$$$
