
     RDKit          3D

 57 60  0  0  0  0  0  0  0  0999 V2000
   37.1370   26.7470   34.3470 C   0  0  0  0  0  0  0  0  0  0  0  0
   37.2160   25.8510   33.2730 C   0  0  0  0  0  0  0  0  0  0  0  0
   36.5920   26.2010   32.0670 C   0  0  0  0  0  0  0  0  0  0  0  0
   35.9500   27.3870   32.0180 N   0  0  0  0  0  0  0  0  0  0  0  0
   35.8820   28.2290   33.0430 C   0  0  0  0  0  0  0  0  0  0  0  0
   36.4740   27.9270   34.2300 N   0  0  0  0  0  0  0  0  0  0  0  0
   37.7860   26.3860   35.6090 C   0  0  0  0  0  0  0  0  0  0  0  0
   38.6510   27.1540   36.0830 O   0  0  0  0  0  0  0  0  0  0  0  0
   37.4170   25.2090   36.2230 O   0  0  0  0  0  0  0  0  0  0  0  0
   39.3380   22.9250   38.1320 N   0  0  0  0  0  0  0  0  0  0  0  0
   38.2920   23.7170   37.9100 N   0  0  0  0  0  0  0  0  0  0  0  0
   38.4110   24.3130   36.6960 C   0  0  0  0  0  0  0  0  0  0  0  0
   39.5750   23.8820   36.1290 C   0  0  0  0  0  0  0  0  0  0  0  0
   40.1280   23.0260   37.0370 C   0  0  0  0  0  0  0  0  0  0  0  0
   41.4180   22.3100   36.8400 C   0  0  0  0  0  0  0  0  0  0  0  0
   42.4520   22.9480   36.2050 C   0  0  0  0  0  0  0  0  0  0  0  0
   43.6010   22.2000   36.0740 C   0  0  0  0  0  0  0  0  0  0  0  0
   43.7720   20.9290   36.5100 N   0  0  0  0  0  0  0  0  0  0  0  0
   42.7190   20.3440   37.1310 C   0  0  0  0  0  0  0  0  0  0  0  0
   41.5700   21.0360   37.2850 N   0  0  0  0  0  0  0  0  0  0  0  0
   35.1550   29.5070   32.8900 C   0  0  0  0  0  0  0  0  0  0  0  0
   35.7870   30.5210   33.8310 C   0  0  0  0  0  0  0  0  0  0  0  0
   33.7240   29.2770   33.2970 C   0  0  0  0  0  0  0  0  0  0  0  0
   35.2250   30.0230   31.4510 C   0  0  0  0  0  0  0  0  0  0  0  0
   36.4270   30.7110   31.3430 O   0  0  0  0  0  0  0  0  0  0  0  0
   36.9340   30.7760   30.0580 C   0  0  0  0  0  0  0  0  0  0  0  0
   37.8300   31.9990   30.0190 C   0  0  0  0  0  0  0  0  0  0  0  0
   38.6910   32.0700   28.7950 C   0  0  0  0  0  0  0  0  0  0  0  0
   39.5340   30.8160   28.6780 C   0  0  0  0  0  0  0  0  0  0  0  0
   38.5800   29.6440   28.6020 C   0  0  0  0  0  0  0  0  0  0  0  0
   37.8350   29.5480   29.9040 C   0  0  0  0  0  0  0  0  0  0  0  0
   37.7540   24.8968   33.3732 H   0  0  0  0  0  0  0  0  0  0  0  0
   36.6246   25.5335   31.1932 H   0  0  0  0  0  0  0  0  0  0  0  0
   39.5118   22.3504   38.9689 H   0  0  0  0  0  0  0  0  0  0  0  0
   39.9819   24.1649   35.1470 H   0  0  0  0  0  0  0  0  0  0  0  0
   42.3702   23.9785   35.8289 H   0  0  0  0  0  0  0  0  0  0  0  0
   44.4552   22.6768   35.5709 H   0  0  0  0  0  0  0  0  0  0  0  0
   42.7998   19.3133   37.5067 H   0  0  0  0  0  0  0  0  0  0  0  0
   35.6000   30.2209   34.8726 H   0  0  0  0  0  0  0  0  0  0  0  0
   36.8713   30.5627   33.6505 H   0  0  0  0  0  0  0  0  0  0  0  0
   35.3469   31.5128   33.6505 H   0  0  0  0  0  0  0  0  0  0  0  0
   33.6523   29.2655   34.3946 H   0  0  0  0  0  0  0  0  0  0  0  0
   33.0945   30.0855   32.8969 H   0  0  0  0  0  0  0  0  0  0  0  0
   33.3796   28.3120   32.8969 H   0  0  0  0  0  0  0  0  0  0  0  0
   35.2025   29.1816   30.7429 H   0  0  0  0  0  0  0  0  0  0  0  0
   34.3691   30.6730   31.2166 H   0  0  0  0  0  0  0  0  0  0  0  0
   36.1520   30.8171   29.2855 H   0  0  0  0  0  0  0  0  0  0  0  0
   37.1953   32.8968   30.0508 H   0  0  0  0  0  0  0  0  0  0  0  0
   38.5043   31.9340   30.8857 H   0  0  0  0  0  0  0  0  0  0  0  0
   38.0512   32.1627   27.9050 H   0  0  0  0  0  0  0  0  0  0  0  0
   39.3544   32.9441   28.8716 H   0  0  0  0  0  0  0  0  0  0  0  0
   40.1512   30.8597   27.7685 H   0  0  0  0  0  0  0  0  0  0  0  0
   40.2089   30.7161   29.5408 H   0  0  0  0  0  0  0  0  0  0  0  0
   37.8679   29.7984   27.7779 H   0  0  0  0  0  0  0  0  0  0  0  0
   39.1396   28.7147   28.4194 H   0  0  0  0  0  0  0  0  0  0  0  0
   37.2193   28.6365   29.9096 H   0  0  0  0  0  0  0  0  0  0  0  0
   38.5509   29.5070   30.7382 H   0  0  0  0  0  0  0  0  0  0  0  0
  1  7  1  0
  2  1  2  0
  3  2  1  0
  4  3  2  0
  4  5  1  0
  5  6  2  0
  6  1  1  0
  7  8  2  0
  7  9  1  0
  9 12  1  0
 11 10  1  0
 12 11  2  0
 13 12  1  0
 13 14  2  0
 14 10  1  0
 15 14  1  0
 15 20  1  0
 16 15  2  0
 17 16  1  0
 17 18  2  0
 18 19  1  0
 19 20  2  0
 21  5  1  0
 21 23  1  0
 21 22  1  0
 24 21  1  0
 25 24  1  0
 26 25  1  0
 27 26  1  0
 28 27  1  0
 29 28  1  0
 30 29  1  0
 30 31  1  0
 31 26  1  0
  2 32  1  0
  3 33  1  0
 10 34  1  0
 13 35  1  0
 16 36  1  0
 17 37  1  0
 19 38  1  0
 22 39  1  0
 22 40  1  0
 22 41  1  0
 23 42  1  0
 23 43  1  0
 23 44  1  0
 24 45  1  0
 24 46  1  0
 26 47  1  0
 27 48  1  0
 27 49  1  0
 28 50  1  0
 28 51  1  0
 29 52  1  0
 29 53  1  0
 30 54  1  0
 30 55  1  0
 31 56  1  0
 31 57  1  0
M  ISO  8  32  14  33  14  34   9  35  14  36  14  37  14  38  14  39   8
M  ISO  8  40   8  41   8  42   8  43   8  44   8  45   8  46   8  47  13
M  ISO  8  48  13  49  13  50  13  51  13  52  13  53  13  54  13  55  13
M  ISO  2  56  13  57  13
M  END
>  <minimizedAffinity>  (1) 
-5.6524024

>  <minimizedRMSD>  (1) 
0.459661782

$$$$
