
     RDKit          3D

 44 46  0  0  0  0  0  0  0  0999 V2000
   37.1470   26.6960   34.2870 C   0  0  0  0  0  0  0  0  0  0  0  0
   37.2460   25.7770   33.2570 C   0  0  0  0  0  0  0  0  0  0  0  0
   36.6410   26.0940   32.0370 C   0  0  0  0  0  0  0  0  0  0  0  0
   36.0000   27.2800   31.9450 N   0  0  0  0  0  0  0  0  0  0  0  0
   35.9180   28.1540   32.9530 C   0  0  0  0  0  0  0  0  0  0  0  0
   36.4910   27.8770   34.1450 N   0  0  0  0  0  0  0  0  0  0  0  0
   37.7780   26.3740   35.5760 C   0  0  0  0  0  0  0  0  0  0  0  0
   38.6160   27.1620   36.0650 O   0  0  0  0  0  0  0  0  0  0  0  0
   37.4340   25.2110   36.2170 O   0  0  0  0  0  0  0  0  0  0  0  0
   39.3340   22.9220   38.1260 N   0  0  0  0  0  0  0  0  0  0  0  0
   38.2860   23.7160   37.9100 N   0  0  0  0  0  0  0  0  0  0  0  0
   38.4230   24.3130   36.6850 C   0  0  0  0  0  0  0  0  0  0  0  0
   39.5860   23.8800   36.1260 C   0  0  0  0  0  0  0  0  0  0  0  0
   40.1290   23.0240   37.0320 C   0  0  0  0  0  0  0  0  0  0  0  0
   41.4130   22.3070   36.8410 C   0  0  0  0  0  0  0  0  0  0  0  0
   42.4580   22.9380   36.2190 C   0  0  0  0  0  0  0  0  0  0  0  0
   43.6040   22.2080   36.0820 C   0  0  0  0  0  0  0  0  0  0  0  0
   43.7760   20.9190   36.5160 N   0  0  0  0  0  0  0  0  0  0  0  0
   42.7100   20.3470   37.1230 C   0  0  0  0  0  0  0  0  0  0  0  0
   41.5790   21.0370   37.2680 N   0  0  0  0  0  0  0  0  0  0  0  0
   35.1920   29.4320   32.7550 C   0  0  0  0  0  0  0  0  0  0  0  0
   35.6850   30.4060   33.8000 C   0  0  0  0  0  0  0  0  0  0  0  0
   33.7280   29.1710   32.9500 C   0  0  0  0  0  0  0  0  0  0  0  0
   35.4520   30.0030   31.3560 C   0  0  0  0  0  0  0  0  0  0  0  0
   36.6900   30.6370   31.4010 O   0  0  0  0  0  0  0  0  0  0  0  0
   37.2690   30.7770   30.1550 C   0  0  0  0  0  0  0  0  0  0  0  0
   37.7837   24.8272   33.3938 H   0  0  0  0  0  0  0  0  0  0  0  0
   36.6852   25.4026   31.1826 H   0  0  0  0  0  0  0  0  0  0  0  0
   39.5066   22.3438   38.9607 H   0  0  0  0  0  0  0  0  0  0  0  0
   39.9997   24.1632   35.1469 H   0  0  0  0  0  0  0  0  0  0  0  0
   42.3786   23.9718   35.8516 H   0  0  0  0  0  0  0  0  0  0  0  0
   44.4567   22.6927   35.5839 H   0  0  0  0  0  0  0  0  0  0  0  0
   42.7770   19.3144   37.4960 H   0  0  0  0  0  0  0  0  0  0  0  0
   35.4807   30.0025   34.8027 H   0  0  0  0  0  0  0  0  0  0  0  0
   36.7679   30.5566   33.6790 H   0  0  0  0  0  0  0  0  0  0  0  0
   35.1652   31.3679   33.6790 H   0  0  0  0  0  0  0  0  0  0  0  0
   33.5028   29.1309   34.0260 H   0  0  0  0  0  0  0  0  0  0  0  0
   33.1461   29.9796   32.4835 H   0  0  0  0  0  0  0  0  0  0  0  0
   33.4613   28.2112   32.4835 H   0  0  0  0  0  0  0  0  0  0  0  0
   34.6664   30.7258   31.0906 H   0  0  0  0  0  0  0  0  0  0  0  0
   35.4457   29.2057   30.5982 H   0  0  0  0  0  0  0  0  0  0  0  0
   38.3322   31.0341   30.2715 H   0  0  0  0  0  0  0  0  0  0  0  0
   37.1791   29.8312   29.6005 H   0  0  0  0  0  0  0  0  0  0  0  0
   36.7569   31.5772   29.6005 H   0  0  0  0  0  0  0  0  0  0  0  0
  1  7  1  0
  2  1  2  0
  3  2  1  0
  4  3  2  0
  4  5  1  0
  5  6  2  0
  6  1  1  0
  7  8  2  0
  7  9  1  0
  9 12  1  0
 11 10  1  0
 12 11  2  0
 13 12  1  0
 13 14  2  0
 14 10  1  0
 15 14  1  0
 15 20  1  0
 16 15  2  0
 17 16  1  0
 17 18  2  0
 18 19  1  0
 19 20  2  0
 21 23  1  0
 21  5  1  0
 21 22  1  0
 24 25  1  0
 24 21  1  0
 26 25  1  0
  2 27  1  0
  3 28  1  0
 10 29  1  0
 13 30  1  0
 16 31  1  0
 17 32  1  0
 19 33  1  0
 22 34  1  0
 22 35  1  0
 22 36  1  0
 23 37  1  0
 23 38  1  0
 23 39  1  0
 24 40  1  0
 24 41  1  0
 26 42  1  0
 26 43  1  0
 26 44  1  0
M  ISO  8  27  14  28  14  29   9  30  14  31  14  32  14  33  14  34   8
M  ISO  8  35   8  36   8  37   8  38   8  39   8  40   8  41   8  42   8
M  ISO  2  43   8  44   8
M  END
>  <minimizedAffinity>  (1) 
-5.23304033

>  <minimizedRMSD>  (1) 
0.196503446

$$$$
