
     RDKit          3D

 47 49  0  0  0  0  0  0  0  0999 V2000
   37.1460   26.6980   34.3010 C   0  0  0  0  0  0  0  0  0  0  0  0
   37.2380   25.7860   33.2640 C   0  0  0  0  0  0  0  0  0  0  0  0
   36.6320   26.1010   32.0400 C   0  0  0  0  0  0  0  0  0  0  0  0
   35.9900   27.2840   31.9470 N   0  0  0  0  0  0  0  0  0  0  0  0
   35.9130   28.1550   32.9660 C   0  0  0  0  0  0  0  0  0  0  0  0
   36.4900   27.8710   34.1550 N   0  0  0  0  0  0  0  0  0  0  0  0
   37.7800   26.3690   35.5850 C   0  0  0  0  0  0  0  0  0  0  0  0
   38.6210   27.1580   36.0770 O   0  0  0  0  0  0  0  0  0  0  0  0
   37.4350   25.1930   36.2220 O   0  0  0  0  0  0  0  0  0  0  0  0
   39.3410   22.9200   38.1300 N   0  0  0  0  0  0  0  0  0  0  0  0
   38.2900   23.7100   37.9150 N   0  0  0  0  0  0  0  0  0  0  0  0
   38.4200   24.3050   36.6890 C   0  0  0  0  0  0  0  0  0  0  0  0
   39.5850   23.8720   36.1270 C   0  0  0  0  0  0  0  0  0  0  0  0
   40.1290   23.0190   37.0410 C   0  0  0  0  0  0  0  0  0  0  0  0
   41.4250   22.3010   36.8440 C   0  0  0  0  0  0  0  0  0  0  0  0
   42.4730   22.9450   36.2160 C   0  0  0  0  0  0  0  0  0  0  0  0
   43.6190   22.2010   36.0840 C   0  0  0  0  0  0  0  0  0  0  0  0
   43.7890   20.9210   36.5110 N   0  0  0  0  0  0  0  0  0  0  0  0
   42.7120   20.3360   37.1270 C   0  0  0  0  0  0  0  0  0  0  0  0
   41.5830   21.0360   37.2710 N   0  0  0  0  0  0  0  0  0  0  0  0
   35.1840   29.4390   32.7740 C   0  0  0  0  0  0  0  0  0  0  0  0
   35.6690   30.4000   33.8490 C   0  0  0  0  0  0  0  0  0  0  0  0
   33.7190   29.1550   32.9500 C   0  0  0  0  0  0  0  0  0  0  0  0
   35.4550   30.0350   31.4040 C   0  0  0  0  0  0  0  0  0  0  0  0
   36.6020   30.8500   31.5330 O   0  0  0  0  0  0  0  0  0  0  0  0
   37.1760   31.0940   30.2920 C   0  0  0  0  0  0  0  0  0  0  0  0
   37.2090   29.7580   29.5530 C   0  0  0  0  0  0  0  0  0  0  0  0
   37.7747   24.8352   33.3974 H   0  0  0  0  0  0  0  0  0  0  0  0
   36.6782   25.4089   31.1863 H   0  0  0  0  0  0  0  0  0  0  0  0
   39.5172   22.3451   38.9662 H   0  0  0  0  0  0  0  0  0  0  0  0
   39.9974   24.1513   35.1462 H   0  0  0  0  0  0  0  0  0  0  0  0
   42.3950   23.9788   35.8484 H   0  0  0  0  0  0  0  0  0  0  0  0
   44.4753   22.6825   35.5892 H   0  0  0  0  0  0  0  0  0  0  0  0
   42.7770   19.3025   37.4981 H   0  0  0  0  0  0  0  0  0  0  0  0
   35.4557   29.9774   34.8419 H   0  0  0  0  0  0  0  0  0  0  0  0
   36.7528   30.5541   33.7412 H   0  0  0  0  0  0  0  0  0  0  0  0
   35.1492   31.3634   33.7412 H   0  0  0  0  0  0  0  0  0  0  0  0
   33.4808   29.1088   34.0229 H   0  0  0  0  0  0  0  0  0  0  0  0
   33.1310   29.9559   32.4780 H   0  0  0  0  0  0  0  0  0  0  0  0
   33.4728   28.1924   32.4780 H   0  0  0  0  0  0  0  0  0  0  0  0
   34.5959   30.6393   31.0772 H   0  0  0  0  0  0  0  0  0  0  0  0
   35.6139   29.2456   30.6546 H   0  0  0  0  0  0  0  0  0  0  0  0
   36.5716   31.8224   29.7315 H   0  0  0  0  0  0  0  0  0  0  0  0
   38.1880   31.5116   30.3995 H   0  0  0  0  0  0  0  0  0  0  0  0
   37.2293   28.9355   30.2831 H   0  0  0  0  0  0  0  0  0  0  0  0
   36.3129   29.6659   28.9218 H   0  0  0  0  0  0  0  0  0  0  0  0
   38.1086   29.7103   28.9218 H   0  0  0  0  0  0  0  0  0  0  0  0
  1  7  1  0
  2  1  2  0
  3  2  1  0
  4  3  2  0
  4  5  1  0
  5  6  2  0
  6  1  1  0
  7  8  2  0
  7  9  1  0
  9 12  1  0
 11 10  1  0
 12 11  2  0
 13 12  1  0
 13 14  2  0
 14 10  1  0
 15 14  1  0
 15 20  1  0
 16 15  2  0
 17 16  1  0
 17 18  2  0
 18 19  1  0
 19 20  2  0
 21 23  1  0
 21  5  1  0
 21 22  1  0
 24 25  1  0
 24 21  1  0
 26 25  1  0
 27 26  1  0
  2 28  1  0
  3 29  1  0
 10 30  1  0
 13 31  1  0
 16 32  1  0
 17 33  1  0
 19 34  1  0
 22 35  1  0
 22 36  1  0
 22 37  1  0
 23 38  1  0
 23 39  1  0
 23 40  1  0
 24 41  1  0
 24 42  1  0
 26 43  1  0
 26 44  1  0
 27 45  1  0
 27 46  1  0
 27 47  1  0
M  ISO  8  28  14  29  14  30   9  31  14  32  14  33  14  34  14  35   8
M  ISO  8  36   8  37   8  38   8  39   8  40   8  41   8  42   8  43   8
M  ISO  4  44   8  45   8  46   8  47   8
M  END
>  <minimizedAffinity>  (1) 
-5.22856522

>  <minimizedRMSD>  (1) 
0.303051829

$$$$
