
     RDKit          3D

 20 21  0  0  0  0  0  0  0  0999 V2000
   36.4090   21.3120   33.6390 C   0  0  0  0  0  0  0  0  0  0  0  0
   36.6700   22.1750   32.5460 C   0  0  0  0  0  0  0  0  0  0  0  0
   37.6210   23.1710   32.6990 C   0  0  0  0  0  0  0  0  0  0  0  0
   38.2590   23.2650   33.9090 N   0  0  0  0  0  0  0  0  0  0  0  0
   37.9850   22.4340   34.9150 C   0  0  0  0  0  0  0  0  0  0  0  0
   37.0730   21.4650   34.7950 N   0  0  0  0  0  0  0  0  0  0  0  0
   38.7190   22.6310   36.1360 N   0  0  0  0  0  0  0  0  0  0  0  0
   39.8790   22.0260   36.1300 N   0  0  0  0  0  0  0  0  0  0  0  0
   40.4860   22.2750   37.3260 C   0  0  0  0  0  0  0  0  0  0  0  0
   39.6610   23.0570   38.0720 C   0  0  0  0  0  0  0  0  0  0  0  0
   38.5400   23.2780   37.3090 C   0  0  0  0  0  0  0  0  0  0  0  0
   35.4330   20.2950   33.4750 N   0  0  0  0  0  0  0  0  0  0  0  0
   37.3480   23.9740   37.4700 O   0  0  0  0  0  0  0  0  0  0  0  0
   36.1288   22.0567   31.5957 H   0  0  0  0  0  0  0  0  0  0  0  0
   37.8563   23.8632   31.8771 H   0  0  0  0  0  0  0  0  0  0  0  0
   41.4752   21.9057   37.6346 H   0  0  0  0  0  0  0  0  0  0  0  0
   39.8531   23.4375   39.0860 H   0  0  0  0  0  0  0  0  0  0  0  0
   34.9365   20.1975   32.5778 H   0  0  0  0  0  0  0  0  0  0  0  0
   35.2211   19.6543   34.2531 H   0  0  0  0  0  0  0  0  0  0  0  0
   37.1706   24.4638   38.3119 H   0  0  0  0  0  0  0  0  0  0  0  0
  1  6  2  0
  2  3  2  0
  2  1  1  0
  3  4  1  0
  4  5  2  0
  5  7  1  0
  6  5  1  0
  7 11  1  0
  8  7  1  0
  8  9  2  0
  9 10  1  0
 11 13  1  0
 11 10  2  0
 12  1  1  0
  2 14  1  0
  3 15  1  0
  9 16  1  0
 10 17  1  0
 12 18  1  0
 12 19  1  0
 13 20  1  0
M  ISO  5  14  14  15  14  16  14  17  14  20   3
M  END
>  <minimizedAffinity>  (1) 
-3.99351549

>  <minimizedRMSD>  (1) 
0.538245142

$$$$
