
     RDKit          3D

 22 23  0  0  0  0  0  0  0  0999 V2000
   36.9170   21.8390   33.3780 C   0  0  0  0  0  0  0  0  0  0  0  0
   36.9790   23.0080   32.5800 C   0  0  0  0  0  0  0  0  0  0  0  0
   37.9030   23.9920   32.9090 C   0  0  0  0  0  0  0  0  0  0  0  0
   38.7110   23.7700   34.0020 N   0  0  0  0  0  0  0  0  0  0  0  0
   38.6230   22.6570   34.7290 C   0  0  0  0  0  0  0  0  0  0  0  0
   37.7350   21.6890   34.4300 N   0  0  0  0  0  0  0  0  0  0  0  0
   39.5270   22.5420   35.8410 N   0  0  0  0  0  0  0  0  0  0  0  0
   40.6770   22.0520   35.5050 N   0  0  0  0  0  0  0  0  0  0  0  0
   41.4340   21.9970   36.6510 C   0  0  0  0  0  0  0  0  0  0  0  0
   40.6900   22.4780   37.7090 C   0  0  0  0  0  0  0  0  0  0  0  0
   39.4900   22.8130   37.1610 C   0  0  0  0  0  0  0  0  0  0  0  0
   35.9760   20.8440   33.0330 N   0  0  0  0  0  0  0  0  0  0  0  0
   38.3110   23.3620   37.7520 C   0  0  0  0  0  0  0  0  0  0  0  0
   38.0870   24.5860   37.5590 O   0  0  0  0  0  0  0  0  0  0  0  0
   37.3850   22.6800   38.5190 O   0  0  0  0  0  0  0  0  0  0  0  0
   36.3088   23.1341   31.7169 H   0  0  0  0  0  0  0  0  0  0  0  0
   37.9863   24.9157   32.3175 H   0  0  0  0  0  0  0  0  0  0  0  0
   42.4684   21.6282   36.7146 H   0  0  0  0  0  0  0  0  0  0  0  0
   40.9981   22.5702   38.7609 H   0  0  0  0  0  0  0  0  0  0  0  0
   35.3573   20.9798   32.2208 H   0  0  0  0  0  0  0  0  0  0  0  0
   35.9084   19.9826   33.5936 H   0  0  0  0  0  0  0  0  0  0  0  0
   36.5975   23.1563   38.8839 H   0  0  0  0  0  0  0  0  0  0  0  0
  1  6  2  0
  2  3  2  0
  2  1  1  0
  3  4  1  0
  4  5  2  0
  5  7  1  0
  6  5  1  0
  7 11  1  0
  8  7  1  0
  8  9  2  0
  9 10  1  0
 11 10  2  0
 11 13  1  0
 12  1  1  0
 13 15  1  0
 14 13  2  0
  2 16  1  0
  3 17  1  0
  9 18  1  0
 10 19  1  0
 12 20  1  0
 12 21  1  0
 15 22  1  0
M  ISO  5  16  14  17  14  18  14  19  14  22   3
M  END
>  <minimizedAffinity>  (1) 
-4.27462721

>  <minimizedRMSD>  (1) 
1.52543652

$$$$
