
     RDKit          3D

 21 22  0  0  0  0  0  0  0  0999 V2000
   36.4230   21.3490   33.6480 C   0  0  0  0  0  0  0  0  0  0  0  0
   36.7090   22.1610   32.5430 C   0  0  0  0  0  0  0  0  0  0  0  0
   37.7130   23.1340   32.6740 C   0  0  0  0  0  0  0  0  0  0  0  0
   38.3530   23.2270   33.8850 N   0  0  0  0  0  0  0  0  0  0  0  0
   38.0350   22.4180   34.9110 C   0  0  0  0  0  0  0  0  0  0  0  0
   37.0780   21.4790   34.8110 N   0  0  0  0  0  0  0  0  0  0  0  0
   38.7750   22.6100   36.1260 N   0  0  0  0  0  0  0  0  0  0  0  0
   39.9090   21.9740   36.1400 N   0  0  0  0  0  0  0  0  0  0  0  0
   40.5300   22.2180   37.3230 C   0  0  0  0  0  0  0  0  0  0  0  0
   39.7180   23.0510   38.0640 C   0  0  0  0  0  0  0  0  0  0  0  0
   38.6170   23.2830   37.2860 C   0  0  0  0  0  0  0  0  0  0  0  0
   35.4100   20.3810   33.4820 N   0  0  0  0  0  0  0  0  0  0  0  0
   37.4410   24.0360   37.4590 N   0  0  0  0  0  0  0  0  0  0  0  0
   36.1612   22.0396   31.5969 H   0  0  0  0  0  0  0  0  0  0  0  0
   37.9770   23.7973   31.8371 H   0  0  0  0  0  0  0  0  0  0  0  0
   41.5075   21.8215   37.6349 H   0  0  0  0  0  0  0  0  0  0  0  0
   39.9148   23.4466   39.0713 H   0  0  0  0  0  0  0  0  0  0  0  0
   34.9195   20.2983   32.5801 H   0  0  0  0  0  0  0  0  0  0  0  0
   35.1610   19.7571   34.2628 H   0  0  0  0  0  0  0  0  0  0  0  0
   37.2894   24.5610   38.3321 H   0  0  0  0  0  0  0  0  0  0  0  0
   36.7317   24.0622   36.7126 H   0  0  0  0  0  0  0  0  0  0  0  0
  1  6  2  0
  2  3  2  0
  2  1  1  0
  3  4  1  0
  4  5  2  0
  5  7  1  0
  6  5  1  0
  7  8  1  0
  7 11  1  0
  8  9  2  0
  9 10  1  0
 11 13  1  0
 11 10  2  0
 12  1  1  0
  2 14  1  0
  3 15  1  0
  9 16  1  0
 10 17  1  0
 12 18  1  0
 12 19  1  0
 13 20  1  0
 13 21  1  0
M  ISO  4  14  14  15  14  16  14  17  14
M  END
>  <minimizedAffinity>  (1) 
-3.95001388

>  <minimizedRMSD>  (1) 
0.594844341

$$$$
