
     RDKit          3D

 25 26  0  0  0  0  0  0  0  0999 V2000
   36.4900   21.4010   33.6850 C   0  0  0  0  0  0  0  0  0  0  0  0
   36.7570   22.2590   32.6030 C   0  0  0  0  0  0  0  0  0  0  0  0
   37.7850   23.1820   32.7290 C   0  0  0  0  0  0  0  0  0  0  0  0
   38.4790   23.1990   33.9070 N   0  0  0  0  0  0  0  0  0  0  0  0
   38.1940   22.3640   34.9190 C   0  0  0  0  0  0  0  0  0  0  0  0
   37.2050   21.4710   34.8050 N   0  0  0  0  0  0  0  0  0  0  0  0
   38.9980   22.4850   36.1020 N   0  0  0  0  0  0  0  0  0  0  0  0
   40.1050   21.8170   36.0380 N   0  0  0  0  0  0  0  0  0  0  0  0
   40.7830   22.0050   37.2070 C   0  0  0  0  0  0  0  0  0  0  0  0
   40.0220   22.8360   38.0060 C   0  0  0  0  0  0  0  0  0  0  0  0
   38.8970   23.1300   37.2930 C   0  0  0  0  0  0  0  0  0  0  0  0
   35.4400   20.4640   33.5470 N   0  0  0  0  0  0  0  0  0  0  0  0
   37.6940   23.9500   37.5530 C   0  0  0  0  0  0  0  0  0  0  0  0
   37.8620   24.8070   38.8010 C   0  0  0  0  0  0  0  0  0  0  0  0
   36.1644   22.1996   31.6782 H   0  0  0  0  0  0  0  0  0  0  0  0
   38.0327   23.8748   31.9112 H   0  0  0  0  0  0  0  0  0  0  0  0
   41.7604   21.5724   37.4667 H   0  0  0  0  0  0  0  0  0  0  0  0
   40.2734   23.1903   39.0166 H   0  0  0  0  0  0  0  0  0  0  0  0
   34.8970   20.4240   32.6727 H   0  0  0  0  0  0  0  0  0  0  0  0
   35.2181   19.8215   34.3208 H   0  0  0  0  0  0  0  0  0  0  0  0
   37.5159   24.6074   36.6892 H   0  0  0  0  0  0  0  0  0  0  0  0
   36.8420   23.2725   37.7115 H   0  0  0  0  0  0  0  0  0  0  0  0
   37.7390   24.1795   39.6960 H   0  0  0  0  0  0  0  0  0  0  0  0
   38.8655   25.2574   38.8041 H   0  0  0  0  0  0  0  0  0  0  0  0
   37.1028   25.6030   38.8041 H   0  0  0  0  0  0  0  0  0  0  0  0
  1  6  2  0
  2  3  2  0
  2  1  1  0
  3  4  1  0
  4  5  2  0
  5  7  1  0
  6  5  1  0
  7 11  1  0
  8  7  1  0
  8  9  2  0
  9 10  1  0
 11 13  1  0
 11 10  2  0
 12  1  1  0
 13 14  1  0
  2 15  1  0
  3 16  1  0
  9 17  1  0
 10 18  1  0
 12 19  1  0
 12 20  1  0
 13 21  1  0
 13 22  1  0
 14 23  1  0
 14 24  1  0
 14 25  1  0
M  ISO  8  15  14  16  14  17  14  18  14  21   8  22   8  23   8  24   8
M  ISO  1  25   8
M  END
>  <minimizedAffinity>  (1) 
-4.18498611

>  <minimizedRMSD>  (1) 
0.897725701

$$$$
