
     RDKit          3D

 24 26  0  0  0  0  0  0  0  0999 V2000
   39.0160   22.5390   30.5340 C   0  0  0  0  0  0  0  0  0  0  0  0
   38.3800   23.6680   30.0060 C   0  0  0  0  0  0  0  0  0  0  0  0
   37.4370   24.3200   30.7900 C   0  0  0  0  0  0  0  0  0  0  0  0
   37.1890   23.8100   32.0400 N   0  0  0  0  0  0  0  0  0  0  0  0
   37.8230   22.7240   32.5090 C   0  0  0  0  0  0  0  0  0  0  0  0
   38.7360   22.0780   31.7710 N   0  0  0  0  0  0  0  0  0  0  0  0
   37.4750   22.2950   33.8240 N   0  0  0  0  0  0  0  0  0  0  0  0
   38.1230   22.9130   34.7580 N   0  0  0  0  0  0  0  0  0  0  0  0
   37.7200   22.4330   35.9660 C   0  0  0  0  0  0  0  0  0  0  0  0
   36.7790   21.4750   35.7440 C   0  0  0  0  0  0  0  0  0  0  0  0
   36.6310   21.3950   34.3780 C   0  0  0  0  0  0  0  0  0  0  0  0
   39.9880   21.8640   29.7310 N   0  0  0  0  0  0  0  0  0  0  0  0
   35.8180   20.6070   33.4440 C   0  0  0  0  0  0  0  0  0  0  0  0
   35.7600   19.3130   33.1710 N   0  0  0  0  0  0  0  0  0  0  0  0
   34.8690   19.0760   32.2510 O   0  0  0  0  0  0  0  0  0  0  0  0
   34.3480   20.2480   31.9310 C   0  0  0  0  0  0  0  0  0  0  0  0
   34.9150   21.2510   32.6570 N   0  0  0  0  0  0  0  0  0  0  0  0
   38.6208   24.0300   28.9956 H   0  0  0  0  0  0  0  0  0  0  0  0
   36.9084   25.2121   30.4228 H   0  0  0  0  0  0  0  0  0  0  0  0
   38.0896   22.7614   36.9486 H   0  0  0  0  0  0  0  0  0  0  0  0
   36.2449   20.8843   36.5028 H   0  0  0  0  0  0  0  0  0  0  0  0
   40.2061   22.2110   28.7861 H   0  0  0  0  0  0  0  0  0  0  0  0
   40.4700   21.0308   30.0976 H   0  0  0  0  0  0  0  0  0  0  0  0
   33.5601   20.3939   31.1774 H   0  0  0  0  0  0  0  0  0  0  0  0
  1  6  2  0
  2  1  1  0
  2  3  2  0
  3  4  1  0
  4  5  2  0
  5  7  1  0
  6  5  1  0
  7 11  1  0
  7  8  1  0
  8  9  2  0
 10  9  1  0
 11 10  2  0
 12  1  1  0
 13 11  1  0
 14 13  2  0
 15 14  1  0
 16 15  1  0
 16 17  2  0
 17 13  1  0
  2 18  1  0
  3 19  1  0
  9 20  1  0
 10 21  1  0
 12 22  1  0
 12 23  1  0
 16 24  1  0
M  ISO  5  18  14  19  14  20  14  21  14  24  14
M  END
>  <minimizedAffinity>  (1) 
-3.69456816

>  <minimizedRMSD>  (1) 
4.66209793

$$$$
