
     RDKit          3D

 26 28  0  0  0  0  0  0  0  0999 V2000
   40.4500   22.3660   35.0710 C   0  0  0  0  0  0  0  0  0  0  0  0
   40.2150   23.3210   36.0860 C   0  0  0  0  0  0  0  0  0  0  0  0
   38.9200   23.8080   36.2610 C   0  0  0  0  0  0  0  0  0  0  0  0
   37.9590   23.3150   35.4230 N   0  0  0  0  0  0  0  0  0  0  0  0
   38.2100   22.4150   34.4730 C   0  0  0  0  0  0  0  0  0  0  0  0
   39.4520   21.9320   34.2870 N   0  0  0  0  0  0  0  0  0  0  0  0
   37.1040   21.9950   33.6740 N   0  0  0  0  0  0  0  0  0  0  0  0
   36.4170   21.0290   34.1860 N   0  0  0  0  0  0  0  0  0  0  0  0
   35.3990   20.7140   33.3480 C   0  0  0  0  0  0  0  0  0  0  0  0
   35.4700   21.5360   32.2640 C   0  0  0  0  0  0  0  0  0  0  0  0
   36.5590   22.3430   32.4880 C   0  0  0  0  0  0  0  0  0  0  0  0
   41.7680   21.8760   34.9000 N   0  0  0  0  0  0  0  0  0  0  0  0
   37.1670   23.3970   31.7500 N   0  0  0  0  0  0  0  0  0  0  0  0
   37.9480   22.9680   30.7180 C   0  0  0  0  0  0  0  0  0  0  0  0
   38.4790   24.0630   30.0780 C   0  0  0  0  0  0  0  0  0  0  0  0
   38.0110   25.1540   30.7370 N   0  0  0  0  0  0  0  0  0  0  0  0
   37.2140   24.7520   31.7520 C   0  0  0  0  0  0  0  0  0  0  0  0
   41.0377   23.6733   36.7256 H   0  0  0  0  0  0  0  0  0  0  0  0
   38.6834   24.5524   37.0355 H   0  0  0  0  0  0  0  0  0  0  0  0
   34.6457   19.9300   33.5146 H   0  0  0  0  0  0  0  0  0  0  0  0
   34.7976   21.5505   31.3935 H   0  0  0  0  0  0  0  0  0  0  0  0
   41.9676   21.1795   34.1679 H   0  0  0  0  0  0  0  0  0  0  0  0
   42.5268   22.2162   35.5077 H   0  0  0  0  0  0  0  0  0  0  0  0
   38.1244   21.9178   30.4425 H   0  0  0  0  0  0  0  0  0  0  0  0
   39.1494   24.0564   29.2059 H   0  0  0  0  0  0  0  0  0  0  0  0
   36.6918   25.4125   32.4599 H   0  0  0  0  0  0  0  0  0  0  0  0
  1  2  2  0
  2  3  1  0
  4  3  2  0
  5  4  1  0
  6  5  2  0
  6  1  1  0
  7  8  1  0
  7  5  1  0
  9  8  2  0
 10 11  2  0
 10  9  1  0
 11  7  1  0
 12  1  1  0
 13 17  1  0
 13 11  1  0
 14 13  1  0
 15 14  2  0
 15 16  1  0
 16 17  2  0
  2 18  1  0
  3 19  1  0
  9 20  1  0
 10 21  1  0
 12 22  1  0
 12 23  1  0
 14 24  1  0
 15 25  1  0
 17 26  1  0
M  ISO  7  18  14  19  14  20  14  21  14  24  14  25  14  26  14
M  END
>  <minimizedAffinity>  (1) 
-3.92236662

>  <minimizedRMSD>  (1) 
5.42279577

$$$$
