
     RDKit          3D

 27 29  0  0  0  0  0  0  0  0999 V2000
   37.8340   24.8810   31.5410 C   0  0  0  0  0  0  0  0  0  0  0  0
   37.0460   25.9630   31.9300 C   0  0  0  0  0  0  0  0  0  0  0  0
   36.9210   26.2280   33.2840 C   0  0  0  0  0  0  0  0  0  0  0  0
   37.5860   25.4050   34.1510 N   0  0  0  0  0  0  0  0  0  0  0  0
   38.3340   24.3760   33.7340 C   0  0  0  0  0  0  0  0  0  0  0  0
   38.4720   24.0960   32.4300 N   0  0  0  0  0  0  0  0  0  0  0  0
   38.9760   23.5940   34.7440 N   0  0  0  0  0  0  0  0  0  0  0  0
   40.1080   24.0840   35.1350 N   0  0  0  0  0  0  0  0  0  0  0  0
   40.6390   23.2680   36.0960 C   0  0  0  0  0  0  0  0  0  0  0  0
   39.7700   22.2410   36.2800 C   0  0  0  0  0  0  0  0  0  0  0  0
   38.7250   22.4570   35.4210 C   0  0  0  0  0  0  0  0  0  0  0  0
   37.9660   24.6010   30.1390 N   0  0  0  0  0  0  0  0  0  0  0  0
   37.4710   21.7760   35.0890 C   0  0  0  0  0  0  0  0  0  0  0  0
   36.3960   21.4580   35.8020 N   0  0  0  0  0  0  0  0  0  0  0  0
   35.5170   20.8410   35.0520 O   0  0  0  0  0  0  0  0  0  0  0  0
   36.0430   20.7690   33.8510 C   0  0  0  0  0  0  0  0  0  0  0  0
   37.2680   21.3400   33.8190 N   0  0  0  0  0  0  0  0  0  0  0  0
   35.3390   20.1270   32.7010 C   0  0  0  0  0  0  0  0  0  0  0  0
   35.0440   18.7860   32.9710 F   0  0  0  0  0  0  0  0  0  0  0  0
   34.2060   20.8240   32.3480 F   0  0  0  0  0  0  0  0  0  0  0  0
   36.1490   20.0940   31.5780 F   0  0  0  0  0  0  0  0  0  0  0  0
   36.5373   26.5893   31.1823 H   0  0  0  0  0  0  0  0  0  0  0  0
   36.3106   27.0677   33.6478 H   0  0  0  0  0  0  0  0  0  0  0  0
   41.5934   23.4164   36.6223 H   0  0  0  0  0  0  0  0  0  0  0  0
   39.8829   21.4008   36.9810 H   0  0  0  0  0  0  0  0  0  0  0  0
   38.5423   23.8074   29.8243 H   0  0  0  0  0  0  0  0  0  0  0  0
   37.4844   25.1937   29.4479 H   0  0  0  0  0  0  0  0  0  0  0  0
  1  2  2  0
  1  6  1  0
  2  3  1  0
  3  4  2  0
  5  4  1  0
  5  7  1  0
  6  5  2  0
  7  8  1  0
  7 11  1  0
  8  9  2  0
  9 10  1  0
 11 10  2  0
 12  1  1  0
 13 11  1  0
 13 14  2  0
 15 14  1  0
 16 15  1  0
 17 16  2  0
 17 13  1  0
 18 19  1  0
 18 16  1  0
 20 18  1  0
 21 18  1  0
  2 22  1  0
  3 23  1  0
  9 24  1  0
 10 25  1  0
 12 26  1  0
 12 27  1  0
M  ISO  4  22  14  23  14  24  14  25  14
M  END
>  <minimizedAffinity>  (1) 
-5.18019915

>  <minimizedRMSD>  (1) 
2.84527111

$$$$
