
     RDKit          3D

 27 29  0  0  0  0  0  0  0  0999 V2000
   36.7920   22.0450   31.1610 C   0  0  0  0  0  0  0  0  0  0  0  0
   35.6110   22.7780   31.2240 C   0  0  0  0  0  0  0  0  0  0  0  0
   35.6670   24.0730   31.7000 C   0  0  0  0  0  0  0  0  0  0  0  0
   36.8840   24.5600   32.0850 N   0  0  0  0  0  0  0  0  0  0  0  0
   37.9990   23.8260   32.0110 C   0  0  0  0  0  0  0  0  0  0  0  0
   37.9820   22.5590   31.5510 N   0  0  0  0  0  0  0  0  0  0  0  0
   39.2100   24.4440   32.4400 N   0  0  0  0  0  0  0  0  0  0  0  0
   39.7810   25.1630   31.5340 N   0  0  0  0  0  0  0  0  0  0  0  0
   40.9280   25.7040   32.0520 C   0  0  0  0  0  0  0  0  0  0  0  0
   41.0380   25.2800   33.3340 C   0  0  0  0  0  0  0  0  0  0  0  0
   39.9460   24.4840   33.5720 C   0  0  0  0  0  0  0  0  0  0  0  0
   36.7480   20.7020   30.6690 N   0  0  0  0  0  0  0  0  0  0  0  0
   39.4370   23.7160   34.7120 C   0  0  0  0  0  0  0  0  0  0  0  0
   39.0900   22.4450   34.8690 N   0  0  0  0  0  0  0  0  0  0  0  0
   38.6860   22.2250   36.0960 O   0  0  0  0  0  0  0  0  0  0  0  0
   38.7820   23.3770   36.7160 C   0  0  0  0  0  0  0  0  0  0  0  0
   39.2460   24.3570   35.9080 N   0  0  0  0  0  0  0  0  0  0  0  0
   38.4150   23.5360   38.1230 C   0  0  0  0  0  0  0  0  0  0  0  0
   37.9420   24.6190   38.5260 O   0  0  0  0  0  0  0  0  0  0  0  0
   38.5680   22.5230   39.0590 O   0  0  0  0  0  0  0  0  0  0  0  0
   34.6561   22.3367   30.9025 H   0  0  0  0  0  0  0  0  0  0  0  0
   34.7607   24.6927   31.7671 H   0  0  0  0  0  0  0  0  0  0  0  0
   41.6320   26.3631   31.5230 H   0  0  0  0  0  0  0  0  0  0  0  0
   41.8426   25.5251   34.0430 H   0  0  0  0  0  0  0  0  0  0  0  0
   37.6125   20.1446   30.6154 H   0  0  0  0  0  0  0  0  0  0  0  0
   35.8518   20.2927   30.3685 H   0  0  0  0  0  0  0  0  0  0  0  0
   38.3057   22.6760   40.0013 H   0  0  0  0  0  0  0  0  0  0  0  0
  1  2  2  0
  1  6  1  0
  2  3  1  0
  3  4  2  0
  5  4  1  0
  5  7  1  0
  6  5  2  0
  7 11  1  0
  8  9  2  0
  8  7  1  0
  9 10  1  0
 10 11  2  0
 11 13  1  0
 12  1  1  0
 13 14  2  0
 13 17  1  0
 14 15  1  0
 15 16  1  0
 16 18  1  0
 17 16  2  0
 18 19  2  0
 18 20  1  0
  2 21  1  0
  3 22  1  0
  9 23  1  0
 10 24  1  0
 12 25  1  0
 12 26  1  0
 20 27  1  0
M  ISO  5  21  14  22  14  23  14  24  14  27   3
M  END
>  <minimizedAffinity>  (1) 
-4.96768379

>  <minimizedRMSD>  (1) 
5.67499542

$$$$
