
     RDKit          3D

 37 40  0  0  0  0  0  0  0  0999 V2000
   42.1660   24.3380   32.5450 C   0  0  0  0  0  0  0  0  0  0  0  0
   41.6870   24.5050   31.2460 C   0  0  0  0  0  0  0  0  0  0  0  0
   40.4530   25.1050   31.0810 C   0  0  0  0  0  0  0  0  0  0  0  0
   39.7800   25.5000   32.2040 N   0  0  0  0  0  0  0  0  0  0  0  0
   40.2830   25.3180   33.4400 C   0  0  0  0  0  0  0  0  0  0  0  0
   41.4670   24.7430   33.6310 N   0  0  0  0  0  0  0  0  0  0  0  0
   39.4780   25.7750   34.5220 N   0  0  0  0  0  0  0  0  0  0  0  0
   39.6290   27.0390   34.7870 N   0  0  0  0  0  0  0  0  0  0  0  0
   38.8200   27.3690   35.8310 C   0  0  0  0  0  0  0  0  0  0  0  0
   38.1500   26.2450   36.2130 C   0  0  0  0  0  0  0  0  0  0  0  0
   38.5710   25.2390   35.3800 C   0  0  0  0  0  0  0  0  0  0  0  0
   43.4430   23.7180   32.7310 N   0  0  0  0  0  0  0  0  0  0  0  0
   38.2890   23.8180   35.2140 C   0  0  0  0  0  0  0  0  0  0  0  0
   38.5630   22.7480   35.9450 N   0  0  0  0  0  0  0  0  0  0  0  0
   38.1010   21.6730   35.3830 O   0  0  0  0  0  0  0  0  0  0  0  0
   37.5160   22.0530   34.2640 C   0  0  0  0  0  0  0  0  0  0  0  0
   37.6080   23.4080   34.1080 N   0  0  0  0  0  0  0  0  0  0  0  0
   36.8490   21.1350   33.3000 C   0  0  0  0  0  0  0  0  0  0  0  0
   35.6310   20.4740   33.9010 C   0  0  0  0  0  0  0  0  0  0  0  0
   35.0420   19.8210   32.6430 C   0  0  0  0  0  0  0  0  0  0  0  0
   35.3840   20.7820   31.5130 C   0  0  0  0  0  0  0  0  0  0  0  0
   36.2680   21.8490   32.1250 C   0  0  0  0  0  0  0  0  0  0  0  0
   42.2739   24.1691   30.3784 H   0  0  0  0  0  0  0  0  0  0  0  0
   40.0261   25.2598   30.0791 H   0  0  0  0  0  0  0  0  0  0  0  0
   38.7240   28.3660   36.2857 H   0  0  0  0  0  0  0  0  0  0  0  0
   37.4164   26.1609   37.0283 H   0  0  0  0  0  0  0  0  0  0  0  0
   43.9870   23.4044   31.9146 H   0  0  0  0  0  0  0  0  0  0  0  0
   43.8177   23.5856   33.6813 H   0  0  0  0  0  0  0  0  0  0  0  0
   37.6487   20.4319   33.0239 H   0  0  0  0  0  0  0  0  0  0  0  0
   35.9039   19.7266   34.6605 H   0  0  0  0  0  0  0  0  0  0  0  0
   34.9498   21.1518   34.4363 H   0  0  0  0  0  0  0  0  0  0  0  0
   35.4994   18.8363   32.4666 H   0  0  0  0  0  0  0  0  0  0  0  0
   33.9589   19.6502   32.7308 H   0  0  0  0  0  0  0  0  0  0  0  0
   34.4677   21.2330   31.1044 H   0  0  0  0  0  0  0  0  0  0  0  0
   35.8909   20.2655   30.6846 H   0  0  0  0  0  0  0  0  0  0  0  0
   37.0527   22.1685   31.4235 H   0  0  0  0  0  0  0  0  0  0  0  0
   35.7310   22.7722   32.3884 H   0  0  0  0  0  0  0  0  0  0  0  0
  1 12  1  0
  1  6  2  0
  2  1  1  0
  3  2  2  0
  3  4  1  0
  4  5  2  0
  5  6  1  0
  5  7  1  0
  7  8  1  0
  7 11  1  0
  8  9  2  0
  9 10  1  0
 11 10  2  0
 13 11  1  0
 13 14  2  0
 15 14  1  0
 16 15  1  0
 17 16  2  0
 17 13  1  0
 18 19  1  0
 18 16  1  0
 20 19  1  0
 21 22  1  0
 21 20  1  0
 22 18  1  0
  2 23  1  0
  3 24  1  0
  9 25  1  0
 10 26  1  0
 12 27  1  0
 12 28  1  0
 18 29  1  0
 19 30  1  0
 19 31  1  0
 20 32  1  0
 20 33  1  0
 21 34  1  0
 21 35  1  0
 22 36  1  0
 22 37  1  0
M  ISO  8  23  14  24  14  25  14  26  14  29  13  30  13  31  13  32  13
M  ISO  5  33  13  34  13  35  13  36  13  37  13
M  END
>  <minimizedAffinity>  (1) 
-4.89366913

>  <minimizedRMSD>  (1) 
4.29889154

$$$$
