
     RDKit          3D

 31 34  0  0  0  0  0  0  0  0999 V2000
   38.9840   25.5040   30.3100 C   0  0  0  0  0  0  0  0  0  0  0  0
   37.9370   26.3000   30.8010 C   0  0  0  0  0  0  0  0  0  0  0  0
   38.2250   27.2370   31.7740 C   0  0  0  0  0  0  0  0  0  0  0  0
   39.5210   27.3260   32.1950 N   0  0  0  0  0  0  0  0  0  0  0  0
   40.4950   26.5510   31.7040 C   0  0  0  0  0  0  0  0  0  0  0  0
   40.2470   25.6340   30.7610 N   0  0  0  0  0  0  0  0  0  0  0  0
   41.8090   26.7520   32.2370 N   0  0  0  0  0  0  0  0  0  0  0  0
   42.4630   27.7100   31.6620 N   0  0  0  0  0  0  0  0  0  0  0  0
   43.6860   27.8170   32.2350 C   0  0  0  0  0  0  0  0  0  0  0  0
   43.7730   26.8720   33.2060 C   0  0  0  0  0  0  0  0  0  0  0  0
   42.5810   26.2040   33.2000 C   0  0  0  0  0  0  0  0  0  0  0  0
   38.7080   24.5250   29.2990 N   0  0  0  0  0  0  0  0  0  0  0  0
   41.9770   25.0960   33.9510 C   0  0  0  0  0  0  0  0  0  0  0  0
   42.2010   23.7820   33.9560 N   0  0  0  0  0  0  0  0  0  0  0  0
   41.4000   23.1870   34.8080 O   0  0  0  0  0  0  0  0  0  0  0  0
   40.6740   24.1370   35.3340 C   0  0  0  0  0  0  0  0  0  0  0  0
   40.9760   25.3590   34.8490 N   0  0  0  0  0  0  0  0  0  0  0  0
   39.6500   23.9110   36.3340 C   0  0  0  0  0  0  0  0  0  0  0  0
   38.3740   24.5020   36.4340 C   0  0  0  0  0  0  0  0  0  0  0  0
   37.6070   24.1110   37.4760 C   0  0  0  0  0  0  0  0  0  0  0  0
   38.0480   23.1780   38.4000 C   0  0  0  0  0  0  0  0  0  0  0  0
   39.7560   22.8050   37.7180 S   0  0  0  0  0  0  0  0  0  0  0  0
   36.9120   26.1803   30.4200 H   0  0  0  0  0  0  0  0  0  0  0  0
   37.4417   27.8857   32.1931 H   0  0  0  0  0  0  0  0  0  0  0  0
   44.4686   28.5403   31.9623 H   0  0  0  0  0  0  0  0  0  0  0  0
   44.6321   26.6820   33.8662 H   0  0  0  0  0  0  0  0  0  0  0  0
   37.7489   24.4104   28.9413 H   0  0  0  0  0  0  0  0  0  0  0  0
   39.4688   23.9365   28.9306 H   0  0  0  0  0  0  0  0  0  0  0  0
   38.0208   25.2431   35.7018 H   0  0  0  0  0  0  0  0  0  0  0  0
   36.6036   24.5463   37.5936 H   0  0  0  0  0  0  0  0  0  0  0  0
   37.5393   22.7699   39.2858 H   0  0  0  0  0  0  0  0  0  0  0  0
  1  6  2  0
  1  2  1  0
  2  3  2  0
  3  4  1  0
  5  4  2  0
  5  7  1  0
  6  5  1  0
  7 11  1  0
  8  9  2  0
  8  7  1  0
  9 10  1  0
 11 10  2  0
 11 13  1  0
 12  1  1  0
 13 14  2  0
 13 17  1  0
 14 15  1  0
 15 16  1  0
 16 18  1  0
 17 16  2  0
 18 19  2  0
 18 22  1  0
 19 20  1  0
 20 21  2  0
 22 21  1  0
  2 23  1  0
  3 24  1  0
  9 25  1  0
 10 26  1  0
 12 27  1  0
 12 28  1  0
 19 29  1  0
 20 30  1  0
 21 31  1  0
M  ISO  7  23  14  24  14  25  14  26  14  29  14  30  14  31  14
M  END
>  <minimizedAffinity>  (1) 
-4.17273092

>  <minimizedRMSD>  (1) 
7.51843119

$$$$
