
     RDKit          3D

 36 38  0  0  0  0  0  0  0  0999 V2000
   40.7790   22.9630   34.3590 C   0  0  0  0  0  0  0  0  0  0  0  0
   40.6200   24.3420   34.2090 C   0  0  0  0  0  0  0  0  0  0  0  0
   39.3380   24.8720   34.2700 C   0  0  0  0  0  0  0  0  0  0  0  0
   38.3080   23.9900   34.4730 N   0  0  0  0  0  0  0  0  0  0  0  0
   38.5060   22.6720   34.6120 C   0  0  0  0  0  0  0  0  0  0  0  0
   39.7320   22.1380   34.5580 N   0  0  0  0  0  0  0  0  0  0  0  0
   37.3380   21.8700   34.8190 N   0  0  0  0  0  0  0  0  0  0  0  0
   36.9620   21.8190   36.0630 N   0  0  0  0  0  0  0  0  0  0  0  0
   35.8540   21.0370   36.1520 C   0  0  0  0  0  0  0  0  0  0  0  0
   35.5500   20.6020   34.9040 C   0  0  0  0  0  0  0  0  0  0  0  0
   36.5040   21.1400   34.0640 C   0  0  0  0  0  0  0  0  0  0  0  0
   42.1070   22.4090   34.2980 N   0  0  0  0  0  0  0  0  0  0  0  0
   36.7910   21.0950   32.6320 C   0  0  0  0  0  0  0  0  0  0  0  0
   36.6930   21.9930   31.6630 N   0  0  0  0  0  0  0  0  0  0  0  0
   37.0720   21.4790   30.5270 O   0  0  0  0  0  0  0  0  0  0  0  0
   37.4170   20.2380   30.7770 C   0  0  0  0  0  0  0  0  0  0  0  0
   37.2600   19.9350   32.0940 N   0  0  0  0  0  0  0  0  0  0  0  0
   37.9000   19.3850   29.6580 C   0  0  0  0  0  0  0  0  0  0  0  0
   38.8330   20.1390   28.7310 C   0  0  0  0  0  0  0  0  0  0  0  0
   36.7550   18.8670   28.8160 C   0  0  0  0  0  0  0  0  0  0  0  0
   38.6430   18.1810   30.1870 C   0  0  0  0  0  0  0  0  0  0  0  0
   41.4908   24.9940   34.0461 H   0  0  0  0  0  0  0  0  0  0  0  0
   39.1568   25.9514   34.1603 H   0  0  0  0  0  0  0  0  0  0  0  0
   35.3017   20.7991   37.0731 H   0  0  0  0  0  0  0  0  0  0  0  0
   34.7109   19.9506   34.6183 H   0  0  0  0  0  0  0  0  0  0  0  0
   42.9166   23.0275   34.1465 H   0  0  0  0  0  0  0  0  0  0  0  0
   42.2472   21.3943   34.4059 H   0  0  0  0  0  0  0  0  0  0  0  0
   39.5519   20.7200   29.3274 H   0  0  0  0  0  0  0  0  0  0  0  0
   39.3766   19.4235   28.0965 H   0  0  0  0  0  0  0  0  0  0  0  0
   38.2475   20.8206   28.0965 H   0  0  0  0  0  0  0  0  0  0  0  0
   35.9515   18.5035   29.4735 H   0  0  0  0  0  0  0  0  0  0  0  0
   36.3702   19.6787   28.1811 H   0  0  0  0  0  0  0  0  0  0  0  0
   37.1106   18.0421   28.1811 H   0  0  0  0  0  0  0  0  0  0  0  0
   38.6326   18.1978   31.2868 H   0  0  0  0  0  0  0  0  0  0  0  0
   38.1544   17.2625   29.8297 H   0  0  0  0  0  0  0  0  0  0  0  0
   39.6831   18.2059   29.8297 H   0  0  0  0  0  0  0  0  0  0  0  0
  1  6  2  0
  2  3  2  0
  2  1  1  0
  3  4  1  0
  4  5  2  0
  5  7  1  0
  6  5  1  0
  7  8  1  0
  8  9  2  0
 10  9  1  0
 11  7  1  0
 11 10  2  0
 12  1  1  0
 13 11  1  0
 14 13  2  0
 15 16  1  0
 15 14  1  0
 16 17  2  0
 17 13  1  0
 18 21  1  0
 18 16  1  0
 19 18  1  0
 20 18  1  0
  2 22  1  0
  3 23  1  0
  9 24  1  0
 10 25  1  0
 12 26  1  0
 12 27  1  0
 19 28  1  0
 19 29  1  0
 19 30  1  0
 20 31  1  0
 20 32  1  0
 20 33  1  0
 21 34  1  0
 21 35  1  0
 21 36  1  0
M  ISO  8  22  14  23  14  24  14  25  14  28   8  29   8  30   8  31   8
M  ISO  5  32   8  33   8  34   8  35   8  36   8
M  END
>  <minimizedAffinity>  (1) 
-4.06966209

>  <minimizedRMSD>  (1) 
3.71465826

$$$$
