
     RDKit          3D

 38 42  0  0  1  0  0  0  0  0999 V2000
   37.6200   26.7240   34.8920 C   0  0  0  0  0  0  0  0  0  0  0  0
   38.9390   26.5880   35.0240 N   0  0  0  0  0  0  0  0  0  0  0  0
   39.2270   25.6760   35.9100 O   0  0  0  0  0  0  0  0  0  0  0  0
   38.0450   25.2250   36.3480 C   0  0  0  0  0  0  0  0  0  0  0  0
   37.0160   25.8410   35.7510 N   0  0  0  0  0  0  0  0  0  0  0  0
   38.5340   25.0150   30.5760 C   0  0  0  0  0  0  0  0  0  0  0  0
   37.6470   23.9250   30.4420 C   0  0  0  0  0  0  0  0  0  0  0  0
   36.4300   23.9680   31.1040 C   0  0  0  0  0  0  0  0  0  0  0  0
   36.1590   25.0730   31.8550 N   0  0  0  0  0  0  0  0  0  0  0  0
   37.0370   26.0900   31.9550 C   0  0  0  0  0  0  0  0  0  0  0  0
   38.2100   26.0740   31.3290 N   0  0  0  0  0  0  0  0  0  0  0  0
   36.6310   27.1880   32.7710 N   0  0  0  0  0  0  0  0  0  0  0  0
   35.8880   28.0610   32.1540 N   0  0  0  0  0  0  0  0  0  0  0  0
   35.5590   29.0570   33.0130 C   0  0  0  0  0  0  0  0  0  0  0  0
   36.1290   28.7750   34.2080 C   0  0  0  0  0  0  0  0  0  0  0  0
   36.8100   27.5880   34.0540 C   0  0  0  0  0  0  0  0  0  0  0  0
   39.7900   24.9800   29.8960 N   0  0  0  0  0  0  0  0  0  0  0  0
   37.8660   24.1510   37.3920 C   0  0  2  0  0  0  0  0  0  0  0  0
   39.0540   23.3940   37.8810 C   0  0  0  0  0  0  0  0  0  0  0  0
   38.0180   22.7240   36.9940 C   0  0  2  0  0  0  0  0  0  0  0  0
   38.4870   22.4140   35.6570 N   0  0  0  0  0  0  0  0  0  0  0  0
   37.6220   22.2290   34.6450 N   0  0  0  0  0  0  0  0  0  0  0  0
   38.3370   21.9580   33.5350 C   0  0  0  0  0  0  0  0  0  0  0  0
   39.6870   21.9750   33.8760 C   0  0  0  0  0  0  0  0  0  0  0  0
   39.7600   22.2700   35.2420 C   0  0  0  0  0  0  0  0  0  0  0  0
   37.9170   23.0567   29.8230 H   0  0  0  0  0  0  0  0  0  0  0  0
   35.7092   23.1407   31.0262 H   0  0  0  0  0  0  0  0  0  0  0  0
   34.9401   29.9362   32.7807 H   0  0  0  0  0  0  0  0  0  0  0  0
   36.0613   29.3780   35.1255 H   0  0  0  0  0  0  0  0  0  0  0  0
   40.0395   24.1657   29.3168 H   0  0  0  0  0  0  0  0  0  0  0  0
   40.4460   25.7691   29.9850 H   0  0  0  0  0  0  0  0  0  0  0  0
   37.0751   24.7371   37.8829 H   0  0  0  0  0  0  0  0  0  0  0  0
   40.0548   23.6219   37.4855 H   0  0  0  0  0  0  0  0  0  0  0  0
   39.4947   23.1817   38.8662 H   0  0  0  0  0  0  0  0  0  0  0  0
   37.3521   21.8500   37.0462 H   0  0  0  0  0  0  0  0  0  0  0  0
   37.9259   21.7583   32.5345 H   0  0  0  0  0  0  0  0  0  0  0  0
   40.5351   21.7914   33.1999 H   0  0  0  0  0  0  0  0  0  0  0  0
   40.6706   22.3648   35.8518 H   0  0  0  0  0  0  0  0  0  0  0  0
  1  2  2  0
  1  5  1  0
  2  3  1  0
  3  4  1  0
  4 18  1  0
  5  4  2  0
  6 11  2  0
  7  6  1  0
  7  8  2  0
  8  9  1  0
  9 10  2  0
 10 12  1  0
 11 10  1  0
 12 16  1  0
 13 12  1  0
 13 14  2  0
 14 15  1  0
 16 15  2  0
 16  1  1  0
 17  6  1  0
 18 19  1  0
 20 18  1  0
 20 19  1  0
 21 20  1  0
 22 21  1  0
 23 24  1  0
 23 22  2  0
 24 25  2  0
 25 21  1  0
  7 26  1  0
  8 27  1  0
 14 28  1  0
 15 29  1  0
 17 30  1  0
 17 31  1  0
 18 32  1  1
 19 33  1  0
 19 34  1  0
 20 35  1  1
 23 36  1  0
 24 37  1  0
 25 38  1  0
M  ISO  8  26  14  27  14  28  14  29  14  32  13  33  13  34  13  35  13
M  ISO  3  36  14  37  14  38  14
M  END
>  <minimizedAffinity>  (1) 
-5.40777636

>  <minimizedRMSD>  (1) 
3.49154162

$$$$
