
     RDKit          3D

 38 42  0  0  1  0  0  0  0  0999 V2000
   36.3630   25.1510   31.4490 C   0  0  0  0  0  0  0  0  0  0  0  0
   35.4750   26.2350   31.2780 C   0  0  0  0  0  0  0  0  0  0  0  0
   35.9350   27.5210   31.5220 C   0  0  0  0  0  0  0  0  0  0  0  0
   37.2370   27.6680   31.9180 N   0  0  0  0  0  0  0  0  0  0  0  0
   38.0450   26.6010   32.0670 C   0  0  0  0  0  0  0  0  0  0  0  0
   37.6310   25.3470   31.8400 N   0  0  0  0  0  0  0  0  0  0  0  0
   39.3840   26.8890   32.4860 N   0  0  0  0  0  0  0  0  0  0  0  0
   40.1810   27.2060   31.5080 N   0  0  0  0  0  0  0  0  0  0  0  0
   41.4230   27.4590   32.0170 C   0  0  0  0  0  0  0  0  0  0  0  0
   41.3710   27.2860   33.3620 C   0  0  0  0  0  0  0  0  0  0  0  0
   40.0630   26.9220   33.6440 C   0  0  0  0  0  0  0  0  0  0  0  0
   39.3150   26.5900   34.8510 C   0  0  0  0  0  0  0  0  0  0  0  0
   38.9450   27.3040   35.9120 N   0  0  0  0  0  0  0  0  0  0  0  0
   38.2800   26.5720   36.7450 O   0  0  0  0  0  0  0  0  0  0  0  0
   38.2220   25.3560   36.2000 C   0  0  0  0  0  0  0  0  0  0  0  0
   38.8510   25.3090   35.0170 N   0  0  0  0  0  0  0  0  0  0  0  0
   37.5440   24.1820   36.8150 C   0  0  2  0  0  0  0  0  0  0  0  0
   37.9310   23.6810   38.1610 C   0  0  0  0  0  0  0  0  0  0  0  0
   38.2380   22.8740   36.9220 C   0  0  2  0  0  0  0  0  0  0  0  0
   39.6630   22.8300   36.5790 C   0  0  0  0  0  0  0  0  0  0  0  0
   40.9100   23.1140   37.2380 C   0  0  0  0  0  0  0  0  0  0  0  0
   42.0530   22.9380   36.5240 C   0  0  0  0  0  0  0  0  0  0  0  0
   42.0650   22.5010   35.2040 C   0  0  0  0  0  0  0  0  0  0  0  0
   40.2100   22.2880   34.8560 S   0  0  0  0  0  0  0  0  0  0  0  0
   35.8990   23.8270   31.2040 N   0  0  0  0  0  0  0  0  0  0  0  0
   34.4370   26.0632   30.9571 H   0  0  0  0  0  0  0  0  0  0  0  0
   35.2756   28.3931   31.4013 H   0  0  0  0  0  0  0  0  0  0  0  0
   42.3109   27.7520   31.4375 H   0  0  0  0  0  0  0  0  0  0  0  0
   42.1955   27.4090   34.0797 H   0  0  0  0  0  0  0  0  0  0  0  0
   36.6003   24.5244   36.3652 H   0  0  0  0  0  0  0  0  0  0  0  0
   38.7450   24.1680   38.7180 H   0  0  0  0  0  0  0  0  0  0  0  0
   37.4014   23.4909   39.1062 H   0  0  0  0  0  0  0  0  0  0  0  0
   38.0184   21.8635   36.5468 H   0  0  0  0  0  0  0  0  0  0  0  0
   40.9373   23.4609   38.2815 H   0  0  0  0  0  0  0  0  0  0  0  0
   43.0145   23.1515   37.0138 H   0  0  0  0  0  0  0  0  0  0  0  0
   42.9222   22.3251   34.5375 H   0  0  0  0  0  0  0  0  0  0  0  0
   34.9265   23.6695   30.9035 H   0  0  0  0  0  0  0  0  0  0  0  0
   36.5359   23.0270   31.3273 H   0  0  0  0  0  0  0  0  0  0  0  0
  1  6  2  0
  2  1  1  0
  2  3  2  0
  3  4  1  0
  4  5  2  0
  5  7  1  0
  6  5  1  0
  7 11  1  0
  8  9  2  0
  8  7  1  0
  9 10  1  0
 10 11  2  0
 11 12  1  0
 12 16  1  0
 12 13  2  0
 13 14  1  0
 15 14  1  0
 15 17  1  0
 16 15  2  0
 17 19  1  0
 17 18  1  0
 19 18  1  0
 20 19  1  0
 20 21  2  0
 22 21  1  0
 23 22  2  0
 24 23  1  0
 24 20  1  0
 25  1  1  0
  2 26  1  0
  3 27  1  0
  9 28  1  0
 10 29  1  0
 17 30  1  1
 18 31  1  0
 18 32  1  0
 19 33  1  1
 21 34  1  0
 22 35  1  0
 23 36  1  0
 25 37  1  0
 25 38  1  0
M  ISO  8  26  14  27  14  28  14  29  14  30  13  31  13  32  13  33  13
M  ISO  3  34  14  35  14  36  14
M  END
>  <minimizedAffinity>  (1) 
-5.90351486

>  <minimizedRMSD>  (1) 
2.17791796

$$$$
