
     RDKit          3D

 44 48  0  0  1  0  0  0  0  0999 V2000
   37.4410   25.7830   32.0350 C   0  0  0  0  0  0  0  0  0  0  0  0
   36.6780   26.7480   32.7290 C   0  0  0  0  0  0  0  0  0  0  0  0
   37.1610   27.2540   33.9250 C   0  0  0  0  0  0  0  0  0  0  0  0
   38.3670   26.7860   34.3720 N   0  0  0  0  0  0  0  0  0  0  0  0
   39.0580   25.8660   33.6750 C   0  0  0  0  0  0  0  0  0  0  0  0
   38.6180   25.3640   32.5270 N   0  0  0  0  0  0  0  0  0  0  0  0
   40.3050   25.4600   34.2530 N   0  0  0  0  0  0  0  0  0  0  0  0
   41.3070   26.2470   33.9660 N   0  0  0  0  0  0  0  0  0  0  0  0
   42.4270   25.7810   34.5540 C   0  0  0  0  0  0  0  0  0  0  0  0
   42.0970   24.6570   35.2320 C   0  0  0  0  0  0  0  0  0  0  0  0
   40.7490   24.4580   35.0370 C   0  0  0  0  0  0  0  0  0  0  0  0
   39.7610   23.4760   35.4580 C   0  0  0  0  0  0  0  0  0  0  0  0
   39.7700   22.5410   36.4080 N   0  0  0  0  0  0  0  0  0  0  0  0
   38.6480   21.8870   36.4210 O   0  0  0  0  0  0  0  0  0  0  0  0
   37.9060   22.4260   35.4440 C   0  0  0  0  0  0  0  0  0  0  0  0
   38.5540   23.4170   34.8180 N   0  0  0  0  0  0  0  0  0  0  0  0
   36.5040   21.9950   35.0710 C   0  0  2  0  0  0  0  0  0  0  0  0
   35.8610   20.8800   35.8380 C   0  0  0  0  0  0  0  0  0  0  0  0
   36.3060   20.6840   34.4130 C   0  0  1  0  0  0  0  0  0  0  0  0
   35.3130   20.4610   33.3260 C   0  0  0  0  0  0  0  0  0  0  0  0
   35.2410   21.5800   32.3280 C   0  0  0  0  0  0  0  0  0  0  0  0
   35.5640   21.0000   30.9840 C   0  0  0  0  0  0  0  0  0  0  0  0
   36.0250   19.5780   31.1880 C   0  0  0  0  0  0  0  0  0  0  0  0
   35.4380   19.2150   32.5380 C   0  0  0  0  0  0  0  0  0  0  0  0
   36.9500   25.2590   30.8050 N   0  0  0  0  0  0  0  0  0  0  0  0
   35.7144   27.0928   32.3258 H   0  0  0  0  0  0  0  0  0  0  0  0
   36.5951   28.0054   34.4952 H   0  0  0  0  0  0  0  0  0  0  0  0
   43.4282   26.2326   34.4937 H   0  0  0  0  0  0  0  0  0  0  0  0
   42.7749   24.0248   35.8243 H   0  0  0  0  0  0  0  0  0  0  0  0
   36.2241   23.0310   34.8293 H   0  0  0  0  0  0  0  0  0  0  0  0
   36.4040   20.3890   36.6590 H   0  0  0  0  0  0  0  0  0  0  0  0
   34.9179   20.7502   36.3891 H   0  0  0  0  0  0  0  0  0  0  0  0
   36.9719   19.9880   33.8818 H   0  0  0  0  0  0  0  0  0  0  0  0
   34.3987   20.3920   33.9336 H   0  0  0  0  0  0  0  0  0  0  0  0
   34.2292   22.0114   32.3185 H   0  0  0  0  0  0  0  0  0  0  0  0
   35.9502   22.3797   32.5877 H   0  0  0  0  0  0  0  0  0  0  0  0
   36.3628   21.5865   30.5066 H   0  0  0  0  0  0  0  0  0  0  0  0
   34.6768   21.0244   30.3342 H   0  0  0  0  0  0  0  0  0  0  0  0
   35.6348   18.9195   30.3980 H   0  0  0  0  0  0  0  0  0  0  0  0
   37.1189   19.4689   31.1493 H   0  0  0  0  0  0  0  0  0  0  0  0
   34.4474   18.7558   32.4042 H   0  0  0  0  0  0  0  0  0  0  0  0
   36.0865   18.4946   33.0581 H   0  0  0  0  0  0  0  0  0  0  0  0
   36.0466   25.5832   30.4312 H   0  0  0  0  0  0  0  0  0  0  0  0
   37.4983   24.5559   30.2893 H   0  0  0  0  0  0  0  0  0  0  0  0
  1  6  2  0
  1  2  1  0
  2  3  2  0
  3  4  1  0
  5  7  1  0
  5  4  2  0
  6  5  1  0
  7 11  1  0
  8  7  1  0
  8  9  2  0
  9 10  1  0
 11 10  2  0
 11 12  1  0
 12 13  2  0
 13 14  1  0
 15 14  1  0
 16 15  2  0
 16 12  1  0
 17 15  1  0
 17 18  1  0
 19 17  1  0
 19 18  1  0
 20 19  1  0
 21 20  1  0
 22 23  1  0
 22 21  1  0
 23 24  1  0
 24 20  1  0
 25  1  1  0
  2 26  1  0
  3 27  1  0
  9 28  1  0
 10 29  1  0
 17 30  1  6
 18 31  1  0
 18 32  1  0
 19 33  1  1
 20 34  1  0
 21 35  1  0
 21 36  1  0
 22 37  1  0
 22 38  1  0
 23 39  1  0
 23 40  1  0
 24 41  1  0
 24 42  1  0
 25 43  1  0
 25 44  1  0
M  ISO  8  26  14  27  14  28  14  29  14  30  13  31  13  32  13  33  13
M  ISO  8  34  13  35  13  36  13  37  13  38  13  39  13  40  13  41  13
M  ISO  1  42  13
M  END
>  <minimizedAffinity>  (1) 
-5.37374687

>  <minimizedRMSD>  (1) 
3.93330908

$$$$
