
     RDKit          3D

 41 45  0  0  1  0  0  0  0  0999 V2000
   39.3460   24.7680   33.6170 C   0  0  0  0  0  0  0  0  0  0  0  0
   40.5030   24.5920   32.9820 N   0  0  0  0  0  0  0  0  0  0  0  0
   40.4680   23.5220   32.2440 O   0  0  0  0  0  0  0  0  0  0  0  0
   39.2450   23.0070   32.4210 C   0  0  0  0  0  0  0  0  0  0  0  0
   38.5090   23.7420   33.2640 N   0  0  0  0  0  0  0  0  0  0  0  0
   37.9850   28.2050   30.6560 C   0  0  0  0  0  0  0  0  0  0  0  0
   36.6680   27.8410   30.2940 C   0  0  0  0  0  0  0  0  0  0  0  0
   35.8930   27.1340   31.2050 C   0  0  0  0  0  0  0  0  0  0  0  0
   36.4530   26.8250   32.4190 N   0  0  0  0  0  0  0  0  0  0  0  0
   37.7070   27.1930   32.7180 C   0  0  0  0  0  0  0  0  0  0  0  0
   38.4870   27.8760   31.8650 N   0  0  0  0  0  0  0  0  0  0  0  0
   38.1700   26.8100   34.0140 N   0  0  0  0  0  0  0  0  0  0  0  0
   37.8350   27.6320   34.9630 N   0  0  0  0  0  0  0  0  0  0  0  0
   38.3210   27.1740   36.1400 C   0  0  0  0  0  0  0  0  0  0  0  0
   38.9840   26.0200   35.8980 C   0  0  0  0  0  0  0  0  0  0  0  0
   38.8860   25.7880   34.5400 C   0  0  0  0  0  0  0  0  0  0  0  0
   38.7870   28.9230   29.7340 N   0  0  0  0  0  0  0  0  0  0  0  0
   38.7180   21.7510   31.7690 C   0  0  2  0  0  0  0  0  0  0  0  0
   38.4870   21.7270   30.2970 C   0  0  0  0  0  0  0  0  0  0  0  0
   37.3230   21.7580   31.2390 C   0  0  1  0  0  0  0  0  0  0  0  0
   36.5840   20.5330   31.5950 C   0  0  0  0  0  0  0  0  0  0  0  0
   35.2280   20.6040   31.7780 C   0  0  0  0  0  0  0  0  0  0  0  0
   34.4670   19.4960   32.1130 C   0  0  0  0  0  0  0  0  0  0  0  0
   35.1050   18.2830   32.2650 C   0  0  0  0  0  0  0  0  0  0  0  0
   36.4730   18.2100   32.0810 C   0  0  0  0  0  0  0  0  0  0  0  0
   37.2110   19.3120   31.7510 C   0  0  0  0  0  0  0  0  0  0  0  0
   36.2636   28.1129   29.3078 H   0  0  0  0  0  0  0  0  0  0  0  0
   34.8639   26.8318   30.9610 H   0  0  0  0  0  0  0  0  0  0  0  0
   38.1984   27.6556   37.1213 H   0  0  0  0  0  0  0  0  0  0  0  0
   39.4999   25.3900   36.6376 H   0  0  0  0  0  0  0  0  0  0  0  0
   38.4083   29.1763   28.8102 H   0  0  0  0  0  0  0  0  0  0  0  0
   39.7485   29.1915   29.9877 H   0  0  0  0  0  0  0  0  0  0  0  0
   39.2869   21.1211   32.4687 H   0  0  0  0  0  0  0  0  0  0  0  0
   38.7043   20.8156   29.7207 H   0  0  0  0  0  0  0  0  0  0  0  0
   38.8171   22.3426   29.4473 H   0  0  0  0  0  0  0  0  0  0  0  0
   36.4251   22.3930   31.2630 H   0  0  0  0  0  0  0  0  0  0  0  0
   34.7260   21.5749   31.6546 H   0  0  0  0  0  0  0  0  0  0  0  0
   33.3795   19.5818   32.2544 H   0  0  0  0  0  0  0  0  0  0  0  0
   34.5312   17.3827   32.5300 H   0  0  0  0  0  0  0  0  0  0  0  0
   36.9800   17.2415   32.2031 H   0  0  0  0  0  0  0  0  0  0  0  0
   38.2987   19.2271   31.6103 H   0  0  0  0  0  0  0  0  0  0  0  0
  1 16  1  0
  2  1  2  0
  3  4  1  0
  3  2  1  0
  4  5  2  0
  5  1  1  0
  6 11  2  0
  7  6  1  0
  7  8  2  0
  8  9  1  0
  9 10  2  0
 10 12  1  0
 11 10  1  0
 12 16  1  0
 12 13  1  0
 13 14  2  0
 15 14  1  0
 16 15  2  0
 17  6  1  0
 18  4  1  0
 19 20  1  0
 19 18  1  0
 20 21  1  0
 20 18  1  0
 21 26  1  0
 21 22  2  0
 22 23  1  0
 23 24  2  0
 25 24  1  0
 26 25  2  0
  7 27  1  0
  8 28  1  0
 14 29  1  0
 15 30  1  0
 17 31  1  0
 17 32  1  0
 18 33  1  1
 19 34  1  0
 19 35  1  0
 20 36  1  6
 22 37  1  0
 23 38  1  0
 24 39  1  0
 25 40  1  0
 26 41  1  0
M  ISO  8  27  14  28  14  29  14  30  14  33  13  34  13  35  13  36  13
M  ISO  5  37  14  38  14  39  14  40  14  41  14
M  END
>  <minimizedAffinity>  (1) 
-5.22082901

>  <minimizedRMSD>  (1) 
5.35730648

$$$$
