
     RDKit          3D

 41 45  0  0  1  0  0  0  0  0999 V2000
   39.9610   24.5130   33.4330 C   0  0  0  0  0  0  0  0  0  0  0  0
   40.6000   23.7900   32.5320 N   0  0  0  0  0  0  0  0  0  0  0  0
   41.4470   22.9910   33.1010 O   0  0  0  0  0  0  0  0  0  0  0  0
   41.3400   23.2160   34.4180 C   0  0  0  0  0  0  0  0  0  0  0  0
   40.4240   24.1600   34.6820 N   0  0  0  0  0  0  0  0  0  0  0  0
   42.3660   28.1510   31.6030 C   0  0  0  0  0  0  0  0  0  0  0  0
   42.3510   27.9140   30.2130 C   0  0  0  0  0  0  0  0  0  0  0  0
   41.2710   27.2420   29.6590 C   0  0  0  0  0  0  0  0  0  0  0  0
   40.2730   26.8460   30.5020 N   0  0  0  0  0  0  0  0  0  0  0  0
   40.3190   27.0870   31.8110 C   0  0  0  0  0  0  0  0  0  0  0  0
   41.3540   27.7360   32.3760 N   0  0  0  0  0  0  0  0  0  0  0  0
   39.2150   26.6230   32.5910 N   0  0  0  0  0  0  0  0  0  0  0  0
   38.2010   27.4360   32.6080 N   0  0  0  0  0  0  0  0  0  0  0  0
   37.2190   26.9040   33.3700 C   0  0  0  0  0  0  0  0  0  0  0  0
   37.6470   25.7180   33.8400 C   0  0  0  0  0  0  0  0  0  0  0  0
   38.9310   25.5430   33.3360 C   0  0  0  0  0  0  0  0  0  0  0  0
   43.4730   28.8430   32.1810 N   0  0  0  0  0  0  0  0  0  0  0  0
   42.1280   22.5210   35.4800 C   0  0  2  0  0  0  0  0  0  0  0  0
   42.2870   23.1550   36.8260 C   0  0  0  0  0  0  0  0  0  0  0  0
   43.4650   23.0420   35.8780 C   0  0  2  0  0  0  0  0  0  0  0  0
   43.9220   24.3250   35.3690 N   0  0  0  0  0  0  0  0  0  0  0  0
   43.8860   24.8300   34.1230 C   0  0  0  0  0  0  0  0  0  0  0  0
   44.3910   26.0920   33.8950 C   0  0  0  0  0  0  0  0  0  0  0  0
   44.9300   26.8400   34.9220 C   0  0  0  0  0  0  0  0  0  0  0  0
   45.3510   27.9690   34.5690 O   0  0  0  0  0  0  0  0  0  0  0  0
   44.9500   26.3060   36.1560 N   0  0  0  0  0  0  0  0  0  0  0  0
   44.4550   25.0680   36.3830 C   0  0  0  0  0  0  0  0  0  0  0  0
   44.5570   24.7300   37.5940 O   0  0  0  0  0  0  0  0  0  0  0  0
   43.1818   28.2562   29.5785 H   0  0  0  0  0  0  0  0  0  0  0  0
   41.2207   27.0358   28.5797 H   0  0  0  0  0  0  0  0  0  0  0  0
   36.2392   27.3617   33.5711 H   0  0  0  0  0  0  0  0  0  0  0  0
   37.0928   25.0264   34.4916 H   0  0  0  0  0  0  0  0  0  0  0  0
   44.2500   29.1611   31.5843 H   0  0  0  0  0  0  0  0  0  0  0  0
   43.4947   29.0242   33.1947 H   0  0  0  0  0  0  0  0  0  0  0  0
   41.7544   21.5501   35.1226 H   0  0  0  0  0  0  0  0  0  0  0  0
   41.8352   24.1368   37.0306 H   0  0  0  0  0  0  0  0  0  0  0  0
   42.0856   22.8494   37.8633 H   0  0  0  0  0  0  0  0  0  0  0  0
   44.4695   22.5938   35.8722 H   0  0  0  0  0  0  0  0  0  0  0  0
   43.4589   24.2433   33.2963 H   0  0  0  0  0  0  0  0  0  0  0  0
   44.3640   26.5099   32.8778 H   0  0  0  0  0  0  0  0  0  0  0  0
   45.3471   26.8464   36.9378 H   0  0  0  0  0  0  0  0  0  0  0  0
  1  5  1  0
  2  3  1  0
  2  1  2  0
  3  4  1  0
  4  5  2  0
  4 18  1  0
  6 17  1  0
  6 11  2  0
  7  6  1  0
  8  7  2  0
  8  9  1  0
  9 10  2  0
 10 11  1  0
 10 12  1  0
 12 13  1  0
 12 16  1  0
 13 14  2  0
 14 15  1  0
 16  1  1  0
 16 15  2  0
 18 20  1  0
 18 19  1  0
 20 19  1  0
 21 20  1  0
 21 27  1  0
 22 21  1  0
 23 22  2  0
 23 24  1  0
 24 26  1  0
 25 24  2  0
 26 27  1  0
 27 28  2  0
  7 29  1  0
  8 30  1  0
 14 31  1  0
 15 32  1  0
 17 33  1  0
 17 34  1  0
 18 35  1  1
 19 36  1  0
 19 37  1  0
 20 38  1  1
 22 39  1  0
 23 40  1  0
 26 41  1  0
M  ISO  8  29  14  30  14  31  14  32  14  35  13  36  13  37  13  38  13
M  ISO  3  39  14  40  14  41   9
M  END
>  <minimizedAffinity>  (1) 
-4.57861423

>  <minimizedRMSD>  (1) 
5.17063856

$$$$
