
     RDKit          3D

 41 45  0  0  1  0  0  0  0  0999 V2000
   42.9300   24.9280   35.2300 C   0  0  0  0  0  0  0  0  0  0  0  0
   43.0490   23.7480   35.8110 N   0  0  0  0  0  0  0  0  0  0  0  0
   41.8930   23.1650   35.9110 O   0  0  0  0  0  0  0  0  0  0  0  0
   41.0110   24.0150   35.3710 C   0  0  0  0  0  0  0  0  0  0  0  0
   41.6030   25.1350   34.9280 N   0  0  0  0  0  0  0  0  0  0  0  0
   42.0500   25.6050   30.6300 C   0  0  0  0  0  0  0  0  0  0  0  0
   40.9690   26.5120   30.6080 C   0  0  0  0  0  0  0  0  0  0  0  0
   40.8510   27.4270   31.6460 C   0  0  0  0  0  0  0  0  0  0  0  0
   41.7930   27.3940   32.6310 N   0  0  0  0  0  0  0  0  0  0  0  0
   42.8050   26.5150   32.6130 C   0  0  0  0  0  0  0  0  0  0  0  0
   42.9420   25.6250   31.6280 N   0  0  0  0  0  0  0  0  0  0  0  0
   43.7270   26.5840   33.7030 N   0  0  0  0  0  0  0  0  0  0  0  0
   44.6670   27.4780   33.5400 N   0  0  0  0  0  0  0  0  0  0  0  0
   45.4800   27.4560   34.6300 C   0  0  0  0  0  0  0  0  0  0  0  0
   45.0160   26.5200   35.4760 C   0  0  0  0  0  0  0  0  0  0  0  0
   43.8990   25.9640   34.8850 C   0  0  0  0  0  0  0  0  0  0  0  0
   42.1810   24.6580   29.5690 N   0  0  0  0  0  0  0  0  0  0  0  0
   39.5220   23.7840   35.2530 C   0  0  2  0  0  0  0  0  0  0  0  0
   38.6230   24.2930   36.3340 C   0  0  0  0  0  0  0  0  0  0  0  0
   38.8660   22.8020   36.1600 C   0  0  1  0  0  0  0  0  0  0  0  0
   37.7350   22.0640   35.4890 C   0  0  0  0  0  0  0  0  0  0  0  0
   37.6380   21.8640   34.1300 C   0  0  0  0  0  0  0  0  0  0  0  0
   36.5710   21.1770   33.5900 C   0  0  0  0  0  0  0  0  0  0  0  0
   35.5690   20.6740   34.4250 C   0  0  0  0  0  0  0  0  0  0  0  0
   35.6430   20.8620   35.7980 C   0  0  0  0  0  0  0  0  0  0  0  0
   36.7240   21.5530   36.3030 C   0  0  0  0  0  0  0  0  0  0  0  0
   40.2366   26.4946   29.7874 H   0  0  0  0  0  0  0  0  0  0  0  0
   40.0256   28.1536   31.6725 H   0  0  0  0  0  0  0  0  0  0  0  0
   46.3625   28.0925   34.7911 H   0  0  0  0  0  0  0  0  0  0  0  0
   45.4443   26.2490   36.4523 H   0  0  0  0  0  0  0  0  0  0  0  0
   41.4931   24.6450   28.8025 H   0  0  0  0  0  0  0  0  0  0  0  0
   42.9633   23.9880   29.5703 H   0  0  0  0  0  0  0  0  0  0  0  0
   39.5658   23.9127   34.1614 H   0  0  0  0  0  0  0  0  0  0  0  0
   39.0458   24.8242   37.1995 H   0  0  0  0  0  0  0  0  0  0  0  0
   37.7358   24.9421   36.3732 H   0  0  0  0  0  0  0  0  0  0  0  0
   39.1973   21.9896   36.8235 H   0  0  0  0  0  0  0  0  0  0  0  0
   38.4220   22.2574   33.4663 H   0  0  0  0  0  0  0  0  0  0  0  0
   36.5084   21.0249   32.5024 H   0  0  0  0  0  0  0  0  0  0  0  0
   34.7185   20.1270   33.9920 H   0  0  0  0  0  0  0  0  0  0  0  0
   34.8608   20.4705   36.4650 H   0  0  0  0  0  0  0  0  0  0  0  0
   36.7918   21.7073   37.3900 H   0  0  0  0  0  0  0  0  0  0  0  0
  1  2  2  0
  2  3  1  0
  4  3  1  0
  5  1  1  0
  5  4  2  0
  6 11  2  0
  7  6  1  0
  7  8  2  0
  8  9  1  0
 10  9  2  0
 10 12  1  0
 11 10  1  0
 12 16  1  0
 13 12  1  0
 13 14  2  0
 14 15  1  0
 16  1  1  0
 16 15  2  0
 17  6  1  0
 18  4  1  0
 18 20  1  0
 18 19  1  0
 20 19  1  0
 21 20  1  0
 21 26  1  0
 22 21  2  0
 23 22  1  0
 23 24  2  0
 24 25  1  0
 25 26  2  0
  7 27  1  0
  8 28  1  0
 14 29  1  0
 15 30  1  0
 17 31  1  0
 17 32  1  0
 18 33  1  6
 19 34  1  0
 19 35  1  0
 20 36  1  1
 22 37  1  0
 23 38  1  0
 24 39  1  0
 25 40  1  0
 26 41  1  0
M  ISO  8  27  14  28  14  29  14  30  14  33  13  34  13  35  13  36  13
M  ISO  5  37  14  38  14  39  14  40  14  41  14
M  END
>  <minimizedAffinity>  (1) 
-4.89428043

>  <minimizedRMSD>  (1) 
4.01568604

$$$$
