
     RDKit          3D

 39 43  0  0  1  0  0  0  0  0999 V2000
   43.0320   25.6200   32.9950 C   0  0  0  0  0  0  0  0  0  0  0  0
   43.5690   24.4370   32.7560 N   0  0  0  0  0  0  0  0  0  0  0  0
   43.2170   23.5740   33.6620 O   0  0  0  0  0  0  0  0  0  0  0  0
   42.4230   24.2470   34.5070 C   0  0  0  0  0  0  0  0  0  0  0  0
   42.2730   25.5250   34.1410 N   0  0  0  0  0  0  0  0  0  0  0  0
   39.1640   25.4840   30.2720 C   0  0  0  0  0  0  0  0  0  0  0  0
   38.1280   25.9300   31.1210 C   0  0  0  0  0  0  0  0  0  0  0  0
   38.4280   26.8320   32.1300 C   0  0  0  0  0  0  0  0  0  0  0  0
   39.7300   27.2430   32.2490 N   0  0  0  0  0  0  0  0  0  0  0  0
   40.6800   26.8000   31.4280 C   0  0  0  0  0  0  0  0  0  0  0  0
   40.4230   25.9260   30.4400 N   0  0  0  0  0  0  0  0  0  0  0  0
   41.9960   27.3070   31.6560 N   0  0  0  0  0  0  0  0  0  0  0  0
   42.2170   28.4650   31.0980 N   0  0  0  0  0  0  0  0  0  0  0  0
   43.4880   28.8470   31.3780 C   0  0  0  0  0  0  0  0  0  0  0  0
   44.0580   27.8880   32.1320 C   0  0  0  0  0  0  0  0  0  0  0  0
   43.1030   26.9080   32.3060 C   0  0  0  0  0  0  0  0  0  0  0  0
   38.8670   24.5560   29.2320 N   0  0  0  0  0  0  0  0  0  0  0  0
   41.7590   23.6680   35.7370 C   0  0  2  0  0  0  0  0  0  0  0  0
   42.0000   22.2320   36.0830 C   0  0  0  0  0  0  0  0  0  0  0  0
   40.6600   22.6780   35.5550 C   0  0  1  0  0  0  0  0  0  0  0  0
   39.5330   22.8540   36.5000 C   0  0  0  0  0  0  0  0  0  0  0  0
   38.2080   22.7400   36.1260 C   0  0  0  0  0  0  0  0  0  0  0  0
   37.2670   22.9300   37.1160 C   0  0  0  0  0  0  0  0  0  0  0  0
   37.5840   23.2110   38.3930 N   0  0  0  0  0  0  0  0  0  0  0  0
   38.8740   23.3170   38.7350 C   0  0  0  0  0  0  0  0  0  0  0  0
   39.7910   23.1380   37.7970 N   0  0  0  0  0  0  0  0  0  0  0  0
   37.0986   25.5674   30.9840 H   0  0  0  0  0  0  0  0  0  0  0  0
   37.6487   27.2047   32.8110 H   0  0  0  0  0  0  0  0  0  0  0  0
   43.9696   29.7788   31.0466 H   0  0  0  0  0  0  0  0  0  0  0  0
   45.0832   27.8864   32.5307 H   0  0  0  0  0  0  0  0  0  0  0  0
   37.9027   24.2177   29.1036 H   0  0  0  0  0  0  0  0  0  0  0  0
   39.6167   24.2236   28.6088 H   0  0  0  0  0  0  0  0  0  0  0  0
   41.8645   24.6204   36.2772 H   0  0  0  0  0  0  0  0  0  0  0  0
   42.6629   21.6175   35.4562 H   0  0  0  0  0  0  0  0  0  0  0  0
   42.3469   21.6915   36.9761 H   0  0  0  0  0  0  0  0  0  0  0  0
   40.0210   22.3182   34.7351 H   0  0  0  0  0  0  0  0  0  0  0  0
   37.9181   22.5092   35.0903 H   0  0  0  0  0  0  0  0  0  0  0  0
   36.2033   22.8476   36.8481 H   0  0  0  0  0  0  0  0  0  0  0  0
   39.1650   23.5473   39.7705 H   0  0  0  0  0  0  0  0  0  0  0  0
  1  5  1  0
  2  1  2  0
  2  3  1  0
  3  4  1  0
  4 18  1  0
  5  4  2  0
  6 11  2  0
  6  7  1  0
  7  8  2  0
  8  9  1  0
 10 12  1  0
 10  9  2  0
 11 10  1  0
 12 16  1  0
 13 14  2  0
 13 12  1  0
 14 15  1  0
 15 16  2  0
 16  1  1  0
 17  6  1  0
 18 19  1  0
 20 18  1  0
 20 19  1  0
 20 21  1  0
 21 26  1  0
 22 21  2  0
 22 23  1  0
 23 24  2  0
 24 25  1  0
 26 25  2  0
  7 27  1  0
  8 28  1  0
 14 29  1  0
 15 30  1  0
 17 31  1  0
 17 32  1  0
 18 33  1  1
 19 34  1  0
 19 35  1  0
 20 36  1  6
 22 37  1  0
 23 38  1  0
 25 39  1  0
M  ISO  8  27  14  28  14  29  14  30  14  33  13  34  13  35  13  36  13
M  ISO  3  37  14  38  14  39  14
M  END
>  <minimizedAffinity>  (1) 
-4.53745842

>  <minimizedRMSD>  (1) 
3.49233079

$$$$
