
     RDKit          3D

 37 40  0  0  1  0  0  0  0  0999 V2000
   36.2330   24.0480   31.1000 C   0  0  0  0  0  0  0  0  0  0  0  0
   35.1130   24.9070   31.0510 C   0  0  0  0  0  0  0  0  0  0  0  0
   35.3180   26.2700   31.0290 C   0  0  0  0  0  0  0  0  0  0  0  0
   36.6130   26.7120   31.0550 N   0  0  0  0  0  0  0  0  0  0  0  0
   37.6550   25.8590   31.1020 C   0  0  0  0  0  0  0  0  0  0  0  0
   37.4790   24.5460   31.1240 N   0  0  0  0  0  0  0  0  0  0  0  0
   38.9510   26.4550   31.1250 N   0  0  0  0  0  0  0  0  0  0  0  0
   39.4140   26.7590   29.9410 N   0  0  0  0  0  0  0  0  0  0  0  0
   40.6380   27.3140   30.0780 C   0  0  0  0  0  0  0  0  0  0  0  0
   40.9390   27.3520   31.4000 C   0  0  0  0  0  0  0  0  0  0  0  0
   39.8540   26.8020   32.0570 C   0  0  0  0  0  0  0  0  0  0  0  0
   39.4990   26.5340   33.4490 C   0  0  0  0  0  0  0  0  0  0  0  0
   39.1420   27.3250   34.4540 N   0  0  0  0  0  0  0  0  0  0  0  0
   38.9180   26.6270   35.5200 O   0  0  0  0  0  0  0  0  0  0  0  0
   39.1420   25.3480   35.1810 C   0  0  0  0  0  0  0  0  0  0  0  0
   39.5080   25.2320   33.8970 N   0  0  0  0  0  0  0  0  0  0  0  0
   39.0040   24.1800   36.1000 C   0  0  2  0  0  0  0  0  0  0  0  0
   38.1030   23.0430   35.7290 C   0  0  0  0  0  0  0  0  0  0  0  0
   37.7570   23.9810   36.8890 C   0  0  1  0  0  0  0  0  0  0  0  0
   37.7700   23.3270   38.2300 C   0  0  0  0  0  0  0  0  0  0  0  0
   38.8380   23.8430   39.1530 C   0  0  0  0  0  0  0  0  0  0  0  0
   36.0290   22.6320   31.1220 N   0  0  0  0  0  0  0  0  0  0  0  0
   34.0933   24.4950   31.0307 H   0  0  0  0  0  0  0  0  0  0  0  0
   34.4741   26.9746   30.9920 H   0  0  0  0  0  0  0  0  0  0  0  0
   41.2793   27.6728   29.2595 H   0  0  0  0  0  0  0  0  0  0  0  0
   41.8605   27.7418   31.8572 H   0  0  0  0  0  0  0  0  0  0  0  0
   40.0684   24.2673   36.3636 H   0  0  0  0  0  0  0  0  0  0  0  0
   37.5218   23.0797   34.7958 H   0  0  0  0  0  0  0  0  0  0  0  0
   38.2210   21.9561   35.6076 H   0  0  0  0  0  0  0  0  0  0  0  0
   36.9511   24.6704   37.1811 H   0  0  0  0  0  0  0  0  0  0  0  0
   36.7922   23.4938   38.7054 H   0  0  0  0  0  0  0  0  0  0  0  0
   37.9836   22.2612   38.0615 H   0  0  0  0  0  0  0  0  0  0  0  0
   38.5251   23.6918   40.1967 H   0  0  0  0  0  0  0  0  0  0  0  0
   39.7760   23.2987   38.9689 H   0  0  0  0  0  0  0  0  0  0  0  0
   38.9946   24.9161   38.9689 H   0  0  0  0  0  0  0  0  0  0  0  0
   35.0730   22.2491   31.1036 H   0  0  0  0  0  0  0  0  0  0  0  0
   36.8381   21.9956   31.1562 H   0  0  0  0  0  0  0  0  0  0  0  0
  1 22  1  0
  1  6  2  0
  2  1  1  0
  3  2  2  0
  3  4  1  0
  4  5  2  0
  5  6  1  0
  5  7  1  0
  7 11  1  0
  8  9  2  0
  8  7  1  0
  9 10  1  0
 10 11  2  0
 11 12  1  0
 12 16  1  0
 12 13  2  0
 13 14  1  0
 15 14  1  0
 15 17  1  0
 16 15  2  0
 17 19  1  0
 18 17  1  0
 18 19  1  0
 19 20  1  0
 20 21  1  0
  2 23  1  0
  3 24  1  0
  9 25  1  0
 10 26  1  0
 17 27  1  1
 18 28  1  0
 18 29  1  0
 19 30  1  6
 20 31  1  0
 20 32  1  0
 21 33  1  0
 21 34  1  0
 21 35  1  0
 22 36  1  0
 22 37  1  0
M  ISO  8  23  14  24  14  25  14  26  14  27  13  28  13  29  13  30  13
M  ISO  5  31   8  32   8  33   8  34   8  35   8
M  END
>  <minimizedAffinity>  (1) 
-5.02536535

>  <minimizedRMSD>  (1) 
2.30624294

$$$$
