
     RDKit          3D

 44 48  0  0  1  0  0  0  0  0999 V2000
   40.4160   26.7820   32.7710 C   0  0  0  0  0  0  0  0  0  0  0  0
   39.9020   27.2620   33.9090 N   0  0  0  0  0  0  0  0  0  0  0  0
   40.2440   26.5050   34.9000 O   0  0  0  0  0  0  0  0  0  0  0  0
   40.9970   25.5150   34.3680 C   0  0  0  0  0  0  0  0  0  0  0  0
   41.1410   25.6320   33.0440 N   0  0  0  0  0  0  0  0  0  0  0  0
   36.9010   24.1150   31.0650 C   0  0  0  0  0  0  0  0  0  0  0  0
   35.7250   24.8210   31.4350 C   0  0  0  0  0  0  0  0  0  0  0  0
   35.7760   26.1920   31.5410 C   0  0  0  0  0  0  0  0  0  0  0  0
   36.9750   26.8000   31.2790 N   0  0  0  0  0  0  0  0  0  0  0  0
   38.0660   26.0990   30.9310 C   0  0  0  0  0  0  0  0  0  0  0  0
   38.0440   24.7750   30.8210 N   0  0  0  0  0  0  0  0  0  0  0  0
   39.2510   26.8670   30.6860 N   0  0  0  0  0  0  0  0  0  0  0  0
   39.3270   27.3490   29.4750 N   0  0  0  0  0  0  0  0  0  0  0  0
   40.4740   28.0490   29.3560 C   0  0  0  0  0  0  0  0  0  0  0  0
   41.1310   27.9940   30.5500 C   0  0  0  0  0  0  0  0  0  0  0  0
   40.3390   27.2390   31.3830 C   0  0  0  0  0  0  0  0  0  0  0  0
   36.8620   22.6930   30.9510 N   0  0  0  0  0  0  0  0  0  0  0  0
   41.6060   24.4040   35.1740 C   0  0  2  0  0  0  0  0  0  0  0  0
   42.5750   23.4670   34.4950 C   0  0  0  0  0  0  0  0  0  0  0  0
   41.2030   23.0000   34.9520 C   0  0  1  0  0  0  0  0  0  0  0  0
   41.2180   21.9760   36.0220 C   0  0  0  0  0  0  0  0  0  0  0  0
   40.9360   22.5530   37.3950 C   0  0  0  0  0  0  0  0  0  0  0  0
   39.4800   22.8730   37.4460 C   0  0  0  0  0  0  0  0  0  0  0  0
   38.8800   23.4770   38.5580 C   0  0  0  0  0  0  0  0  0  0  0  0
   37.5270   23.6470   38.3110 C   0  0  0  0  0  0  0  0  0  0  0  0
   37.3400   23.1500   37.0750 N   0  0  0  0  0  0  0  0  0  0  0  0
   38.4730   22.7000   36.5700 N   0  0  0  0  0  0  0  0  0  0  0  0
   34.7881   24.2800   31.6337 H   0  0  0  0  0  0  0  0  0  0  0  0
   34.8886   26.7767   31.8250 H   0  0  0  0  0  0  0  0  0  0  0  0
   40.8195   28.5732   28.4527 H   0  0  0  0  0  0  0  0  0  0  0  0
   42.0971   28.4587   30.7964 H   0  0  0  0  0  0  0  0  0  0  0  0
   37.7106   22.1743   30.6832 H   0  0  0  0  0  0  0  0  0  0  0  0
   35.9852   22.1853   31.1365 H   0  0  0  0  0  0  0  0  0  0  0  0
   41.6343   25.0530   36.0617 H   0  0  0  0  0  0  0  0  0  0  0  0
   43.4796   23.1282   35.0212 H   0  0  0  0  0  0  0  0  0  0  0  0
   43.1325   23.4627   33.5467 H   0  0  0  0  0  0  0  0  0  0  0  0
   40.2929   22.5654   34.5130 H   0  0  0  0  0  0  0  0  0  0  0  0
   40.4519   21.2199   35.7950 H   0  0  0  0  0  0  0  0  0  0  0  0
   42.2279   21.5407   36.0480 H   0  0  0  0  0  0  0  0  0  0  0  0
   41.1880   21.8169   38.1726 H   0  0  0  0  0  0  0  0  0  0  0  0
   41.5412   23.4542   37.5727 H   0  0  0  0  0  0  0  0  0  0  0  0
   39.4005   23.7702   39.4816 H   0  0  0  0  0  0  0  0  0  0  0  0
   36.7729   24.0902   38.9780 H   0  0  0  0  0  0  0  0  0  0  0  0
   36.4330   23.1242   36.5876 H   0  0  0  0  0  0  0  0  0  0  0  0
  1  5  1  0
  1  2  2  0
  2  3  1  0
  4  3  1  0
  4 18  1  0
  5  4  2  0
  6  7  2  0
  7  8  1  0
  9  8  2  0
 10  9  1  0
 11 10  2  0
 11  6  1  0
 12 10  1  0
 12 16  1  0
 13 12  1  0
 14 13  2  0
 14 15  1  0
 15 16  2  0
 16  1  1  0
 17  6  1  0
 19 20  1  0
 19 18  1  0
 20 18  1  0
 20 21  1  0
 21 22  1  0
 22 23  1  0
 23 24  1  0
 25 24  2  0
 26 25  1  0
 27 26  1  0
 27 23  2  0
  7 28  1  0
  8 29  1  0
 14 30  1  0
 15 31  1  0
 17 32  1  0
 17 33  1  0
 18 34  1  1
 19 35  1  0
 19 36  1  0
 20 37  1  6
 21 38  1  0
 21 39  1  0
 22 40  1  0
 22 41  1  0
 24 42  1  0
 25 43  1  0
 26 44  1  0
M  ISO  8  28  14  29  14  30  14  31  14  34  13  35  13  36  13  37  13
M  ISO  7  38   8  39   8  40   8  41   8  42  14  43  14  44   9
M  END
>  <minimizedAffinity>  (1) 
-5.28181839

>  <minimizedRMSD>  (1) 
2.52495599

$$$$
