
     RDKit          3D

 44 48  0  0  1  0  0  0  0  0999 V2000
   40.5620   26.8590   32.7820 C   0  0  0  0  0  0  0  0  0  0  0  0
   39.9880   27.3050   33.9060 N   0  0  0  0  0  0  0  0  0  0  0  0
   40.3380   26.5640   34.9080 O   0  0  0  0  0  0  0  0  0  0  0  0
   41.1600   25.6210   34.3960 C   0  0  0  0  0  0  0  0  0  0  0  0
   41.3410   25.7520   33.0680 N   0  0  0  0  0  0  0  0  0  0  0  0
   37.0100   24.2580   31.0620 C   0  0  0  0  0  0  0  0  0  0  0  0
   35.8510   24.9690   31.4280 C   0  0  0  0  0  0  0  0  0  0  0  0
   35.9210   26.3340   31.5360 C   0  0  0  0  0  0  0  0  0  0  0  0
   37.1270   26.9350   31.2790 N   0  0  0  0  0  0  0  0  0  0  0  0
   38.2150   26.2100   30.9300 C   0  0  0  0  0  0  0  0  0  0  0  0
   38.1720   24.8910   30.8190 N   0  0  0  0  0  0  0  0  0  0  0  0
   39.4080   26.9660   30.6890 N   0  0  0  0  0  0  0  0  0  0  0  0
   39.4950   27.4500   29.4800 N   0  0  0  0  0  0  0  0  0  0  0  0
   40.6540   28.1390   29.3710 C   0  0  0  0  0  0  0  0  0  0  0  0
   41.2930   28.0700   30.5600 C   0  0  0  0  0  0  0  0  0  0  0  0
   40.4990   27.3220   31.3970 C   0  0  0  0  0  0  0  0  0  0  0  0
   36.9470   22.8300   30.9470 N   0  0  0  0  0  0  0  0  0  0  0  0
   41.8060   24.5430   35.2000 C   0  0  2  0  0  0  0  0  0  0  0  0
   42.9680   23.7730   34.6250 C   0  0  0  0  0  0  0  0  0  0  0  0
   41.5980   23.1170   34.8680 C   0  0  1  0  0  0  0  0  0  0  0  0
   41.6000   22.0340   35.8850 C   0  0  0  0  0  0  0  0  0  0  0  0
   41.3220   22.5270   37.2860 C   0  0  0  0  0  0  0  0  0  0  0  0
   39.8490   22.7690   37.3860 C   0  0  0  0  0  0  0  0  0  0  0  0
   39.1530   23.3400   38.3630 C   0  0  0  0  0  0  0  0  0  0  0  0
   37.8000   23.4830   38.2950 C   0  0  0  0  0  0  0  0  0  0  0  0
   37.2300   22.9300   37.0170 C   0  0  0  0  0  0  0  0  0  0  0  0
   38.7750   22.2950   36.1360 S   0  0  0  0  0  0  0  0  0  0  0  0
   34.9071   24.4392   31.6236 H   0  0  0  0  0  0  0  0  0  0  0  0
   35.0393   26.9275   31.8193 H   0  0  0  0  0  0  0  0  0  0  0  0
   41.0131   28.6630   28.4730 H   0  0  0  0  0  0  0  0  0  0  0  0
   42.2627   28.5251   30.8102 H   0  0  0  0  0  0  0  0  0  0  0  0
   37.7872   22.2973   30.6801 H   0  0  0  0  0  0  0  0  0  0  0  0
   36.0616   22.3371   31.1313 H   0  0  0  0  0  0  0  0  0  0  0  0
   41.6495   25.1410   36.1099 H   0  0  0  0  0  0  0  0  0  0  0  0
   43.8288   23.5119   35.2581 H   0  0  0  0  0  0  0  0  0  0  0  0
   43.6450   23.8910   33.7661 H   0  0  0  0  0  0  0  0  0  0  0  0
   40.8082   22.6108   34.2935 H   0  0  0  0  0  0  0  0  0  0  0  0
   40.8273   21.2995   35.6139 H   0  0  0  0  0  0  0  0  0  0  0  0
   42.6081   21.5939   35.8893 H   0  0  0  0  0  0  0  0  0  0  0  0
   41.6299   21.7683   38.0205 H   0  0  0  0  0  0  0  0  0  0  0  0
   41.8841   23.4494   37.4940 H   0  0  0  0  0  0  0  0  0  0  0  0
   39.6848   23.7080   39.2528 H   0  0  0  0  0  0  0  0  0  0  0  0
   37.1930   23.9498   39.0848 H   0  0  0  0  0  0  0  0  0  0  0  0
   36.1826   22.9026   36.6820 H   0  0  0  0  0  0  0  0  0  0  0  0
  1  5  1  0
  1  2  2  0
  2  3  1  0
  4  3  1  0
  4 18  1  0
  5  4  2  0
  6  7  2  0
  7  8  1  0
  9  8  2  0
 10  9  1  0
 11 10  2  0
 11  6  1  0
 12 10  1  0
 12 16  1  0
 13 12  1  0
 14 13  2  0
 14 15  1  0
 15 16  2  0
 16  1  1  0
 17  6  1  0
 19 20  1  0
 19 18  1  0
 20 18  1  0
 20 21  1  0
 21 22  1  0
 22 23  1  0
 23 24  2  0
 25 24  1  0
 26 25  2  0
 27 26  1  0
 27 23  1  0
  7 28  1  0
  8 29  1  0
 14 30  1  0
 15 31  1  0
 17 32  1  0
 17 33  1  0
 18 34  1  1
 19 35  1  0
 19 36  1  0
 20 37  1  6
 21 38  1  0
 21 39  1  0
 22 40  1  0
 22 41  1  0
 24 42  1  0
 25 43  1  0
 26 44  1  0
M  ISO  8  28  14  29  14  30  14  31  14  34  13  35  13  36  13  37  13
M  ISO  7  38   8  39   8  40   8  41   8  42  14  43  14  44  14
M  END
>  <minimizedAffinity>  (1) 
-5.22926521

>  <minimizedRMSD>  (1) 
2.74919462

$$$$
