
     RDKit          3D

 25 26  0  0  0  0  0  0  0  0999 V2000
   37.0700   20.9800   32.5070 C   0  0  0  0  0  0  0  0  0  0  0  0
   36.2960   20.7500   33.6150 C   0  0  0  0  0  0  0  0  0  0  0  0
   36.7450   21.2730   34.8100 C   0  0  0  0  0  0  0  0  0  0  0  0
   37.9070   22.0000   34.9310 C   0  0  0  0  0  0  0  0  0  0  0  0
   38.6350   22.1950   33.7840 C   0  0  0  0  0  0  0  0  0  0  0  0
   38.2550   21.7040   32.5500 C   0  0  0  0  0  0  0  0  0  0  0  0
   39.9420   22.8470   37.8630 C   0  0  0  0  0  0  0  0  0  0  0  0
   39.0390   23.5390   38.6850 C   0  0  0  0  0  0  0  0  0  0  0  0
   37.7350   23.7020   38.2110 C   0  0  0  0  0  0  0  0  0  0  0  0
   37.4110   23.1890   36.9930 N   0  0  0  0  0  0  0  0  0  0  0  0
   38.3230   22.5290   36.2380 C   0  0  0  0  0  0  0  0  0  0  0  0
   39.5750   22.3550   36.6590 N   0  0  0  0  0  0  0  0  0  0  0  0
   36.5400   20.3360   30.9850 S   0  0  0  0  0  0  0  0  0  0  0  0
   37.5940   20.4140   29.9240 O   0  0  0  0  0  0  0  0  0  0  0  0
   36.0870   18.9260   31.2210 O   0  0  0  0  0  0  0  0  0  0  0  0
   35.0790   20.0140   33.6060 N   0  0  0  0  0  0  0  0  0  0  0  0
   36.1423   21.0997   35.7138 H   0  0  0  0  0  0  0  0  0  0  0  0
   39.5692   22.7720   33.8508 H   0  0  0  0  0  0  0  0  0  0  0  0
   38.8597   21.8774   31.6476 H   0  0  0  0  0  0  0  0  0  0  0  0
   40.9763   22.7012   38.2081 H   0  0  0  0  0  0  0  0  0  0  0  0
   39.3458   23.9371   39.6634 H   0  0  0  0  0  0  0  0  0  0  0  0
   36.9836   24.2355   38.8116 H   0  0  0  0  0  0  0  0  0  0  0  0
   35.5035   21.0939   30.5074 H   0  0  0  0  0  0  0  0  0  0  0  0
   34.5505   19.8821   34.4801 H   0  0  0  0  0  0  0  0  0  0  0  0
   34.7262   19.6129   32.7253 H   0  0  0  0  0  0  0  0  0  0  0  0
  1  6  2  0
  1  2  1  0
  2  3  2  0
  3  4  1  0
  4 11  1  0
  5  4  2  0
  6  5  1  0
  7  8  2  0
  9  8  1  0
 10  9  2  0
 11 12  2  0
 11 10  1  0
 12  7  1  0
 13 15  2  0
 13  1  1  0
 14 13  2  0
 16  2  1  0
  3 17  1  0
  5 18  1  0
  6 19  1  0
  7 20  1  0
  8 21  1  0
  9 22  1  0
 13 23  1  0
 16 24  1  0
 16 25  1  0
M  ISO  7  17  14  18  14  19  14  20  14  21  14  22  14  23  11
M  END
>  <minimizedAffinity>  (1) 
-4.00638008

>  <minimizedRMSD>  (1) 
0.961761177

$$$$
