
     RDKit          3D

 24 25  0  0  0  0  0  0  0  0999 V2000
   36.9250   20.9350   32.5340 C   0  0  0  0  0  0  0  0  0  0  0  0
   36.1880   20.6850   33.6610 C   0  0  0  0  0  0  0  0  0  0  0  0
   36.6660   21.2210   34.8470 C   0  0  0  0  0  0  0  0  0  0  0  0
   37.8100   21.9700   34.9410 C   0  0  0  0  0  0  0  0  0  0  0  0
   38.5100   22.1850   33.7570 C   0  0  0  0  0  0  0  0  0  0  0  0
   38.0970   21.6820   32.5320 C   0  0  0  0  0  0  0  0  0  0  0  0
   39.9330   22.8170   37.8010 C   0  0  0  0  0  0  0  0  0  0  0  0
   39.0550   23.5220   38.6370 C   0  0  0  0  0  0  0  0  0  0  0  0
   37.7520   23.6880   38.1960 C   0  0  0  0  0  0  0  0  0  0  0  0
   37.3660   23.1750   36.9890 N   0  0  0  0  0  0  0  0  0  0  0  0
   38.2540   22.5030   36.2210 C   0  0  0  0  0  0  0  0  0  0  0  0
   39.5270   22.3230   36.6170 N   0  0  0  0  0  0  0  0  0  0  0  0
   36.3530   20.2740   31.0250 S   0  0  0  0  0  0  0  0  0  0  0  0
   37.3890   20.3170   29.9520 O   0  0  0  0  0  0  0  0  0  0  0  0
   35.9100   18.8620   31.2920 O   0  0  0  0  0  0  0  0  0  0  0  0
   35.0200   19.9350   33.6400 O   0  0  0  0  0  0  0  0  0  0  0  0
   36.0930   21.0340   35.7672 H   0  0  0  0  0  0  0  0  0  0  0  0
   39.4335   22.7815   33.7946 H   0  0  0  0  0  0  0  0  0  0  0  0
   38.6664   21.8645   31.6087 H   0  0  0  0  0  0  0  0  0  0  0  0
   40.9748   22.6648   38.1196 H   0  0  0  0  0  0  0  0  0  0  0  0
   39.3875   23.9270   39.6042 H   0  0  0  0  0  0  0  0  0  0  0  0
   37.0270   24.2334   38.8180 H   0  0  0  0  0  0  0  0  0  0  0  0
   35.3116   21.0341   30.5617 H   0  0  0  0  0  0  0  0  0  0  0  0
   34.5173   19.7781   34.4783 H   0  0  0  0  0  0  0  0  0  0  0  0
  1  2  2  0
  2  3  1  0
  3  4  2  0
  4 11  1  0
  5  4  1  0
  6  1  1  0
  6  5  2  0
  7  8  2  0
  9  8  1  0
 10  9  2  0
 11 12  2  0
 11 10  1  0
 12  7  1  0
 13 15  2  0
 13  1  1  0
 14 13  2  0
 16  2  1  0
  3 17  1  0
  5 18  1  0
  6 19  1  0
  7 20  1  0
  8 21  1  0
  9 22  1  0
 13 23  1  0
 16 24  1  0
M  ISO  8  17  14  18  14  19  14  20  14  21  14  22  14  23  11  24   3
M  END
>  <minimizedAffinity>  (1) 
-4.07667971

>  <minimizedRMSD>  (1) 
0.842921495

$$$$
