
     RDKit          3D

 34 36  0  0  0  0  0  0  0  0999 V2000
   36.9910   24.9210   32.4230 C   0  0  0  0  0  0  0  0  0  0  0  0
   37.8830   24.0860   33.0800 C   0  0  0  0  0  0  0  0  0  0  0  0
   37.6350   22.7300   32.9840 C   0  0  0  0  0  0  0  0  0  0  0  0
   36.5790   22.1880   32.2880 C   0  0  0  0  0  0  0  0  0  0  0  0
   35.7220   23.0610   31.6530 C   0  0  0  0  0  0  0  0  0  0  0  0
   35.9000   24.4400   31.7000 C   0  0  0  0  0  0  0  0  0  0  0  0
   35.2530   18.8300   32.8840 C   0  0  0  0  0  0  0  0  0  0  0  0
   36.1400   18.0140   32.1760 C   0  0  0  0  0  0  0  0  0  0  0  0
   37.1860   18.6180   31.4980 C   0  0  0  0  0  0  0  0  0  0  0  0
   37.2910   19.9680   31.5600 N   0  0  0  0  0  0  0  0  0  0  0  0
   36.4110   20.7310   32.2560 C   0  0  0  0  0  0  0  0  0  0  0  0
   35.3810   20.1850   32.9290 N   0  0  0  0  0  0  0  0  0  0  0  0
   37.2650   26.6300   32.5170 S   0  0  0  0  0  0  0  0  0  0  0  0
   36.5810   27.3790   31.4140 O   0  0  0  0  0  0  0  0  0  0  0  0
   36.7490   27.0810   33.8660 O   0  0  0  0  0  0  0  0  0  0  0  0
   39.2780   24.6620   34.0060 S   0  0  0  0  0  0  0  0  0  0  0  0
   39.0900   24.1250   35.7000 C   0  0  0  0  0  0  0  0  0  0  0  0
   39.9450   23.2370   36.3080 C   0  0  0  0  0  0  0  0  0  0  0  0
   39.7640   22.8510   37.6160 C   0  0  0  0  0  0  0  0  0  0  0  0
   38.6930   23.3630   38.3540 C   0  0  0  0  0  0  0  0  0  0  0  0
   37.8180   24.2650   37.7510 C   0  0  0  0  0  0  0  0  0  0  0  0
   38.0450   24.6230   36.4290 C   0  0  0  0  0  0  0  0  0  0  0  0
   38.3240   22.0417   33.4953 H   0  0  0  0  0  0  0  0  0  0  0  0
   34.8690   22.6539   31.0904 H   0  0  0  0  0  0  0  0  0  0  0  0
   35.2076   25.1238   31.1872 H   0  0  0  0  0  0  0  0  0  0  0  0
   34.4193   18.3594   33.4258 H   0  0  0  0  0  0  0  0  0  0  0  0
   36.0108   16.9218   32.1578 H   0  0  0  0  0  0  0  0  0  0  0  0
   37.9103   18.0196   30.9259 H   0  0  0  0  0  0  0  0  0  0  0  0
   38.6020   26.8931   32.3753 H   0  0  0  0  0  0  0  0  0  0  0  0
   40.7911   22.8267   35.7372 H   0  0  0  0  0  0  0  0  0  0  0  0
   40.4621   22.1394   38.0811 H   0  0  0  0  0  0  0  0  0  0  0  0
   38.5423   23.0572   39.3998 H   0  0  0  0  0  0  0  0  0  0  0  0
   36.9676   24.6833   38.3094 H   0  0  0  0  0  0  0  0  0  0  0  0
   37.3576   25.3350   35.9489 H   0  0  0  0  0  0  0  0  0  0  0  0
  1 13  1  0
  1  2  2  0
  2 16  1  0
  3  2  1  0
  4  3  2  0
  5  6  2  0
  5  4  1  0
  6  1  1  0
  7 12  2  0
  8  7  1  0
  9 10  1  0
  9  8  2  0
 10 11  2  0
 11  4  1  0
 11 12  1  0
 13 15  2  0
 14 13  2  0
 16 17  1  0
 17 18  2  0
 17 22  1  0
 18 19  1  0
 19 20  2  0
 21 20  1  0
 22 21  2  0
  3 23  1  0
  5 24  1  0
  6 25  1  0
  7 26  1  0
  8 27  1  0
  9 28  1  0
 13 29  1  0
 18 30  1  0
 19 31  1  0
 20 32  1  0
 21 33  1  0
 22 34  1  0
M  ISO  8  23  14  24  14  25  14  26  14  27  14  28  14  29  11  30  14
M  ISO  4  31  14  32  14  33  14  34  14
M  END
>  <minimizedAffinity>  (1) 
-5.60699368

>  <minimizedRMSD>  (1) 
6.78046083

$$$$
