
     RDKit          3D

 32 34  0  0  0  0  0  0  0  0999 V2000
   38.8340   24.4260   31.7490 C   0  0  0  0  0  0  0  0  0  0  0  0
   37.6780   23.9800   32.3700 C   0  0  0  0  0  0  0  0  0  0  0  0
   37.7860   23.7940   33.7450 C   0  0  0  0  0  0  0  0  0  0  0  0
   38.9330   24.0240   34.4770 C   0  0  0  0  0  0  0  0  0  0  0  0
   40.0480   24.4670   33.7970 C   0  0  0  0  0  0  0  0  0  0  0  0
   40.0350   24.6810   32.4210 C   0  0  0  0  0  0  0  0  0  0  0  0
   39.8680   22.8010   37.8000 C   0  0  0  0  0  0  0  0  0  0  0  0
   38.8370   23.3330   38.6130 C   0  0  0  0  0  0  0  0  0  0  0  0
   37.8480   24.0980   38.0190 C   0  0  0  0  0  0  0  0  0  0  0  0
   37.9370   24.2860   36.6880 N   0  0  0  0  0  0  0  0  0  0  0  0
   38.9230   23.7770   35.9210 C   0  0  0  0  0  0  0  0  0  0  0  0
   39.9020   23.0290   36.4560 N   0  0  0  0  0  0  0  0  0  0  0  0
   38.7770   24.6830   30.0400 S   0  0  0  0  0  0  0  0  0  0  0  0
   39.7060   25.7640   29.5670 O   0  0  0  0  0  0  0  0  0  0  0  0
   39.0780   23.3770   29.3830 O   0  0  0  0  0  0  0  0  0  0  0  0
   36.1500   23.6640   31.5640 S   0  0  0  0  0  0  0  0  0  0  0  0
   35.8180   21.9120   31.6110 C   0  0  0  0  0  0  0  0  0  0  0  0
   34.8860   21.1410   32.2700 C   0  0  0  0  0  0  0  0  0  0  0  0
   34.8690   19.7780   32.0910 C   0  0  0  0  0  0  0  0  0  0  0  0
   35.7570   19.1840   31.2770 N   0  0  0  0  0  0  0  0  0  0  0  0
   36.6630   19.9300   30.6370 C   0  0  0  0  0  0  0  0  0  0  0  0
   36.7100   21.2780   30.7890 N   0  0  0  0  0  0  0  0  0  0  0  0
   36.8960   23.4393   34.2854 H   0  0  0  0  0  0  0  0  0  0  0  0
   40.9749   24.6569   34.3580 H   0  0  0  0  0  0  0  0  0  0  0  0
   40.9288   25.0347   31.8861 H   0  0  0  0  0  0  0  0  0  0  0  0
   40.6579   22.1911   38.2627 H   0  0  0  0  0  0  0  0  0  0  0  0
   38.8226   23.1417   39.6961 H   0  0  0  0  0  0  0  0  0  0  0  0
   37.0265   24.5328   38.6073 H   0  0  0  0  0  0  0  0  0  0  0  0
   37.5271   25.1280   29.6984 H   0  0  0  0  0  0  0  0  0  0  0  0
   34.1546   21.6163   32.9402 H   0  0  0  0  0  0  0  0  0  0  0  0
   34.1212   19.1683   32.6193 H   0  0  0  0  0  0  0  0  0  0  0  0
   37.3881   19.4395   29.9709 H   0  0  0  0  0  0  0  0  0  0  0  0
  1  2  2  0
  1  6  1  0
  2  3  1  0
  3  4  2  0
  4 11  1  0
  5  4  1  0
  6  5  2  0
  7  8  2  0
  9  8  1  0
 10  9  2  0
 11 12  2  0
 11 10  1  0
 12  7  1  0
 13  1  1  0
 14 13  2  0
 15 13  2  0
 16 17  1  0
 16  2  1  0
 17 18  2  0
 19 18  1  0
 20 19  2  0
 21 22  2  0
 21 20  1  0
 22 17  1  0
  3 23  1  0
  5 24  1  0
  6 25  1  0
  7 26  1  0
  8 27  1  0
  9 28  1  0
 13 29  1  0
 18 30  1  0
 19 31  1  0
 21 32  1  0
M  ISO  8  23  14  24  14  25  14  26  14  27  14  28  14  29  11  30  14
M  ISO  2  31  14  32  14
M  END
>  <minimizedAffinity>  (1) 
-4.87509441

>  <minimizedRMSD>  (1) 
3.08730698

$$$$
