
     RDKit          3D

 38 41  0  0  0  0  0  0  0  0999 V2000
   39.1860   21.0670   31.2610 C   0  0  0  0  0  0  0  0  0  0  0  0
   37.9670   21.0780   31.8960 C   0  0  0  0  0  0  0  0  0  0  0  0
   37.9730   21.5030   33.2110 C   0  0  0  0  0  0  0  0  0  0  0  0
   39.1110   21.9000   33.8850 C   0  0  0  0  0  0  0  0  0  0  0  0
   40.3080   21.8670   33.1920 C   0  0  0  0  0  0  0  0  0  0  0  0
   40.3780   21.4520   31.8680 C   0  0  0  0  0  0  0  0  0  0  0  0
   39.9980   22.5940   37.3660 C   0  0  0  0  0  0  0  0  0  0  0  0
   38.7860   23.0930   37.9010 C   0  0  0  0  0  0  0  0  0  0  0  0
   37.6830   23.1850   37.0530 C   0  0  0  0  0  0  0  0  0  0  0  0
   37.8300   22.7920   35.7570 N   0  0  0  0  0  0  0  0  0  0  0  0
   39.0050   22.3220   35.2920 C   0  0  0  0  0  0  0  0  0  0  0  0
   40.1010   22.2120   36.0660 N   0  0  0  0  0  0  0  0  0  0  0  0
   39.2400   20.5480   29.6090 S   0  0  0  0  0  0  0  0  0  0  0  0
   39.7600   21.6000   28.6760 O   0  0  0  0  0  0  0  0  0  0  0  0
   40.0420   19.2900   29.5550 O   0  0  0  0  0  0  0  0  0  0  0  0
   36.4400   20.5970   31.1520 S   0  0  0  0  0  0  0  0  0  0  0  0
   36.5640   19.1590   30.0990 C   0  0  0  0  0  0  0  0  0  0  0  0
   36.4910   19.2530   28.7590 N   0  0  0  0  0  0  0  0  0  0  0  0
   36.5770   18.2090   27.9160 C   0  0  0  0  0  0  0  0  0  0  0  0
   36.7510   16.9500   28.3970 N   0  0  0  0  0  0  0  0  0  0  0  0
   36.8320   16.7880   29.7170 C   0  0  0  0  0  0  0  0  0  0  0  0
   37.0100   15.4990   30.2200 C   0  0  0  0  0  0  0  0  0  0  0  0
   37.0960   15.3020   31.5820 C   0  0  0  0  0  0  0  0  0  0  0  0
   37.0040   16.3900   32.4270 C   0  0  0  0  0  0  0  0  0  0  0  0
   36.8270   17.6810   31.9470 C   0  0  0  0  0  0  0  0  0  0  0  0
   36.7430   17.8600   30.5910 C   0  0  0  0  0  0  0  0  0  0  0  0
   37.0157   21.5264   33.7522 H   0  0  0  0  0  0  0  0  0  0  0  0
   41.2305   22.1782   33.7039 H   0  0  0  0  0  0  0  0  0  0  0  0
   41.3334   21.4287   31.3233 H   0  0  0  0  0  0  0  0  0  0  0  0
   40.8791   22.5134   38.0195 H   0  0  0  0  0  0  0  0  0  0  0  0
   38.7164   23.3993   38.9552 H   0  0  0  0  0  0  0  0  0  0  0  0
   36.7187   23.5652   37.4212 H   0  0  0  0  0  0  0  0  0  0  0  0
   37.9648   20.3109   29.1679 H   0  0  0  0  0  0  0  0  0  0  0  0
   36.5061   18.3750   26.8309 H   0  0  0  0  0  0  0  0  0  0  0  0
   37.0815   14.6431   29.5327 H   0  0  0  0  0  0  0  0  0  0  0  0
   37.2362   14.2903   31.9904 H   0  0  0  0  0  0  0  0  0  0  0  0
   37.0730   16.2294   33.5130 H   0  0  0  0  0  0  0  0  0  0  0  0
   36.7562   18.5357   32.6358 H   0  0  0  0  0  0  0  0  0  0  0  0
  1  6  2  0
  1  2  1  0
  2  3  2  0
  3  4  1  0
  4 11  1  0
  5  4  2  0
  6  5  1  0
  7  8  2  0
  9  8  1  0
 10  9  2  0
 11 10  1  0
 11 12  2  0
 12  7  1  0
 13  1  1  0
 14 13  2  0
 15 13  2  0
 16  2  1  0
 17 26  1  0
 17 16  1  0
 18 17  2  0
 19 20  2  0
 19 18  1  0
 20 21  1  0
 21 22  1  0
 21 26  2  0
 22 23  2  0
 23 24  1  0
 25 24  2  0
 26 25  1  0
  3 27  1  0
  5 28  1  0
  6 29  1  0
  7 30  1  0
  8 31  1  0
  9 32  1  0
 13 33  1  0
 19 34  1  0
 22 35  1  0
 23 36  1  0
 24 37  1  0
 25 38  1  0
M  ISO  8  27  14  28  14  29  14  30  14  31  14  32  14  33  11  34  14
M  ISO  4  35  14  36  14  37  14  38  14
M  END
>  <minimizedAffinity>  (1) 
-4.32014179

>  <minimizedRMSD>  (1) 
2.68472934

$$$$
