
     RDKit          3D

 31 33  0  0  0  0  0  0  0  0999 V2000
   38.7240   21.9040   31.7200 C   0  0  0  0  0  0  0  0  0  0  0  0
   37.6860   22.6100   32.2760 C   0  0  0  0  0  0  0  0  0  0  0  0
   37.7840   22.8580   33.6400 C   0  0  0  0  0  0  0  0  0  0  0  0
   38.8130   22.4570   34.4330 C   0  0  0  0  0  0  0  0  0  0  0  0
   39.8330   21.7470   33.8180 C   0  0  0  0  0  0  0  0  0  0  0  0
   39.8240   21.4500   32.4620 C   0  0  0  0  0  0  0  0  0  0  0  0
   39.8940   22.8340   37.9120 C   0  0  0  0  0  0  0  0  0  0  0  0
   38.7640   23.3740   38.5330 C   0  0  0  0  0  0  0  0  0  0  0  0
   37.6420   23.6000   37.7420 C   0  0  0  0  0  0  0  0  0  0  0  0
   37.7010   23.2890   36.4220 N   0  0  0  0  0  0  0  0  0  0  0  0
   38.8350   22.7620   35.8640 C   0  0  0  0  0  0  0  0  0  0  0  0
   39.9390   22.5270   36.5820 N   0  0  0  0  0  0  0  0  0  0  0  0
   38.6790   21.5500   30.0240 S   0  0  0  0  0  0  0  0  0  0  0  0
   40.0430   21.4460   29.4080 O   0  0  0  0  0  0  0  0  0  0  0  0
   37.8910   20.2700   29.8640 O   0  0  0  0  0  0  0  0  0  0  0  0
   36.2910   23.1890   31.3710 S   0  0  0  0  0  0  0  0  0  0  0  0
   36.2650   24.9610   31.1470 C   0  0  0  0  0  0  0  0  0  0  0  0
   35.3960   26.0300   31.1780 C   0  0  0  0  0  0  0  0  0  0  0  0
   36.0690   27.1600   30.9000 N   0  0  0  0  0  0  0  0  0  0  0  0
   37.3530   26.8250   30.6930 C   0  0  0  0  0  0  0  0  0  0  0  0
   37.4880   25.4870   30.8410 N   0  0  0  0  0  0  0  0  0  0  0  0
   36.9669   23.4216   34.1140 H   0  0  0  0  0  0  0  0  0  0  0  0
   40.6822   21.4059   34.4283 H   0  0  0  0  0  0  0  0  0  0  0  0
   40.6418   20.8847   31.9913 H   0  0  0  0  0  0  0  0  0  0  0  0
   40.7892   22.6475   38.5234 H   0  0  0  0  0  0  0  0  0  0  0  0
   38.7620   23.6114   39.6071 H   0  0  0  0  0  0  0  0  0  0  0  0
   36.7247   24.0226   38.1779 H   0  0  0  0  0  0  0  0  0  0  0  0
   38.0785   22.5828   29.3535 H   0  0  0  0  0  0  0  0  0  0  0  0
   34.3196   25.9683   31.3962 H   0  0  0  0  0  0  0  0  0  0  0  0
   38.1638   27.5253   30.4435 H   0  0  0  0  0  0  0  0  0  0  0  0
   38.3643   24.9552   30.7401 H   0  0  0  0  0  0  0  0  0  0  0  0
  1  2  2  0
  1  6  1  0
  2  3  1  0
  3  4  2  0
  4 11  1  0
  5  4  1  0
  6  5  2  0
  7  8  2  0
  9  8  1  0
 10  9  2  0
 11 10  1  0
 11 12  2  0
 12  7  1  0
 13  1  1  0
 14 13  2  0
 15 13  2  0
 16  2  1  0
 17 18  2  0
 17 16  1  0
 19 18  1  0
 20 21  1  0
 20 19  2  0
 21 17  1  0
  3 22  1  0
  5 23  1  0
  6 24  1  0
  7 25  1  0
  8 26  1  0
  9 27  1  0
 13 28  1  0
 18 29  1  0
 20 30  1  0
 21 31  1  0
M  ISO  8  22  14  23  14  24  14  25  14  26  14  27  14  28  11  29  14
M  ISO  2  30  14  31   9
M  END
>  <minimizedAffinity>  (1) 
-4.32738161

>  <minimizedRMSD>  (1) 
2.37485981

$$$$
