
     RDKit          3D

 31 33  0  0  0  0  0  0  0  0999 V2000
   38.6330   23.8950   31.8050 C   0  0  0  0  0  0  0  0  0  0  0  0
   37.6320   23.2380   32.4710 C   0  0  0  0  0  0  0  0  0  0  0  0
   37.7400   23.1770   33.8470 C   0  0  0  0  0  0  0  0  0  0  0  0
   38.7860   23.7370   34.5520 C   0  0  0  0  0  0  0  0  0  0  0  0
   39.7690   24.3910   33.8270 C   0  0  0  0  0  0  0  0  0  0  0  0
   39.7120   24.4820   32.4370 C   0  0  0  0  0  0  0  0  0  0  0  0
   39.8390   22.8330   37.9330 C   0  0  0  0  0  0  0  0  0  0  0  0
   38.8520   23.4010   38.7440 C   0  0  0  0  0  0  0  0  0  0  0  0
   37.8330   24.0930   38.1120 C   0  0  0  0  0  0  0  0  0  0  0  0
   37.8360   24.1880   36.7490 N   0  0  0  0  0  0  0  0  0  0  0  0
   38.8140   23.6190   36.0100 C   0  0  0  0  0  0  0  0  0  0  0  0
   39.8210   22.9400   36.5840 N   0  0  0  0  0  0  0  0  0  0  0  0
   38.5160   23.9830   30.0680 S   0  0  0  0  0  0  0  0  0  0  0  0
   39.2300   25.1910   29.5110 O   0  0  0  0  0  0  0  0  0  0  0  0
   39.1070   22.7210   29.5170 O   0  0  0  0  0  0  0  0  0  0  0  0
   36.2330   22.4750   31.6840 S   0  0  0  0  0  0  0  0  0  0  0  0
   36.1130   20.7150   32.0270 C   0  0  0  0  0  0  0  0  0  0  0  0
   34.6340   20.2080   32.0740 C   0  0  0  0  0  0  0  0  0  0  0  0
   35.5180   20.1810   33.2690 C   0  0  0  0  0  0  0  0  0  0  0  0
   36.9518   22.6553   34.4096 H   0  0  0  0  0  0  0  0  0  0  0  0
   40.6145   24.8493   34.3608 H   0  0  0  0  0  0  0  0  0  0  0  0
   40.4958   25.0010   31.8657 H   0  0  0  0  0  0  0  0  0  0  0  0
   40.6610   22.2784   38.4092 H   0  0  0  0  0  0  0  0  0  0  0  0
   38.8837   23.3022   39.8391 H   0  0  0  0  0  0  0  0  0  0  0  0
   37.0301   24.5610   38.7005 H   0  0  0  0  0  0  0  0  0  0  0  0
   37.2020   24.1131   29.7026 H   0  0  0  0  0  0  0  0  0  0  0  0
   37.0654   20.4968   31.5217 H   0  0  0  0  0  0  0  0  0  0  0  0
   33.7994   20.9222   32.0160 H   0  0  0  0  0  0  0  0  0  0  0  0
   34.0326   19.4728   31.5191 H   0  0  0  0  0  0  0  0  0  0  0  0
   35.8655   19.2138   33.6612 H   0  0  0  0  0  0  0  0  0  0  0  0
   35.4196   20.5771   34.2905 H   0  0  0  0  0  0  0  0  0  0  0  0
  1  6  2  0
  1  2  1  0
  2  3  2  0
  3  4  1  0
  4 11  1  0
  5  4  2  0
  6  5  1  0
  7  8  2  0
  9  8  1  0
 10  9  2  0
 11 12  2  0
 11 10  1  0
 12  7  1  0
 13  1  1  0
 14 13  2  0
 15 13  2  0
 16 17  1  0
 16  2  1  0
 17 18  1  0
 17 19  1  0
 18 19  1  0
  3 20  1  0
  5 21  1  0
  6 22  1  0
  7 23  1  0
  8 24  1  0
  9 25  1  0
 13 26  1  0
 17 27  1  0
 18 28  1  0
 18 29  1  0
 19 30  1  0
 19 31  1  0
M  ISO  8  20  14  21  14  22  14  23  14  24  14  25  14  26  11  27  13
M  ISO  4  28  13  29  13  30  13  31  13
M  END
>  <minimizedAffinity>  (1) 
-4.381495

>  <minimizedRMSD>  (1) 
2.44478536

$$$$
