
     RDKit          3D

 36 38  0  0  0  0  0  0  0  0999 V2000
   39.0660   20.8470   31.5180 C   0  0  0  0  0  0  0  0  0  0  0  0
   37.8730   21.0240   32.1420 C   0  0  0  0  0  0  0  0  0  0  0  0
   37.8220   21.5050   33.4300 C   0  0  0  0  0  0  0  0  0  0  0  0
   38.9600   21.8270   34.1320 C   0  0  0  0  0  0  0  0  0  0  0  0
   40.1980   21.6490   33.4940 C   0  0  0  0  0  0  0  0  0  0  0  0
   40.2720   21.1650   32.1970 C   0  0  0  0  0  0  0  0  0  0  0  0
   39.7810   22.7800   37.5820 C   0  0  0  0  0  0  0  0  0  0  0  0
   38.6160   23.3800   38.0260 C   0  0  0  0  0  0  0  0  0  0  0  0
   37.5660   23.4490   37.1320 C   0  0  0  0  0  0  0  0  0  0  0  0
   37.7110   22.9380   35.8820 N   0  0  0  0  0  0  0  0  0  0  0  0
   38.9000   22.3520   35.5010 C   0  0  0  0  0  0  0  0  0  0  0  0
   39.9120   22.2730   36.3280 N   0  0  0  0  0  0  0  0  0  0  0  0
   39.1690   20.0920   30.0060 S   0  0  0  0  0  0  0  0  0  0  0  0
   39.1640   21.1880   28.9000 O   0  0  0  0  0  0  0  0  0  0  0  0
   40.4460   19.3250   29.9850 O   0  0  0  0  0  0  0  0  0  0  0  0
   38.2410   18.8840   29.3510 C   0  0  0  0  0  0  0  0  0  0  0  0
   37.4880   18.9990   28.1580 C   0  0  0  0  0  0  0  0  0  0  0  0
   36.7020   18.0430   27.5610 C   0  0  0  0  0  0  0  0  0  0  0  0
   36.6530   16.8460   28.2090 C   0  0  0  0  0  0  0  0  0  0  0  0
   37.3470   16.6540   29.3570 C   0  0  0  0  0  0  0  0  0  0  0  0
   38.0790   17.6210   29.8660 N   0  0  0  0  0  0  0  0  0  0  0  0
   36.3360   20.7010   31.3150 S   0  0  0  0  0  0  0  0  0  0  0  0
   34.9180   20.8560   32.4110 C   0  0  0  0  0  0  0  0  0  0  0  0
   33.8170   20.1990   31.9420 F   0  0  0  0  0  0  0  0  0  0  0  0
   35.2550   20.2120   33.5980 F   0  0  0  0  0  0  0  0  0  0  0  0
   34.6790   22.1620   32.7510 F   0  0  0  0  0  0  0  0  0  0  0  0
   36.8422   21.6359   33.9125 H   0  0  0  0  0  0  0  0  0  0  0  0
   41.1245   21.8977   34.0322 H   0  0  0  0  0  0  0  0  0  0  0  0
   41.2458   21.0299   31.7035 H   0  0  0  0  0  0  0  0  0  0  0  0
   40.6352   22.7106   38.2716 H   0  0  0  0  0  0  0  0  0  0  0  0
   38.5301   23.7839   39.0455 H   0  0  0  0  0  0  0  0  0  0  0  0
   36.6159   23.9159   37.4309 H   0  0  0  0  0  0  0  0  0  0  0  0
   37.5381   19.9717   27.6468 H   0  0  0  0  0  0  0  0  0  0  0  0
   36.1520   18.2309   26.6271 H   0  0  0  0  0  0  0  0  0  0  0  0
   36.0445   16.0276   27.7967 H   0  0  0  0  0  0  0  0  0  0  0  0
   37.2977   15.6809   29.8676 H   0  0  0  0  0  0  0  0  0  0  0  0
  1  2  2  0
  1  6  1  0
  2  3  1  0
  3  4  2  0
  4 11  1  0
  5  4  1  0
  6  5  2  0
  7  8  2  0
  9  8  1  0
 10  9  2  0
 11 10  1  0
 11 12  2  0
 12  7  1  0
 13  1  1  0
 14 13  2  0
 15 13  2  0
 16 21  1  0
 16 13  1  0
 17 16  2  0
 18 17  1  0
 18 19  2  0
 19 20  1  0
 20 21  2  0
 22  2  1  0
 22 23  1  0
 23 26  1  0
 23 25  1  0
 24 23  1  0
  3 27  1  0
  5 28  1  0
  6 29  1  0
  7 30  1  0
  8 31  1  0
  9 32  1  0
 17 33  1  0
 18 34  1  0
 19 35  1  0
 20 36  1  0
M  ISO  8  27  14  28  14  29  14  30  14  31  14  32  14  33  14  34  14
M  ISO  2  35  14  36  14
M  END
>  <minimizedAffinity>  (1) 
-4.75599194

>  <minimizedRMSD>  (1) 
1.92820168

$$$$
