
     RDKit          3D

 34 36  0  0  0  0  0  0  0  0999 V2000
   39.0570   20.9710   31.5760 C   0  0  0  0  0  0  0  0  0  0  0  0
   37.9180   20.9060   32.3110 C   0  0  0  0  0  0  0  0  0  0  0  0
   37.8950   21.3660   33.6110 C   0  0  0  0  0  0  0  0  0  0  0  0
   39.0100   21.9050   34.2130 C   0  0  0  0  0  0  0  0  0  0  0  0
   40.1830   21.9740   33.4580 C   0  0  0  0  0  0  0  0  0  0  0  0
   40.2370   21.5200   32.1480 C   0  0  0  0  0  0  0  0  0  0  0  0
   39.8900   22.7320   37.6790 C   0  0  0  0  0  0  0  0  0  0  0  0
   38.7460   23.3590   38.1460 C   0  0  0  0  0  0  0  0  0  0  0  0
   37.6920   23.4860   37.2620 C   0  0  0  0  0  0  0  0  0  0  0  0
   37.8160   23.0030   35.9990 N   0  0  0  0  0  0  0  0  0  0  0  0
   38.9730   22.3920   35.5920 C   0  0  0  0  0  0  0  0  0  0  0  0
   39.9880   22.2590   36.4120 N   0  0  0  0  0  0  0  0  0  0  0  0
   39.1580   20.2510   30.0450 S   0  0  0  0  0  0  0  0  0  0  0  0
   39.1050   21.3760   28.9670 O   0  0  0  0  0  0  0  0  0  0  0  0
   40.4620   19.5360   29.9880 O   0  0  0  0  0  0  0  0  0  0  0  0
   38.2320   19.0000   29.4180 C   0  0  0  0  0  0  0  0  0  0  0  0
   37.4220   19.0370   28.2550 C   0  0  0  0  0  0  0  0  0  0  0  0
   36.8480   17.8070   28.1130 C   0  0  0  0  0  0  0  0  0  0  0  0
   37.2690   17.0280   29.1270 C   0  0  0  0  0  0  0  0  0  0  0  0
   38.0490   17.7420   29.8380 O   0  0  0  0  0  0  0  0  0  0  0  0
   36.4050   20.2920   31.6110 S   0  0  0  0  0  0  0  0  0  0  0  0
   34.9490   20.9320   32.4470 C   0  0  0  0  0  0  0  0  0  0  0  0
   33.7930   20.3560   32.0130 F   0  0  0  0  0  0  0  0  0  0  0  0
   35.0680   20.5630   33.7820 F   0  0  0  0  0  0  0  0  0  0  0  0
   34.9230   22.3030   32.4530 F   0  0  0  0  0  0  0  0  0  0  0  0
   36.9583   21.3004   34.1839 H   0  0  0  0  0  0  0  0  0  0  0  0
   41.0887   22.3999   33.9144 H   0  0  0  0  0  0  0  0  0  0  0  0
   41.1689   21.5832   31.5670 H   0  0  0  0  0  0  0  0  0  0  0  0
   40.7469   22.6141   38.3585 H   0  0  0  0  0  0  0  0  0  0  0  0
   38.6799   23.7392   39.1761 H   0  0  0  0  0  0  0  0  0  0  0  0
   36.7590   23.9749   37.5790 H   0  0  0  0  0  0  0  0  0  0  0  0
   37.2817   19.9005   27.5881 H   0  0  0  0  0  0  0  0  0  0  0  0
   36.1605   17.5046   27.3093 H   0  0  0  0  0  0  0  0  0  0  0  0
   36.9931   15.9785   29.3069 H   0  0  0  0  0  0  0  0  0  0  0  0
  1  6  1  0
  1  2  2  0
  2  3  1  0
  3  4  2  0
  4 11  1  0
  5  4  1  0
  6  5  2  0
  7  8  2  0
  9  8  1  0
 10  9  2  0
 11 10  1  0
 11 12  2  0
 12  7  1  0
 13  1  1  0
 14 13  2  0
 15 13  2  0
 16 20  1  0
 16 13  1  0
 17 16  2  0
 18 17  1  0
 18 19  2  0
 19 20  1  0
 21  2  1  0
 21 22  1  0
 22 25  1  0
 22 24  1  0
 23 22  1  0
  3 26  1  0
  5 27  1  0
  6 28  1  0
  7 29  1  0
  8 30  1  0
  9 31  1  0
 17 32  1  0
 18 33  1  0
 19 34  1  0
M  ISO  8  26  14  27  14  28  14  29  14  30  14  31  14  32  14  33  14
M  ISO  1  34  14
M  END
>  <minimizedAffinity>  (1) 
-4.69497347

>  <minimizedRMSD>  (1) 
1.65221119

$$$$
