
     RDKit          3D

 34 36  0  0  0  0  0  0  0  0999 V2000
   38.9680   21.1440   32.0060 C   0  0  0  0  0  0  0  0  0  0  0  0
   37.7920   21.3660   32.6470 C   0  0  0  0  0  0  0  0  0  0  0  0
   37.7750   21.8110   33.9480 C   0  0  0  0  0  0  0  0  0  0  0  0
   38.9310   22.0520   34.6530 C   0  0  0  0  0  0  0  0  0  0  0  0
   40.1510   21.8290   34.0010 C   0  0  0  0  0  0  0  0  0  0  0  0
   40.2000   21.3800   32.6940 C   0  0  0  0  0  0  0  0  0  0  0  0
   39.8390   22.9230   38.1030 C   0  0  0  0  0  0  0  0  0  0  0  0
   38.6790   23.4980   38.5950 C   0  0  0  0  0  0  0  0  0  0  0  0
   37.6050   23.5760   37.7310 C   0  0  0  0  0  0  0  0  0  0  0  0
   37.7290   23.0970   36.4660 N   0  0  0  0  0  0  0  0  0  0  0  0
   38.9040   22.5380   36.0360 C   0  0  0  0  0  0  0  0  0  0  0  0
   39.9410   22.4500   36.8320 N   0  0  0  0  0  0  0  0  0  0  0  0
   39.0030   20.4310   30.4600 S   0  0  0  0  0  0  0  0  0  0  0  0
   38.7690   21.5660   29.4200 O   0  0  0  0  0  0  0  0  0  0  0  0
   40.3770   19.8560   30.3020 O   0  0  0  0  0  0  0  0  0  0  0  0
   38.1810   19.2340   29.8130 C   0  0  0  0  0  0  0  0  0  0  0  0
   37.1590   19.1270   28.8660 C   0  0  0  0  0  0  0  0  0  0  0  0
   36.6860   17.9200   28.5760 C   0  0  0  0  0  0  0  0  0  0  0  0
   37.0870   16.7190   29.1040 C   0  0  0  0  0  0  0  0  0  0  0  0
   38.3820   17.3640   30.2390 S   0  0  0  0  0  0  0  0  0  0  0  0
   36.2330   21.1430   31.8240 S   0  0  0  0  0  0  0  0  0  0  0  0
   35.2780   19.7860   32.5240 C   0  0  0  0  0  0  0  0  0  0  0  0
   34.0680   19.6290   31.9070 F   0  0  0  0  0  0  0  0  0  0  0  0
   35.9820   18.6260   32.2730 F   0  0  0  0  0  0  0  0  0  0  0  0
   35.1890   19.8900   33.8850 F   0  0  0  0  0  0  0  0  0  0  0  0
   36.8060   21.9796   34.4405 H   0  0  0  0  0  0  0  0  0  0  0  0
   41.0910   22.0153   34.5410 H   0  0  0  0  0  0  0  0  0  0  0  0
   41.1648   21.2081   32.1944 H   0  0  0  0  0  0  0  0  0  0  0  0
   40.7127   22.8458   38.7668 H   0  0  0  0  0  0  0  0  0  0  0  0
   38.6163   23.8751   39.6264 H   0  0  0  0  0  0  0  0  0  0  0  0
   36.6565   24.0224   38.0643 H   0  0  0  0  0  0  0  0  0  0  0  0
   36.7550   20.0227   28.3715 H   0  0  0  0  0  0  0  0  0  0  0  0
   35.8812   17.8789   27.8273 H   0  0  0  0  0  0  0  0  0  0  0  0
   36.7422   15.6927   28.9095 H   0  0  0  0  0  0  0  0  0  0  0  0
  1  2  2  0
  1  6  1  0
  2  3  1  0
  3  4  2  0
  4 11  1  0
  5  4  1  0
  6  5  2  0
  7  8  2  0
  9  8  1  0
 10  9  2  0
 11 10  1  0
 11 12  2  0
 12  7  1  0
 13  1  1  0
 14 13  2  0
 15 13  2  0
 16 20  1  0
 16 13  1  0
 17 16  2  0
 18 17  1  0
 18 19  2  0
 19 20  1  0
 21 22  1  0
 21  2  1  0
 22 25  1  0
 23 22  1  0
 24 22  1  0
  3 26  1  0
  5 27  1  0
  6 28  1  0
  7 29  1  0
  8 30  1  0
  9 31  1  0
 17 32  1  0
 18 33  1  0
 19 34  1  0
M  ISO  8  26  14  27  14  28  14  29  14  30  14  31  14  32  14  33  14
M  ISO  1  34  14
M  END
>  <minimizedAffinity>  (1) 
-4.77310848

>  <minimizedRMSD>  (1) 
2.00591779

$$$$
