
     RDKit          3D

 41 44  0  0  0  0  0  0  0  0999 V2000
   38.3650   22.5700   32.0410 C   0  0  0  0  0  0  0  0  0  0  0  0
   37.7500   21.7220   32.8840 C   0  0  0  0  0  0  0  0  0  0  0  0
   37.8660   21.9580   34.2450 C   0  0  0  0  0  0  0  0  0  0  0  0
   38.5760   23.0140   34.7540 C   0  0  0  0  0  0  0  0  0  0  0  0
   39.1900   23.8690   33.8590 C   0  0  0  0  0  0  0  0  0  0  0  0
   39.0900   23.6580   32.4870 C   0  0  0  0  0  0  0  0  0  0  0  0
   39.7930   22.8810   38.2150 C   0  0  0  0  0  0  0  0  0  0  0  0
   38.8260   23.6090   38.9030 C   0  0  0  0  0  0  0  0  0  0  0  0
   37.7650   24.1360   38.1570 C   0  0  0  0  0  0  0  0  0  0  0  0
   37.7190   23.9230   36.8130 N   0  0  0  0  0  0  0  0  0  0  0  0
   38.6990   23.2010   36.2030 C   0  0  0  0  0  0  0  0  0  0  0  0
   39.7260   22.6820   36.8780 N   0  0  0  0  0  0  0  0  0  0  0  0
   38.4140   22.4470   30.3660 S   0  0  0  0  0  0  0  0  0  0  0  0
   38.5500   23.7170   29.5900 O   0  0  0  0  0  0  0  0  0  0  0  0
   38.2620   21.1060   29.8860 O   0  0  0  0  0  0  0  0  0  0  0  0
   40.1320   22.1180   29.9520 C   0  0  0  0  0  0  0  0  0  0  0  0
   41.1310   21.7320   30.8580 C   0  0  0  0  0  0  0  0  0  0  0  0
   42.3240   21.5040   30.2880 N   0  0  0  0  0  0  0  0  0  0  0  0
   42.1570   21.7290   28.9780 C   0  0  0  0  0  0  0  0  0  0  0  0
   42.8840   21.7030   27.8110 C   0  0  0  0  0  0  0  0  0  0  0  0
   42.4210   21.9960   26.5510 C   0  0  0  0  0  0  0  0  0  0  0  0
   41.0980   22.3580   26.4050 C   0  0  0  0  0  0  0  0  0  0  0  0
   40.3050   22.4070   27.5320 C   0  0  0  0  0  0  0  0  0  0  0  0
   40.8180   22.0990   28.8020 C   0  0  0  0  0  0  0  0  0  0  0  0
   36.7780   20.3470   32.3300 S   0  0  0  0  0  0  0  0  0  0  0  0
   35.1250   20.8950   31.8430 C   0  0  0  0  0  0  0  0  0  0  0  0
   34.1880   19.8930   31.9650 F   0  0  0  0  0  0  0  0  0  0  0  0
   34.7060   21.8610   32.7410 F   0  0  0  0  0  0  0  0  0  0  0  0
   35.1920   21.3950   30.5620 F   0  0  0  0  0  0  0  0  0  0  0  0
   37.3683   21.2702   34.9445 H   0  0  0  0  0  0  0  0  0  0  0  0
   39.7653   24.7276   34.2357 H   0  0  0  0  0  0  0  0  0  0  0  0
   39.5764   24.3410   31.7750 H   0  0  0  0  0  0  0  0  0  0  0  0
   40.6378   22.4543   38.7756 H   0  0  0  0  0  0  0  0  0  0  0  0
   38.8930   23.7640   39.9900 H   0  0  0  0  0  0  0  0  0  0  0  0
   36.9743   24.7179   38.6531 H   0  0  0  0  0  0  0  0  0  0  0  0
   40.9524   21.6258   31.9382 H   0  0  0  0  0  0  0  0  0  0  0  0
   43.1918   21.2148   30.7614 H   0  0  0  0  0  0  0  0  0  0  0  0
   43.9434   21.4189   27.8947 H   0  0  0  0  0  0  0  0  0  0  0  0
   43.0897   21.9431   25.6792 H   0  0  0  0  0  0  0  0  0  0  0  0
   40.6860   22.6014   25.4146 H   0  0  0  0  0  0  0  0  0  0  0  0
   39.2475   22.6936   27.4338 H   0  0  0  0  0  0  0  0  0  0  0  0
  1  6  1  0
  1  2  2  0
  2  3  1  0
  3  4  2  0
  4 11  1  0
  5  4  1  0
  6  5  2  0
  7  8  2  0
  9  8  1  0
 10  9  2  0
 11 10  1  0
 11 12  2  0
 12  7  1  0
 13  1  1  0
 14 13  2  0
 15 13  2  0
 16 13  1  0
 16 17  2  0
 18 17  1  0
 19 18  1  0
 20 19  2  0
 21 20  1  0
 22 21  2  0
 22 23  1  0
 23 24  2  0
 24 19  1  0
 24 16  1  0
 25  2  1  0
 26 27  1  0
 26 25  1  0
 26 28  1  0
 29 26  1  0
  3 30  1  0
  5 31  1  0
  6 32  1  0
  7 33  1  0
  8 34  1  0
  9 35  1  0
 17 36  1  0
 18 37  1  0
 20 38  1  0
 21 39  1  0
 22 40  1  0
 23 41  1  0
M  ISO  8  30  14  31  14  32  14  33  14  34  14  35  14  36  14  37   9
M  ISO  4  38  14  39  14  40  14  41  14
M  END
>  <minimizedAffinity>  (1) 
-4.7218194

>  <minimizedRMSD>  (1) 
0.781068563

$$$$
