
     RDKit          3D

 57 59  0  0  0  0  0  0  0  0999 V2000
   37.9000   22.7140   34.6880 N   0  0  0  0  0  0  0  0  0  0  0  0
   38.4030   21.8140   33.7920 C   0  0  0  0  0  0  0  0  0  0  0  0
   38.3590   22.3550   32.5480 N   0  0  0  0  0  0  0  0  0  0  0  0
   37.8280   23.5900   32.6750 C   0  0  0  0  0  0  0  0  0  0  0  0
   37.5550   23.7920   33.9700 N   0  0  0  0  0  0  0  0  0  0  0  0
   37.7350   22.6170   36.1040 C   0  0  0  0  0  0  0  0  0  0  0  0
   38.6790   23.5460   36.8610 C   0  0  0  0  0  0  0  0  0  0  0  0
   41.9450   21.6980   36.8810 C   0  0  0  0  0  0  0  0  0  0  0  0
   40.6370   22.0150   37.1730 C   0  0  0  0  0  0  0  0  0  0  0  0
   40.0570   23.1600   36.5910 C   0  0  0  0  0  0  0  0  0  0  0  0
   40.8070   23.9090   35.7620 N   0  0  0  0  0  0  0  0  0  0  0  0
   42.0960   23.5820   35.4850 C   0  0  0  0  0  0  0  0  0  0  0  0
   42.6500   22.4710   36.0540 N   0  0  0  0  0  0  0  0  0  0  0  0
   42.5480   20.4910   37.5000 C   0  0  0  0  0  0  0  0  0  0  0  0
   43.2180   19.5910   36.5300 C   0  0  0  0  0  0  0  0  0  0  0  0
   38.4340   23.3880   38.3450 C   0  0  0  0  0  0  0  0  0  0  0  0
   38.3520   24.9610   36.4500 C   0  0  0  0  0  0  0  0  0  0  0  0
   37.6000   24.5420   31.5240 C   0  0  0  0  0  0  0  0  0  0  0  0
   36.1450   24.4040   31.1260 C   0  0  0  0  0  0  0  0  0  0  0  0
   38.4070   24.1060   30.3250 C   0  0  0  0  0  0  0  0  0  0  0  0
   37.8740   25.9540   31.9240 C   0  0  0  0  0  0  0  0  0  0  0  0
   37.8780   26.9090   30.8540 N   0  0  0  0  0  0  0  0  0  0  0  0
   38.9830   26.9430   30.0550 C   0  0  0  0  0  0  0  0  0  0  0  0
   39.1540   27.7930   28.9800 C   0  0  0  0  0  0  0  0  0  0  0  0
   38.1110   28.6590   28.7220 C   0  0  0  0  0  0  0  0  0  0  0  0
   38.2030   29.5700   27.6320 N   0  0  0  0  0  0  0  0  0  0  0  0
   37.0130   28.6370   29.5040 N   0  0  0  0  0  0  0  0  0  0  0  0
   36.9070   27.7810   30.5400 C   0  0  0  0  0  0  0  0  0  0  0  0
   35.8870   27.7740   31.2500 O   0  0  0  0  0  0  0  0  0  0  0  0
   38.7828   20.8116   34.0390 H   0  0  0  0  0  0  0  0  0  0  0  0
   36.6982   22.8821   36.3585 H   0  0  0  0  0  0  0  0  0  0  0  0
   37.9694   21.5840   36.4005 H   0  0  0  0  0  0  0  0  0  0  0  0
   40.0506   21.3806   37.8539 H   0  0  0  0  0  0  0  0  0  0  0  0
   42.6911   24.2095   34.8052 H   0  0  0  0  0  0  0  0  0  0  0  0
   43.2921   20.8168   38.2417 H   0  0  0  0  0  0  0  0  0  0  0  0
   41.7250   19.9182   37.9522 H   0  0  0  0  0  0  0  0  0  0  0  0
   43.7887   18.8244   37.0748 H   0  0  0  0  0  0  0  0  0  0  0  0
   42.4607   19.1042   35.8979 H   0  0  0  0  0  0  0  0  0  0  0  0
   43.9016   20.1769   35.8979 H   0  0  0  0  0  0  0  0  0  0  0  0
   39.2298   23.9012   38.9047 H   0  0  0  0  0  0  0  0  0  0  0  0
   37.4602   23.8287   38.6048 H   0  0  0  0  0  0  0  0  0  0  0  0
   38.4338   22.3191   38.6048 H   0  0  0  0  0  0  0  0  0  0  0  0
   38.2090   25.5799   37.3481 H   0  0  0  0  0  0  0  0  0  0  0  0
   39.1794   25.3694   35.8512 H   0  0  0  0  0  0  0  0  0  0  0  0
   37.4293   24.9649   35.8512 H   0  0  0  0  0  0  0  0  0  0  0  0
   35.5215   24.3449   32.0303 H   0  0  0  0  0  0  0  0  0  0  0  0
   35.8436   25.2776   30.5293 H   0  0  0  0  0  0  0  0  0  0  0  0
   36.0132   23.4893   30.5293 H   0  0  0  0  0  0  0  0  0  0  0  0
   39.3277   23.6086   30.6639 H   0  0  0  0  0  0  0  0  0  0  0  0
   37.8137   23.4057   29.7187 H   0  0  0  0  0  0  0  0  0  0  0  0
   38.6676   24.9861   29.7187 H   0  0  0  0  0  0  0  0  0  0  0  0
   37.1019   26.2575   32.6463 H   0  0  0  0  0  0  0  0  0  0  0  0
   38.8936   25.9586   32.3368 H   0  0  0  0  0  0  0  0  0  0  0  0
   39.7986   26.2412   30.2839 H   0  0  0  0  0  0  0  0  0  0  0  0
   40.0668   27.7805   28.3663 H   0  0  0  0  0  0  0  0  0  0  0  0
   37.4270   30.2182   27.4357 H   0  0  0  0  0  0  0  0  0  0  0  0
   39.0456   29.5809   27.0397 H   0  0  0  0  0  0  0  0  0  0  0  0
  1  6  1  0
  2  1  1  0
  3  4  1  0
  3  2  2  0
  4  5  2  0
  5  1  1  0
  6  7  1  0
  7 16  1  0
  8  9  2  0
  8 14  1  0
 10  7  1  0
 10  9  1  0
 11 10  2  0
 12 11  1  0
 12 13  2  0
 13  8  1  0
 15 14  1  0
 17  7  1  0
 18 21  1  0
 18  4  1  0
 19 18  1  0
 20 18  1  0
 22 21  1  0
 23 22  1  0
 24 23  2  0
 25 24  1  0
 25 27  2  0
 26 25  1  0
 27 28  1  0
 28 22  1  0
 28 29  2  0
  2 30  1  0
  6 31  1  0
  6 32  1  0
  9 33  1  0
 12 34  1  0
 14 35  1  0
 14 36  1  0
 15 37  1  0
 15 38  1  0
 15 39  1  0
 16 40  1  0
 16 41  1  0
 16 42  1  0
 17 43  1  0
 17 44  1  0
 17 45  1  0
 19 46  1  0
 19 47  1  0
 19 48  1  0
 20 49  1  0
 20 50  1  0
 20 51  1  0
 21 52  1  0
 21 53  1  0
 23 54  1  0
 24 55  1  0
 26 56  1  0
 26 57  1  0
M  ISO  8  30  14  31   8  32   8  33  14  34  14  35   8  36   8  37   8
M  ISO  8  38   8  39   8  40   8  41   8  42   8  43   8  44   8  45   8
M  ISO  8  46   8  47   8  48   8  49   8  50   8  51   8  52   8  53   8
M  ISO  2  54  14  55  14
M  END
>  <minimizedAffinity>  (1) 
-5.56283569

>  <minimizedRMSD>  (1) 
0.418616802

$$$$
