
     RDKit          3D

 33 35  0  0  0  0  0  0  0  0999 V2000
   39.0440   21.1010   31.5610 C   0  0  0  0  0  0  0  0  0  0  0  0
   37.9180   20.9870   32.3090 C   0  0  0  0  0  0  0  0  0  0  0  0
   37.9030   21.4140   33.6220 C   0  0  0  0  0  0  0  0  0  0  0  0
   39.0090   21.9670   34.2250 C   0  0  0  0  0  0  0  0  0  0  0  0
   40.1720   22.0870   33.4550 C   0  0  0  0  0  0  0  0  0  0  0  0
   40.2200   21.6690   32.1370 C   0  0  0  0  0  0  0  0  0  0  0  0
   39.8980   22.7220   37.7060 C   0  0  0  0  0  0  0  0  0  0  0  0
   38.7560   23.3400   38.1890 C   0  0  0  0  0  0  0  0  0  0  0  0
   37.7020   23.4840   37.3100 C   0  0  0  0  0  0  0  0  0  0  0  0
   37.8200   23.0270   36.0360 N   0  0  0  0  0  0  0  0  0  0  0  0
   38.9790   22.4230   35.6150 C   0  0  0  0  0  0  0  0  0  0  0  0
   39.9940   22.2730   36.4290 N   0  0  0  0  0  0  0  0  0  0  0  0
   39.1510   20.4280   30.0080 S   0  0  0  0  0  0  0  0  0  0  0  0
   39.1290   21.5860   28.9710 O   0  0  0  0  0  0  0  0  0  0  0  0
   40.4550   19.7120   29.9420 O   0  0  0  0  0  0  0  0  0  0  0  0
   38.2280   19.1750   29.3790 C   0  0  0  0  0  0  0  0  0  0  0  0
   38.4010   17.7170   29.8700 C   0  0  0  0  0  0  0  0  0  0  0  0
   37.3090   16.8130   28.9850 S   0  0  0  0  0  0  0  0  0  0  0  0
   36.6440   18.2410   28.0140 C   0  0  0  0  0  0  0  0  0  0  0  0
   37.2860   19.0290   28.4780 N   0  0  0  0  0  0  0  0  0  0  0  0
   36.4210   20.3370   31.6110 S   0  0  0  0  0  0  0  0  0  0  0  0
   34.9580   20.9430   32.4470 C   0  0  0  0  0  0  0  0  0  0  0  0
   33.8150   20.3420   31.9990 F   0  0  0  0  0  0  0  0  0  0  0  0
   35.0780   20.5750   33.7770 F   0  0  0  0  0  0  0  0  0  0  0  0
   34.9070   22.3200   32.4620 F   0  0  0  0  0  0  0  0  0  0  0  0
   36.9762   21.3085   34.2051 H   0  0  0  0  0  0  0  0  0  0  0  0
   41.0722   22.5256   33.9103 H   0  0  0  0  0  0  0  0  0  0  0  0
   41.1426   21.7720   31.5469 H   0  0  0  0  0  0  0  0  0  0  0  0
   40.7566   22.5907   38.3810 H   0  0  0  0  0  0  0  0  0  0  0  0
   38.6923   23.6997   39.2266 H   0  0  0  0  0  0  0  0  0  0  0  0
   36.7701   23.9668   37.6395 H   0  0  0  0  0  0  0  0  0  0  0  0
   39.0969   17.3525   30.6400 H   0  0  0  0  0  0  0  0  0  0  0  0
   35.8697   18.2961   27.2347 H   0  0  0  0  0  0  0  0  0  0  0  0
  1  6  1  0
  1  2  2  0
  2  3  1  0
  3  4  2  0
  4 11  1  0
  5  4  1  0
  6  5  2  0
  7  8  2  0
  9  8  1  0
 10  9  2  0
 11 10  1  0
 11 12  2  0
 12  7  1  0
 13  1  1  0
 14 13  2  0
 15 13  2  0
 16 17  2  0
 16 13  1  0
 18 17  1  0
 19 20  2  0
 19 18  1  0
 20 16  1  0
 21  2  1  0
 21 22  1  0
 22 25  1  0
 22 24  1  0
 23 22  1  0
  3 26  1  0
  5 27  1  0
  6 28  1  0
  7 29  1  0
  8 30  1  0
  9 31  1  0
 17 32  1  0
 19 33  1  0
M  ISO  8  26  14  27  14  28  14  29  14  30  14  31  14  32  14  33  14
M  END
>  <minimizedAffinity>  (1) 
-4.68831396

>  <minimizedRMSD>  (1) 
1.59543157

$$$$
