
     RDKit          3D

 30 31  0  0  0  0  0  0  0  0999 V2000
   38.8050   21.5110   31.9350 C   0  0  0  0  0  0  0  0  0  0  0  0
   37.8360   21.0570   32.8050 C   0  0  0  0  0  0  0  0  0  0  0  0
   37.8480   21.4770   34.1160 C   0  0  0  0  0  0  0  0  0  0  0  0
   38.7930   22.3360   34.5960 C   0  0  0  0  0  0  0  0  0  0  0  0
   39.7760   22.7990   33.7140 C   0  0  0  0  0  0  0  0  0  0  0  0
   39.7980   22.4020   32.3870 C   0  0  0  0  0  0  0  0  0  0  0  0
   39.7030   22.9480   38.1070 C   0  0  0  0  0  0  0  0  0  0  0  0
   38.6220   23.6720   38.5850 C   0  0  0  0  0  0  0  0  0  0  0  0
   37.5980   23.9390   37.6970 C   0  0  0  0  0  0  0  0  0  0  0  0
   37.6980   23.4870   36.4190 N   0  0  0  0  0  0  0  0  0  0  0  0
   38.7850   22.7770   35.9980 C   0  0  0  0  0  0  0  0  0  0  0  0
   39.7680   22.5120   36.8240 N   0  0  0  0  0  0  0  0  0  0  0  0
   38.9190   20.8740   30.3830 S   0  0  0  0  0  0  0  0  0  0  0  0
   39.0270   22.0490   29.3650 O   0  0  0  0  0  0  0  0  0  0  0  0
   40.1430   20.0220   30.3690 O   0  0  0  0  0  0  0  0  0  0  0  0
   37.8870   19.9170   29.5030 C   0  0  0  0  0  0  0  0  0  0  0  0
   36.5270   19.9770   32.2620 S   0  0  0  0  0  0  0  0  0  0  0  0
   35.0450   20.8900   31.8210 C   0  0  0  0  0  0  0  0  0  0  0  0
   33.9150   20.1230   31.8810 F   0  0  0  0  0  0  0  0  0  0  0  0
   34.8720   21.8760   32.7850 F   0  0  0  0  0  0  0  0  0  0  0  0
   35.1880   21.5700   30.6490 F   0  0  0  0  0  0  0  0  0  0  0  0
   37.0694   21.1075   34.7996 H   0  0  0  0  0  0  0  0  0  0  0  0
   40.5468   23.4922   34.0819 H   0  0  0  0  0  0  0  0  0  0  0  0
   40.5736   22.7742   31.7015 H   0  0  0  0  0  0  0  0  0  0  0  0
   40.5347   22.7197   38.7897 H   0  0  0  0  0  0  0  0  0  0  0  0
   38.5812   24.0195   39.6279 H   0  0  0  0  0  0  0  0  0  0  0  0
   36.7144   24.5092   38.0195 H   0  0  0  0  0  0  0  0  0  0  0  0
   37.2559   19.3318   30.1880 H   0  0  0  0  0  0  0  0  0  0  0  0
   37.2499   20.5511   28.8689 H   0  0  0  0  0  0  0  0  0  0  0  0
   38.4713   19.2340   28.8689 H   0  0  0  0  0  0  0  0  0  0  0  0
  1  6  2  0
  1  2  1  0
  2  3  2  0
  3  4  1  0
  4 11  1  0
  5  4  2  0
  6  5  1  0
  7  8  2  0
  9  8  1  0
 10  9  2  0
 11 10  1  0
 11 12  2  0
 12  7  1  0
 13  1  1  0
 14 13  2  0
 15 13  2  0
 16 13  1  0
 17  2  1  0
 18 19  1  0
 18 17  1  0
 18 20  1  0
 21 18  1  0
  3 22  1  0
  5 23  1  0
  6 24  1  0
  7 25  1  0
  8 26  1  0
  9 27  1  0
 16 28  1  0
 16 29  1  0
 16 30  1  0
M  ISO  8  22  14  23  14  24  14  25  14  26  14  27  14  28   8  29   8
M  ISO  1  30   8
M  END
>  <minimizedAffinity>  (1) 
-4.39066792

>  <minimizedRMSD>  (1) 
0.685769677

$$$$
