
     RDKit          3D

 43 45  0  0  0  0  0  0  0  0999 V2000
   38.7220   23.2360   31.4480 C   0  0  0  0  0  0  0  0  0  0  0  0
   38.0830   22.0270   31.2550 C   0  0  0  0  0  0  0  0  0  0  0  0
   38.3830   21.2550   30.1510 C   0  0  0  0  0  0  0  0  0  0  0  0
   39.3150   21.6580   29.2240 C   0  0  0  0  0  0  0  0  0  0  0  0
   39.9610   22.8820   29.4250 C   0  0  0  0  0  0  0  0  0  0  0  0
   39.6760   23.6730   30.5240 C   0  0  0  0  0  0  0  0  0  0  0  0
   39.9440   20.4930   25.7920 C   0  0  0  0  0  0  0  0  0  0  0  0
   40.2350   19.1510   25.9710 C   0  0  0  0  0  0  0  0  0  0  0  0
   40.2100   18.6680   27.2630 C   0  0  0  0  0  0  0  0  0  0  0  0
   39.9080   19.5120   28.2860 N   0  0  0  0  0  0  0  0  0  0  0  0
   39.6290   20.8300   28.0530 C   0  0  0  0  0  0  0  0  0  0  0  0
   39.6470   21.3090   26.8330 N   0  0  0  0  0  0  0  0  0  0  0  0
   38.2020   24.2660   32.6710 S   0  0  0  0  0  0  0  0  0  0  0  0
   36.7010   24.6160   32.3720 O   0  0  0  0  0  0  0  0  0  0  0  0
   38.3350   23.5040   33.9330 O   0  0  0  0  0  0  0  0  0  0  0  0
   38.6800   25.7620   33.1770 C   0  0  0  0  0  0  0  0  0  0  0  0
   37.5990   26.6780   33.7100 C   0  0  0  0  0  0  0  0  0  0  0  0
   37.2370   26.5180   35.1340 C   0  0  0  0  0  0  0  0  0  0  0  0
   38.3390   27.2210   35.9400 C   0  0  0  0  0  0  0  0  0  0  0  0
   39.6140   27.0010   35.1070 C   0  0  0  0  0  0  0  0  0  0  0  0
   39.4930   25.6530   34.5370 C   0  0  0  0  0  0  0  0  0  0  0  0
   36.9040   21.3850   32.4250 S   0  0  0  0  0  0  0  0  0  0  0  0
   35.3930   20.8490   31.6140 C   0  0  0  0  0  0  0  0  0  0  0  0
   34.3140   20.8800   32.4460 F   0  0  0  0  0  0  0  0  0  0  0  0
   35.1150   21.7770   30.6170 F   0  0  0  0  0  0  0  0  0  0  0  0
   35.5510   19.6730   30.9470 F   0  0  0  0  0  0  0  0  0  0  0  0
   37.8645   20.2952   30.0095 H   0  0  0  0  0  0  0  0  0  0  0  0
   40.7103   23.2226   28.6952 H   0  0  0  0  0  0  0  0  0  0  0  0
   40.1932   24.6330   30.6688 H   0  0  0  0  0  0  0  0  0  0  0  0
   39.9542   20.9096   24.7740 H   0  0  0  0  0  0  0  0  0  0  0  0
   40.4758   18.4979   25.1192 H   0  0  0  0  0  0  0  0  0  0  0  0
   40.4323   17.6096   27.4641 H   0  0  0  0  0  0  0  0  0  0  0  0
   39.1756   26.1350   32.2685 H   0  0  0  0  0  0  0  0  0  0  0  0
   37.9394   27.7142   33.5669 H   0  0  0  0  0  0  0  0  0  0  0  0
   36.6912   26.4115   33.1489 H   0  0  0  0  0  0  0  0  0  0  0  0
   36.2616   26.9856   35.3340 H   0  0  0  0  0  0  0  0  0  0  0  0
   37.1558   25.4561   35.4092 H   0  0  0  0  0  0  0  0  0  0  0  0
   38.1216   28.2942   36.0446 H   0  0  0  0  0  0  0  0  0  0  0  0
   38.4303   26.8262   36.9626 H   0  0  0  0  0  0  0  0  0  0  0  0
   39.6817   27.7511   34.3052 H   0  0  0  0  0  0  0  0  0  0  0  0
   40.5209   27.1004   35.7216 H   0  0  0  0  0  0  0  0  0  0  0  0
   38.9574   24.9979   35.2398 H   0  0  0  0  0  0  0  0  0  0  0  0
   40.4902   25.2275   34.3512 H   0  0  0  0  0  0  0  0  0  0  0  0
  1 13  1  0
  2  1  2  0
  2 22  1  0
  3  2  1  0
  4  5  1  0
  4  3  2  0
  5  6  2  0
  6  1  1  0
  7  8  2  0
  7 12  1  0
  8  9  1  0
  9 10  2  0
 11 10  1  0
 11  4  1  0
 12 11  2  0
 13 16  1  0
 13 15  2  0
 14 13  2  0
 16 17  1  0
 16 21  1  0
 17 18  1  0
 18 19  1  0
 20 19  1  0
 21 20  1  0
 23 22  1  0
 23 24  1  0
 25 23  1  0
 26 23  1  0
  3 27  1  0
  5 28  1  0
  6 29  1  0
  7 30  1  0
  8 31  1  0
  9 32  1  0
 16 33  1  0
 17 34  1  0
 17 35  1  0
 18 36  1  0
 18 37  1  0
 19 38  1  0
 19 39  1  0
 20 40  1  0
 20 41  1  0
 21 42  1  0
 21 43  1  0
M  ISO  8  27  14  28  14  29  14  30  14  31  14  32  14  33  13  34  13
M  ISO  8  35  13  36  13  37  13  38  13  39  13  40  13  41  13  42  13
M  ISO  1  43  13
M  END
>  <minimizedAffinity>  (1) 
-4.54422855

>  <minimizedRMSD>  (1) 
7.35168266

$$$$
