
     RDKit          3D

 39 41  0  0  1  0  0  0  0  0999 V2000
   39.2420   21.1660   31.8490 C   0  0  0  0  0  0  0  0  0  0  0  0
   38.0760   20.9870   32.5620 C   0  0  0  0  0  0  0  0  0  0  0  0
   37.9840   21.4620   33.8540 C   0  0  0  0  0  0  0  0  0  0  0  0
   39.0210   22.1140   34.4540 C   0  0  0  0  0  0  0  0  0  0  0  0
   40.2010   22.2970   33.7320 C   0  0  0  0  0  0  0  0  0  0  0  0
   40.3290   21.8350   32.4410 C   0  0  0  0  0  0  0  0  0  0  0  0
   39.6870   22.9170   37.9820 C   0  0  0  0  0  0  0  0  0  0  0  0
   38.5460   23.6050   38.3620 C   0  0  0  0  0  0  0  0  0  0  0  0
   37.5610   23.7870   37.4060 C   0  0  0  0  0  0  0  0  0  0  0  0
   37.7600   23.2870   36.1590 N   0  0  0  0  0  0  0  0  0  0  0  0
   38.9070   22.6150   35.8320 C   0  0  0  0  0  0  0  0  0  0  0  0
   39.8500   22.4330   36.7270 N   0  0  0  0  0  0  0  0  0  0  0  0
   39.4420   20.4380   30.3560 S   0  0  0  0  0  0  0  0  0  0  0  0
   40.7450   21.0730   29.7350 O   0  0  0  0  0  0  0  0  0  0  0  0
   39.5830   18.9820   30.5640 O   0  0  0  0  0  0  0  0  0  0  0  0
   39.5840   20.4780   27.8360 N   0  0  0  0  0  0  0  0  0  0  0  0
   39.7940   19.2190   27.2650 C   0  0  0  0  0  0  0  0  0  0  0  0
   38.3330   18.8030   27.0840 C   0  0  0  0  0  0  0  0  0  0  0  0
   37.9160   19.1110   28.5130 C   0  0  0  0  0  0  0  0  0  0  0  0
   38.6210   20.3810   28.9420 C   0  0  1  0  0  0  0  0  0  0  0  0
   36.6510   20.1840   31.8780 S   0  0  0  0  0  0  0  0  0  0  0  0
   35.1300   20.8530   32.5200 C   0  0  0  0  0  0  0  0  0  0  0  0
   34.0170   20.2430   32.0170 F   0  0  0  0  0  0  0  0  0  0  0  0
   35.1070   20.5710   33.8890 F   0  0  0  0  0  0  0  0  0  0  0  0
   35.0910   22.2180   32.4400 F   0  0  0  0  0  0  0  0  0  0  0  0
   37.0499   21.3110   34.4149 H   0  0  0  0  0  0  0  0  0  0  0  0
   41.0457   22.8207   34.2034 H   0  0  0  0  0  0  0  0  0  0  0  0
   41.2645   21.9863   31.8825 H   0  0  0  0  0  0  0  0  0  0  0  0
   40.4853   22.7588   38.7221 H   0  0  0  0  0  0  0  0  0  0  0  0
   38.4271   23.9921   39.3847 H   0  0  0  0  0  0  0  0  0  0  0  0
   36.6345   24.3265   37.6519 H   0  0  0  0  0  0  0  0  0  0  0  0
   39.2151   21.1191   27.1192 H   0  0  0  0  0  0  0  0  0  0  0  0
   40.3281   19.2833   26.3055 H   0  0  0  0  0  0  0  0  0  0  0  0
   40.4176   18.5277   27.8509 H   0  0  0  0  0  0  0  0  0  0  0  0
   37.8025   19.4182   26.3423 H   0  0  0  0  0  0  0  0  0  0  0  0
   38.1382   17.7882   26.7070 H   0  0  0  0  0  0  0  0  0  0  0  0
   36.8264   19.2541   28.5615 H   0  0  0  0  0  0  0  0  0  0  0  0
   38.1884   18.2788   29.1787 H   0  0  0  0  0  0  0  0  0  0  0  0
   37.8793   21.1722   29.1260 H   0  0  0  0  0  0  0  0  0  0  0  0
  1  6  1  0
  1  2  2  0
  2  3  1  0
  3  4  2  0
  4 11  1  0
  5  4  1  0
  6  5  2  0
  7  8  2  0
  9  8  1  0
 10  9  2  0
 11 10  1  0
 11 12  2  0
 12  7  1  0
 13 15  2  0
 13  1  1  0
 14 13  2  0
 16 20  1  0
 17 16  1  0
 18 17  1  0
 18 19  1  0
 19 20  1  0
 20 13  1  0
 21 22  1  0
 21  2  1  0
 22 24  1  0
 23 22  1  0
 25 22  1  0
  3 26  1  0
  5 27  1  0
  6 28  1  0
  7 29  1  0
  8 30  1  0
  9 31  1  0
 16 32  1  0
 17 33  1  0
 17 34  1  0
 18 35  1  0
 18 36  1  0
 19 37  1  0
 19 38  1  0
 20 39  1  1
M  ISO  8  26  14  27  14  28  14  29  14  30  14  31  14  32   5  33  13
M  ISO  6  34  13  35  13  36  13  37  13  38  13  39  13
M  END
>  <minimizedAffinity>  (1) 
-4.4802494

>  <minimizedRMSD>  (1) 
1.71698332

$$$$
