
     RDKit          3D

 40 42  0  0  0  0  0  0  0  0999 V2000
   39.0780   21.3460   31.6270 C   0  0  0  0  0  0  0  0  0  0  0  0
   37.9890   21.0500   32.4120 C   0  0  0  0  0  0  0  0  0  0  0  0
   37.9710   21.4560   33.7310 C   0  0  0  0  0  0  0  0  0  0  0  0
   39.0050   22.1480   34.2900 C   0  0  0  0  0  0  0  0  0  0  0  0
   40.0990   22.4440   33.4930 C   0  0  0  0  0  0  0  0  0  0  0  0
   40.1640   22.0620   32.1730 C   0  0  0  0  0  0  0  0  0  0  0  0
   39.8760   22.7700   37.8100 C   0  0  0  0  0  0  0  0  0  0  0  0
   38.7370   23.3830   38.3040 C   0  0  0  0  0  0  0  0  0  0  0  0
   37.6880   23.5790   37.4290 C   0  0  0  0  0  0  0  0  0  0  0  0
   37.8180   23.1660   36.1400 N   0  0  0  0  0  0  0  0  0  0  0  0
   38.9620   22.5650   35.6990 C   0  0  0  0  0  0  0  0  0  0  0  0
   39.9800   22.3670   36.5180 N   0  0  0  0  0  0  0  0  0  0  0  0
   39.2090   20.7050   30.0830 S   0  0  0  0  0  0  0  0  0  0  0  0
   39.2710   21.9380   29.1040 O   0  0  0  0  0  0  0  0  0  0  0  0
   40.4430   19.8910   30.0290 O   0  0  0  0  0  0  0  0  0  0  0  0
   38.2700   19.7990   29.0980 C   0  0  0  0  0  0  0  0  0  0  0  0
   38.8300   19.9460   27.6600 C   0  0  0  0  0  0  0  0  0  0  0  0
   37.9400   18.9800   26.9550 C   0  0  0  0  0  0  0  0  0  0  0  0
   38.4590   17.7560   27.7210 C   0  0  0  0  0  0  0  0  0  0  0  0
   38.3540   18.2820   29.1370 C   0  0  0  0  0  0  0  0  0  0  0  0
   36.5680   20.1900   31.7950 S   0  0  0  0  0  0  0  0  0  0  0  0
   35.0470   20.8180   32.4900 C   0  0  0  0  0  0  0  0  0  0  0  0
   33.9370   20.1950   32.0030 F   0  0  0  0  0  0  0  0  0  0  0  0
   35.0690   20.5150   33.8560 F   0  0  0  0  0  0  0  0  0  0  0  0
   34.9810   22.1820   32.4270 F   0  0  0  0  0  0  0  0  0  0  0  0
   37.0952   21.2139   34.3510 H   0  0  0  0  0  0  0  0  0  0  0  0
   40.9412   23.0014   33.9290 H   0  0  0  0  0  0  0  0  0  0  0  0
   41.0419   22.3090   31.5579 H   0  0  0  0  0  0  0  0  0  0  0  0
   40.7261   22.6038   38.4881 H   0  0  0  0  0  0  0  0  0  0  0  0
   38.6707   23.7019   39.3547 H   0  0  0  0  0  0  0  0  0  0  0  0
   36.7603   24.0622   37.7693 H   0  0  0  0  0  0  0  0  0  0  0  0
   37.2723   20.1506   29.3996 H   0  0  0  0  0  0  0  0  0  0  0  0
   38.7121   20.9698   27.2755 H   0  0  0  0  0  0  0  0  0  0  0  0
   39.9082   19.7558   27.5536 H   0  0  0  0  0  0  0  0  0  0  0  0
   36.8710   19.1745   27.1267 H   0  0  0  0  0  0  0  0  0  0  0  0
   37.9756   18.9536   25.8559 H   0  0  0  0  0  0  0  0  0  0  0  0
   37.8220   16.8732   27.5632 H   0  0  0  0  0  0  0  0  0  0  0  0
   39.4597   17.4086   27.4243 H   0  0  0  0  0  0  0  0  0  0  0  0
   39.2417   17.9767   29.7103 H   0  0  0  0  0  0  0  0  0  0  0  0
   37.4538   17.8729   29.6190 H   0  0  0  0  0  0  0  0  0  0  0  0
  1  6  1  0
  1  2  2  0
  2  3  1  0
  3  4  2  0
  4 11  1  0
  5  4  1  0
  6  5  2  0
  7  8  2  0
  9  8  1  0
 10  9  2  0
 11 10  1  0
 11 12  2  0
 12  7  1  0
 13  1  1  0
 14 13  2  0
 15 13  2  0
 16 20  1  0
 16 13  1  0
 17 16  1  0
 18 17  1  0
 18 19  1  0
 19 20  1  0
 21  2  1  0
 21 22  1  0
 22 24  1  0
 23 22  1  0
 25 22  1  0
  3 26  1  0
  5 27  1  0
  6 28  1  0
  7 29  1  0
  8 30  1  0
  9 31  1  0
 16 32  1  0
 17 33  1  0
 17 34  1  0
 18 35  1  0
 18 36  1  0
 19 37  1  0
 19 38  1  0
 20 39  1  0
 20 40  1  0
M  ISO  8  26  14  27  14  28  14  29  14  30  14  31  14  32  13  33  13
M  ISO  7  34  13  35  13  36  13  37  13  38  13  39  13  40  13
M  END
>  <minimizedAffinity>  (1) 
-4.6298604

>  <minimizedRMSD>  (1) 
1.43561184

$$$$
