
     RDKit          3D

 39 40  0  0  0  0  0  0  0  0999 V2000
   38.9720   20.5870   31.8700 C   0  0  0  0  0  0  0  0  0  0  0  0
   37.7110   20.9620   32.2270 C   0  0  0  0  0  0  0  0  0  0  0  0
   37.5140   21.7580   33.3380 C   0  0  0  0  0  0  0  0  0  0  0  0
   38.5660   22.1870   34.1000 C   0  0  0  0  0  0  0  0  0  0  0  0
   39.8580   21.8070   33.7370 C   0  0  0  0  0  0  0  0  0  0  0  0
   40.0810   21.0140   32.6340 C   0  0  0  0  0  0  0  0  0  0  0  0
   37.8280   23.3540   37.5090 C   0  0  0  0  0  0  0  0  0  0  0  0
   37.9460   24.7290   37.3960 C   0  0  0  0  0  0  0  0  0  0  0  0
   38.2790   25.2430   36.1580 C   0  0  0  0  0  0  0  0  0  0  0  0
   38.4720   24.3840   35.1180 N   0  0  0  0  0  0  0  0  0  0  0  0
   38.3430   23.0330   35.2810 C   0  0  0  0  0  0  0  0  0  0  0  0
   38.0250   22.5200   36.4570 N   0  0  0  0  0  0  0  0  0  0  0  0
   39.2270   19.4750   30.6400 S   0  0  0  0  0  0  0  0  0  0  0  0
   40.7650   19.5150   30.3360 O   0  0  0  0  0  0  0  0  0  0  0  0
   38.7980   18.1510   31.1890 O   0  0  0  0  0  0  0  0  0  0  0  0
   38.8630   19.2690   29.0700 C   0  0  0  0  0  0  0  0  0  0  0  0
   40.0270   18.2900   28.5390 C   0  0  0  0  0  0  0  0  0  0  0  0
   37.7580   18.3310   28.6220 C   0  0  0  0  0  0  0  0  0  0  0  0
   39.1840   20.3540   28.0280 C   0  0  0  0  0  0  0  0  0  0  0  0
   36.2740   20.4920   31.2910 S   0  0  0  0  0  0  0  0  0  0  0  0
   34.8230   20.3580   32.3390 C   0  0  0  0  0  0  0  0  0  0  0  0
   33.8420   19.5850   31.7870 F   0  0  0  0  0  0  0  0  0  0  0  0
   35.2180   19.6880   33.4880 F   0  0  0  0  0  0  0  0  0  0  0  0
   34.3960   21.5720   32.7690 F   0  0  0  0  0  0  0  0  0  0  0  0
   36.4913   22.0529   33.6157 H   0  0  0  0  0  0  0  0  0  0  0  0
   40.7121   22.1463   34.3415 H   0  0  0  0  0  0  0  0  0  0  0  0
   41.1027   20.7186   32.3530 H   0  0  0  0  0  0  0  0  0  0  0  0
   37.5653   22.9226   38.4862 H   0  0  0  0  0  0  0  0  0  0  0  0
   37.7805   25.3882   38.2609 H   0  0  0  0  0  0  0  0  0  0  0  0
   38.3867   26.3282   36.0139 H   0  0  0  0  0  0  0  0  0  0  0  0
   40.5535   17.8471   29.3973 H   0  0  0  0  0  0  0  0  0  0  0  0
   39.5830   17.4898   27.9286 H   0  0  0  0  0  0  0  0  0  0  0  0
   40.7392   18.8645   27.9286 H   0  0  0  0  0  0  0  0  0  0  0  0
   37.2575   17.9061   29.5046 H   0  0  0  0  0  0  0  0  0  0  0  0
   37.0264   18.8881   28.0183 H   0  0  0  0  0  0  0  0  0  0  0  0
   38.1889   17.5187   28.0183 H   0  0  0  0  0  0  0  0  0  0  0  0
   39.4598   21.2863   28.5425 H   0  0  0  0  0  0  0  0  0  0  0  0
   40.0221   20.0210   27.3982 H   0  0  0  0  0  0  0  0  0  0  0  0
   38.2996   20.5306   27.3982 H   0  0  0  0  0  0  0  0  0  0  0  0
  1  2  2  0
  1  6  1  0
  2  3  1  0
  3  4  2  0
  4 11  1  0
  5  4  1  0
  6  5  2  0
  8  7  2  0
  9  8  1  0
 10 11  1  0
 10  9  2  0
 11 12  2  0
 12  7  1  0
 13 15  2  0
 13  1  1  0
 14 13  2  0
 16 13  1  0
 17 16  1  0
 18 16  1  0
 19 16  1  0
 20  2  1  0
 20 21  1  0
 21 24  1  0
 21 23  1  0
 22 21  1  0
  3 25  1  0
  5 26  1  0
  6 27  1  0
  7 28  1  0
  8 29  1  0
  9 30  1  0
 17 31  1  0
 17 32  1  0
 17 33  1  0
 18 34  1  0
 18 35  1  0
 18 36  1  0
 19 37  1  0
 19 38  1  0
 19 39  1  0
M  ISO  8  25  14  26  14  27  14  28  14  29  14  30  14  31   8  32   8
M  ISO  7  33   8  34   8  35   8  36   8  37   8  38   8  39   8
M  END
>  <minimizedAffinity>  (1) 
-4.2794838

>  <minimizedRMSD>  (1) 
2.13838077

$$$$
