
     RDKit          3D

 34 37  0  0  0  0  0  0  0  0999 V2000
   39.8530   22.7370   37.5940 C   0  0  0  0  0  0  0  0  0  0  0  0
   39.1730   23.5040   38.5700 C   0  0  0  0  0  0  0  0  0  0  0  0
   37.7910   23.6570   38.4150 C   0  0  0  0  0  0  0  0  0  0  0  0
   37.1540   23.0760   37.3560 N   0  0  0  0  0  0  0  0  0  0  0  0
   37.8620   22.3450   36.4420 C   0  0  0  0  0  0  0  0  0  0  0  0
   39.2050   22.1720   36.5550 N   0  0  0  0  0  0  0  0  0  0  0  0
   37.2280   21.7240   35.3220 N   0  0  0  0  0  0  0  0  0  0  0  0
   37.8890   21.8300   34.1260 C   0  0  0  0  0  0  0  0  0  0  0  0
   37.2820   21.2310   33.0280 C   0  0  0  0  0  0  0  0  0  0  0  0
   36.0660   20.5700   33.1910 C   0  0  0  0  0  0  0  0  0  0  0  0
   35.5510   20.0420   32.1740 O   0  0  0  0  0  0  0  0  0  0  0  0
   35.4810   20.5090   34.3910 N   0  0  0  0  0  0  0  0  0  0  0  0
   36.0640   21.0900   35.4700 C   0  0  0  0  0  0  0  0  0  0  0  0
   35.5690   21.0700   36.6210 O   0  0  0  0  0  0  0  0  0  0  0  0
   37.9510   21.3280   31.7770 N   0  0  0  0  0  0  0  0  0  0  0  0
   38.5140   20.2730   31.1600 C   0  0  0  0  0  0  0  0  0  0  0  0
   39.0470   20.7570   30.0050 N   0  0  0  0  0  0  0  0  0  0  0  0
   38.7980   22.0960   29.9470 C   0  0  0  0  0  0  0  0  0  0  0  0
   39.1490   23.0110   28.9610 C   0  0  0  0  0  0  0  0  0  0  0  0
   39.7860   22.7290   27.9130 O   0  0  0  0  0  0  0  0  0  0  0  0
   38.7380   24.2620   29.2300 N   0  0  0  0  0  0  0  0  0  0  0  0
   38.0550   24.6580   30.3190 C   0  0  0  0  0  0  0  0  0  0  0  0
   37.6740   26.0150   30.4940 N   0  0  0  0  0  0  0  0  0  0  0  0
   37.7230   23.7450   31.2690 N   0  0  0  0  0  0  0  0  0  0  0  0
   38.0980   22.4680   31.0760 C   0  0  0  0  0  0  0  0  0  0  0  0
   40.9403   22.5979   37.6855 H   0  0  0  0  0  0  0  0  0  0  0  0
   39.7088   23.9608   39.4152 H   0  0  0  0  0  0  0  0  0  0  0  0
   37.2174   24.2454   39.1463 H   0  0  0  0  0  0  0  0  0  0  0  0
   38.8486   22.3607   34.0395 H   0  0  0  0  0  0  0  0  0  0  0  0
   34.5819   20.0179   34.4976 H   0  0  0  0  0  0  0  0  0  0  0  0
   38.5384   19.2325   31.5162 H   0  0  0  0  0  0  0  0  0  0  0  0
   38.9681   24.9871   28.5356 H   0  0  0  0  0  0  0  0  0  0  0  0
   37.1512   26.2988   31.3349 H   0  0  0  0  0  0  0  0  0  0  0  0
   37.9205   26.7153   29.7800 H   0  0  0  0  0  0  0  0  0  0  0  0
  1  2  2  0
  3  2  1  0
  4  3  2  0
  5  6  2  0
  5  4  1  0
  6  1  1  0
  7 13  1  0
  7  5  1  0
  8  7  1  0
  9 10  1  0
  9  8  2  0
 10 12  1  0
 11 10  2  0
 12 13  1  0
 13 14  2  0
 15  9  1  0
 16 15  1  0
 17 16  2  0
 18 17  1  0
 18 25  2  0
 19 21  1  0
 19 18  1  0
 20 19  2  0
 21 22  1  0
 22 23  1  0
 22 24  2  0
 25 24  1  0
 25 15  1  0
  1 26  1  0
  2 27  1  0
  3 28  1  0
  8 29  1  0
 12 30  1  0
 16 31  1  0
 21 32  1  0
 23 33  1  0
 23 34  1  0
M  ISO  7  26  14  27  14  28  14  29  14  30   9  31  14  32   9
M  END
>  <minimizedAffinity>  (1) 
-6.0552063

>  <minimizedRMSD>  (1) 
0.589646995

$$$$
