
     RDKit          3D

 33 34  0  0  0  0  0  0  0  0999 V2000
   39.0680   21.7510   31.8060 C   0  0  0  0  0  0  0  0  0  0  0  0
   38.0840   21.2240   32.6170 C   0  0  0  0  0  0  0  0  0  0  0  0
   38.0490   21.5700   33.9480 C   0  0  0  0  0  0  0  0  0  0  0  0
   38.9580   22.4270   34.5060 C   0  0  0  0  0  0  0  0  0  0  0  0
   39.9490   22.9570   33.6810 C   0  0  0  0  0  0  0  0  0  0  0  0
   40.0240   22.6370   32.3360 C   0  0  0  0  0  0  0  0  0  0  0  0
   39.7800   22.8800   38.0660 C   0  0  0  0  0  0  0  0  0  0  0  0
   38.6470   23.5060   38.5600 C   0  0  0  0  0  0  0  0  0  0  0  0
   37.6220   23.7610   37.6700 C   0  0  0  0  0  0  0  0  0  0  0  0
   37.7500   23.4020   36.3650 N   0  0  0  0  0  0  0  0  0  0  0  0
   38.9000   22.7830   35.9290 C   0  0  0  0  0  0  0  0  0  0  0  0
   39.8880   22.5300   36.7580 N   0  0  0  0  0  0  0  0  0  0  0  0
   39.2450   21.1940   30.2290 S   0  0  0  0  0  0  0  0  0  0  0  0
   39.0920   22.4110   29.2610 O   0  0  0  0  0  0  0  0  0  0  0  0
   40.5930   20.5810   30.1260 O   0  0  0  0  0  0  0  0  0  0  0  0
   38.3820   20.1070   29.3200 C   0  0  0  0  0  0  0  0  0  0  0  0
   39.2200   18.7980   29.2120 C   0  0  0  0  0  0  0  0  0  0  0  0
   36.8230   20.1370   31.9850 S   0  0  0  0  0  0  0  0  0  0  0  0
   35.2030   20.5480   32.6390 C   0  0  0  0  0  0  0  0  0  0  0  0
   34.2040   19.8260   32.0490 F   0  0  0  0  0  0  0  0  0  0  0  0
   35.1940   20.1620   33.9740 F   0  0  0  0  0  0  0  0  0  0  0  0
   34.9830   21.8910   32.6530 F   0  0  0  0  0  0  0  0  0  0  0  0
   37.2620   21.1423   34.5866 H   0  0  0  0  0  0  0  0  0  0  0  0
   40.6905   23.6472   34.1097 H   0  0  0  0  0  0  0  0  0  0  0  0
   40.8112   23.0647   31.6978 H   0  0  0  0  0  0  0  0  0  0  0  0
   40.6130   22.6609   38.7502 H   0  0  0  0  0  0  0  0  0  0  0  0
   38.5669   23.7890   39.6200 H   0  0  0  0  0  0  0  0  0  0  0  0
   36.7022   24.2545   38.0171 H   0  0  0  0  0  0  0  0  0  0  0  0
   37.4188   19.8946   29.8069 H   0  0  0  0  0  0  0  0  0  0  0  0
   38.1838   20.5178   28.3190 H   0  0  0  0  0  0  0  0  0  0  0  0
   39.4560   18.4294   30.2212 H   0  0  0  0  0  0  0  0  0  0  0  0
   38.6414   18.0360   28.6693 H   0  0  0  0  0  0  0  0  0  0  0  0
   40.1543   19.0045   28.6693 H   0  0  0  0  0  0  0  0  0  0  0  0
  1  6  2  0
  1  2  1  0
  2  3  2  0
  3  4  1  0
  4 11  1  0
  5  4  2  0
  6  5  1  0
  7  8  2  0
  9  8  1  0
 10  9  2  0
 11 10  1  0
 11 12  2  0
 12  7  1  0
 13  1  1  0
 14 13  2  0
 15 13  2  0
 16 13  1  0
 17 16  1  0
 18  2  1  0
 18 19  1  0
 19 22  1  0
 19 21  1  0
 20 19  1  0
  3 23  1  0
  5 24  1  0
  6 25  1  0
  7 26  1  0
  8 27  1  0
  9 28  1  0
 16 29  1  0
 16 30  1  0
 17 31  1  0
 17 32  1  0
 17 33  1  0
M  ISO  8  23  14  24  14  25  14  26  14  27  14  28  14  29   8  30   8
M  ISO  3  31   8  32   8  33   8
M  END
>  <minimizedAffinity>  (1) 
-4.32884026

>  <minimizedRMSD>  (1) 
1.06185544

$$$$
