
     RDKit          3D

 31 34  0  0  0  0  0  0  0  0999 V2000
   39.8620   22.6430   37.4820 C   0  0  0  0  0  0  0  0  0  0  0  0
   39.1270   23.3350   38.4740 C   0  0  0  0  0  0  0  0  0  0  0  0
   37.7540   23.4910   38.2640 C   0  0  0  0  0  0  0  0  0  0  0  0
   37.2010   22.9780   37.1360 N   0  0  0  0  0  0  0  0  0  0  0  0
   37.9290   22.3190   36.2010 C   0  0  0  0  0  0  0  0  0  0  0  0
   39.2480   22.1580   36.3830 N   0  0  0  0  0  0  0  0  0  0  0  0
   37.3690   21.7770   35.0180 N   0  0  0  0  0  0  0  0  0  0  0  0
   38.0750   21.9500   33.8740 C   0  0  0  0  0  0  0  0  0  0  0  0
   37.5560   21.4340   32.7050 C   0  0  0  0  0  0  0  0  0  0  0  0
   36.3340   20.7610   32.7550 C   0  0  0  0  0  0  0  0  0  0  0  0
   35.8480   20.2840   31.6940 O   0  0  0  0  0  0  0  0  0  0  0  0
   35.6800   20.6190   33.9120 N   0  0  0  0  0  0  0  0  0  0  0  0
   36.1870   21.1240   35.0650 C   0  0  0  0  0  0  0  0  0  0  0  0
   35.6400   21.0350   36.1800 O   0  0  0  0  0  0  0  0  0  0  0  0
   38.1850   21.5410   31.4330 N   0  0  0  0  0  0  0  0  0  0  0  0
   38.6330   20.5870   30.5770 C   0  0  0  0  0  0  0  0  0  0  0  0
   39.1660   21.1880   29.4770 N   0  0  0  0  0  0  0  0  0  0  0  0
   39.0620   22.5200   29.6240 C   0  0  0  0  0  0  0  0  0  0  0  0
   39.4540   23.5600   28.7900 C   0  0  0  0  0  0  0  0  0  0  0  0
   39.1970   24.8150   29.2470 N   0  0  0  0  0  0  0  0  0  0  0  0
   38.6000   25.0010   30.4380 C   0  0  0  0  0  0  0  0  0  0  0  0
   38.2140   24.0100   31.2630 N   0  0  0  0  0  0  0  0  0  0  0  0
   38.4440   22.7420   30.8560 C   0  0  0  0  0  0  0  0  0  0  0  0
   40.9452   22.4991   37.6084 H   0  0  0  0  0  0  0  0  0  0  0  0
   39.6168   23.7342   39.3744 H   0  0  0  0  0  0  0  0  0  0  0  0
   37.1322   24.0207   39.0007 H   0  0  0  0  0  0  0  0  0  0  0  0
   39.0350   22.4869   33.8778 H   0  0  0  0  0  0  0  0  0  0  0  0
   34.7793   20.1197   33.9287 H   0  0  0  0  0  0  0  0  0  0  0  0
   38.5748   19.5015   30.7451 H   0  0  0  0  0  0  0  0  0  0  0  0
   39.9417   23.3796   27.8207 H   0  0  0  0  0  0  0  0  0  0  0  0
   38.4141   26.0361   30.7605 H   0  0  0  0  0  0  0  0  0  0  0  0
  1  2  2  0
  3  2  1  0
  4  3  2  0
  5  6  2  0
  5  4  1  0
  6  1  1  0
  7 13  1  0
  7  5  1  0
  8  7  1  0
  9 10  1  0
  9  8  2  0
 10 12  1  0
 11 10  2  0
 12 13  1  0
 13 14  2  0
 15  9  1  0
 16 15  1  0
 17 18  1  0
 17 16  2  0
 18 23  2  0
 19 20  2  0
 19 18  1  0
 20 21  1  0
 21 22  2  0
 23 22  1  0
 23 15  1  0
  1 24  1  0
  2 25  1  0
  3 26  1  0
  8 27  1  0
 12 28  1  0
 16 29  1  0
 19 30  1  0
 21 31  1  0
M  ISO  8  24  14  25  14  26  14  27  14  28   9  29  14  30  14  31  14
M  END
>  <minimizedAffinity>  (1) 
-5.33855057

>  <minimizedRMSD>  (1) 
0.647177339

$$$$
