
     RDKit          3D

 56 58  0  0  0  0  0  0  0  0999 V2000
   37.7160   22.6700   36.2140 C   0  0  0  0  0  0  0  0  0  0  0  0
   37.8670   22.7730   34.8050 N   0  0  0  0  0  0  0  0  0  0  0  0
   38.2860   21.8390   33.8900 C   0  0  0  0  0  0  0  0  0  0  0  0
   38.2710   22.3910   32.6500 N   0  0  0  0  0  0  0  0  0  0  0  0
   37.8480   23.6580   32.7780 C   0  0  0  0  0  0  0  0  0  0  0  0
   37.6100   23.8690   34.0830 N   0  0  0  0  0  0  0  0  0  0  0  0
   37.6840   24.6270   31.6570 C   0  0  0  0  0  0  0  0  0  0  0  0
   36.2030   24.9570   31.5500 C   0  0  0  0  0  0  0  0  0  0  0  0
   38.0710   23.9780   30.3460 C   0  0  0  0  0  0  0  0  0  0  0  0
   38.4320   25.9050   31.9060 C   0  0  0  0  0  0  0  0  0  0  0  0
   37.6690   27.1290   31.6460 C   0  0  0  0  0  0  0  0  0  0  0  0
   36.9520   27.8360   32.5930 C   0  0  0  0  0  0  0  0  0  0  0  0
   36.2430   28.9890   32.3040 C   0  0  0  0  0  0  0  0  0  0  0  0
   36.2310   29.4850   31.0250 C   0  0  0  0  0  0  0  0  0  0  0  0
   36.9370   28.8160   30.0310 C   0  0  0  0  0  0  0  0  0  0  0  0
   37.6330   27.6650   30.3540 C   0  0  0  0  0  0  0  0  0  0  0  0
   38.6770   23.5560   36.9740 C   0  0  0  0  0  0  0  0  0  0  0  0
   41.9360   21.7010   36.8910 C   0  0  0  0  0  0  0  0  0  0  0  0
   40.6400   22.0310   37.2190 C   0  0  0  0  0  0  0  0  0  0  0  0
   40.0420   23.1730   36.6530 C   0  0  0  0  0  0  0  0  0  0  0  0
   40.7760   23.9180   35.7940 N   0  0  0  0  0  0  0  0  0  0  0  0
   42.0460   23.5800   35.4830 C   0  0  0  0  0  0  0  0  0  0  0  0
   42.6170   22.4670   36.0390 N   0  0  0  0  0  0  0  0  0  0  0  0
   42.5470   20.4960   37.4950 C   0  0  0  0  0  0  0  0  0  0  0  0
   43.1930   19.5910   36.5140 C   0  0  0  0  0  0  0  0  0  0  0  0
   38.4650   23.3610   38.4550 C   0  0  0  0  0  0  0  0  0  0  0  0
   38.3580   24.9910   36.6030 C   0  0  0  0  0  0  0  0  0  0  0  0
   37.8919   21.6255   36.5106 H   0  0  0  0  0  0  0  0  0  0  0  0
   36.6962   22.9992   36.4621 H   0  0  0  0  0  0  0  0  0  0  0  0
   38.5862   20.8071   34.1246 H   0  0  0  0  0  0  0  0  0  0  0  0
   35.7748   25.0524   32.5587 H   0  0  0  0  0  0  0  0  0  0  0  0
   36.0769   25.9053   31.0069 H   0  0  0  0  0  0  0  0  0  0  0  0
   35.6863   24.1520   31.0069 H   0  0  0  0  0  0  0  0  0  0  0  0
   38.6250   23.0490   30.5462 H   0  0  0  0  0  0  0  0  0  0  0  0
   37.1633   23.7466   29.7694 H   0  0  0  0  0  0  0  0  0  0  0  0
   38.7061   24.6666   29.7694 H   0  0  0  0  0  0  0  0  0  0  0  0
   38.7470   25.9164   32.9599 H   0  0  0  0  0  0  0  0  0  0  0  0
   39.2745   25.9114   31.1987 H   0  0  0  0  0  0  0  0  0  0  0  0
   36.9445   27.4636   33.6280 H   0  0  0  0  0  0  0  0  0  0  0  0
   35.6889   29.5078   33.1001 H   0  0  0  0  0  0  0  0  0  0  0  0
   35.6696   30.4009   30.7885 H   0  0  0  0  0  0  0  0  0  0  0  0
   36.9419   29.1979   28.9994 H   0  0  0  0  0  0  0  0  0  0  0  0
   38.1849   27.1460   29.5565 H   0  0  0  0  0  0  0  0  0  0  0  0
   40.0728   21.4034   37.9221 H   0  0  0  0  0  0  0  0  0  0  0  0
   42.6229   24.2004   34.7814 H   0  0  0  0  0  0  0  0  0  0  0  0
   43.3082   20.8205   38.2197 H   0  0  0  0  0  0  0  0  0  0  0  0
   41.7310   19.9265   37.9640 H   0  0  0  0  0  0  0  0  0  0  0  0
   43.7514   18.8088   37.0491 H   0  0  0  0  0  0  0  0  0  0  0  0
   42.4224   19.1246   35.8826 H   0  0  0  0  0  0  0  0  0  0  0  0
   43.8844   20.1682   35.8826 H   0  0  0  0  0  0  0  0  0  0  0  0
   39.1627   24.0028   39.0129 H   0  0  0  0  0  0  0  0  0  0  0  0
   37.4308   23.6301   38.7159 H   0  0  0  0  0  0  0  0  0  0  0  0
   38.6469   22.3080   38.7159 H   0  0  0  0  0  0  0  0  0  0  0  0
   38.2258   25.5858   37.5188 H   0  0  0  0  0  0  0  0  0  0  0  0
   39.1851   25.4091   36.0105 H   0  0  0  0  0  0  0  0  0  0  0  0
   37.4316   25.0193   36.0105 H   0  0  0  0  0  0  0  0  0  0  0  0
  1 17  1  0
  2  1  1  0
  3  2  1  0
  4  5  1  0
  4  3  2  0
  5  6  2  0
  6  2  1  0
  7 10  1  0
  7  5  1  0
  8  7  1  0
  9  7  1  0
 11 10  1  0
 11 12  2  0
 13 12  1  0
 14 13  2  0
 15 16  2  0
 15 14  1  0
 16 11  1  0
 17 26  1  0
 18 19  2  0
 18 24  1  0
 20 17  1  0
 20 19  1  0
 21 20  2  0
 22 21  1  0
 22 23  2  0
 23 18  1  0
 25 24  1  0
 27 17  1  0
  1 28  1  0
  1 29  1  0
  3 30  1  0
  8 31  1  0
  8 32  1  0
  8 33  1  0
  9 34  1  0
  9 35  1  0
  9 36  1  0
 10 37  1  0
 10 38  1  0
 12 39  1  0
 13 40  1  0
 14 41  1  0
 15 42  1  0
 16 43  1  0
 19 44  1  0
 22 45  1  0
 24 46  1  0
 24 47  1  0
 25 48  1  0
 25 49  1  0
 25 50  1  0
 26 51  1  0
 26 52  1  0
 26 53  1  0
 27 54  1  0
 27 55  1  0
 27 56  1  0
M  ISO  8  28   8  29   8  30  14  31   8  32   8  33   8  34   8  35   8
M  ISO  8  36   8  37   8  38   8  39  14  40  14  41  14  42  14  43  14
M  ISO  8  44  14  45  14  46   8  47   8  48   8  49   8  50   8  51   8
M  ISO  5  52   8  53   8  54   8  55   8  56   8
M  END
>  <minimizedAffinity>  (1) 
-5.3782444

>  <minimizedRMSD>  (1) 
1.14496398

$$$$
