
     RDKit          3D

 27 28  0  0  0  0  0  0  0  0999 V2000
   39.8190   22.8570   37.1090 C   0  0  0  0  0  0  0  0  0  0  0  0
   39.2050   23.3070   38.3140 C   0  0  0  0  0  0  0  0  0  0  0  0
   37.8100   23.2380   38.3930 C   0  0  0  0  0  0  0  0  0  0  0  0
   37.1170   22.7540   37.3350 N   0  0  0  0  0  0  0  0  0  0  0  0
   37.7290   22.3340   36.2060 C   0  0  0  0  0  0  0  0  0  0  0  0
   39.0810   22.3820   36.0840 N   0  0  0  0  0  0  0  0  0  0  0  0
   37.0210   21.8210   35.0810 N   0  0  0  0  0  0  0  0  0  0  0  0
   37.4230   22.2200   33.8520 C   0  0  0  0  0  0  0  0  0  0  0  0
   36.7750   21.7530   32.7380 C   0  0  0  0  0  0  0  0  0  0  0  0
   35.7030   20.8630   32.9520 C   0  0  0  0  0  0  0  0  0  0  0  0
   35.0750   20.4060   31.9390 O   0  0  0  0  0  0  0  0  0  0  0  0
   35.3370   20.4920   34.1810 N   0  0  0  0  0  0  0  0  0  0  0  0
   35.9940   20.9690   35.2610 C   0  0  0  0  0  0  0  0  0  0  0  0
   35.7080   20.6660   36.4360 O   0  0  0  0  0  0  0  0  0  0  0  0
   37.1170   22.1000   31.4230 N   0  0  0  0  0  0  0  0  0  0  0  0
   36.9020   23.3800   30.8350 C   0  0  0  0  0  0  0  0  0  0  0  0
   35.7340   23.9030   31.0940 N   0  0  0  0  0  0  0  0  0  0  0  0
   37.9300   23.9760   30.0360 N   0  0  0  0  0  0  0  0  0  0  0  0
   35.5020   24.8380   30.6990 H   0  0  0  0  0  0  0  0  0  0  0  0
   40.9140   22.8976   37.0129 H   0  0  0  0  0  0  0  0  0  0  0  0
   39.8055   23.6940   39.1504 H   0  0  0  0  0  0  0  0  0  0  0  0
   37.2845   23.5715   39.2999 H   0  0  0  0  0  0  0  0  0  0  0  0
   38.2674   22.9171   33.7472 H   0  0  0  0  0  0  0  0  0  0  0  0
   34.5502   19.8392   34.3065 H   0  0  0  0  0  0  0  0  0  0  0  0
   37.5567   21.3751   30.8382 H   0  0  0  0  0  0  0  0  0  0  0  0
   38.8213   23.4807   29.8904 H   0  0  0  0  0  0  0  0  0  0  0  0
   37.7782   24.9000   29.6069 H   0  0  0  0  0  0  0  0  0  0  0  0
  1  2  2  0
  2  3  1  0
  4  3  2  0
  5  4  1  0
  6  5  2  0
  6  1  1  0
  7 13  1  0
  7  5  1  0
  8  7  1  0
  9 10  1  0
  9  8  2  0
 10 12  1  0
 11 10  2  0
 12 13  1  0
 13 14  2  0
 15  9  1  0
 16 17  2  0
 16 15  1  0
 18 16  1  0
 19 17  1  0
  1 20  1  0
  2 21  1  0
  3 22  1  0
  8 23  1  0
 12 24  1  0
 15 25  1  0
 18 26  1  0
 18 27  1  0
M  ISO  5  20  14  21  14  22  14  23  14  24   9
M  END
>  <minimizedAffinity>  (1) 
-5.2848177

>  <minimizedRMSD>  (1) 
1.21164191

$$$$
