
     RDKit          3D

 27 29  0  0  0  0  0  0  0  0999 V2000
   39.8740   22.7400   37.3610 C   0  0  0  0  0  0  0  0  0  0  0  0
   39.2300   23.4960   38.3730 C   0  0  0  0  0  0  0  0  0  0  0  0
   37.8240   23.6180   38.2830 C   0  0  0  0  0  0  0  0  0  0  0  0
   37.1780   23.0160   37.2550 N   0  0  0  0  0  0  0  0  0  0  0  0
   37.8320   22.3010   36.3070 C   0  0  0  0  0  0  0  0  0  0  0  0
   39.1630   22.1740   36.3740 N   0  0  0  0  0  0  0  0  0  0  0  0
   37.1590   21.6650   35.2240 N   0  0  0  0  0  0  0  0  0  0  0  0
   37.7630   21.7680   34.0020 C   0  0  0  0  0  0  0  0  0  0  0  0
   37.1340   21.1620   32.9360 C   0  0  0  0  0  0  0  0  0  0  0  0
   35.9410   20.4890   33.1450 C   0  0  0  0  0  0  0  0  0  0  0  0
   35.3500   19.9290   32.1850 O   0  0  0  0  0  0  0  0  0  0  0  0
   35.3920   20.4210   34.3790 N   0  0  0  0  0  0  0  0  0  0  0  0
   36.0080   21.0180   35.4360 C   0  0  0  0  0  0  0  0  0  0  0  0
   35.5720   21.0030   36.5980 O   0  0  0  0  0  0  0  0  0  0  0  0
   37.7660   21.2620   31.6250 C   0  0  0  0  0  0  0  0  0  0  0  0
   38.2970   22.3320   30.9380 C   0  0  0  0  0  0  0  0  0  0  0  0
   38.7650   21.8920   29.7550 N   0  0  0  0  0  0  0  0  0  0  0  0
   38.5460   20.5660   29.6720 C   0  0  0  0  0  0  0  0  0  0  0  0
   37.9400   20.2040   30.8140 N   0  0  0  0  0  0  0  0  0  0  0  0
   40.9668   22.6164   37.3853 H   0  0  0  0  0  0  0  0  0  0  0  0
   39.7975   23.9656   39.1899 H   0  0  0  0  0  0  0  0  0  0  0  0
   37.2637   24.1924   39.0354 H   0  0  0  0  0  0  0  0  0  0  0  0
   38.7109   22.3115   33.8749 H   0  0  0  0  0  0  0  0  0  0  0  0
   34.5053   19.9161   34.5195 H   0  0  0  0  0  0  0  0  0  0  0  0
   38.3325   23.3714   31.2962 H   0  0  0  0  0  0  0  0  0  0  0  0
   38.8119   19.9075   28.8320 H   0  0  0  0  0  0  0  0  0  0  0  0
   37.6470   19.2425   31.0391 H   0  0  0  0  0  0  0  0  0  0  0  0
  1  2  2  0
  3  2  1  0
  4  3  2  0
  5  6  2  0
  5  4  1  0
  6  1  1  0
  7 13  1  0
  7  5  1  0
  8  7  1  0
  9 10  1  0
  9  8  2  0
 10 12  1  0
 11 10  2  0
 12 13  1  0
 13 14  2  0
 15  9  1  0
 16 15  2  0
 17 16  1  0
 18 17  2  0
 18 19  1  0
 19 15  1  0
  1 20  1  0
  2 21  1  0
  3 22  1  0
  8 23  1  0
 12 24  1  0
 16 25  1  0
 18 26  1  0
 19 27  1  0
M  ISO  8  20  14  21  14  22  14  23  14  24   9  25  14  26  14  27   9
M  END
>  <minimizedAffinity>  (1) 
-5.05303144

>  <minimizedRMSD>  (1) 
0.667483747

$$$$
