
     RDKit          3D

 32 34  0  0  0  0  0  0  0  0999 V2000
   39.9100   22.7790   37.1880 C   0  0  0  0  0  0  0  0  0  0  0  0
   39.3260   23.4030   38.3200 C   0  0  0  0  0  0  0  0  0  0  0  0
   37.9210   23.4440   38.3810 C   0  0  0  0  0  0  0  0  0  0  0  0
   37.2050   22.8940   37.3700 N   0  0  0  0  0  0  0  0  0  0  0  0
   37.8080   22.3010   36.2960 C   0  0  0  0  0  0  0  0  0  0  0  0
   39.1510   22.2470   36.2080 N   0  0  0  0  0  0  0  0  0  0  0  0
   37.0640   21.7170   35.2210 N   0  0  0  0  0  0  0  0  0  0  0  0
   37.5480   21.9690   33.9640 C   0  0  0  0  0  0  0  0  0  0  0  0
   36.8440   21.4130   32.9030 C   0  0  0  0  0  0  0  0  0  0  0  0
   35.7130   20.6490   33.1690 C   0  0  0  0  0  0  0  0  0  0  0  0
   35.0980   20.1610   32.1880 O   0  0  0  0  0  0  0  0  0  0  0  0
   35.2950   20.4440   34.4370 N   0  0  0  0  0  0  0  0  0  0  0  0
   35.9780   20.9830   35.4740 C   0  0  0  0  0  0  0  0  0  0  0  0
   35.6550   20.8380   36.6630 O   0  0  0  0  0  0  0  0  0  0  0  0
   37.3290   21.6620   31.5820 N   0  0  0  0  0  0  0  0  0  0  0  0
   38.0050   20.7990   30.6050 C   0  0  0  0  0  0  0  0  0  0  0  0
   39.3250   21.5630   30.4610 C   0  0  0  0  0  0  0  0  0  0  0  0
   38.7840   22.9940   30.3460 C   0  0  0  0  0  0  0  0  0  0  0  0
   37.3140   22.8730   30.7490 C   0  0  0  0  0  0  0  0  0  0  0  0
   41.0059   22.7278   37.1075 H   0  0  0  0  0  0  0  0  0  0  0  0
   39.9464   23.8372   39.1178 H   0  0  0  0  0  0  0  0  0  0  0  0
   37.4120   23.9146   39.2350 H   0  0  0  0  0  0  0  0  0  0  0  0
   38.4482   22.5804   33.8031 H   0  0  0  0  0  0  0  0  0  0  0  0
   34.4544   19.8761   34.6153 H   0  0  0  0  0  0  0  0  0  0  0  0
   38.1602   19.7820   30.9944 H   0  0  0  0  0  0  0  0  0  0  0  0
   37.4550   20.6349   29.6666 H   0  0  0  0  0  0  0  0  0  0  0  0
   39.9688   21.4383   31.3442 H   0  0  0  0  0  0  0  0  0  0  0  0
   39.9636   21.2374   29.6266 H   0  0  0  0  0  0  0  0  0  0  0  0
   39.3210   23.6700   31.0277 H   0  0  0  0  0  0  0  0  0  0  0  0
   38.9110   23.4125   29.3367 H   0  0  0  0  0  0  0  0  0  0  0  0
   36.9828   23.7504   31.3239 H   0  0  0  0  0  0  0  0  0  0  0  0
   36.6214   22.8183   29.8961 H   0  0  0  0  0  0  0  0  0  0  0  0
  1  2  2  0
  2  3  1  0
  4  3  2  0
  5  4  1  0
  6  5  2  0
  6  1  1  0
  7 13  1  0
  7  5  1  0
  8  7  1  0
  9 10  1  0
  9  8  2  0
 10 12  1  0
 11 10  2  0
 12 13  1  0
 13 14  2  0
 15  9  1  0
 16 15  1  0
 17 16  1  0
 18 17  1  0
 18 19  1  0
 19 15  1  0
  1 20  1  0
  2 21  1  0
  3 22  1  0
  8 23  1  0
 12 24  1  0
 16 25  1  0
 16 26  1  0
 17 27  1  0
 17 28  1  0
 18 29  1  0
 18 30  1  0
 19 31  1  0
 19 32  1  0
M  ISO  8  20  14  21  14  22  14  23  14  24   9  25  13  26  13  27  13
M  ISO  5  28  13  29  13  30  13  31  13  32  13
M  END
>  <minimizedAffinity>  (1) 
-5.15468645

>  <minimizedRMSD>  (1) 
0.559248865

$$$$
