
     RDKit          3D

 25 27  0  0  0  0  0  0  0  0999 V2000
   39.8620   22.7360   37.4290 C   0  0  0  0  0  0  0  0  0  0  0  0
   39.2160   23.5110   38.4300 C   0  0  0  0  0  0  0  0  0  0  0  0
   37.8190   23.6470   38.3220 C   0  0  0  0  0  0  0  0  0  0  0  0
   37.1760   23.0460   37.2920 N   0  0  0  0  0  0  0  0  0  0  0  0
   37.8350   22.3130   36.3540 C   0  0  0  0  0  0  0  0  0  0  0  0
   39.1820   22.1580   36.4240 N   0  0  0  0  0  0  0  0  0  0  0  0
   37.1700   21.6750   35.2650 N   0  0  0  0  0  0  0  0  0  0  0  0
   37.7830   21.7680   34.0610 C   0  0  0  0  0  0  0  0  0  0  0  0
   37.1620   21.1590   32.9860 C   0  0  0  0  0  0  0  0  0  0  0  0
   35.9620   20.4940   33.1800 C   0  0  0  0  0  0  0  0  0  0  0  0
   35.3910   19.9380   32.2070 O   0  0  0  0  0  0  0  0  0  0  0  0
   35.4050   20.4410   34.4110 N   0  0  0  0  0  0  0  0  0  0  0  0
   36.0120   21.0380   35.4750 C   0  0  0  0  0  0  0  0  0  0  0  0
   35.5590   21.0290   36.6260 O   0  0  0  0  0  0  0  0  0  0  0  0
   37.7580   21.2140   31.6560 C   0  0  0  0  0  0  0  0  0  0  0  0
   37.7850   22.2430   30.7900 N   0  0  0  0  0  0  0  0  0  0  0  0
   38.4230   21.8690   29.7100 O   0  0  0  0  0  0  0  0  0  0  0  0
   38.8270   20.6220   29.8200 C   0  0  0  0  0  0  0  0  0  0  0  0
   38.4080   20.2070   31.0510 N   0  0  0  0  0  0  0  0  0  0  0  0
   40.9531   22.6051   37.4783 H   0  0  0  0  0  0  0  0  0  0  0  0
   39.7799   23.9815   39.2489 H   0  0  0  0  0  0  0  0  0  0  0  0
   37.2570   24.2333   39.0639 H   0  0  0  0  0  0  0  0  0  0  0  0
   38.7354   22.3057   33.9431 H   0  0  0  0  0  0  0  0  0  0  0  0
   34.5128   19.9443   34.5458 H   0  0  0  0  0  0  0  0  0  0  0  0
   39.3858   20.0360   29.0754 H   0  0  0  0  0  0  0  0  0  0  0  0
  1  2  2  0
  3  2  1  0
  4  3  2  0
  5  6  2  0
  5  4  1  0
  6  1  1  0
  7 13  1  0
  7  5  1  0
  8  7  1  0
  9 10  1  0
  9  8  2  0
 10 12  1  0
 11 10  2  0
 12 13  1  0
 13 14  2  0
 15  9  1  0
 16 15  2  0
 17 18  1  0
 17 16  1  0
 18 19  2  0
 19 15  1  0
  1 20  1  0
  2 21  1  0
  3 22  1  0
  8 23  1  0
 12 24  1  0
 18 25  1  0
M  ISO  6  20  14  21  14  22  14  23  14  24   9  25  14
M  END
>  <minimizedAffinity>  (1) 
-4.97559786

>  <minimizedRMSD>  (1) 
0.476365417

$$$$
