
     RDKit          3D

 54 56  0  0  0  0  0  0  0  0999 V2000
   37.7150   22.6500   36.2270 C   0  0  0  0  0  0  0  0  0  0  0  0
   37.8350   22.7540   34.8180 N   0  0  0  0  0  0  0  0  0  0  0  0
   38.1960   21.8130   33.8980 C   0  0  0  0  0  0  0  0  0  0  0  0
   38.1770   22.3570   32.6470 N   0  0  0  0  0  0  0  0  0  0  0  0
   37.8050   23.6340   32.7940 C   0  0  0  0  0  0  0  0  0  0  0  0
   37.6030   23.8590   34.1030 N   0  0  0  0  0  0  0  0  0  0  0  0
   37.6470   24.6210   31.6760 C   0  0  0  0  0  0  0  0  0  0  0  0
   36.1670   24.9500   31.5500 C   0  0  0  0  0  0  0  0  0  0  0  0
   38.0690   23.9900   30.3700 C   0  0  0  0  0  0  0  0  0  0  0  0
   38.3790   25.9090   31.9480 C   0  0  0  0  0  0  0  0  0  0  0  0
   37.6630   27.1110   31.5100 C   0  0  0  0  0  0  0  0  0  0  0  0
   36.9920   27.9080   32.4450 C   0  0  0  0  0  0  0  0  0  0  0  0
   36.2860   29.0590   32.1620 C   0  0  0  0  0  0  0  0  0  0  0  0
   36.2550   29.4290   30.8480 N   0  0  0  0  0  0  0  0  0  0  0  0
   36.9050   28.6620   29.9270 C   0  0  0  0  0  0  0  0  0  0  0  0
   37.5840   27.5450   30.2380 N   0  0  0  0  0  0  0  0  0  0  0  0
   38.6800   23.5640   36.9610 C   0  0  0  0  0  0  0  0  0  0  0  0
   41.9400   21.6950   36.8860 C   0  0  0  0  0  0  0  0  0  0  0  0
   40.6400   22.0270   37.2180 C   0  0  0  0  0  0  0  0  0  0  0  0
   40.0390   23.1610   36.6560 C   0  0  0  0  0  0  0  0  0  0  0  0
   40.7710   23.9040   35.7910 N   0  0  0  0  0  0  0  0  0  0  0  0
   42.0430   23.5700   35.4740 C   0  0  0  0  0  0  0  0  0  0  0  0
   42.6170   22.4610   36.0300 N   0  0  0  0  0  0  0  0  0  0  0  0
   42.5520   20.4980   37.4890 C   0  0  0  0  0  0  0  0  0  0  0  0
   43.1750   19.5770   36.4910 C   0  0  0  0  0  0  0  0  0  0  0  0
   38.4730   23.3820   38.4550 C   0  0  0  0  0  0  0  0  0  0  0  0
   38.3430   24.9840   36.5760 C   0  0  0  0  0  0  0  0  0  0  0  0
   37.9194   21.6104   36.5228 H   0  0  0  0  0  0  0  0  0  0  0  0
   36.6935   22.9541   36.4991 H   0  0  0  0  0  0  0  0  0  0  0  0
   38.4625   20.7714   34.1304 H   0  0  0  0  0  0  0  0  0  0  0  0
   35.7265   25.0479   32.5532 H   0  0  0  0  0  0  0  0  0  0  0  0
   36.0471   25.8967   31.0029 H   0  0  0  0  0  0  0  0  0  0  0  0
   35.6573   24.1432   31.0029 H   0  0  0  0  0  0  0  0  0  0  0  0
   38.6699   23.0915   30.5742 H   0  0  0  0  0  0  0  0  0  0  0  0
   37.1756   23.7102   29.7924 H   0  0  0  0  0  0  0  0  0  0  0  0
   38.6688   24.7088   29.7924 H   0  0  0  0  0  0  0  0  0  0  0  0
   38.5512   25.9857   33.0317 H   0  0  0  0  0  0  0  0  0  0  0  0
   39.3139   25.8695   31.3697 H   0  0  0  0  0  0  0  0  0  0  0  0
   37.0311   27.5887   33.4969 H   0  0  0  0  0  0  0  0  0  0  0  0
   35.7799   29.6420   32.9456 H   0  0  0  0  0  0  0  0  0  0  0  0
   36.8718   28.9744   28.8728 H   0  0  0  0  0  0  0  0  0  0  0  0
   40.0764   21.4000   37.9245 H   0  0  0  0  0  0  0  0  0  0  0  0
   42.6153   24.1908   34.7689 H   0  0  0  0  0  0  0  0  0  0  0  0
   43.3303   20.8236   38.1949 H   0  0  0  0  0  0  0  0  0  0  0  0
   41.7451   19.9382   37.9845 H   0  0  0  0  0  0  0  0  0  0  0  0
   43.7160   18.7772   37.0179 H   0  0  0  0  0  0  0  0  0  0  0  0
   42.3899   19.1346   35.8602 H   0  0  0  0  0  0  0  0  0  0  0  0
   43.8778   20.1411   35.8602 H   0  0  0  0  0  0  0  0  0  0  0  0
   39.1890   24.0115   39.0037 H   0  0  0  0  0  0  0  0  0  0  0  0
   37.4470   23.6759   38.7215 H   0  0  0  0  0  0  0  0  0  0  0  0
   38.6331   22.3269   38.7215 H   0  0  0  0  0  0  0  0  0  0  0  0
   38.2001   25.5863   37.4853 H   0  0  0  0  0  0  0  0  0  0  0  0
   39.1655   25.4077   35.9811 H   0  0  0  0  0  0  0  0  0  0  0  0
   37.4178   24.9929   35.9811 H   0  0  0  0  0  0  0  0  0  0  0  0
  1 17  1  0
  2  1  1  0
  3  2  1  0
  4  5  1  0
  4  3  2  0
  5  6  2  0
  6  2  1  0
  7 10  1  0
  7  5  1  0
  8  7  1  0
  9  7  1  0
 11 10  1  0
 11 12  2  0
 13 12  1  0
 14 13  2  0
 15 16  2  0
 15 14  1  0
 16 11  1  0
 17 26  1  0
 18 19  2  0
 18 24  1  0
 20 17  1  0
 20 19  1  0
 21 20  2  0
 22 21  1  0
 22 23  2  0
 23 18  1  0
 25 24  1  0
 27 17  1  0
  1 28  1  0
  1 29  1  0
  3 30  1  0
  8 31  1  0
  8 32  1  0
  8 33  1  0
  9 34  1  0
  9 35  1  0
  9 36  1  0
 10 37  1  0
 10 38  1  0
 12 39  1  0
 13 40  1  0
 15 41  1  0
 19 42  1  0
 22 43  1  0
 24 44  1  0
 24 45  1  0
 25 46  1  0
 25 47  1  0
 25 48  1  0
 26 49  1  0
 26 50  1  0
 26 51  1  0
 27 52  1  0
 27 53  1  0
 27 54  1  0
M  ISO  8  28   8  29   8  30  14  31   8  32   8  33   8  34   8  35   8
M  ISO  8  36   8  37   8  38   8  39  14  40  14  41  14  42  14  43  14
M  ISO  8  44   8  45   8  46   8  47   8  48   8  49   8  50   8  51   8
M  ISO  3  52   8  53   8  54   8
M  END
>  <minimizedAffinity>  (1) 
-5.19208288

>  <minimizedRMSD>  (1) 
1.02262032

$$$$
