
     RDKit          3D

 27 29  0  0  0  0  0  0  0  0999 V2000
   39.8520   22.7150   37.4720 C   0  0  0  0  0  0  0  0  0  0  0  0
   39.1930   23.5150   38.4460 C   0  0  0  0  0  0  0  0  0  0  0  0
   37.7980   23.6770   38.3050 C   0  0  0  0  0  0  0  0  0  0  0  0
   37.1660   23.0720   37.2660 N   0  0  0  0  0  0  0  0  0  0  0  0
   37.8330   22.3210   36.3640 C   0  0  0  0  0  0  0  0  0  0  0  0
   39.1760   22.1360   36.4580 N   0  0  0  0  0  0  0  0  0  0  0  0
   37.1920   21.6820   35.2720 N   0  0  0  0  0  0  0  0  0  0  0  0
   37.8250   21.7380   34.0580 C   0  0  0  0  0  0  0  0  0  0  0  0
   37.2310   21.1280   32.9800 C   0  0  0  0  0  0  0  0  0  0  0  0
   36.0200   20.4830   33.1610 C   0  0  0  0  0  0  0  0  0  0  0  0
   35.4530   19.9160   32.1920 O   0  0  0  0  0  0  0  0  0  0  0  0
   35.4320   20.4520   34.3740 N   0  0  0  0  0  0  0  0  0  0  0  0
   36.0280   21.0590   35.4390 C   0  0  0  0  0  0  0  0  0  0  0  0
   35.5450   21.0730   36.5880 O   0  0  0  0  0  0  0  0  0  0  0  0
   37.8670   21.1600   31.6630 C   0  0  0  0  0  0  0  0  0  0  0  0
   38.3090   20.2390   30.8130 C   0  0  0  0  0  0  0  0  0  0  0  0
   38.8640   20.6040   29.6450 C   0  0  0  0  0  0  0  0  0  0  0  0
   38.9480   21.9510   29.3790 C   0  0  0  0  0  0  0  0  0  0  0  0
   38.1800   22.7640   30.9110 S   0  0  0  0  0  0  0  0  0  0  0  0
   40.9391   22.5647   37.5472 H   0  0  0  0  0  0  0  0  0  0  0  0
   39.7457   23.9863   39.2721 H   0  0  0  0  0  0  0  0  0  0  0  0
   37.2310   24.2843   39.0259 H   0  0  0  0  0  0  0  0  0  0  0  0
   38.7873   22.2597   33.9491 H   0  0  0  0  0  0  0  0  0  0  0  0
   34.5307   19.9687   34.4961 H   0  0  0  0  0  0  0  0  0  0  0  0
   38.2200   19.1724   31.0669 H   0  0  0  0  0  0  0  0  0  0  0  0
   39.2363   19.8555   28.9301 H   0  0  0  0  0  0  0  0  0  0  0  0
   39.3634   22.4419   28.4865 H   0  0  0  0  0  0  0  0  0  0  0  0
  1  2  2  0
  3  2  1  0
  4  3  2  0
  5  6  2  0
  5  4  1  0
  6  1  1  0
  7 13  1  0
  7  5  1  0
  8  7  1  0
  9 10  1  0
  9  8  2  0
 10 12  1  0
 11 10  2  0
 12 13  1  0
 13 14  2  0
 15  9  1  0
 16 15  2  0
 17 16  1  0
 18 17  2  0
 18 19  1  0
 19 15  1  0
  1 20  1  0
  2 21  1  0
  3 22  1  0
  8 23  1  0
 12 24  1  0
 16 25  1  0
 17 26  1  0
 18 27  1  0
M  ISO  8  20  14  21  14  22  14  23  14  24   9  25  14  26  14  27  14
M  END
>  <minimizedAffinity>  (1) 
-4.93205452

>  <minimizedRMSD>  (1) 
0.371028185

$$$$
