
     RDKit          3D

 22 23  0  0  0  0  0  0  0  0999 V2000
   39.9050   22.7150   37.2070 C   0  0  0  0  0  0  0  0  0  0  0  0
   39.2830   23.4250   38.2780 C   0  0  0  0  0  0  0  0  0  0  0  0
   37.8760   23.5210   38.2610 C   0  0  0  0  0  0  0  0  0  0  0  0
   37.1880   22.9450   37.2470 N   0  0  0  0  0  0  0  0  0  0  0  0
   37.8170   22.2770   36.2440 C   0  0  0  0  0  0  0  0  0  0  0  0
   39.1630   22.1640   36.2250 N   0  0  0  0  0  0  0  0  0  0  0  0
   37.1210   21.6600   35.1620 N   0  0  0  0  0  0  0  0  0  0  0  0
   37.6550   21.8180   33.9200 C   0  0  0  0  0  0  0  0  0  0  0  0
   36.9950   21.2280   32.8590 C   0  0  0  0  0  0  0  0  0  0  0  0
   35.8270   20.5070   33.1160 C   0  0  0  0  0  0  0  0  0  0  0  0
   35.2360   19.9740   32.1320 O   0  0  0  0  0  0  0  0  0  0  0  0
   35.3430   20.3830   34.3700 N   0  0  0  0  0  0  0  0  0  0  0  0
   35.9940   20.9650   35.4120 C   0  0  0  0  0  0  0  0  0  0  0  0
   35.6190   20.9000   36.5880 O   0  0  0  0  0  0  0  0  0  0  0  0
   37.5300   21.3760   31.5490 N   0  0  0  0  0  0  0  0  0  0  0  0
   41.0003   22.6164   37.1826 H   0  0  0  0  0  0  0  0  0  0  0  0
   39.8775   23.8792   39.0844 H   0  0  0  0  0  0  0  0  0  0  0  0
   37.3444   24.0569   39.0612 H   0  0  0  0  0  0  0  0  0  0  0  0
   38.5790   22.3948   33.7664 H   0  0  0  0  0  0  0  0  0  0  0  0
   34.4796   19.8469   34.5376 H   0  0  0  0  0  0  0  0  0  0  0  0
   38.3946   21.9166   31.4039 H   0  0  0  0  0  0  0  0  0  0  0  0
   37.0527   20.9425   30.7458 H   0  0  0  0  0  0  0  0  0  0  0  0
  1  2  2  0
  3  2  1  0
  4  3  2  0
  5  4  1  0
  6  5  2  0
  6  1  1  0
  7 13  1  0
  7  5  1  0
  8  7  1  0
  9 10  1  0
  9  8  2  0
 10 12  1  0
 11 10  2  0
 12 13  1  0
 13 14  2  0
 15  9  1  0
  1 16  1  0
  2 17  1  0
  3 18  1  0
  8 19  1  0
 12 20  1  0
 15 21  1  0
 15 22  1  0
M  ISO  5  16  14  17  14  18  14  19  14  20   9
M  END
>  <minimizedAffinity>  (1) 
-4.89951563

>  <minimizedRMSD>  (1) 
0.0235415399

$$$$
