
     RDKit          3D

 26 27  0  0  0  0  0  0  0  0999 V2000
   39.8930   22.7180   37.2210 C   0  0  0  0  0  0  0  0  0  0  0  0
   39.2910   23.4250   38.2850 C   0  0  0  0  0  0  0  0  0  0  0  0
   37.8760   23.5250   38.2680 C   0  0  0  0  0  0  0  0  0  0  0  0
   37.1890   22.9450   37.2500 N   0  0  0  0  0  0  0  0  0  0  0  0
   37.8180   22.2750   36.2500 C   0  0  0  0  0  0  0  0  0  0  0  0
   39.1670   22.1610   36.2360 N   0  0  0  0  0  0  0  0  0  0  0  0
   37.1090   21.6600   35.1730 N   0  0  0  0  0  0  0  0  0  0  0  0
   37.6500   21.8380   33.9280 C   0  0  0  0  0  0  0  0  0  0  0  0
   36.9800   21.2510   32.8670 C   0  0  0  0  0  0  0  0  0  0  0  0
   35.8130   20.5240   33.1290 C   0  0  0  0  0  0  0  0  0  0  0  0
   35.2020   19.9880   32.1530 O   0  0  0  0  0  0  0  0  0  0  0  0
   35.3380   20.3910   34.3860 N   0  0  0  0  0  0  0  0  0  0  0  0
   35.9970   20.9660   35.4180 C   0  0  0  0  0  0  0  0  0  0  0  0
   35.6200   20.8860   36.5950 O   0  0  0  0  0  0  0  0  0  0  0  0
   37.4570   21.3660   31.4730 C   0  0  0  0  0  0  0  0  0  0  0  0
   37.3840   22.7880   30.9860 C   0  0  0  0  0  0  0  0  0  0  0  0
   40.9884   22.6201   37.1974 H   0  0  0  0  0  0  0  0  0  0  0  0
   39.8908   23.8767   39.0888 H   0  0  0  0  0  0  0  0  0  0  0  0
   37.3440   24.0634   39.0662 H   0  0  0  0  0  0  0  0  0  0  0  0
   38.5719   22.4189   33.7775 H   0  0  0  0  0  0  0  0  0  0  0  0
   34.4765   19.8534   34.5585 H   0  0  0  0  0  0  0  0  0  0  0  0
   38.5009   21.0228   31.4219 H   0  0  0  0  0  0  0  0  0  0  0  0
   36.8120   20.7461   30.8329 H   0  0  0  0  0  0  0  0  0  0  0  0
   37.3490   23.4697   31.8486 H   0  0  0  0  0  0  0  0  0  0  0  0
   38.2718   23.0129   30.3767 H   0  0  0  0  0  0  0  0  0  0  0  0
   36.4779   22.9208   30.3767 H   0  0  0  0  0  0  0  0  0  0  0  0
  1  2  2  0
  3  2  1  0
  4  3  2  0
  5  4  1  0
  6  5  2  0
  6  1  1  0
  7 13  1  0
  7  5  1  0
  8  7  1  0
  9 10  1  0
  9  8  2  0
 10 12  1  0
 11 10  2  0
 12 13  1  0
 13 14  2  0
 15  9  1  0
 16 15  1  0
  1 17  1  0
  2 18  1  0
  3 19  1  0
  8 20  1  0
 12 21  1  0
 15 22  1  0
 15 23  1  0
 16 24  1  0
 16 25  1  0
 16 26  1  0
M  ISO  8  17  14  18  14  19  14  20  14  21   9  22   8  23   8  24   8
M  ISO  2  25   8  26   8
M  END
>  <minimizedAffinity>  (1) 
-4.91351318

>  <minimizedRMSD>  (1) 
0.0539312996

$$$$
