
     RDKit          3D

 29 31  0  0  0  0  0  0  0  0999 V2000
   39.8570   22.7590   37.4700 C   0  0  0  0  0  0  0  0  0  0  0  0
   39.0730   23.2820   38.5200 C   0  0  0  0  0  0  0  0  0  0  0  0
   37.6720   23.3430   38.3170 C   0  0  0  0  0  0  0  0  0  0  0  0
   37.1660   22.9020   37.1420 N   0  0  0  0  0  0  0  0  0  0  0  0
   37.9670   22.4040   36.1580 C   0  0  0  0  0  0  0  0  0  0  0  0
   39.2970   22.3340   36.3220 N   0  0  0  0  0  0  0  0  0  0  0  0
   37.4290   21.9370   34.9160 N   0  0  0  0  0  0  0  0  0  0  0  0
   38.1340   22.2890   33.7960 C   0  0  0  0  0  0  0  0  0  0  0  0
   37.6730   21.8740   32.5710 C   0  0  0  0  0  0  0  0  0  0  0  0
   36.4950   21.1080   32.5520 C   0  0  0  0  0  0  0  0  0  0  0  0
   36.0430   20.7080   31.4310 O   0  0  0  0  0  0  0  0  0  0  0  0
   35.8410   20.7890   33.6840 N   0  0  0  0  0  0  0  0  0  0  0  0
   36.3140   21.2100   34.8830 C   0  0  0  0  0  0  0  0  0  0  0  0
   35.7760   20.9630   35.9700 O   0  0  0  0  0  0  0  0  0  0  0  0
   38.3030   22.1640   31.3080 C   0  0  0  0  0  0  0  0  0  0  0  0
   38.1940   23.4050   30.7170 C   0  0  0  0  0  0  0  0  0  0  0  0
   38.7780   23.7410   29.5040 C   0  0  0  0  0  0  0  0  0  0  0  0
   39.5240   22.7700   28.8320 C   0  0  0  0  0  0  0  0  0  0  0  0
   39.6040   21.5500   29.4610 C   0  0  0  0  0  0  0  0  0  0  0  0
   39.0190   21.2710   30.6390 N   0  0  0  0  0  0  0  0  0  0  0  0
   40.9485   22.6973   37.5920 H   0  0  0  0  0  0  0  0  0  0  0  0
   39.5309   23.6284   39.4583 H   0  0  0  0  0  0  0  0  0  0  0  0
   37.0088   23.7410   39.0991 H   0  0  0  0  0  0  0  0  0  0  0  0
   39.0507   22.8918   33.8761 H   0  0  0  0  0  0  0  0  0  0  0  0
   34.9805   20.2246   33.6396 H   0  0  0  0  0  0  0  0  0  0  0  0
   37.6082   24.1759   31.2391 H   0  0  0  0  0  0  0  0  0  0  0  0
   38.6562   24.7492   29.0812 H   0  0  0  0  0  0  0  0  0  0  0  0
   40.0134   22.9676   27.8669 H   0  0  0  0  0  0  0  0  0  0  0  0
   40.1822   20.7532   28.9703 H   0  0  0  0  0  0  0  0  0  0  0  0
  1  2  2  0
  3  2  1  0
  4  3  2  0
  5  6  2  0
  5  4  1  0
  6  1  1  0
  7  5  1  0
  8  7  1  0
  9  8  2  0
 10  9  1  0
 10 12  1  0
 11 10  2  0
 12 13  1  0
 13  7  1  0
 13 14  2  0
 15  9  1  0
 16 15  2  0
 17 16  1  0
 18 19  1  0
 18 17  2  0
 19 20  2  0
 20 15  1  0
  1 21  1  0
  2 22  1  0
  3 23  1  0
  8 24  1  0
 12 25  1  0
 16 26  1  0
 17 27  1  0
 18 28  1  0
 19 29  1  0
M  ISO  8  21  14  22  14  23  14  24  14  25   9  26  14  27  14  28  14
M  ISO  1  29  14
M  END
>  <minimizedAffinity>  (1) 
-4.95493889

>  <minimizedRMSD>  (1) 
1.05075002

$$$$
