
     RDKit          3D

 23 24  0  0  0  0  0  0  0  0999 V2000
   39.8890   22.7280   37.2320 C   0  0  0  0  0  0  0  0  0  0  0  0
   39.2700   23.4460   38.2910 C   0  0  0  0  0  0  0  0  0  0  0  0
   37.8620   23.5440   38.2680 C   0  0  0  0  0  0  0  0  0  0  0  0
   37.2020   22.9510   37.2480 N   0  0  0  0  0  0  0  0  0  0  0  0
   37.8270   22.2730   36.2540 C   0  0  0  0  0  0  0  0  0  0  0  0
   39.1780   22.1560   36.2380 N   0  0  0  0  0  0  0  0  0  0  0  0
   37.1190   21.6580   35.1910 N   0  0  0  0  0  0  0  0  0  0  0  0
   37.6540   21.8160   33.9360 C   0  0  0  0  0  0  0  0  0  0  0  0
   36.9870   21.2270   32.8800 C   0  0  0  0  0  0  0  0  0  0  0  0
   35.8250   20.5140   33.1310 C   0  0  0  0  0  0  0  0  0  0  0  0
   35.2310   19.9840   32.1500 O   0  0  0  0  0  0  0  0  0  0  0  0
   35.3390   20.3880   34.3900 N   0  0  0  0  0  0  0  0  0  0  0  0
   36.0010   20.9680   35.4130 C   0  0  0  0  0  0  0  0  0  0  0  0
   35.6190   20.8990   36.6030 O   0  0  0  0  0  0  0  0  0  0  0  0
   37.4700   21.3280   31.4660 C   0  0  0  0  0  0  0  0  0  0  0  0
   40.9851   22.6355   37.2224 H   0  0  0  0  0  0  0  0  0  0  0  0
   39.8633   23.9061   39.0949 H   0  0  0  0  0  0  0  0  0  0  0  0
   37.3185   24.0862   39.0558 H   0  0  0  0  0  0  0  0  0  0  0  0
   38.5789   22.3901   33.7780 H   0  0  0  0  0  0  0  0  0  0  0  0
   34.4745   19.8558   34.5639 H   0  0  0  0  0  0  0  0  0  0  0  0
   38.5467   21.5531   31.4615 H   0  0  0  0  0  0  0  0  0  0  0  0
   37.2929   20.3734   30.9490 H   0  0  0  0  0  0  0  0  0  0  0  0
   36.9252   22.1316   30.9490 H   0  0  0  0  0  0  0  0  0  0  0  0
  1  2  2  0
  3  2  1  0
  4  3  2  0
  5  4  1  0
  6  5  2  0
  6  1  1  0
  7 13  1  0
  7  5  1  0
  8  7  1  0
  9 10  1  0
  9  8  2  0
 10 12  1  0
 11 10  2  0
 12 13  1  0
 13 14  2  0
 15  9  1  0
  1 16  1  0
  2 17  1  0
  3 18  1  0
  8 19  1  0
 12 20  1  0
 15 21  1  0
 15 22  1  0
 15 23  1  0
M  ISO  8  16  14  17  14  18  14  19  14  20   9  21   8  22   8  23   8
M  END
>  <minimizedAffinity>  (1) 
-4.93835688

>  <minimizedRMSD>  (1) 
0.0110520758

$$$$
