
     RDKit          3D

 13 13  0  0  0  0  0  0  0  0999 V2000
   39.9780   22.6780   37.5770 C   0  0  0  0  0  0  0  0  0  0  0  0
   39.1550   23.3040   38.5310 C   0  0  0  0  0  0  0  0  0  0  0  0
   37.8090   23.5020   38.1690 C   0  0  0  0  0  0  0  0  0  0  0  0
   37.3770   23.0850   36.9300 N   0  0  0  0  0  0  0  0  0  0  0  0
   38.2230   22.4920   36.0660 C   0  0  0  0  0  0  0  0  0  0  0  0
   39.5110   22.2820   36.3670 N   0  0  0  0  0  0  0  0  0  0  0  0
   37.7520   22.0400   34.7240 C   0  0  0  0  0  0  0  0  0  0  0  0
   41.0364   22.5038   37.8209 H   0  0  0  0  0  0  0  0  0  0  0  0
   39.5433   23.6224   39.5097 H   0  0  0  0  0  0  0  0  0  0  0  0
   37.1102   23.9845   38.8682 H   0  0  0  0  0  0  0  0  0  0  0  0
   36.9634   21.2832   34.8479 H   0  0  0  0  0  0  0  0  0  0  0  0
   37.3508   22.8998   34.1674 H   0  0  0  0  0  0  0  0  0  0  0  0
   38.5946   21.6038   34.1674 H   0  0  0  0  0  0  0  0  0  0  0  0
  1  2  2  0
  3  2  1  0
  4  3  2  0
  5  6  2  0
  5  4  1  0
  6  1  1  0
  7  5  1  0
  1  8  1  0
  2  9  1  0
  3 10  1  0
  7 11  1  0
  7 12  1  0
  7 13  1  0
M  ISO  6   8  14   9  14  10  14  11   8  12   8  13   8
M  END
>  <minimizedAffinity>  (1) 
-2.7213099

>  <minimizedRMSD>  (1) 
0.481899083

$$$$
