
     RDKit          3D

 27 29  0  0  0  0  0  0  0  0999 V2000
   38.7690   23.3980   34.1150 C   0  0  0  0  0  0  0  0  0  0  0  0
   38.3050   24.7190   33.6040 C   0  0  0  0  0  0  0  0  0  0  0  0
   38.9300   25.8510   34.0230 N   0  0  0  0  0  0  0  0  0  0  0  0
   38.5450   27.0660   33.5900 C   0  0  0  0  0  0  0  0  0  0  0  0
   37.5260   27.2260   32.7220 N   0  0  0  0  0  0  0  0  0  0  0  0
   36.8780   26.1360   32.2790 C   0  0  0  0  0  0  0  0  0  0  0  0
   35.8100   26.2200   31.3770 C   0  0  0  0  0  0  0  0  0  0  0  0
   35.1410   25.0840   30.9220 C   0  0  0  0  0  0  0  0  0  0  0  0
   35.5440   23.8490   31.3730 C   0  0  0  0  0  0  0  0  0  0  0  0
   36.6000   23.7140   32.2690 C   0  0  0  0  0  0  0  0  0  0  0  0
   37.2480   24.8590   32.7070 C   0  0  0  0  0  0  0  0  0  0  0  0
   39.9200   22.8120   37.5610 C   0  0  0  0  0  0  0  0  0  0  0  0
   38.8560   23.2610   38.3500 C   0  0  0  0  0  0  0  0  0  0  0  0
   37.7290   23.7700   37.6770 C   0  0  0  0  0  0  0  0  0  0  0  0
   37.7420   23.7970   36.3090 N   0  0  0  0  0  0  0  0  0  0  0  0
   38.7950   23.3510   35.5960 C   0  0  0  0  0  0  0  0  0  0  0  0
   39.8850   22.8590   36.2140 N   0  0  0  0  0  0  0  0  0  0  0  0
   39.7841   23.2078   33.7362 H   0  0  0  0  0  0  0  0  0  0  0  0
   38.0620   22.6318   33.7642 H   0  0  0  0  0  0  0  0  0  0  0  0
   39.0783   27.9558   33.9557 H   0  0  0  0  0  0  0  0  0  0  0  0
   35.4900   27.2091   31.0175 H   0  0  0  0  0  0  0  0  0  0  0  0
   34.3043   25.1745   30.2137 H   0  0  0  0  0  0  0  0  0  0  0  0
   35.0206   22.9490   31.0180 H   0  0  0  0  0  0  0  0  0  0  0  0
   36.9139   22.7206   32.6222 H   0  0  0  0  0  0  0  0  0  0  0  0
   40.8151   22.4071   38.0559 H   0  0  0  0  0  0  0  0  0  0  0  0
   38.8979   23.2183   39.4484 H   0  0  0  0  0  0  0  0  0  0  0  0
   36.8575   24.1378   38.2384 H   0  0  0  0  0  0  0  0  0  0  0  0
  1 16  1  0
  2  3  2  0
  2  1  1  0
  4  3  1  0
  5  4  2  0
  6 11  2  0
  6  5  1  0
  7  6  1  0
  8  9  1  0
  8  7  2  0
  9 10  2  0
 10 11  1  0
 11  2  1  0
 12 13  2  0
 14 13  1  0
 15 14  2  0
 16 17  2  0
 16 15  1  0
 17 12  1  0
  1 18  1  0
  1 19  1  0
  4 20  1  0
  7 21  1  0
  8 22  1  0
  9 23  1  0
 10 24  1  0
 12 25  1  0
 13 26  1  0
 14 27  1  0
M  ISO  8  18   8  19   8  20  14  21  14  22  14  23  14  24  14  25  14
M  ISO  2  26  14  27  14
M  END
>  <minimizedAffinity>  (1) 
-4.76661587

>  <minimizedRMSD>  (1) 
2.24806762

$$$$
