
     RDKit          3D

 28 29  0  0  0  0  0  0  0  0999 V2000
   38.3450   22.9580   33.8300 C   0  0  0  0  0  0  0  0  0  0  0  0
   40.2570   22.1400   36.8580 C   0  0  0  0  0  0  0  0  0  0  0  0
   39.6470   22.8860   37.8800 C   0  0  0  0  0  0  0  0  0  0  0  0
   38.5590   23.6800   37.5010 C   0  0  0  0  0  0  0  0  0  0  0  0
   38.1480   23.6960   36.1910 N   0  0  0  0  0  0  0  0  0  0  0  0
   38.7760   22.9580   35.2670 C   0  0  0  0  0  0  0  0  0  0  0  0
   39.8270   22.1750   35.5660 N   0  0  0  0  0  0  0  0  0  0  0  0
   37.3210   21.9860   33.6200 N   0  0  0  0  0  0  0  0  0  0  0  0
   36.4670   22.2160   32.5070 C   0  0  0  0  0  0  0  0  0  0  0  0
   35.6660   20.9980   32.1700 C   0  0  0  0  0  0  0  0  0  0  0  0
   35.5680   19.9860   33.2600 C   0  0  0  0  0  0  0  0  0  0  0  0
   35.6620   20.5280   34.6530 C   0  0  0  0  0  0  0  0  0  0  0  0
   36.6960   21.5980   34.8410 C   0  0  0  0  0  0  0  0  0  0  0  0
   37.9594   23.9540   33.5668 H   0  0  0  0  0  0  0  0  0  0  0  0
   39.2096   22.7094   33.1971 H   0  0  0  0  0  0  0  0  0  0  0  0
   41.1165   21.5019   37.1112 H   0  0  0  0  0  0  0  0  0  0  0  0
   40.0045   22.8481   38.9196 H   0  0  0  0  0  0  0  0  0  0  0  0
   38.0341   24.2900   38.2509 H   0  0  0  0  0  0  0  0  0  0  0  0
   35.7798   23.0404   32.7480 H   0  0  0  0  0  0  0  0  0  0  0  0
   37.0925   22.4691   31.6383 H   0  0  0  0  0  0  0  0  0  0  0  0
   34.6467   21.3208   31.9117 H   0  0  0  0  0  0  0  0  0  0  0  0
   36.1921   20.5047   31.3394 H   0  0  0  0  0  0  0  0  0  0  0  0
   34.5999   19.4732   33.1604 H   0  0  0  0  0  0  0  0  0  0  0  0
   36.4361   19.3222   33.1349 H   0  0  0  0  0  0  0  0  0  0  0  0
   34.6819   20.9473   34.9243 H   0  0  0  0  0  0  0  0  0  0  0  0
   35.9655   19.6869   35.2937 H   0  0  0  0  0  0  0  0  0  0  0  0
   37.4693   21.2222   35.5272 H   0  0  0  0  0  0  0  0  0  0  0  0
   36.1847   22.4837   35.2461 H   0  0  0  0  0  0  0  0  0  0  0  0
  1  6  1  0
  2  3  2  0
  4  3  1  0
  5  4  2  0
  6  7  2  0
  6  5  1  0
  7  2  1  0
  8  1  1  0
  8 13  1  0
  9  8  1  0
 10  9  1  0
 10 11  1  0
 11 12  1  0
 12 13  1  0
  1 14  1  0
  1 15  1  0
  2 16  1  0
  3 17  1  0
  4 18  1  0
  9 19  1  0
  9 20  1  0
 10 21  1  0
 10 22  1  0
 11 23  1  0
 11 24  1  0
 12 25  1  0
 12 26  1  0
 13 27  1  0
 13 28  1  0
M  ISO  8  14   8  15   8  16  14  17  14  18  14  19  13  20  13  21  13
M  ISO  7  22  13  23  13  24  13  25  13  26  13  27  13  28  13
M  END
>  <minimizedAffinity>  (1) 
-3.66153407

>  <minimizedRMSD>  (1) 
1.81726599

$$$$
