
     RDKit          3D

 20 21  0  0  0  0  0  0  0  0999 V2000
   39.9980   22.7420   37.6260 C   0  0  0  0  0  0  0  0  0  0  0  0
   38.9910   23.2750   38.4450 C   0  0  0  0  0  0  0  0  0  0  0  0
   37.6890   23.3650   37.9180 C   0  0  0  0  0  0  0  0  0  0  0  0
   37.4710   22.9270   36.6350 N   0  0  0  0  0  0  0  0  0  0  0  0
   38.4740   22.4250   35.8930 C   0  0  0  0  0  0  0  0  0  0  0  0
   39.7320   22.3250   36.3660 N   0  0  0  0  0  0  0  0  0  0  0  0
   38.2390   21.9530   34.5070 C   0  0  0  0  0  0  0  0  0  0  0  0
   37.7860   23.0660   33.6470 C   0  0  0  0  0  0  0  0  0  0  0  0
   36.9830   22.8340   32.5390 C   0  0  0  0  0  0  0  0  0  0  0  0
   36.7160   24.0420   31.9290 C   0  0  0  0  0  0  0  0  0  0  0  0
   37.3920   24.9700   32.7230 C   0  0  0  0  0  0  0  0  0  0  0  0
   38.0060   24.3520   33.7200 O   0  0  0  0  0  0  0  0  0  0  0  0
   41.0236   22.6615   38.0155 H   0  0  0  0  0  0  0  0  0  0  0  0
   39.2125   23.6124   39.4683 H   0  0  0  0  0  0  0  0  0  0  0  0
   36.8654   23.7766   38.5198 H   0  0  0  0  0  0  0  0  0  0  0  0
   39.1752   21.5414   34.1019 H   0  0  0  0  0  0  0  0  0  0  0  0
   37.4581   21.1785   34.5243 H   0  0  0  0  0  0  0  0  0  0  0  0
   36.6202   21.8513   32.2035 H   0  0  0  0  0  0  0  0  0  0  0  0
   36.1124   24.2299   31.0288 H   0  0  0  0  0  0  0  0  0  0  0  0
   37.4117   26.0555   32.5463 H   0  0  0  0  0  0  0  0  0  0  0  0
  1  2  2  0
  3  2  1  0
  4  3  2  0
  5  6  2  0
  5  4  1  0
  6  1  1  0
  7  5  1  0
  8 12  1  0
  8  7  1  0
  9  8  2  0
 10  9  1  0
 10 11  2  0
 11 12  1  0
  1 13  1  0
  2 14  1  0
  3 15  1  0
  7 16  1  0
  7 17  1  0
  9 18  1  0
 10 19  1  0
 11 20  1  0
M  ISO  8  13  14  14  14  15  14  16   8  17   8  18  14  19  14  20  14
M  END
>  <minimizedAffinity>  (1) 
-3.43607235

>  <minimizedRMSD>  (1) 
0.651887298

$$$$
