
     RDKit          3D

 20 21  0  0  0  0  0  0  0  0999 V2000
   39.7840   22.7650   37.9580 C   0  0  0  0  0  0  0  0  0  0  0  0
   38.9020   23.5730   38.7160 C   0  0  0  0  0  0  0  0  0  0  0  0
   37.8910   24.2450   38.0190 C   0  0  0  0  0  0  0  0  0  0  0  0
   37.8040   24.0920   36.6530 N   0  0  0  0  0  0  0  0  0  0  0  0
   38.6840   23.3020   35.9930 C   0  0  0  0  0  0  0  0  0  0  0  0
   39.6650   22.6410   36.6200 N   0  0  0  0  0  0  0  0  0  0  0  0
   38.5780   23.1450   34.5110 C   0  0  0  0  0  0  0  0  0  0  0  0
   37.4490   22.1830   34.2210 C   0  0  0  0  0  0  0  0  0  0  0  0
   36.7240   21.4360   35.2490 C   0  0  0  0  0  0  0  0  0  0  0  0
   35.7390   20.6250   34.7590 C   0  0  0  0  0  0  0  0  0  0  0  0
   35.5060   20.5650   33.3870 C   0  0  0  0  0  0  0  0  0  0  0  0
   36.7240   21.7060   32.7040 S   0  0  0  0  0  0  0  0  0  0  0  0
   40.5894   22.2228   38.4751 H   0  0  0  0  0  0  0  0  0  0  0  0
   39.0069   23.6686   39.8068 H   0  0  0  0  0  0  0  0  0  0  0  0
   37.1759   24.8864   38.5549 H   0  0  0  0  0  0  0  0  0  0  0  0
   38.3661   24.1195   34.0469 H   0  0  0  0  0  0  0  0  0  0  0  0
   39.5226   22.7595   34.0998 H   0  0  0  0  0  0  0  0  0  0  0  0
   36.9516   21.5197   36.3219 H   0  0  0  0  0  0  0  0  0  0  0  0
   35.1307   20.0201   35.4476 H   0  0  0  0  0  0  0  0  0  0  0  0
   34.7577   19.9649   32.8487 H   0  0  0  0  0  0  0  0  0  0  0  0
  1  2  2  0
  3  2  1  0
  4  3  2  0
  5  6  2  0
  5  4  1  0
  6  1  1  0
  7  5  1  0
  8  7  1  0
  8  9  2  0
 10  9  1  0
 11 10  2  0
 12 11  1  0
 12  8  1  0
  1 13  1  0
  2 14  1  0
  3 15  1  0
  7 16  1  0
  7 17  1  0
  9 18  1  0
 10 19  1  0
 11 20  1  0
M  ISO  8  13  14  14  14  15  14  16   8  17   8  18  14  19  14  20  14
M  END
>  <minimizedAffinity>  (1) 
-3.62994313

>  <minimizedRMSD>  (1) 
1.64842212

$$$$
