
     RDKit          3D

 26 27  0  0  0  0  0  0  0  0999 V2000
   39.7230   22.8530   37.5920 C   0  0  0  0  0  0  0  0  0  0  0  0
   38.8150   23.2680   38.5720 C   0  0  0  0  0  0  0  0  0  0  0  0
   37.9520   24.3300   38.2370 C   0  0  0  0  0  0  0  0  0  0  0  0
   38.0490   24.8930   36.9750 N   0  0  0  0  0  0  0  0  0  0  0  0
   38.9510   24.4350   36.0910 C   0  0  0  0  0  0  0  0  0  0  0  0
   39.7930   23.4230   36.3710 N   0  0  0  0  0  0  0  0  0  0  0  0
   39.0420   25.0470   34.7460 C   0  0  0  0  0  0  0  0  0  0  0  0
   37.7560   25.0310   34.0730 N   0  0  0  0  0  0  0  0  0  0  0  0
   37.6870   24.0520   33.0430 C   0  0  0  0  0  0  0  0  0  0  0  0
   37.1810   24.6180   31.7230 C   0  0  0  0  0  0  0  0  0  0  0  0
   37.9400   25.7840   31.5180 O   0  0  0  0  0  0  0  0  0  0  0  0
   37.3870   26.7580   32.3470 C   0  0  0  0  0  0  0  0  0  0  0  0
   37.2550   26.3300   33.7680 C   0  0  0  0  0  0  0  0  0  0  0  0
   40.4095   22.0263   37.8270 H   0  0  0  0  0  0  0  0  0  0  0  0
   38.7766   22.7865   39.5603 H   0  0  0  0  0  0  0  0  0  0  0  0
   37.2157   24.7047   38.9632 H   0  0  0  0  0  0  0  0  0  0  0  0
   39.3804   26.0887   34.8481 H   0  0  0  0  0  0  0  0  0  0  0  0
   39.7560   24.4638   34.1459 H   0  0  0  0  0  0  0  0  0  0  0  0
   38.6934   23.6371   32.8846 H   0  0  0  0  0  0  0  0  0  0  0  0
   36.9735   23.2802   33.3673 H   0  0  0  0  0  0  0  0  0  0  0  0
   37.3445   23.9004   30.9055 H   0  0  0  0  0  0  0  0  0  0  0  0
   36.1008   24.8243   31.7464 H   0  0  0  0  0  0  0  0  0  0  0  0
   38.0295   27.6502   32.3112 H   0  0  0  0  0  0  0  0  0  0  0  0
   36.3710   26.9575   31.9755 H   0  0  0  0  0  0  0  0  0  0  0  0
   37.7977   27.0561   34.3911 H   0  0  0  0  0  0  0  0  0  0  0  0
   36.1743   26.2884   33.9686 H   0  0  0  0  0  0  0  0  0  0  0  0
  1  2  2  0
  3  2  1  0
  4  3  2  0
  5  6  2  0
  5  4  1  0
  6  1  1  0
  7  5  1  0
  8  7  1  0
  9  8  1  0
 10  9  1  0
 11 10  1  0
 11 12  1  0
 12 13  1  0
 13  8  1  0
  1 14  1  0
  2 15  1  0
  3 16  1  0
  7 17  1  0
  7 18  1  0
  9 19  1  0
  9 20  1  0
 10 21  1  0
 10 22  1  0
 12 23  1  0
 12 24  1  0
 13 25  1  0
 13 26  1  0
M  ISO  8  14  14  15  14  16  14  17   8  18   8  19  13  20  13  21  13
M  ISO  5  22  13  23  13  24  13  25  13  26  13
M  END
>  <minimizedAffinity>  (1) 
-3.49259496

>  <minimizedRMSD>  (1) 
4.08069038

$$$$
