
     RDKit          3D

 20 21  0  0  0  0  0  0  0  0999 V2000
   39.9890   22.7630   37.6170 C   0  0  0  0  0  0  0  0  0  0  0  0
   38.9960   23.2710   38.4720 C   0  0  0  0  0  0  0  0  0  0  0  0
   37.6880   23.3450   37.9640 C   0  0  0  0  0  0  0  0  0  0  0  0
   37.4490   22.9210   36.6710 N   0  0  0  0  0  0  0  0  0  0  0  0
   38.4570   22.4450   35.9110 C   0  0  0  0  0  0  0  0  0  0  0  0
   39.7070   22.3620   36.3620 N   0  0  0  0  0  0  0  0  0  0  0  0
   38.1880   21.9920   34.5200 C   0  0  0  0  0  0  0  0  0  0  0  0
   37.7870   23.0750   33.6570 N   0  0  0  0  0  0  0  0  0  0  0  0
   36.9790   22.9010   32.6020 C   0  0  0  0  0  0  0  0  0  0  0  0
   36.7920   24.1310   31.9890 C   0  0  0  0  0  0  0  0  0  0  0  0
   37.5110   25.0450   32.7070 N   0  0  0  0  0  0  0  0  0  0  0  0
   38.1090   24.3800   33.7180 C   0  0  0  0  0  0  0  0  0  0  0  0
   41.0241   22.6908   37.9822 H   0  0  0  0  0  0  0  0  0  0  0  0
   39.2327   23.5969   39.4956 H   0  0  0  0  0  0  0  0  0  0  0  0
   36.8680   23.7340   38.5855 H   0  0  0  0  0  0  0  0  0  0  0  0
   39.1032   21.5368   34.1136 H   0  0  0  0  0  0  0  0  0  0  0  0
   37.3601   21.2687   34.5571 H   0  0  0  0  0  0  0  0  0  0  0  0
   36.5394   21.9462   32.2778 H   0  0  0  0  0  0  0  0  0  0  0  0
   36.1819   24.3323   31.0961 H   0  0  0  0  0  0  0  0  0  0  0  0
   38.7612   24.8362   34.4773 H   0  0  0  0  0  0  0  0  0  0  0  0
  1  2  2  0
  3  2  1  0
  4  3  2  0
  5  6  2  0
  5  4  1  0
  6  1  1  0
  7  5  1  0
  8 12  1  0
  8  7  1  0
  9  8  1  0
 10  9  2  0
 10 11  1  0
 11 12  2  0
  1 13  1  0
  2 14  1  0
  3 15  1  0
  7 16  1  0
  7 17  1  0
  9 18  1  0
 10 19  1  0
 12 20  1  0
M  ISO  8  13  14  14  14  15  14  16   8  17   8  18  14  19  14  20  14
M  END
>  <minimizedAffinity>  (1) 
-3.38123703

>  <minimizedRMSD>  (1) 
0.463143289

$$$$
