
     RDKit          3D

 20 21  0  0  0  0  0  0  0  0999 V2000
   38.0240   22.0640   34.6840 C   0  0  0  0  0  0  0  0  0  0  0  0
   39.9640   22.7460   37.7190 C   0  0  0  0  0  0  0  0  0  0  0  0
   39.0190   23.3200   38.6010 C   0  0  0  0  0  0  0  0  0  0  0  0
   37.7000   23.4640   38.1200 C   0  0  0  0  0  0  0  0  0  0  0  0
   37.3940   23.0530   36.8520 N   0  0  0  0  0  0  0  0  0  0  0  0
   38.3530   22.5100   36.0610 C   0  0  0  0  0  0  0  0  0  0  0  0
   39.6090   22.3580   36.4770 N   0  0  0  0  0  0  0  0  0  0  0  0
   37.9010   23.2510   33.8440 N   0  0  0  0  0  0  0  0  0  0  0  0
   38.4100   24.4730   34.0640 N   0  0  0  0  0  0  0  0  0  0  0  0
   38.0690   25.2880   33.0520 C   0  0  0  0  0  0  0  0  0  0  0  0
   37.3140   24.6030   32.1300 C   0  0  0  0  0  0  0  0  0  0  0  0
   37.2440   23.3470   32.6750 C   0  0  0  0  0  0  0  0  0  0  0  0
   38.8255   21.4160   34.2998 H   0  0  0  0  0  0  0  0  0  0  0  0
   37.0832   21.4940   34.6810 H   0  0  0  0  0  0  0  0  0  0  0  0
   41.0044   22.6140   38.0510 H   0  0  0  0  0  0  0  0  0  0  0  0
   39.2993   23.6396   39.6155 H   0  0  0  0  0  0  0  0  0  0  0  0
   36.9224   23.9044   38.7614 H   0  0  0  0  0  0  0  0  0  0  0  0
   38.3524   26.3479   32.9728 H   0  0  0  0  0  0  0  0  0  0  0  0
   36.8758   24.9705   31.1904 H   0  0  0  0  0  0  0  0  0  0  0  0
   36.7082   22.5084   32.2064 H   0  0  0  0  0  0  0  0  0  0  0  0
  1  6  1  0
  2  3  2  0
  4  3  1  0
  5  4  2  0
  6  7  2  0
  6  5  1  0
  7  2  1  0
  8  9  1  0
  8  1  1  0
 10  9  2  0
 11 12  2  0
 11 10  1  0
 12  8  1  0
  1 13  1  0
  1 14  1  0
  2 15  1  0
  3 16  1  0
  4 17  1  0
 10 18  1  0
 11 19  1  0
 12 20  1  0
M  ISO  8  13   8  14   8  15  14  16  14  17  14  18  14  19  14  20  14
M  END
>  <minimizedAffinity>  (1) 
-3.35762453

>  <minimizedRMSD>  (1) 
0.330970824

$$$$
