
     RDKit          3D

 18 19  0  0  0  0  0  0  0  0999 V2000
   39.9920   22.7440   37.6490 C   0  0  0  0  0  0  0  0  0  0  0  0
   38.9970   23.2730   38.4770 C   0  0  0  0  0  0  0  0  0  0  0  0
   37.6970   23.3680   37.9450 C   0  0  0  0  0  0  0  0  0  0  0  0
   37.4730   22.9440   36.6620 N   0  0  0  0  0  0  0  0  0  0  0  0
   38.4660   22.4470   35.9170 C   0  0  0  0  0  0  0  0  0  0  0  0
   39.7120   22.3390   36.3810 N   0  0  0  0  0  0  0  0  0  0  0  0
   38.2290   21.9870   34.5290 C   0  0  0  0  0  0  0  0  0  0  0  0
   37.7980   23.0880   33.6320 C   0  0  0  0  0  0  0  0  0  0  0  0
   38.1300   24.3890   33.6520 N   0  0  0  0  0  0  0  0  0  0  0  0
   37.5330   24.9990   32.6970 O   0  0  0  0  0  0  0  0  0  0  0  0
   36.8170   24.1220   32.0560 C   0  0  0  0  0  0  0  0  0  0  0  0
   36.9490   22.8940   32.6070 N   0  0  0  0  0  0  0  0  0  0  0  0
   41.0199   22.6537   38.0301 H   0  0  0  0  0  0  0  0  0  0  0  0
   39.2210   23.6016   39.5026 H   0  0  0  0  0  0  0  0  0  0  0  0
   36.8742   23.7763   38.5502 H   0  0  0  0  0  0  0  0  0  0  0  0
   39.1616   21.5561   34.1359 H   0  0  0  0  0  0  0  0  0  0  0  0
   37.4201   21.2421   34.5569 H   0  0  0  0  0  0  0  0  0  0  0  0
   36.1882   24.3490   31.1825 H   0  0  0  0  0  0  0  0  0  0  0  0
  1  2  2  0
  3  2  1  0
  4  3  2  0
  5  6  2  0
  5  4  1  0
  6  1  1  0
  7  5  1  0
  8  9  2  0
  8  7  1  0
 10  9  1  0
 11 12  2  0
 11 10  1  0
 12  8  1  0
  1 13  1  0
  2 14  1  0
  3 15  1  0
  7 16  1  0
  7 17  1  0
 11 18  1  0
M  ISO  6  13  14  14  14  15  14  16   8  17   8  18  14
M  END
>  <minimizedAffinity>  (1) 
-3.37450314

>  <minimizedRMSD>  (1) 
0.606351852

$$$$
