
     RDKit          3D

 59 61  0  0  0  0  0  0  0  0999 V2000
   38.1420   22.3260   36.1200 C   0  0  0  0  0  0  0  0  0  0  0  0
   38.1770   22.4480   34.6990 N   0  0  0  0  0  0  0  0  0  0  0  0
   38.9990   21.8620   33.7920 C   0  0  0  0  0  0  0  0  0  0  0  0
   38.6530   22.2830   32.5460 N   0  0  0  0  0  0  0  0  0  0  0  0
   37.6120   23.1330   32.6820 C   0  0  0  0  0  0  0  0  0  0  0  0
   37.3410   23.2190   33.9790 N   0  0  0  0  0  0  0  0  0  0  0  0
   36.9250   23.8310   31.5420 C   0  0  0  0  0  0  0  0  0  0  0  0
   35.8070   22.8750   31.0790 C   0  0  0  0  0  0  0  0  0  0  0  0
   37.8460   23.9480   30.3530 C   0  0  0  0  0  0  0  0  0  0  0  0
   36.2650   25.0860   31.9660 C   0  0  0  0  0  0  0  0  0  0  0  0
   37.0690   26.3320   31.9210 C   0  0  0  0  0  0  0  0  0  0  0  0
   37.2210   26.8170   33.3700 C   0  0  0  0  0  0  0  0  0  0  0  0
   36.5010   28.1390   33.4530 C   0  0  0  0  0  0  0  0  0  0  0  0
   36.6350   28.7000   32.0660 C   0  0  0  0  0  0  0  0  0  0  0  0
   36.3760   27.4620   31.2020 C   0  0  0  0  0  0  0  0  0  0  0  0
   39.0450   23.3440   36.8110 C   0  0  0  0  0  0  0  0  0  0  0  0
   42.2820   21.4430   36.8420 C   0  0  0  0  0  0  0  0  0  0  0  0
   40.9570   21.7430   37.0630 C   0  0  0  0  0  0  0  0  0  0  0  0
   40.4380   22.9670   36.6080 C   0  0  0  0  0  0  0  0  0  0  0  0
   41.2730   23.8140   35.9620 N   0  0  0  0  0  0  0  0  0  0  0  0
   42.5730   23.5050   35.7530 C   0  0  0  0  0  0  0  0  0  0  0  0
   43.0750   22.3130   36.1960 N   0  0  0  0  0  0  0  0  0  0  0  0
   42.8120   20.1460   37.3290 C   0  0  0  0  0  0  0  0  0  0  0  0
   44.0470   19.7060   36.6250 C   0  0  0  0  0  0  0  0  0  0  0  0
   38.7670   23.3120   38.3020 C   0  0  0  0  0  0  0  0  0  0  0  0
   38.6910   24.7110   36.2660 C   0  0  0  0  0  0  0  0  0  0  0  0
   38.4732   21.3141   36.3965 H   0  0  0  0  0  0  0  0  0  0  0  0
   37.1093   22.5144   36.4487 H   0  0  0  0  0  0  0  0  0  0  0  0
   39.8130   21.1604   34.0266 H   0  0  0  0  0  0  0  0  0  0  0  0
   35.3045   22.4453   31.9582 H   0  0  0  0  0  0  0  0  0  0  0  0
   35.0758   23.4315   30.4743 H   0  0  0  0  0  0  0  0  0  0  0  0
   36.2432   22.0663   30.4743 H   0  0  0  0  0  0  0  0  0  0  0  0
   38.8808   24.0795   30.7023 H   0  0  0  0  0  0  0  0  0  0  0  0
   37.7776   23.0339   29.7449 H   0  0  0  0  0  0  0  0  0  0  0  0
   37.5512   24.8159   29.7449 H   0  0  0  0  0  0  0  0  0  0  0  0
   35.3906   25.2345   31.3153 H   0  0  0  0  0  0  0  0  0  0  0  0
   36.0385   24.9371   33.0321 H   0  0  0  0  0  0  0  0  0  0  0  0
   38.0102   26.0970   31.4025 H   0  0  0  0  0  0  0  0  0  0  0  0
   36.7682   26.0928   34.0632 H   0  0  0  0  0  0  0  0  0  0  0  0
   38.2804   26.9213   33.6470 H   0  0  0  0  0  0  0  0  0  0  0  0
   35.4432   27.9945   33.7180 H   0  0  0  0  0  0  0  0  0  0  0  0
   36.9146   28.8039   34.2255 H   0  0  0  0  0  0  0  0  0  0  0  0
   35.8871   29.4842   31.8770 H   0  0  0  0  0  0  0  0  0  0  0  0
   37.6036   29.1840   31.8725 H   0  0  0  0  0  0  0  0  0  0  0  0
   36.7994   27.5973   30.1958 H   0  0  0  0  0  0  0  0  0  0  0  0
   35.3013   27.2691   31.0683 H   0  0  0  0  0  0  0  0  0  0  0  0
   40.3086   21.0293   37.5923 H   0  0  0  0  0  0  0  0  0  0  0  0
   43.2278   24.2142   35.2255 H   0  0  0  0  0  0  0  0  0  0  0  0
   43.0385   20.2432   38.4010 H   0  0  0  0  0  0  0  0  0  0  0  0
   42.0403   19.3873   37.1320 H   0  0  0  0  0  0  0  0  0  0  0  0
   44.8135   19.4329   37.3652 H   0  0  0  0  0  0  0  0  0  0  0  0
   43.8188   18.8339   35.9947 H   0  0  0  0  0  0  0  0  0  0  0  0
   44.4216   20.5260   35.9947 H   0  0  0  0  0  0  0  0  0  0  0  0
   39.7124   23.4208   38.8537 H   0  0  0  0  0  0  0  0  0  0  0  0
   38.0908   24.1382   38.5667 H   0  0  0  0  0  0  0  0  0  0  0  0
   38.2962   22.3537   38.5667 H   0  0  0  0  0  0  0  0  0  0  0  0
   38.5116   25.4036   37.1015 H   0  0  0  0  0  0  0  0  0  0  0  0
   39.5215   25.0866   35.6502 H   0  0  0  0  0  0  0  0  0  0  0  0
   37.7826   24.6362   35.6502 H   0  0  0  0  0  0  0  0  0  0  0  0
  1 16  1  0
  2  1  1  0
  3  2  1  0
  4  5  1  0
  4  3  2  0
  5  6  2  0
  6  2  1  0
  7 10  1  0
  7  5  1  0
  8  7  1  0
  9  7  1  0
 11 10  1  0
 11 12  1  0
 12 13  1  0
 14 13  1  0
 15 11  1  0
 15 14  1  0
 16 25  1  0
 17 18  2  0
 17 23  1  0
 19 16  1  0
 19 18  1  0
 20 19  2  0
 21 20  1  0
 21 22  2  0
 22 17  1  0
 24 23  1  0
 26 16  1  0
  1 27  1  0
  1 28  1  0
  3 29  1  0
  8 30  1  0
  8 31  1  0
  8 32  1  0
  9 33  1  0
  9 34  1  0
  9 35  1  0
 10 36  1  0
 10 37  1  0
 11 38  1  0
 12 39  1  0
 12 40  1  0
 13 41  1  0
 13 42  1  0
 14 43  1  0
 14 44  1  0
 15 45  1  0
 15 46  1  0
 18 47  1  0
 21 48  1  0
 23 49  1  0
 23 50  1  0
 24 51  1  0
 24 52  1  0
 24 53  1  0
 25 54  1  0
 25 55  1  0
 25 56  1  0
 26 57  1  0
 26 58  1  0
 26 59  1  0
M  ISO  8  27   8  28   8  29  14  30   8  31   8  32   8  33   8  34   8
M  ISO  8  35   8  36   8  37   8  38  13  39  13  40  13  41  13  42  13
M  ISO  8  43  13  44  13  45  13  46  13  47  14  48  14  49   8  50   8
M  ISO  8  51   8  52   8  53   8  54   8  55   8  56   8  57   8  58   8
M  ISO  1  59   8
M  END
>  <minimizedAffinity>  (1) 
-5.08838177

>  <minimizedRMSD>  (1) 
1.95233333

$$$$
