
     RDKit          3D

 14 14  0  0  0  0  0  0  0  0999 V2000
   39.7530   22.8210   37.8400 C   0  0  0  0  0  0  0  0  0  0  0  0
   38.9570   23.4960   38.7890 C   0  0  0  0  0  0  0  0  0  0  0  0
   37.8590   24.2230   38.2880 C   0  0  0  0  0  0  0  0  0  0  0  0
   37.6200   24.2410   36.9400 N   0  0  0  0  0  0  0  0  0  0  0  0
   38.4190   23.5720   36.0750 C   0  0  0  0  0  0  0  0  0  0  0  0
   39.4820   22.8630   36.5080 N   0  0  0  0  0  0  0  0  0  0  0  0
   38.1500   23.5990   34.6120 C   0  0  0  0  0  0  0  0  0  0  0  0
   37.6770   21.9800   33.9760 S   0  0  0  0  0  0  0  0  0  0  0  0
   40.6209   22.2420   38.1886 H   0  0  0  0  0  0  0  0  0  0  0  0
   39.1820   23.4568   39.8650 H   0  0  0  0  0  0  0  0  0  0  0  0
   37.1984   24.7722   38.9750 H   0  0  0  0  0  0  0  0  0  0  0  0
   37.3334   24.3092   34.4151 H   0  0  0  0  0  0  0  0  0  0  0  0
   39.0770   23.9035   34.1040 H   0  0  0  0  0  0  0  0  0  0  0  0
   37.4294   21.1324   35.0235 H   0  0  0  0  0  0  0  0  0  0  0  0
  1  2  2  0
  3  2  1  0
  4  3  2  0
  5  6  2  0
  5  4  1  0
  6  1  1  0
  7  5  1  0
  8  7  1  0
  1  9  1  0
  2 10  1  0
  3 11  1  0
  7 12  1  0
  7 13  1  0
  8 14  1  0
M  ISO  6   9  14  10  14  11  14  12   8  13   8  14  11
M  END
>  <minimizedAffinity>  (1) 
-2.74539256

>  <minimizedRMSD>  (1) 
1.11526799

$$$$
