
     RDKit          3D

 38 41  0  0  0  0  0  0  0  0999 V2000
   38.4150   25.8160   34.1220 C   0  0  0  0  0  0  0  0  0  0  0  0
   39.2990   24.7790   34.6510 C   0  0  0  0  0  0  0  0  0  0  0  0
   40.3500   24.2620   33.9210 C   0  0  0  0  0  0  0  0  0  0  0  0
   41.1770   23.3080   34.4510 C   0  0  0  0  0  0  0  0  0  0  0  0
   40.9920   22.8230   35.7420 C   0  0  0  0  0  0  0  0  0  0  0  0
   39.9360   23.3420   36.4740 C   0  0  0  0  0  0  0  0  0  0  0  0
   39.7400   22.8710   37.7660 C   0  0  0  0  0  0  0  0  0  0  0  0
   38.7070   23.3520   38.5430 C   0  0  0  0  0  0  0  0  0  0  0  0
   37.8620   24.3160   38.0160 C   0  0  0  0  0  0  0  0  0  0  0  0
   38.0860   24.7630   36.7280 C   0  0  0  0  0  0  0  0  0  0  0  0
   39.1150   24.3010   35.9210 C   0  0  0  0  0  0  0  0  0  0  0  0
   35.9080   25.8450   31.4420 C   0  0  0  0  0  0  0  0  0  0  0  0
   35.6580   24.5070   31.1780 C   0  0  0  0  0  0  0  0  0  0  0  0
   36.3670   23.5640   31.9460 C   0  0  0  0  0  0  0  0  0  0  0  0
   37.2520   24.0020   32.8950 N   0  0  0  0  0  0  0  0  0  0  0  0
   37.4510   25.3010   33.1050 C   0  0  0  0  0  0  0  0  0  0  0  0
   36.7890   26.2200   32.3890 N   0  0  0  0  0  0  0  0  0  0  0  0
   36.1450   22.1580   31.7120 C   0  0  0  0  0  0  0  0  0  0  0  0
   35.0800   21.5290   32.3120 C   0  0  0  0  0  0  0  0  0  0  0  0
   34.8930   20.1710   32.0640 C   0  0  0  0  0  0  0  0  0  0  0  0
   35.8330   19.5820   31.2120 C   0  0  0  0  0  0  0  0  0  0  0  0
   36.9030   20.2120   30.6080 C   0  0  0  0  0  0  0  0  0  0  0  0
   37.0080   21.5220   30.9020 N   0  0  0  0  0  0  0  0  0  0  0  0
   37.8448   26.2493   34.9569 H   0  0  0  0  0  0  0  0  0  0  0  0
   39.0488   26.5644   33.6237 H   0  0  0  0  0  0  0  0  0  0  0  0
   40.5262   24.6222   32.8967 H   0  0  0  0  0  0  0  0  0  0  0  0
   42.0058   22.9165   33.8429 H   0  0  0  0  0  0  0  0  0  0  0  0
   41.6584   22.0570   36.1653 H   0  0  0  0  0  0  0  0  0  0  0  0
   40.4165   22.1056   38.1741 H   0  0  0  0  0  0  0  0  0  0  0  0
   38.5560   22.9762   39.5657 H   0  0  0  0  0  0  0  0  0  0  0  0
   37.0290   24.7175   38.6118 H   0  0  0  0  0  0  0  0  0  0  0  0
   37.4100   25.5286   36.3195 H   0  0  0  0  0  0  0  0  0  0  0  0
   35.3757   26.6162   30.8660 H   0  0  0  0  0  0  0  0  0  0  0  0
   34.9395   24.1970   30.4049 H   0  0  0  0  0  0  0  0  0  0  0  0
   34.3942   22.0829   32.9700 H   0  0  0  0  0  0  0  0  0  0  0  0
   34.0633   19.6012   32.5076 H   0  0  0  0  0  0  0  0  0  0  0  0
   35.7073   18.5096   31.0021 H   0  0  0  0  0  0  0  0  0  0  0  0
   37.6080   19.6895   29.9447 H   0  0  0  0  0  0  0  0  0  0  0  0
  1  2  1  0
  2 11  2  0
  3  4  2  0
  3  2  1  0
  4  5  1  0
  5  6  2  0
  6  7  1  0
  7  8  2  0
  9  8  1  0
 10  9  2  0
 11  6  1  0
 11 10  1  0
 12 17  2  0
 13 12  1  0
 13 14  2  0
 14 15  1  0
 15 16  2  0
 16  1  1  0
 17 16  1  0
 18 14  1  0
 18 19  2  0
 20 19  1  0
 21 20  2  0
 22 23  2  0
 22 21  1  0
 23 18  1  0
  1 24  1  0
  1 25  1  0
  3 26  1  0
  4 27  1  0
  5 28  1  0
  7 29  1  0
  8 30  1  0
  9 31  1  0
 10 32  1  0
 12 33  1  0
 13 34  1  0
 19 35  1  0
 20 36  1  0
 21 37  1  0
 22 38  1  0
M  ISO  8  24   8  25   8  26  14  27  14  28  14  29  14  30  14  31  14
M  ISO  7  32  14  33  14  34  14  35  14  36  14  37  14  38  14
M  END
>  <minimizedAffinity>  (1) 
-6.46236086

>  <minimizedRMSD>  (1) 
3.14602113

$$$$
