
     RDKit          3D

 45 48  0  0  0  0  0  0  0  0999 V2000
   38.1420   25.7490   33.8640 C   0  0  0  0  0  0  0  0  0  0  0  0
   38.9960   24.6610   34.3360 C   0  0  0  0  0  0  0  0  0  0  0  0
   39.9180   24.0330   33.5200 C   0  0  0  0  0  0  0  0  0  0  0  0
   40.7170   23.0280   33.9990 C   0  0  0  0  0  0  0  0  0  0  0  0
   40.6360   22.5980   35.3180 C   0  0  0  0  0  0  0  0  0  0  0  0
   39.7050   23.2300   36.1470 C   0  0  0  0  0  0  0  0  0  0  0  0
   39.6360   22.8020   37.4470 C   0  0  0  0  0  0  0  0  0  0  0  0
   38.7300   23.4010   38.3130 C   0  0  0  0  0  0  0  0  0  0  0  0
   37.9190   24.4100   37.8530 C   0  0  0  0  0  0  0  0  0  0  0  0
   38.0210   24.8140   36.5280 C   0  0  0  0  0  0  0  0  0  0  0  0
   38.9230   24.2340   35.6260 C   0  0  0  0  0  0  0  0  0  0  0  0
   35.5710   25.9710   31.2480 C   0  0  0  0  0  0  0  0  0  0  0  0
   35.2900   24.6520   30.9220 C   0  0  0  0  0  0  0  0  0  0  0  0
   35.9950   23.6550   31.6190 C   0  0  0  0  0  0  0  0  0  0  0  0
   36.9100   24.0190   32.5720 N   0  0  0  0  0  0  0  0  0  0  0  0
   37.1420   25.3030   32.8450 C   0  0  0  0  0  0  0  0  0  0  0  0
   36.4840   26.2890   32.1970 N   0  0  0  0  0  0  0  0  0  0  0  0
   35.7510   22.2430   31.3290 C   0  0  0  0  0  0  0  0  0  0  0  0
   35.1480   21.5590   32.5500 C   0  0  0  0  0  0  0  0  0  0  0  0
   34.6420   20.2250   32.0150 C   0  0  0  0  0  0  0  0  0  0  0  0
   35.8270   19.3990   31.6610 C   0  0  0  0  0  0  0  0  0  0  0  0
   36.8470   20.0530   30.7910 C   0  0  0  0  0  0  0  0  0  0  0  0
   37.0140   21.5310   30.9820 C   0  0  0  0  0  0  0  0  0  0  0  0
   37.6021   26.1703   34.7248 H   0  0  0  0  0  0  0  0  0  0  0  0
   38.7924   26.4951   33.3841 H   0  0  0  0  0  0  0  0  0  0  0  0
   40.0119   24.3449   32.4693 H   0  0  0  0  0  0  0  0  0  0  0  0
   41.4406   22.5497   33.3225 H   0  0  0  0  0  0  0  0  0  0  0  0
   41.2805   21.7904   35.6955 H   0  0  0  0  0  0  0  0  0  0  0  0
   40.2913   21.9925   37.8011 H   0  0  0  0  0  0  0  0  0  0  0  0
   38.6624   23.0698   39.3598 H   0  0  0  0  0  0  0  0  0  0  0  0
   37.1963   24.8930   38.5271 H   0  0  0  0  0  0  0  0  0  0  0  0
   37.3664   25.6231   36.1718 H   0  0  0  0  0  0  0  0  0  0  0  0
   35.0394   26.7783   30.7230 H   0  0  0  0  0  0  0  0  0  0  0  0
   34.5476   24.3972   30.1514 H   0  0  0  0  0  0  0  0  0  0  0  0
   35.0610   22.1991   30.4734 H   0  0  0  0  0  0  0  0  0  0  0  0
   35.9106   21.4042   33.3275 H   0  0  0  0  0  0  0  0  0  0  0  0
   34.3517   22.1559   33.0187 H   0  0  0  0  0  0  0  0  0  0  0  0
   34.0464   19.7142   32.7859 H   0  0  0  0  0  0  0  0  0  0  0  0
   34.0048   20.3816   31.1321 H   0  0  0  0  0  0  0  0  0  0  0  0
   36.3232   19.1045   32.5975 H   0  0  0  0  0  0  0  0  0  0  0  0
   35.4345   18.5560   31.0734 H   0  0  0  0  0  0  0  0  0  0  0  0
   36.5600   19.8780   29.7436 H   0  0  0  0  0  0  0  0  0  0  0  0
   37.8115   19.6039   31.0705 H   0  0  0  0  0  0  0  0  0  0  0  0
   37.7382   21.6955   31.7935 H   0  0  0  0  0  0  0  0  0  0  0  0
   37.3565   21.9400   30.0200 H   0  0  0  0  0  0  0  0  0  0  0  0
  1  2  1  0
  2 11  2  0
  3  4  2  0
  3  2  1  0
  4  5  1  0
  5  6  2  0
  6  7  1  0
  7  8  2  0
  9  8  1  0
 10  9  2  0
 11  6  1  0
 11 10  1  0
 12 17  2  0
 13 12  1  0
 13 14  2  0
 14 15  1  0
 15 16  2  0
 16  1  1  0
 17 16  1  0
 18 14  1  0
 18 19  1  0
 20 19  1  0
 21 20  1  0
 22 23  1  0
 22 21  1  0
 23 18  1  0
  1 24  1  0
  1 25  1  0
  3 26  1  0
  4 27  1  0
  5 28  1  0
  7 29  1  0
  8 30  1  0
  9 31  1  0
 10 32  1  0
 12 33  1  0
 13 34  1  0
 18 35  1  0
 19 36  1  0
 19 37  1  0
 20 38  1  0
 20 39  1  0
 21 40  1  0
 21 41  1  0
 22 42  1  0
 22 43  1  0
 23 44  1  0
 23 45  1  0
M  ISO  8  24   8  25   8  26  14  27  14  28  14  29  14  30  14  31  14
M  ISO  8  32  14  33  14  34  14  35  13  36  13  37  13  38  13  39  13
M  ISO  6  40  13  41  13  42  13  43  13  44  13  45  13
M  END
>  <minimizedAffinity>  (1) 
-6.58920765

>  <minimizedRMSD>  (1) 
3.08686543

$$$$
