
     RDKit          3D

 36 39  0  0  0  0  0  0  0  0999 V2000
   39.2290   24.7790   34.6900 C   0  0  0  0  0  0  0  0  0  0  0  0
   40.2570   24.2520   33.9320 C   0  0  0  0  0  0  0  0  0  0  0  0
   41.0860   23.2910   34.4260 C   0  0  0  0  0  0  0  0  0  0  0  0
   40.9290   22.7980   35.7200 C   0  0  0  0  0  0  0  0  0  0  0  0
   39.9000   23.3220   36.4880 C   0  0  0  0  0  0  0  0  0  0  0  0
   39.7380   22.8410   37.7770 C   0  0  0  0  0  0  0  0  0  0  0  0
   38.7290   23.3310   38.5810 C   0  0  0  0  0  0  0  0  0  0  0  0
   37.8780   24.3080   38.0890 C   0  0  0  0  0  0  0  0  0  0  0  0
   38.0710   24.7650   36.7950 C   0  0  0  0  0  0  0  0  0  0  0  0
   39.0740   24.2960   35.9620 C   0  0  0  0  0  0  0  0  0  0  0  0
   38.3390   25.8240   34.1860 C   0  0  0  0  0  0  0  0  0  0  0  0
   36.0740   25.9450   31.3040 C   0  0  0  0  0  0  0  0  0  0  0  0
   35.7580   24.6220   31.0500 C   0  0  0  0  0  0  0  0  0  0  0  0
   36.3330   23.6550   31.8940 C   0  0  0  0  0  0  0  0  0  0  0  0
   37.1580   24.0460   32.9070 N   0  0  0  0  0  0  0  0  0  0  0  0
   37.4280   25.3500   33.1040 C   0  0  0  0  0  0  0  0  0  0  0  0
   36.8950   26.2930   32.3140 N   0  0  0  0  0  0  0  0  0  0  0  0
   36.1310   22.2570   31.7960 C   0  0  0  0  0  0  0  0  0  0  0  0
   35.0590   21.4770   32.3340 C   0  0  0  0  0  0  0  0  0  0  0  0
   35.0580   20.1270   32.1190 C   0  0  0  0  0  0  0  0  0  0  0  0
   36.1750   19.6090   31.3450 C   0  0  0  0  0  0  0  0  0  0  0  0
   37.1790   21.0230   30.9500 S   0  0  0  0  0  0  0  0  0  0  0  0
   40.4094   24.6171   32.9056 H   0  0  0  0  0  0  0  0  0  0  0  0
   41.8941   22.8968   33.7922 H   0  0  0  0  0  0  0  0  0  0  0  0
   41.5977   22.0206   36.1182 H   0  0  0  0  0  0  0  0  0  0  0  0
   40.4165   22.0652   38.1613 H   0  0  0  0  0  0  0  0  0  0  0  0
   38.6012   22.9490   39.6046 H   0  0  0  0  0  0  0  0  0  0  0  0
   37.0667   24.7121   38.7123 H   0  0  0  0  0  0  0  0  0  0  0  0
   37.3927   25.5403   36.4092 H   0  0  0  0  0  0  0  0  0  0  0  0
   37.7264   26.1941   35.0213 H   0  0  0  0  0  0  0  0  0  0  0  0
   38.9731   26.6135   33.7563 H   0  0  0  0  0  0  0  0  0  0  0  0
   35.6446   26.7315   30.6660 H   0  0  0  0  0  0  0  0  0  0  0  0
   35.0873   24.3393   30.2252 H   0  0  0  0  0  0  0  0  0  0  0  0
   34.2518   21.9541   32.9091 H   0  0  0  0  0  0  0  0  0  0  0  0
   34.2626   19.4737   32.5069 H   0  0  0  0  0  0  0  0  0  0  0  0
   36.3601   18.5620   31.0630 H   0  0  0  0  0  0  0  0  0  0  0  0
  1 10  2  0
  2  3  2  0
  2  1  1  0
  3  4  1  0
  4  5  2  0
  5  6  1  0
  6  7  2  0
  8  7  1  0
  9  8  2  0
 10  5  1  0
 10  9  1  0
 11  1  1  0
 12 17  2  0
 13 12  1  0
 13 14  2  0
 14 15  1  0
 15 16  2  0
 16 11  1  0
 17 16  1  0
 18 14  1  0
 18 19  2  0
 20 19  1  0
 21 20  2  0
 22 21  1  0
 22 18  1  0
  2 23  1  0
  3 24  1  0
  4 25  1  0
  6 26  1  0
  7 27  1  0
  8 28  1  0
  9 29  1  0
 11 30  1  0
 11 31  1  0
 12 32  1  0
 13 33  1  0
 19 34  1  0
 20 35  1  0
 21 36  1  0
M  ISO  8  23  14  24  14  25  14  26  14  27  14  28  14  29  14  30   8
M  ISO  6  31   8  32  14  33  14  34  14  35  14  36  14
M  END
>  <minimizedAffinity>  (1) 
-6.10369492

>  <minimizedRMSD>  (1) 
3.01473427

$$$$
