
     RDKit          3D

 41 44  0  0  0  0  0  0  0  0999 V2000
   38.6050   25.7960   34.1490 C   0  0  0  0  0  0  0  0  0  0  0  0
   39.4860   24.7880   34.7370 C   0  0  0  0  0  0  0  0  0  0  0  0
   40.5970   24.3030   34.0770 C   0  0  0  0  0  0  0  0  0  0  0  0
   41.4180   23.3730   34.6520 C   0  0  0  0  0  0  0  0  0  0  0  0
   41.1660   22.8770   35.9320 C   0  0  0  0  0  0  0  0  0  0  0  0
   40.0490   23.3610   36.5990 C   0  0  0  0  0  0  0  0  0  0  0  0
   39.7870   22.8810   37.8690 C   0  0  0  0  0  0  0  0  0  0  0  0
   38.6900   23.3340   38.5760 C   0  0  0  0  0  0  0  0  0  0  0  0
   37.8540   24.2720   38.0040 C   0  0  0  0  0  0  0  0  0  0  0  0
   38.1390   24.7370   36.7270 C   0  0  0  0  0  0  0  0  0  0  0  0
   39.2320   24.3050   35.9910 C   0  0  0  0  0  0  0  0  0  0  0  0
   36.0460   25.6660   31.5190 C   0  0  0  0  0  0  0  0  0  0  0  0
   35.7990   24.3150   31.3370 C   0  0  0  0  0  0  0  0  0  0  0  0
   36.5250   23.4170   32.1390 C   0  0  0  0  0  0  0  0  0  0  0  0
   37.4260   23.9000   33.0460 N   0  0  0  0  0  0  0  0  0  0  0  0
   37.6230   25.2220   33.1780 C   0  0  0  0  0  0  0  0  0  0  0  0
   36.9420   26.1000   32.4240 N   0  0  0  0  0  0  0  0  0  0  0  0
   36.3140   22.0200   31.9970 N   0  0  0  0  0  0  0  0  0  0  0  0
   35.4920   21.3730   31.0310 C   0  0  0  0  0  0  0  0  0  0  0  0
   36.2780   20.0860   30.7530 C   0  0  0  0  0  0  0  0  0  0  0  0
   36.6980   19.6860   32.1320 C   0  0  0  0  0  0  0  0  0  0  0  0
   36.9160   21.0030   32.8360 C   0  0  0  0  0  0  0  0  0  0  0  0
   38.0485   26.2900   34.9591 H   0  0  0  0  0  0  0  0  0  0  0  0
   39.2395   26.5031   33.5946 H   0  0  0  0  0  0  0  0  0  0  0  0
   40.8268   24.6726   33.0668 H   0  0  0  0  0  0  0  0  0  0  0  0
   42.2939   23.0088   34.0951 H   0  0  0  0  0  0  0  0  0  0  0  0
   41.8279   22.1303   36.3950 H   0  0  0  0  0  0  0  0  0  0  0  0
   40.4565   22.1334   38.3194 H   0  0  0  0  0  0  0  0  0  0  0  0
   38.4843   22.9505   39.5863 H   0  0  0  0  0  0  0  0  0  0  0  0
   36.9758   24.6452   38.5513 H   0  0  0  0  0  0  0  0  0  0  0  0
   37.4664   25.4828   36.2783 H   0  0  0  0  0  0  0  0  0  0  0  0
   35.4976   26.3999   30.9103 H   0  0  0  0  0  0  0  0  0  0  0  0
   35.0665   23.9602   30.5970 H   0  0  0  0  0  0  0  0  0  0  0  0
   34.4946   21.1518   31.4389 H   0  0  0  0  0  0  0  0  0  0  0  0
   35.3025   21.9793   30.1329 H   0  0  0  0  0  0  0  0  0  0  0  0
   35.6407   19.3188   30.2891 H   0  0  0  0  0  0  0  0  0  0  0  0
   37.1144   20.2155   30.0504 H   0  0  0  0  0  0  0  0  0  0  0  0
   35.9091   19.1018   32.6283 H   0  0  0  0  0  0  0  0  0  0  0  0
   37.5934   19.0471   32.1363 H   0  0  0  0  0  0  0  0  0  0  0  0
   37.9921   21.1967   32.9559 H   0  0  0  0  0  0  0  0  0  0  0  0
   36.4672   20.9975   33.8402 H   0  0  0  0  0  0  0  0  0  0  0  0
  1  2  1  0
  2 11  2  0
  3  4  2  0
  3  2  1  0
  4  5  1  0
  5  6  2  0
  6  7  1  0
  7  8  2  0
  9  8  1  0
 10  9  2  0
 11  6  1  0
 11 10  1  0
 12 17  2  0
 13 12  1  0
 13 14  2  0
 14 15  1  0
 15 16  2  0
 16  1  1  0
 17 16  1  0
 18 14  1  0
 18 22  1  0
 19 18  1  0
 20 19  1  0
 20 21  1  0
 21 22  1  0
  1 23  1  0
  1 24  1  0
  3 25  1  0
  4 26  1  0
  5 27  1  0
  7 28  1  0
  8 29  1  0
  9 30  1  0
 10 31  1  0
 12 32  1  0
 13 33  1  0
 19 34  1  0
 19 35  1  0
 20 36  1  0
 20 37  1  0
 21 38  1  0
 21 39  1  0
 22 40  1  0
 22 41  1  0
M  ISO  8  23   8  24   8  25  14  26  14  27  14  28  14  29  14  30  14
M  ISO  8  31  14  32  14  33  14  34  13  35  13  36  13  37  13  38  13
M  ISO  3  39  13  40  13  41  13
M  END
>  <minimizedAffinity>  (1) 
-5.80816698

>  <minimizedRMSD>  (1) 
3.25366688

$$$$
