
     RDKit          3D

 42 45  0  0  0  0  0  0  0  0999 V2000
   38.1050   27.1800   35.1880 C   0  0  0  0  0  0  0  0  0  0  0  0
   39.3540   26.4140   35.1160 C   0  0  0  0  0  0  0  0  0  0  0  0
   40.4840   26.8930   34.4810 C   0  0  0  0  0  0  0  0  0  0  0  0
   41.6410   26.1740   34.4370 C   0  0  0  0  0  0  0  0  0  0  0  0
   41.7300   24.9220   35.0350 C   0  0  0  0  0  0  0  0  0  0  0  0
   40.5950   24.4250   35.6810 C   0  0  0  0  0  0  0  0  0  0  0  0
   40.6760   23.1880   36.2800 C   0  0  0  0  0  0  0  0  0  0  0  0
   39.5750   22.6570   36.9360 C   0  0  0  0  0  0  0  0  0  0  0  0
   38.4140   23.3790   36.9780 C   0  0  0  0  0  0  0  0  0  0  0  0
   38.3490   24.6280   36.3670 C   0  0  0  0  0  0  0  0  0  0  0  0
   39.4350   25.1810   35.7060 C   0  0  0  0  0  0  0  0  0  0  0  0
   35.8940   28.2150   32.4530 C   0  0  0  0  0  0  0  0  0  0  0  0
   35.7790   27.0830   31.6610 C   0  0  0  0  0  0  0  0  0  0  0  0
   36.4660   25.9290   32.0740 C   0  0  0  0  0  0  0  0  0  0  0  0
   37.2100   25.9560   33.2160 N   0  0  0  0  0  0  0  0  0  0  0  0
   37.2880   27.0880   33.9480 C   0  0  0  0  0  0  0  0  0  0  0  0
   36.6400   28.2000   33.5730 N   0  0  0  0  0  0  0  0  0  0  0  0
   36.4160   24.7270   31.3480 N   0  0  0  0  0  0  0  0  0  0  0  0
   37.4800   24.1850   30.5320 C   0  0  0  0  0  0  0  0  0  0  0  0
   37.9880   22.9710   31.3190 C   0  0  0  0  0  0  0  0  0  0  0  0
   36.9390   22.2320   31.7990 O   0  0  0  0  0  0  0  0  0  0  0  0
   35.7240   22.4500   31.1630 C   0  0  0  0  0  0  0  0  0  0  0  0
   35.2420   23.8790   31.3510 C   0  0  0  0  0  0  0  0  0  0  0  0
   37.5082   26.7971   36.0290 H   0  0  0  0  0  0  0  0  0  0  0  0
   38.3775   28.2373   35.3219 H   0  0  0  0  0  0  0  0  0  0  0  0
   40.4488   27.8808   33.9982 H   0  0  0  0  0  0  0  0  0  0  0  0
   42.5181   26.5908   33.9203 H   0  0  0  0  0  0  0  0  0  0  0  0
   42.6637   24.3415   35.0007 H   0  0  0  0  0  0  0  0  0  0  0  0
   41.6165   22.6190   36.2383 H   0  0  0  0  0  0  0  0  0  0  0  0
   39.6348   21.6690   37.4158 H   0  0  0  0  0  0  0  0  0  0  0  0
   37.5319   22.9727   37.4945 H   0  0  0  0  0  0  0  0  0  0  0  0
   37.4067   25.1939   36.4099 H   0  0  0  0  0  0  0  0  0  0  0  0
   35.3690   29.1369   32.1624 H   0  0  0  0  0  0  0  0  0  0  0  0
   35.1725   27.0880   30.7434 H   0  0  0  0  0  0  0  0  0  0  0  0
   38.2827   24.9251   30.3982 H   0  0  0  0  0  0  0  0  0  0  0  0
   37.1364   23.9148   29.5226 H   0  0  0  0  0  0  0  0  0  0  0  0
   38.6000   22.3414   30.6564 H   0  0  0  0  0  0  0  0  0  0  0  0
   38.5886   23.3266   32.1692 H   0  0  0  0  0  0  0  0  0  0  0  0
   34.9740   21.7625   31.5810 H   0  0  0  0  0  0  0  0  0  0  0  0
   35.8629   22.2728   30.0863 H   0  0  0  0  0  0  0  0  0  0  0  0
   34.7094   23.9749   32.3087 H   0  0  0  0  0  0  0  0  0  0  0  0
   34.5480   24.1675   30.5478 H   0  0  0  0  0  0  0  0  0  0  0  0
  2  1  1  0
  2 11  1  0
  3  2  2  0
  4  3  1  0
  4  5  2  0
  5  6  1  0
  6 11  2  0
  6  7  1  0
  7  8  2  0
  8  9  1  0
 10  9  2  0
 11 10  1  0
 12 17  2  0
 13 14  2  0
 13 12  1  0
 14 15  1  0
 15 16  2  0
 16  1  1  0
 17 16  1  0
 18 23  1  0
 18 14  1  0
 19 20  1  0
 19 18  1  0
 20 21  1  0
 22 23  1  0
 22 21  1  0
  1 24  1  0
  1 25  1  0
  3 26  1  0
  4 27  1  0
  5 28  1  0
  7 29  1  0
  8 30  1  0
  9 31  1  0
 10 32  1  0
 12 33  1  0
 13 34  1  0
 19 35  1  0
 19 36  1  0
 20 37  1  0
 20 38  1  0
 22 39  1  0
 22 40  1  0
 23 41  1  0
 23 42  1  0
M  ISO  8  24   8  25   8  26  14  27  14  28  14  29  14  30  14  31  14
M  ISO  8  32  14  33  14  34  14  35  13  36  13  37  13  38  13  39  13
M  ISO  3  40  13  41  13  42  13
M  END
>  <minimizedAffinity>  (1) 
-5.76473904

>  <minimizedRMSD>  (1) 
1.56002235

$$$$
