
     RDKit          3D

 61 63  0  0  0  0  0  0  0  0999 V2000
   37.7170   22.6240   36.2120 C   0  0  0  0  0  0  0  0  0  0  0  0
   37.8640   22.6930   34.8030 N   0  0  0  0  0  0  0  0  0  0  0  0
   38.2720   21.7390   33.9180 C   0  0  0  0  0  0  0  0  0  0  0  0
   38.2610   22.2550   32.6630 N   0  0  0  0  0  0  0  0  0  0  0  0
   37.8460   23.5340   32.7590 C   0  0  0  0  0  0  0  0  0  0  0  0
   37.6140   23.7770   34.0470 N   0  0  0  0  0  0  0  0  0  0  0  0
   37.6910   24.4710   31.6050 C   0  0  0  0  0  0  0  0  0  0  0  0
   36.1790   24.6580   31.3810 C   0  0  0  0  0  0  0  0  0  0  0  0
   38.2370   23.8530   30.3380 C   0  0  0  0  0  0  0  0  0  0  0  0
   38.2380   25.8320   31.8980 C   0  0  0  0  0  0  0  0  0  0  0  0
   39.6080   26.0630   31.6480 N   0  0  0  0  0  0  0  0  0  0  0  0
   39.9760   27.3790   31.2060 C   0  0  0  0  0  0  0  0  0  0  0  0
   41.5100   27.4250   31.2810 C   0  0  0  0  0  0  0  0  0  0  0  0
   41.8310   27.7750   32.7270 C   0  0  0  0  0  0  0  0  0  0  0  0
   40.7650   27.0810   33.5710 C   0  0  0  0  0  0  0  0  0  0  0  0
   40.3250   25.7980   32.8990 C   0  0  0  0  0  0  0  0  0  0  0  0
   38.6720   23.5310   36.9500 C   0  0  0  0  0  0  0  0  0  0  0  0
   41.9250   21.6730   36.9040 C   0  0  0  0  0  0  0  0  0  0  0  0
   40.6230   22.0070   37.2140 C   0  0  0  0  0  0  0  0  0  0  0  0
   40.0420   23.1440   36.6460 C   0  0  0  0  0  0  0  0  0  0  0  0
   40.7840   23.8970   35.7960 N   0  0  0  0  0  0  0  0  0  0  0  0
   42.0600   23.5480   35.5060 C   0  0  0  0  0  0  0  0  0  0  0  0
   42.6200   22.4320   36.0690 N   0  0  0  0  0  0  0  0  0  0  0  0
   42.5270   20.4690   37.5120 C   0  0  0  0  0  0  0  0  0  0  0  0
   43.2160   19.5770   36.5570 C   0  0  0  0  0  0  0  0  0  0  0  0
   38.4500   23.4030   38.4310 C   0  0  0  0  0  0  0  0  0  0  0  0
   38.3540   24.9600   36.5280 C   0  0  0  0  0  0  0  0  0  0  0  0
   37.8990   21.5878   36.5331 H   0  0  0  0  0  0  0  0  0  0  0  0
   36.6961   22.9553   36.4529 H   0  0  0  0  0  0  0  0  0  0  0  0
   38.5644   20.7116   34.1805 H   0  0  0  0  0  0  0  0  0  0  0  0
   35.6693   24.7210   32.3537 H   0  0  0  0  0  0  0  0  0  0  0  0
   36.0041   25.5846   30.8146 H   0  0  0  0  0  0  0  0  0  0  0  0
   35.7836   23.8019   30.8146 H   0  0  0  0  0  0  0  0  0  0  0  0
   38.9449   23.0517   30.5964 H   0  0  0  0  0  0  0  0  0  0  0  0
   37.4086   23.4341   29.7478 H   0  0  0  0  0  0  0  0  0  0  0  0
   38.7548   24.6235   29.7478 H   0  0  0  0  0  0  0  0  0  0  0  0
   37.6688   26.5511   31.2907 H   0  0  0  0  0  0  0  0  0  0  0  0
   38.1351   25.9410   32.9877 H   0  0  0  0  0  0  0  0  0  0  0  0
   39.5361   28.1424   31.8645 H   0  0  0  0  0  0  0  0  0  0  0  0
   39.6115   27.5839   30.1886 H   0  0  0  0  0  0  0  0  0  0  0  0
   41.9382   26.4467   31.0172 H   0  0  0  0  0  0  0  0  0  0  0  0
   41.9332   28.1576   30.5780 H   0  0  0  0  0  0  0  0  0  0  0  0
   42.8320   27.4073   32.9967 H   0  0  0  0  0  0  0  0  0  0  0  0
   41.8301   28.8630   32.8893 H   0  0  0  0  0  0  0  0  0  0  0  0
   41.1802   26.8486   34.5628 H   0  0  0  0  0  0  0  0  0  0  0  0
   39.8973   27.7488   33.6762 H   0  0  0  0  0  0  0  0  0  0  0  0
   39.6610   25.2471   33.5813 H   0  0  0  0  0  0  0  0  0  0  0  0
   41.2226   25.2076   32.6629 H   0  0  0  0  0  0  0  0  0  0  0  0
   40.0432   21.3796   37.9070 H   0  0  0  0  0  0  0  0  0  0  0  0
   42.6509   24.1652   34.8133 H   0  0  0  0  0  0  0  0  0  0  0  0
   43.2584   20.7947   38.2663 H   0  0  0  0  0  0  0  0  0  0  0  0
   41.6969   19.8871   37.9390 H   0  0  0  0  0  0  0  0  0  0  0  0
   43.7968   18.8250   37.1112 H   0  0  0  0  0  0  0  0  0  0  0  0
   42.4713   19.0719   35.9243 H   0  0  0  0  0  0  0  0  0  0  0  0
   43.8929   20.1699   35.9243 H   0  0  0  0  0  0  0  0  0  0  0  0
   39.2811   23.8822   38.9691 H   0  0  0  0  0  0  0  0  0  0  0  0
   37.5046   23.8946   38.7039 H   0  0  0  0  0  0  0  0  0  0  0  0
   38.4018   22.3385   38.7039 H   0  0  0  0  0  0  0  0  0  0  0  0
   38.2151   25.5843   37.4230 H   0  0  0  0  0  0  0  0  0  0  0  0
   39.1854   25.3588   35.9282 H   0  0  0  0  0  0  0  0  0  0  0  0
   37.4320   24.9686   35.9282 H   0  0  0  0  0  0  0  0  0  0  0  0
  1 17  1  0
  2  1  1  0
  3  2  1  0
  4  5  1  0
  4  3  2  0
  5  6  2  0
  6  2  1  0
  7 10  1  0
  7  5  1  0
  8  7  1  0
  9  7  1  0
 11 10  1  0
 11 16  1  0
 12 13  1  0
 12 11  1  0
 13 14  1  0
 14 15  1  0
 16 15  1  0
 17 26  1  0
 18 19  2  0
 18 24  1  0
 20 17  1  0
 20 19  1  0
 21 20  2  0
 22 21  1  0
 22 23  2  0
 23 18  1  0
 25 24  1  0
 27 17  1  0
  1 28  1  0
  1 29  1  0
  3 30  1  0
  8 31  1  0
  8 32  1  0
  8 33  1  0
  9 34  1  0
  9 35  1  0
  9 36  1  0
 10 37  1  0
 10 38  1  0
 12 39  1  0
 12 40  1  0
 13 41  1  0
 13 42  1  0
 14 43  1  0
 14 44  1  0
 15 45  1  0
 15 46  1  0
 16 47  1  0
 16 48  1  0
 19 49  1  0
 22 50  1  0
 24 51  1  0
 24 52  1  0
 25 53  1  0
 25 54  1  0
 25 55  1  0
 26 56  1  0
 26 57  1  0
 26 58  1  0
 27 59  1  0
 27 60  1  0
 27 61  1  0
M  ISO  8  28   8  29   8  30  14  31   8  32   8  33   8  34   8  35   8
M  ISO  8  36   8  37   8  38   8  39  13  40  13  41  13  42  13  43  13
M  ISO  8  44  13  45  13  46  13  47  13  48  13  49  14  50  14  51   8
M  ISO  8  52   8  53   8  54   8  55   8  56   8  57   8  58   8  59   8
M  ISO  2  60   8  61   8
M  END
>  <minimizedAffinity>  (1) 
-5.00315428

>  <minimizedRMSD>  (1) 
0.59699589

$$$$
