
     RDKit          3D

 32 34  0  0  0  0  0  0  0  0999 V2000
   39.0420   26.5290   35.3720 C   0  0  0  0  0  0  0  0  0  0  0  0
   40.1760   27.0510   34.7780 C   0  0  0  0  0  0  0  0  0  0  0  0
   41.2680   26.2720   34.5330 C   0  0  0  0  0  0  0  0  0  0  0  0
   41.2840   24.9180   34.8690 C   0  0  0  0  0  0  0  0  0  0  0  0
   40.1410   24.3880   35.4680 C   0  0  0  0  0  0  0  0  0  0  0  0
   40.1560   23.0470   35.8010 C   0  0  0  0  0  0  0  0  0  0  0  0
   39.0440   22.4750   36.3940 C   0  0  0  0  0  0  0  0  0  0  0  0
   37.9260   23.2540   36.6500 C   0  0  0  0  0  0  0  0  0  0  0  0
   37.9620   24.5910   36.2990 C   0  0  0  0  0  0  0  0  0  0  0  0
   39.0500   25.2090   35.7030 C   0  0  0  0  0  0  0  0  0  0  0  0
   37.8690   27.3500   35.6690 C   0  0  0  0  0  0  0  0  0  0  0  0
   35.5410   29.1360   33.4720 C   0  0  0  0  0  0  0  0  0  0  0  0
   35.5070   28.3870   32.3070 C   0  0  0  0  0  0  0  0  0  0  0  0
   36.3040   27.2280   32.2750 C   0  0  0  0  0  0  0  0  0  0  0  0
   37.0600   26.8980   33.3640 N   0  0  0  0  0  0  0  0  0  0  0  0
   37.0500   27.6660   34.4640 C   0  0  0  0  0  0  0  0  0  0  0  0
   36.3000   28.7750   34.5250 N   0  0  0  0  0  0  0  0  0  0  0  0
   36.4120   26.3110   31.1600 C   0  0  0  0  0  0  0  0  0  0  0  0
   37.3790   25.5380   30.9390 O   0  0  0  0  0  0  0  0  0  0  0  0
   35.4930   26.1250   30.1610 O   0  0  0  0  0  0  0  0  0  0  0  0
   40.1978   28.1145   34.4978 H   0  0  0  0  0  0  0  0  0  0  0  0
   42.1545   26.7203   34.0607 H   0  0  0  0  0  0  0  0  0  0  0  0
   42.1656   24.2913   34.6689 H   0  0  0  0  0  0  0  0  0  0  0  0
   41.0479   22.4368   35.5957 H   0  0  0  0  0  0  0  0  0  0  0  0
   39.0472   21.4079   36.6608 H   0  0  0  0  0  0  0  0  0  0  0  0
   37.0321   22.8190   37.1209 H   0  0  0  0  0  0  0  0  0  0  0  0
   37.0713   25.2024   36.5058 H   0  0  0  0  0  0  0  0  0  0  0  0
   37.2371   26.8087   36.3885 H   0  0  0  0  0  0  0  0  0  0  0  0
   38.2340   28.3052   36.0745 H   0  0  0  0  0  0  0  0  0  0  0  0
   34.9322   30.0497   33.5391 H   0  0  0  0  0  0  0  0  0  0  0  0
   34.8868   28.6841   31.4485 H   0  0  0  0  0  0  0  0  0  0  0  0
   35.6693   25.4672   29.4424 H   0  0  0  0  0  0  0  0  0  0  0  0
  1 11  1  0
  1 10  1  0
  2  1  2  0
  3  2  1  0
  3  4  2  0
  4  5  1  0
  5 10  2  0
  5  6  1  0
  6  7  2  0
  7  8  1  0
  9  8  2  0
 10  9  1  0
 12 17  2  0
 13 12  1  0
 14 13  2  0
 14 15  1  0
 15 16  2  0
 16 17  1  0
 16 11  1  0
 18 14  1  0
 19 18  2  0
 20 18  1  0
  2 21  1  0
  3 22  1  0
  4 23  1  0
  6 24  1  0
  7 25  1  0
  8 26  1  0
  9 27  1  0
 11 28  1  0
 11 29  1  0
 12 30  1  0
 13 31  1  0
 20 32  1  0
M  ISO  8  21  14  22  14  23  14  24  14  25  14  26  14  27  14  28   8
M  ISO  4  29   8  30  14  31  14  32   3
M  END
>  <minimizedAffinity>  (1) 
-5.66813231

>  <minimizedRMSD>  (1) 
0.365762144

$$$$
