
     RDKit          3D

 40 43  0  0  0  0  0  0  0  0999 V2000
   37.7090   27.2030   35.0580 C   0  0  0  0  0  0  0  0  0  0  0  0
   38.9590   26.4470   35.0270 C   0  0  0  0  0  0  0  0  0  0  0  0
   40.0820   26.9690   34.3890 C   0  0  0  0  0  0  0  0  0  0  0  0
   41.2660   26.2760   34.3610 C   0  0  0  0  0  0  0  0  0  0  0  0
   41.3780   25.0260   34.9740 C   0  0  0  0  0  0  0  0  0  0  0  0
   40.2540   24.5020   35.6130 C   0  0  0  0  0  0  0  0  0  0  0  0
   40.3500   23.2710   36.2210 C   0  0  0  0  0  0  0  0  0  0  0  0
   39.2700   22.7100   36.8650 C   0  0  0  0  0  0  0  0  0  0  0  0
   38.0720   23.4110   36.8930 C   0  0  0  0  0  0  0  0  0  0  0  0
   38.0100   24.6530   36.2680 C   0  0  0  0  0  0  0  0  0  0  0  0
   39.0750   25.2380   35.6170 C   0  0  0  0  0  0  0  0  0  0  0  0
   36.3010   28.7400   32.0550 C   0  0  0  0  0  0  0  0  0  0  0  0
   35.8560   27.6740   31.2890 C   0  0  0  0  0  0  0  0  0  0  0  0
   36.0400   26.3800   31.8170 C   0  0  0  0  0  0  0  0  0  0  0  0
   36.6390   26.2470   33.0380 N   0  0  0  0  0  0  0  0  0  0  0  0
   37.0440   27.3010   33.7240 C   0  0  0  0  0  0  0  0  0  0  0  0
   36.8800   28.5450   33.2420 N   0  0  0  0  0  0  0  0  0  0  0  0
   35.6000   25.2150   31.0700 C   0  0  0  0  0  0  0  0  0  0  0  0
   34.5060   25.2590   30.4620 O   0  0  0  0  0  0  0  0  0  0  0  0
   36.3660   23.9800   30.9860 C   0  0  0  0  0  0  0  0  0  0  0  0
   35.7510   22.8130   31.3880 C   0  0  0  0  0  0  0  0  0  0  0  0
   36.3980   21.5730   31.3470 C   0  0  0  0  0  0  0  0  0  0  0  0
   37.6940   21.5120   30.8900 C   0  0  0  0  0  0  0  0  0  0  0  0
   38.2560   22.7060   30.5030 C   0  0  0  0  0  0  0  0  0  0  0  0
   37.6300   23.9100   30.5410 N   0  0  0  0  0  0  0  0  0  0  0  0
   37.0187   26.7076   35.7566 H   0  0  0  0  0  0  0  0  0  0  0  0
   37.9556   28.2271   35.3749 H   0  0  0  0  0  0  0  0  0  0  0  0
   40.0186   27.9523   33.8999 H   0  0  0  0  0  0  0  0  0  0  0  0
   42.1377   26.7103   33.8495 H   0  0  0  0  0  0  0  0  0  0  0  0
   42.3268   24.4698   34.9535 H   0  0  0  0  0  0  0  0  0  0  0  0
   41.3053   22.7264   36.1920 H   0  0  0  0  0  0  0  0  0  0  0  0
   39.3548   21.7254   37.3480 H   0  0  0  0  0  0  0  0  0  0  0  0
   37.1893   22.9931   37.3991 H   0  0  0  0  0  0  0  0  0  0  0  0
   37.0558   25.1995   36.2951 H   0  0  0  0  0  0  0  0  0  0  0  0
   36.1748   29.7656   31.6779 H   0  0  0  0  0  0  0  0  0  0  0  0
   35.3793   27.8312   30.3102 H   0  0  0  0  0  0  0  0  0  0  0  0
   34.7147   22.8586   31.7540 H   0  0  0  0  0  0  0  0  0  0  0  0
   35.8782   20.6608   31.6752 H   0  0  0  0  0  0  0  0  0  0  0  0
   38.2485   20.5635   30.8372 H   0  0  0  0  0  0  0  0  0  0  0  0
   39.2922   22.6838   30.1344 H   0  0  0  0  0  0  0  0  0  0  0  0
  2  1  1  0
  2 11  1  0
  3  2  2  0
  4  3  1  0
  4  5  2  0
  5  6  1  0
  6 11  2  0
  6  7  1  0
  7  8  2  0
  8  9  1  0
 10  9  2  0
 11 10  1  0
 12 17  2  0
 13 14  2  0
 13 12  1  0
 14 15  1  0
 15 16  2  0
 16  1  1  0
 17 16  1  0
 18 14  1  0
 19 18  2  0
 20 18  1  0
 20 21  2  0
 22 21  1  0
 23 22  2  0
 24 25  2  0
 24 23  1  0
 25 20  1  0
  1 26  1  0
  1 27  1  0
  3 28  1  0
  4 29  1  0
  5 30  1  0
  7 31  1  0
  8 32  1  0
  9 33  1  0
 10 34  1  0
 12 35  1  0
 13 36  1  0
 21 37  1  0
 22 38  1  0
 23 39  1  0
 24 40  1  0
M  ISO  8  26   8  27   8  28  14  29  14  30  14  31  14  32  14  33  14
M  ISO  7  34  14  35  14  36  14  37  14  38  14  39  14  40  14
M  END
>  <minimizedAffinity>  (1) 
-6.21494007

>  <minimizedRMSD>  (1) 
2.07642078

$$$$
