
     RDKit          3D

 38 40  0  0  0  0  0  0  0  0999 V2000
   37.8460   27.6180   35.5860 C   0  0  0  0  0  0  0  0  0  0  0  0
   38.9170   26.6930   35.2600 C   0  0  0  0  0  0  0  0  0  0  0  0
   40.0300   27.1100   34.5330 C   0  0  0  0  0  0  0  0  0  0  0  0
   41.0450   26.2420   34.2360 C   0  0  0  0  0  0  0  0  0  0  0  0
   41.0080   24.9100   34.6460 C   0  0  0  0  0  0  0  0  0  0  0  0
   39.9020   24.4910   35.3700 C   0  0  0  0  0  0  0  0  0  0  0  0
   39.8420   23.1720   35.7890 C   0  0  0  0  0  0  0  0  0  0  0  0
   38.7600   22.7010   36.5140 C   0  0  0  0  0  0  0  0  0  0  0  0
   37.7220   23.5880   36.8170 C   0  0  0  0  0  0  0  0  0  0  0  0
   37.8210   24.9000   36.3780 C   0  0  0  0  0  0  0  0  0  0  0  0
   38.8840   25.3940   35.6580 C   0  0  0  0  0  0  0  0  0  0  0  0
   35.2240   29.2550   33.6110 C   0  0  0  0  0  0  0  0  0  0  0  0
   35.2290   28.5900   32.4040 C   0  0  0  0  0  0  0  0  0  0  0  0
   36.1560   27.5430   32.2480 C   0  0  0  0  0  0  0  0  0  0  0  0
   36.9940   27.2390   33.2860 N   0  0  0  0  0  0  0  0  0  0  0  0
   36.9440   27.9120   34.4220 C   0  0  0  0  0  0  0  0  0  0  0  0
   36.0650   28.9170   34.5910 N   0  0  0  0  0  0  0  0  0  0  0  0
   36.2220   26.7960   31.0000 C   0  0  0  0  0  0  0  0  0  0  0  0
   36.0500   25.5690   31.0200 O   0  0  0  0  0  0  0  0  0  0  0  0
   36.4870   27.5730   29.8400 N   0  0  0  0  0  0  0  0  0  0  0  0
   37.8480   27.9500   29.8040 C   0  0  0  0  0  0  0  0  0  0  0  0
   38.9030   27.8130   30.4820 N   0  0  0  0  0  0  0  0  0  0  0  0
   38.3950   28.7480   28.7320 N   0  0  0  0  0  0  0  0  0  0  0  0
   39.0380   27.3140   31.3570 H   0  0  0  0  0  0  0  0  0  0  0  0
   37.2417   27.1821   36.3953 H   0  0  0  0  0  0  0  0  0  0  0  0
   38.3137   28.5675   35.8853 H   0  0  0  0  0  0  0  0  0  0  0  0
   40.0937   28.1540   34.1923 H   0  0  0  0  0  0  0  0  0  0  0  0
   41.9100   26.6033   33.6606 H   0  0  0  0  0  0  0  0  0  0  0  0
   41.8267   24.2164   34.4039 H   0  0  0  0  0  0  0  0  0  0  0  0
   40.6670   22.4877   35.5419 H   0  0  0  0  0  0  0  0  0  0  0  0
   38.7180   21.6526   36.8442 H   0  0  0  0  0  0  0  0  0  0  0  0
   36.8458   23.2523   37.3912 H   0  0  0  0  0  0  0  0  0  0  0  0
   36.9981   25.5885   36.6207 H   0  0  0  0  0  0  0  0  0  0  0  0
   34.5137   30.0798   33.7699 H   0  0  0  0  0  0  0  0  0  0  0  0
   34.5364   28.8665   31.5954 H   0  0  0  0  0  0  0  0  0  0  0  0
   35.7871   27.8251   29.1276 H   0  0  0  0  0  0  0  0  0  0  0  0
   39.3926   29.0044   28.7382 H   0  0  0  0  0  0  0  0  0  0  0  0
   37.7876   29.0608   27.9612 H   0  0  0  0  0  0  0  0  0  0  0  0
  2  1  1  0
  2 11  1  0
  3  2  2  0
  4  3  1  0
  4  5  2  0
  5  6  1  0
  6 11  2  0
  6  7  1  0
  7  8  2  0
  8  9  1  0
 10  9  2  0
 11 10  1  0
 12 17  2  0
 13 12  1  0
 14 13  2  0
 14 15  1  0
 15 16  2  0
 16 17  1  0
 16  1  1  0
 18 19  2  0
 18 14  1  0
 20 18  1  0
 21 20  1  0
 21 22  2  0
 22 24  1  0
 23 21  1  0
  1 25  1  0
  1 26  1  0
  3 27  1  0
  4 28  1  0
  5 29  1  0
  7 30  1  0
  8 31  1  0
  9 32  1  0
 10 33  1  0
 12 34  1  0
 13 35  1  0
 20 36  1  0
 23 37  1  0
 23 38  1  0
M  ISO  8  25   8  26   8  27  14  28  14  29  14  30  14  31  14  32  14
M  ISO  3  33  14  34  14  35  14
M  END
>  <minimizedAffinity>  (1) 
-6.23048449

>  <minimizedRMSD>  (1) 
1.31127143

$$$$
