
     RDKit          3D

 52 54  0  0  0  0  0  0  0  0999 V2000
   37.7760   22.5520   36.2030 C   0  0  0  0  0  0  0  0  0  0  0  0
   37.8190   22.7490   34.7950 N   0  0  0  0  0  0  0  0  0  0  0  0
   38.2510   21.9080   33.8020 C   0  0  0  0  0  0  0  0  0  0  0  0
   38.1070   22.5170   32.5990 N   0  0  0  0  0  0  0  0  0  0  0  0
   37.5870   23.7360   32.8390 C   0  0  0  0  0  0  0  0  0  0  0  0
   37.4240   23.8490   34.1540 N   0  0  0  0  0  0  0  0  0  0  0  0
   37.2700   24.7380   31.7700 C   0  0  0  0  0  0  0  0  0  0  0  0
   35.8580   24.4270   31.2660 C   0  0  0  0  0  0  0  0  0  0  0  0
   38.1910   24.5780   30.5830 C   0  0  0  0  0  0  0  0  0  0  0  0
   37.2510   26.1350   32.3000 C   0  0  0  0  0  0  0  0  0  0  0  0
   37.6210   27.1140   31.2170 C   0  0  0  0  0  0  0  0  0  0  0  0
   36.5190   27.7470   30.4600 C   0  0  0  0  0  0  0  0  0  0  0  0
   37.5170   28.8110   29.3080 S   0  0  0  0  0  0  0  0  0  0  0  0
   39.1170   28.2580   29.9990 C   0  0  0  0  0  0  0  0  0  0  0  0
   38.8830   27.4190   30.9300 N   0  0  0  0  0  0  0  0  0  0  0  0
   38.7320   23.4910   36.9390 C   0  0  0  0  0  0  0  0  0  0  0  0
   42.0150   21.6770   36.8740 C   0  0  0  0  0  0  0  0  0  0  0  0
   40.7080   21.9770   37.1950 C   0  0  0  0  0  0  0  0  0  0  0  0
   40.1000   23.1230   36.6400 C   0  0  0  0  0  0  0  0  0  0  0  0
   40.8330   23.8860   35.8070 N   0  0  0  0  0  0  0  0  0  0  0  0
   42.1140   23.5750   35.5030 C   0  0  0  0  0  0  0  0  0  0  0  0
   42.6950   22.4620   36.0470 N   0  0  0  0  0  0  0  0  0  0  0  0
   42.6310   20.4630   37.4740 C   0  0  0  0  0  0  0  0  0  0  0  0
   43.1820   19.5180   36.4720 C   0  0  0  0  0  0  0  0  0  0  0  0
   38.5200   23.3240   38.4310 C   0  0  0  0  0  0  0  0  0  0  0  0
   38.3800   24.9070   36.5400 C   0  0  0  0  0  0  0  0  0  0  0  0
   38.0573   21.5121   36.4254 H   0  0  0  0  0  0  0  0  0  0  0  0
   36.7536   22.7682   36.5466 H   0  0  0  0  0  0  0  0  0  0  0  0
   38.6524   20.8957   33.9572 H   0  0  0  0  0  0  0  0  0  0  0  0
   35.1865   24.2791   32.1246 H   0  0  0  0  0  0  0  0  0  0  0  0
   35.4934   25.2664   30.6557 H   0  0  0  0  0  0  0  0  0  0  0  0
   35.8797   23.5121   30.6557 H   0  0  0  0  0  0  0  0  0  0  0  0
   39.2172   24.3997   30.9366 H   0  0  0  0  0  0  0  0  0  0  0  0
   37.8594   23.7240   29.9741 H   0  0  0  0  0  0  0  0  0  0  0  0
   38.1669   25.4938   29.9741 H   0  0  0  0  0  0  0  0  0  0  0  0
   36.2417   26.3684   32.6698 H   0  0  0  0  0  0  0  0  0  0  0  0
   37.9820   26.2156   33.1180 H   0  0  0  0  0  0  0  0  0  0  0  0
   35.4297   27.6242   30.5518 H   0  0  0  0  0  0  0  0  0  0  0  0
   40.1114   28.5921   29.6680 H   0  0  0  0  0  0  0  0  0  0  0  0
   40.1429   21.3271   37.8794 H   0  0  0  0  0  0  0  0  0  0  0  0
   42.6884   24.2167   34.8187 H   0  0  0  0  0  0  0  0  0  0  0  0
   43.4481   20.7802   38.1386 H   0  0  0  0  0  0  0  0  0  0  0  0
   41.8340   19.9310   38.0142 H   0  0  0  0  0  0  0  0  0  0  0  0
   43.6710   18.6793   36.9891 H   0  0  0  0  0  0  0  0  0  0  0  0
   42.3659   19.1346   35.8420 H   0  0  0  0  0  0  0  0  0  0  0  0
   43.9177   20.0394   35.8420 H   0  0  0  0  0  0  0  0  0  0  0  0
   39.2704   23.9151   38.9764 H   0  0  0  0  0  0  0  0  0  0  0  0
   37.5121   23.6734   38.6995 H   0  0  0  0  0  0  0  0  0  0  0  0
   38.6237   22.2623   38.6995 H   0  0  0  0  0  0  0  0  0  0  0  0
   38.2287   25.5157   37.4436 H   0  0  0  0  0  0  0  0  0  0  0  0
   39.1993   25.3342   35.9431 H   0  0  0  0  0  0  0  0  0  0  0  0
   37.4561   24.9008   35.9431 H   0  0  0  0  0  0  0  0  0  0  0  0
  1 16  1  0
  2  1  1  0
  3  2  1  0
  4  5  1  0
  4  3  2  0
  5  6  2  0
  6  2  1  0
  7 10  1  0
  7  5  1  0
  8  7  1  0
  9  7  1  0
 11 10  1  0
 12 11  2  0
 13 14  1  0
 13 12  1  0
 14 15  2  0
 15 11  1  0
 16 25  1  0
 17 18  2  0
 17 23  1  0
 19 16  1  0
 19 18  1  0
 20 19  2  0
 21 20  1  0
 21 22  2  0
 22 17  1  0
 24 23  1  0
 26 16  1  0
  1 27  1  0
  1 28  1  0
  3 29  1  0
  8 30  1  0
  8 31  1  0
  8 32  1  0
  9 33  1  0
  9 34  1  0
  9 35  1  0
 10 36  1  0
 10 37  1  0
 12 38  1  0
 14 39  1  0
 18 40  1  0
 21 41  1  0
 23 42  1  0
 23 43  1  0
 24 44  1  0
 24 45  1  0
 24 46  1  0
 25 47  1  0
 25 48  1  0
 25 49  1  0
 26 50  1  0
 26 51  1  0
 26 52  1  0
M  ISO  8  27   8  28   8  29  14  30   8  31   8  32   8  33   8  34   8
M  ISO  8  35   8  36   8  37   8  38  14  39  14  40  14  41  14  42   8
M  ISO  8  43   8  44   8  45   8  46   8  47   8  48   8  49   8  50   8
M  ISO  2  51   8  52   8
M  END
>  <minimizedAffinity>  (1) 
-4.85976744

>  <minimizedRMSD>  (1) 
0.671411872

$$$$
