
     RDKit          3D

 39 42  0  0  0  0  0  0  0  0999 V2000
   37.7150   27.1930   35.0420 C   0  0  0  0  0  0  0  0  0  0  0  0
   38.9620   26.4410   35.0190 C   0  0  0  0  0  0  0  0  0  0  0  0
   40.0880   26.9600   34.3840 C   0  0  0  0  0  0  0  0  0  0  0  0
   41.2680   26.2690   34.3650 C   0  0  0  0  0  0  0  0  0  0  0  0
   41.3860   25.0200   34.9810 C   0  0  0  0  0  0  0  0  0  0  0  0
   40.2580   24.5010   35.6170 C   0  0  0  0  0  0  0  0  0  0  0  0
   40.3560   23.2690   36.2300 C   0  0  0  0  0  0  0  0  0  0  0  0
   39.2670   22.7110   36.8720 C   0  0  0  0  0  0  0  0  0  0  0  0
   38.0670   23.4100   36.8910 C   0  0  0  0  0  0  0  0  0  0  0  0
   38.0080   24.6500   36.2620 C   0  0  0  0  0  0  0  0  0  0  0  0
   39.0770   25.2300   35.6150 C   0  0  0  0  0  0  0  0  0  0  0  0
   36.3250   28.7070   32.0120 C   0  0  0  0  0  0  0  0  0  0  0  0
   35.8720   27.6350   31.2570 C   0  0  0  0  0  0  0  0  0  0  0  0
   36.0450   26.3470   31.8020 C   0  0  0  0  0  0  0  0  0  0  0  0
   36.6400   26.2210   33.0260 N   0  0  0  0  0  0  0  0  0  0  0  0
   37.0510   27.2830   33.7000 C   0  0  0  0  0  0  0  0  0  0  0  0
   36.8990   28.5240   33.2020 N   0  0  0  0  0  0  0  0  0  0  0  0
   35.5960   25.1790   31.0690 C   0  0  0  0  0  0  0  0  0  0  0  0
   34.4980   25.2360   30.4500 O   0  0  0  0  0  0  0  0  0  0  0  0
   36.3580   23.9280   31.0080 C   0  0  0  0  0  0  0  0  0  0  0  0
   35.7280   22.7870   31.4690 C   0  0  0  0  0  0  0  0  0  0  0  0
   36.4670   21.6010   31.4050 C   0  0  0  0  0  0  0  0  0  0  0  0
   37.7380   21.5540   30.9190 N   0  0  0  0  0  0  0  0  0  0  0  0
   38.2700   22.7220   30.4920 C   0  0  0  0  0  0  0  0  0  0  0  0
   37.6120   23.9160   30.5220 N   0  0  0  0  0  0  0  0  0  0  0  0
   37.0233   26.7006   35.7414 H   0  0  0  0  0  0  0  0  0  0  0  0
   37.9593   28.2192   35.3538 H   0  0  0  0  0  0  0  0  0  0  0  0
   40.0271   27.9410   33.8901 H   0  0  0  0  0  0  0  0  0  0  0  0
   42.1403   26.7042   33.8555 H   0  0  0  0  0  0  0  0  0  0  0  0
   42.3357   24.4652   34.9649 H   0  0  0  0  0  0  0  0  0  0  0  0
   41.3117   22.7248   36.2075 H   0  0  0  0  0  0  0  0  0  0  0  0
   39.3492   21.7287   37.3603 H   0  0  0  0  0  0  0  0  0  0  0  0
   37.1817   22.9922   37.3927 H   0  0  0  0  0  0  0  0  0  0  0  0
   37.0543   25.1977   36.2826 H   0  0  0  0  0  0  0  0  0  0  0  0
   36.2085   29.7287   31.6214 H   0  0  0  0  0  0  0  0  0  0  0  0
   35.3983   27.7839   30.2755 H   0  0  0  0  0  0  0  0  0  0  0  0
   34.7018   22.8105   31.8645 H   0  0  0  0  0  0  0  0  0  0  0  0
   36.0029   20.6695   31.7614 H   0  0  0  0  0  0  0  0  0  0  0  0
   39.2963   22.7078   30.0963 H   0  0  0  0  0  0  0  0  0  0  0  0
  2  1  1  0
  2 11  1  0
  3  2  2  0
  4  3  1  0
  4  5  2  0
  5  6  1  0
  6  7  1  0
  7  8  2  0
  8  9  1  0
 10  9  2  0
 11  6  2  0
 11 10  1  0
 12 17  2  0
 13 14  2  0
 13 12  1  0
 14 15  1  0
 15 16  2  0
 16  1  1  0
 17 16  1  0
 18 14  1  0
 19 18  2  0
 20 18  1  0
 20 21  2  0
 22 21  1  0
 23 22  2  0
 24 25  2  0
 24 23  1  0
 25 20  1  0
  1 26  1  0
  1 27  1  0
  3 28  1  0
  4 29  1  0
  5 30  1  0
  7 31  1  0
  8 32  1  0
  9 33  1  0
 10 34  1  0
 12 35  1  0
 13 36  1  0
 21 37  1  0
 22 38  1  0
 24 39  1  0
M  ISO  8  26   8  27   8  28  14  29  14  30  14  31  14  32  14  33  14
M  ISO  6  34  14  35  14  36  14  37  14  38  14  39  14
M  END
>  <minimizedAffinity>  (1) 
-6.10931492

>  <minimizedRMSD>  (1) 
2.12336946

$$$$
