
     RDKit          3D

 38 41  0  0  0  0  0  0  0  0999 V2000
   37.7040   27.1880   35.0420 C   0  0  0  0  0  0  0  0  0  0  0  0
   38.9490   26.4410   35.0170 C   0  0  0  0  0  0  0  0  0  0  0  0
   40.0710   26.9650   34.3780 C   0  0  0  0  0  0  0  0  0  0  0  0
   41.2580   26.2790   34.3530 C   0  0  0  0  0  0  0  0  0  0  0  0
   41.3760   25.0290   34.9710 C   0  0  0  0  0  0  0  0  0  0  0  0
   40.2530   24.5030   35.6110 C   0  0  0  0  0  0  0  0  0  0  0  0
   40.3600   23.2720   36.2230 C   0  0  0  0  0  0  0  0  0  0  0  0
   39.2860   22.7120   36.8670 C   0  0  0  0  0  0  0  0  0  0  0  0
   38.0740   23.4090   36.8920 C   0  0  0  0  0  0  0  0  0  0  0  0
   38.0090   24.6500   36.2610 C   0  0  0  0  0  0  0  0  0  0  0  0
   39.0730   25.2330   35.6100 C   0  0  0  0  0  0  0  0  0  0  0  0
   36.3260   28.7180   32.0050 C   0  0  0  0  0  0  0  0  0  0  0  0
   35.8730   27.6570   31.2520 C   0  0  0  0  0  0  0  0  0  0  0  0
   36.0350   26.3630   31.7920 C   0  0  0  0  0  0  0  0  0  0  0  0
   36.6260   26.2290   33.0190 N   0  0  0  0  0  0  0  0  0  0  0  0
   37.0410   27.2870   33.6940 C   0  0  0  0  0  0  0  0  0  0  0  0
   36.8960   28.5340   33.1970 N   0  0  0  0  0  0  0  0  0  0  0  0
   35.5800   25.1980   31.0540 C   0  0  0  0  0  0  0  0  0  0  0  0
   34.4730   25.2470   30.4560 O   0  0  0  0  0  0  0  0  0  0  0  0
   38.0570   22.6580   30.5900 N   0  0  0  0  0  0  0  0  0  0  0  0
   37.6230   23.8890   30.4770 N   0  0  0  0  0  0  0  0  0  0  0  0
   36.3900   23.9800   30.9980 C   0  0  0  0  0  0  0  0  0  0  0  0
   35.9980   22.7470   31.4760 C   0  0  0  0  0  0  0  0  0  0  0  0
   37.0740   21.9400   31.2010 C   0  0  0  0  0  0  0  0  0  0  0  0
   37.0114   26.6890   35.7358 H   0  0  0  0  0  0  0  0  0  0  0  0
   37.9454   28.2124   35.3620 H   0  0  0  0  0  0  0  0  0  0  0  0
   40.0033   27.9460   33.8851 H   0  0  0  0  0  0  0  0  0  0  0  0
   42.1278   26.7164   33.8411 H   0  0  0  0  0  0  0  0  0  0  0  0
   42.3271   24.4767   34.9528 H   0  0  0  0  0  0  0  0  0  0  0  0
   41.3182   22.7325   36.1945 H   0  0  0  0  0  0  0  0  0  0  0  0
   39.3767   21.7307   37.3557 H   0  0  0  0  0  0  0  0  0  0  0  0
   37.1927   22.9878   37.3978 H   0  0  0  0  0  0  0  0  0  0  0  0
   37.0535   25.1945   36.2844 H   0  0  0  0  0  0  0  0  0  0  0  0
   36.2152   29.7403   31.6144 H   0  0  0  0  0  0  0  0  0  0  0  0
   35.4038   27.8121   30.2692 H   0  0  0  0  0  0  0  0  0  0  0  0
   38.9703   22.3003   30.2757 H   0  0  0  0  0  0  0  0  0  0  0  0
   35.0493   22.4751   31.9618 H   0  0  0  0  0  0  0  0  0  0  0  0
   37.1337   20.8679   31.4397 H   0  0  0  0  0  0  0  0  0  0  0  0
  2  1  1  0
  2 11  1  0
  3  2  2  0
  4  3  1  0
  4  5  2  0
  5  6  1  0
  6  7  1  0
  7  8  2  0
  8  9  1  0
 10  9  2  0
 11  6  2  0
 11 10  1  0
 12 17  2  0
 13 14  2  0
 13 12  1  0
 14 15  1  0
 15 16  2  0
 16  1  1  0
 17 16  1  0
 18 14  1  0
 19 18  2  0
 20 24  1  0
 21 20  1  0
 21 22  2  0
 22 18  1  0
 22 23  1  0
 24 23  2  0
  1 25  1  0
  1 26  1  0
  3 27  1  0
  4 28  1  0
  5 29  1  0
  7 30  1  0
  8 31  1  0
  9 32  1  0
 10 33  1  0
 12 34  1  0
 13 35  1  0
 20 36  1  0
 23 37  1  0
 24 38  1  0
M  ISO  8  25   8  26   8  27  14  28  14  29  14  30  14  31  14  32  14
M  ISO  6  33  14  34  14  35  14  36   9  37  14  38  14
M  END
>  <minimizedAffinity>  (1) 
-5.91132689

>  <minimizedRMSD>  (1) 
1.8684876

$$$$
