
     RDKit          3D

 27 29  0  0  1  0  0  0  0  0999 V2000
   38.5360   25.7180   35.1000 C   0  0  2  0  0  0  0  0  0  0  0  0
   39.4090   26.9640   35.2360 C   0  0  0  0  0  0  0  0  0  0  0  0
   37.9080   27.0420   35.2650 C   0  0  1  0  0  0  0  0  0  0  0  0
   39.6000   22.9500   37.2730 C   0  0  0  0  0  0  0  0  0  0  0  0
   38.8510   23.1430   38.4580 C   0  0  0  0  0  0  0  0  0  0  0  0
   37.9730   24.2420   38.4780 C   0  0  0  0  0  0  0  0  0  0  0  0
   37.9020   25.0360   37.3760 N   0  0  0  0  0  0  0  0  0  0  0  0
   38.6530   24.8000   36.2530 C   0  0  0  0  0  0  0  0  0  0  0  0
   39.5110   23.7380   36.2120 N   0  0  0  0  0  0  0  0  0  0  0  0
   37.1630   27.7170   34.1950 C   0  0  0  0  0  0  0  0  0  0  0  0
   37.5020   27.4360   32.8660 C   0  0  0  0  0  0  0  0  0  0  0  0
   36.8380   28.0380   31.8150 C   0  0  0  0  0  0  0  0  0  0  0  0
   35.8060   28.9480   32.0620 C   0  0  0  0  0  0  0  0  0  0  0  0
   35.5270   29.1760   33.3980 C   0  0  0  0  0  0  0  0  0  0  0  0
   36.1510   28.6080   34.4870 C   0  0  0  0  0  0  0  0  0  0  0  0
   38.3695   24.9088   34.3737 H   0  0  0  0  0  0  0  0  0  0  0  0
   39.9914   27.1361   36.1532 H   0  0  0  0  0  0  0  0  0  0  0  0
   40.2113   27.4323   34.6469 H   0  0  0  0  0  0  0  0  0  0  0  0
   37.1605   27.4415   35.9661 H   0  0  0  0  0  0  0  0  0  0  0  0
   40.2948   22.0982   37.2306 H   0  0  0  0  0  0  0  0  0  0  0  0
   38.9503   22.4675   39.3204 H   0  0  0  0  0  0  0  0  0  0  0  0
   37.3578   24.4544   39.3648 H   0  0  0  0  0  0  0  0  0  0  0  0
   38.3122   26.7225   32.6549 H   0  0  0  0  0  0  0  0  0  0  0  0
   37.1225   27.8004   30.7793 H   0  0  0  0  0  0  0  0  0  0  0  0
   35.2547   29.4475   31.2517 H   0  0  0  0  0  0  0  0  0  0  0  0
   34.7180   29.8892   33.6143 H   0  0  0  0  0  0  0  0  0  0  0  0
   35.8616   28.8489   35.5206 H   0  0  0  0  0  0  0  0  0  0  0  0
  1  2  1  0
  1  3  1  0
  1  8  1  0
  2  3  1  0
  4  5  2  0
  5  6  1  0
  7  6  2  0
  8  7  1  0
  9  8  2  0
  9  4  1  0
 10 15  1  0
 10  3  1  0
 11 10  2  0
 12 13  2  0
 12 11  1  0
 13 14  1  0
 14 15  2  0
  1 16  1  6
  2 17  1  0
  2 18  1  0
  3 19  1  1
  4 20  1  0
  5 21  1  0
  6 22  1  0
 11 23  1  0
 12 24  1  0
 13 25  1  0
 14 26  1  0
 15 27  1  0
M  ISO  8  16  13  17  13  18  13  19  13  20  14  21  14  22  14  23  14
M  ISO  4  24  14  25  14  26  14  27  14
M  END
>  <minimizedAffinity>  (1) 
-4.96920872

>  <minimizedRMSD>  (1) 
1.05031276

$$$$
