
     RDKit          3D

 27 29  0  0  1  0  0  0  0  0999 V2000
   38.6380   25.6830   35.0870 C   0  0  2  0  0  0  0  0  0  0  0  0
   39.6530   26.7980   35.0770 C   0  0  0  0  0  0  0  0  0  0  0  0
   38.1900   27.0810   35.2580 C   0  0  1  0  0  0  0  0  0  0  0  0
   39.5880   22.9130   37.3150 C   0  0  0  0  0  0  0  0  0  0  0  0
   38.8100   23.1400   38.4760 C   0  0  0  0  0  0  0  0  0  0  0  0
   37.9660   24.2610   38.4510 C   0  0  0  0  0  0  0  0  0  0  0  0
   37.9430   25.0500   37.3380 N   0  0  0  0  0  0  0  0  0  0  0  0
   38.7210   24.7780   36.2440 C   0  0  0  0  0  0  0  0  0  0  0  0
   39.5380   23.7110   36.2410 N   0  0  0  0  0  0  0  0  0  0  0  0
   37.4150   27.7140   34.2460 N   0  0  0  0  0  0  0  0  0  0  0  0
   36.2670   28.3930   34.3650 C   0  0  0  0  0  0  0  0  0  0  0  0
   35.6140   28.9610   33.2860 C   0  0  0  0  0  0  0  0  0  0  0  0
   36.1640   28.8310   32.0160 C   0  0  0  0  0  0  0  0  0  0  0  0
   35.6130   29.3280   30.9980 O   0  0  0  0  0  0  0  0  0  0  0  0
   37.3250   28.1430   31.9060 N   0  0  0  0  0  0  0  0  0  0  0  0
   37.9190   27.6070   32.9900 C   0  0  0  0  0  0  0  0  0  0  0  0
   39.0070   26.9870   32.7410 O   0  0  0  0  0  0  0  0  0  0  0  0
   38.3165   24.8762   34.4119 H   0  0  0  0  0  0  0  0  0  0  0  0
   40.3486   26.9204   35.9203 H   0  0  0  0  0  0  0  0  0  0  0  0
   40.4382   27.1380   34.3858 H   0  0  0  0  0  0  0  0  0  0  0  0
   37.6065   27.6298   36.0119 H   0  0  0  0  0  0  0  0  0  0  0  0
   40.2622   22.0441   37.2945 H   0  0  0  0  0  0  0  0  0  0  0  0
   38.8641   22.4741   39.3499 H   0  0  0  0  0  0  0  0  0  0  0  0
   37.3315   24.5004   39.3171 H   0  0  0  0  0  0  0  0  0  0  0  0
   35.8235   28.5040   35.3655 H   0  0  0  0  0  0  0  0  0  0  0  0
   34.6712   29.5088   33.4311 H   0  0  0  0  0  0  0  0  0  0  0  0
   37.7606   28.0277   30.9798 H   0  0  0  0  0  0  0  0  0  0  0  0
  1  3  1  0
  1  8  1  0
  2  1  1  0
  2  3  1  0
  4  5  2  0
  6  5  1  0
  7  6  2  0
  8  7  1  0
  9  8  2  0
  9  4  1  0
 10 11  1  0
 10  3  1  0
 12 11  2  0
 13 12  1  0
 14 13  2  0
 15 13  1  0
 15 16  1  0
 16 10  1  0
 17 16  2  0
  1 18  1  6
  2 19  1  0
  2 20  1  0
  3 21  1  1
  4 22  1  0
  5 23  1  0
  6 24  1  0
 11 25  1  0
 12 26  1  0
 15 27  1  0
M  ISO  8  18  13  19  13  20  13  21  13  22  14  23  14  24  14  25  14
M  ISO  2  26  14  27   9
M  END
>  <minimizedAffinity>  (1) 
-4.68364

>  <minimizedRMSD>  (1) 
0.9858284

$$$$
