
     RDKit          3D

 24 26  0  0  1  0  0  0  0  0999 V2000
   38.3980   25.7880   35.1730 C   0  0  2  0  0  0  0  0  0  0  0  0
   39.2520   27.0430   35.2720 C   0  0  0  0  0  0  0  0  0  0  0  0
   37.7570   27.1000   35.3880 C   0  0  1  0  0  0  0  0  0  0  0  0
   39.5860   22.9670   37.2230 C   0  0  0  0  0  0  0  0  0  0  0  0
   38.8710   23.1390   38.4330 C   0  0  0  0  0  0  0  0  0  0  0  0
   37.9830   24.2310   38.5200 C   0  0  0  0  0  0  0  0  0  0  0  0
   37.8650   25.0550   37.4360 N   0  0  0  0  0  0  0  0  0  0  0  0
   38.5830   24.8390   36.2890 C   0  0  0  0  0  0  0  0  0  0  0  0
   39.4300   23.8070   36.1910 N   0  0  0  0  0  0  0  0  0  0  0  0
   36.9190   27.6920   34.3360 C   0  0  0  0  0  0  0  0  0  0  0  0
   36.1180   28.7980   34.4550 C   0  0  0  0  0  0  0  0  0  0  0  0
   35.5250   28.9820   33.2260 C   0  0  0  0  0  0  0  0  0  0  0  0
   36.0010   27.9620   32.4010 C   0  0  0  0  0  0  0  0  0  0  0  0
   36.8220   27.2210   33.0930 O   0  0  0  0  0  0  0  0  0  0  0  0
   38.2085   24.9835   34.4471 H   0  0  0  0  0  0  0  0  0  0  0  0
   39.8834   27.2153   36.1561 H   0  0  0  0  0  0  0  0  0  0  0  0
   40.0113   27.5296   34.6422 H   0  0  0  0  0  0  0  0  0  0  0  0
   37.0698   27.5186   36.1380 H   0  0  0  0  0  0  0  0  0  0  0  0
   40.2860   22.1238   37.1281 H   0  0  0  0  0  0  0  0  0  0  0  0
   39.0036   22.4448   39.2759 H   0  0  0  0  0  0  0  0  0  0  0  0
   37.4012   24.4146   39.4353 H   0  0  0  0  0  0  0  0  0  0  0  0
   35.9769   29.4160   35.3540 H   0  0  0  0  0  0  0  0  0  0  0  0
   34.8160   29.7762   32.9491 H   0  0  0  0  0  0  0  0  0  0  0  0
   35.7299   27.8088   31.3460 H   0  0  0  0  0  0  0  0  0  0  0  0
  1  2  1  0
  1  3  1  0
  1  8  1  0
  2  3  1  0
  4  5  2  0
  5  6  1  0
  7  6  2  0
  8  7  1  0
  9  8  2  0
  9  4  1  0
 10 11  2  0
 10  3  1  0
 12 11  1  0
 13 14  1  0
 13 12  2  0
 14 10  1  0
  1 15  1  6
  2 16  1  0
  2 17  1  0
  3 18  1  1
  4 19  1  0
  5 20  1  0
  6 21  1  0
 11 22  1  0
 12 23  1  0
 13 24  1  0
M  ISO  8  15  13  16  13  17  13  18  13  19  14  20  14  21  14  22  14
M  ISO  2  23  14  24  14
M  END
>  <minimizedAffinity>  (1) 
-4.52227592

>  <minimizedRMSD>  (1) 
0.784134448

$$$$
