
     RDKit          3D

 17 18  0  0  0  0  0  0  0  0999 V2000
   39.4720   22.9840   37.1200 C   0  0  0  0  0  0  0  0  0  0  0  0
   38.8460   23.1230   38.3680 C   0  0  0  0  0  0  0  0  0  0  0  0
   38.0290   24.2580   38.5550 C   0  0  0  0  0  0  0  0  0  0  0  0
   37.8990   25.1400   37.5300 N   0  0  0  0  0  0  0  0  0  0  0  0
   38.5240   24.9660   36.3340 C   0  0  0  0  0  0  0  0  0  0  0  0
   39.3080   23.8810   36.1450 N   0  0  0  0  0  0  0  0  0  0  0  0
   38.3190   25.9810   35.2760 C   0  0  0  0  0  0  0  0  0  0  0  0
   39.4400   26.9850   35.1560 C   0  0  0  0  0  0  0  0  0  0  0  0
   38.0930   27.4120   35.6420 C   0  0  0  0  0  0  0  0  0  0  0  0
   40.1164   22.1109   36.9398 H   0  0  0  0  0  0  0  0  0  0  0  0
   38.9861   22.3792   39.1662 H   0  0  0  0  0  0  0  0  0  0  0  0
   37.5088   24.4250   39.5097 H   0  0  0  0  0  0  0  0  0  0  0  0
   37.7760   25.2837   34.6211 H   0  0  0  0  0  0  0  0  0  0  0  0
   40.2905   26.9471   35.8526 H   0  0  0  0  0  0  0  0  0  0  0  0
   40.1162   27.3063   34.3500 H   0  0  0  0  0  0  0  0  0  0  0  0
   37.4569   28.0463   35.0071 H   0  0  0  0  0  0  0  0  0  0  0  0
   37.7227   27.9325   36.5375 H   0  0  0  0  0  0  0  0  0  0  0  0
  1  2  2  0
  2  3  1  0
  4  3  2  0
  5  4  1  0
  6  5  2  0
  6  1  1  0
  7  9  1  0
  7  5  1  0
  8  7  1  0
  8  9  1  0
  1 10  1  0
  2 11  1  0
  3 12  1  0
  7 13  1  0
  8 14  1  0
  8 15  1  0
  9 16  1  0
  9 17  1  0
M  ISO  8  10  14  11  14  12  14  13  13  14  13  15  13  16  13  17  13
M  END
>  <minimizedAffinity>  (1) 
-3.38368511

>  <minimizedRMSD>  (1) 
3.21877789

$$$$
