
     RDKit          3D

 30 32  0  0  1  0  0  0  0  0999 V2000
   38.2760   25.9200   35.2080 C   0  0  2  0  0  0  0  0  0  0  0  0
   39.3680   26.9810   35.0960 C   0  0  0  0  0  0  0  0  0  0  0  0
   37.9940   27.3140   35.5980 C   0  0  1  0  0  0  0  0  0  0  0  0
   39.7070   22.9990   36.9230 C   0  0  0  0  0  0  0  0  0  0  0  0
   39.0750   23.0160   38.1890 C   0  0  0  0  0  0  0  0  0  0  0  0
   38.1440   24.0510   38.4300 C   0  0  0  0  0  0  0  0  0  0  0  0
   37.9170   24.9580   37.4420 N   0  0  0  0  0  0  0  0  0  0  0  0
   38.5610   24.8910   36.2330 C   0  0  0  0  0  0  0  0  0  0  0  0
   39.4580   23.9010   35.9840 N   0  0  0  0  0  0  0  0  0  0  0  0
   35.2470   29.5200   33.2200 C   0  0  0  0  0  0  0  0  0  0  0  0
   35.5760   29.8910   34.4930 C   0  0  0  0  0  0  0  0  0  0  0  0
   36.4680   29.2090   35.3170 C   0  0  0  0  0  0  0  0  0  0  0  0
   37.0370   28.0690   34.7500 C   0  0  0  0  0  0  0  0  0  0  0  0
   36.7390   27.6500   33.4700 C   0  0  0  0  0  0  0  0  0  0  0  0
   35.8360   28.3710   32.6830 C   0  0  0  0  0  0  0  0  0  0  0  0
   34.1010   30.5380   32.3800 S   0  0  0  0  0  0  0  0  0  0  0  0
   32.7300   29.8780   32.3160 O   0  0  0  0  0  0  0  0  0  0  0  0
   34.5360   30.7550   30.9630 O   0  0  0  0  0  0  0  0  0  0  0  0
   37.7430   25.2171   34.5508 H   0  0  0  0  0  0  0  0  0  0  0  0
   40.2237   26.9713   35.7871 H   0  0  0  0  0  0  0  0  0  0  0  0
   40.0261   27.3527   34.2967 H   0  0  0  0  0  0  0  0  0  0  0  0
   37.6357   27.8242   36.5043 H   0  0  0  0  0  0  0  0  0  0  0  0
   40.4359   22.2035   36.7090 H   0  0  0  0  0  0  0  0  0  0  0  0
   39.2989   22.2563   38.9524 H   0  0  0  0  0  0  0  0  0  0  0  0
   37.6160   24.1216   39.3924 H   0  0  0  0  0  0  0  0  0  0  0  0
   35.1006   30.7966   34.8977 H   0  0  0  0  0  0  0  0  0  0  0  0
   36.7056   29.5441   36.3374 H   0  0  0  0  0  0  0  0  0  0  0  0
   37.2143   26.7438   33.0664 H   0  0  0  0  0  0  0  0  0  0  0  0
   35.5937   28.0411   31.6620 H   0  0  0  0  0  0  0  0  0  0  0  0
   34.0388   31.7206   33.0689 H   0  0  0  0  0  0  0  0  0  0  0  0
  1  3  1  0
  1  8  1  0
  2  1  1  0
  2  3  1  0
  4  5  2  0
  5  6  1  0
  7  6  2  0
  8  7  1  0
  9  8  2  0
  9  4  1  0
 10 11  2  0
 11 12  1  0
 13 12  2  0
 13  3  1  0
 14 13  1  0
 15 10  1  0
 15 14  2  0
 16 10  1  0
 17 16  2  0
 18 16  2  0
  1 19  1  6
  2 20  1  0
  2 21  1  0
  3 22  1  1
  4 23  1  0
  5 24  1  0
  6 25  1  0
 11 26  1  0
 12 27  1  0
 14 28  1  0
 15 29  1  0
 16 30  1  0
M  ISO  8  19  13  20  13  21  13  22  13  23  14  24  14  25  14  26  14
M  ISO  4  27  14  28  14  29  14  30  11
M  END
>  <minimizedAffinity>  (1) 
-4.90313435

>  <minimizedRMSD>  (1) 
0.973580301

$$$$
