
     RDKit          3D

 23 24  0  0  1  0  0  0  0  0999 V2000
   37.6220   24.1520   37.1320 C   0  0  2  0  0  0  0  0  0  0  0  0
   37.9390   24.3910   38.5890 C   0  0  0  0  0  0  0  0  0  0  0  0
   38.4050   23.1610   37.8450 C   0  0  2  0  0  0  0  0  0  0  0  0
   38.8270   27.2990   35.6560 C   0  0  0  0  0  0  0  0  0  0  0  0
   39.3050   26.8950   34.3850 C   0  0  0  0  0  0  0  0  0  0  0  0
   39.1860   25.5250   34.0770 C   0  0  0  0  0  0  0  0  0  0  0  0
   38.6320   24.7020   35.0010 N   0  0  0  0  0  0  0  0  0  0  0  0
   38.1870   25.1480   36.2120 C   0  0  0  0  0  0  0  0  0  0  0  0
   38.2910   26.4610   36.5320 N   0  0  0  0  0  0  0  0  0  0  0  0
   39.8560   22.9770   37.9520 C   0  0  0  0  0  0  0  0  0  0  0  0
   40.4250   22.0640   36.8950 C   0  0  0  0  0  0  0  0  0  0  0  0
   36.7395   24.0329   36.4862 H   0  0  0  0  0  0  0  0  0  0  0  0
   38.6577   25.1704   38.8822 H   0  0  0  0  0  0  0  0  0  0  0  0
   37.3617   24.5934   39.5032 H   0  0  0  0  0  0  0  0  0  0  0  0
   38.2926   22.0683   37.7863 H   0  0  0  0  0  0  0  0  0  0  0  0
   38.9046   28.3616   35.9296 H   0  0  0  0  0  0  0  0  0  0  0  0
   39.7454   27.6122   33.6766 H   0  0  0  0  0  0  0  0  0  0  0  0
   39.5342   25.1328   33.1101 H   0  0  0  0  0  0  0  0  0  0  0  0
   40.3397   23.9607   37.8598 H   0  0  0  0  0  0  0  0  0  0  0  0
   40.0520   22.5061   38.9266 H   0  0  0  0  0  0  0  0  0  0  0  0
   40.9478   21.2252   37.3778 H   0  0  0  0  0  0  0  0  0  0  0  0
   39.6089   21.6754   36.2681 H   0  0  0  0  0  0  0  0  0  0  0  0
   41.1334   22.6255   36.2681 H   0  0  0  0  0  0  0  0  0  0  0  0
  1  3  1  0
  1  2  1  0
  3 10  1  0
  3  2  1  0
  4  9  2  0
  5  4  1  0
  6  5  2  0
  6  7  1  0
  7  8  2  0
  8  9  1  0
  8  1  1  0
 11 10  1  0
  1 12  1  1
  2 13  1  0
  2 14  1  0
  3 15  1  1
  4 16  1  0
  5 17  1  0
  6 18  1  0
 10 19  1  0
 10 20  1  0
 11 21  1  0
 11 22  1  0
 11 23  1  0
M  ISO  8  12  13  13  13  14  13  15  13  16  14  17  14  18  14  19   8
M  ISO  4  20   8  21   8  22   8  23   8
M  END
>  <minimizedAffinity>  (1) 
-3.85479712

>  <minimizedRMSD>  (1) 
4.61660147

$$$$
