
     RDKit          3D

 27 29  0  0  1  0  0  0  0  0999 V2000
   38.2140   23.7650   34.7240 C   0  0  2  0  0  0  0  0  0  0  0  0
   39.3460   23.3630   33.8140 C   0  0  0  0  0  0  0  0  0  0  0  0
   38.9170   24.7870   33.9140 C   0  0  2  0  0  0  0  0  0  0  0  0
   39.7700   22.7550   37.9080 C   0  0  0  0  0  0  0  0  0  0  0  0
   38.9340   23.3850   38.8760 C   0  0  0  0  0  0  0  0  0  0  0  0
   37.8380   24.1540   38.3890 C   0  0  0  0  0  0  0  0  0  0  0  0
   37.6730   24.2310   37.0580 N   0  0  0  0  0  0  0  0  0  0  0  0
   38.4890   23.6190   36.1600 C   0  0  0  0  0  0  0  0  0  0  0  0
   39.5390   22.8790   36.5940 N   0  0  0  0  0  0  0  0  0  0  0  0
   39.9370   25.7230   34.4510 C   0  0  0  0  0  0  0  0  0  0  0  0
   39.3220   27.1020   34.6580 C   0  0  0  0  0  0  0  0  0  0  0  0
   38.4970   27.4020   35.8340 C   0  0  0  0  0  0  0  0  0  0  0  0
   37.8300   27.1890   34.4590 C   0  0  0  0  0  0  0  0  0  0  0  0
   37.1494   23.5211   34.8546 H   0  0  0  0  0  0  0  0  0  0  0  0
   39.1412   22.7876   32.8991 H   0  0  0  0  0  0  0  0  0  0  0  0
   40.2953   22.8214   33.9386 H   0  0  0  0  0  0  0  0  0  0  0  0
   38.5267   25.5788   33.2576 H   0  0  0  0  0  0  0  0  0  0  0  0
   40.6253   22.1526   38.2481 H   0  0  0  0  0  0  0  0  0  0  0  0
   39.1272   23.2816   39.9540 H   0  0  0  0  0  0  0  0  0  0  0  0
   37.1511   24.6666   39.0785 H   0  0  0  0  0  0  0  0  0  0  0  0
   40.3099   25.3423   35.4133 H   0  0  0  0  0  0  0  0  0  0  0  0
   40.7673   25.8021   33.7339 H   0  0  0  0  0  0  0  0  0  0  0  0
   40.2115   27.5999   34.2447 H   0  0  0  0  0  0  0  0  0  0  0  0
   38.3752   26.6492   36.6268 H   0  0  0  0  0  0  0  0  0  0  0  0
   38.4821   28.2009   36.5900 H   0  0  0  0  0  0  0  0  0  0  0  0
   37.3892   28.0383   33.9164 H   0  0  0  0  0  0  0  0  0  0  0  0
   37.0455   26.5341   34.0519 H   0  0  0  0  0  0  0  0  0  0  0  0
  1  8  1  0
  2  3  1  0
  2  1  1  0
  3 10  1  0
  3  1  1  0
  4  5  2  0
  6  5  1  0
  7  6  2  0
  8  9  2  0
  8  7  1  0
  9  4  1  0
 10 11  1  0
 11 12  1  0
 13 11  1  0
 13 12  1  0
  1 14  1  6
  2 15  1  0
  2 16  1  0
  3 17  1  6
  4 18  1  0
  5 19  1  0
  6 20  1  0
 10 21  1  0
 10 22  1  0
 11 23  1  0
 12 24  1  0
 12 25  1  0
 13 26  1  0
 13 27  1  0
M  ISO  8  14  13  15  13  16  13  17  13  18  14  19  14  20  14  21   8
M  ISO  6  22   8  23  13  24  13  25  13  26  13  27  13
M  END
>  <minimizedAffinity>  (1) 
-3.95211506

>  <minimizedRMSD>  (1) 
1.61689293

$$$$
