
     RDKit          3D

 27 29  0  0  1  0  0  0  0  0999 V2000
   39.4270   25.5510   34.3610 C   0  0  2  0  0  0  0  0  0  0  0  0
   39.3900   27.0260   34.6640 C   0  0  0  0  0  0  0  0  0  0  0  0
   38.6580   26.4560   33.4750 C   0  0  2  0  0  0  0  0  0  0  0  0
   37.7940   24.3710   37.4310 C   0  0  0  0  0  0  0  0  0  0  0  0
   37.4480   23.0330   37.1340 C   0  0  0  0  0  0  0  0  0  0  0  0
   37.8030   22.5600   35.8380 C   0  0  0  0  0  0  0  0  0  0  0  0
   38.4300   23.3900   34.9940 N   0  0  0  0  0  0  0  0  0  0  0  0
   38.7470   24.6870   35.3280 C   0  0  0  0  0  0  0  0  0  0  0  0
   38.4280   25.1620   36.5360 N   0  0  0  0  0  0  0  0  0  0  0  0
   37.1880   26.6300   33.5300 C   0  0  0  0  0  0  0  0  0  0  0  0
   36.4440   26.0290   32.4470 N   0  0  0  0  0  0  0  0  0  0  0  0
   36.5920   24.7180   32.2820 N   0  0  0  0  0  0  0  0  0  0  0  0
   35.8600   24.2540   31.2670 C   0  0  0  0  0  0  0  0  0  0  0  0
   35.1860   25.3200   30.7270 C   0  0  0  0  0  0  0  0  0  0  0  0
   35.5790   26.3950   31.4900 C   0  0  0  0  0  0  0  0  0  0  0  0
   40.1948   24.7893   34.1602 H   0  0  0  0  0  0  0  0  0  0  0  0
   38.8279   27.3981   35.5332 H   0  0  0  0  0  0  0  0  0  0  0  0
   40.1417   27.8141   34.8182 H   0  0  0  0  0  0  0  0  0  0  0  0
   38.6488   26.5449   32.3786 H   0  0  0  0  0  0  0  0  0  0  0  0
   37.5400   24.7810   38.4196 H   0  0  0  0  0  0  0  0  0  0  0  0
   36.9325   22.3917   37.8641 H   0  0  0  0  0  0  0  0  0  0  0  0
   37.5660   21.5294   35.5351 H   0  0  0  0  0  0  0  0  0  0  0  0
   36.8305   26.1877   34.4716 H   0  0  0  0  0  0  0  0  0  0  0  0
   37.0115   27.7128   33.4498 H   0  0  0  0  0  0  0  0  0  0  0  0
   35.8069   23.2095   30.9262 H   0  0  0  0  0  0  0  0  0  0  0  0
   34.4888   25.3160   29.8761 H   0  0  0  0  0  0  0  0  0  0  0  0
   35.2277   27.4257   31.3345 H   0  0  0  0  0  0  0  0  0  0  0  0
  1  2  1  0
  1  8  1  0
  3 10  1  0
  3  1  1  0
  3  2  1  0
  5  4  2  0
  6  5  1  0
  7  8  1  0
  7  6  2  0
  8  9  2  0
  9  4  1  0
 11 10  1  0
 12 11  1  0
 13 12  2  0
 14 13  1  0
 14 15  2  0
 15 11  1  0
  1 16  1  6
  2 17  1  0
  2 18  1  0
  3 19  1  6
  4 20  1  0
  5 21  1  0
  6 22  1  0
 10 23  1  0
 10 24  1  0
 13 25  1  0
 14 26  1  0
 15 27  1  0
M  ISO  8  16  13  17  13  18  13  19  13  20  14  21  14  22  14  23   8
M  ISO  4  24   8  25  14  26  14  27  14
M  END
>  <minimizedAffinity>  (1) 
-3.9615531

>  <minimizedRMSD>  (1) 
4.59270239

$$$$
