
     RDKit          3D

 21 22  0  0  1  0  0  0  0  0999 V2000
   38.2310   24.1680   34.6520 C   0  0  2  0  0  0  0  0  0  0  0  0
   39.2750   25.0940   34.0290 C   0  0  0  0  0  0  0  0  0  0  0  0
   37.8440   25.5070   34.2190 C   0  0  2  0  0  0  0  0  0  0  0  0
   39.8200   22.8790   37.7170 C   0  0  0  0  0  0  0  0  0  0  0  0
   38.9440   23.3070   38.7570 C   0  0  0  0  0  0  0  0  0  0  0  0
   37.7990   24.0460   38.3460 C   0  0  0  0  0  0  0  0  0  0  0  0
   37.6410   24.2740   37.0360 N   0  0  0  0  0  0  0  0  0  0  0  0
   38.4990   23.8490   36.0720 C   0  0  0  0  0  0  0  0  0  0  0  0
   39.5870   23.1520   36.4120 N   0  0  0  0  0  0  0  0  0  0  0  0
   37.7160   26.6810   35.1520 C   0  0  0  0  0  0  0  0  0  0  0  0
   36.6670   27.9670   34.4260 S   0  0  0  0  0  0  0  0  0  0  0  0
   37.7799   23.1833   34.4598 H   0  0  0  0  0  0  0  0  0  0  0  0
   39.6670   24.8925   33.0212 H   0  0  0  0  0  0  0  0  0  0  0  0
   40.2587   25.4891   34.3226 H   0  0  0  0  0  0  0  0  0  0  0  0
   36.9794   25.8217   33.6162 H   0  0  0  0  0  0  0  0  0  0  0  0
   40.7193   22.3052   37.9853 H   0  0  0  0  0  0  0  0  0  0  0  0
   39.1413   23.0795   39.8150 H   0  0  0  0  0  0  0  0  0  0  0  0
   37.0685   24.4173   39.0798 H   0  0  0  0  0  0  0  0  0  0  0  0
   37.2691   26.3426   36.0985 H   0  0  0  0  0  0  0  0  0  0  0  0
   38.7169   27.1010   35.3302 H   0  0  0  0  0  0  0  0  0  0  0  0
   36.0753   28.6923   35.4263 H   0  0  0  0  0  0  0  0  0  0  0  0
  1  8  1  0
  2  3  1  0
  2  1  1  0
  3  1  1  0
  3 10  1  0
  4  5  2  0
  6  5  1  0
  7  6  2  0
  8  9  2  0
  8  7  1  0
  9  4  1  0
 11 10  1  0
  1 12  1  6
  2 13  1  0
  2 14  1  0
  3 15  1  6
  4 16  1  0
  5 17  1  0
  6 18  1  0
 10 19  1  0
 10 20  1  0
 11 21  1  0
M  ISO  8  12  13  13  13  14  13  15  13  16  14  17  14  18  14  19   8
M  ISO  2  20   8  21  11
M  END
>  <minimizedAffinity>  (1) 
-3.2365849

>  <minimizedRMSD>  (1) 
0.948747158

$$$$
