
     RDKit          3D

 21 22  0  0  1  0  0  0  0  0999 V2000
   38.1750   24.8700   34.7850 C   0  0  2  0  0  0  0  0  0  0  0  0
   39.3640   24.9800   33.8670 C   0  0  0  0  0  0  0  0  0  0  0  0
   38.6920   26.2020   34.3970 C   0  0  2  0  0  0  0  0  0  0  0  0
   39.6410   22.8110   37.4620 C   0  0  0  0  0  0  0  0  0  0  0  0
   38.9430   23.2590   38.6210 C   0  0  0  0  0  0  0  0  0  0  0  0
   37.9680   24.2820   38.4360 C   0  0  0  0  0  0  0  0  0  0  0  0
   37.7800   24.7490   37.1920 N   0  0  0  0  0  0  0  0  0  0  0  0
   38.4640   24.2980   36.1080 C   0  0  0  0  0  0  0  0  0  0  0  0
   39.3990   23.3250   36.2470 N   0  0  0  0  0  0  0  0  0  0  0  0
   39.5350   27.0550   35.2740 C   0  0  0  0  0  0  0  0  0  0  0  0
   38.6920   27.6700   36.2210 O   0  0  0  0  0  0  0  0  0  0  0  0
   37.1673   24.4295   34.7636 H   0  0  0  0  0  0  0  0  0  0  0  0
   39.2675   24.7137   32.8041 H   0  0  0  0  0  0  0  0  0  0  0  0
   40.3924   24.5896   33.8682 H   0  0  0  0  0  0  0  0  0  0  0  0
   38.1725   27.0913   34.0108 H   0  0  0  0  0  0  0  0  0  0  0  0
   40.3996   22.0214   37.5669 H   0  0  0  0  0  0  0  0  0  0  0  0
   39.1478   22.8339   39.6147 H   0  0  0  0  0  0  0  0  0  0  0  0
   37.3890   24.6756   39.2845 H   0  0  0  0  0  0  0  0  0  0  0  0
   40.2852   26.4360   35.7879 H   0  0  0  0  0  0  0  0  0  0  0  0
   40.0603   27.8157   34.6778 H   0  0  0  0  0  0  0  0  0  0  0  0
   39.0013   27.4443   37.1340 H   0  0  0  0  0  0  0  0  0  0  0  0
  1  8  1  0
  2  3  1  0
  2  1  1  0
  3  1  1  0
  3 10  1  0
  4  5  2  0
  6  5  1  0
  7  6  2  0
  8  9  2  0
  8  7  1  0
  9  4  1  0
 10 11  1  0
  1 12  1  6
  2 13  1  0
  2 14  1  0
  3 15  1  6
  4 16  1  0
  5 17  1  0
  6 18  1  0
 10 19  1  0
 10 20  1  0
 11 21  1  0
M  ISO  8  12  13  13  13  14  13  15  13  16  14  17  14  18  14  19   8
M  ISO  2  20   8  21   3
M  END
>  <minimizedAffinity>  (1) 
-3.76900983

>  <minimizedRMSD>  (1) 
0.523772597

$$$$
