
     RDKit          3D

 34 37  0  0  1  0  0  0  0  0999 V2000
   38.5910   27.0190   34.7600 C   0  0  0  0  0  0  0  0  0  0  0  0
   37.4910   27.3260   33.8950 N   0  0  0  0  0  0  0  0  0  0  0  0
   36.9230   26.8320   32.7840 C   0  0  0  0  0  0  0  0  0  0  0  0
   35.8720   27.5760   32.3940 N   0  0  0  0  0  0  0  0  0  0  0  0
   35.7340   28.5880   33.2620 C   0  0  0  0  0  0  0  0  0  0  0  0
   34.8010   29.6010   33.2700 C   0  0  0  0  0  0  0  0  0  0  0  0
   33.9100   29.6490   32.3550 O   0  0  0  0  0  0  0  0  0  0  0  0
   34.8640   30.5150   34.2560 N   0  0  0  0  0  0  0  0  0  0  0  0
   35.8370   30.3810   35.1740 C   0  0  0  0  0  0  0  0  0  0  0  0
   35.8880   31.3570   36.2120 N   0  0  0  0  0  0  0  0  0  0  0  0
   36.7420   29.3870   35.1560 N   0  0  0  0  0  0  0  0  0  0  0  0
   36.7350   28.4280   34.1850 C   0  0  0  0  0  0  0  0  0  0  0  0
   38.5600   25.0430   36.4760 C   0  0  2  0  0  0  0  0  0  0  0  0
   37.1610   25.4310   36.0850 C   0  0  0  0  0  0  0  0  0  0  0  0
   38.2700   26.4440   36.0800 C   0  0  2  0  0  0  0  0  0  0  0  0
   39.1950   22.3650   34.0340 C   0  0  0  0  0  0  0  0  0  0  0  0
   40.5990   22.4300   33.8390 C   0  0  0  0  0  0  0  0  0  0  0  0
   41.3040   23.4260   34.5740 C   0  0  0  0  0  0  0  0  0  0  0  0
   40.5990   24.2340   35.4020 N   0  0  0  0  0  0  0  0  0  0  0  0
   39.2450   24.1230   35.5480 C   0  0  0  0  0  0  0  0  0  0  0  0
   38.5440   23.1850   34.8630 N   0  0  0  0  0  0  0  0  0  0  0  0
   39.1474   27.9522   34.9319 H   0  0  0  0  0  0  0  0  0  0  0  0
   39.1525   26.2313   34.2363 H   0  0  0  0  0  0  0  0  0  0  0  0
   37.2729   25.9315   32.2580 H   0  0  0  0  0  0  0  0  0  0  0  0
   34.1891   31.2915   34.3056 H   0  0  0  0  0  0  0  0  0  0  0  0
   36.6150   31.2979   36.9392 H   0  0  0  0  0  0  0  0  0  0  0  0
   35.1978   32.1212   36.2347 H   0  0  0  0  0  0  0  0  0  0  0  0
   39.0612   24.6049   37.3517 H   0  0  0  0  0  0  0  0  0  0  0  0
   36.7340   25.0749   35.1358 H   0  0  0  0  0  0  0  0  0  0  0  0
   36.1689   25.3592   36.5546 H   0  0  0  0  0  0  0  0  0  0  0  0
   38.5228   27.3982   36.5653 H   0  0  0  0  0  0  0  0  0  0  0  0
   38.6196   21.6087   33.4800 H   0  0  0  0  0  0  0  0  0  0  0  0
   41.1181   21.7442   33.1532 H   0  0  0  0  0  0  0  0  0  0  0  0
   42.3937   23.5363   34.4718 H   0  0  0  0  0  0  0  0  0  0  0  0
  1 15  1  0
  2 12  1  0
  2  1  1  0
  3  2  1  0
  4  3  2  0
  4  5  1  0
  5  6  1  0
  5 12  2  0
  6  8  1  0
  7  6  2  0
  8  9  1  0
  9 10  1  0
 11  9  2  0
 12 11  1  0
 14 13  1  0
 15 14  1  0
 15 13  1  0
 16 21  2  0
 17 16  1  0
 17 18  2  0
 18 19  1  0
 19 20  2  0
 20 13  1  0
 21 20  1  0
  1 22  1  0
  1 23  1  0
  3 24  1  0
  8 25  1  0
 10 26  1  0
 10 27  1  0
 13 28  1  1
 14 29  1  0
 14 30  1  0
 15 31  1  1
 16 32  1  0
 17 33  1  0
 18 34  1  0
M  ISO  8  22   8  23   8  24  14  25   9  28  13  29  13  30  13  31  13
M  ISO  3  32  14  33  14  34  14
M  END
>  <minimizedAffinity>  (1) 
-3.61302757

>  <minimizedRMSD>  (1) 
6.10085583

$$$$
