
     RDKit          3D

 47 48  0  0  0  0  0  0  0  0999 V2000
   38.7320   23.5620   36.8540 C   0  0  0  0  0  0  0  0  0  0  0  0
   41.9790   21.6870   36.8980 C   0  0  0  0  0  0  0  0  0  0  0  0
   40.6710   22.0120   37.1730 C   0  0  0  0  0  0  0  0  0  0  0  0
   40.1050   23.1630   36.6030 C   0  0  0  0  0  0  0  0  0  0  0  0
   40.8780   23.9150   35.7960 N   0  0  0  0  0  0  0  0  0  0  0  0
   42.1640   23.5830   35.5330 C   0  0  0  0  0  0  0  0  0  0  0  0
   42.7060   22.4600   36.0930 N   0  0  0  0  0  0  0  0  0  0  0  0
   42.5530   20.4660   37.5120 C   0  0  0  0  0  0  0  0  0  0  0  0
   43.2030   19.5500   36.5220 C   0  0  0  0  0  0  0  0  0  0  0  0
   38.4860   23.4710   38.3410 C   0  0  0  0  0  0  0  0  0  0  0  0
   38.3790   24.9440   36.3620 C   0  0  0  0  0  0  0  0  0  0  0  0
   37.7960   22.5770   36.1530 C   0  0  0  0  0  0  0  0  0  0  0  0
   37.9200   22.6300   34.7370 N   0  0  0  0  0  0  0  0  0  0  0  0
   38.6270   21.8260   33.8780 C   0  0  0  0  0  0  0  0  0  0  0  0
   38.4510   22.2570   32.6030 N   0  0  0  0  0  0  0  0  0  0  0  0
   37.6410   23.3210   32.6560 C   0  0  0  0  0  0  0  0  0  0  0  0
   37.3290   23.5360   33.9440 N   0  0  0  0  0  0  0  0  0  0  0  0
   37.1760   24.1190   31.4770 C   0  0  0  0  0  0  0  0  0  0  0  0
   35.7980   23.6060   31.0860 C   0  0  0  0  0  0  0  0  0  0  0  0
   38.0780   23.8570   30.2850 C   0  0  0  0  0  0  0  0  0  0  0  0
   37.0440   25.5760   31.7770 C   0  0  0  0  0  0  0  0  0  0  0  0
   37.9850   26.0240   32.7030 O   0  0  0  0  0  0  0  0  0  0  0  0
   40.0710   21.3724   37.8370 H   0  0  0  0  0  0  0  0  0  0  0  0
   42.7717   24.2160   34.8697 H   0  0  0  0  0  0  0  0  0  0  0  0
   43.3072   20.7701   38.2527 H   0  0  0  0  0  0  0  0  0  0  0  0
   41.7204   19.9110   37.9689 H   0  0  0  0  0  0  0  0  0  0  0  0
   43.7590   18.7664   37.0576 H   0  0  0  0  0  0  0  0  0  0  0  0
   42.4313   19.0855   35.8905 H   0  0  0  0  0  0  0  0  0  0  0  0
   43.8962   20.1251   35.8905 H   0  0  0  0  0  0  0  0  0  0  0  0
   39.3842   23.8032   38.8822 H   0  0  0  0  0  0  0  0  0  0  0  0
   37.6357   24.1141   38.6120 H   0  0  0  0  0  0  0  0  0  0  0  0
   38.2589   22.4294   38.6120 H   0  0  0  0  0  0  0  0  0  0  0  0
   38.2095   25.6075   37.2228 H   0  0  0  0  0  0  0  0  0  0  0  0
   39.2053   25.3383   35.7522 H   0  0  0  0  0  0  0  0  0  0  0  0
   37.4649   24.8937   35.7522 H   0  0  0  0  0  0  0  0  0  0  0  0
   38.0365   21.5583   36.4914 H   0  0  0  0  0  0  0  0  0  0  0  0
   36.7628   22.8523   36.4112 H   0  0  0  0  0  0  0  0  0  0  0  0
   39.2420   20.9644   34.1771 H   0  0  0  0  0  0  0  0  0  0  0  0
   35.2161   23.3894   31.9940 H   0  0  0  0  0  0  0  0  0  0  0  0
   35.2774   24.3706   30.4906 H   0  0  0  0  0  0  0  0  0  0  0  0
   35.9041   22.6872   30.4906 H   0  0  0  0  0  0  0  0  0  0  0  0
   39.0782   23.5665   30.6389 H   0  0  0  0  0  0  0  0  0  0  0  0
   37.6543   23.0448   29.6761 H   0  0  0  0  0  0  0  0  0  0  0  0
   38.1553   24.7698   29.6761 H   0  0  0  0  0  0  0  0  0  0  0  0
   37.1744   26.1406   30.8420 H   0  0  0  0  0  0  0  0  0  0  0  0
   36.0472   25.7353   32.2140 H   0  0  0  0  0  0  0  0  0  0  0  0
   37.6480   25.8635   33.6199 H   0  0  0  0  0  0  0  0  0  0  0  0
  1 10  1  0
  2  3  2  0
  2  8  1  0
  4  1  1  0
  4  3  1  0
  5  4  2  0
  6  5  1  0
  6  7  2  0
  7  2  1  0
  9  8  1  0
 11  1  1  0
 12  1  1  0
 13 12  1  0
 14 13  1  0
 15 16  1  0
 15 14  2  0
 16 17  2  0
 17 13  1  0
 18 21  1  0
 18 16  1  0
 19 18  1  0
 20 18  1  0
 21 22  1  0
  3 23  1  0
  6 24  1  0
  8 25  1  0
  8 26  1  0
  9 27  1  0
  9 28  1  0
  9 29  1  0
 10 30  1  0
 10 31  1  0
 10 32  1  0
 11 33  1  0
 11 34  1  0
 11 35  1  0
 12 36  1  0
 12 37  1  0
 14 38  1  0
 19 39  1  0
 19 40  1  0
 19 41  1  0
 20 42  1  0
 20 43  1  0
 20 44  1  0
 21 45  1  0
 21 46  1  0
 22 47  1  0
M  ISO  8  23  14  24  14  25   8  26   8  27   8  28   8  29   8  30   8
M  ISO  8  31   8  32   8  33   8  34   8  35   8  36   8  37   8  38  14
M  ISO  8  39   8  40   8  41   8  42   8  43   8  44   8  45   8  46   8
M  ISO  1  47   3
M  END
>  <minimizedAffinity>  (1) 
-4.39519119

>  <minimizedRMSD>  (1) 
0.40963304

$$$$
