
     RDKit          3D

 36 39  0  0  1  0  0  0  0  0999 V2000
   37.9480   26.3720   34.5820 C   0  0  0  0  0  0  0  0  0  0  0  0
   37.0380   27.2890   33.8650 C   0  0  0  0  0  0  0  0  0  0  0  0
   36.6040   27.2800   32.5560 C   0  0  0  0  0  0  0  0  0  0  0  0
   35.7490   28.2070   32.0190 C   0  0  0  0  0  0  0  0  0  0  0  0
   35.3030   29.2030   32.8460 C   0  0  0  0  0  0  0  0  0  0  0  0
   35.7470   29.1930   34.1420 C   0  0  0  0  0  0  0  0  0  0  0  0
   36.5840   28.2870   34.6740 N   0  0  0  0  0  0  0  0  0  0  0  0
   35.2360   30.2710   34.9510 N   0  0  0  0  0  0  0  0  0  0  0  0
   33.9940   30.7530   35.0980 N   0  0  0  0  0  0  0  0  0  0  0  0
   34.0560   31.7810   35.9860 C   0  0  0  0  0  0  0  0  0  0  0  0
   35.3790   31.9410   36.4030 C   0  0  0  0  0  0  0  0  0  0  0  0
   36.0980   30.9600   35.7210 C   0  0  0  0  0  0  0  0  0  0  0  0
   38.8030   23.8810   34.4220 C   0  0  2  0  0  0  0  0  0  0  0  0
   39.7950   24.8440   33.8760 C   0  0  0  0  0  0  0  0  0  0  0  0
   38.3260   25.1580   33.8350 C   0  0  2  0  0  0  0  0  0  0  0  0
   39.7920   22.9650   37.8350 C   0  0  0  0  0  0  0  0  0  0  0  0
   38.7220   23.4060   38.6470 C   0  0  0  0  0  0  0  0  0  0  0  0
   37.6400   24.0420   37.9490 C   0  0  0  0  0  0  0  0  0  0  0  0
   37.7120   24.1730   36.6080 N   0  0  0  0  0  0  0  0  0  0  0  0
   38.7890   23.7170   35.8870 C   0  0  0  0  0  0  0  0  0  0  0  0
   39.8420   23.1060   36.5090 N   0  0  0  0  0  0  0  0  0  0  0  0
   38.8681   26.9243   34.8235 H   0  0  0  0  0  0  0  0  0  0  0  0
   37.3991   26.0273   35.4708 H   0  0  0  0  0  0  0  0  0  0  0  0
   36.9680   26.4759   31.8996 H   0  0  0  0  0  0  0  0  0  0  0  0
   35.4339   28.1530   30.9665 H   0  0  0  0  0  0  0  0  0  0  0  0
   34.6149   29.9810   32.4838 H   0  0  0  0  0  0  0  0  0  0  0  0
   33.2023   32.3881   36.3215 H   0  0  0  0  0  0  0  0  0  0  0  0
   35.7700   32.6817   37.1162 H   0  0  0  0  0  0  0  0  0  0  0  0
   37.1805   30.7807   35.7988 H   0  0  0  0  0  0  0  0  0  0  0  0
   38.5487   22.8251   34.2475 H   0  0  0  0  0  0  0  0  0  0  0  0
   40.4583   25.3977   34.5568 H   0  0  0  0  0  0  0  0  0  0  0  0
   40.6035   24.7940   33.1318 H   0  0  0  0  0  0  0  0  0  0  0  0
   37.5173   25.3489   33.1142 H   0  0  0  0  0  0  0  0  0  0  0  0
   40.6415   22.4719   38.3302 H   0  0  0  0  0  0  0  0  0  0  0  0
   38.7185   23.2712   39.7387 H   0  0  0  0  0  0  0  0  0  0  0  0
   36.7648   24.4171   38.4998 H   0  0  0  0  0  0  0  0  0  0  0  0
  2  1  1  0
  2  7  1  0
  3  2  2  0
  4  3  1  0
  4  5  2  0
  5  6  1  0
  6  7  2  0
  6  8  1  0
  8  9  1  0
  8 12  1  0
  9 10  2  0
 10 11  1  0
 12 11  2  0
 13 20  1  0
 14 13  1  0
 15 14  1  0
 15 13  1  0
 15  1  1  0
 16 17  2  0
 18 17  1  0
 19 18  2  0
 20 21  2  0
 20 19  1  0
 21 16  1  0
  1 22  1  0
  1 23  1  0
  3 24  1  0
  4 25  1  0
  5 26  1  0
 10 27  1  0
 11 28  1  0
 12 29  1  0
 13 30  1  6
 14 31  1  0
 14 32  1  0
 15 33  1  6
 16 34  1  0
 17 35  1  0
 18 36  1  0
M  ISO  8  22   8  23   8  24  14  25  14  26  14  27  14  28  14  29  14
M  ISO  7  30  13  31  13  32  13  33  13  34  14  35  14  36  14
M  END
>  <minimizedAffinity>  (1) 
-5.5108161

>  <minimizedRMSD>  (1) 
5.46717072

$$$$
