
     RDKit          3D

 43 47  0  0  1  0  0  0  0  0999 V2000
   36.5040   28.0570   33.2330 C   0  0  0  0  0  0  0  0  0  0  0  0
   35.3830   28.8610   33.2370 C   0  0  0  0  0  0  0  0  0  0  0  0
   35.0350   29.7160   32.2230 C   0  0  0  0  0  0  0  0  0  0  0  0
   35.8730   29.7610   31.1360 C   0  0  0  0  0  0  0  0  0  0  0  0
   36.9840   28.9530   31.1490 C   0  0  0  0  0  0  0  0  0  0  0  0
   37.3220   28.1180   32.1440 N   0  0  0  0  0  0  0  0  0  0  0  0
   37.8040   29.0630   29.9760 N   0  0  0  0  0  0  0  0  0  0  0  0
   38.2210   27.9650   29.2810 C   0  0  0  0  0  0  0  0  0  0  0  0
   38.9690   28.3650   28.2360 N   0  0  0  0  0  0  0  0  0  0  0  0
   39.0470   29.7030   28.2380 C   0  0  0  0  0  0  0  0  0  0  0  0
   39.6770   30.5850   27.4050 C   0  0  0  0  0  0  0  0  0  0  0  0
   40.3350   30.1370   26.4190 O   0  0  0  0  0  0  0  0  0  0  0  0
   39.5520   31.8910   27.6970 N   0  0  0  0  0  0  0  0  0  0  0  0
   38.8250   32.2900   28.7800 C   0  0  0  0  0  0  0  0  0  0  0  0
   38.7380   33.6890   29.0240 N   0  0  0  0  0  0  0  0  0  0  0  0
   38.1890   31.4260   29.6240 N   0  0  0  0  0  0  0  0  0  0  0  0
   38.3140   30.1130   29.3300 C   0  0  0  0  0  0  0  0  0  0  0  0
   36.9940   27.0950   34.2390 C   0  0  0  0  0  0  0  0  0  0  0  0
   39.2500   26.1170   35.1940 C   0  0  2  0  0  0  0  0  0  0  0  0
   38.7740   27.2950   35.9660 C   0  0  0  0  0  0  0  0  0  0  0  0
   38.4400   27.1580   34.5100 C   0  0  2  0  0  0  0  0  0  0  0  0
   37.5650   23.4310   37.0260 C   0  0  0  0  0  0  0  0  0  0  0  0
   37.4910   22.3620   36.1030 C   0  0  0  0  0  0  0  0  0  0  0  0
   38.0530   22.6230   34.8090 C   0  0  0  0  0  0  0  0  0  0  0  0
   38.5990   23.8350   34.5670 N   0  0  0  0  0  0  0  0  0  0  0  0
   38.6300   24.8230   35.5210 C   0  0  0  0  0  0  0  0  0  0  0  0
   38.1070   24.6190   36.7690 N   0  0  0  0  0  0  0  0  0  0  0  0
   34.7221   28.8129   34.1150 H   0  0  0  0  0  0  0  0  0  0  0  0
   34.1281   30.3361   32.2777 H   0  0  0  0  0  0  0  0  0  0  0  0
   35.6616   30.4224   30.2828 H   0  0  0  0  0  0  0  0  0  0  0  0
   37.9839   26.9211   29.5341 H   0  0  0  0  0  0  0  0  0  0  0  0
   40.0080   32.5950   27.0992 H   0  0  0  0  0  0  0  0  0  0  0  0
   38.2002   34.0388   29.8298 H   0  0  0  0  0  0  0  0  0  0  0  0
   39.2128   34.3520   28.3948 H   0  0  0  0  0  0  0  0  0  0  0  0
   36.4617   27.2872   35.1822 H   0  0  0  0  0  0  0  0  0  0  0  0
   36.8029   26.0940   33.8248 H   0  0  0  0  0  0  0  0  0  0  0  0
   40.2241   25.6524   34.9812 H   0  0  0  0  0  0  0  0  0  0  0  0
   37.9873   27.1748   36.7254 H   0  0  0  0  0  0  0  0  0  0  0  0
   39.2536   28.0661   36.5868 H   0  0  0  0  0  0  0  0  0  0  0  0
   38.6055   27.6619   33.5463 H   0  0  0  0  0  0  0  0  0  0  0  0
   37.1440   23.2687   38.0292 H   0  0  0  0  0  0  0  0  0  0  0  0
   37.0333   21.3953   36.3600 H   0  0  0  0  0  0  0  0  0  0  0  0
   38.0396   21.8494   34.0271 H   0  0  0  0  0  0  0  0  0  0  0  0
  1  2  2  0
  1 18  1  0
  3  2  1  0
  4  5  1  0
  4  3  2  0
  5  6  2  0
  6  1  1  0
  7  5  1  0
  8  7  1  0
  9 10  1  0
  9  8  2  0
 10 17  2  0
 11 13  1  0
 11 10  1  0
 12 11  2  0
 13 14  1  0
 14 15  1  0
 14 16  2  0
 17 16  1  0
 17  7  1  0
 18 21  1  0
 19 26  1  0
 19 20  1  0
 21 19  1  0
 21 20  1  0
 23 22  2  0
 24 23  1  0
 25 24  2  0
 25 26  1  0
 26 27  2  0
 27 22  1  0
  2 28  1  0
  3 29  1  0
  4 30  1  0
  8 31  1  0
 13 32  1  0
 15 33  1  0
 15 34  1  0
 18 35  1  0
 18 36  1  0
 19 37  1  6
 20 38  1  0
 20 39  1  0
 21 40  1  6
 22 41  1  0
 23 42  1  0
 24 43  1  0
M  ISO  8  28  14  29  14  30  14  31  14  32   9  35   8  36   8  37  13
M  ISO  6  38  13  39  13  40  13  41  14  42  14  43  14
M  END
>  <minimizedAffinity>  (1) 
-5.57142258

>  <minimizedRMSD>  (1) 
3.05402899

$$$$
