
     RDKit          3D

 43 46  0  0  1  0  0  0  0  0999 V2000
   37.3370   26.8500   33.7580 C   0  0  0  0  0  0  0  0  0  0  0  0
   36.9060   27.8550   32.7670 C   0  0  0  0  0  0  0  0  0  0  0  0
   37.4760   28.3070   31.6240 C   0  0  0  0  0  0  0  0  0  0  0  0
   36.9760   29.2520   30.7810 C   0  0  0  0  0  0  0  0  0  0  0  0
   35.7700   29.7930   31.1420 C   0  0  0  0  0  0  0  0  0  0  0  0
   35.1630   29.3450   32.3130 C   0  0  0  0  0  0  0  0  0  0  0  0
   35.7050   28.4110   33.1030 N   0  0  0  0  0  0  0  0  0  0  0  0
   33.9090   29.9530   32.6240 N   0  0  0  0  0  0  0  0  0  0  0  0
   33.1870   30.6990   31.6510 C   0  0  0  0  0  0  0  0  0  0  0  0
   31.8050   31.0070   32.2420 C   0  0  0  0  0  0  0  0  0  0  0  0
   31.1930   29.7810   32.7180 N   0  0  0  0  0  0  0  0  0  0  0  0
   31.8880   29.3800   33.9200 C   0  0  0  0  0  0  0  0  0  0  0  0
   33.3060   29.8450   33.9380 C   0  0  0  0  0  0  0  0  0  0  0  0
   39.3930   26.1320   35.2470 C   0  0  2  0  0  0  0  0  0  0  0  0
   38.7250   27.3570   35.7580 C   0  0  0  0  0  0  0  0  0  0  0  0
   38.6970   27.0320   34.2950 C   0  0  2  0  0  0  0  0  0  0  0  0
   37.5200   23.5610   37.0790 C   0  0  0  0  0  0  0  0  0  0  0  0
   37.6010   22.4090   36.2660 C   0  0  0  0  0  0  0  0  0  0  0  0
   38.3390   22.5700   35.0460 C   0  0  0  0  0  0  0  0  0  0  0  0
   38.8880   23.7730   34.7620 N   0  0  0  0  0  0  0  0  0  0  0  0
   38.7600   24.8480   35.6110 C   0  0  0  0  0  0  0  0  0  0  0  0
   38.0660   24.7400   36.7850 N   0  0  0  0  0  0  0  0  0  0  0  0
   37.2911   25.8606   33.2794 H   0  0  0  0  0  0  0  0  0  0  0  0
   36.6564   26.9596   34.6152 H   0  0  0  0  0  0  0  0  0  0  0  0
   38.4443   27.8640   31.3482 H   0  0  0  0  0  0  0  0  0  0  0  0
   37.5064   29.5614   29.8683 H   0  0  0  0  0  0  0  0  0  0  0  0
   35.2915   30.5643   30.5206 H   0  0  0  0  0  0  0  0  0  0  0  0
   33.0787   30.1089   30.7291 H   0  0  0  0  0  0  0  0  0  0  0  0
   33.7188   31.6290   31.4013 H   0  0  0  0  0  0  0  0  0  0  0  0
   31.9143   31.7107   33.0804 H   0  0  0  0  0  0  0  0  0  0  0  0
   31.1679   31.4546   31.4650 H   0  0  0  0  0  0  0  0  0  0  0  0
   30.1975   29.9439   32.9263 H   0  0  0  0  0  0  0  0  0  0  0  0
   31.3653   29.8058   34.7892 H   0  0  0  0  0  0  0  0  0  0  0  0
   31.8946   28.2805   33.9532 H   0  0  0  0  0  0  0  0  0  0  0  0
   33.8963   29.1314   34.5316 H   0  0  0  0  0  0  0  0  0  0  0  0
   33.3033   30.8564   34.3705 H   0  0  0  0  0  0  0  0  0  0  0  0
   40.4076   25.7089   35.2857 H   0  0  0  0  0  0  0  0  0  0  0  0
   37.8071   27.2744   36.3585 H   0  0  0  0  0  0  0  0  0  0  0  0
   39.0383   28.2235   36.3588 H   0  0  0  0  0  0  0  0  0  0  0  0
   39.0335   27.4290   33.3259 H   0  0  0  0  0  0  0  0  0  0  0  0
   36.9649   23.4786   38.0251 H   0  0  0  0  0  0  0  0  0  0  0  0
   37.1313   21.4552   36.5482 H   0  0  0  0  0  0  0  0  0  0  0  0
   38.4567   21.7258   34.3506 H   0  0  0  0  0  0  0  0  0  0  0  0
  1 16  1  0
  2  7  1  0
  2  1  1  0
  3  2  2  0
  4  5  2  0
  4  3  1  0
  5  6  1  0
  6  8  1  0
  6  7  2  0
  8 13  1  0
  9 10  1  0
  9  8  1  0
 10 11  1  0
 11 12  1  0
 12 13  1  0
 14 21  1  0
 14 15  1  0
 16 14  1  0
 16 15  1  0
 18 17  2  0
 19 18  1  0
 20 19  2  0
 20 21  1  0
 21 22  2  0
 22 17  1  0
  1 23  1  0
  1 24  1  0
  3 25  1  0
  4 26  1  0
  5 27  1  0
  9 28  1  0
  9 29  1  0
 10 30  1  0
 10 31  1  0
 11 32  1  0
 12 33  1  0
 12 34  1  0
 13 35  1  0
 13 36  1  0
 14 37  1  6
 15 38  1  0
 15 39  1  0
 16 40  1  6
 17 41  1  0
 18 42  1  0
 19 43  1  0
M  ISO  8  23   8  24   8  25  14  26  14  27  14  28  13  29  13  30  13
M  ISO  8  31  13  32   5  33  13  34  13  35  13  36  13  37  13  38  13
M  ISO  5  39  13  40  13  41  14  42  14  43  14
M  END
>  <minimizedAffinity>  (1) 
-5.64079571

>  <minimizedRMSD>  (1) 
4.9961319

$$$$
