
     RDKit          3D

 42 45  0  0  1  0  0  0  0  0999 V2000
   37.7870   25.6960   34.3560 C   0  0  0  0  0  0  0  0  0  0  0  0
   37.0330   26.6370   33.4920 C   0  0  0  0  0  0  0  0  0  0  0  0
   36.6650   26.5230   32.1670 C   0  0  0  0  0  0  0  0  0  0  0  0
   35.9520   27.4790   31.4800 C   0  0  0  0  0  0  0  0  0  0  0  0
   35.5960   28.6170   32.1920 C   0  0  0  0  0  0  0  0  0  0  0  0
   35.9770   28.6990   33.5040 C   0  0  0  0  0  0  0  0  0  0  0  0
   36.6700   27.7640   34.1610 N   0  0  0  0  0  0  0  0  0  0  0  0
   34.7450   32.2430   35.5550 C   0  0  0  0  0  0  0  0  0  0  0  0
   34.1150   31.8220   34.4040 C   0  0  0  0  0  0  0  0  0  0  0  0
   34.5540   30.6580   33.7690 C   0  0  0  0  0  0  0  0  0  0  0  0
   35.6000   29.8980   34.2460 C   0  0  0  0  0  0  0  0  0  0  0  0
   36.1930   30.3590   35.3950 C   0  0  0  0  0  0  0  0  0  0  0  0
   35.7950   31.5030   36.0560 C   0  0  0  0  0  0  0  0  0  0  0  0
   34.2200   33.6990   36.3780 S   0  0  0  0  0  0  0  0  0  0  0  0
   35.3480   34.6740   36.5730 O   0  0  0  0  0  0  0  0  0  0  0  0
   33.7000   33.2760   37.7310 O   0  0  0  0  0  0  0  0  0  0  0  0
   38.3170   23.1260   34.5960 C   0  0  2  0  0  0  0  0  0  0  0  0
   39.3140   23.8130   33.7320 C   0  0  0  0  0  0  0  0  0  0  0  0
   37.9080   24.3280   33.8260 C   0  0  2  0  0  0  0  0  0  0  0  0
   39.8500   22.9510   37.9220 C   0  0  0  0  0  0  0  0  0  0  0  0
   38.8580   23.4500   38.7950 C   0  0  0  0  0  0  0  0  0  0  0  0
   37.6300   23.8560   38.1740 C   0  0  0  0  0  0  0  0  0  0  0  0
   37.5120   23.7350   36.8330 N   0  0  0  0  0  0  0  0  0  0  0  0
   38.5260   23.2390   36.0510 C   0  0  0  0  0  0  0  0  0  0  0  0
   39.7130   22.8400   36.6000 N   0  0  0  0  0  0  0  0  0  0  0  0
   38.8009   26.0988   34.4963 H   0  0  0  0  0  0  0  0  0  0  0  0
   37.2170   25.6140   35.2932 H   0  0  0  0  0  0  0  0  0  0  0  0
   36.9598   25.6115   31.6263 H   0  0  0  0  0  0  0  0  0  0  0  0
   35.6785   27.3486   30.4226 H   0  0  0  0  0  0  0  0  0  0  0  0
   35.0251   29.4279   31.7159 H   0  0  0  0  0  0  0  0  0  0  0  0
   33.2742   32.3973   33.9892 H   0  0  0  0  0  0  0  0  0  0  0  0
   34.0436   30.3344   32.8499 H   0  0  0  0  0  0  0  0  0  0  0  0
   37.0328   29.7840   35.8123 H   0  0  0  0  0  0  0  0  0  0  0  0
   36.3106   31.8216   36.9740 H   0  0  0  0  0  0  0  0  0  0  0  0
   33.2636   34.3260   35.6237 H   0  0  0  0  0  0  0  0  0  0  0  0
   37.9114   22.1071   34.6810 H   0  0  0  0  0  0  0  0  0  0  0  0
   39.6645   23.3333   32.8062 H   0  0  0  0  0  0  0  0  0  0  0  0
   40.3145   24.2436   33.8858 H   0  0  0  0  0  0  0  0  0  0  0  0
   37.0273   24.5021   33.1903 H   0  0  0  0  0  0  0  0  0  0  0  0
   40.8047   22.6307   38.3646 H   0  0  0  0  0  0  0  0  0  0  0  0
   39.0168   23.5226   39.8811 H   0  0  0  0  0  0  0  0  0  0  0  0
   36.8019   24.2573   38.7766 H   0  0  0  0  0  0  0  0  0  0  0  0
  2  7  1  0
  2  1  1  0
  3  2  2  0
  4  3  1  0
  4  5  2  0
  5  6  1  0
  6  7  2  0
  6 11  1  0
  8 13  2  0
  8 14  1  0
  9  8  1  0
 10 11  1  0
 10  9  2  0
 11 12  2  0
 12 13  1  0
 14 15  2  0
 14 16  2  0
 17 24  1  0
 18 19  1  0
 18 17  1  0
 19  1  1  0
 19 17  1  0
 20 21  2  0
 22 21  1  0
 23 22  2  0
 24 25  2  0
 24 23  1  0
 25 20  1  0
  1 26  1  0
  1 27  1  0
  3 28  1  0
  4 29  1  0
  5 30  1  0
  9 31  1  0
 10 32  1  0
 12 33  1  0
 13 34  1  0
 14 35  1  0
 17 36  1  6
 18 37  1  0
 18 38  1  0
 19 39  1  6
 20 40  1  0
 21 41  1  0
 22 42  1  0
M  ISO  8  26   8  27   8  28  14  29  14  30  14  31  14  32  14  33  14
M  ISO  8  34  14  35  11  36  13  37  13  38  13  39  13  40  14  41  14
M  ISO  1  42  14
M  END
>  <minimizedAffinity>  (1) 
-5.64779043

>  <minimizedRMSD>  (1) 
6.89257812

$$$$
