
     RDKit          3D

 42 46  0  0  1  0  0  0  0  0999 V2000
   36.1850   28.2900   33.8370 C   0  0  0  0  0  0  0  0  0  0  0  0
   35.1540   29.1440   34.0590 C   0  0  0  0  0  0  0  0  0  0  0  0
   34.6690   30.0720   33.1800 C   0  0  0  0  0  0  0  0  0  0  0  0
   35.2950   30.1310   31.9640 C   0  0  0  0  0  0  0  0  0  0  0  0
   36.3540   29.2650   31.7160 C   0  0  0  0  0  0  0  0  0  0  0  0
   36.7910   28.3730   32.6140 N   0  0  0  0  0  0  0  0  0  0  0  0
   36.9470   29.3970   30.4240 N   0  0  0  0  0  0  0  0  0  0  0  0
   37.0370   28.3780   29.5500 C   0  0  0  0  0  0  0  0  0  0  0  0
   37.6480   28.7890   28.4000 N   0  0  0  0  0  0  0  0  0  0  0  0
   37.9480   30.1110   28.5670 C   0  0  0  0  0  0  0  0  0  0  0  0
   38.5710   31.0420   27.7280 C   0  0  0  0  0  0  0  0  0  0  0  0
   38.7140   32.3050   28.2220 N   0  0  0  0  0  0  0  0  0  0  0  0
   38.2790   32.6330   29.4460 C   0  0  0  0  0  0  0  0  0  0  0  0
   37.6790   31.7010   30.2320 N   0  0  0  0  0  0  0  0  0  0  0  0
   37.4980   30.4420   29.8290 C   0  0  0  0  0  0  0  0  0  0  0  0
   36.8040   27.2530   34.6810 C   0  0  0  0  0  0  0  0  0  0  0  0
   39.1700   26.2440   35.2690 C   0  0  2  0  0  0  0  0  0  0  0  0
   38.7470   27.2920   36.2350 C   0  0  0  0  0  0  0  0  0  0  0  0
   38.2680   27.3320   34.8150 C   0  0  2  0  0  0  0  0  0  0  0  0
   37.6580   23.3100   36.8730 C   0  0  0  0  0  0  0  0  0  0  0  0
   37.5920   22.3400   35.8470 C   0  0  0  0  0  0  0  0  0  0  0  0
   38.0960   22.7550   34.5680 C   0  0  0  0  0  0  0  0  0  0  0  0
   38.5840   24.0070   34.4360 N   0  0  0  0  0  0  0  0  0  0  0  0
   38.6110   24.8940   35.4890 C   0  0  0  0  0  0  0  0  0  0  0  0
   38.1430   24.5440   36.7270 N   0  0  0  0  0  0  0  0  0  0  0  0
   38.9800   30.5690   26.4680 N   0  0  0  0  0  0  0  0  0  0  0  0
   34.6611   29.0838   35.0406 H   0  0  0  0  0  0  0  0  0  0  0  0
   33.8264   30.7317   33.4346 H   0  0  0  0  0  0  0  0  0  0  0  0
   34.9667   30.8493   31.1983 H   0  0  0  0  0  0  0  0  0  0  0  0
   36.6701   27.3577   29.7356 H   0  0  0  0  0  0  0  0  0  0  0  0
   38.4081   33.6608   29.8161 H   0  0  0  0  0  0  0  0  0  0  0  0
   36.3674   27.3308   35.6876 H   0  0  0  0  0  0  0  0  0  0  0  0
   36.5990   26.2954   34.1800 H   0  0  0  0  0  0  0  0  0  0  0  0
   40.1272   25.8491   34.8977 H   0  0  0  0  0  0  0  0  0  0  0  0
   38.0466   27.0435   37.0460 H   0  0  0  0  0  0  0  0  0  0  0  0
   39.2685   27.9939   36.9024 H   0  0  0  0  0  0  0  0  0  0  0  0
   38.3201   27.9620   33.9148 H   0  0  0  0  0  0  0  0  0  0  0  0
   37.2811   23.0259   37.8666 H   0  0  0  0  0  0  0  0  0  0  0  0
   37.1817   21.3337   36.0171 H   0  0  0  0  0  0  0  0  0  0  0  0
   38.0847   22.0653   33.7112 H   0  0  0  0  0  0  0  0  0  0  0  0
   38.8149   29.5860   26.2085 H   0  0  0  0  0  0  0  0  0  0  0  0
   39.4446   31.2057   25.8049 H   0  0  0  0  0  0  0  0  0  0  0  0
  1  2  2  0
  1 16  1  0
  3  2  1  0
  4  3  2  0
  5  4  1  0
  5  6  2  0
  6  1  1  0
  7  5  1  0
  8  7  1  0
  9 10  1  0
  9  8  2  0
 10 15  2  0
 11 12  2  0
 11 10  1  0
 12 13  1  0
 13 14  2  0
 15 14  1  0
 15  7  1  0
 16 19  1  0
 17 24  1  0
 17 18  1  0
 19 17  1  0
 19 18  1  0
 21 20  2  0
 22 21  1  0
 23 22  2  0
 23 24  1  0
 24 25  2  0
 25 20  1  0
 26 11  1  0
  2 27  1  0
  3 28  1  0
  4 29  1  0
  8 30  1  0
 13 31  1  0
 16 32  1  0
 16 33  1  0
 17 34  1  6
 18 35  1  0
 18 36  1  0
 19 37  1  6
 20 38  1  0
 21 39  1  0
 22 40  1  0
 26 41  1  0
 26 42  1  0
M  ISO  8  27  14  28  14  29  14  30  14  31  14  32   8  33   8  34  13
M  ISO  6  35  13  36  13  37  13  38  14  39  14  40  14
M  END
>  <minimizedAffinity>  (1) 
-5.8243022

>  <minimizedRMSD>  (1) 
3.1131711

$$$$
