
     RDKit          3D

 47 48  0  0  0  0  0  0  0  0999 V2000
   38.6850   23.6040   36.8500 C   0  0  0  0  0  0  0  0  0  0  0  0
   41.9270   21.7240   36.8900 C   0  0  0  0  0  0  0  0  0  0  0  0
   40.6220   22.0630   37.1700 C   0  0  0  0  0  0  0  0  0  0  0  0
   40.0520   23.2070   36.5870 C   0  0  0  0  0  0  0  0  0  0  0  0
   40.8210   23.9430   35.7590 N   0  0  0  0  0  0  0  0  0  0  0  0
   42.1040   23.6010   35.4890 C   0  0  0  0  0  0  0  0  0  0  0  0
   42.6490   22.4880   36.0610 N   0  0  0  0  0  0  0  0  0  0  0  0
   42.5060   20.5140   37.5160 C   0  0  0  0  0  0  0  0  0  0  0  0
   43.2110   19.6280   36.5550 C   0  0  0  0  0  0  0  0  0  0  0  0
   38.4290   23.4550   38.3370 C   0  0  0  0  0  0  0  0  0  0  0  0
   38.3580   25.0150   36.4130 C   0  0  0  0  0  0  0  0  0  0  0  0
   37.7420   22.6710   36.1010 C   0  0  0  0  0  0  0  0  0  0  0  0
   37.9400   22.7010   34.6990 N   0  0  0  0  0  0  0  0  0  0  0  0
   38.5550   21.8030   33.8820 C   0  0  0  0  0  0  0  0  0  0  0  0
   38.5040   22.2560   32.5970 N   0  0  0  0  0  0  0  0  0  0  0  0
   37.8630   23.4290   32.6130 C   0  0  0  0  0  0  0  0  0  0  0  0
   37.5250   23.6930   33.8820 N   0  0  0  0  0  0  0  0  0  0  0  0
   37.5760   24.2880   31.4270 C   0  0  0  0  0  0  0  0  0  0  0  0
   36.0980   24.1830   31.1090 C   0  0  0  0  0  0  0  0  0  0  0  0
   38.3150   23.7490   30.2050 C   0  0  0  0  0  0  0  0  0  0  0  0
   37.9050   25.7380   31.6690 C   0  0  0  0  0  0  0  0  0  0  0  0
   39.6790   25.9980   31.8730 S   0  0  0  0  0  0  0  0  0  0  0  0
   40.0255   21.4376   37.8506 H   0  0  0  0  0  0  0  0  0  0  0  0
   42.7066   24.2206   34.8086 H   0  0  0  0  0  0  0  0  0  0  0  0
   43.2230   20.8307   38.2877 H   0  0  0  0  0  0  0  0  0  0  0  0
   41.6696   19.9354   37.9350 H   0  0  0  0  0  0  0  0  0  0  0  0
   43.8029   18.8841   37.1084 H   0  0  0  0  0  0  0  0  0  0  0  0
   42.4733   19.1126   35.9224 H   0  0  0  0  0  0  0  0  0  0  0  0
   43.8789   20.2310   35.9224 H   0  0  0  0  0  0  0  0  0  0  0  0
   39.2461   23.9306   38.8992 H   0  0  0  0  0  0  0  0  0  0  0  0
   37.4758   23.9394   38.5953 H   0  0  0  0  0  0  0  0  0  0  0  0
   38.3794   22.3869   38.5953 H   0  0  0  0  0  0  0  0  0  0  0  0
   38.2111   25.6488   37.3000 H   0  0  0  0  0  0  0  0  0  0  0  0
   39.1875   25.4138   35.8106 H   0  0  0  0  0  0  0  0  0  0  0  0
   37.4376   25.0083   35.8106 H   0  0  0  0  0  0  0  0  0  0  0  0
   37.9074   21.6436   36.4575 H   0  0  0  0  0  0  0  0  0  0  0  0
   36.7144   23.0105   36.2979 H   0  0  0  0  0  0  0  0  0  0  0  0
   39.0198   20.8605   34.2070 H   0  0  0  0  0  0  0  0  0  0  0  0
   35.5233   24.1422   32.0461 H   0  0  0  0  0  0  0  0  0  0  0  0
   35.7853   25.0612   30.5251 H   0  0  0  0  0  0  0  0  0  0  0  0
   35.9126   23.2694   30.5251 H   0  0  0  0  0  0  0  0  0  0  0  0
   39.1633   23.1303   30.5329 H   0  0  0  0  0  0  0  0  0  0  0  0
   37.6279   23.1385   29.6007 H   0  0  0  0  0  0  0  0  0  0  0  0
   38.6864   24.5898   29.6007 H   0  0  0  0  0  0  0  0  0  0  0  0
   37.5547   26.3305   30.8110 H   0  0  0  0  0  0  0  0  0  0  0  0
   37.4046   26.0517   32.5970 H   0  0  0  0  0  0  0  0  0  0  0  0
   39.9835   26.0426   33.2080 H   0  0  0  0  0  0  0  0  0  0  0  0
  1 10  1  0
  2  3  2  0
  2  8  1  0
  4  1  1  0
  4  3  1  0
  5  4  2  0
  6  5  1  0
  6  7  2  0
  7  2  1  0
  9  8  1  0
 11  1  1  0
 12  1  1  0
 13 12  1  0
 14 13  1  0
 15 16  1  0
 15 14  2  0
 16 17  2  0
 17 13  1  0
 18 21  1  0
 18 16  1  0
 19 18  1  0
 20 18  1  0
 21 22  1  0
  3 23  1  0
  6 24  1  0
  8 25  1  0
  8 26  1  0
  9 27  1  0
  9 28  1  0
  9 29  1  0
 10 30  1  0
 10 31  1  0
 10 32  1  0
 11 33  1  0
 11 34  1  0
 11 35  1  0
 12 36  1  0
 12 37  1  0
 14 38  1  0
 19 39  1  0
 19 40  1  0
 19 41  1  0
 20 42  1  0
 20 43  1  0
 20 44  1  0
 21 45  1  0
 21 46  1  0
 22 47  1  0
M  ISO  8  23  14  24  14  25   8  26   8  27   8  28   8  29   8  30   8
M  ISO  8  31   8  32   8  33   8  34   8  35   8  36   8  37   8  38  14
M  ISO  8  39   8  40   8  41   8  42   8  43   8  44   8  45   8  46   8
M  ISO  1  47  11
M  END
>  <minimizedAffinity>  (1) 
-4.38013744

>  <minimizedRMSD>  (1) 
0.0643521845

$$$$
