
     RDKit          3D

 36 39  0  0  1  0  0  0  0  0999 V2000
   37.8210   26.0680   34.4720 C   0  0  0  0  0  0  0  0  0  0  0  0
   36.9980   27.0350   33.7130 C   0  0  0  0  0  0  0  0  0  0  0  0
   36.6500   27.0450   32.3780 C   0  0  0  0  0  0  0  0  0  0  0  0
   35.8730   28.0130   31.7870 C   0  0  0  0  0  0  0  0  0  0  0  0
   35.4190   29.0380   32.6080 C   0  0  0  0  0  0  0  0  0  0  0  0
   35.7850   28.9960   33.9310 C   0  0  0  0  0  0  0  0  0  0  0  0
   36.5430   28.0420   34.4830 N   0  0  0  0  0  0  0  0  0  0  0  0
   35.2730   30.0890   34.6960 N   0  0  0  0  0  0  0  0  0  0  0  0
   36.1480   30.6230   35.5980 C   0  0  0  0  0  0  0  0  0  0  0  0
   35.5140   31.6720   36.2670 C   0  0  0  0  0  0  0  0  0  0  0  0
   34.2760   31.7310   35.7390 N   0  0  0  0  0  0  0  0  0  0  0  0
   34.1480   30.7820   34.8060 C   0  0  0  0  0  0  0  0  0  0  0  0
   38.3390   23.4830   34.5480 C   0  0  2  0  0  0  0  0  0  0  0  0
   39.3360   24.2320   33.7430 C   0  0  0  0  0  0  0  0  0  0  0  0
   37.9280   24.7320   33.8580 C   0  0  2  0  0  0  0  0  0  0  0  0
   39.7600   22.9320   37.8790 C   0  0  0  0  0  0  0  0  0  0  0  0
   38.8310   23.5160   38.7690 C   0  0  0  0  0  0  0  0  0  0  0  0
   37.6830   24.1140   38.1530 C   0  0  0  0  0  0  0  0  0  0  0  0
   37.5660   24.0840   36.8090 N   0  0  0  0  0  0  0  0  0  0  0  0
   38.5200   23.4940   36.0080 C   0  0  0  0  0  0  0  0  0  0  0  0
   39.6320   22.9110   36.5510 N   0  0  0  0  0  0  0  0  0  0  0  0
   38.8352   26.4829   34.5679 H   0  0  0  0  0  0  0  0  0  0  0  0
   37.3176   25.9249   35.4395 H   0  0  0  0  0  0  0  0  0  0  0  0
   37.0185   26.2245   31.7448 H   0  0  0  0  0  0  0  0  0  0  0  0
   35.6229   27.9778   30.7164 H   0  0  0  0  0  0  0  0  0  0  0  0
   34.7913   29.8508   32.2139 H   0  0  0  0  0  0  0  0  0  0  0  0
   37.1802   30.2835   35.7691 H   0  0  0  0  0  0  0  0  0  0  0  0
   35.9351   32.3127   37.0558 H   0  0  0  0  0  0  0  0  0  0  0  0
   33.2387   30.6018   34.2138 H   0  0  0  0  0  0  0  0  0  0  0  0
   37.9458   22.4557   34.5591 H   0  0  0  0  0  0  0  0  0  0  0  0
   39.6974   23.8182   32.7901 H   0  0  0  0  0  0  0  0  0  0  0  0
   40.3323   24.6570   33.9350 H   0  0  0  0  0  0  0  0  0  0  0  0
   37.0444   24.9395   33.2366 H   0  0  0  0  0  0  0  0  0  0  0  0
   40.6541   22.4602   38.3125 H   0  0  0  0  0  0  0  0  0  0  0  0
   38.9784   23.5121   39.8591 H   0  0  0  0  0  0  0  0  0  0  0  0
   36.9066   24.5917   38.7686 H   0  0  0  0  0  0  0  0  0  0  0  0
  2  1  1  0
  2  7  1  0
  3  2  2  0
  4  3  1  0
  4  5  2  0
  5  6  1  0
  6  7  2  0
  6  8  1  0
  8 12  1  0
  8  9  1  0
  9 10  2  0
 11 10  1  0
 12 11  2  0
 13 20  1  0
 14 15  1  0
 14 13  1  0
 15  1  1  0
 15 13  1  0
 16 17  2  0
 18 17  1  0
 19 18  2  0
 20 21  2  0
 20 19  1  0
 21 16  1  0
  1 22  1  0
  1 23  1  0
  3 24  1  0
  4 25  1  0
  5 26  1  0
  9 27  1  0
 10 28  1  0
 12 29  1  0
 13 30  1  6
 14 31  1  0
 14 32  1  0
 15 33  1  6
 16 34  1  0
 17 35  1  0
 18 36  1  0
M  ISO  8  22   8  23   8  24  14  25  14  26  14  27  14  28  14  29  14
M  ISO  7  30  13  31  13  32  13  33  13  34  14  35  14  36  14
M  END
>  <minimizedAffinity>  (1) 
-5.31721735

>  <minimizedRMSD>  (1) 
5.37180185

$$$$
