
     RDKit          3D

 35 37  0  0  1  0  0  0  0  0999 V2000
   38.9470   24.2920   33.0240 C   0  0  2  0  0  0  0  0  0  0  0  0
   37.8440   23.5970   32.3060 C   0  0  0  0  0  0  0  0  0  0  0  0
   38.5580   22.9200   33.4370 C   0  0  2  0  0  0  0  0  0  0  0  0
   36.9930   27.0120   34.5270 C   0  0  0  0  0  0  0  0  0  0  0  0
   37.8640   27.5870   35.4800 C   0  0  0  0  0  0  0  0  0  0  0  0
   39.1520   26.9880   35.5780 C   0  0  0  0  0  0  0  0  0  0  0  0
   39.4510   25.9380   34.7780 N   0  0  0  0  0  0  0  0  0  0  0  0
   38.5530   25.4320   33.8750 C   0  0  0  0  0  0  0  0  0  0  0  0
   37.3060   25.9780   33.7470 N   0  0  0  0  0  0  0  0  0  0  0  0
   37.6850   22.5610   34.5660 C   0  0  0  0  0  0  0  0  0  0  0  0
   38.2580   22.7970   35.9050 C   0  0  0  0  0  0  0  0  0  0  0  0
   37.7980   23.4860   36.9810 C   0  0  0  0  0  0  0  0  0  0  0  0
   38.4270   23.6370   38.1790 C   0  0  0  0  0  0  0  0  0  0  0  0
   39.6560   23.0230   38.2950 C   0  0  0  0  0  0  0  0  0  0  0  0
   40.1400   22.3150   37.2020 C   0  0  0  0  0  0  0  0  0  0  0  0
   39.4760   22.2000   36.0460 N   0  0  0  0  0  0  0  0  0  0  0  0
   41.4730   21.6860   37.4210 C   0  0  0  0  0  0  0  0  0  0  0  0
   42.4600   22.5170   36.6010 C   0  0  0  0  0  0  0  0  0  0  0  0
   39.9032   24.7579   32.7437 H   0  0  0  0  0  0  0  0  0  0  0  0
   36.8048   23.9343   32.4335 H   0  0  0  0  0  0  0  0  0  0  0  0
   37.6324   23.3470   31.2559 H   0  0  0  0  0  0  0  0  0  0  0  0
   39.1856   22.0404   33.6433 H   0  0  0  0  0  0  0  0  0  0  0  0
   35.9884   27.4477   34.4220 H   0  0  0  0  0  0  0  0  0  0  0  0
   37.5663   28.4416   36.1053 H   0  0  0  0  0  0  0  0  0  0  0  0
   39.8934   27.3731   36.2936 H   0  0  0  0  0  0  0  0  0  0  0  0
   36.7610   23.1520   34.4826 H   0  0  0  0  0  0  0  0  0  0  0  0
   37.5217   21.4757   34.4916 H   0  0  0  0  0  0  0  0  0  0  0  0
   36.8169   23.9718   36.8737 H   0  0  0  0  0  0  0  0  0  0  0  0
   37.9821   24.2133   39.0035 H   0  0  0  0  0  0  0  0  0  0  0  0
   40.2369   23.0918   39.2266 H   0  0  0  0  0  0  0  0  0  0  0  0
   41.7404   21.7147   38.4876 H   0  0  0  0  0  0  0  0  0  0  0  0
   41.4792   20.6292   37.1159 H   0  0  0  0  0  0  0  0  0  0  0  0
   43.1223   23.0746   37.2796 H   0  0  0  0  0  0  0  0  0  0  0  0
   43.0624   21.8501   35.9667 H   0  0  0  0  0  0  0  0  0  0  0  0
   41.9055   23.2242   35.9667 H   0  0  0  0  0  0  0  0  0  0  0  0
  1  3  1  0
  1  8  1  0
  2  1  1  0
  2  3  1  0
  3 10  1  0
  4  5  2  0
  5  6  1  0
  7  6  2  0
  8  7  1  0
  9  8  2  0
  9  4  1  0
 10 11  1  0
 11 16  1  0
 11 12  2  0
 12 13  1  0
 13 14  2  0
 15 17  1  0
 15 14  1  0
 16 15  2  0
 18 17  1  0
  1 19  1  6
  2 20  1  0
  2 21  1  0
  3 22  1  6
  4 23  1  0
  5 24  1  0
  6 25  1  0
 10 26  1  0
 10 27  1  0
 12 28  1  0
 13 29  1  0
 14 30  1  0
 17 31  1  0
 17 32  1  0
 18 33  1  0
 18 34  1  0
 18 35  1  0
M  ISO  8  19  13  20  13  21  13  22  13  23  14  24  14  25  14  26   8
M  ISO  8  27   8  28  14  29  14  30  14  31   8  32   8  33   8  34   8
M  ISO  1  35   8
M  END
>  <minimizedAffinity>  (1) 
-4.72729111

>  <minimizedRMSD>  (1) 
7.36762953

$$$$
