
     RDKit          3D

 41 43  0  0  1  0  0  0  0  0999 V2000
   39.2780   25.9460   34.9370 C   0  0  2  0  0  0  0  0  0  0  0  0
   39.0770   27.2230   35.6700 C   0  0  0  0  0  0  0  0  0  0  0  0
   38.4510   27.0150   34.3250 C   0  0  2  0  0  0  0  0  0  0  0  0
   37.5630   23.6880   37.2720 C   0  0  0  0  0  0  0  0  0  0  0  0
   37.3710   22.4990   36.5320 C   0  0  0  0  0  0  0  0  0  0  0  0
   37.8600   22.5180   35.1900 C   0  0  0  0  0  0  0  0  0  0  0  0
   38.4560   23.6350   34.7240 N   0  0  0  0  0  0  0  0  0  0  0  0
   38.6070   24.7600   35.5040 C   0  0  0  0  0  0  0  0  0  0  0  0
   38.1550   24.7840   36.7950 N   0  0  0  0  0  0  0  0  0  0  0  0
   36.9820   27.1040   34.3460 C   0  0  0  0  0  0  0  0  0  0  0  0
   36.4300   28.4730   34.2440 C   0  0  0  0  0  0  0  0  0  0  0  0
   35.9560   29.3240   35.1910 C   0  0  0  0  0  0  0  0  0  0  0  0
   35.4600   30.5740   34.9790 C   0  0  0  0  0  0  0  0  0  0  0  0
   35.4440   30.9970   33.6770 C   0  0  0  0  0  0  0  0  0  0  0  0
   35.9260   30.1360   32.6970 C   0  0  0  0  0  0  0  0  0  0  0  0
   36.4050   28.9140   32.9590 N   0  0  0  0  0  0  0  0  0  0  0  0
   35.8700   30.6820   31.3090 C   0  0  0  0  0  0  0  0  0  0  0  0
   36.7310   31.9500   31.2660 C   0  0  0  0  0  0  0  0  0  0  0  0
   34.4650   31.1020   30.9530 C   0  0  0  0  0  0  0  0  0  0  0  0
   36.3980   29.6910   30.3000 C   0  0  0  0  0  0  0  0  0  0  0  0
   40.1417   25.3616   34.5870 H   0  0  0  0  0  0  0  0  0  0  0  0
   38.4486   27.2473   36.5725 H   0  0  0  0  0  0  0  0  0  0  0  0
   39.7400   27.9808   36.1130 H   0  0  0  0  0  0  0  0  0  0  0  0
   38.4686   27.4177   33.3015 H   0  0  0  0  0  0  0  0  0  0  0  0
   37.2001   23.7109   38.3102 H   0  0  0  0  0  0  0  0  0  0  0  0
   36.8766   21.6155   36.9621 H   0  0  0  0  0  0  0  0  0  0  0  0
   37.7520   21.6335   34.5450 H   0  0  0  0  0  0  0  0  0  0  0  0
   36.5939   26.5172   33.5004 H   0  0  0  0  0  0  0  0  0  0  0  0
   36.6681   26.7219   35.3286 H   0  0  0  0  0  0  0  0  0  0  0  0
   35.9748   28.9680   36.2316 H   0  0  0  0  0  0  0  0  0  0  0  0
   35.0948   31.2050   35.8027 H   0  0  0  0  0  0  0  0  0  0  0  0
   35.0595   31.9931   33.4126 H   0  0  0  0  0  0  0  0  0  0  0  0
   36.9532   32.2773   32.2924 H   0  0  0  0  0  0  0  0  0  0  0  0
   37.6718   31.7367   30.7374 H   0  0  0  0  0  0  0  0  0  0  0  0
   36.1857   32.7457   30.7374 H   0  0  0  0  0  0  0  0  0  0  0  0
   33.8892   31.2741   31.8743 H   0  0  0  0  0  0  0  0  0  0  0  0
   34.4981   32.0295   30.3626 H   0  0  0  0  0  0  0  0  0  0  0  0
   33.9836   30.3085   30.3626 H   0  0  0  0  0  0  0  0  0  0  0  0
   36.8522   28.8385   30.8263 H   0  0  0  0  0  0  0  0  0  0  0  0
   35.5706   29.3339   29.6692 H   0  0  0  0  0  0  0  0  0  0  0  0
   37.1559   30.1785   29.6692 H   0  0  0  0  0  0  0  0  0  0  0  0
  1  8  1  0
  1  2  1  0
  3 10  1  0
  3  1  1  0
  3  2  1  0
  5  4  2  0
  6  5  1  0
  7  6  2  0
  7  8  1  0
  8  9  2  0
  9  4  1  0
 11 10  1  0
 11 12  2  0
 13 12  1  0
 14 13  2  0
 15 16  2  0
 15 14  1  0
 16 11  1  0
 17 15  1  0
 18 17  1  0
 19 17  1  0
 20 17  1  0
  1 21  1  6
  2 22  1  0
  2 23  1  0
  3 24  1  6
  4 25  1  0
  5 26  1  0
  6 27  1  0
 10 28  1  0
 10 29  1  0
 12 30  1  0
 13 31  1  0
 14 32  1  0
 18 33  1  0
 18 34  1  0
 18 35  1  0
 19 36  1  0
 19 37  1  0
 19 38  1  0
 20 39  1  0
 20 40  1  0
 20 41  1  0
M  ISO  8  21  13  22  13  23  13  24  13  25  14  26  14  27  14  28   8
M  ISO  8  29   8  30  14  31  14  32  14  33   8  34   8  35   8  36   8
M  ISO  5  37   8  38   8  39   8  40   8  41   8
M  END
>  <minimizedAffinity>  (1) 
-4.54947042

>  <minimizedRMSD>  (1) 
3.80848718

$$$$
