
     RDKit          3D

 32 34  0  0  1  0  0  0  0  0999 V2000
   35.7850   23.4390   31.2520 C   0  0  2  0  0  0  0  0  0  0  0  0
   37.0210   24.0580   30.7050 C   0  0  0  0  0  0  0  0  0  0  0  0
   36.5920   24.3400   32.1120 C   0  0  2  0  0  0  0  0  0  0  0  0
   36.7240   19.8990   31.0300 C   0  0  0  0  0  0  0  0  0  0  0  0
   35.8860   19.2450   31.9620 C   0  0  0  0  0  0  0  0  0  0  0  0
   34.9850   20.0970   32.6720 C   0  0  0  0  0  0  0  0  0  0  0  0
   34.9860   21.4240   32.4180 N   0  0  0  0  0  0  0  0  0  0  0  0
   35.8400   21.9820   31.4900 C   0  0  0  0  0  0  0  0  0  0  0  0
   36.7210   21.2080   30.7850 N   0  0  0  0  0  0  0  0  0  0  0  0
   37.5840   23.9270   33.1190 C   0  0  0  0  0  0  0  0  0  0  0  0
   38.1850   25.0220   33.9040 C   0  0  0  0  0  0  0  0  0  0  0  0
   37.6400   25.9410   34.7400 C   0  0  0  0  0  0  0  0  0  0  0  0
   38.3020   26.9190   35.4170 C   0  0  0  0  0  0  0  0  0  0  0  0
   39.6580   26.9680   35.2250 C   0  0  0  0  0  0  0  0  0  0  0  0
   40.2340   26.0340   34.3720 C   0  0  0  0  0  0  0  0  0  0  0  0
   39.5360   25.0900   33.7280 N   0  0  0  0  0  0  0  0  0  0  0  0
   41.7140   26.1610   34.2230 C   0  0  0  0  0  0  0  0  0  0  0  0
   41.9390   27.5380   34.0800 F   0  0  0  0  0  0  0  0  0  0  0  0
   42.1830   25.5490   33.0870 F   0  0  0  0  0  0  0  0  0  0  0  0
   42.3750   25.7790   35.3730 F   0  0  0  0  0  0  0  0  0  0  0  0
   34.7217   23.4110   30.9715 H   0  0  0  0  0  0  0  0  0  0  0  0
   37.9094   23.4382   30.5136 H   0  0  0  0  0  0  0  0  0  0  0  0
   37.2619   24.6726   29.8251 H   0  0  0  0  0  0  0  0  0  0  0  0
   36.2704   25.1710   32.7570 H   0  0  0  0  0  0  0  0  0  0  0  0
   37.4336   19.2784   30.4632 H   0  0  0  0  0  0  0  0  0  0  0  0
   35.9248   18.1584   32.1286 H   0  0  0  0  0  0  0  0  0  0  0  0
   34.2962   19.6760   33.4192 H   0  0  0  0  0  0  0  0  0  0  0  0
   37.0890   23.2392   33.8203 H   0  0  0  0  0  0  0  0  0  0  0  0
   38.4113   23.4680   32.5578 H   0  0  0  0  0  0  0  0  0  0  0  0
   36.5509   25.8907   34.8858 H   0  0  0  0  0  0  0  0  0  0  0  0
   37.7803   27.6268   36.0779 H   0  0  0  0  0  0  0  0  0  0  0  0
   40.2736   27.7256   35.7320 H   0  0  0  0  0  0  0  0  0  0  0  0
  1  8  1  0
  1  3  1  0
  2  1  1  0
  2  3  1  0
  3 10  1  0
  4  5  2  0
  5  6  1  0
  7  6  2  0
  8  7  1  0
  9  4  1  0
  9  8  2  0
 10 11  1  0
 11 12  2  0
 12 13  1  0
 14 13  2  0
 15 14  1  0
 16 11  1  0
 16 15  2  0
 17 15  1  0
 17 20  1  0
 18 17  1  0
 19 17  1  0
  1 21  1  6
  2 22  1  0
  2 23  1  0
  3 24  1  6
  4 25  1  0
  5 26  1  0
  6 27  1  0
 10 28  1  0
 10 29  1  0
 12 30  1  0
 13 31  1  0
 14 32  1  0
M  ISO  8  21  13  22  13  23  13  24  13  25  14  26  14  27  14  28   8
M  ISO  4  29   8  30  14  31  14  32  14
M  END
>  <minimizedAffinity>  (1) 
-4.64786053

>  <minimizedRMSD>  (1) 
4.77383947

$$$$
