
     RDKit          3D

 38 41  0  0  1  0  0  0  0  0999 V2000
   36.5540   25.5430   31.9250 C   0  0  0  0  0  0  0  0  0  0  0  0
   36.3590   26.9860   31.6830 C   0  0  0  0  0  0  0  0  0  0  0  0
   35.7160   27.9460   32.3960 C   0  0  0  0  0  0  0  0  0  0  0  0
   35.6030   29.2680   32.0610 C   0  0  0  0  0  0  0  0  0  0  0  0
   36.2050   29.6400   30.8890 C   0  0  0  0  0  0  0  0  0  0  0  0
   36.8680   28.6680   30.1500 C   0  0  0  0  0  0  0  0  0  0  0  0
   36.9500   27.3850   30.5200 N   0  0  0  0  0  0  0  0  0  0  0  0
   37.5090   29.1350   28.8760 C   0  0  0  0  0  0  0  0  0  0  0  0
   38.9280   28.6040   28.8360 C   0  0  0  0  0  0  0  0  0  0  0  0
   39.8580   29.7760   28.9960 C   0  0  0  0  0  0  0  0  0  0  0  0
   39.0410   31.0290   28.9830 C   0  0  0  0  0  0  0  0  0  0  0  0
   37.6040   30.6460   28.8630 C   0  0  0  0  0  0  0  0  0  0  0  0
   37.5320   23.3590   30.8130 C   0  0  2  0  0  0  0  0  0  0  0  0
   38.6040   24.2460   31.3400 C   0  0  0  0  0  0  0  0  0  0  0  0
   37.2990   24.8230   30.8780 C   0  0  2  0  0  0  0  0  0  0  0  0
   36.8450   21.4210   33.8490 C   0  0  0  0  0  0  0  0  0  0  0  0
   35.5900   20.8170   33.6120 C   0  0  0  0  0  0  0  0  0  0  0  0
   34.9940   21.1230   32.3430 C   0  0  0  0  0  0  0  0  0  0  0  0
   35.6490   21.9370   31.4900 N   0  0  0  0  0  0  0  0  0  0  0  0
   36.8740   22.4850   31.8040 C   0  0  0  0  0  0  0  0  0  0  0  0
   37.4840   22.2250   33.0020 N   0  0  0  0  0  0  0  0  0  0  0  0
   37.1023   25.4285   32.8717 H   0  0  0  0  0  0  0  0  0  0  0  0
   35.5477   25.0992   31.9413 H   0  0  0  0  0  0  0  0  0  0  0  0
   35.2389   27.6300   33.3354 H   0  0  0  0  0  0  0  0  0  0  0  0
   35.0622   29.9870   32.6939 H   0  0  0  0  0  0  0  0  0  0  0  0
   36.1648   30.6827   30.5410 H   0  0  0  0  0  0  0  0  0  0  0  0
   36.9100   28.7826   28.0234 H   0  0  0  0  0  0  0  0  0  0  0  0
   39.2244   27.5519   28.7123 H   0  0  0  0  0  0  0  0  0  0  0  0
   40.9513   29.7208   29.1040 H   0  0  0  0  0  0  0  0  0  0  0  0
   39.4319   32.0550   29.0503 H   0  0  0  0  0  0  0  0  0  0  0  0
   36.7572   31.3431   28.7793 H   0  0  0  0  0  0  0  0  0  0  0  0
   37.4435   22.6139   30.0087 H   0  0  0  0  0  0  0  0  0  0  0  0
   38.8527   24.2335   32.4115 H   0  0  0  0  0  0  0  0  0  0  0  0
   39.6630   24.4189   31.0980 H   0  0  0  0  0  0  0  0  0  0  0  0
   36.8936   25.5092   30.1199 H   0  0  0  0  0  0  0  0  0  0  0  0
   37.3338   21.2098   34.8115 H   0  0  0  0  0  0  0  0  0  0  0  0
   35.1044   20.1591   34.3477 H   0  0  0  0  0  0  0  0  0  0  0  0
   34.0163   20.6995   32.0696 H   0  0  0  0  0  0  0  0  0  0  0  0
  2  1  1  0
  2  3  2  0
  4  3  1  0
  5  4  2  0
  6  7  2  0
  6  5  1  0
  7  2  1  0
  8  6  1  0
  9  8  1  0
  9 10  2  0
 11 10  1  0
 12  8  1  0
 12 11  2  0
 13 15  1  0
 13 14  1  0
 13 20  1  0
 15 14  1  0
 15  1  1  0
 17 16  2  0
 18 17  1  0
 19 20  1  0
 19 18  2  0
 20 21  2  0
 21 16  1  0
  1 22  1  0
  1 23  1  0
  3 24  1  0
  4 25  1  0
  5 26  1  0
  8 27  1  0
  9 28  1  0
 10 29  1  0
 11 30  1  0
 12 31  1  0
 13 32  1  6
 14 33  1  0
 14 34  1  0
 15 35  1  6
 16 36  1  0
 17 37  1  0
 18 38  1  0
M  ISO  8  22   8  23   8  24  14  25  14  26  14  27  13  28  13  29  13
M  ISO  8  30  13  31  13  32  13  33  13  34  13  35  13  36  14  37  14
M  ISO  1  38  14
M  END
>  <minimizedAffinity>  (1) 
-4.50882244

>  <minimizedRMSD>  (1) 
1.04445243

$$$$
