
     RDKit          3D

 30 33  0  0  0  0  0  0  0  0999 V2000
   38.0730   25.6010   35.2090 C   0  0  0  0  0  0  0  0  0  0  0  0
   37.7890   26.9290   35.5290 C   0  0  0  0  0  0  0  0  0  0  0  0
   37.1680   27.6880   34.6000 C   0  0  0  0  0  0  0  0  0  0  0  0
   36.8420   27.0980   33.3630 C   0  0  0  0  0  0  0  0  0  0  0  0
   37.4610   25.3550   33.5410 S   0  0  0  0  0  0  0  0  0  0  0  0
   38.2120   24.1840   37.2830 C   0  0  0  0  0  0  0  0  0  0  0  0
   38.7200   24.6260   36.0360 C   0  0  0  0  0  0  0  0  0  0  0  0
   39.9050   24.0990   35.5860 C   0  0  0  0  0  0  0  0  0  0  0  0
   40.5240   23.1760   36.3670 N   0  0  0  0  0  0  0  0  0  0  0  0
   40.0240   22.7680   37.5500 C   0  0  0  0  0  0  0  0  0  0  0  0
   38.8730   23.2820   37.9880 N   0  0  0  0  0  0  0  0  0  0  0  0
   36.2180   27.5410   32.1890 C   0  0  0  0  0  0  0  0  0  0  0  0
   35.5110   26.7460   31.5250 O   0  0  0  0  0  0  0  0  0  0  0  0
   37.6220   30.4650   28.7740 N   0  0  0  0  0  0  0  0  0  0  0  0
   37.8390   29.1680   28.4720 C   0  0  0  0  0  0  0  0  0  0  0  0
   37.4200   28.3600   29.4830 N   0  0  0  0  0  0  0  0  0  0  0  0
   36.9200   29.1450   30.4630 C   0  0  0  0  0  0  0  0  0  0  0  0
   36.3600   28.9100   31.7050 C   0  0  0  0  0  0  0  0  0  0  0  0
   35.9390   29.9490   32.4810 N   0  0  0  0  0  0  0  0  0  0  0  0
   36.0780   31.2200   32.0150 C   0  0  0  0  0  0  0  0  0  0  0  0
   36.6210   31.4670   30.8100 N   0  0  0  0  0  0  0  0  0  0  0  0
   37.0550   30.4570   30.0000 C   0  0  0  0  0  0  0  0  0  0  0  0
   38.0629   27.3459   36.5094 H   0  0  0  0  0  0  0  0  0  0  0  0
   36.9229   28.7407   34.8043 H   0  0  0  0  0  0  0  0  0  0  0  0
   37.2650   24.5926   37.6653 H   0  0  0  0  0  0  0  0  0  0  0  0
   40.3387   24.4136   34.6253 H   0  0  0  0  0  0  0  0  0  0  0  0
   40.5601   22.0176   38.1496 H   0  0  0  0  0  0  0  0  0  0  0  0
   37.8420   31.2866   28.1931 H   0  0  0  0  0  0  0  0  0  0  0  0
   38.2931   28.8122   27.5354 H   0  0  0  0  0  0  0  0  0  0  0  0
   35.7394   32.0621   32.6365 H   0  0  0  0  0  0  0  0  0  0  0  0
  1  2  2  0
  1  7  1  0
  3  2  1  0
  4  5  1  0
  4  3  2  0
  5  1  1  0
  6 11  2  0
  7  6  1  0
  8  7  2  0
  8  9  1  0
  9 10  2  0
 10 11  1  0
 12  4  1  0
 13 12  2  0
 14 22  1  0
 15 14  1  0
 15 16  2  0
 16 17  1  0
 17 18  1  0
 18 12  1  0
 18 19  2  0
 20 19  1  0
 21 20  2  0
 22 17  2  0
 22 21  1  0
  2 23  1  0
  3 24  1  0
  6 25  1  0
  8 26  1  0
 10 27  1  0
 14 28  1  0
 15 29  1  0
 20 30  1  0
M  ISO  8  23  14  24  14  25  14  26  14  27  14  28   9  29  14  30  14
M  END
>  <minimizedAffinity>  (1) 
-5.25353813

>  <minimizedRMSD>  (1) 
0.898793042

$$$$
