
     RDKit          3D

 33 36  0  0  0  0  0  0  0  0999 V2000
   38.0120   25.5400   35.2150 C   0  0  0  0  0  0  0  0  0  0  0  0
   37.6510   26.8630   35.4750 C   0  0  0  0  0  0  0  0  0  0  0  0
   37.1080   27.6060   34.4950 C   0  0  0  0  0  0  0  0  0  0  0  0
   36.9360   26.9570   33.2140 C   0  0  0  0  0  0  0  0  0  0  0  0
   37.5870   25.2470   33.4860 S   0  0  0  0  0  0  0  0  0  0  0  0
   38.0660   24.2980   37.3870 C   0  0  0  0  0  0  0  0  0  0  0  0
   38.5930   24.6020   36.1170 C   0  0  0  0  0  0  0  0  0  0  0  0
   39.7320   23.9550   35.7270 C   0  0  0  0  0  0  0  0  0  0  0  0
   40.2920   23.0550   36.5830 N   0  0  0  0  0  0  0  0  0  0  0  0
   39.7680   22.7840   37.7910 C   0  0  0  0  0  0  0  0  0  0  0  0
   38.6650   23.4080   38.1720 N   0  0  0  0  0  0  0  0  0  0  0  0
   36.4330   27.3480   31.9560 C   0  0  0  0  0  0  0  0  0  0  0  0
   35.4580   26.6630   31.4930 O   0  0  0  0  0  0  0  0  0  0  0  0
   36.7450   28.3880   30.9860 C   0  0  0  0  0  0  0  0  0  0  0  0
   37.2980   27.9840   29.8030 N   0  0  0  0  0  0  0  0  0  0  0  0
   37.6240   28.8910   28.8330 C   0  0  0  0  0  0  0  0  0  0  0  0
   37.4160   30.2290   28.9990 N   0  0  0  0  0  0  0  0  0  0  0  0
   36.8740   30.6970   30.1440 C   0  0  0  0  0  0  0  0  0  0  0  0
   36.6690   32.0280   30.3450 C   0  0  0  0  0  0  0  0  0  0  0  0
   36.1400   32.4950   31.5120 C   0  0  0  0  0  0  0  0  0  0  0  0
   35.8170   31.5520   32.4910 C   0  0  0  0  0  0  0  0  0  0  0  0
   36.0430   30.2200   32.2380 C   0  0  0  0  0  0  0  0  0  0  0  0
   36.5750   29.7290   31.0690 C   0  0  0  0  0  0  0  0  0  0  0  0
   37.8096   27.2945   36.4743 H   0  0  0  0  0  0  0  0  0  0  0  0
   36.8103   28.6522   34.6588 H   0  0  0  0  0  0  0  0  0  0  0  0
   37.1509   24.8013   37.7324 H   0  0  0  0  0  0  0  0  0  0  0  0
   40.1858   24.1561   34.7454 H   0  0  0  0  0  0  0  0  0  0  0  0
   40.2506   22.0519   38.4552 H   0  0  0  0  0  0  0  0  0  0  0  0
   38.0665   28.5316   27.8922 H   0  0  0  0  0  0  0  0  0  0  0  0
   36.9353   32.7406   29.5505 H   0  0  0  0  0  0  0  0  0  0  0  0
   35.9744   33.5701   31.6758 H   0  0  0  0  0  0  0  0  0  0  0  0
   35.3873   31.8714   33.4519 H   0  0  0  0  0  0  0  0  0  0  0  0
   35.7803   29.4973   33.0246 H   0  0  0  0  0  0  0  0  0  0  0  0
  1  2  2  0
  1  7  1  0
  3  2  1  0
  4  5  1  0
  4  3  2  0
  5  1  1  0
  6 11  2  0
  7  6  1  0
  8  7  2  0
  8  9  1  0
  9 10  2  0
 10 11  1  0
 12  4  1  0
 13 12  2  0
 14 23  1  0
 14 12  1  0
 15 14  2  0
 16 17  2  0
 16 15  1  0
 17 18  1  0
 18 19  1  0
 18 23  2  0
 19 20  2  0
 20 21  1  0
 22 21  2  0
 23 22  1  0
  2 24  1  0
  3 25  1  0
  6 26  1  0
  8 27  1  0
 10 28  1  0
 16 29  1  0
 19 30  1  0
 20 31  1  0
 21 32  1  0
 22 33  1  0
M  ISO  8  24  14  25  14  26  14  27  14  28  14  29  14  30  14  31  14
M  ISO  2  32  14  33  14
M  END
>  <minimizedAffinity>  (1) 
-5.6524477

>  <minimizedRMSD>  (1) 
0.595891654

$$$$
