
     RDKit          3D

 32 34  0  0  0  0  0  0  0  0999 V2000
   38.0970   25.6280   35.3440 C   0  0  0  0  0  0  0  0  0  0  0  0
   37.8450   26.9720   35.6300 C   0  0  0  0  0  0  0  0  0  0  0  0
   37.3260   27.7550   34.6560 C   0  0  0  0  0  0  0  0  0  0  0  0
   37.0690   27.1550   33.4010 C   0  0  0  0  0  0  0  0  0  0  0  0
   37.6000   25.3830   33.6320 S   0  0  0  0  0  0  0  0  0  0  0  0
   38.0890   24.3500   37.5040 C   0  0  0  0  0  0  0  0  0  0  0  0
   38.6390   24.6400   36.2270 C   0  0  0  0  0  0  0  0  0  0  0  0
   39.7460   23.9530   35.7990 C   0  0  0  0  0  0  0  0  0  0  0  0
   40.2590   23.0130   36.6490 N   0  0  0  0  0  0  0  0  0  0  0  0
   39.7220   22.7480   37.8680 C   0  0  0  0  0  0  0  0  0  0  0  0
   38.6400   23.4230   38.2780 N   0  0  0  0  0  0  0  0  0  0  0  0
   36.5480   27.6350   32.1880 C   0  0  0  0  0  0  0  0  0  0  0  0
   35.3240   27.8030   32.0610 O   0  0  0  0  0  0  0  0  0  0  0  0
   38.9650   28.5810   28.8930 C   0  0  0  0  0  0  0  0  0  0  0  0
   37.6190   28.8130   28.8880 C   0  0  0  0  0  0  0  0  0  0  0  0
   36.8450   28.4940   29.9820 C   0  0  0  0  0  0  0  0  0  0  0  0
   37.4710   27.9290   31.0940 C   0  0  0  0  0  0  0  0  0  0  0  0
   38.8280   27.6820   31.1330 C   0  0  0  0  0  0  0  0  0  0  0  0
   39.5380   28.0280   30.0010 C   0  0  0  0  0  0  0  0  0  0  0  0
   39.9130   29.0060   27.4740 S   0  0  0  0  0  0  0  0  0  0  0  0
   39.3070   30.2070   26.7680 O   0  0  0  0  0  0  0  0  0  0  0  0
   40.0190   27.8510   26.5250 O   0  0  0  0  0  0  0  0  0  0  0  0
   38.0638   27.3850   36.6258 H   0  0  0  0  0  0  0  0  0  0  0  0
   37.1118   28.8192   34.8337 H   0  0  0  0  0  0  0  0  0  0  0  0
   37.2010   24.8969   37.8537 H   0  0  0  0  0  0  0  0  0  0  0  0
   40.2005   24.1493   34.8167 H   0  0  0  0  0  0  0  0  0  0  0  0
   40.1737   21.9823   38.5159 H   0  0  0  0  0  0  0  0  0  0  0  0
   37.1476   29.2597   28.0002 H   0  0  0  0  0  0  0  0  0  0  0  0
   35.7608   28.6799   29.9792 H   0  0  0  0  0  0  0  0  0  0  0  0
   39.3146   27.2363   32.0131 H   0  0  0  0  0  0  0  0  0  0  0  0
   40.6232   27.8484   29.9916 H   0  0  0  0  0  0  0  0  0  0  0  0
   41.1752   29.3289   27.8977 H   0  0  0  0  0  0  0  0  0  0  0  0
  1  2  2  0
  1  7  1  0
  3  2  1  0
  4  5  1  0
  4  3  2  0
  5  1  1  0
  6 11  2  0
  7  6  1  0
  8  7  2  0
  8  9  1  0
  9 10  2  0
 10 11  1  0
 12  4  1  0
 13 12  2  0
 14 19  2  0
 15 14  1  0
 15 16  2  0
 16 17  1  0
 17 18  2  0
 17 12  1  0
 19 18  1  0
 20 14  1  0
 21 20  2  0
 22 20  2  0
  2 23  1  0
  3 24  1  0
  6 25  1  0
  8 26  1  0
 10 27  1  0
 15 28  1  0
 16 29  1  0
 18 30  1  0
 19 31  1  0
 20 32  1  0
M  ISO  8  23  14  24  14  25  14  26  14  27  14  28  14  29  14  30  14
M  ISO  2  31  14  32  11
M  END
>  <minimizedAffinity>  (1) 
-5.1029644

>  <minimizedRMSD>  (1) 
2.05231547

$$$$
