
     RDKit          3D

 29 31  0  0  0  0  0  0  0  0999 V2000
   38.1180   25.6090   35.3380 C   0  0  0  0  0  0  0  0  0  0  0  0
   37.8050   26.9400   35.6160 C   0  0  0  0  0  0  0  0  0  0  0  0
   37.2960   27.7020   34.6160 C   0  0  0  0  0  0  0  0  0  0  0  0
   37.1150   27.0870   33.3390 C   0  0  0  0  0  0  0  0  0  0  0  0
   37.7020   25.3510   33.6040 S   0  0  0  0  0  0  0  0  0  0  0  0
   38.0860   24.3480   37.5010 C   0  0  0  0  0  0  0  0  0  0  0  0
   38.6540   24.6310   36.2240 C   0  0  0  0  0  0  0  0  0  0  0  0
   39.7620   23.9310   35.8280 C   0  0  0  0  0  0  0  0  0  0  0  0
   40.2770   22.9980   36.6640 N   0  0  0  0  0  0  0  0  0  0  0  0
   39.7250   22.7390   37.8830 C   0  0  0  0  0  0  0  0  0  0  0  0
   38.6470   23.4170   38.2720 N   0  0  0  0  0  0  0  0  0  0  0  0
   36.6240   27.5810   32.1390 C   0  0  0  0  0  0  0  0  0  0  0  0
   35.3880   27.7300   31.9990 O   0  0  0  0  0  0  0  0  0  0  0  0
   37.5080   27.9340   31.0330 C   0  0  0  0  0  0  0  0  0  0  0  0
   36.9000   28.5420   29.9580 C   0  0  0  0  0  0  0  0  0  0  0  0
   37.5950   28.9380   28.8370 C   0  0  0  0  0  0  0  0  0  0  0  0
   38.9600   28.7190   28.7790 C   0  0  0  0  0  0  0  0  0  0  0  0
   39.6070   28.1050   29.8540 C   0  0  0  0  0  0  0  0  0  0  0  0
   38.8710   27.7130   30.9790 C   0  0  0  0  0  0  0  0  0  0  0  0
   37.9668   27.3602   36.6196 H   0  0  0  0  0  0  0  0  0  0  0  0
   37.0317   28.7568   34.7823 H   0  0  0  0  0  0  0  0  0  0  0  0
   37.1945   24.8923   37.8459 H   0  0  0  0  0  0  0  0  0  0  0  0
   40.2254   24.1228   34.8490 H   0  0  0  0  0  0  0  0  0  0  0  0
   40.1667   21.9757   38.5405 H   0  0  0  0  0  0  0  0  0  0  0  0
   35.8149   28.7187   29.9959 H   0  0  0  0  0  0  0  0  0  0  0  0
   37.0720   29.4219   27.9990 H   0  0  0  0  0  0  0  0  0  0  0  0
   39.5324   29.0266   27.8914 H   0  0  0  0  0  0  0  0  0  0  0  0
   40.6923   27.9298   29.8169 H   0  0  0  0  0  0  0  0  0  0  0  0
   39.3804   27.2267   31.8240 H   0  0  0  0  0  0  0  0  0  0  0  0
  1  2  2  0
  1  7  1  0
  3  2  1  0
  4  5  1  0
  4  3  2  0
  5  1  1  0
  6 11  2  0
  7  6  1  0
  8  7  2  0
  8  9  1  0
  9 10  2  0
 10 11  1  0
 12  4  1  0
 13 12  2  0
 14 12  1  0
 15 14  2  0
 16 15  1  0
 17 16  2  0
 17 18  1  0
 18 19  2  0
 19 14  1  0
  2 20  1  0
  3 21  1  0
  6 22  1  0
  8 23  1  0
 10 24  1  0
 15 25  1  0
 16 26  1  0
 17 27  1  0
 18 28  1  0
 19 29  1  0
M  ISO  8  20  14  21  14  22  14  23  14  24  14  25  14  26  14  27  14
M  ISO  2  28  14  29  14
M  END
>  <minimizedAffinity>  (1) 
-4.97922754

>  <minimizedRMSD>  (1) 
1.33997273

$$$$
