
     RDKit          3D

 27 29  0  0  0  0  0  0  0  0999 V2000
   37.8800   25.3720   34.8770 C   0  0  0  0  0  0  0  0  0  0  0  0
   37.4990   26.7080   35.0160 C   0  0  0  0  0  0  0  0  0  0  0  0
   36.9500   27.3350   33.9550 C   0  0  0  0  0  0  0  0  0  0  0  0
   36.7900   26.6020   32.7600 C   0  0  0  0  0  0  0  0  0  0  0  0
   37.4660   24.9310   33.1970 S   0  0  0  0  0  0  0  0  0  0  0  0
   37.8970   24.3020   37.1560 C   0  0  0  0  0  0  0  0  0  0  0  0
   38.4760   24.5350   35.8760 C   0  0  0  0  0  0  0  0  0  0  0  0
   39.6760   23.9360   35.5570 C   0  0  0  0  0  0  0  0  0  0  0  0
   40.2520   23.1410   36.4960 N   0  0  0  0  0  0  0  0  0  0  0  0
   39.7000   22.9250   37.7040 C   0  0  0  0  0  0  0  0  0  0  0  0
   38.5480   23.5050   38.0030 N   0  0  0  0  0  0  0  0  0  0  0  0
   36.2850   26.8860   31.4920 C   0  0  0  0  0  0  0  0  0  0  0  0
   35.6250   26.0400   30.8760 O   0  0  0  0  0  0  0  0  0  0  0  0
   36.5090   28.1750   30.8440 C   0  0  0  0  0  0  0  0  0  0  0  0
   35.9020   29.3310   31.3000 C   0  0  0  0  0  0  0  0  0  0  0  0
   36.1080   30.5660   30.6920 C   0  0  0  0  0  0  0  0  0  0  0  0
   36.9350   30.6310   29.6110 N   0  0  0  0  0  0  0  0  0  0  0  0
   37.5150   29.4830   29.1880 C   0  0  0  0  0  0  0  0  0  0  0  0
   37.3310   28.2630   29.7640 N   0  0  0  0  0  0  0  0  0  0  0  0
   37.6432   27.2376   35.9693 H   0  0  0  0  0  0  0  0  0  0  0  0
   36.6362   28.3873   34.0197 H   0  0  0  0  0  0  0  0  0  0  0  0
   36.9403   24.7663   37.4375 H   0  0  0  0  0  0  0  0  0  0  0  0
   40.1500   24.0960   34.5774 H   0  0  0  0  0  0  0  0  0  0  0  0
   40.2006   22.2734   38.4354 H   0  0  0  0  0  0  0  0  0  0  0  0
   35.2342   29.2725   32.1722 H   0  0  0  0  0  0  0  0  0  0  0  0
   35.6136   31.4705   31.0761 H   0  0  0  0  0  0  0  0  0  0  0  0
   38.1831   29.5400   28.3160 H   0  0  0  0  0  0  0  0  0  0  0  0
  1  2  2  0
  1  7  1  0
  3  2  1  0
  4  5  1  0
  4  3  2  0
  5  1  1  0
  6 11  2  0
  7  6  1  0
  8  7  2  0
  8  9  1  0
  9 10  2  0
 10 11  1  0
 12  4  1  0
 13 12  2  0
 14 15  2  0
 14 12  1  0
 16 15  1  0
 17 16  2  0
 18 17  1  0
 18 19  2  0
 19 14  1  0
  2 20  1  0
  3 21  1  0
  6 22  1  0
  8 23  1  0
 10 24  1  0
 15 25  1  0
 16 26  1  0
 18 27  1  0
M  ISO  8  20  14  21  14  22  14  23  14  24  14  25  14  26  14  27  14
M  END
>  <minimizedAffinity>  (1) 
-4.76814175

>  <minimizedRMSD>  (1) 
0.98235333

$$$$
