
     RDKit          3D

 27 29  0  0  0  0  0  0  0  0999 V2000
   37.8570   25.4350   34.8600 C   0  0  0  0  0  0  0  0  0  0  0  0
   37.4550   26.7620   35.0180 C   0  0  0  0  0  0  0  0  0  0  0  0
   36.9150   27.3980   33.9580 C   0  0  0  0  0  0  0  0  0  0  0  0
   36.7860   26.6850   32.7460 C   0  0  0  0  0  0  0  0  0  0  0  0
   37.4790   25.0180   33.1620 S   0  0  0  0  0  0  0  0  0  0  0  0
   37.8700   24.3580   37.1290 C   0  0  0  0  0  0  0  0  0  0  0  0
   38.4480   24.5840   35.8490 C   0  0  0  0  0  0  0  0  0  0  0  0
   39.6310   23.9700   35.5270 C   0  0  0  0  0  0  0  0  0  0  0  0
   40.1740   23.1690   36.4850 N   0  0  0  0  0  0  0  0  0  0  0  0
   39.6240   22.9560   37.6950 C   0  0  0  0  0  0  0  0  0  0  0  0
   38.4810   23.5560   37.9930 N   0  0  0  0  0  0  0  0  0  0  0  0
   36.2960   26.9710   31.4630 C   0  0  0  0  0  0  0  0  0  0  0  0
   35.5840   26.1490   30.8720 O   0  0  0  0  0  0  0  0  0  0  0  0
   36.5750   28.2110   30.7460 C   0  0  0  0  0  0  0  0  0  0  0  0
   36.0040   29.3980   31.1770 C   0  0  0  0  0  0  0  0  0  0  0  0
   36.2330   30.6130   30.5340 C   0  0  0  0  0  0  0  0  0  0  0  0
   37.0530   30.5750   29.4530 N   0  0  0  0  0  0  0  0  0  0  0  0
   37.6120   29.4320   29.0240 C   0  0  0  0  0  0  0  0  0  0  0  0
   37.3810   28.2670   29.6570 N   0  0  0  0  0  0  0  0  0  0  0  0
   37.5755   27.2765   35.9828 H   0  0  0  0  0  0  0  0  0  0  0  0
   36.5840   28.4441   34.0357 H   0  0  0  0  0  0  0  0  0  0  0  0
   36.9221   24.8450   37.4015 H   0  0  0  0  0  0  0  0  0  0  0  0
   40.1142   24.1163   34.5497 H   0  0  0  0  0  0  0  0  0  0  0  0
   40.1153   22.2949   38.4241 H   0  0  0  0  0  0  0  0  0  0  0  0
   35.3462   29.3805   32.0585 H   0  0  0  0  0  0  0  0  0  0  0  0
   35.7749   31.5502   30.8829 H   0  0  0  0  0  0  0  0  0  0  0  0
   38.2688   29.4481   28.1417 H   0  0  0  0  0  0  0  0  0  0  0  0
  1  2  2  0
  1  7  1  0
  3  2  1  0
  4  5  1  0
  4  3  2  0
  5  1  1  0
  6 11  2  0
  7  6  1  0
  8  7  2  0
  8  9  1  0
  9 10  2  0
 10 11  1  0
 12  4  1  0
 13 12  2  0
 14 15  2  0
 14 12  1  0
 16 15  1  0
 17 16  2  0
 18 17  1  0
 18 19  2  0
 19 14  1  0
  2 20  1  0
  3 21  1  0
  6 22  1  0
  8 23  1  0
 10 24  1  0
 15 25  1  0
 16 26  1  0
 18 27  1  0
M  ISO  8  20  14  21  14  22  14  23  14  24  14  25  14  26  14  27  14
M  END
>  <minimizedAffinity>  (1) 
-4.81601667

>  <minimizedRMSD>  (1) 
0.987460732

$$$$
