
     RDKit          3D

 31 33  0  0  0  0  0  0  0  0999 V2000
   38.0520   25.2240   35.0750 C   0  0  0  0  0  0  0  0  0  0  0  0
   37.5510   26.5110   35.2880 C   0  0  0  0  0  0  0  0  0  0  0  0
   36.9640   27.1560   34.2530 C   0  0  0  0  0  0  0  0  0  0  0  0
   36.8920   26.4830   33.0120 C   0  0  0  0  0  0  0  0  0  0  0  0
   37.7140   24.8330   33.3520 S   0  0  0  0  0  0  0  0  0  0  0  0
   38.1700   24.1290   37.3290 C   0  0  0  0  0  0  0  0  0  0  0  0
   38.6990   24.3810   36.0350 C   0  0  0  0  0  0  0  0  0  0  0  0
   39.8840   23.8030   35.6600 C   0  0  0  0  0  0  0  0  0  0  0  0
   40.4880   23.0030   36.5870 N   0  0  0  0  0  0  0  0  0  0  0  0
   39.9890   22.7630   37.8140 C   0  0  0  0  0  0  0  0  0  0  0  0
   38.8420   23.3290   38.1610 N   0  0  0  0  0  0  0  0  0  0  0  0
   36.3840   26.7960   31.7500 C   0  0  0  0  0  0  0  0  0  0  0  0
   35.4480   26.1470   31.2630 O   0  0  0  0  0  0  0  0  0  0  0  0
   37.1550   27.9200   31.2710 N   0  0  0  0  0  0  0  0  0  0  0  0
   38.3740   28.2260   30.4990 C   0  0  0  0  0  0  0  0  0  0  0  0
   37.7160   28.9620   29.3230 C   0  0  0  0  0  0  0  0  0  0  0  0
   36.7170   29.8160   30.0720 C   0  0  0  0  0  0  0  0  0  0  0  0
   36.7730   29.3190   31.5230 C   0  0  0  0  0  0  0  0  0  0  0  0
   37.6319   26.9894   36.2752 H   0  0  0  0  0  0  0  0  0  0  0  0
   36.5564   28.1705   34.3736 H   0  0  0  0  0  0  0  0  0  0  0  0
   37.2198   24.5865   37.6416 H   0  0  0  0  0  0  0  0  0  0  0  0
   40.3242   23.9743   34.6666 H   0  0  0  0  0  0  0  0  0  0  0  0
   40.5244   22.1079   38.5170 H   0  0  0  0  0  0  0  0  0  0  0  0
   39.0674   28.8722   31.0572 H   0  0  0  0  0  0  0  0  0  0  0  0
   39.0015   27.3627   30.2328 H   0  0  0  0  0  0  0  0  0  0  0  0
   37.2197   28.2650   28.6317 H   0  0  0  0  0  0  0  0  0  0  0  0
   38.4114   29.5203   28.6790 H   0  0  0  0  0  0  0  0  0  0  0  0
   36.9987   30.8779   30.0166 H   0  0  0  0  0  0  0  0  0  0  0  0
   35.7055   29.7343   29.6476 H   0  0  0  0  0  0  0  0  0  0  0  0
   35.7967   29.3964   32.0237 H   0  0  0  0  0  0  0  0  0  0  0  0
   37.4436   29.8802   32.1904 H   0  0  0  0  0  0  0  0  0  0  0  0
  1  2  2  0
  1  7  1  0
  3  2  1  0
  4  5  1  0
  4  3  2  0
  5  1  1  0
  6 11  2  0
  7  6  1  0
  8  7  2  0
  8  9  1  0
  9 10  2  0
 10 11  1  0
 12  4  1  0
 13 12  2  0
 14 18  1  0
 14 12  1  0
 15 14  1  0
 16 17  1  0
 16 15  1  0
 17 18  1  0
  2 19  1  0
  3 20  1  0
  6 21  1  0
  8 22  1  0
 10 23  1  0
 15 24  1  0
 15 25  1  0
 16 26  1  0
 16 27  1  0
 17 28  1  0
 17 29  1  0
 18 30  1  0
 18 31  1  0
M  ISO  8  19  14  20  14  21  14  22  14  23  14  24  13  25  13  26  13
M  ISO  5  27  13  28  13  29  13  30  13  31  13
M  END
>  <minimizedAffinity>  (1) 
-4.81082773

>  <minimizedRMSD>  (1) 
0.789156854

$$$$
