
     RDKit          3D

 28 29  0  0  0  0  0  0  0  0999 V2000
   38.1270   24.5480   37.1700 C   0  0  0  0  0  0  0  0  0  0  0  0
   38.4260   24.8920   35.8540 C   0  0  0  0  0  0  0  0  0  0  0  0
   39.3280   24.1050   35.1330 C   0  0  0  0  0  0  0  0  0  0  0  0
   39.8640   23.0320   35.7770 N   0  0  0  0  0  0  0  0  0  0  0  0
   39.5490   22.7260   37.0610 C   0  0  0  0  0  0  0  0  0  0  0  0
   38.6920   23.4890   37.7240 N   0  0  0  0  0  0  0  0  0  0  0  0
   40.1930   21.5690   37.5830 N   0  0  0  0  0  0  0  0  0  0  0  0
   41.4800   21.2270   37.0820 C   0  0  0  0  0  0  0  0  0  0  0  0
   41.7830   21.3260   35.8380 N   0  0  0  0  0  0  0  0  0  0  0  0
   42.5040   20.7450   37.9810 N   0  0  0  0  0  0  0  0  0  0  0  0
   41.0790   21.6630   35.1610 H   0  0  0  0  0  0  0  0  0  0  0  0
   37.8750   26.0210   35.1410 C   0  0  0  0  0  0  0  0  0  0  0  0
   37.7460   27.3100   35.6270 C   0  0  0  0  0  0  0  0  0  0  0  0
   37.2070   28.2420   34.8160 C   0  0  0  0  0  0  0  0  0  0  0  0
   36.8090   27.8550   33.5310 C   0  0  0  0  0  0  0  0  0  0  0  0
   37.2290   26.0400   33.4710 S   0  0  0  0  0  0  0  0  0  0  0  0
   36.2250   28.5150   32.4370 C   0  0  0  0  0  0  0  0  0  0  0  0
   34.9830   28.5700   32.3350 O   0  0  0  0  0  0  0  0  0  0  0  0
   36.9950   29.1380   31.4180 N   0  0  0  0  0  0  0  0  0  0  0  0
   37.4192   25.1588   37.7497 H   0  0  0  0  0  0  0  0  0  0  0  0
   39.5930   24.3418   34.0920 H   0  0  0  0  0  0  0  0  0  0  0  0
   39.7383   20.9932   38.3060 H   0  0  0  0  0  0  0  0  0  0  0  0
   43.4350   20.4980   37.6161 H   0  0  0  0  0  0  0  0  0  0  0  0
   42.3027   20.6485   38.9865 H   0  0  0  0  0  0  0  0  0  0  0  0
   38.0737   27.5666   36.6452 H   0  0  0  0  0  0  0  0  0  0  0  0
   37.0830   29.2809   35.1555 H   0  0  0  0  0  0  0  0  0  0  0  0
   36.5244   29.6110   30.6334 H   0  0  0  0  0  0  0  0  0  0  0  0
   38.0237   29.1165   31.4640 H   0  0  0  0  0  0  0  0  0  0  0  0
  1  6  2  0
  2  1  1  0
  3  4  1  0
  3  2  2  0
  4  5  2  0
  5  7  1  0
  5  6  1  0
  8  7  1  0
  8 10  1  0
  9  8  2  0
 11  9  1  0
 12 13  2  0
 12  2  1  0
 14 13  1  0
 15 14  2  0
 16 15  1  0
 16 12  1  0
 17 15  1  0
 18 17  2  0
 19 17  1  0
  1 20  1  0
  3 21  1  0
  7 22  1  0
 10 23  1  0
 10 24  1  0
 13 25  1  0
 14 26  1  0
 19 27  1  0
 19 28  1  0
M  ISO  4  20  14  21  14  25  14  26  14
M  END
>  <minimizedAffinity>  (1) 
-4.91818619

>  <minimizedRMSD>  (1) 
0.971889198

$$$$
