
     RDKit          3D

 29 31  0  0  0  0  0  0  0  0999 V2000
   37.2410   25.9880   33.2630 C   0  0  0  0  0  0  0  0  0  0  0  0
   36.9920   27.3130   33.6620 C   0  0  0  0  0  0  0  0  0  0  0  0
   37.3130   27.7150   34.9640 C   0  0  0  0  0  0  0  0  0  0  0  0
   37.8610   26.7660   35.7730 N   0  0  0  0  0  0  0  0  0  0  0  0
   38.0900   25.4770   35.3440 C   0  0  0  0  0  0  0  0  0  0  0  0
   37.7750   25.1200   34.1040 N   0  0  0  0  0  0  0  0  0  0  0  0
   36.4070   28.3270   32.8160 C   0  0  0  0  0  0  0  0  0  0  0  0
   36.8580   28.7060   31.5630 C   0  0  0  0  0  0  0  0  0  0  0  0
   36.1850   29.6760   30.9070 C   0  0  0  0  0  0  0  0  0  0  0  0
   35.0690   30.2410   31.5340 C   0  0  0  0  0  0  0  0  0  0  0  0
   34.9850   29.3360   33.1390 S   0  0  0  0  0  0  0  0  0  0  0  0
   34.1390   31.2380   31.1950 C   0  0  0  0  0  0  0  0  0  0  0  0
   32.9320   31.0480   31.3060 O   0  0  0  0  0  0  0  0  0  0  0  0
   34.5530   32.5200   30.7040 N   0  0  0  0  0  0  0  0  0  0  0  0
   38.6790   24.5100   36.2650 C   0  0  0  0  0  0  0  0  0  0  0  0
   39.7930   23.7750   35.8980 C   0  0  0  0  0  0  0  0  0  0  0  0
   40.3720   22.8500   36.7550 C   0  0  0  0  0  0  0  0  0  0  0  0
   39.7880   22.6980   37.9790 N   0  0  0  0  0  0  0  0  0  0  0  0
   38.7050   23.4190   38.3250 C   0  0  0  0  0  0  0  0  0  0  0  0
   38.1220   24.3330   37.4980 N   0  0  0  0  0  0  0  0  0  0  0  0
   36.9887   25.6708   32.2404 H   0  0  0  0  0  0  0  0  0  0  0  0
   37.1324   28.7418   35.3148 H   0  0  0  0  0  0  0  0  0  0  0  0
   37.7416   28.2294   31.1134 H   0  0  0  0  0  0  0  0  0  0  0  0
   36.5047   30.0118   29.9095 H   0  0  0  0  0  0  0  0  0  0  0  0
   35.5553   32.7297   30.5925 H   0  0  0  0  0  0  0  0  0  0  0  0
   33.8481   33.2313   30.4628 H   0  0  0  0  0  0  0  0  0  0  0  0
   40.2309   23.9282   34.9006 H   0  0  0  0  0  0  0  0  0  0  0  0
   41.2582   22.2678   36.4622 H   0  0  0  0  0  0  0  0  0  0  0  0
   38.2694   23.2632   39.3230 H   0  0  0  0  0  0  0  0  0  0  0  0
  1  2  2  0
  1  6  1  0
  2  3  1  0
  3  4  2  0
  5  4  1  0
  5 15  1  0
  6  5  2  0
  7 11  1  0
  7  2  1  0
  8  7  2  0
  9 10  2  0
  9  8  1  0
 10 11  1  0
 12 13  2  0
 12 10  1  0
 14 12  1  0
 15 20  1  0
 16 15  2  0
 16 17  1  0
 17 18  2  0
 18 19  1  0
 20 19  2  0
  1 21  1  0
  3 22  1  0
  8 23  1  0
  9 24  1  0
 14 25  1  0
 14 26  1  0
 16 27  1  0
 17 28  1  0
 19 29  1  0
M  ISO  7  21  14  22  14  23  14  24  14  27  14  28  14  29  14
M  END
>  <minimizedAffinity>  (1) 
-4.96105337

>  <minimizedRMSD>  (1) 
4.36990929

$$$$
