
     RDKit          3D

 28 30  0  0  0  0  0  0  0  0999 V2000
   39.2570   27.0780   34.1570 C   0  0  0  0  0  0  0  0  0  0  0  0
   38.2160   26.7970   33.2450 C   0  0  0  0  0  0  0  0  0  0  0  0
   37.5410   25.5910   33.3390 C   0  0  0  0  0  0  0  0  0  0  0  0
   37.9370   24.7400   34.3300 N   0  0  0  0  0  0  0  0  0  0  0  0
   38.9550   25.0460   35.2000 C   0  0  0  0  0  0  0  0  0  0  0  0
   39.5900   26.2080   35.0940 N   0  0  0  0  0  0  0  0  0  0  0  0
   39.3210   24.1140   36.2120 N   0  0  0  0  0  0  0  0  0  0  0  0
   38.5260   24.0560   37.2700 N   0  0  0  0  0  0  0  0  0  0  0  0
   38.9890   23.1350   38.1470 C   0  0  0  0  0  0  0  0  0  0  0  0
   40.1510   22.5890   37.5900 C   0  0  0  0  0  0  0  0  0  0  0  0
   40.3370   23.2270   36.3650 C   0  0  0  0  0  0  0  0  0  0  0  0
   37.8010   27.6900   32.1930 C   0  0  0  0  0  0  0  0  0  0  0  0
   36.6750   28.4890   32.1960 C   0  0  0  0  0  0  0  0  0  0  0  0
   36.4490   29.2720   31.1070 C   0  0  0  0  0  0  0  0  0  0  0  0
   37.3730   29.2150   30.0570 C   0  0  0  0  0  0  0  0  0  0  0  0
   38.6170   27.9920   30.6460 S   0  0  0  0  0  0  0  0  0  0  0  0
   37.4900   29.8460   28.8070 C   0  0  0  0  0  0  0  0  0  0  0  0
   38.1070   29.3270   27.8820 O   0  0  0  0  0  0  0  0  0  0  0  0
   36.8900   31.1340   28.5570 N   0  0  0  0  0  0  0  0  0  0  0  0
   39.7975   28.0334   34.0864 H   0  0  0  0  0  0  0  0  0  0  0  0
   36.7251   25.3316   32.6483 H   0  0  0  0  0  0  0  0  0  0  0  0
   38.5378   22.8667   39.1137 H   0  0  0  0  0  0  0  0  0  0  0  0
   40.7907   21.8106   38.0315 H   0  0  0  0  0  0  0  0  0  0  0  0
   41.1560   23.0453   35.6535 H   0  0  0  0  0  0  0  0  0  0  0  0
   35.9832   28.4922   33.0512 H   0  0  0  0  0  0  0  0  0  0  0  0
   35.5684   29.9290   31.0531 H   0  0  0  0  0  0  0  0  0  0  0  0
   36.9889   31.5775   27.6327 H   0  0  0  0  0  0  0  0  0  0  0  0
   36.3627   31.6100   29.3029 H   0  0  0  0  0  0  0  0  0  0  0  0
  1  6  2  0
  2  3  2  0
  2  1  1  0
  3  4  1  0
  4  5  2  0
  5  7  1  0
  6  5  1  0
  7 11  1  0
  7  8  1  0
  8  9  2  0
 10  9  1  0
 11 10  2  0
 12 13  2  0
 12  2  1  0
 14 13  1  0
 15 16  1  0
 15 14  2  0
 16 12  1  0
 17 15  1  0
 18 17  2  0
 19 17  1  0
  1 20  1  0
  3 21  1  0
  9 22  1  0
 10 23  1  0
 11 24  1  0
 13 25  1  0
 14 26  1  0
 19 27  1  0
 19 28  1  0
M  ISO  7  20  14  21  14  22  14  23  14  24  14  25  14  26  14
M  END
>  <minimizedAffinity>  (1) 
-4.86497784

>  <minimizedRMSD>  (1) 
3.98510408

$$$$
