
     RDKit          3D

 34 36  0  0  0  0  0  0  0  0999 V2000
   37.9470   25.5890   35.9400 C   0  0  0  0  0  0  0  0  0  0  0  0
   37.7680   25.7300   34.5680 C   0  0  0  0  0  0  0  0  0  0  0  0
   38.2210   24.7270   33.7030 C   0  0  0  0  0  0  0  0  0  0  0  0
   38.8240   23.6580   34.3000 N   0  0  0  0  0  0  0  0  0  0  0  0
   38.9840   23.5500   35.6440 C   0  0  0  0  0  0  0  0  0  0  0  0
   38.5440   24.5170   36.4430 N   0  0  0  0  0  0  0  0  0  0  0  0
   37.1350   26.8620   33.9350 C   0  0  0  0  0  0  0  0  0  0  0  0
   36.5560   27.9480   34.5710 C   0  0  0  0  0  0  0  0  0  0  0  0
   36.0140   28.9200   33.8120 C   0  0  0  0  0  0  0  0  0  0  0  0
   36.0660   28.7760   32.4200 C   0  0  0  0  0  0  0  0  0  0  0  0
   36.9370   27.1680   32.2000 S   0  0  0  0  0  0  0  0  0  0  0  0
   35.6200   29.5520   31.3350 C   0  0  0  0  0  0  0  0  0  0  0  0
   34.6700   30.3430   31.4900 O   0  0  0  0  0  0  0  0  0  0  0  0
   36.2090   29.4800   30.0430 N   0  0  0  0  0  0  0  0  0  0  0  0
   39.6600   22.3180   36.1300 C   0  0  0  0  0  0  0  0  0  0  0  0
   40.3700   22.5910   37.4340 C   0  0  0  0  0  0  0  0  0  0  0  0
   41.8010   22.8810   37.0250 C   0  0  0  0  0  0  0  0  0  0  0  0
   42.0240   21.7880   35.9910 C   0  0  0  0  0  0  0  0  0  0  0  0
   40.7550   21.8690   35.1750 C   0  0  0  0  0  0  0  0  0  0  0  0
   37.5883   26.3779   36.6175 H   0  0  0  0  0  0  0  0  0  0  0  0
   38.0988   24.7960   32.6120 H   0  0  0  0  0  0  0  0  0  0  0  0
   36.5393   28.0150   35.6688 H   0  0  0  0  0  0  0  0  0  0  0  0
   35.5440   29.8016   34.2724 H   0  0  0  0  0  0  0  0  0  0  0  0
   36.9968   28.8392   29.8712 H   0  0  0  0  0  0  0  0  0  0  0  0
   35.8479   30.0687   29.2788 H   0  0  0  0  0  0  0  0  0  0  0  0
   38.8738   21.5549   36.2273 H   0  0  0  0  0  0  0  0  0  0  0  0
   39.9270   23.4584   37.9452 H   0  0  0  0  0  0  0  0  0  0  0  0
   40.2955   21.7494   38.1384 H   0  0  0  0  0  0  0  0  0  0  0  0
   41.9014   23.8835   36.5836 H   0  0  0  0  0  0  0  0  0  0  0  0
   42.5230   22.8794   37.8549 H   0  0  0  0  0  0  0  0  0  0  0  0
   42.9106   21.9956   35.3739 H   0  0  0  0  0  0  0  0  0  0  0  0
   42.2105   20.7951   36.4262 H   0  0  0  0  0  0  0  0  0  0  0  0
   40.8723   22.5986   34.3602 H   0  0  0  0  0  0  0  0  0  0  0  0
   40.5122   20.8989   34.7169 H   0  0  0  0  0  0  0  0  0  0  0  0
  1  6  2  0
  2  1  1  0
  3  4  1  0
  3  2  2  0
  4  5  2  0
  5 15  1  0
  5  6  1  0
  7  2  1  0
  7  8  2  0
  9  8  1  0
 10  9  2  0
 11 10  1  0
 11  7  1  0
 12 13  2  0
 12 10  1  0
 14 12  1  0
 15 16  1  0
 17 16  1  0
 18 17  1  0
 19 18  1  0
 19 15  1  0
  1 20  1  0
  3 21  1  0
  8 22  1  0
  9 23  1  0
 14 24  1  0
 14 25  1  0
 15 26  1  0
 16 27  1  0
 16 28  1  0
 17 29  1  0
 17 30  1  0
 18 31  1  0
 18 32  1  0
 19 33  1  0
 19 34  1  0
M  ISO  8  20  14  21  14  22  14  23  14  26  13  27  13  28  13  29  13
M  ISO  5  30  13  31  13  32  13  33  13  34  13
M  END
>  <minimizedAffinity>  (1) 
-4.72745609

>  <minimizedRMSD>  (1) 
2.40130162

$$$$
