
     RDKit          3D

 28 30  0  0  0  0  0  0  0  0999 V2000
   38.2170   25.2000   34.8730 C   0  0  0  0  0  0  0  0  0  0  0  0
   39.2260   24.3800   34.4010 C   0  0  0  0  0  0  0  0  0  0  0  0
   39.8070   23.5180   35.2640 C   0  0  0  0  0  0  0  0  0  0  0  0
   39.3490   23.5090   36.5870 C   0  0  0  0  0  0  0  0  0  0  0  0
   38.0180   24.8010   36.5930 S   0  0  0  0  0  0  0  0  0  0  0  0
   37.1590   26.0590   32.7560 C   0  0  0  0  0  0  0  0  0  0  0  0
   37.4840   26.1790   34.1050 C   0  0  0  0  0  0  0  0  0  0  0  0
   37.0860   27.3240   34.7960 C   0  0  0  0  0  0  0  0  0  0  0  0
   36.3950   28.2610   34.0920 N   0  0  0  0  0  0  0  0  0  0  0  0
   36.0970   28.1070   32.7760 C   0  0  0  0  0  0  0  0  0  0  0  0
   36.4860   27.0000   32.1220 N   0  0  0  0  0  0  0  0  0  0  0  0
   35.3390   29.1500   32.0350 C   0  0  0  0  0  0  0  0  0  0  0  0
   35.3600   30.5590   32.5000 C   0  0  0  0  0  0  0  0  0  0  0  0
   34.1400   29.6850   32.7260 C   0  0  0  0  0  0  0  0  0  0  0  0
   39.6880   22.7790   37.7390 C   0  0  0  0  0  0  0  0  0  0  0  0
   40.7210   22.0780   37.7480 O   0  0  0  0  0  0  0  0  0  0  0  0
   38.8970   22.7990   38.9200 N   0  0  0  0  0  0  0  0  0  0  0  0
   39.5471   24.4285   33.3500 H   0  0  0  0  0  0  0  0  0  0  0  0
   40.6137   22.8451   34.9378 H   0  0  0  0  0  0  0  0  0  0  0  0
   37.4708   25.1586   32.2064 H   0  0  0  0  0  0  0  0  0  0  0  0
   37.3203   27.4628   35.8618 H   0  0  0  0  0  0  0  0  0  0  0  0
   35.5556   28.6860   31.0614 H   0  0  0  0  0  0  0  0  0  0  0  0
   35.9952   30.8507   33.3494 H   0  0  0  0  0  0  0  0  0  0  0  0
   35.5464   31.5355   32.0291 H   0  0  0  0  0  0  0  0  0  0  0  0
   33.2147   29.8719   32.1612 H   0  0  0  0  0  0  0  0  0  0  0  0
   33.5427   29.3865   33.6001 H   0  0  0  0  0  0  0  0  0  0  0  0
   39.1840   22.2479   39.7415 H   0  0  0  0  0  0  0  0  0  0  0  0
   38.0369   23.3646   38.9542 H   0  0  0  0  0  0  0  0  0  0  0  0
  1  5  1  0
  2  1  2  0
  2  3  1  0
  3  4  2  0
  4  5  1  0
  4 15  1  0
  6  7  2  0
  7  8  1  0
  7  1  1  0
  9  8  2  0
 10  9  1  0
 11  6  1  0
 11 10  2  0
 12 13  1  0
 12 14  1  0
 12 10  1  0
 13 14  1  0
 15 16  2  0
 15 17  1  0
  2 18  1  0
  3 19  1  0
  6 20  1  0
  8 21  1  0
 12 22  1  0
 13 23  1  0
 13 24  1  0
 14 25  1  0
 14 26  1  0
 17 27  1  0
 17 28  1  0
M  ISO  8  18  14  19  14  20  14  21  14  22  13  23  13  24  13  25  13
M  ISO  1  26  13
M  END
>  <minimizedAffinity>  (1) 
-4.71851015

>  <minimizedRMSD>  (1) 
7.6302495

$$$$
