
     RDKit          3D

 27 29  0  0  0  0  0  0  0  0999 V2000
   37.9550   25.2340   36.0360 C   0  0  0  0  0  0  0  0  0  0  0  0
   38.3270   25.7800   34.7960 C   0  0  0  0  0  0  0  0  0  0  0  0
   39.4870   25.3370   34.1950 C   0  0  0  0  0  0  0  0  0  0  0  0
   40.2060   24.3870   34.8500 N   0  0  0  0  0  0  0  0  0  0  0  0
   39.8200   23.8790   36.0490 C   0  0  0  0  0  0  0  0  0  0  0  0
   38.6910   24.3170   36.6240 N   0  0  0  0  0  0  0  0  0  0  0  0
   40.7350   22.9090   36.5180 N   0  0  0  0  0  0  0  0  0  0  0  0
   40.7090   21.7770   37.2450 C   0  0  0  0  0  0  0  0  0  0  0  0
   41.9580   21.2900   37.3520 N   0  0  0  0  0  0  0  0  0  0  0  0
   42.7670   22.1250   36.6870 C   0  0  0  0  0  0  0  0  0  0  0  0
   41.9980   23.1250   36.1740 N   0  0  0  0  0  0  0  0  0  0  0  0
   37.5710   26.7910   34.0920 C   0  0  0  0  0  0  0  0  0  0  0  0
   36.7480   27.7500   34.6460 C   0  0  0  0  0  0  0  0  0  0  0  0
   36.1250   28.6120   33.8170 C   0  0  0  0  0  0  0  0  0  0  0  0
   36.3490   28.4850   32.4440 C   0  0  0  0  0  0  0  0  0  0  0  0
   37.5150   27.0530   32.3270 S   0  0  0  0  0  0  0  0  0  0  0  0
   35.9040   29.1620   31.2920 C   0  0  0  0  0  0  0  0  0  0  0  0
   35.0620   30.0520   31.3610 O   0  0  0  0  0  0  0  0  0  0  0  0
   36.4220   28.8300   29.9890 N   0  0  0  0  0  0  0  0  0  0  0  0
   37.0316   25.5799   36.5234 H   0  0  0  0  0  0  0  0  0  0  0  0
   39.8170   25.7364   33.2247 H   0  0  0  0  0  0  0  0  0  0  0  0
   39.8083   21.3218   37.6827 H   0  0  0  0  0  0  0  0  0  0  0  0
   43.8564   22.0216   36.5753 H   0  0  0  0  0  0  0  0  0  0  0  0
   36.6039   27.8098   35.7349 H   0  0  0  0  0  0  0  0  0  0  0  0
   35.4588   29.3936   34.2110 H   0  0  0  0  0  0  0  0  0  0  0  0
   37.1301   28.0886   29.8899 H   0  0  0  0  0  0  0  0  0  0  0  0
   36.0842   29.3341   29.1567 H   0  0  0  0  0  0  0  0  0  0  0  0
  1  6  2  0
  2  1  1  0
  3  2  2  0
  3  4  1  0
  4  5  2  0
  5  7  1  0
  5  6  1  0
  7  8  1  0
  8  9  2  0
 10  9  1  0
 11  7  1  0
 11 10  2  0
 12 13  2  0
 12  2  1  0
 14 13  1  0
 15 14  2  0
 16 15  1  0
 16 12  1  0
 17 18  2  0
 17 15  1  0
 19 17  1  0
  1 20  1  0
  3 21  1  0
  8 22  1  0
 10 23  1  0
 13 24  1  0
 14 25  1  0
 19 26  1  0
 19 27  1  0
M  ISO  6  20  14  21  14  22  14  23  14  24  14  25  14
M  END
>  <minimizedAffinity>  (1) 
-4.79026031

>  <minimizedRMSD>  (1) 
2.16081786

$$$$
