
     RDKit          3D

 31 33  0  0  0  0  0  0  0  0999 V2000
   38.8590   24.6370   35.8420 C   0  0  0  0  0  0  0  0  0  0  0  0
   39.0060   25.4980   34.7500 C   0  0  0  0  0  0  0  0  0  0  0  0
   40.1680   25.4280   33.9700 C   0  0  0  0  0  0  0  0  0  0  0  0
   41.0920   24.4970   34.3560 N   0  0  0  0  0  0  0  0  0  0  0  0
   40.9110   23.6750   35.4300 C   0  0  0  0  0  0  0  0  0  0  0  0
   39.8010   23.7580   36.1530 N   0  0  0  0  0  0  0  0  0  0  0  0
   41.9560   22.7470   35.7210 N   0  0  0  0  0  0  0  0  0  0  0  0
   41.5460   21.6170   36.3040 C   0  0  0  0  0  0  0  0  0  0  0  0
   42.4830   20.6320   36.6380 C   0  0  0  0  0  0  0  0  0  0  0  0
   43.7820   20.9560   36.3100 C   0  0  0  0  0  0  0  0  0  0  0  0
   44.6630   20.0770   36.6000 O   0  0  0  0  0  0  0  0  0  0  0  0
   44.2090   22.0850   35.7240 N   0  0  0  0  0  0  0  0  0  0  0  0
   43.2490   22.9950   35.4300 C   0  0  0  0  0  0  0  0  0  0  0  0
   43.5210   24.1080   34.8730 O   0  0  0  0  0  0  0  0  0  0  0  0
   38.0360   26.4880   34.3500 C   0  0  0  0  0  0  0  0  0  0  0  0
   37.4920   27.4640   35.1640 C   0  0  0  0  0  0  0  0  0  0  0  0
   36.5910   28.3200   34.6140 C   0  0  0  0  0  0  0  0  0  0  0  0
   36.2730   28.1550   33.2610 C   0  0  0  0  0  0  0  0  0  0  0  0
   37.3070   26.7190   32.7530 S   0  0  0  0  0  0  0  0  0  0  0  0
   35.4220   28.8110   32.3570 C   0  0  0  0  0  0  0  0  0  0  0  0
   34.2330   28.9800   32.6070 O   0  0  0  0  0  0  0  0  0  0  0  0
   35.9010   29.3160   31.0950 N   0  0  0  0  0  0  0  0  0  0  0  0
   37.9460   24.6901   36.4533 H   0  0  0  0  0  0  0  0  0  0  0  0
   40.3271   26.0822   33.1001 H   0  0  0  0  0  0  0  0  0  0  0  0
   40.4787   21.4615   36.5202 H   0  0  0  0  0  0  0  0  0  0  0  0
   42.2068   19.6826   37.1200 H   0  0  0  0  0  0  0  0  0  0  0  0
   45.2033   22.2495   35.5112 H   0  0  0  0  0  0  0  0  0  0  0  0
   37.7791   27.5452   36.2228 H   0  0  0  0  0  0  0  0  0  0  0  0
   36.1265   29.1171   35.2131 H   0  0  0  0  0  0  0  0  0  0  0  0
   36.8912   29.2001   30.8364 H   0  0  0  0  0  0  0  0  0  0  0  0
   35.2531   29.7928   30.4517 H   0  0  0  0  0  0  0  0  0  0  0  0
  1  6  2  0
  2  1  1  0
  3  4  1  0
  3  2  2  0
  4  5  2  0
  5  7  1  0
  5  6  1  0
  7  8  1  0
  8  9  2  0
 10 11  2  0
 10  9  1  0
 12 10  1  0
 13  7  1  0
 13 12  1  0
 14 13  2  0
 15  2  1  0
 15 16  2  0
 17 16  1  0
 18 17  2  0
 19 18  1  0
 19 15  1  0
 20 21  2  0
 20 18  1  0
 22 20  1  0
  1 23  1  0
  3 24  1  0
  8 25  1  0
  9 26  1  0
 12 27  1  0
 16 28  1  0
 17 29  1  0
 22 30  1  0
 22 31  1  0
M  ISO  7  23  14  24  14  25  14  26  14  27   9  28  14  29  14
M  END
>  <minimizedAffinity>  (1) 
-4.43049002

>  <minimizedRMSD>  (1) 
2.95588303

$$$$
