
     RDKit          3D

 27 29  0  0  0  0  0  0  0  0999 V2000
   38.7610   24.1140   36.2500 C   0  0  0  0  0  0  0  0  0  0  0  0
   39.1040   25.1170   35.3270 C   0  0  0  0  0  0  0  0  0  0  0  0
   40.3580   25.0940   34.7210 C   0  0  0  0  0  0  0  0  0  0  0  0
   41.1880   24.0740   35.0730 N   0  0  0  0  0  0  0  0  0  0  0  0
   40.8170   23.1060   35.9850 C   0  0  0  0  0  0  0  0  0  0  0  0
   39.6140   23.1520   36.5480 N   0  0  0  0  0  0  0  0  0  0  0  0
   38.2490   26.2120   34.9530 C   0  0  0  0  0  0  0  0  0  0  0  0
   38.0580   27.3780   35.7050 C   0  0  0  0  0  0  0  0  0  0  0  0
   37.2140   28.3130   35.1960 C   0  0  0  0  0  0  0  0  0  0  0  0
   36.5970   28.0550   33.9680 C   0  0  0  0  0  0  0  0  0  0  0  0
   37.2510   26.3810   33.5000 S   0  0  0  0  0  0  0  0  0  0  0  0
   35.6960   28.7520   33.1480 C   0  0  0  0  0  0  0  0  0  0  0  0
   35.1640   28.1830   32.1720 O   0  0  0  0  0  0  0  0  0  0  0  0
   35.3560   30.1290   33.3990 N   0  0  0  0  0  0  0  0  0  0  0  0
   41.8150   22.0620   36.2730 C   0  0  0  0  0  0  0  0  0  0  0  0
   42.8730   21.9920   35.3870 C   0  0  0  0  0  0  0  0  0  0  0  0
   43.9030   20.5760   36.0720 S   0  0  0  0  0  0  0  0  0  0  0  0
   42.6320   20.3670   37.4730 C   0  0  0  0  0  0  0  0  0  0  0  0
   41.8670   21.1720   37.2470 N   0  0  0  0  0  0  0  0  0  0  0  0
   37.7710   24.1310   36.7291 H   0  0  0  0  0  0  0  0  0  0  0  0
   40.6624   25.8617   33.9943 H   0  0  0  0  0  0  0  0  0  0  0  0
   38.5696   27.5302   36.6668 H   0  0  0  0  0  0  0  0  0  0  0  0
   37.0206   29.2509   35.7372 H   0  0  0  0  0  0  0  0  0  0  0  0
   34.6916   30.6163   32.7809 H   0  0  0  0  0  0  0  0  0  0  0  0
   35.7773   30.6263   34.1965 H   0  0  0  0  0  0  0  0  0  0  0  0
   43.0654   22.6122   34.4991 H   0  0  0  0  0  0  0  0  0  0  0  0
   42.6384   19.6419   38.3002 H   0  0  0  0  0  0  0  0  0  0  0  0
  1  6  2  0
  2  1  1  0
  3  4  1  0
  3  2  2  0
  4  5  2  0
  5 15  1  0
  5  6  1  0
  7  2  1  0
  7  8  2  0
  9  8  1  0
 10  9  2  0
 11 10  1  0
 11  7  1  0
 12 14  1  0
 12 10  1  0
 13 12  2  0
 15 19  1  0
 16 17  1  0
 16 15  2  0
 17 18  1  0
 19 18  2  0
  1 20  1  0
  3 21  1  0
  8 22  1  0
  9 23  1  0
 14 24  1  0
 14 25  1  0
 16 26  1  0
 18 27  1  0
M  ISO  6  20  14  21  14  22  14  23  14  26  14  27  14
M  END
>  <minimizedAffinity>  (1) 
-4.1067996

>  <minimizedRMSD>  (1) 
2.20466733

$$$$
