
     RDKit          3D

 35 37  0  0  1  0  0  0  0  0999 V2000
   42.4390   24.4280   34.7520 C   0  0  2  0  0  0  0  0  0  0  0  0
   41.0840   25.0170   35.0350 C   0  0  0  0  0  0  0  0  0  0  0  0
   40.8510   26.3840   34.8160 C   0  0  0  0  0  0  0  0  0  0  0  0
   39.5890   26.9020   35.0750 C   0  0  0  0  0  0  0  0  0  0  0  0
   38.6330   26.0490   35.5310 N   0  0  0  0  0  0  0  0  0  0  0  0
   38.8740   24.7390   35.7360 C   0  0  0  0  0  0  0  0  0  0  0  0
   40.0950   24.2450   35.4830 N   0  0  0  0  0  0  0  0  0  0  0  0
   42.2340   23.6170   33.4940 C   0  0  0  0  0  0  0  0  0  0  0  0
   42.8330   23.5620   35.9200 C   0  0  0  0  0  0  0  0  0  0  0  0
   44.2630   23.5510   36.2230 C   0  0  0  0  0  0  0  0  0  0  0  0
   45.0840   22.6440   35.5400 C   0  0  0  0  0  0  0  0  0  0  0  0
   46.4480   22.5120   35.6960 C   0  0  0  0  0  0  0  0  0  0  0  0
   47.0530   23.3510   36.6080 C   0  0  0  0  0  0  0  0  0  0  0  0
   46.3010   24.2640   37.3110 C   0  0  0  0  0  0  0  0  0  0  0  0
   46.9460   25.0830   38.2180 C   0  0  0  0  0  0  0  0  0  0  0  0
   46.1930   25.9930   38.9240 C   0  0  0  0  0  0  0  0  0  0  0  0
   44.8380   26.0780   38.7250 C   0  0  0  0  0  0  0  0  0  0  0  0
   44.1820   25.2590   37.8150 C   0  0  0  0  0  0  0  0  0  0  0  0
   44.9310   24.3590   37.1190 C   0  0  0  0  0  0  0  0  0  0  0  0
   43.2387   25.1712   34.6171 H   0  0  0  0  0  0  0  0  0  0  0  0
   41.6562   27.0350   34.4448 H   0  0  0  0  0  0  0  0  0  0  0  0
   39.3695   27.9682   34.9164 H   0  0  0  0  0  0  0  0  0  0  0  0
   38.0756   24.0801   36.1079 H   0  0  0  0  0  0  0  0  0  0  0  0
   41.9726   22.5829   33.7629 H   0  0  0  0  0  0  0  0  0  0  0  0
   41.4193   24.0589   32.9015 H   0  0  0  0  0  0  0  0  0  0  0  0
   43.1608   23.6187   32.9015 H   0  0  0  0  0  0  0  0  0  0  0  0
   42.2979   23.9245   36.8101 H   0  0  0  0  0  0  0  0  0  0  0  0
   42.5683   22.5309   35.6428 H   0  0  0  0  0  0  0  0  0  0  0  0
   44.5966   21.9769   34.8137 H   0  0  0  0  0  0  0  0  0  0  0  0
   47.0253   21.7732   35.1208 H   0  0  0  0  0  0  0  0  0  0  0  0
   48.1387   23.2902   36.7738 H   0  0  0  0  0  0  0  0  0  0  0  0
   48.0327   25.0095   38.3716 H   0  0  0  0  0  0  0  0  0  0  0  0
   46.6807   26.6569   39.6530 H   0  0  0  0  0  0  0  0  0  0  0  0
   44.2566   26.8133   39.3007 H   0  0  0  0  0  0  0  0  0  0  0  0
   43.0954   25.3346   37.6617 H   0  0  0  0  0  0  0  0  0  0  0  0
  1  2  1  0
  1  9  1  0
  2  7  1  0
  3  2  2  0
  3  4  1  0
  4  5  2  0
  5  6  1  0
  7  6  2  0
  8  1  1  0
  9 10  1  0
 10 19  2  0
 11 12  2  0
 11 10  1  0
 12 13  1  0
 13 14  2  0
 14 15  1  0
 15 16  2  0
 17 16  1  0
 18 17  2  0
 19 14  1  0
 19 18  1  0
  1 20  1  6
  3 21  1  0
  4 22  1  0
  6 23  1  0
  8 24  1  0
  8 25  1  0
  8 26  1  0
  9 27  1  0
  9 28  1  0
 11 29  1  0
 12 30  1  0
 13 31  1  0
 15 32  1  0
 16 33  1  0
 17 34  1  0
 18 35  1  0
M  ISO  8  20   8  21  14  22  14  23  14  24   8  25   8  26   8  27   8
M  ISO  8  28   8  29  14  30  14  31  14  32  14  33  14  34  14  35  14
M  END
>  <minimizedAffinity>  (1) 
-4.85919952

>  <minimizedRMSD>  (1) 
3.35623026

$$$$
