
     RDKit          3D

 36 38  0  0  0  0  0  0  0  0999 V2000
   37.2410   26.0010   33.4750 C   0  0  0  0  0  0  0  0  0  0  0  0
   37.0980   27.2690   34.0530 C   0  0  0  0  0  0  0  0  0  0  0  0
   37.7460   27.5510   35.2660 C   0  0  0  0  0  0  0  0  0  0  0  0
   38.4830   26.5430   35.8020 N   0  0  0  0  0  0  0  0  0  0  0  0
   38.6020   25.3130   35.2130 C   0  0  0  0  0  0  0  0  0  0  0  0
   37.9750   25.0730   34.0590 N   0  0  0  0  0  0  0  0  0  0  0  0
   36.3170   28.3550   33.5050 C   0  0  0  0  0  0  0  0  0  0  0  0
   35.4310   29.1330   34.2380 C   0  0  0  0  0  0  0  0  0  0  0  0
   34.7780   30.1160   33.5600 C   0  0  0  0  0  0  0  0  0  0  0  0
   35.0350   30.2730   32.2050 C   0  0  0  0  0  0  0  0  0  0  0  0
   36.2770   28.9570   31.8500 S   0  0  0  0  0  0  0  0  0  0  0  0
   34.5770   31.1450   31.1900 C   0  0  0  0  0  0  0  0  0  0  0  0
   35.3720   31.8410   30.5470 O   0  0  0  0  0  0  0  0  0  0  0  0
   33.1710   31.2410   30.8830 N   0  0  0  0  0  0  0  0  0  0  0  0
   39.4270   24.3040   35.8920 C   0  0  0  0  0  0  0  0  0  0  0  0
   38.8060   23.6390   36.9150 C   0  0  0  0  0  0  0  0  0  0  0  0
   40.1500   22.4650   37.5200 S   0  0  0  0  0  0  0  0  0  0  0  0
   41.3310   23.1660   36.1850 C   0  0  0  0  0  0  0  0  0  0  0  0
   40.6640   23.9230   35.6970 N   0  0  0  0  0  0  0  0  0  0  0  0
   42.7320   22.7270   35.9720 C   0  0  0  0  0  0  0  0  0  0  0  0
   42.9740   21.3640   36.6090 C   0  0  0  0  0  0  0  0  0  0  0  0
   43.6490   23.7510   36.6000 C   0  0  0  0  0  0  0  0  0  0  0  0
   36.7359   25.7765   32.5240 H   0  0  0  0  0  0  0  0  0  0  0  0
   37.6619   28.5327   35.7551 H   0  0  0  0  0  0  0  0  0  0  0  0
   35.2652   28.9635   35.3121 H   0  0  0  0  0  0  0  0  0  0  0  0
   34.0614   30.7725   34.0752 H   0  0  0  0  0  0  0  0  0  0  0  0
   32.8481   31.8792   30.1419 H   0  0  0  0  0  0  0  0  0  0  0  0
   32.4898   30.6713   31.4049 H   0  0  0  0  0  0  0  0  0  0  0  0
   37.7790   23.7599   37.2901 H   0  0  0  0  0  0  0  0  0  0  0  0
   42.9293   22.6397   34.8934 H   0  0  0  0  0  0  0  0  0  0  0  0
   42.9564   21.4629   37.7044 H   0  0  0  0  0  0  0  0  0  0  0  0
   42.1858   20.6656   36.2912 H   0  0  0  0  0  0  0  0  0  0  0  0
   43.9544   20.9796   36.2912 H   0  0  0  0  0  0  0  0  0  0  0  0
   43.5840   23.6784   37.6957 H   0  0  0  0  0  0  0  0  0  0  0  0
   44.6843   23.5608   36.2807 H   0  0  0  0  0  0  0  0  0  0  0  0
   43.3462   24.7591   36.2807 H   0  0  0  0  0  0  0  0  0  0  0  0
  1  2  2  0
  1  6  1  0
  2  3  1  0
  3  4  2  0
  5  4  1  0
  5 15  1  0
  6  5  2  0
  7  2  1  0
  7  8  2  0
  9  8  1  0
 10  9  2  0
 11 10  1  0
 11  7  1  0
 12 10  1  0
 13 12  2  0
 14 12  1  0
 15 16  2  0
 16 17  1  0
 18 17  1  0
 19 15  1  0
 19 18  2  0
 20 18  1  0
 20 22  1  0
 20 21  1  0
  1 23  1  0
  3 24  1  0
  8 25  1  0
  9 26  1  0
 14 27  1  0
 14 28  1  0
 16 29  1  0
 20 30  1  0
 21 31  1  0
 21 32  1  0
 21 33  1  0
 22 34  1  0
 22 35  1  0
 22 36  1  0
M  ISO  8  23  14  24  14  25  14  26  14  29  14  30   8  31   8  32   8
M  ISO  4  33   8  34   8  35   8  36   8
M  END
>  <minimizedAffinity>  (1) 
-5.06942272

>  <minimizedRMSD>  (1) 
3.76196766

$$$$
