
     RDKit          3D

 41 45  0  0  0  0  0  0  0  0999 V2000
   38.7260   24.3810   34.3240 C   0  0  0  0  0  0  0  0  0  0  0  0
   39.9660   24.8260   34.8310 C   0  0  0  0  0  0  0  0  0  0  0  0
   40.2530   26.1970   34.8910 C   0  0  0  0  0  0  0  0  0  0  0  0
   39.2800   27.0340   34.4380 N   0  0  0  0  0  0  0  0  0  0  0  0
   38.0680   26.5610   33.9430 C   0  0  0  0  0  0  0  0  0  0  0  0
   37.8240   25.2450   33.9000 N   0  0  0  0  0  0  0  0  0  0  0  0
   41.0170   23.9510   35.3110 C   0  0  0  0  0  0  0  0  0  0  0  0
   42.3410   24.3260   35.4870 C   0  0  0  0  0  0  0  0  0  0  0  0
   43.1900   23.3750   35.9450 C   0  0  0  0  0  0  0  0  0  0  0  0
   42.6930   22.1060   36.2070 C   0  0  0  0  0  0  0  0  0  0  0  0
   40.9040   22.2570   35.7790 S   0  0  0  0  0  0  0  0  0  0  0  0
   43.2350   20.8890   36.6760 C   0  0  0  0  0  0  0  0  0  0  0  0
   42.6630   20.2420   37.5630 O   0  0  0  0  0  0  0  0  0  0  0  0
   44.4670   20.3720   36.1350 N   0  0  0  0  0  0  0  0  0  0  0  0
   37.1280   27.6010   33.4890 C   0  0  0  0  0  0  0  0  0  0  0  0
   37.2830   28.0560   32.2100 C   0  0  0  0  0  0  0  0  0  0  0  0
   35.8900   29.3270   32.0970 S   0  0  0  0  0  0  0  0  0  0  0  0
   35.3840   28.9550   33.8640 C   0  0  0  0  0  0  0  0  0  0  0  0
   36.1400   28.1750   34.1210 N   0  0  0  0  0  0  0  0  0  0  0  0
   34.2380   29.7420   34.3320 C   0  0  0  0  0  0  0  0  0  0  0  0
   32.9560   29.4610   34.0900 N   0  0  0  0  0  0  0  0  0  0  0  0
   31.9480   30.2200   34.5450 C   0  0  0  0  0  0  0  0  0  0  0  0
   32.1630   31.3260   35.2810 N   0  0  0  0  0  0  0  0  0  0  0  0
   33.4460   31.6830   35.5730 C   0  0  0  0  0  0  0  0  0  0  0  0
   33.6740   32.8140   36.3270 C   0  0  0  0  0  0  0  0  0  0  0  0
   34.9860   33.1840   36.6270 C   0  0  0  0  0  0  0  0  0  0  0  0
   35.9940   32.3520   36.1260 C   0  0  0  0  0  0  0  0  0  0  0  0
   35.7200   31.2320   35.3770 C   0  0  0  0  0  0  0  0  0  0  0  0
   34.4320   30.8580   35.0740 C   0  0  0  0  0  0  0  0  0  0  0  0
   38.5099   23.3033   34.2821 H   0  0  0  0  0  0  0  0  0  0  0  0
   41.2095   26.5745   35.2817 H   0  0  0  0  0  0  0  0  0  0  0  0
   42.6850   25.3470   35.2652 H   0  0  0  0  0  0  0  0  0  0  0  0
   44.2537   23.6043   36.1063 H   0  0  0  0  0  0  0  0  0  0  0  0
   44.8509   19.4831   36.4864 H   0  0  0  0  0  0  0  0  0  0  0  0
   44.9635   20.8914   35.3970 H   0  0  0  0  0  0  0  0  0  0  0  0
   38.0212   27.7612   31.4497 H   0  0  0  0  0  0  0  0  0  0  0  0
   30.9136   29.9294   34.3093 H   0  0  0  0  0  0  0  0  0  0  0  0
   32.8299   33.4194   36.6890 H   0  0  0  0  0  0  0  0  0  0  0  0
   35.2150   34.0793   37.2237 H   0  0  0  0  0  0  0  0  0  0  0  0
   37.0435   32.6033   36.3393 H   0  0  0  0  0  0  0  0  0  0  0  0
   36.5552   30.6175   35.0096 H   0  0  0  0  0  0  0  0  0  0  0  0
  1  2  2  0
  2  3  1  0
  2  7  1  0
  4  3  2  0
  5  4  1  0
  6  5  2  0
  6  1  1  0
  7  8  2  0
  7 11  1  0
  8  9  1  0
  9 10  2  0
 10 12  1  0
 11 10  1  0
 12 13  2  0
 14 12  1  0
 15  5  1  0
 15 19  1  0
 16 15  2  0
 17 16  1  0
 17 18  1  0
 18 19  2  0
 18 20  1  0
 20 29  1  0
 21 20  2  0
 21 22  1  0
 22 23  2  0
 23 24  1  0
 24 25  2  0
 25 26  1  0
 27 26  2  0
 28 27  1  0
 29 28  2  0
 29 24  1  0
  1 30  1  0
  3 31  1  0
  8 32  1  0
  9 33  1  0
 14 34  1  0
 14 35  1  0
 16 36  1  0
 22 37  1  0
 25 38  1  0
 26 39  1  0
 27 40  1  0
 28 41  1  0
M  ISO  8  30  14  31  14  32  14  33  14  36  14  37  14  38  14  39  14
M  ISO  2  40  14  41  14
M  END
>  <minimizedAffinity>  (1) 
-5.83031416

>  <minimizedRMSD>  (1) 
12.0864353

$$$$
