
     RDKit          3D

 40 43  0  0  0  0  0  0  0  0999 V2000
   38.8190   23.4130   34.8510 C   0  0  0  0  0  0  0  0  0  0  0  0
   39.1770   24.6680   34.3140 C   0  0  0  0  0  0  0  0  0  0  0  0
   40.3790   24.8120   33.6190 C   0  0  0  0  0  0  0  0  0  0  0  0
   41.1410   23.6910   33.5080 N   0  0  0  0  0  0  0  0  0  0  0  0
   40.7680   22.4850   34.0390 C   0  0  0  0  0  0  0  0  0  0  0  0
   39.6110   22.3700   34.7020 N   0  0  0  0  0  0  0  0  0  0  0  0
   41.6990   21.3540   33.8430 C   0  0  0  0  0  0  0  0  0  0  0  0
   41.9230   20.9880   32.5480 C   0  0  0  0  0  0  0  0  0  0  0  0
   43.1300   19.5550   32.7440 S   0  0  0  0  0  0  0  0  0  0  0  0
   43.0720   19.7670   34.6280 C   0  0  0  0  0  0  0  0  0  0  0  0
   42.3570   20.6300   34.7130 N   0  0  0  0  0  0  0  0  0  0  0  0
   43.8080   18.9530   35.5350 N   0  0  0  0  0  0  0  0  0  0  0  0
   44.7080   18.0310   35.1430 C   0  0  0  0  0  0  0  0  0  0  0  0
   45.3320   17.3290   36.1640 C   0  0  0  0  0  0  0  0  0  0  0  0
   46.3350   16.2970   35.8030 C   0  0  0  0  0  0  0  0  0  0  0  0
   45.0640   17.5420   37.4990 C   0  0  0  0  0  0  0  0  0  0  0  0
   45.6470   16.8870   38.4110 O   0  0  0  0  0  0  0  0  0  0  0  0
   44.1590   18.4730   37.8090 N   0  0  0  0  0  0  0  0  0  0  0  0
   43.5440   19.1640   36.8390 C   0  0  0  0  0  0  0  0  0  0  0  0
   42.7010   20.0270   37.2190 O   0  0  0  0  0  0  0  0  0  0  0  0
   38.3740   25.8690   34.4320 C   0  0  0  0  0  0  0  0  0  0  0  0
   38.4460   26.7680   35.4880 C   0  0  0  0  0  0  0  0  0  0  0  0
   37.6190   27.8400   35.4330 C   0  0  0  0  0  0  0  0  0  0  0  0
   36.7670   27.9740   34.3470 C   0  0  0  0  0  0  0  0  0  0  0  0
   37.1510   26.4850   33.3240 S   0  0  0  0  0  0  0  0  0  0  0  0
   35.7940   28.9100   33.9390 C   0  0  0  0  0  0  0  0  0  0  0  0
   35.1340   28.7360   32.9060 O   0  0  0  0  0  0  0  0  0  0  0  0
   35.5320   30.0970   34.7060 N   0  0  0  0  0  0  0  0  0  0  0  0
   37.8711   23.3043   35.3985 H   0  0  0  0  0  0  0  0  0  0  0  0
   40.6911   25.7743   33.1871 H   0  0  0  0  0  0  0  0  0  0  0  0
   41.5058   21.4191   31.6260 H   0  0  0  0  0  0  0  0  0  0  0  0
   44.9336   17.8466   34.0823 H   0  0  0  0  0  0  0  0  0  0  0  0
   46.7587   15.8610   36.7197 H   0  0  0  0  0  0  0  0  0  0  0  0
   45.8509   15.5065   35.2108 H   0  0  0  0  0  0  0  0  0  0  0  0
   47.1390   16.7584   35.2108 H   0  0  0  0  0  0  0  0  0  0  0  0
   43.9327   18.6609   38.7961 H   0  0  0  0  0  0  0  0  0  0  0  0
   39.1402   26.6173   36.3278 H   0  0  0  0  0  0  0  0  0  0  0  0
   37.6234   28.5914   36.2363 H   0  0  0  0  0  0  0  0  0  0  0  0
   34.8168   30.7673   34.3895 H   0  0  0  0  0  0  0  0  0  0  0  0
   36.0594   30.2774   35.5721 H   0  0  0  0  0  0  0  0  0  0  0  0
  2 21  1  0
  2  1  2  0
  3  2  1  0
  4  3  2  0
  4  5  1  0
  5  6  2  0
  6  1  1  0
  7  5  1  0
  7 11  1  0
  8  9  1  0
  8  7  2  0
  9 10  1  0
 10 11  2  0
 10 12  1  0
 12 19  1  0
 13 12  1  0
 13 14  2  0
 14 16  1  0
 15 14  1  0
 16 18  1  0
 16 17  2  0
 19 20  2  0
 19 18  1  0
 21 22  2  0
 23 22  1  0
 24 23  2  0
 25 24  1  0
 25 21  1  0
 26 24  1  0
 26 28  1  0
 27 26  2  0
  1 29  1  0
  3 30  1  0
  8 31  1  0
 13 32  1  0
 15 33  1  0
 15 34  1  0
 15 35  1  0
 18 36  1  0
 22 37  1  0
 23 38  1  0
 28 39  1  0
 28 40  1  0
M  ISO  8  29  14  30  14  31  14  32  14  33   8  34   8  35   8  36   9
M  ISO  2  37  14  38  14
M  END
>  <minimizedAffinity>  (1) 
-4.57341576

>  <minimizedRMSD>  (1) 
2.61243057

$$$$
