
     RDKit          3D

 35 38  0  0  0  0  0  0  0  0999 V2000
   39.6670   23.6820   35.9300 C   0  0  0  0  0  0  0  0  0  0  0  0
   39.9500   24.8940   35.2540 C   0  0  0  0  0  0  0  0  0  0  0  0
   41.2200   25.1360   34.7690 C   0  0  0  0  0  0  0  0  0  0  0  0
   42.1480   24.1620   34.9790 N   0  0  0  0  0  0  0  0  0  0  0  0
   41.8480   22.9840   35.6440 C   0  0  0  0  0  0  0  0  0  0  0  0
   40.6120   22.7760   36.1030 N   0  0  0  0  0  0  0  0  0  0  0  0
   38.9690   25.9360   35.0280 C   0  0  0  0  0  0  0  0  0  0  0  0
   38.7240   26.9890   35.9000 C   0  0  0  0  0  0  0  0  0  0  0  0
   37.7680   27.8780   35.5390 C   0  0  0  0  0  0  0  0  0  0  0  0
   37.1010   27.6880   34.3350 C   0  0  0  0  0  0  0  0  0  0  0  0
   37.8770   26.1430   33.6640 S   0  0  0  0  0  0  0  0  0  0  0  0
   36.0850   28.3540   33.6190 C   0  0  0  0  0  0  0  0  0  0  0  0
   35.7620   28.0010   32.4770 O   0  0  0  0  0  0  0  0  0  0  0  0
   35.3920   29.4810   34.2140 N   0  0  0  0  0  0  0  0  0  0  0  0
   42.9600   22.0300   35.7970 C   0  0  0  0  0  0  0  0  0  0  0  0
   44.1830   22.4480   35.3280 C   0  0  0  0  0  0  0  0  0  0  0  0
   45.2770   20.9720   35.7200 S   0  0  0  0  0  0  0  0  0  0  0  0
   43.7920   20.0700   36.4640 C   0  0  0  0  0  0  0  0  0  0  0  0
   42.9810   20.8300   36.3200 N   0  0  0  0  0  0  0  0  0  0  0  0
   43.9250   18.7010   37.0340 C   0  0  0  0  0  0  0  0  0  0  0  0
   45.1660   18.2260   37.4060 C   0  0  0  0  0  0  0  0  0  0  0  0
   45.2050   16.9500   37.9250 C   0  0  0  0  0  0  0  0  0  0  0  0
   44.1000   16.2030   38.0640 N   0  0  0  0  0  0  0  0  0  0  0  0
   42.8970   16.6800   37.6970 C   0  0  0  0  0  0  0  0  0  0  0  0
   42.8390   17.9250   37.1880 N   0  0  0  0  0  0  0  0  0  0  0  0
   38.6533   23.4941   36.3135 H   0  0  0  0  0  0  0  0  0  0  0  0
   41.4692   26.0678   34.2402 H   0  0  0  0  0  0  0  0  0  0  0  0
   39.2817   27.0962   36.8421 H   0  0  0  0  0  0  0  0  0  0  0  0
   37.5245   28.7335   36.1862 H   0  0  0  0  0  0  0  0  0  0  0  0
   34.6503   29.9653   33.6884 H   0  0  0  0  0  0  0  0  0  0  0  0
   35.6416   29.7969   35.1621 H   0  0  0  0  0  0  0  0  0  0  0  0
   44.4514   23.4004   34.8475 H   0  0  0  0  0  0  0  0  0  0  0  0
   46.0760   18.8337   37.2942 H   0  0  0  0  0  0  0  0  0  0  0  0
   46.1735   16.5308   38.2352 H   0  0  0  0  0  0  0  0  0  0  0  0
   41.9879   16.0711   37.8094 H   0  0  0  0  0  0  0  0  0  0  0  0
  1  6  2  0
  2  1  1  0
  3  4  1  0
  3  2  2  0
  4  5  2  0
  5 15  1  0
  5  6  1  0
  7  2  1  0
  7  8  2  0
  9  8  1  0
 10  9  2  0
 11 10  1  0
 11  7  1  0
 12 14  1  0
 12 10  1  0
 13 12  2  0
 15 19  1  0
 16 17  1  0
 16 15  2  0
 17 18  1  0
 18 20  1  0
 19 18  2  0
 20 25  1  0
 20 21  2  0
 21 22  1  0
 22 23  2  0
 24 23  1  0
 25 24  2  0
  1 26  1  0
  3 27  1  0
  8 28  1  0
  9 29  1  0
 14 30  1  0
 14 31  1  0
 16 32  1  0
 21 33  1  0
 22 34  1  0
 24 35  1  0
M  ISO  8  26  14  27  14  28  14  29  14  32  14  33  14  34  14  35  14
M  END
>  <minimizedAffinity>  (1) 
-4.53023338

>  <minimizedRMSD>  (1) 
1.52611232

$$$$
