
     RDKit          3D

 33 35  0  0  1  0  0  0  0  0999 V2000
   41.2020   22.1530   36.2260 C   0  0  2  0  0  0  0  0  0  0  0  0
   39.8680   22.5450   36.7850 C   0  0  0  0  0  0  0  0  0  0  0  0
   38.7000   22.4270   36.0240 C   0  0  0  0  0  0  0  0  0  0  0  0
   37.4900   22.8100   36.6250 C   0  0  0  0  0  0  0  0  0  0  0  0
   37.5200   23.2670   37.8990 N   0  0  0  0  0  0  0  0  0  0  0  0
   38.6610   23.3710   38.6110 C   0  0  0  0  0  0  0  0  0  0  0  0
   39.8200   23.0050   38.0360 N   0  0  0  0  0  0  0  0  0  0  0  0
   41.8510   21.2940   37.2850 C   0  0  0  0  0  0  0  0  0  0  0  0
   41.9980   23.3840   35.9130 C   0  0  0  0  0  0  0  0  0  0  0  0
   41.7190   23.7730   34.5090 C   0  0  0  0  0  0  0  0  0  0  0  0
   42.0230   23.2720   33.2570 C   0  0  0  0  0  0  0  0  0  0  0  0
   41.4950   24.0660   32.3060 N   0  0  0  0  0  0  0  0  0  0  0  0
   40.8410   25.0940   32.9130 C   0  0  0  0  0  0  0  0  0  0  0  0
   40.1460   26.1570   32.3670 C   0  0  0  0  0  0  0  0  0  0  0  0
   39.5440   27.1090   33.1720 C   0  0  0  0  0  0  0  0  0  0  0  0
   39.6600   26.9620   34.5460 C   0  0  0  0  0  0  0  0  0  0  0  0
   40.3590   25.8920   35.0620 C   0  0  0  0  0  0  0  0  0  0  0  0
   40.9720   24.9240   34.2760 C   0  0  0  0  0  0  0  0  0  0  0  0
   41.1250   21.5927   35.2825 H   0  0  0  0  0  0  0  0  0  0  0  0
   38.7284   22.0478   34.9918 H   0  0  0  0  0  0  0  0  0  0  0  0
   36.5406   22.7404   36.0739 H   0  0  0  0  0  0  0  0  0  0  0  0
   38.6436   23.7486   39.6440 H   0  0  0  0  0  0  0  0  0  0  0  0
   41.5702   21.6657   38.2815 H   0  0  0  0  0  0  0  0  0  0  0  0
   41.5112   20.2539   37.1725 H   0  0  0  0  0  0  0  0  0  0  0  0
   42.9444   21.3367   37.1725 H   0  0  0  0  0  0  0  0  0  0  0  0
   41.7044   24.1993   36.5905 H   0  0  0  0  0  0  0  0  0  0  0  0
   43.0718   23.1855   36.0456 H   0  0  0  0  0  0  0  0  0  0  0  0
   42.6088   22.3607   33.0660 H   0  0  0  0  0  0  0  0  0  0  0  0
   41.5730   23.9199   31.2894 H   0  0  0  0  0  0  0  0  0  0  0  0
   40.0699   26.2481   31.2734 H   0  0  0  0  0  0  0  0  0  0  0  0
   38.9917   27.9544   32.7359 H   0  0  0  0  0  0  0  0  0  0  0  0
   39.1962   27.6962   35.2212 H   0  0  0  0  0  0  0  0  0  0  0  0
   40.4357   25.7994   36.1554 H   0  0  0  0  0  0  0  0  0  0  0  0
  1  2  1  0
  1  8  1  0
  2  7  2  0
  3  4  2  0
  3  2  1  0
  4  5  1  0
  5  6  2  0
  7  6  1  0
  9  1  1  0
 10  9  1  0
 11 10  2  0
 12 13  1  0
 12 11  1  0
 13 18  2  0
 14 13  1  0
 14 15  2  0
 15 16  1  0
 16 17  2  0
 18 10  1  0
 18 17  1  0
  1 19  1  6
  3 20  1  0
  4 21  1  0
  6 22  1  0
  8 23  1  0
  8 24  1  0
  8 25  1  0
  9 26  1  0
  9 27  1  0
 11 28  1  0
 12 29  1  0
 14 30  1  0
 15 31  1  0
 16 32  1  0
 17 33  1  0
M  ISO  8  19   8  20  14  21  14  22  14  23   8  24   8  25   8  26   8
M  ISO  7  27   8  28  14  29   9  30  14  31  14  32  14  33  14
M  END
>  <minimizedAffinity>  (1) 
-4.36988211

>  <minimizedRMSD>  (1) 
6.81257057

$$$$
