
     RDKit          3D

 33 35  0  0  0  0  0  0  0  0999 V2000
   39.0650   24.9170   34.9090 C   0  0  0  0  0  0  0  0  0  0  0  0
   39.1940   26.2290   34.4560 C   0  0  0  0  0  0  0  0  0  0  0  0
   40.4670   26.8130   34.3730 C   0  0  0  0  0  0  0  0  0  0  0  0
   41.5030   26.0160   34.7550 N   0  0  0  0  0  0  0  0  0  0  0  0
   41.3430   24.7300   35.1930 C   0  0  0  0  0  0  0  0  0  0  0  0
   40.1180   24.2060   35.2610 N   0  0  0  0  0  0  0  0  0  0  0  0
   38.0980   27.0800   34.0430 C   0  0  0  0  0  0  0  0  0  0  0  0
   37.2030   27.6900   34.9100 C   0  0  0  0  0  0  0  0  0  0  0  0
   36.2450   28.4560   34.3370 C   0  0  0  0  0  0  0  0  0  0  0  0
   36.2030   28.5890   32.9560 C   0  0  0  0  0  0  0  0  0  0  0  0
   37.6420   27.5470   32.3870 S   0  0  0  0  0  0  0  0  0  0  0  0
   35.3850   29.2600   32.0330 C   0  0  0  0  0  0  0  0  0  0  0  0
   35.7670   29.4780   30.8760 O   0  0  0  0  0  0  0  0  0  0  0  0
   34.0610   29.7160   32.4150 N   0  0  0  0  0  0  0  0  0  0  0  0
   42.5730   24.0030   35.5360 C   0  0  0  0  0  0  0  0  0  0  0  0
   43.7000   24.7600   35.7060 C   0  0  0  0  0  0  0  0  0  0  0  0
   45.0080   23.4750   36.1070 S   0  0  0  0  0  0  0  0  0  0  0  0
   43.7000   22.1250   35.9560 C   0  0  0  0  0  0  0  0  0  0  0  0
   42.7840   22.7240   35.7030 N   0  0  0  0  0  0  0  0  0  0  0  0
   44.1040   20.6850   36.1800 C   0  0  0  0  0  0  0  0  0  0  0  0
   43.0730   19.9630   37.0140 C   0  0  0  0  0  0  0  0  0  0  0  0
   38.0640   24.4656   34.9741 H   0  0  0  0  0  0  0  0  0  0  0  0
   40.6180   27.8449   34.0230 H   0  0  0  0  0  0  0  0  0  0  0  0
   37.2680   27.5588   36.0002 H   0  0  0  0  0  0  0  0  0  0  0  0
   35.5023   28.9713   34.9638 H   0  0  0  0  0  0  0  0  0  0  0  0
   33.4682   30.2074   31.7308 H   0  0  0  0  0  0  0  0  0  0  0  0
   33.7142   29.5482   33.3702 H   0  0  0  0  0  0  0  0  0  0  0  0
   43.8118   25.8515   35.6272 H   0  0  0  0  0  0  0  0  0  0  0  0
   44.1979   20.1811   35.2067 H   0  0  0  0  0  0  0  0  0  0  0  0
   45.0653   20.6673   36.7143 H   0  0  0  0  0  0  0  0  0  0  0  0
   43.2919   20.1163   38.0811 H   0  0  0  0  0  0  0  0  0  0  0  0
   42.0728   20.3591   36.7843 H   0  0  0  0  0  0  0  0  0  0  0  0
   43.1032   18.8877   36.7843 H   0  0  0  0  0  0  0  0  0  0  0  0
  1  6  2  0
  2  1  1  0
  3  2  2  0
  3  4  1  0
  4  5  2  0
  5  6  1  0
  5 15  1  0
  7  2  1  0
  7  8  2  0
  9  8  1  0
 10  9  2  0
 11 10  1  0
 11  7  1  0
 12 14  1  0
 12 10  1  0
 13 12  2  0
 15 19  1  0
 15 16  2  0
 16 17  1  0
 18 17  1  0
 18 20  1  0
 19 18  2  0
 20 21  1  0
  1 22  1  0
  3 23  1  0
  8 24  1  0
  9 25  1  0
 14 26  1  0
 14 27  1  0
 16 28  1  0
 20 29  1  0
 20 30  1  0
 21 31  1  0
 21 32  1  0
 21 33  1  0
M  ISO  8  22  14  23  14  24  14  25  14  28  14  29   8  30   8  31   8
M  ISO  2  32   8  33   8
M  END
>  <minimizedAffinity>  (1) 
-4.22823

>  <minimizedRMSD>  (1) 
2.04336929

$$$$
