
     RDKit          3D

 33 35  0  0  1  0  0  0  0  0999 V2000
   41.3100   22.9730   35.7410 C   0  0  2  0  0  0  0  0  0  0  0  0
   40.0790   23.3830   36.4980 C   0  0  0  0  0  0  0  0  0  0  0  0
   39.8940   22.8990   37.8190 C   0  0  0  0  0  0  0  0  0  0  0  0
   38.7270   23.3180   38.4850 C   0  0  0  0  0  0  0  0  0  0  0  0
   37.8630   24.1480   37.8340 N   0  0  0  0  0  0  0  0  0  0  0  0
   38.0910   24.5780   36.5760 C   0  0  0  0  0  0  0  0  0  0  0  0
   39.1980   24.1930   35.9130 N   0  0  0  0  0  0  0  0  0  0  0  0
   40.8130   22.0060   34.6940 C   0  0  0  0  0  0  0  0  0  0  0  0
   42.2900   22.3350   36.6880 C   0  0  0  0  0  0  0  0  0  0  0  0
   43.6370   22.4250   36.0470 C   0  0  0  0  0  0  0  0  0  0  0  0
   44.0930   21.4820   35.1730 N   0  0  0  0  0  0  0  0  0  0  0  0
   45.3250   21.6150   34.6220 C   0  0  0  0  0  0  0  0  0  0  0  0
   46.1270   22.6590   34.9090 N   0  0  0  0  0  0  0  0  0  0  0  0
   45.6640   23.5640   35.7610 C   0  0  0  0  0  0  0  0  0  0  0  0
   46.4840   24.6370   36.0570 C   0  0  0  0  0  0  0  0  0  0  0  0
   46.0980   25.6350   36.9330 C   0  0  0  0  0  0  0  0  0  0  0  0
   44.8440   25.5340   37.5180 C   0  0  0  0  0  0  0  0  0  0  0  0
   43.9820   24.4880   37.2600 C   0  0  0  0  0  0  0  0  0  0  0  0
   44.4190   23.5200   36.3800 C   0  0  0  0  0  0  0  0  0  0  0  0
   41.8396   23.8159   35.2730 H   0  0  0  0  0  0  0  0  0  0  0  0
   40.6249   22.2308   38.2978 H   0  0  0  0  0  0  0  0  0  0  0  0
   38.5160   22.9823   39.5111 H   0  0  0  0  0  0  0  0  0  0  0  0
   37.3675   25.2479   36.0883 H   0  0  0  0  0  0  0  0  0  0  0  0
   40.3634   21.1313   35.1867 H   0  0  0  0  0  0  0  0  0  0  0  0
   40.0579   22.5016   34.0661 H   0  0  0  0  0  0  0  0  0  0  0  0
   41.6555   21.6804   34.0661 H   0  0  0  0  0  0  0  0  0  0  0  0
   42.2918   22.8715   37.6483 H   0  0  0  0  0  0  0  0  0  0  0  0
   42.0189   21.2878   36.8876 H   0  0  0  0  0  0  0  0  0  0  0  0
   45.6805   20.8470   33.9192 H   0  0  0  0  0  0  0  0  0  0  0  0
   47.4738   24.6988   35.5811 H   0  0  0  0  0  0  0  0  0  0  0  0
   46.7635   26.4813   37.1586 H   0  0  0  0  0  0  0  0  0  0  0  0
   44.5236   26.3208   38.2168 H   0  0  0  0  0  0  0  0  0  0  0  0
   42.9914   24.4288   37.7345 H   0  0  0  0  0  0  0  0  0  0  0  0
  1  2  1  0
  1  9  1  0
  2  3  2  0
  3  4  1  0
  5  4  2  0
  6  5  1  0
  7  2  1  0
  7  6  2  0
  8  1  1  0
 10 19  1  0
 10  9  1  0
 11 10  2  0
 12 13  2  0
 12 11  1  0
 13 14  1  0
 14 15  1  0
 14 19  2  0
 15 16  2  0
 16 17  1  0
 18 17  2  0
 19 18  1  0
  1 20  1  6
  3 21  1  0
  4 22  1  0
  6 23  1  0
  8 24  1  0
  8 25  1  0
  8 26  1  0
  9 27  1  0
  9 28  1  0
 12 29  1  0
 15 30  1  0
 16 31  1  0
 17 32  1  0
 18 33  1  0
M  ISO  8  20   8  21  14  22  14  23  14  24   8  25   8  26   8  27   8
M  ISO  6  28   8  29  14  30  14  31  14  32  14  33  14
M  END
>  <minimizedAffinity>  (1) 
-4.35791826

>  <minimizedRMSD>  (1) 
1.87229085

$$$$
