
     RDKit          3D

 39 41  0  0  0  0  0  0  0  0999 V2000
   38.1080   24.0760   33.5940 C   0  0  0  0  0  0  0  0  0  0  0  0
   37.2860   24.7440   32.6570 C   0  0  0  0  0  0  0  0  0  0  0  0
   36.8130   24.0680   31.5460 C   0  0  0  0  0  0  0  0  0  0  0  0
   37.1930   22.7680   31.4420 N   0  0  0  0  0  0  0  0  0  0  0  0
   37.9890   22.1300   32.3550 C   0  0  0  0  0  0  0  0  0  0  0  0
   38.4310   22.8070   33.4160 N   0  0  0  0  0  0  0  0  0  0  0  0
   36.8890   26.1300   32.7750 C   0  0  0  0  0  0  0  0  0  0  0  0
   37.0110   26.8900   33.9310 C   0  0  0  0  0  0  0  0  0  0  0  0
   36.5860   28.1780   33.8690 C   0  0  0  0  0  0  0  0  0  0  0  0
   36.0650   28.6500   32.6730 C   0  0  0  0  0  0  0  0  0  0  0  0
   36.1740   27.1790   31.5370 S   0  0  0  0  0  0  0  0  0  0  0  0
   35.5390   29.8750   32.2100 C   0  0  0  0  0  0  0  0  0  0  0  0
   36.2780   30.7630   31.7640 O   0  0  0  0  0  0  0  0  0  0  0  0
   34.1180   30.1280   32.2440 N   0  0  0  0  0  0  0  0  0  0  0  0
   38.3010   20.7220   32.0990 C   0  0  0  0  0  0  0  0  0  0  0  0
   39.6340   20.4120   32.0010 C   0  0  0  0  0  0  0  0  0  0  0  0
   39.6130   18.5670   31.6690 S   0  0  0  0  0  0  0  0  0  0  0  0
   37.7010   18.5940   31.7350 C   0  0  0  0  0  0  0  0  0  0  0  0
   37.5190   19.6830   31.9360 N   0  0  0  0  0  0  0  0  0  0  0  0
   36.9070   17.3540   31.5350 C   0  0  0  0  0  0  0  0  0  0  0  0
   36.5960   17.0900   30.0990 C   0  0  0  0  0  0  0  0  0  0  0  0
   35.5620   17.5230   32.2500 C   0  0  0  0  0  0  0  0  0  0  0  0
   37.6250   16.2560   32.2370 C   0  0  0  0  0  0  0  0  0  0  0  0
   38.4809   24.6162   34.4767 H   0  0  0  0  0  0  0  0  0  0  0  0
   36.1708   24.5521   30.7956 H   0  0  0  0  0  0  0  0  0  0  0  0
   37.4328   26.4676   34.8549 H   0  0  0  0  0  0  0  0  0  0  0  0
   36.6534   28.8341   34.7494 H   0  0  0  0  0  0  0  0  0  0  0  0
   33.7465   31.0262   31.9031 H   0  0  0  0  0  0  0  0  0  0  0  0
   33.4757   29.4103   32.6091 H   0  0  0  0  0  0  0  0  0  0  0  0
   40.5018   21.0815   32.0943 H   0  0  0  0  0  0  0  0  0  0  0  0
   35.7591   16.3795   30.0297 H   0  0  0  0  0  0  0  0  0  0  0  0
   36.3186   18.0327   29.6046 H   0  0  0  0  0  0  0  0  0  0  0  0
   37.4811   16.6632   29.6046 H   0  0  0  0  0  0  0  0  0  0  0  0
   35.7203   17.5031   33.3384 H   0  0  0  0  0  0  0  0  0  0  0  0
   35.1122   18.4847   31.9624 H   0  0  0  0  0  0  0  0  0  0  0  0
   34.8882   16.7025   31.9624 H   0  0  0  0  0  0  0  0  0  0  0  0
   37.5341   16.3949   33.3244 H   0  0  0  0  0  0  0  0  0  0  0  0
   37.1841   15.2891   31.9528 H   0  0  0  0  0  0  0  0  0  0  0  0
   38.6875   16.2722   31.9528 H   0  0  0  0  0  0  0  0  0  0  0  0
  2  7  1  0
  2  1  2  0
  3  2  1  0
  4  3  2  0
  4  5  1  0
  5  6  2  0
  6  1  1  0
  7  8  2  0
  9  8  1  0
 10  9  2  0
 11 10  1  0
 11  7  1  0
 12 14  1  0
 12 10  1  0
 13 12  2  0
 15  5  1  0
 16 15  2  0
 17 18  1  0
 17 16  1  0
 18 19  2  0
 19 15  1  0
 20 18  1  0
 20 23  1  0
 20 22  1  0
 21 20  1  0
  1 24  1  0
  3 25  1  0
  8 26  1  0
  9 27  1  0
 14 28  1  0
 14 29  1  0
 16 30  1  0
 21 31  1  0
 21 32  1  0
 21 33  1  0
 22 34  1  0
 22 35  1  0
 22 36  1  0
 23 37  1  0
 23 38  1  0
 23 39  1  0
M  ISO  8  24  14  25  14  26  14  27  14  30  14  31   8  32   8  33   8
M  ISO  6  34   8  35   8  36   8  37   8  38   8  39   8
M  END
>  <minimizedAffinity>  (1) 
-4.20180178

>  <minimizedRMSD>  (1) 
5.65474749

$$$$
