
     RDKit          3D

 37 40  0  0  0  0  0  0  0  0999 V2000
   40.0300   23.4860   35.0900 C   0  0  0  0  0  0  0  0  0  0  0  0
   41.3670   23.2110   34.7150 C   0  0  0  0  0  0  0  0  0  0  0  0
   41.6320   22.2460   33.7590 C   0  0  0  0  0  0  0  0  0  0  0  0
   40.5560   21.6040   33.2250 N   0  0  0  0  0  0  0  0  0  0  0  0
   39.2570   21.9010   33.6190 C   0  0  0  0  0  0  0  0  0  0  0  0
   39.0340   22.8260   34.5330 N   0  0  0  0  0  0  0  0  0  0  0  0
   38.2090   21.1090   32.9420 C   0  0  0  0  0  0  0  0  0  0  0  0
   36.9100   21.4860   33.1660 C   0  0  0  0  0  0  0  0  0  0  0  0
   35.9410   20.2510   32.1430 S   0  0  0  0  0  0  0  0  0  0  0  0
   37.5820   19.4330   31.5950 C   0  0  0  0  0  0  0  0  0  0  0  0
   38.3250   20.0720   32.1380 N   0  0  0  0  0  0  0  0  0  0  0  0
   37.8580   18.2910   30.7150 N   0  0  0  0  0  0  0  0  0  0  0  0
   36.7060   17.7070   30.3030 C   0  0  0  0  0  0  0  0  0  0  0  0
   36.7410   16.6190   29.4740 C   0  0  0  0  0  0  0  0  0  0  0  0
   37.9930   16.1630   29.0870 C   0  0  0  0  0  0  0  0  0  0  0  0
   38.1380   15.1590   28.3180 O   0  0  0  0  0  0  0  0  0  0  0  0
   39.0980   16.7790   29.5260 N   0  0  0  0  0  0  0  0  0  0  0  0
   39.0480   17.8470   30.3410 C   0  0  0  0  0  0  0  0  0  0  0  0
   40.0240   18.4920   30.8050 O   0  0  0  0  0  0  0  0  0  0  0  0
   42.5220   23.8820   35.2770 C   0  0  0  0  0  0  0  0  0  0  0  0
   43.0600   23.6170   36.5290 C   0  0  0  0  0  0  0  0  0  0  0  0
   44.1460   24.3420   36.8970 C   0  0  0  0  0  0  0  0  0  0  0  0
   44.6450   25.2890   36.0130 C   0  0  0  0  0  0  0  0  0  0  0  0
   43.5100   25.1590   34.5550 S   0  0  0  0  0  0  0  0  0  0  0  0
   45.7110   26.2080   36.0190 C   0  0  0  0  0  0  0  0  0  0  0  0
   45.7430   27.1610   35.2300 O   0  0  0  0  0  0  0  0  0  0  0  0
   46.8110   26.0630   36.9530 N   0  0  0  0  0  0  0  0  0  0  0  0
   39.8212   24.2538   35.8495 H   0  0  0  0  0  0  0  0  0  0  0  0
   42.6597   22.0094   33.4462 H   0  0  0  0  0  0  0  0  0  0  0  0
   36.5311   22.3084   33.7906 H   0  0  0  0  0  0  0  0  0  0  0  0
   35.7384   18.1098   30.6368 H   0  0  0  0  0  0  0  0  0  0  0  0
   35.8186   16.1282   29.1300 H   0  0  0  0  0  0  0  0  0  0  0  0
   40.0176   16.4224   29.2291 H   0  0  0  0  0  0  0  0  0  0  0  0
   42.6257   22.8543   37.1921 H   0  0  0  0  0  0  0  0  0  0  0  0
   44.6216   24.1827   37.8760 H   0  0  0  0  0  0  0  0  0  0  0  0
   47.5849   26.7427   36.9468 H   0  0  0  0  0  0  0  0  0  0  0  0
   46.8183   25.2804   37.6226 H   0  0  0  0  0  0  0  0  0  0  0  0
  2  1  2  0
  2 20  1  0
  3  2  1  0
  4  5  1  0
  4  3  2  0
  5  6  2  0
  6  1  1  0
  7  8  2  0
  7  5  1  0
  9  8  1  0
 10 11  2  0
 10  9  1  0
 11  7  1  0
 12 10  1  0
 13 12  1  0
 14 13  2  0
 15 14  1  0
 15 17  1  0
 16 15  2  0
 17 18  1  0
 18 12  1  0
 18 19  2  0
 20 21  2  0
 21 22  1  0
 23 25  1  0
 23 22  2  0
 24 20  1  0
 24 23  1  0
 25 27  1  0
 26 25  2  0
  1 28  1  0
  3 29  1  0
  8 30  1  0
 13 31  1  0
 14 32  1  0
 17 33  1  0
 21 34  1  0
 22 35  1  0
 27 36  1  0
 27 37  1  0
M  ISO  8  28  14  29  14  30  14  31  14  32  14  33   9  34  14  35  14
M  END
>  <minimizedAffinity>  (1) 
-3.96026611

>  <minimizedRMSD>  (1) 
8.53175449

$$$$
