
     RDKit          3D

 39 42  0  0  0  0  0  0  0  0999 V2000
   37.0880   27.5860   34.1160 C   0  0  0  0  0  0  0  0  0  0  0  0
   36.5750   28.5400   34.9860 C   0  0  0  0  0  0  0  0  0  0  0  0
   35.8530   29.5350   34.4270 C   0  0  0  0  0  0  0  0  0  0  0  0
   35.6720   29.5440   33.0600 C   0  0  0  0  0  0  0  0  0  0  0  0
   36.5910   28.0250   32.4890 S   0  0  0  0  0  0  0  0  0  0  0  0
   35.2740   30.6330   35.2360 C   0  0  0  0  0  0  0  0  0  0  0  0
   35.9800   31.7360   35.6680 C   0  0  0  0  0  0  0  0  0  0  0  0
   35.3640   32.7240   36.4050 C   0  0  0  0  0  0  0  0  0  0  0  0
   34.0170   32.5630   36.6910 C   0  0  0  0  0  0  0  0  0  0  0  0
   33.2820   31.4520   36.2630 C   0  0  0  0  0  0  0  0  0  0  0  0
   33.9530   30.4780   35.5180 C   0  0  0  0  0  0  0  0  0  0  0  0
   37.7310   25.7460   35.7290 C   0  0  0  0  0  0  0  0  0  0  0  0
   37.8990   26.4510   34.5400 C   0  0  0  0  0  0  0  0  0  0  0  0
   38.9180   26.0880   33.6400 C   0  0  0  0  0  0  0  0  0  0  0  0
   39.6830   25.0330   34.0290 N   0  0  0  0  0  0  0  0  0  0  0  0
   39.5030   24.3580   35.1950 C   0  0  0  0  0  0  0  0  0  0  0  0
   38.5230   24.7320   36.0250 N   0  0  0  0  0  0  0  0  0  0  0  0
   40.4140   23.2400   35.4660 C   0  0  0  0  0  0  0  0  0  0  0  0
   41.1720   22.8240   34.4280 C   0  0  0  0  0  0  0  0  0  0  0  0
   42.1700   21.4120   35.1650 S   0  0  0  0  0  0  0  0  0  0  0  0
   41.2960   21.6940   36.8340 C   0  0  0  0  0  0  0  0  0  0  0  0
   40.6430   22.5440   36.5310 N   0  0  0  0  0  0  0  0  0  0  0  0
   41.5620   20.9190   37.9820 N   0  0  0  0  0  0  0  0  0  0  0  0
   35.0050   30.3760   32.1340 C   0  0  0  0  0  0  0  0  0  0  0  0
   35.6230   31.1800   31.4440 O   0  0  0  0  0  0  0  0  0  0  0  0
   33.5820   30.3040   31.9720 N   0  0  0  0  0  0  0  0  0  0  0  0
   36.7475   28.4877   36.0711 H   0  0  0  0  0  0  0  0  0  0  0  0
   37.0480   31.8283   35.4212 H   0  0  0  0  0  0  0  0  0  0  0  0
   35.9199   33.6070   36.7532 H   0  0  0  0  0  0  0  0  0  0  0  0
   33.5055   33.3400   37.2781 H   0  0  0  0  0  0  0  0  0  0  0  0
   32.2138   31.3487   36.5043 H   0  0  0  0  0  0  0  0  0  0  0  0
   33.4136   29.5884   35.1608 H   0  0  0  0  0  0  0  0  0  0  0  0
   36.9321   26.0362   36.4272 H   0  0  0  0  0  0  0  0  0  0  0  0
   39.0837   26.6189   32.6910 H   0  0  0  0  0  0  0  0  0  0  0  0
   41.1987   23.2164   33.4007 H   0  0  0  0  0  0  0  0  0  0  0  0
   41.0615   21.1123   38.8612 H   0  0  0  0  0  0  0  0  0  0  0  0
   42.2568   20.1597   37.9411 H   0  0  0  0  0  0  0  0  0  0  0  0
   33.1093   30.9172   31.2926 H   0  0  0  0  0  0  0  0  0  0  0  0
   33.0326   29.6391   32.5350 H   0  0  0  0  0  0  0  0  0  0  0  0
  1 13  1  0
  1  2  2  0
  3  2  1  0
  3  6  1  0
  4  3  2  0
  5  4  1  0
  5  1  1  0
  6 11  1  0
  6  7  2  0
  7  8  1  0
  8  9  2  0
 10  9  1  0
 11 10  2  0
 12 17  2  0
 13 12  1  0
 14 15  1  0
 14 13  2  0
 15 16  2  0
 16 18  1  0
 16 17  1  0
 18 22  1  0
 19 20  1  0
 19 18  2  0
 20 21  1  0
 21 23  1  0
 22 21  2  0
 24  4  1  0
 25 24  2  0
 26 24  1  0
  2 27  1  0
  7 28  1  0
  8 29  1  0
  9 30  1  0
 10 31  1  0
 11 32  1  0
 12 33  1  0
 14 34  1  0
 19 35  1  0
 23 36  1  0
 23 37  1  0
 26 38  1  0
 26 39  1  0
M  ISO  8  27  14  28  14  29  14  30  14  31  14  32  14  33  14  34  14
M  ISO  1  35  14
M  END
>  <minimizedAffinity>  (1) 
-5.81440687

>  <minimizedRMSD>  (1) 
2.92303133

$$$$
