
     RDKit          3D

 42 45  0  0  0  0  0  0  0  0999 V2000
   39.8780   24.9290   34.9500 C   0  0  0  0  0  0  0  0  0  0  0  0
   41.2350   25.1810   35.0510 C   0  0  0  0  0  0  0  0  0  0  0  0
   41.9810   24.1760   35.5610 C   0  0  0  0  0  0  0  0  0  0  0  0
   41.3760   22.9960   35.9390 C   0  0  0  0  0  0  0  0  0  0  0  0
   39.5730   23.2890   35.5540 S   0  0  0  0  0  0  0  0  0  0  0  0
   43.4050   24.1850   35.7710 N   0  0  0  0  0  0  0  0  0  0  0  0
   43.8330   24.7100   36.9370 C   0  0  0  0  0  0  0  0  0  0  0  0
   45.2030   24.7330   37.1730 C   0  0  0  0  0  0  0  0  0  0  0  0
   45.7150   25.3100   38.4570 C   0  0  0  0  0  0  0  0  0  0  0  0
   46.0880   24.2250   36.2200 C   0  0  0  0  0  0  0  0  0  0  0  0
   47.3180   24.2560   36.4510 O   0  0  0  0  0  0  0  0  0  0  0  0
   45.5510   23.7250   35.0940 N   0  0  0  0  0  0  0  0  0  0  0  0
   44.2360   23.6860   34.8330 C   0  0  0  0  0  0  0  0  0  0  0  0
   43.7880   23.2040   33.7580 O   0  0  0  0  0  0  0  0  0  0  0  0
   38.5440   26.0400   33.1010 C   0  0  0  0  0  0  0  0  0  0  0  0
   38.9080   25.8840   34.4360 C   0  0  0  0  0  0  0  0  0  0  0  0
   38.3160   26.7010   35.4180 C   0  0  0  0  0  0  0  0  0  0  0  0
   37.4080   27.6030   34.9640 N   0  0  0  0  0  0  0  0  0  0  0  0
   37.0690   27.7370   33.6550 C   0  0  0  0  0  0  0  0  0  0  0  0
   37.6480   26.9490   32.7530 N   0  0  0  0  0  0  0  0  0  0  0  0
   36.0640   28.7560   33.3250 C   0  0  0  0  0  0  0  0  0  0  0  0
   35.2210   29.1110   34.3250 C   0  0  0  0  0  0  0  0  0  0  0  0
   34.1070   30.3910   33.5260 S   0  0  0  0  0  0  0  0  0  0  0  0
   35.0870   30.1620   31.8830 C   0  0  0  0  0  0  0  0  0  0  0  0
   35.8200   29.3930   32.2210 N   0  0  0  0  0  0  0  0  0  0  0  0
   34.7810   30.8810   30.7050 N   0  0  0  0  0  0  0  0  0  0  0  0
   41.7960   21.7600   36.4860 C   0  0  0  0  0  0  0  0  0  0  0  0
   41.5590   21.4590   37.6500 O   0  0  0  0  0  0  0  0  0  0  0  0
   42.5290   20.8170   35.6560 N   0  0  0  0  0  0  0  0  0  0  0  0
   41.6779   26.1375   34.7365 H   0  0  0  0  0  0  0  0  0  0  0  0
   43.1221   25.1068   37.6767 H   0  0  0  0  0  0  0  0  0  0  0  0
   45.2503   24.7863   39.3054 H   0  0  0  0  0  0  0  0  0  0  0  0
   46.8071   25.1876   38.5043 H   0  0  0  0  0  0  0  0  0  0  0  0
   45.4636   26.3798   38.5043 H   0  0  0  0  0  0  0  0  0  0  0  0
   46.1929   23.3460   34.3832 H   0  0  0  0  0  0  0  0  0  0  0  0
   39.0043   25.4035   32.3310 H   0  0  0  0  0  0  0  0  0  0  0  0
   38.5724   26.6143   36.4842 H   0  0  0  0  0  0  0  0  0  0  0  0
   35.1960   28.7373   35.3593 H   0  0  0  0  0  0  0  0  0  0  0  0
   34.0053   31.5586   30.7021 H   0  0  0  0  0  0  0  0  0  0  0  0
   35.3337   30.7273   29.8496 H   0  0  0  0  0  0  0  0  0  0  0  0
   42.8370   19.9161   36.0490 H   0  0  0  0  0  0  0  0  0  0  0  0
   42.7401   21.0501   34.6752 H   0  0  0  0  0  0  0  0  0  0  0  0
  1  2  2  0
  1  5  1  0
  2  3  1  0
  3  6  1  0
  3  4  2  0
  4 27  1  0
  5  4  1  0
  6  7  1  0
  7  8  2  0
  8  9  1  0
 10 11  2  0
 10  8  1  0
 12 10  1  0
 13 12  1  0
 13  6  1  0
 14 13  2  0
 15 16  2  0
 16  1  1  0
 16 17  1  0
 18 17  2  0
 19 18  1  0
 20 15  1  0
 20 19  2  0
 21 19  1  0
 21 22  2  0
 23 22  1  0
 24 25  2  0
 24 23  1  0
 25 21  1  0
 26 24  1  0
 27 28  2  0
 29 27  1  0
  2 30  1  0
  7 31  1  0
  9 32  1  0
  9 33  1  0
  9 34  1  0
 12 35  1  0
 15 36  1  0
 17 37  1  0
 22 38  1  0
 26 39  1  0
 26 40  1  0
 29 41  1  0
 29 42  1  0
M  ISO  8  30  14  31  14  32   8  33   8  34   8  35   9  36  14  37  14
M  ISO  1  38  14
M  END
>  <minimizedAffinity>  (1) 
-5.4448123

>  <minimizedRMSD>  (1) 
9.44515514

$$$$
