
     RDKit          3D

 45 49  0  0  0  0  0  0  0  0999 V2000
   40.7740   25.8460   33.5230 C   0  0  0  0  0  0  0  0  0  0  0  0
   39.8880   26.9070   33.5180 C   0  0  0  0  0  0  0  0  0  0  0  0
   38.6850   26.6830   32.9510 C   0  0  0  0  0  0  0  0  0  0  0  0
   38.4140   25.4380   32.4160 C   0  0  0  0  0  0  0  0  0  0  0  0
   39.9880   24.4680   32.7340 S   0  0  0  0  0  0  0  0  0  0  0  0
   37.5760   27.6480   32.8260 C   0  0  0  0  0  0  0  0  0  0  0  0
   36.6060   27.8870   33.7790 C   0  0  0  0  0  0  0  0  0  0  0  0
   35.6280   28.8260   33.5150 C   0  0  0  0  0  0  0  0  0  0  0  0
   35.6290   29.5030   32.3220 C   0  0  0  0  0  0  0  0  0  0  0  0
   36.5900   29.2750   31.3600 C   0  0  0  0  0  0  0  0  0  0  0  0
   36.5580   29.9760   30.1710 C   0  0  0  0  0  0  0  0  0  0  0  0
   37.5110   29.7620   29.1970 C   0  0  0  0  0  0  0  0  0  0  0  0
   38.5000   28.8290   29.4370 C   0  0  0  0  0  0  0  0  0  0  0  0
   38.5230   28.1330   30.6270 C   0  0  0  0  0  0  0  0  0  0  0  0
   37.5680   28.3370   31.6220 C   0  0  0  0  0  0  0  0  0  0  0  0
   42.5750   25.0140   35.1000 C   0  0  0  0  0  0  0  0  0  0  0  0
   42.1110   25.9010   34.0980 C   0  0  0  0  0  0  0  0  0  0  0  0
   42.9400   26.8950   33.6050 C   0  0  0  0  0  0  0  0  0  0  0  0
   44.1810   26.9300   34.1530 N   0  0  0  0  0  0  0  0  0  0  0  0
   44.6250   26.0780   35.1150 C   0  0  0  0  0  0  0  0  0  0  0  0
   43.8020   25.1310   35.5690 N   0  0  0  0  0  0  0  0  0  0  0  0
   45.9940   26.2520   35.5980 C   0  0  0  0  0  0  0  0  0  0  0  0
   46.7220   27.2120   34.9800 C   0  0  0  0  0  0  0  0  0  0  0  0
   48.3740   27.1400   35.8790 S   0  0  0  0  0  0  0  0  0  0  0  0
   47.6900   25.7360   36.9710 C   0  0  0  0  0  0  0  0  0  0  0  0
   46.6700   25.6630   36.5350 N   0  0  0  0  0  0  0  0  0  0  0  0
   48.4460   25.1140   37.9940 N   0  0  0  0  0  0  0  0  0  0  0  0
   37.3240   24.8450   31.7480 C   0  0  0  0  0  0  0  0  0  0  0  0
   36.3400   24.4230   32.3890 O   0  0  0  0  0  0  0  0  0  0  0  0
   37.3240   24.7110   30.3070 N   0  0  0  0  0  0  0  0  0  0  0  0
   40.1503   27.8825   33.9535 H   0  0  0  0  0  0  0  0  0  0  0  0
   36.6119   27.3388   34.7326 H   0  0  0  0  0  0  0  0  0  0  0  0
   34.8474   29.0311   34.2624 H   0  0  0  0  0  0  0  0  0  0  0  0
   34.8426   30.2472   32.1278 H   0  0  0  0  0  0  0  0  0  0  0  0
   35.7618   30.7151   29.9981 H   0  0  0  0  0  0  0  0  0  0  0  0
   37.4836   30.3220   28.2506 H   0  0  0  0  0  0  0  0  0  0  0  0
   39.2720   28.6403   28.6765 H   0  0  0  0  0  0  0  0  0  0  0  0
   39.3197   27.3937   30.7966 H   0  0  0  0  0  0  0  0  0  0  0  0
   41.9114   24.2269   35.4873 H   0  0  0  0  0  0  0  0  0  0  0  0
   42.6167   27.6029   32.8276 H   0  0  0  0  0  0  0  0  0  0  0  0
   46.4212   27.8730   34.1538 H   0  0  0  0  0  0  0  0  0  0  0  0
   48.0284   24.3587   38.5562 H   0  0  0  0  0  0  0  0  0  0  0  0
   49.4135   25.4168   38.1760 H   0  0  0  0  0  0  0  0  0  0  0  0
   38.1259   25.0524   29.7580 H   0  0  0  0  0  0  0  0  0  0  0  0
   36.5221   24.2742   29.8304 H   0  0  0  0  0  0  0  0  0  0  0  0
  1 17  1  0
  2  1  2  0
  3  2  1  0
  4  5  1  0
  4  3  2  0
  5  1  1  0
  6  3  1  0
  6  7  2  0
  8  7  1  0
  9  8  2  0
 10 15  2  0
 10  9  1  0
 11 10  1  0
 12 13  1  0
 12 11  2  0
 13 14  2  0
 14 15  1  0
 15  6  1  0
 16 21  2  0
 17 16  1  0
 18 17  2  0
 18 19  1  0
 19 20  2  0
 20 21  1  0
 20 22  1  0
 22 26  1  0
 23 22  2  0
 23 24  1  0
 24 25  1  0
 25 27  1  0
 26 25  2  0
 28 29  2  0
 28  4  1  0
 30 28  1  0
  2 31  1  0
  7 32  1  0
  8 33  1  0
  9 34  1  0
 11 35  1  0
 12 36  1  0
 13 37  1  0
 14 38  1  0
 16 39  1  0
 18 40  1  0
 23 41  1  0
 27 42  1  0
 27 43  1  0
 30 44  1  0
 30 45  1  0
M  ISO  8  31  14  32  14  33  14  34  14  35  14  36  14  37  14  38  14
M  ISO  3  39  14  40  14  41  14
M  END
>  <minimizedAffinity>  (1) 
-5.90683365

>  <minimizedRMSD>  (1) 
5.49010658

$$$$
