
     RDKit          3D

 36 39  0  0  0  0  0  0  0  0999 V2000
   37.9410   25.3830   35.8430 C   0  0  0  0  0  0  0  0  0  0  0  0
   38.1380   26.1290   34.6840 C   0  0  0  0  0  0  0  0  0  0  0  0
   39.2520   25.8950   33.8680 C   0  0  0  0  0  0  0  0  0  0  0  0
   40.0860   24.9100   34.2980 N   0  0  0  0  0  0  0  0  0  0  0  0
   39.8800   24.1900   35.4330 C   0  0  0  0  0  0  0  0  0  0  0  0
   38.8020   24.4450   36.1860 N   0  0  0  0  0  0  0  0  0  0  0  0
   40.8700   23.1580   35.7630 C   0  0  0  0  0  0  0  0  0  0  0  0
   41.8560   22.9700   34.8630 C   0  0  0  0  0  0  0  0  0  0  0  0
   42.8850   21.6010   35.6280 S   0  0  0  0  0  0  0  0  0  0  0  0
   41.6880   21.5570   37.1110 C   0  0  0  0  0  0  0  0  0  0  0  0
   40.9980   22.3600   36.7680 N   0  0  0  0  0  0  0  0  0  0  0  0
   41.8400   20.6740   38.1950 N   0  0  0  0  0  0  0  0  0  0  0  0
   37.2560   27.1940   34.2160 C   0  0  0  0  0  0  0  0  0  0  0  0
   36.8290   28.2600   34.9820 C   0  0  0  0  0  0  0  0  0  0  0  0
   36.0250   29.1650   34.3940 C   0  0  0  0  0  0  0  0  0  0  0  0
   35.6750   28.9780   33.0750 C   0  0  0  0  0  0  0  0  0  0  0  0
   36.5530   27.3940   32.6210 S   0  0  0  0  0  0  0  0  0  0  0  0
   35.5460   30.3390   35.1690 C   0  0  0  0  0  0  0  0  0  0  0  0
   34.2440   30.6960   35.4490 C   0  0  0  0  0  0  0  0  0  0  0  0
   34.1630   31.8480   36.1950 C   0  0  0  0  0  0  0  0  0  0  0  0
   35.4860   32.1550   36.3440 C   0  0  0  0  0  0  0  0  0  0  0  0
   36.2240   31.2750   35.7480 O   0  0  0  0  0  0  0  0  0  0  0  0
   34.8750   29.6520   32.1230 C   0  0  0  0  0  0  0  0  0  0  0  0
   35.3820   30.1910   31.1280 O   0  0  0  0  0  0  0  0  0  0  0  0
   33.4570   29.7420   32.2660 N   0  0  0  0  0  0  0  0  0  0  0  0
   37.0625   25.5771   36.4759 H   0  0  0  0  0  0  0  0  0  0  0  0
   39.4389   26.4660   32.9466 H   0  0  0  0  0  0  0  0  0  0  0  0
   42.0181   23.4936   33.9093 H   0  0  0  0  0  0  0  0  0  0  0  0
   41.1641   20.6913   38.9720 H   0  0  0  0  0  0  0  0  0  0  0  0
   42.6272   20.0100   38.2119 H   0  0  0  0  0  0  0  0  0  0  0  0
   37.1344   28.3658   36.0334 H   0  0  0  0  0  0  0  0  0  0  0  0
   33.3674   30.1228   35.1128 H   0  0  0  0  0  0  0  0  0  0  0  0
   33.2750   32.3781   36.5698 H   0  0  0  0  0  0  0  0  0  0  0  0
   35.8697   33.0274   36.8933 H   0  0  0  0  0  0  0  0  0  0  0  0
   32.8985   30.2390   31.5575 H   0  0  0  0  0  0  0  0  0  0  0  0
   32.9928   29.3099   33.0776 H   0  0  0  0  0  0  0  0  0  0  0  0
  1  6  2  0
  2  1  1  0
  3  4  1  0
  3  2  2  0
  4  5  2  0
  5  7  1  0
  5  6  1  0
  7 11  1  0
  8  9  1  0
  8  7  2  0
  9 10  1  0
 10 12  1  0
 11 10  2  0
 13  2  1  0
 13 14  2  0
 15 14  1  0
 15 18  1  0
 16 15  2  0
 17 16  1  0
 17 13  1  0
 18 19  2  0
 18 22  1  0
 19 20  1  0
 20 21  2  0
 22 21  1  0
 23 25  1  0
 23 16  1  0
 24 23  2  0
  1 26  1  0
  3 27  1  0
  8 28  1  0
 12 29  1  0
 12 30  1  0
 14 31  1  0
 19 32  1  0
 20 33  1  0
 21 34  1  0
 25 35  1  0
 25 36  1  0
M  ISO  7  26  14  27  14  28  14  31  14  32  14  33  14  34  14
M  END
>  <minimizedAffinity>  (1) 
-5.50991821

>  <minimizedRMSD>  (1) 
2.51406169

$$$$
