
     RDKit          3D

 40 43  0  0  0  0  0  0  0  0999 V2000
   36.2900   28.2390   33.8250 C   0  0  0  0  0  0  0  0  0  0  0  0
   35.9360   29.3410   34.5830 C   0  0  0  0  0  0  0  0  0  0  0  0
   35.0970   30.2370   34.0130 C   0  0  0  0  0  0  0  0  0  0  0  0
   34.6550   29.9960   32.7280 C   0  0  0  0  0  0  0  0  0  0  0  0
   35.4770   28.3780   32.2650 S   0  0  0  0  0  0  0  0  0  0  0  0
   34.5900   31.4410   34.5810 N   0  0  0  0  0  0  0  0  0  0  0  0
   35.1480   32.6560   34.3750 C   0  0  0  0  0  0  0  0  0  0  0  0
   34.6200   33.8100   34.9500 C   0  0  0  0  0  0  0  0  0  0  0  0
   33.4940   33.6590   35.7460 C   0  0  0  0  0  0  0  0  0  0  0  0
   32.9990   34.8860   36.3080 N   0  0  0  0  0  0  0  0  0  0  0  0
   32.9250   32.4440   35.9590 N   0  0  0  0  0  0  0  0  0  0  0  0
   33.4840   31.3480   35.3710 C   0  0  0  0  0  0  0  0  0  0  0  0
   32.8820   30.2710   35.6310 O   0  0  0  0  0  0  0  0  0  0  0  0
   37.9650   27.2580   35.4590 C   0  0  0  0  0  0  0  0  0  0  0  0
   37.1760   27.1810   34.2860 C   0  0  0  0  0  0  0  0  0  0  0  0
   37.2150   26.0530   33.4810 C   0  0  0  0  0  0  0  0  0  0  0  0
   38.0500   25.0640   33.9080 N   0  0  0  0  0  0  0  0  0  0  0  0
   38.8060   25.1440   35.0360 C   0  0  0  0  0  0  0  0  0  0  0  0
   38.7450   26.2470   35.7910 N   0  0  0  0  0  0  0  0  0  0  0  0
   39.6640   23.9960   35.3550 C   0  0  0  0  0  0  0  0  0  0  0  0
   40.4500   23.5450   34.3490 C   0  0  0  0  0  0  0  0  0  0  0  0
   41.3730   22.1080   35.1220 S   0  0  0  0  0  0  0  0  0  0  0  0
   40.4380   22.4340   36.7700 C   0  0  0  0  0  0  0  0  0  0  0  0
   39.8260   23.3030   36.4390 N   0  0  0  0  0  0  0  0  0  0  0  0
   40.6380   21.6590   37.9370 N   0  0  0  0  0  0  0  0  0  0  0  0
   33.8090   30.6540   31.7940 C   0  0  0  0  0  0  0  0  0  0  0  0
   32.5880   30.6180   31.9050 O   0  0  0  0  0  0  0  0  0  0  0  0
   34.3990   31.3850   30.6830 N   0  0  0  0  0  0  0  0  0  0  0  0
   36.3197   29.4827   35.6041 H   0  0  0  0  0  0  0  0  0  0  0  0
   36.0410   32.7348   33.7375 H   0  0  0  0  0  0  0  0  0  0  0  0
   35.0756   34.7967   34.7804 H   0  0  0  0  0  0  0  0  0  0  0  0
   32.1659   34.8759   36.9136 H   0  0  0  0  0  0  0  0  0  0  0  0
   33.4774   35.7753   36.1051 H   0  0  0  0  0  0  0  0  0  0  0  0
   37.9279   28.1574   36.0912 H   0  0  0  0  0  0  0  0  0  0  0  0
   36.6151   25.9626   32.5634 H   0  0  0  0  0  0  0  0  0  0  0  0
   40.5284   23.9304   33.3217 H   0  0  0  0  0  0  0  0  0  0  0  0
   40.1113   21.8752   38.7953 H   0  0  0  0  0  0  0  0  0  0  0  0
   41.3103   20.8787   37.9281 H   0  0  0  0  0  0  0  0  0  0  0  0
   35.4229   31.4235   30.5776 H   0  0  0  0  0  0  0  0  0  0  0  0
   33.7928   31.8640   30.0018 H   0  0  0  0  0  0  0  0  0  0  0  0
  1 15  1  0
  1  2  2  0
  3  6  1  0
  3  2  1  0
  4  3  2  0
  5  4  1  0
  5  1  1  0
  6 12  1  0
  7  6  1  0
  7  8  2  0
  8  9  1  0
  9 11  2  0
  9 10  1  0
 12 13  2  0
 12 11  1  0
 14 19  2  0
 15 14  1  0
 16 17  1  0
 16 15  2  0
 17 18  2  0
 18 20  1  0
 18 19  1  0
 20 24  1  0
 21 22  1  0
 21 20  2  0
 22 23  1  0
 23 25  1  0
 24 23  2  0
 26 27  2  0
 26  4  1  0
 28 26  1  0
  2 29  1  0
  7 30  1  0
  8 31  1  0
 10 32  1  0
 10 33  1  0
 14 34  1  0
 16 35  1  0
 21 36  1  0
 25 37  1  0
 25 38  1  0
 28 39  1  0
 28 40  1  0
M  ISO  6  29  14  30  14  31  14  34  14  35  14  36  14
M  END
>  <minimizedAffinity>  (1) 
-5.87934208

>  <minimizedRMSD>  (1) 
3.98759389

$$$$
