
     RDKit          3D

 36 39  0  0  0  0  0  0  0  0999 V2000
   37.8190   25.1720   34.3040 C   0  0  0  0  0  0  0  0  0  0  0  0
   38.1260   26.5330   34.2600 C   0  0  0  0  0  0  0  0  0  0  0  0
   39.3790   26.9790   34.6850 C   0  0  0  0  0  0  0  0  0  0  0  0
   40.2270   26.0030   35.1250 N   0  0  0  0  0  0  0  0  0  0  0  0
   39.9050   24.6840   35.1590 C   0  0  0  0  0  0  0  0  0  0  0  0
   38.6940   24.2900   34.7440 N   0  0  0  0  0  0  0  0  0  0  0  0
   40.9250   23.7590   35.6650 C   0  0  0  0  0  0  0  0  0  0  0  0
   42.1750   23.9200   35.1720 C   0  0  0  0  0  0  0  0  0  0  0  0
   43.1680   22.5840   36.0330 S   0  0  0  0  0  0  0  0  0  0  0  0
   41.5710   22.0390   36.9560 C   0  0  0  0  0  0  0  0  0  0  0  0
   40.8690   22.7830   36.5170 N   0  0  0  0  0  0  0  0  0  0  0  0
   41.5250   20.9640   37.8900 N   0  0  0  0  0  0  0  0  0  0  0  0
   37.2260   27.5820   33.8000 C   0  0  0  0  0  0  0  0  0  0  0  0
   36.4570   28.3750   34.6490 C   0  0  0  0  0  0  0  0  0  0  0  0
   35.6750   29.3040   34.0470 C   0  0  0  0  0  0  0  0  0  0  0  0
   35.6870   29.4060   32.6710 C   0  0  0  0  0  0  0  0  0  0  0  0
   36.8990   28.0880   32.1480 S   0  0  0  0  0  0  0  0  0  0  0  0
   35.0450   30.2050   31.6920 C   0  0  0  0  0  0  0  0  0  0  0  0
   35.6750   30.7800   30.8110 O   0  0  0  0  0  0  0  0  0  0  0  0
   33.6020   30.3500   31.7290 N   0  0  0  0  0  0  0  0  0  0  0  0
   34.8000   30.2340   34.6820 N   0  0  0  0  0  0  0  0  0  0  0  0
   33.5830   29.7480   35.0480 C   0  0  0  0  0  0  0  0  0  0  0  0
   32.8880   30.7800   35.6370 C   0  0  0  0  0  0  0  0  0  0  0  0
   33.7080   31.8430   35.6030 N   0  0  0  0  0  0  0  0  0  0  0  0
   34.8730   31.5150   35.0220 C   0  0  0  0  0  0  0  0  0  0  0  0
   36.8299   24.8297   33.9657 H   0  0  0  0  0  0  0  0  0  0  0  0
   39.6631   28.0415   34.6667 H   0  0  0  0  0  0  0  0  0  0  0  0
   42.5257   24.6608   34.4384 H   0  0  0  0  0  0  0  0  0  0  0  0
   40.6371   20.7208   38.3520 H   0  0  0  0  0  0  0  0  0  0  0  0
   42.3796   20.4301   38.1032 H   0  0  0  0  0  0  0  0  0  0  0  0
   36.4829   28.2544   35.7421 H   0  0  0  0  0  0  0  0  0  0  0  0
   33.1242   30.9280   31.0229 H   0  0  0  0  0  0  0  0  0  0  0  0
   33.0553   29.8749   32.4613 H   0  0  0  0  0  0  0  0  0  0  0  0
   33.2211   28.7198   34.9004 H   0  0  0  0  0  0  0  0  0  0  0  0
   31.8695   30.7418   36.0508 H   0  0  0  0  0  0  0  0  0  0  0  0
   35.7302   32.1845   34.8579 H   0  0  0  0  0  0  0  0  0  0  0  0
  1  6  2  0
  2  1  1  0
  2  3  2  0
  3  4  1  0
  4  5  2  0
  5  7  1  0
  6  5  1  0
  7 11  1  0
  8  7  2  0
  8  9  1  0
  9 10  1  0
 10 12  1  0
 11 10  2  0
 13  2  1  0
 13 14  2  0
 15 14  1  0
 15 21  1  0
 16 15  2  0
 17 16  1  0
 17 13  1  0
 18 20  1  0
 18 16  1  0
 19 18  2  0
 21 25  1  0
 21 22  1  0
 22 23  2  0
 24 23  1  0
 25 24  2  0
  1 26  1  0
  3 27  1  0
  8 28  1  0
 12 29  1  0
 12 30  1  0
 14 31  1  0
 20 32  1  0
 20 33  1  0
 22 34  1  0
 23 35  1  0
 25 36  1  0
M  ISO  7  26  14  27  14  28  14  31  14  34  14  35  14  36  14
M  END
>  <minimizedAffinity>  (1) 
-5.04204178

>  <minimizedRMSD>  (1) 
3.05206585

$$$$
