
     RDKit          3D

 35 38  0  0  0  0  0  0  0  0999 V2000
   38.1340   24.9460   35.3890 C   0  0  0  0  0  0  0  0  0  0  0  0
   38.5150   25.9300   34.4760 C   0  0  0  0  0  0  0  0  0  0  0  0
   39.8400   25.9790   34.0050 C   0  0  0  0  0  0  0  0  0  0  0  0
   40.6750   25.0290   34.4950 N   0  0  0  0  0  0  0  0  0  0  0  0
   40.2780   24.0750   35.3910 C   0  0  0  0  0  0  0  0  0  0  0  0
   39.0110   24.0560   35.8170 N   0  0  0  0  0  0  0  0  0  0  0  0
   41.2960   23.1200   35.8450 C   0  0  0  0  0  0  0  0  0  0  0  0
   42.4830   23.1570   35.1960 C   0  0  0  0  0  0  0  0  0  0  0  0
   43.4800   21.8230   36.0610 S   0  0  0  0  0  0  0  0  0  0  0  0
   41.9920   21.4650   37.1970 C   0  0  0  0  0  0  0  0  0  0  0  0
   41.2820   22.2220   36.7810 N   0  0  0  0  0  0  0  0  0  0  0  0
   41.9990   20.4830   38.2110 N   0  0  0  0  0  0  0  0  0  0  0  0
   37.6410   26.9680   33.9410 C   0  0  0  0  0  0  0  0  0  0  0  0
   36.8660   27.8170   34.7450 C   0  0  0  0  0  0  0  0  0  0  0  0
   36.1150   28.7240   34.0790 C   0  0  0  0  0  0  0  0  0  0  0  0
   36.1570   28.7580   32.7010 C   0  0  0  0  0  0  0  0  0  0  0  0
   37.3600   27.3920   32.2600 S   0  0  0  0  0  0  0  0  0  0  0  0
   35.5500   29.5270   31.6770 C   0  0  0  0  0  0  0  0  0  0  0  0
   36.1360   29.7590   30.6240 O   0  0  0  0  0  0  0  0  0  0  0  0
   34.2070   30.0560   31.8650 N   0  0  0  0  0  0  0  0  0  0  0  0
   35.2460   29.6960   34.6560 N   0  0  0  0  0  0  0  0  0  0  0  0
   35.6410   30.8950   35.1590 C   0  0  0  0  0  0  0  0  0  0  0  0
   34.5160   31.4960   35.5990 N   0  0  0  0  0  0  0  0  0  0  0  0
   33.4540   30.7010   35.3780 C   0  0  0  0  0  0  0  0  0  0  0  0
   33.9240   29.5800   34.7880 N   0  0  0  0  0  0  0  0  0  0  0  0
   37.0971   24.9113   35.7545 H   0  0  0  0  0  0  0  0  0  0  0  0
   40.1772   26.7394   33.2852 H   0  0  0  0  0  0  0  0  0  0  0  0
   42.7886   23.8094   34.3648 H   0  0  0  0  0  0  0  0  0  0  0  0
   41.1615   20.3373   38.7926 H   0  0  0  0  0  0  0  0  0  0  0  0
   42.8416   19.9122   38.3693 H   0  0  0  0  0  0  0  0  0  0  0  0
   36.8687   27.7498   35.8429 H   0  0  0  0  0  0  0  0  0  0  0  0
   33.7649   30.6150   31.1214 H   0  0  0  0  0  0  0  0  0  0  0  0
   33.6988   29.8713   32.7416 H   0  0  0  0  0  0  0  0  0  0  0  0
   36.6656   31.2931   35.1991 H   0  0  0  0  0  0  0  0  0  0  0  0
   32.4058   30.9208   35.6290 H   0  0  0  0  0  0  0  0  0  0  0  0
  1  6  2  0
  2  1  1  0
  3  2  2  0
  3  4  1  0
  4  5  2  0
  5  6  1  0
  5  7  1  0
  7 11  1  0
  8  7  2  0
  8  9  1  0
  9 10  1  0
 10 12  1  0
 11 10  2  0
 13  2  1  0
 13 14  2  0
 15 21  1  0
 15 14  1  0
 16 15  2  0
 17 16  1  0
 17 13  1  0
 18 20  1  0
 18 16  1  0
 19 18  2  0
 21 25  1  0
 21 22  1  0
 22 23  2  0
 24 23  1  0
 25 24  2  0
  1 26  1  0
  3 27  1  0
  8 28  1  0
 12 29  1  0
 12 30  1  0
 14 31  1  0
 20 32  1  0
 20 33  1  0
 22 34  1  0
 24 35  1  0
M  ISO  6  26  14  27  14  28  14  31  14  34  14  35  14
M  END
>  <minimizedAffinity>  (1) 
-5.27603531

>  <minimizedRMSD>  (1) 
2.44332218

$$$$
