
     RDKit          3D

 29 30  0  0  1  0  0  0  0  0999 V2000
   41.2010   23.2110   35.6340 C   0  0  2  0  0  0  0  0  0  0  0  0
   39.9810   23.5030   36.4580 C   0  0  0  0  0  0  0  0  0  0  0  0
   38.9590   24.3150   35.9300 C   0  0  0  0  0  0  0  0  0  0  0  0
   37.8410   24.5640   36.7180 C   0  0  0  0  0  0  0  0  0  0  0  0
   37.7960   24.0020   37.9670 N   0  0  0  0  0  0  0  0  0  0  0  0
   38.7890   23.2290   38.4460 C   0  0  0  0  0  0  0  0  0  0  0  0
   39.8790   22.9800   37.6930 N   0  0  0  0  0  0  0  0  0  0  0  0
   40.8840   21.9200   34.9120 C   0  0  0  0  0  0  0  0  0  0  0  0
   42.3740   23.0440   36.5620 C   0  0  0  0  0  0  0  0  0  0  0  0
   43.3490   24.1270   36.3210 C   0  0  0  0  0  0  0  0  0  0  0  0
   43.1790   24.8030   35.1180 C   0  0  0  0  0  0  0  0  0  0  0  0
   44.0440   25.8450   34.7860 C   0  0  0  0  0  0  0  0  0  0  0  0
   45.0600   26.2270   35.6100 C   0  0  0  0  0  0  0  0  0  0  0  0
   45.2160   25.5380   36.8130 C   0  0  0  0  0  0  0  0  0  0  0  0
   44.3720   24.4990   37.1680 C   0  0  0  0  0  0  0  0  0  0  0  0
   41.4530   24.0092   34.9203 H   0  0  0  0  0  0  0  0  0  0  0  0
   39.0430   24.7416   34.9196 H   0  0  0  0  0  0  0  0  0  0  0  0
   37.0173   25.1933   36.3499 H   0  0  0  0  0  0  0  0  0  0  0  0
   38.7105   22.7991   39.4555 H   0  0  0  0  0  0  0  0  0  0  0  0
   40.6891   21.1264   35.6484 H   0  0  0  0  0  0  0  0  0  0  0  0
   39.9939   22.0616   34.2813 H   0  0  0  0  0  0  0  0  0  0  0  0
   41.7384   21.6333   34.2813 H   0  0  0  0  0  0  0  0  0  0  0  0
   42.0262   23.0887   37.6046 H   0  0  0  0  0  0  0  0  0  0  0  0
   42.8528   22.0711   36.3772 H   0  0  0  0  0  0  0  0  0  0  0  0
   42.3674   24.5176   34.4326 H   0  0  0  0  0  0  0  0  0  0  0  0
   43.9023   26.3737   33.8319 H   0  0  0  0  0  0  0  0  0  0  0  0
   45.7347   27.0513   35.3357 H   0  0  0  0  0  0  0  0  0  0  0  0
   46.0287   25.8269   37.4958 H   0  0  0  0  0  0  0  0  0  0  0  0
   44.5171   23.9720   38.1226 H   0  0  0  0  0  0  0  0  0  0  0  0
  1  2  1  0
  1  9  1  0
  2  7  1  0
  3  2  2  0
  3  4  1  0
  4  5  2  0
  5  6  1  0
  7  6  2  0
  8  1  1  0
 10  9  1  0
 10 15  1  0
 11 10  2  0
 12 11  1  0
 12 13  2  0
 13 14  1  0
 14 15  2  0
  1 16  1  6
  3 17  1  0
  4 18  1  0
  6 19  1  0
  8 20  1  0
  8 21  1  0
  8 22  1  0
  9 23  1  0
  9 24  1  0
 11 25  1  0
 12 26  1  0
 13 27  1  0
 14 28  1  0
 15 29  1  0
M  ISO  8  16   8  17  14  18  14  19  14  20   8  21   8  22   8  23   8
M  ISO  6  24   8  25  14  26  14  27  14  28  14  29  14
M  END
>  <minimizedAffinity>  (1) 
-4.03805208

>  <minimizedRMSD>  (1) 
5.12191963

$$$$
