
     RDKit          3D

 31 33  0  0  0  0  0  0  0  0999 V2000
   38.3770   25.1340   35.5000 C   0  0  0  0  0  0  0  0  0  0  0  0
   38.6980   25.8800   34.3440 C   0  0  0  0  0  0  0  0  0  0  0  0
   39.9090   25.6830   33.7050 C   0  0  0  0  0  0  0  0  0  0  0  0
   40.7340   24.7550   34.2510 N   0  0  0  0  0  0  0  0  0  0  0  0
   40.4100   24.0380   35.3730 C   0  0  0  0  0  0  0  0  0  0  0  0
   39.2440   24.2490   35.9620 N   0  0  0  0  0  0  0  0  0  0  0  0
   41.4000   23.0570   35.8450 C   0  0  0  0  0  0  0  0  0  0  0  0
   42.5810   23.0300   35.1580 C   0  0  0  0  0  0  0  0  0  0  0  0
   43.5270   21.6610   36.0420 S   0  0  0  0  0  0  0  0  0  0  0  0
   42.0260   21.4080   37.2220 C   0  0  0  0  0  0  0  0  0  0  0  0
   41.3460   22.1810   36.8110 N   0  0  0  0  0  0  0  0  0  0  0  0
   42.0340   20.4400   38.2470 N   0  0  0  0  0  0  0  0  0  0  0  0
   37.8220   26.8860   33.7530 C   0  0  0  0  0  0  0  0  0  0  0  0
   36.8820   27.6120   34.4530 C   0  0  0  0  0  0  0  0  0  0  0  0
   36.1660   28.5020   33.7240 C   0  0  0  0  0  0  0  0  0  0  0  0
   36.4040   28.6300   32.3740 C   0  0  0  0  0  0  0  0  0  0  0  0
   37.7560   27.3990   32.0640 S   0  0  0  0  0  0  0  0  0  0  0  0
   35.8860   29.4260   31.3350 C   0  0  0  0  0  0  0  0  0  0  0  0
   36.3580   29.3690   30.1910 O   0  0  0  0  0  0  0  0  0  0  0  0
   34.7980   30.3310   31.5530 N   0  0  0  0  0  0  0  0  0  0  0  0
   35.1610   29.3010   34.4040 C   0  0  0  0  0  0  0  0  0  0  0  0
   34.9700   30.5060   34.6260 O   0  0  0  0  0  0  0  0  0  0  0  0
   37.4150   25.2879   36.0108 H   0  0  0  0  0  0  0  0  0  0  0  0
   40.1877   26.2481   32.8033 H   0  0  0  0  0  0  0  0  0  0  0  0
   42.8984   23.6494   34.3062 H   0  0  0  0  0  0  0  0  0  0  0  0
   41.2132   20.3321   38.8599 H   0  0  0  0  0  0  0  0  0  0  0  0
   42.8606   19.8407   38.3830 H   0  0  0  0  0  0  0  0  0  0  0  0
   36.7235   27.4775   35.5332 H   0  0  0  0  0  0  0  0  0  0  0  0
   34.4388   30.9016   30.7743 H   0  0  0  0  0  0  0  0  0  0  0  0
   34.3746   30.4114   32.4885 H   0  0  0  0  0  0  0  0  0  0  0  0
   34.3638   28.6757   34.8325 H   0  0  0  0  0  0  0  0  0  0  0  0
  1  6  2  0
  2  1  1  0
  3  4  1  0
  3  2  2  0
  4  5  2  0
  5  7  1  0
  5  6  1  0
  7 11  1  0
  8  7  2  0
  8  9  1  0
  9 10  1  0
 10 12  1  0
 11 10  2  0
 13  2  1  0
 13 14  2  0
 15 21  1  0
 15 14  1  0
 16 15  2  0
 17 16  1  0
 17 13  1  0
 18 20  1  0
 18 16  1  0
 19 18  2  0
 21 22  2  0
  1 23  1  0
  3 24  1  0
  8 25  1  0
 12 26  1  0
 12 27  1  0
 14 28  1  0
 20 29  1  0
 20 30  1  0
 21 31  1  0
M  ISO  5  23  14  24  14  25  14  28  14  31   6
M  END
>  <minimizedAffinity>  (1) 
-4.78310061

>  <minimizedRMSD>  (1) 
2.32449889

$$$$
