
     RDKit          3D

 40 43  0  0  0  0  0  0  0  0999 V2000
   36.1560   28.3820   33.7720 C   0  0  0  0  0  0  0  0  0  0  0  0
   35.9520   29.5720   34.4940 C   0  0  0  0  0  0  0  0  0  0  0  0
   35.1240   30.4830   33.9180 C   0  0  0  0  0  0  0  0  0  0  0  0
   34.5650   30.1800   32.7070 C   0  0  0  0  0  0  0  0  0  0  0  0
   35.2310   28.4730   32.2960 S   0  0  0  0  0  0  0  0  0  0  0  0
   37.7520   27.3230   35.4320 C   0  0  0  0  0  0  0  0  0  0  0  0
   37.0210   27.3060   34.2560 C   0  0  0  0  0  0  0  0  0  0  0  0
   37.0800   26.1950   33.4160 C   0  0  0  0  0  0  0  0  0  0  0  0
   37.8790   25.1840   33.8370 N   0  0  0  0  0  0  0  0  0  0  0  0
   38.5890   25.2080   34.9830 C   0  0  0  0  0  0  0  0  0  0  0  0
   38.5080   26.2970   35.7730 N   0  0  0  0  0  0  0  0  0  0  0  0
   39.4200   24.0560   35.3120 C   0  0  0  0  0  0  0  0  0  0  0  0
   40.1470   23.5430   34.3140 C   0  0  0  0  0  0  0  0  0  0  0  0
   41.0670   22.1270   35.0990 S   0  0  0  0  0  0  0  0  0  0  0  0
   40.2180   22.5350   36.7660 C   0  0  0  0  0  0  0  0  0  0  0  0
   39.6330   23.3920   36.3860 N   0  0  0  0  0  0  0  0  0  0  0  0
   40.4490   21.8060   37.9560 N   0  0  0  0  0  0  0  0  0  0  0  0
   33.6790   30.8200   31.7890 C   0  0  0  0  0  0  0  0  0  0  0  0
   34.1000   31.6000   30.9270 O   0  0  0  0  0  0  0  0  0  0  0  0
   32.2440   30.5440   31.8730 N   0  0  0  0  0  0  0  0  0  0  0  0
   34.6640   32.0820   34.5670 S   0  0  0  0  0  0  0  0  0  0  0  0
   36.0990   33.1420   34.4530 C   0  0  0  0  0  0  0  0  0  0  0  0
   36.8310   33.6090   35.5260 C   0  0  0  0  0  0  0  0  0  0  0  0
   37.9310   34.4290   35.3360 C   0  0  0  0  0  0  0  0  0  0  0  0
   38.2870   34.7740   34.0480 C   0  0  0  0  0  0  0  0  0  0  0  0
   37.5520   34.3050   32.9780 C   0  0  0  0  0  0  0  0  0  0  0  0
   36.4400   33.4780   33.1380 C   0  0  0  0  0  0  0  0  0  0  0  0
   36.4335   29.7542   35.4661 H   0  0  0  0  0  0  0  0  0  0  0  0
   37.7017   28.2030   36.0901 H   0  0  0  0  0  0  0  0  0  0  0  0
   36.5153   26.1422   32.4735 H   0  0  0  0  0  0  0  0  0  0  0  0
   40.1915   23.8804   33.2680 H   0  0  0  0  0  0  0  0  0  0  0  0
   39.9635   22.0711   38.8248 H   0  0  0  0  0  0  0  0  0  0  0  0
   41.1027   21.0101   37.9537 H   0  0  0  0  0  0  0  0  0  0  0  0
   31.5929   30.9987   31.2171 H   0  0  0  0  0  0  0  0  0  0  0  0
   31.8854   29.8951   32.5880 H   0  0  0  0  0  0  0  0  0  0  0  0
   36.5364   33.3257   36.5472 H   0  0  0  0  0  0  0  0  0  0  0  0
   38.5099   34.7982   36.1954 H   0  0  0  0  0  0  0  0  0  0  0  0
   39.1575   35.4235   33.8740 H   0  0  0  0  0  0  0  0  0  0  0  0
   37.8545   34.5942   31.9607 H   0  0  0  0  0  0  0  0  0  0  0  0
   35.8625   33.1099   32.2772 H   0  0  0  0  0  0  0  0  0  0  0  0
  1  7  1  0
  1  2  2  0
  3  2  1  0
  3 21  1  0
  4  3  2  0
  5  4  1  0
  5  1  1  0
  6 11  2  0
  7  6  1  0
  8  9  1  0
  8  7  2  0
  9 10  2  0
 10 12  1  0
 10 11  1  0
 12 16  1  0
 13 14  1  0
 13 12  2  0
 14 15  1  0
 15 17  1  0
 16 15  2  0
 18 20  1  0
 18  4  1  0
 19 18  2  0
 22 21  1  0
 22 23  2  0
 24 23  1  0
 25 24  2  0
 26 27  2  0
 26 25  1  0
 27 22  1  0
  2 28  1  0
  6 29  1  0
  8 30  1  0
 13 31  1  0
 17 32  1  0
 17 33  1  0
 20 34  1  0
 20 35  1  0
 23 36  1  0
 24 37  1  0
 25 38  1  0
 26 39  1  0
 27 40  1  0
M  ISO  8  28  14  29  14  30  14  31  14  36  14  37  14  38  14  39  14
M  ISO  1  40  14
M  END
>  <minimizedAffinity>  (1) 
-5.91301394

>  <minimizedRMSD>  (1) 
2.20666289

$$$$
