
     RDKit          3D

 37 40  0  0  0  0  0  0  0  0999 V2000
   35.4210   29.5310   34.0510 C   0  0  0  0  0  0  0  0  0  0  0  0
   36.3270   28.5370   34.4240 C   0  0  0  0  0  0  0  0  0  0  0  0
   36.5950   27.5880   33.4950 C   0  0  0  0  0  0  0  0  0  0  0  0
   35.9710   27.6710   32.2800 C   0  0  0  0  0  0  0  0  0  0  0  0
   34.9020   29.2070   32.4140 S   0  0  0  0  0  0  0  0  0  0  0  0
   35.9010   31.3130   35.7980 C   0  0  0  0  0  0  0  0  0  0  0  0
   35.0260   30.6270   34.9360 C   0  0  0  0  0  0  0  0  0  0  0  0
   33.6770   30.9690   34.8760 C   0  0  0  0  0  0  0  0  0  0  0  0
   33.3190   31.9900   35.7030 N   0  0  0  0  0  0  0  0  0  0  0  0
   34.1590   32.6470   36.5290 C   0  0  0  0  0  0  0  0  0  0  0  0
   35.4550   32.2860   36.5570 N   0  0  0  0  0  0  0  0  0  0  0  0
   33.6190   33.7300   37.3530 C   0  0  0  0  0  0  0  0  0  0  0  0
   32.3630   34.1400   37.0320 C   0  0  0  0  0  0  0  0  0  0  0  0
   32.0360   35.5120   38.2720 S   0  0  0  0  0  0  0  0  0  0  0  0
   33.7810   35.2240   39.0100 C   0  0  0  0  0  0  0  0  0  0  0  0
   34.1040   34.4030   38.3450 N   0  0  0  0  0  0  0  0  0  0  0  0
   34.2860   35.9810   40.1020 N   0  0  0  0  0  0  0  0  0  0  0  0
   35.9540   26.9260   31.0590 C   0  0  0  0  0  0  0  0  0  0  0  0
   35.4500   25.8010   31.0010 O   0  0  0  0  0  0  0  0  0  0  0  0
   36.5350   27.4880   29.8620 N   0  0  0  0  0  0  0  0  0  0  0  0
   37.6950   26.1920   33.6460 S   0  0  0  0  0  0  0  0  0  0  0  0
   41.2130   27.4480   32.4960 N   0  0  0  0  0  0  0  0  0  0  0  0
   39.9430   27.1260   32.2640 N   0  0  0  0  0  0  0  0  0  0  0  0
   39.3770   26.7290   33.4090 C   0  0  0  0  0  0  0  0  0  0  0  0
   40.3660   26.8230   34.3610 C   0  0  0  0  0  0  0  0  0  0  0  0
   41.5390   27.2760   33.8080 C   0  0  0  0  0  0  0  0  0  0  0  0
   36.7978   28.5248   35.4181 H   0  0  0  0  0  0  0  0  0  0  0  0
   36.9639   31.0324   35.8359 H   0  0  0  0  0  0  0  0  0  0  0  0
   32.9610   30.4573   34.2160 H   0  0  0  0  0  0  0  0  0  0  0  0
   31.7006   33.7609   36.2399 H   0  0  0  0  0  0  0  0  0  0  0  0
   35.2305   35.7919   40.4667 H   0  0  0  0  0  0  0  0  0  0  0  0
   33.7074   36.7187   40.5286 H   0  0  0  0  0  0  0  0  0  0  0  0
   36.5228   26.9516   28.9828 H   0  0  0  0  0  0  0  0  0  0  0  0
   36.9615   28.4252   29.8876 H   0  0  0  0  0  0  0  0  0  0  0  0
   41.8671   27.7847   31.7751 H   0  0  0  0  0  0  0  0  0  0  0  0
   40.2348   26.5692   35.4233 H   0  0  0  0  0  0  0  0  0  0  0  0
   42.5048   27.4558   34.3029 H   0  0  0  0  0  0  0  0  0  0  0  0
  1  2  2  0
  1  7  1  0
  3 21  1  0
  3  2  1  0
  4  5  1  0
  4  3  2  0
  5  1  1  0
  6 11  2  0
  7  6  1  0
  8  7  2  0
  8  9  1  0
  9 10  2  0
 10 11  1  0
 10 12  1  0
 12 16  1  0
 13 12  2  0
 13 14  1  0
 14 15  1  0
 15 17  1  0
 16 15  2  0
 18  4  1  0
 19 18  2  0
 20 18  1  0
 22 26  1  0
 23 22  1  0
 23 24  2  0
 24 21  1  0
 24 25  1  0
 26 25  2  0
  2 27  1  0
  6 28  1  0
  8 29  1  0
 13 30  1  0
 17 31  1  0
 17 32  1  0
 20 33  1  0
 20 34  1  0
 22 35  1  0
 25 36  1  0
 26 37  1  0
M  ISO  7  27  14  28  14  29  14  30  14  35   9  36  14  37  14
M  END
>  <minimizedAffinity>  (1) 
-5.92653561

>  <minimizedRMSD>  (1) 
9.34982872

$$$$
