
     RDKit          3D

 39 41  0  0  0  0  0  0  0  0999 V2000
   37.4010   25.8350   35.3980 C   0  0  0  0  0  0  0  0  0  0  0  0
   37.7450   26.7900   34.4540 C   0  0  0  0  0  0  0  0  0  0  0  0
   39.0500   26.8160   33.9210 C   0  0  0  0  0  0  0  0  0  0  0  0
   39.8930   25.8620   34.3980 N   0  0  0  0  0  0  0  0  0  0  0  0
   39.5370   24.9430   35.3170 C   0  0  0  0  0  0  0  0  0  0  0  0
   38.2820   24.9450   35.8070 N   0  0  0  0  0  0  0  0  0  0  0  0
   40.5400   23.9670   35.7440 C   0  0  0  0  0  0  0  0  0  0  0  0
   41.7440   24.0650   35.1630 C   0  0  0  0  0  0  0  0  0  0  0  0
   42.7300   22.6770   35.9310 S   0  0  0  0  0  0  0  0  0  0  0  0
   41.1880   22.2030   36.9690 C   0  0  0  0  0  0  0  0  0  0  0  0
   40.5230   22.9890   36.5800 N   0  0  0  0  0  0  0  0  0  0  0  0
   41.1880   21.1200   37.8750 N   0  0  0  0  0  0  0  0  0  0  0  0
   36.8660   27.8250   33.9270 C   0  0  0  0  0  0  0  0  0  0  0  0
   36.2150   28.7620   34.7490 C   0  0  0  0  0  0  0  0  0  0  0  0
   35.4310   29.6670   34.1060 C   0  0  0  0  0  0  0  0  0  0  0  0
   35.3310   29.6060   32.7460 C   0  0  0  0  0  0  0  0  0  0  0  0
   36.4190   28.1630   32.2690 S   0  0  0  0  0  0  0  0  0  0  0  0
   34.6480   30.3300   31.7210 C   0  0  0  0  0  0  0  0  0  0  0  0
   35.2510   30.8760   30.8030 O   0  0  0  0  0  0  0  0  0  0  0  0
   33.1880   30.4220   31.7690 N   0  0  0  0  0  0  0  0  0  0  0  0
   34.4840   30.9860   34.8580 S   0  0  0  0  0  0  0  0  0  0  0  0
   35.5940   31.7210   36.1070 C   0  0  0  0  0  0  0  0  0  0  0  0
   34.6710   32.3820   37.1270 C   0  0  0  0  0  0  0  0  0  0  0  0
   36.5000   32.7570   35.4840 C   0  0  0  0  0  0  0  0  0  0  0  0
   36.3812   25.8201   35.8101 H   0  0  0  0  0  0  0  0  0  0  0  0
   39.3643   27.5569   33.1711 H   0  0  0  0  0  0  0  0  0  0  0  0
   42.0747   24.7940   34.4086 H   0  0  0  0  0  0  0  0  0  0  0  0
   40.3382   20.8990   38.4134 H   0  0  0  0  0  0  0  0  0  0  0  0
   42.0378   20.5510   37.9975 H   0  0  0  0  0  0  0  0  0  0  0  0
   36.3328   28.7625   35.8427 H   0  0  0  0  0  0  0  0  0  0  0  0
   32.6803   30.9402   31.0378 H   0  0  0  0  0  0  0  0  0  0  0  0
   32.6683   29.9685   32.5340 H   0  0  0  0  0  0  0  0  0  0  0  0
   36.2453   30.9602   36.5619 H   0  0  0  0  0  0  0  0  0  0  0  0
   35.0128   32.1372   38.1435 H   0  0  0  0  0  0  0  0  0  0  0  0
   34.6904   33.4728   36.9863 H   0  0  0  0  0  0  0  0  0  0  0  0
   33.6446   32.0124   36.9863 H   0  0  0  0  0  0  0  0  0  0  0  0
   37.0014   33.3304   36.2776 H   0  0  0  0  0  0  0  0  0  0  0  0
   37.2552   32.2562   34.8604 H   0  0  0  0  0  0  0  0  0  0  0  0
   35.9030   33.4387   34.8604 H   0  0  0  0  0  0  0  0  0  0  0  0
  1  6  2  0
  2  1  1  0
  3  4  1  0
  3  2  2  0
  4  5  2  0
  5  7  1  0
  5  6  1  0
  7 11  1  0
  8  7  2  0
  8  9  1  0
  9 10  1  0
 10 12  1  0
 11 10  2  0
 13  2  1  0
 13 14  2  0
 15 14  1  0
 15 21  1  0
 16 15  2  0
 17 16  1  0
 17 13  1  0
 18 20  1  0
 18 16  1  0
 19 18  2  0
 21 22  1  0
 22 23  1  0
 24 22  1  0
  1 25  1  0
  3 26  1  0
  8 27  1  0
 12 28  1  0
 12 29  1  0
 14 30  1  0
 20 31  1  0
 20 32  1  0
 22 33  1  0
 23 34  1  0
 23 35  1  0
 23 36  1  0
 24 37  1  0
 24 38  1  0
 24 39  1  0
M  ISO  8  25  14  26  14  27  14  30  14  33   8  34   8  35   8  36   8
M  ISO  3  37   8  38   8  39   8
M  END
>  <minimizedAffinity>  (1) 
-5.23144436

>  <minimizedRMSD>  (1) 
1.51682639

$$$$
