
     RDKit          3D

 36 38  0  0  0  0  0  0  0  0999 V2000
   37.9050   27.6150   35.5150 C   0  0  0  0  0  0  0  0  0  0  0  0
   37.0910   27.4790   34.4000 C   0  0  0  0  0  0  0  0  0  0  0  0
   37.1460   26.3120   33.6350 C   0  0  0  0  0  0  0  0  0  0  0  0
   38.0260   25.3710   34.0610 N   0  0  0  0  0  0  0  0  0  0  0  0
   38.8130   25.5130   35.1470 C   0  0  0  0  0  0  0  0  0  0  0  0
   38.7340   26.6510   35.8630 N   0  0  0  0  0  0  0  0  0  0  0  0
   39.7160   24.4250   35.4980 C   0  0  0  0  0  0  0  0  0  0  0  0
   40.7420   24.2160   34.6650 C   0  0  0  0  0  0  0  0  0  0  0  0
   41.6590   22.7740   35.4190 S   0  0  0  0  0  0  0  0  0  0  0  0
   40.3650   22.7330   36.8310 C   0  0  0  0  0  0  0  0  0  0  0  0
   39.7590   23.5790   36.4630 N   0  0  0  0  0  0  0  0  0  0  0  0
   40.4190   21.7960   37.8940 N   0  0  0  0  0  0  0  0  0  0  0  0
   36.1320   28.4790   33.9150 C   0  0  0  0  0  0  0  0  0  0  0  0
   35.7310   29.5820   34.6900 C   0  0  0  0  0  0  0  0  0  0  0  0
   34.8450   30.4130   34.1030 C   0  0  0  0  0  0  0  0  0  0  0  0
   34.4090   30.1370   32.8350 C   0  0  0  0  0  0  0  0  0  0  0  0
   35.3090   28.5550   32.3750 S   0  0  0  0  0  0  0  0  0  0  0  0
   33.5170   30.7270   31.8910 C   0  0  0  0  0  0  0  0  0  0  0  0
   33.9270   31.4680   30.9910 O   0  0  0  0  0  0  0  0  0  0  0  0
   32.0820   30.4470   31.9920 N   0  0  0  0  0  0  0  0  0  0  0  0
   34.1350   31.9020   34.8130 S   0  0  0  0  0  0  0  0  0  0  0  0
   34.4650   31.8050   36.6020 C   0  0  0  0  0  0  0  0  0  0  0  0
   33.1500   31.5760   37.3180 C   0  0  0  0  0  0  0  0  0  0  0  0
   37.8582   28.5361   36.1145 H   0  0  0  0  0  0  0  0  0  0  0  0
   36.5168   26.1651   32.7448 H   0  0  0  0  0  0  0  0  0  0  0  0
   40.9891   24.7675   33.7459 H   0  0  0  0  0  0  0  0  0  0  0  0
   39.7004   21.8121   38.6317 H   0  0  0  0  0  0  0  0  0  0  0  0
   41.1769   21.0993   37.9284 H   0  0  0  0  0  0  0  0  0  0  0  0
   36.1140   29.7555   35.7065 H   0  0  0  0  0  0  0  0  0  0  0  0
   31.4267   30.8664   31.3170 H   0  0  0  0  0  0  0  0  0  0  0  0
   31.7288   29.8308   32.7380 H   0  0  0  0  0  0  0  0  0  0  0  0
   35.1510   30.9703   36.8087 H   0  0  0  0  0  0  0  0  0  0  0  0
   34.9290   32.7388   36.9523 H   0  0  0  0  0  0  0  0  0  0  0  0
   33.3146   31.6047   38.4052 H   0  0  0  0  0  0  0  0  0  0  0  0
   32.4361   32.3633   37.0344 H   0  0  0  0  0  0  0  0  0  0  0  0
   32.7443   30.5937   37.0344 H   0  0  0  0  0  0  0  0  0  0  0  0
  1  6  2  0
  2  1  1  0
  3  4  1  0
  3  2  2  0
  4  5  2  0
  5  7  1  0
  5  6  1  0
  7 11  1  0
  8  9  1  0
  8  7  2  0
  9 10  1  0
 10 12  1  0
 11 10  2  0
 13  2  1  0
 13 14  2  0
 15 14  1  0
 15 21  1  0
 16 15  2  0
 17 16  1  0
 17 13  1  0
 18 20  1  0
 18 16  1  0
 19 18  2  0
 21 22  1  0
 22 23  1  0
  1 24  1  0
  3 25  1  0
  8 26  1  0
 12 27  1  0
 12 28  1  0
 14 29  1  0
 20 30  1  0
 20 31  1  0
 22 32  1  0
 22 33  1  0
 23 34  1  0
 23 35  1  0
 23 36  1  0
M  ISO  8  24  14  25  14  26  14  29  14  32   8  33   8  34   8  35   8
M  ISO  1  36   8
M  END
>  <minimizedAffinity>  (1) 
-5.35801077

>  <minimizedRMSD>  (1) 
2.37028384

$$$$
