
     RDKit          3D

 35 39  0  0  0  0  0  0  0  0999 V2000
   37.8770   25.1360   33.0200 C   0  0  0  0  0  0  0  0  0  0  0  0
   37.9710   25.1800   34.4050 C   0  0  0  0  0  0  0  0  0  0  0  0
   37.4490   26.2810   35.1030 C   0  0  0  0  0  0  0  0  0  0  0  0
   36.8600   27.2940   34.4190 N   0  0  0  0  0  0  0  0  0  0  0  0
   36.7800   27.2420   33.0670 C   0  0  0  0  0  0  0  0  0  0  0  0
   37.2700   26.2100   32.4370 N   0  0  0  0  0  0  0  0  0  0  0  0
   38.6050   24.1520   35.1320 N   0  0  0  0  0  0  0  0  0  0  0  0
   38.0230   23.0840   35.6770 C   0  0  0  0  0  0  0  0  0  0  0  0
   38.9220   22.2710   36.2680 N   0  0  0  0  0  0  0  0  0  0  0  0
   40.1130   22.8430   36.0900 C   0  0  0  0  0  0  0  0  0  0  0  0
   41.4130   22.5220   36.4390 C   0  0  0  0  0  0  0  0  0  0  0  0
   42.4910   23.2560   36.1530 N   0  0  0  0  0  0  0  0  0  0  0  0
   42.2490   24.4010   35.4620 C   0  0  0  0  0  0  0  0  0  0  0  0
   41.0100   24.7280   35.1150 N   0  0  0  0  0  0  0  0  0  0  0  0
   39.9170   24.0240   35.3810 C   0  0  0  0  0  0  0  0  0  0  0  0
   38.3480   23.9820   32.2730 C   0  0  0  0  0  0  0  0  0  0  0  0
   39.6000   23.7920   31.8560 N   0  0  0  0  0  0  0  0  0  0  0  0
   40.1270   22.8020   31.1810 C   0  0  0  0  0  0  0  0  0  0  0  0
   39.3190   21.7880   30.8240 N   0  0  0  0  0  0  0  0  0  0  0  0
   38.0050   21.8270   31.1710 C   0  0  0  0  0  0  0  0  0  0  0  0
   37.2070   20.7800   30.7890 C   0  0  0  0  0  0  0  0  0  0  0  0
   35.8660   20.7710   31.1110 C   0  0  0  0  0  0  0  0  0  0  0  0
   35.3770   21.8660   31.8350 C   0  0  0  0  0  0  0  0  0  0  0  0
   36.2480   22.8730   32.1780 C   0  0  0  0  0  0  0  0  0  0  0  0
   37.5780   22.9230   31.8810 C   0  0  0  0  0  0  0  0  0  0  0  0
   37.5173   26.3220   36.2001 H   0  0  0  0  0  0  0  0  0  0  0  0
   36.3067   28.0617   32.5066 H   0  0  0  0  0  0  0  0  0  0  0  0
   36.9407   22.8894   35.6482 H   0  0  0  0  0  0  0  0  0  0  0  0
   41.5709   21.5872   36.9968 H   0  0  0  0  0  0  0  0  0  0  0  0
   43.0853   25.0612   35.1884 H   0  0  0  0  0  0  0  0  0  0  0  0
   41.1943   22.7996   30.9149 H   0  0  0  0  0  0  0  0  0  0  0  0
   37.6388   19.9419   30.2222 H   0  0  0  0  0  0  0  0  0  0  0  0
   35.2093   19.9405   30.8125 H   0  0  0  0  0  0  0  0  0  0  0  0
   34.3168   21.9192   32.1235 H   0  0  0  0  0  0  0  0  0  0  0  0
   35.8326   23.7186   32.7459 H   0  0  0  0  0  0  0  0  0  0  0  0
  1  2  1  0
  2  3  2  0
  2  7  1  0
  4  3  1  0
  5  4  2  0
  6  1  2  0
  6  5  1  0
  7 15  1  0
  7  8  1  0
  8  9  2  0
 10  9  1  0
 10 11  2  0
 12 11  1  0
 13 12  2  0
 14 15  2  0
 14 13  1  0
 15 10  1  0
 16  1  1  0
 17 16  2  0
 18 17  1  0
 19 20  1  0
 19 18  2  0
 20 25  2  0
 21 22  2  0
 21 20  1  0
 22 23  1  0
 23 24  2  0
 25 24  1  0
 25 16  1  0
  3 26  1  0
  5 27  1  0
  8 28  1  0
 11 29  1  0
 13 30  1  0
 18 31  1  0
 21 32  1  0
 22 33  1  0
 23 34  1  0
 24 35  1  0
M  ISO  8  26  14  27  14  28  14  29  14  30  14  31  14  32  14  33  14
M  ISO  2  34  14  35  14
M  END
>  <minimizedAffinity>  (1) 
-5.24060202

>  <minimizedRMSD>  (1) 
2.06012559

$$$$
