
     RDKit          3D

 29 32  0  0  0  0  0  0  0  0999 V2000
   37.7400   25.0040   33.7010 C   0  0  0  0  0  0  0  0  0  0  0  0
   37.8770   25.3890   35.0250 C   0  0  0  0  0  0  0  0  0  0  0  0
   37.6090   26.7260   35.3490 C   0  0  0  0  0  0  0  0  0  0  0  0
   37.2280   27.5960   34.3770 N   0  0  0  0  0  0  0  0  0  0  0  0
   37.1040   27.1900   33.0930 C   0  0  0  0  0  0  0  0  0  0  0  0
   37.3560   25.9270   32.7760 N   0  0  0  0  0  0  0  0  0  0  0  0
   38.2760   24.4820   35.9970 N   0  0  0  0  0  0  0  0  0  0  0  0
   37.5100   23.9630   36.9680 C   0  0  0  0  0  0  0  0  0  0  0  0
   38.1970   23.1020   37.7440 N   0  0  0  0  0  0  0  0  0  0  0  0
   39.4360   23.0710   37.2570 C   0  0  0  0  0  0  0  0  0  0  0  0
   40.5940   22.3920   37.5950 C   0  0  0  0  0  0  0  0  0  0  0  0
   41.7670   22.5190   36.9300 N   0  0  0  0  0  0  0  0  0  0  0  0
   41.7640   23.3740   35.8740 C   0  0  0  0  0  0  0  0  0  0  0  0
   40.6550   24.0240   35.5510 N   0  0  0  0  0  0  0  0  0  0  0  0
   39.4860   23.9320   36.1680 C   0  0  0  0  0  0  0  0  0  0  0  0
   37.9360   23.6460   33.2180 C   0  0  0  0  0  0  0  0  0  0  0  0
   39.0100   23.3520   32.4070 C   0  0  0  0  0  0  0  0  0  0  0  0
   39.3390   22.1300   31.8700 C   0  0  0  0  0  0  0  0  0  0  0  0
   38.5110   21.0940   32.1720 N   0  0  0  0  0  0  0  0  0  0  0  0
   37.4470   21.3350   32.9620 C   0  0  0  0  0  0  0  0  0  0  0  0
   37.1980   22.5560   33.4440 N   0  0  0  0  0  0  0  0  0  0  0  0
   37.7070   27.0708   36.3890 H   0  0  0  0  0  0  0  0  0  0  0  0
   36.7956   27.9039   32.3151 H   0  0  0  0  0  0  0  0  0  0  0  0
   36.4481   24.2106   37.1134 H   0  0  0  0  0  0  0  0  0  0  0  0
   40.5594   21.7079   38.4557 H   0  0  0  0  0  0  0  0  0  0  0  0
   42.6818   23.5267   35.2872 H   0  0  0  0  0  0  0  0  0  0  0  0
   39.6798   24.1893   32.1614 H   0  0  0  0  0  0  0  0  0  0  0  0
   40.2241   21.9972   31.2306 H   0  0  0  0  0  0  0  0  0  0  0  0
   36.7677   20.5079   33.2161 H   0  0  0  0  0  0  0  0  0  0  0  0
  1  2  1  0
  2  3  2  0
  2  7  1  0
  4  3  1  0
  5  4  2  0
  6  5  1  0
  6  1  2  0
  7 15  1  0
  7  8  1  0
  8  9  2  0
 10 11  2  0
 10  9  1  0
 12 11  1  0
 13 12  2  0
 14 13  1  0
 14 15  2  0
 15 10  1  0
 16 21  1  0
 16  1  1  0
 17 16  2  0
 18 19  2  0
 18 17  1  0
 19 20  1  0
 20 21  2  0
  3 22  1  0
  5 23  1  0
  8 24  1  0
 11 25  1  0
 13 26  1  0
 17 27  1  0
 18 28  1  0
 20 29  1  0
M  ISO  8  22  14  23  14  24  14  25  14  26  14  27  14  28  14  29  14
M  END
>  <minimizedAffinity>  (1) 
-4.72582006

>  <minimizedRMSD>  (1) 
1.16600525

$$$$
