
     RDKit          3D

 28 31  0  0  0  0  0  0  0  0999 V2000
   37.9530   25.0870   34.3690 C   0  0  0  0  0  0  0  0  0  0  0  0
   38.2990   25.3890   35.6640 C   0  0  0  0  0  0  0  0  0  0  0  0
   38.2130   26.7230   36.1020 C   0  0  0  0  0  0  0  0  0  0  0  0
   37.7940   27.6860   35.2410 N   0  0  0  0  0  0  0  0  0  0  0  0
   37.4640   27.3620   33.9730 C   0  0  0  0  0  0  0  0  0  0  0  0
   37.5430   26.1080   33.5560 N   0  0  0  0  0  0  0  0  0  0  0  0
   38.7710   24.3990   36.5300 N   0  0  0  0  0  0  0  0  0  0  0  0
   38.2040   24.0230   37.6910 C   0  0  0  0  0  0  0  0  0  0  0  0
   38.8910   23.0280   38.2830 N   0  0  0  0  0  0  0  0  0  0  0  0
   39.9220   22.7590   37.4830 C   0  0  0  0  0  0  0  0  0  0  0  0
   40.9660   21.8520   37.5020 C   0  0  0  0  0  0  0  0  0  0  0  0
   41.9060   21.7330   36.5610 N   0  0  0  0  0  0  0  0  0  0  0  0
   41.7940   22.5930   35.5150 C   0  0  0  0  0  0  0  0  0  0  0  0
   40.7880   23.4680   35.4940 N   0  0  0  0  0  0  0  0  0  0  0  0
   39.8490   23.6060   36.4030 C   0  0  0  0  0  0  0  0  0  0  0  0
   37.9140   23.8010   33.7100 C   0  0  0  0  0  0  0  0  0  0  0  0
   38.2070   23.3520   32.4530 C   0  0  0  0  0  0  0  0  0  0  0  0
   38.0760   22.0230   32.3380 N   0  0  0  0  0  0  0  0  0  0  0  0
   37.6810   21.5580   33.5600 C   0  0  0  0  0  0  0  0  0  0  0  0
   37.6050   22.6460   34.3150 N   0  0  0  0  0  0  0  0  0  0  0  0
   38.4835   26.9845   37.1356 H   0  0  0  0  0  0  0  0  0  0  0  0
   37.1265   28.1467   33.2800 H   0  0  0  0  0  0  0  0  0  0  0  0
   37.2904   24.4738   38.1059 H   0  0  0  0  0  0  0  0  0  0  0  0
   41.0271   21.1718   38.3643 H   0  0  0  0  0  0  0  0  0  0  0  0
   42.5257   22.5677   34.6940 H   0  0  0  0  0  0  0  0  0  0  0  0
   38.5163   24.0089   31.6266 H   0  0  0  0  0  0  0  0  0  0  0  0
   37.4732   20.5179   33.8517 H   0  0  0  0  0  0  0  0  0  0  0  0
   37.3256   22.6055   35.3056 H   0  0  0  0  0  0  0  0  0  0  0  0
  1  2  1  0
  2  3  2  0
  2  7  1  0
  4  3  1  0
  5  4  2  0
  6  5  1  0
  6  1  2  0
  7  8  1  0
  8  9  2  0
 10 11  2  0
 10  9  1  0
 12 11  1  0
 13 12  2  0
 14 13  1  0
 14 15  2  0
 15  7  1  0
 15 10  1  0
 16 20  1  0
 16  1  1  0
 17 16  2  0
 18 17  1  0
 18 19  2  0
 19 20  1  0
  3 21  1  0
  5 22  1  0
  8 23  1  0
 11 24  1  0
 13 25  1  0
 17 26  1  0
 19 27  1  0
 20 28  1  0
M  ISO  8  21  14  22  14  23  14  24  14  25  14  26  14  27  14  28   9
M  END
>  <minimizedAffinity>  (1) 
-4.71599054

>  <minimizedRMSD>  (1) 
0.426744789

$$$$
