
     RDKit          3D

 26 27  0  0  1  0  0  0  0  0999 V2000
   41.0790   26.2410   34.7750 C   0  0  2  0  0  0  0  0  0  0  0  0
   39.6830   26.7690   34.6040 C   0  0  0  0  0  0  0  0  0  0  0  0
   39.1110   26.8070   33.3110 C   0  0  0  0  0  0  0  0  0  0  0  0
   37.7970   27.3000   33.2110 C   0  0  0  0  0  0  0  0  0  0  0  0
   37.1640   27.7070   34.3560 N   0  0  0  0  0  0  0  0  0  0  0  0
   37.7520   27.6500   35.5600 C   0  0  0  0  0  0  0  0  0  0  0  0
   39.0110   27.1820   35.6810 N   0  0  0  0  0  0  0  0  0  0  0  0
   41.9240   27.0780   33.8380 C   0  0  0  0  0  0  0  0  0  0  0  0
   41.1110   24.7830   34.4240 C   0  0  0  0  0  0  0  0  0  0  0  0
   40.7980   23.9070   35.5770 C   0  0  0  0  0  0  0  0  0  0  0  0
   41.6640   23.1890   36.3810 C   0  0  0  0  0  0  0  0  0  0  0  0
   40.8910   22.5150   37.3340 C   0  0  0  0  0  0  0  0  0  0  0  0
   39.5820   22.8740   37.0410 C   0  0  0  0  0  0  0  0  0  0  0  0
   39.5800   23.6780   36.0190 O   0  0  0  0  0  0  0  0  0  0  0  0
   41.4525   26.3133   35.8071 H   0  0  0  0  0  0  0  0  0  0  0  0
   39.6674   26.4670   32.4251 H   0  0  0  0  0  0  0  0  0  0  0  0
   37.2899   27.3573   32.2366 H   0  0  0  0  0  0  0  0  0  0  0  0
   37.2048   27.9865   36.4530 H   0  0  0  0  0  0  0  0  0  0  0  0
   42.5846   27.7323   34.4257 H   0  0  0  0  0  0  0  0  0  0  0  0
   42.5327   26.4168   33.2038 H   0  0  0  0  0  0  0  0  0  0  0  0
   41.2686   27.6930   33.2038 H   0  0  0  0  0  0  0  0  0  0  0  0
   40.3725   24.5964   33.6304 H   0  0  0  0  0  0  0  0  0  0  0  0
   42.1332   24.5443   34.0951 H   0  0  0  0  0  0  0  0  0  0  0  0
   42.7596   23.1538   36.2887 H   0  0  0  0  0  0  0  0  0  0  0  0
   41.2423   21.8493   38.1362 H   0  0  0  0  0  0  0  0  0  0  0  0
   38.6896   22.5329   37.5862 H   0  0  0  0  0  0  0  0  0  0  0  0
  2  1  1  0
  2  7  1  0
  3  2  2  0
  4  3  1  0
  4  5  2  0
  5  6  1  0
  6  7  2  0
  8  1  1  0
  9  1  1  0
  9 10  1  0
 10 14  1  0
 10 11  2  0
 11 12  1  0
 13 12  2  0
 14 13  1  0
  1 15  1  1
  3 16  1  0
  4 17  1  0
  6 18  1  0
  8 19  1  0
  8 20  1  0
  8 21  1  0
  9 22  1  0
  9 23  1  0
 11 24  1  0
 12 25  1  0
 13 26  1  0
M  ISO  8  15   8  16  14  17  14  18  14  19   8  20   8  21   8  22   8
M  ISO  4  23   8  24  14  25  14  26  14
M  END
>  <minimizedAffinity>  (1) 
-3.80561352

>  <minimizedRMSD>  (1) 
4.86679077

$$$$
