
     RDKit          3D

 27 30  0  0  0  0  0  0  0  0999 V2000
   37.7510   25.0240   33.6550 C   0  0  0  0  0  0  0  0  0  0  0  0
   37.8640   25.4120   34.9810 C   0  0  0  0  0  0  0  0  0  0  0  0
   37.5950   26.7400   35.3200 C   0  0  0  0  0  0  0  0  0  0  0  0
   37.2340   27.6220   34.3510 N   0  0  0  0  0  0  0  0  0  0  0  0
   37.1330   27.2220   33.0570 C   0  0  0  0  0  0  0  0  0  0  0  0
   37.3880   25.9590   32.7370 N   0  0  0  0  0  0  0  0  0  0  0  0
   38.2650   24.4980   35.9660 N   0  0  0  0  0  0  0  0  0  0  0  0
   37.4910   23.9610   36.9130 C   0  0  0  0  0  0  0  0  0  0  0  0
   38.1740   23.0930   37.6810 N   0  0  0  0  0  0  0  0  0  0  0  0
   39.4250   23.0750   37.2090 C   0  0  0  0  0  0  0  0  0  0  0  0
   40.5850   22.4010   37.5430 C   0  0  0  0  0  0  0  0  0  0  0  0
   41.7570   22.5450   36.9040 N   0  0  0  0  0  0  0  0  0  0  0  0
   41.7660   23.4120   35.8740 C   0  0  0  0  0  0  0  0  0  0  0  0
   40.6590   24.0660   35.5410 N   0  0  0  0  0  0  0  0  0  0  0  0
   39.4730   23.9530   36.1450 C   0  0  0  0  0  0  0  0  0  0  0  0
   37.9590   23.6280   33.2140 C   0  0  0  0  0  0  0  0  0  0  0  0
   39.0890   23.3210   32.3880 C   0  0  0  0  0  0  0  0  0  0  0  0
   38.8890   21.4780   32.1280 S   0  0  0  0  0  0  0  0  0  0  0  0
   37.3150   21.4730   33.1850 C   0  0  0  0  0  0  0  0  0  0  0  0
   37.2380   22.5730   33.4730 N   0  0  0  0  0  0  0  0  0  0  0  0
   37.6749   27.0704   36.3662 H   0  0  0  0  0  0  0  0  0  0  0  0
   36.8412   27.9413   32.2776 H   0  0  0  0  0  0  0  0  0  0  0  0
   36.4257   24.1993   37.0483 H   0  0  0  0  0  0  0  0  0  0  0  0
   40.5450   21.6995   38.3893 H   0  0  0  0  0  0  0  0  0  0  0  0
   42.6933   23.5793   35.3064 H   0  0  0  0  0  0  0  0  0  0  0  0
   39.8710   23.9937   32.0059 H   0  0  0  0  0  0  0  0  0  0  0  0
   36.6541   20.6343   33.4491 H   0  0  0  0  0  0  0  0  0  0  0  0
  1  2  1  0
  2  3  2  0
  2  7  1  0
  4  3  1  0
  5  4  2  0
  6  5  1  0
  6  1  2  0
  7 15  1  0
  7  8  1  0
  8  9  2  0
 10 11  2  0
 10  9  1  0
 12 11  1  0
 13 12  2  0
 14 13  1  0
 14 15  2  0
 15 10  1  0
 16 20  1  0
 16  1  1  0
 17 16  2  0
 18 17  1  0
 18 19  1  0
 19 20  2  0
  3 21  1  0
  5 22  1  0
  8 23  1  0
 11 24  1  0
 13 25  1  0
 17 26  1  0
 19 27  1  0
M  ISO  7  21  14  22  14  23  14  24  14  25  14  26  14  27  14
M  END
>  <minimizedAffinity>  (1) 
-4.61593914

>  <minimizedRMSD>  (1) 
1.09818602

$$$$
