
     RDKit          3D

 28 31  0  0  0  0  0  0  0  0999 V2000
   37.7120   25.0490   33.6920 C   0  0  0  0  0  0  0  0  0  0  0  0
   37.8600   25.4260   35.0300 C   0  0  0  0  0  0  0  0  0  0  0  0
   37.6160   26.7610   35.3680 C   0  0  0  0  0  0  0  0  0  0  0  0
   37.2470   27.6440   34.4070 N   0  0  0  0  0  0  0  0  0  0  0  0
   37.1110   27.2480   33.1140 C   0  0  0  0  0  0  0  0  0  0  0  0
   37.3410   25.9810   32.7800 N   0  0  0  0  0  0  0  0  0  0  0  0
   38.2560   24.5020   35.9960 N   0  0  0  0  0  0  0  0  0  0  0  0
   37.4930   23.9710   36.9540 C   0  0  0  0  0  0  0  0  0  0  0  0
   38.1770   23.1010   37.7090 N   0  0  0  0  0  0  0  0  0  0  0  0
   39.4360   23.0730   37.2130 C   0  0  0  0  0  0  0  0  0  0  0  0
   40.5770   22.3940   37.5490 C   0  0  0  0  0  0  0  0  0  0  0  0
   41.7430   22.5250   36.9080 N   0  0  0  0  0  0  0  0  0  0  0  0
   41.7480   23.3940   35.8720 C   0  0  0  0  0  0  0  0  0  0  0  0
   40.6440   24.0500   35.5450 N   0  0  0  0  0  0  0  0  0  0  0  0
   39.4600   23.9510   36.1520 C   0  0  0  0  0  0  0  0  0  0  0  0
   37.9050   23.6740   33.2410 C   0  0  0  0  0  0  0  0  0  0  0  0
   38.9370   23.2460   32.4330 C   0  0  0  0  0  0  0  0  0  0  0  0
   38.8630   21.9140   32.1750 C   0  0  0  0  0  0  0  0  0  0  0  0
   37.7310   21.5410   32.8650 C   0  0  0  0  0  0  0  0  0  0  0  0
   37.2250   22.5910   33.4570 O   0  0  0  0  0  0  0  0  0  0  0  0
   37.7231   27.0941   36.4109 H   0  0  0  0  0  0  0  0  0  0  0  0
   36.8110   27.9745   32.3444 H   0  0  0  0  0  0  0  0  0  0  0  0
   36.4317   24.2178   37.1051 H   0  0  0  0  0  0  0  0  0  0  0  0
   40.5312   21.6975   38.3992 H   0  0  0  0  0  0  0  0  0  0  0  0
   42.6723   23.5571   35.2983 H   0  0  0  0  0  0  0  0  0  0  0  0
   39.7269   23.9050   32.0433 H   0  0  0  0  0  0  0  0  0  0  0  0
   39.5368   21.2911   31.5684 H   0  0  0  0  0  0  0  0  0  0  0  0
   37.3185   20.5223   32.9107 H   0  0  0  0  0  0  0  0  0  0  0  0
  1  2  1  0
  2  3  2  0
  2  7  1  0
  4  3  1  0
  5  4  2  0
  6  5  1  0
  6  1  2  0
  7 15  1  0
  7  8  1  0
  8  9  2  0
 10 11  2  0
 10  9  1  0
 12 11  1  0
 13 12  2  0
 14 13  1  0
 14 15  2  0
 15 10  1  0
 16 20  1  0
 16  1  1  0
 17 16  2  0
 18 17  1  0
 18 19  2  0
 19 20  1  0
  3 21  1  0
  5 22  1  0
  8 23  1  0
 11 24  1  0
 13 25  1  0
 17 26  1  0
 18 27  1  0
 19 28  1  0
M  ISO  8  21  14  22  14  23  14  24  14  25  14  26  14  27  14  28  14
M  END
>  <minimizedAffinity>  (1) 
-4.62719393

>  <minimizedRMSD>  (1) 
1.09135652

$$$$
