
     RDKit          3D

 23 25  0  0  0  0  0  0  0  0999 V2000
   38.2410   24.5330   35.9860 N   0  0  0  0  0  0  0  0  0  0  0  0
   37.4720   23.9940   36.9430 C   0  0  0  0  0  0  0  0  0  0  0  0
   38.1520   23.1110   37.6950 N   0  0  0  0  0  0  0  0  0  0  0  0
   39.3990   23.0800   37.2060 C   0  0  0  0  0  0  0  0  0  0  0  0
   40.5580   22.3970   37.5200 C   0  0  0  0  0  0  0  0  0  0  0  0
   41.7230   22.5280   36.8750 N   0  0  0  0  0  0  0  0  0  0  0  0
   41.7230   23.4090   35.8420 C   0  0  0  0  0  0  0  0  0  0  0  0
   40.6180   24.0760   35.5240 N   0  0  0  0  0  0  0  0  0  0  0  0
   39.4480   23.9720   36.1370 C   0  0  0  0  0  0  0  0  0  0  0  0
   37.6280   25.1220   33.7220 C   0  0  0  0  0  0  0  0  0  0  0  0
   37.8440   25.4710   35.0460 C   0  0  0  0  0  0  0  0  0  0  0  0
   37.6480   26.8050   35.3800 C   0  0  0  0  0  0  0  0  0  0  0  0
   37.2630   27.6910   34.4240 N   0  0  0  0  0  0  0  0  0  0  0  0
   37.0660   27.3010   33.1470 C   0  0  0  0  0  0  0  0  0  0  0  0
   37.2460   26.0310   32.8000 N   0  0  0  0  0  0  0  0  0  0  0  0
   37.7780   23.7660   33.2280 C   0  0  0  0  0  0  0  0  0  0  0  0
   37.0140   22.9260   32.7030 O   0  0  0  0  0  0  0  0  0  0  0  0
   36.4117   24.2443   37.0947 H   0  0  0  0  0  0  0  0  0  0  0  0
   40.5203   21.6924   38.3638 H   0  0  0  0  0  0  0  0  0  0  0  0
   42.6444   23.5721   35.2638 H   0  0  0  0  0  0  0  0  0  0  0  0
   37.8039   27.1432   36.4150 H   0  0  0  0  0  0  0  0  0  0  0  0
   36.7554   28.0370   32.3909 H   0  0  0  0  0  0  0  0  0  0  0  0
   38.8046   23.3878   33.3419 H   0  0  0  0  0  0  0  0  0  0  0  0
  1  9  1  0
  1  2  1  0
  2  3  2  0
  4  5  2  0
  4  3  1  0
  6  5  1  0
  7  6  2  0
  8  7  1  0
  8  9  2  0
  9  4  1  0
 10 11  2  0
 11 12  1  0
 11  1  1  0
 13 12  2  0
 14 13  1  0
 15 14  2  0
 15 10  1  0
 16 10  1  0
 17 16  2  0
  2 18  1  0
  5 19  1  0
  7 20  1  0
 12 21  1  0
 14 22  1  0
 16 23  1  0
M  ISO  6  18  14  19  14  20  14  21  14  22  14  23   6
M  END
>  <minimizedAffinity>  (1) 
-4.26761627

>  <minimizedRMSD>  (1) 
0.85818845

$$$$
