
     RDKit          3D

 28 31  0  0  0  0  0  0  0  0999 V2000
   38.2320   24.5590   35.9780 N   0  0  0  0  0  0  0  0  0  0  0  0
   37.4610   24.0170   36.9560 C   0  0  0  0  0  0  0  0  0  0  0  0
   38.1450   23.1290   37.7010 N   0  0  0  0  0  0  0  0  0  0  0  0
   39.3980   23.0930   37.1920 C   0  0  0  0  0  0  0  0  0  0  0  0
   40.5400   22.4040   37.5090 C   0  0  0  0  0  0  0  0  0  0  0  0
   41.7040   22.5320   36.8570 N   0  0  0  0  0  0  0  0  0  0  0  0
   41.7030   23.4080   35.8270 C   0  0  0  0  0  0  0  0  0  0  0  0
   40.5980   24.0820   35.5100 N   0  0  0  0  0  0  0  0  0  0  0  0
   39.4330   23.9810   36.1310 C   0  0  0  0  0  0  0  0  0  0  0  0
   37.6270   25.1320   33.7280 C   0  0  0  0  0  0  0  0  0  0  0  0
   37.8280   25.5040   35.0500 C   0  0  0  0  0  0  0  0  0  0  0  0
   37.6250   26.8250   35.3910 C   0  0  0  0  0  0  0  0  0  0  0  0
   37.2420   27.7210   34.4490 N   0  0  0  0  0  0  0  0  0  0  0  0
   37.0510   27.3420   33.1680 C   0  0  0  0  0  0  0  0  0  0  0  0
   37.2420   26.0530   32.8050 N   0  0  0  0  0  0  0  0  0  0  0  0
   37.7500   23.8340   33.0310 C   0  0  0  0  0  0  0  0  0  0  0  0
   38.1940   23.8070   31.5850 C   0  0  0  0  0  0  0  0  0  0  0  0
   36.7410   23.4690   32.0270 C   0  0  0  0  0  0  0  0  0  0  0  0
   36.4038   24.2732   37.1196 H   0  0  0  0  0  0  0  0  0  0  0  0
   40.4983   21.7003   38.3534 H   0  0  0  0  0  0  0  0  0  0  0  0
   42.6231   23.5658   35.2452 H   0  0  0  0  0  0  0  0  0  0  0  0
   37.7744   27.1522   36.4305 H   0  0  0  0  0  0  0  0  0  0  0  0
   36.7392   28.0830   32.4172 H   0  0  0  0  0  0  0  0  0  0  0  0
   38.1239   23.3539   33.9474 H   0  0  0  0  0  0  0  0  0  0  0  0
   38.8652   23.0145   31.2225 H   0  0  0  0  0  0  0  0  0  0  0  0
   38.6675   24.5127   30.8866 H   0  0  0  0  0  0  0  0  0  0  0  0
   35.9198   24.1630   31.7948 H   0  0  0  0  0  0  0  0  0  0  0  0
   36.0615   22.6164   31.8808 H   0  0  0  0  0  0  0  0  0  0  0  0
  1  9  1  0
  1  2  1  0
  2  3  2  0
  4  5  2  0
  4  3  1  0
  6  5  1  0
  7  6  2  0
  8  7  1  0
  8  9  2  0
  9  4  1  0
 10 11  1  0
 11 12  2  0
 11  1  1  0
 13 12  1  0
 14 13  2  0
 15 14  1  0
 15 10  2  0
 16 10  1  0
 17 18  1  0
 17 16  1  0
 18 16  1  0
  2 19  1  0
  5 20  1  0
  7 21  1  0
 12 22  1  0
 14 23  1  0
 16 24  1  0
 17 25  1  0
 17 26  1  0
 18 27  1  0
 18 28  1  0
M  ISO  8  19  14  20  14  21  14  22  14  23  14  24  13  25  13  26  13
M  ISO  2  27  13  28  13
M  END
>  <minimizedAffinity>  (1) 
-4.46634722

>  <minimizedRMSD>  (1) 
1.27174938

$$$$
