
     RDKit          3D

 27 29  0  0  0  0  0  0  0  0999 V2000
   38.2520   24.5500   35.9950 N   0  0  0  0  0  0  0  0  0  0  0  0
   37.4750   24.0070   36.9610 C   0  0  0  0  0  0  0  0  0  0  0  0
   38.1500   23.1180   37.7100 N   0  0  0  0  0  0  0  0  0  0  0  0
   39.4030   23.0840   37.2140 C   0  0  0  0  0  0  0  0  0  0  0  0
   40.5510   22.3880   37.5190 C   0  0  0  0  0  0  0  0  0  0  0  0
   41.7150   22.5160   36.8620 N   0  0  0  0  0  0  0  0  0  0  0  0
   41.7180   23.3970   35.8420 C   0  0  0  0  0  0  0  0  0  0  0  0
   40.6050   24.0650   35.5510 N   0  0  0  0  0  0  0  0  0  0  0  0
   39.4390   23.9750   36.1620 C   0  0  0  0  0  0  0  0  0  0  0  0
   37.6540   25.1030   33.7260 C   0  0  0  0  0  0  0  0  0  0  0  0
   37.8500   25.4930   35.0460 C   0  0  0  0  0  0  0  0  0  0  0  0
   37.6530   26.8310   35.4090 C   0  0  0  0  0  0  0  0  0  0  0  0
   37.2730   27.7210   34.4580 N   0  0  0  0  0  0  0  0  0  0  0  0
   37.0870   27.3190   33.1670 C   0  0  0  0  0  0  0  0  0  0  0  0
   37.2740   26.0500   32.8220 N   0  0  0  0  0  0  0  0  0  0  0  0
   37.7670   23.7320   33.1820 C   0  0  0  0  0  0  0  0  0  0  0  0
   36.7700   23.6210   32.0240 C   0  0  0  0  0  0  0  0  0  0  0  0
   36.4163   24.2629   37.1150 H   0  0  0  0  0  0  0  0  0  0  0  0
   40.5120   21.6783   38.3585 H   0  0  0  0  0  0  0  0  0  0  0  0
   42.6334   23.5623   35.2549 H   0  0  0  0  0  0  0  0  0  0  0  0
   37.8040   27.1555   36.4491 H   0  0  0  0  0  0  0  0  0  0  0  0
   36.7798   28.0517   32.4062 H   0  0  0  0  0  0  0  0  0  0  0  0
   38.7895   23.5542   32.8174 H   0  0  0  0  0  0  0  0  0  0  0  0
   37.5485   22.9843   33.9587 H   0  0  0  0  0  0  0  0  0  0  0  0
   35.7523   23.5077   32.4259 H   0  0  0  0  0  0  0  0  0  0  0  0
   36.8215   24.5304   31.4073 H   0  0  0  0  0  0  0  0  0  0  0  0
   37.0203   22.7452   31.4073 H   0  0  0  0  0  0  0  0  0  0  0  0
  1  9  1  0
  1  2  1  0
  2  3  2  0
  4  5  2  0
  4  3  1  0
  6  5  1  0
  7  6  2  0
  8  7  1  0
  8  9  2  0
  9  4  1  0
 10 11  2  0
 11 12  1  0
 11  1  1  0
 13 12  2  0
 14 13  1  0
 15 14  2  0
 15 10  1  0
 16 10  1  0
 17 16  1  0
  2 18  1  0
  5 19  1  0
  7 20  1  0
 12 21  1  0
 14 22  1  0
 16 23  1  0
 16 24  1  0
 17 25  1  0
 17 26  1  0
 17 27  1  0
M  ISO  8  18  14  19  14  20  14  21  14  22  14  23   8  24   8  25   8
M  ISO  2  26   8  27   8
M  END
>  <minimizedAffinity>  (1) 
-4.32109213

>  <minimizedRMSD>  (1) 
1.06573915

$$$$
