
     RDKit          3D

 23 25  0  0  0  0  0  0  0  0999 V2000
   38.7150   24.4760   36.5840 N   0  0  0  0  0  0  0  0  0  0  0  0
   38.1640   24.1040   37.7550 C   0  0  0  0  0  0  0  0  0  0  0  0
   38.8320   23.0960   38.3360 N   0  0  0  0  0  0  0  0  0  0  0  0
   39.8530   22.8020   37.5110 C   0  0  0  0  0  0  0  0  0  0  0  0
   40.8810   21.8880   37.5300 C   0  0  0  0  0  0  0  0  0  0  0  0
   41.8110   21.7710   36.5730 N   0  0  0  0  0  0  0  0  0  0  0  0
   41.6920   22.6350   35.5330 C   0  0  0  0  0  0  0  0  0  0  0  0
   40.7050   23.5210   35.5030 N   0  0  0  0  0  0  0  0  0  0  0  0
   39.7670   23.6660   36.4300 C   0  0  0  0  0  0  0  0  0  0  0  0
   37.8360   25.1940   34.4520 C   0  0  0  0  0  0  0  0  0  0  0  0
   38.2620   25.4870   35.7420 C   0  0  0  0  0  0  0  0  0  0  0  0
   38.2200   26.8060   36.1480 C   0  0  0  0  0  0  0  0  0  0  0  0
   37.7680   27.7500   35.2800 N   0  0  0  0  0  0  0  0  0  0  0  0
   37.3600   27.4340   34.0320 C   0  0  0  0  0  0  0  0  0  0  0  0
   37.3940   26.1680   33.6230 N   0  0  0  0  0  0  0  0  0  0  0  0
   37.8370   23.8710   33.9290 N   0  0  0  0  0  0  0  0  0  0  0  0
   37.2676   24.5735   38.1864 H   0  0  0  0  0  0  0  0  0  0  0  0
   40.9436   21.2059   38.3907 H   0  0  0  0  0  0  0  0  0  0  0  0
   42.4195   22.6003   34.7087 H   0  0  0  0  0  0  0  0  0  0  0  0
   38.5475   27.0891   37.1592 H   0  0  0  0  0  0  0  0  0  0  0  0
   37.0000   28.2221   33.3543 H   0  0  0  0  0  0  0  0  0  0  0  0
   37.5128   23.6973   32.9669 H   0  0  0  0  0  0  0  0  0  0  0  0
   38.1619   23.0868   34.5124 H   0  0  0  0  0  0  0  0  0  0  0  0
  1  2  1  0
  2  3  2  0
  4  5  2  0
  4  3  1  0
  6  5  1  0
  7  6  2  0
  8  7  1  0
  8  9  2  0
  9  1  1  0
  9  4  1  0
 10 11  2  0
 11 12  1  0
 11  1  1  0
 13 12  2  0
 14 13  1  0
 15 14  2  0
 15 10  1  0
 16 10  1  0
  2 17  1  0
  5 18  1  0
  7 19  1  0
 12 20  1  0
 14 21  1  0
 16 22  1  0
 16 23  1  0
M  ISO  5  17  14  18  14  19  14  20  14  21  14
M  END
>  <minimizedAffinity>  (1) 
-4.33680058

>  <minimizedRMSD>  (1) 
0.143282145

$$$$
