
     RDKit          3D

 24 26  0  0  0  0  0  0  0  0999 V2000
   38.2840   24.5290   36.0010 N   0  0  0  0  0  0  0  0  0  0  0  0
   37.4980   23.9750   36.9600 C   0  0  0  0  0  0  0  0  0  0  0  0
   38.1780   23.0830   37.7070 N   0  0  0  0  0  0  0  0  0  0  0  0
   39.4190   23.0630   37.2200 C   0  0  0  0  0  0  0  0  0  0  0  0
   40.5820   22.3720   37.5210 C   0  0  0  0  0  0  0  0  0  0  0  0
   41.7470   22.5120   36.8710 N   0  0  0  0  0  0  0  0  0  0  0  0
   41.7500   23.4020   35.8550 C   0  0  0  0  0  0  0  0  0  0  0  0
   40.6370   24.0580   35.5710 N   0  0  0  0  0  0  0  0  0  0  0  0
   39.4630   23.9620   36.1700 C   0  0  0  0  0  0  0  0  0  0  0  0
   37.6460   25.0430   33.7170 C   0  0  0  0  0  0  0  0  0  0  0  0
   37.8680   25.4710   35.0520 C   0  0  0  0  0  0  0  0  0  0  0  0
   37.6850   26.8040   35.4030 C   0  0  0  0  0  0  0  0  0  0  0  0
   37.2930   27.6980   34.4660 N   0  0  0  0  0  0  0  0  0  0  0  0
   37.0820   27.2800   33.1760 C   0  0  0  0  0  0  0  0  0  0  0  0
   37.2560   26.0070   32.8370 N   0  0  0  0  0  0  0  0  0  0  0  0
   37.7330   23.6790   33.1610 C   0  0  0  0  0  0  0  0  0  0  0  0
   39.0970   23.4150   32.9000 F   0  0  0  0  0  0  0  0  0  0  0  0
   37.0080   23.5560   31.9880 F   0  0  0  0  0  0  0  0  0  0  0  0
   37.3560   22.6550   33.9610 F   0  0  0  0  0  0  0  0  0  0  0  0
   36.4369   24.2238   37.1087 H   0  0  0  0  0  0  0  0  0  0  0  0
   40.5472   21.6555   38.3549 H   0  0  0  0  0  0  0  0  0  0  0  0
   42.6656   23.5789   35.2716 H   0  0  0  0  0  0  0  0  0  0  0  0
   37.8583   27.1306   36.4390 H   0  0  0  0  0  0  0  0  0  0  0  0
   36.7652   28.0071   32.4138 H   0  0  0  0  0  0  0  0  0  0  0  0
  1  9  1  0
  1  2  1  0
  2  3  2  0
  4  5  2  0
  4  3  1  0
  6  5  1  0
  7  6  2  0
  8  7  1  0
  8  9  2  0
  9  4  1  0
 10 11  2  0
 11 12  1  0
 11  1  1  0
 13 12  2  0
 14 13  1  0
 15 14  2  0
 15 10  1  0
 16 10  1  0
 16 19  1  0
 17 16  1  0
 18 16  1  0
  2 20  1  0
  5 21  1  0
  7 22  1  0
 12 23  1  0
 14 24  1  0
M  ISO  5  20  14  21  14  22  14  23  14  24  14
M  END
>  <minimizedAffinity>  (1) 
-4.52337313

>  <minimizedRMSD>  (1) 
0.930353343

$$$$
