
     RDKit          3D

 37 41  0  0  0  0  0  0  0  0999 V2000
   39.6410   25.5430   32.5650 C   0  0  0  0  0  0  0  0  0  0  0  0
   39.8980   25.9450   33.8720 C   0  0  0  0  0  0  0  0  0  0  0  0
   40.8000   26.9860   34.0890 C   0  0  0  0  0  0  0  0  0  0  0  0
   41.4010   27.5780   33.0260 N   0  0  0  0  0  0  0  0  0  0  0  0
   41.1320   27.1660   31.7560 C   0  0  0  0  0  0  0  0  0  0  0  0
   40.2750   26.1750   31.5380 N   0  0  0  0  0  0  0  0  0  0  0  0
   39.2600   25.3110   34.9370 N   0  0  0  0  0  0  0  0  0  0  0  0
   38.0080   25.5650   35.3870 C   0  0  0  0  0  0  0  0  0  0  0  0
   37.6820   24.7830   36.4340 N   0  0  0  0  0  0  0  0  0  0  0  0
   38.7590   24.0000   36.6660 C   0  0  0  0  0  0  0  0  0  0  0  0
   39.0360   23.0190   37.5790 C   0  0  0  0  0  0  0  0  0  0  0  0
   40.2080   22.3490   37.6310 N   0  0  0  0  0  0  0  0  0  0  0  0
   41.1350   22.7110   36.6960 C   0  0  0  0  0  0  0  0  0  0  0  0
   40.8550   23.6640   35.8140 N   0  0  0  0  0  0  0  0  0  0  0  0
   39.7150   24.3430   35.7330 C   0  0  0  0  0  0  0  0  0  0  0  0
   38.7210   24.4670   32.2360 C   0  0  0  0  0  0  0  0  0  0  0  0
   39.0970   23.1420   32.3380 C   0  0  0  0  0  0  0  0  0  0  0  0
   38.2260   22.1010   32.0350 C   0  0  0  0  0  0  0  0  0  0  0  0
   36.9270   22.3730   31.6130 C   0  0  0  0  0  0  0  0  0  0  0  0
   36.5260   23.6780   31.5020 C   0  0  0  0  0  0  0  0  0  0  0  0
   35.2480   23.9830   31.0850 C   0  0  0  0  0  0  0  0  0  0  0  0
   34.7930   25.2830   30.9520 C   0  0  0  0  0  0  0  0  0  0  0  0
   35.6870   26.3120   31.2620 C   0  0  0  0  0  0  0  0  0  0  0  0
   36.9540   25.9650   31.6750 C   0  0  0  0  0  0  0  0  0  0  0  0
   37.4250   24.6770   31.8130 C   0  0  0  0  0  0  0  0  0  0  0  0
   41.0222   27.3241   35.1119 H   0  0  0  0  0  0  0  0  0  0  0  0
   41.6276   27.6571   30.9056 H   0  0  0  0  0  0  0  0  0  0  0  0
   37.3377   26.3196   34.9497 H   0  0  0  0  0  0  0  0  0  0  0  0
   38.2589   22.7609   38.3135 H   0  0  0  0  0  0  0  0  0  0  0  0
   42.1153   22.2126   36.6731 H   0  0  0  0  0  0  0  0  0  0  0  0
   40.1181   22.9024   32.6695 H   0  0  0  0  0  0  0  0  0  0  0  0
   38.5645   21.0586   32.1290 H   0  0  0  0  0  0  0  0  0  0  0  0
   36.2342   21.5531   31.3727 H   0  0  0  0  0  0  0  0  0  0  0  0
   34.5605   23.1577   30.8478 H   0  0  0  0  0  0  0  0  0  0  0  0
   33.7681   25.4983   30.6156 H   0  0  0  0  0  0  0  0  0  0  0  0
   35.3874   27.3671   31.1785 H   0  0  0  0  0  0  0  0  0  0  0  0
   37.6481   26.7840   31.9148 H   0  0  0  0  0  0  0  0  0  0  0  0
  1  2  1  0
  2  3  2  0
  2  7  1  0
  4  3  1  0
  5  4  2  0
  6  5  1  0
  6  1  2  0
  7  8  1  0
  7 15  1  0
  8  9  2  0
  9 10  1  0
 10 11  2  0
 11 12  1  0
 13 12  2  0
 14 13  1  0
 15 14  2  0
 15 10  1  0
 16 17  2  0
 16  1  1  0
 18 17  1  0
 19 18  2  0
 20 19  1  0
 20 25  2  0
 21 20  1  0
 22 21  2  0
 22 23  1  0
 23 24  2  0
 24 25  1  0
 25 16  1  0
  3 26  1  0
  5 27  1  0
  8 28  1  0
 11 29  1  0
 13 30  1  0
 17 31  1  0
 18 32  1  0
 19 33  1  0
 21 34  1  0
 22 35  1  0
 23 36  1  0
 24 37  1  0
M  ISO  8  26  14  27  14  28  14  29  14  30  14  31  14  32  14  33  14
M  ISO  4  34  14  35  14  36  14  37  14
M  END
>  <minimizedAffinity>  (1) 
-5.7442956

>  <minimizedRMSD>  (1) 
2.57332349

$$$$
