
     RDKit          3D

 26 27  0  0  1  0  0  0  0  0999 V2000
   41.1570   22.4020   36.0850 C   0  0  2  0  0  0  0  0  0  0  0  0
   39.9480   23.0710   36.6770 C   0  0  0  0  0  0  0  0  0  0  0  0
   39.6630   22.8710   38.0420 C   0  0  0  0  0  0  0  0  0  0  0  0
   38.5310   23.5230   38.5540 C   0  0  0  0  0  0  0  0  0  0  0  0
   37.7870   24.3000   37.7090 N   0  0  0  0  0  0  0  0  0  0  0  0
   38.1050   24.4580   36.4070 C   0  0  0  0  0  0  0  0  0  0  0  0
   39.1870   23.8390   35.9050 N   0  0  0  0  0  0  0  0  0  0  0  0
   41.6340   21.4550   37.1650 C   0  0  0  0  0  0  0  0  0  0  0  0
   42.2120   23.4280   35.7930 C   0  0  0  0  0  0  0  0  0  0  0  0
   43.3990   23.3500   36.6830 C   0  0  0  0  0  0  0  0  0  0  0  0
   44.1630   24.6600   36.8300 C   0  0  0  0  0  0  0  0  0  0  0  0
   44.7880   23.5380   36.0640 C   0  0  0  0  0  0  0  0  0  0  0  0
   40.9357   21.8818   35.1414 H   0  0  0  0  0  0  0  0  0  0  0  0
   40.2975   22.2342   38.6760 H   0  0  0  0  0  0  0  0  0  0  0  0
   38.2481   23.4118   39.6112 H   0  0  0  0  0  0  0  0  0  0  0  0
   37.4809   25.0911   35.7591 H   0  0  0  0  0  0  0  0  0  0  0  0
   41.4167   21.8865   38.1532 H   0  0  0  0  0  0  0  0  0  0  0  0
   41.1139   20.4911   37.0634 H   0  0  0  0  0  0  0  0  0  0  0  0
   42.7181   21.2991   37.0634 H   0  0  0  0  0  0  0  0  0  0  0  0
   42.5492   23.2905   34.7550 H   0  0  0  0  0  0  0  0  0  0  0  0
   41.7521   24.4125   35.9643 H   0  0  0  0  0  0  0  0  0  0  0  0
   42.9538   22.5933   37.3458 H   0  0  0  0  0  0  0  0  0  0  0  0
   43.8158   25.5585   36.2989 H   0  0  0  0  0  0  0  0  0  0  0  0
   44.4750   25.2801   37.6833 H   0  0  0  0  0  0  0  0  0  0  0  0
   45.6526   23.0022   36.4828 H   0  0  0  0  0  0  0  0  0  0  0  0
   45.2077   23.4285   35.0531 H   0  0  0  0  0  0  0  0  0  0  0  0
  1  2  1  0
  1  8  1  0
  2  3  2  0
  3  4  1  0
  5  4  2  0
  6  5  1  0
  7  6  2  0
  7  2  1  0
  9  1  1  0
  9 10  1  0
 10 11  1  0
 12 10  1  0
 12 11  1  0
  1 13  1  6
  3 14  1  0
  4 15  1  0
  6 16  1  0
  8 17  1  0
  8 18  1  0
  8 19  1  0
  9 20  1  0
  9 21  1  0
 10 22  1  0
 11 23  1  0
 11 24  1  0
 12 25  1  0
 12 26  1  0
M  ISO  8  13   8  14  14  15  14  16  14  17   8  18   8  19   8  20   8
M  ISO  6  21   8  22  13  23  13  24  13  25  13  26  13
M  END
>  <minimizedAffinity>  (1) 
-3.70177364

>  <minimizedRMSD>  (1) 
2.98026228

$$$$
