
     RDKit          3D

 45 50  0  0  0  0  0  0  0  0999 V2000
   39.2370   23.4630   32.4350 C   0  0  0  0  0  0  0  0  0  0  0  0
   40.0440   22.3720   32.7410 C   0  0  0  0  0  0  0  0  0  0  0  0
   39.5920   21.0560   32.6400 C   0  0  0  0  0  0  0  0  0  0  0  0
   38.2910   20.8070   32.2210 C   0  0  0  0  0  0  0  0  0  0  0  0
   37.4690   21.8660   31.9110 C   0  0  0  0  0  0  0  0  0  0  0  0
   36.1940   21.6430   31.4770 C   0  0  0  0  0  0  0  0  0  0  0  0
   35.3370   22.6540   31.1320 C   0  0  0  0  0  0  0  0  0  0  0  0
   35.8220   23.9590   31.2410 C   0  0  0  0  0  0  0  0  0  0  0  0
   37.1210   24.1530   31.6860 C   0  0  0  0  0  0  0  0  0  0  0  0
   37.9680   23.1460   32.0280 C   0  0  0  0  0  0  0  0  0  0  0  0
   39.7460   24.7990   32.5560 C   0  0  0  0  0  0  0  0  0  0  0  0
   39.7100   25.5160   33.7660 C   0  0  0  0  0  0  0  0  0  0  0  0
   40.2390   26.8100   33.7700 C   0  0  0  0  0  0  0  0  0  0  0  0
   40.7670   27.3260   32.6200 N   0  0  0  0  0  0  0  0  0  0  0  0
   40.7900   26.6110   31.4750 C   0  0  0  0  0  0  0  0  0  0  0  0
   40.2920   25.3910   31.4690 N   0  0  0  0  0  0  0  0  0  0  0  0
   39.1790   24.9400   34.9050 N   0  0  0  0  0  0  0  0  0  0  0  0
   37.9300   25.0980   35.3760 C   0  0  0  0  0  0  0  0  0  0  0  0
   37.7250   24.3950   36.5060 N   0  0  0  0  0  0  0  0  0  0  0  0
   38.8950   23.7570   36.7720 C   0  0  0  0  0  0  0  0  0  0  0  0
   39.3150   22.9090   37.7630 C   0  0  0  0  0  0  0  0  0  0  0  0
   40.5550   22.3830   37.8280 N   0  0  0  0  0  0  0  0  0  0  0  0
   41.4040   22.7490   36.8250 C   0  0  0  0  0  0  0  0  0  0  0  0
   40.9880   23.5710   35.8690 N   0  0  0  0  0  0  0  0  0  0  0  0
   39.7780   24.1090   35.7680 C   0  0  0  0  0  0  0  0  0  0  0  0
   37.2570   25.5960   31.6280 C   0  0  0  0  0  0  0  0  0  0  0  0
   36.7240   26.3010   32.7500 C   0  0  0  0  0  0  0  0  0  0  0  0
   36.6770   27.6810   33.0000 C   0  0  0  0  0  0  0  0  0  0  0  0
   37.2200   28.4170   32.0200 N   0  0  0  0  0  0  0  0  0  0  0  0
   37.7390   27.8280   30.9360 C   0  0  0  0  0  0  0  0  0  0  0  0
   37.7310   26.5200   30.8050 N   0  0  0  0  0  0  0  0  0  0  0  0
   41.0763   22.5536   33.0748 H   0  0  0  0  0  0  0  0  0  0  0  0
   40.2619   20.2203   32.8907 H   0  0  0  0  0  0  0  0  0  0  0  0
   37.9219   19.7741   32.1380 H   0  0  0  0  0  0  0  0  0  0  0  0
   35.8391   20.6046   31.4010 H   0  0  0  0  0  0  0  0  0  0  0  0
   34.3138   22.4476   30.7850 H   0  0  0  0  0  0  0  0  0  0  0  0
   35.1855   24.8170   30.9788 H   0  0  0  0  0  0  0  0  0  0  0  0
   40.2303   27.4089   34.6927 H   0  0  0  0  0  0  0  0  0  0  0  0
   41.2192   27.0416   30.5583 H   0  0  0  0  0  0  0  0  0  0  0  0
   37.1661   25.7269   34.8954 H   0  0  0  0  0  0  0  0  0  0  0  0
   38.5977   22.6413   38.5528 H   0  0  0  0  0  0  0  0  0  0  0  0
   42.4339   22.3629   36.8082 H   0  0  0  0  0  0  0  0  0  0  0  0
   36.2849   25.6679   33.5351 H   0  0  0  0  0  0  0  0  0  0  0  0
   36.2380   28.1158   33.9101 H   0  0  0  0  0  0  0  0  0  0  0  0
   38.1795   28.4486   30.1417 H   0  0  0  0  0  0  0  0  0  0  0  0
  1 11  1  0
  1  2  2  0
  3  2  1  0
  4  3  2  0
  5 10  2  0
  5  4  1  0
  6  5  1  0
  7  8  1  0
  7  6  2  0
  8  9  2  0
  9 10  1  0
 10  1  1  0
 11 12  1  0
 12 13  2  0
 12 17  1  0
 14 13  1  0
 15 14  2  0
 16 15  1  0
 16 11  2  0
 17 18  1  0
 17 25  1  0
 18 19  2  0
 19 20  1  0
 20 21  2  0
 21 22  1  0
 23 22  2  0
 24 23  1  0
 25 24  2  0
 25 20  1  0
 26  9  1  0
 26 27  2  0
 27 28  1  0
 29 28  2  0
 30 29  1  0
 31 30  2  0
 31 26  1  0
  2 32  1  0
  3 33  1  0
  4 34  1  0
  6 35  1  0
  7 36  1  0
  8 37  1  0
 13 38  1  0
 15 39  1  0
 18 40  1  0
 21 41  1  0
 23 42  1  0
 27 43  1  0
 28 44  1  0
 30 45  1  0
M  ISO  8  32  14  33  14  34  14  35  14  36  14  37  14  38  14  39  14
M  ISO  6  40  14  41  14  42  14  43  14  44  14  45  14
M  END
>  <minimizedAffinity>  (1) 
-6.18544817

>  <minimizedRMSD>  (1) 
1.52232993

$$$$
