
     RDKit          3D

 50 56  0  0  0  0  0  0  0  0999 V2000
   38.6510   23.1900   32.7210 C   0  0  0  0  0  0  0  0  0  0  0  0
   38.5340   21.9200   33.2760 C   0  0  0  0  0  0  0  0  0  0  0  0
   37.3440   21.1960   33.2350 C   0  0  0  0  0  0  0  0  0  0  0  0
   36.2260   21.7430   32.6220 C   0  0  0  0  0  0  0  0  0  0  0  0
   36.3130   23.0020   32.0640 C   0  0  0  0  0  0  0  0  0  0  0  0
   35.2120   23.5520   31.4630 C   0  0  0  0  0  0  0  0  0  0  0  0
   35.2370   24.8000   30.8930 C   0  0  0  0  0  0  0  0  0  0  0  0
   36.4390   25.4940   30.9470 C   0  0  0  0  0  0  0  0  0  0  0  0
   37.5360   24.9110   31.5600 C   0  0  0  0  0  0  0  0  0  0  0  0
   37.5180   23.6760   32.1320 C   0  0  0  0  0  0  0  0  0  0  0  0
   38.5740   25.8560   31.3550 N   0  0  0  0  0  0  0  0  0  0  0  0
   39.1720   26.9290   31.8830 C   0  0  0  0  0  0  0  0  0  0  0  0
   40.1400   27.4720   31.1500 N   0  0  0  0  0  0  0  0  0  0  0  0
   40.2700   26.7710   30.0180 C   0  0  0  0  0  0  0  0  0  0  0  0
   41.0860   26.8800   28.9330 C   0  0  0  0  0  0  0  0  0  0  0  0
   40.9500   25.9840   27.9430 N   0  0  0  0  0  0  0  0  0  0  0  0
   40.0300   25.0090   28.0290 C   0  0  0  0  0  0  0  0  0  0  0  0
   39.2320   24.9140   29.1040 N   0  0  0  0  0  0  0  0  0  0  0  0
   39.3010   25.7830   30.1600 C   0  0  0  0  0  0  0  0  0  0  0  0
   42.0250   27.9450   28.9410 N   0  0  0  0  0  0  0  0  0  0  0  0
   39.8900   23.9100   32.7980 C   0  0  0  0  0  0  0  0  0  0  0  0
   40.2070   24.7740   33.8660 C   0  0  0  0  0  0  0  0  0  0  0  0
   41.4500   25.4120   33.8350 C   0  0  0  0  0  0  0  0  0  0  0  0
   42.3030   25.1820   32.7930 N   0  0  0  0  0  0  0  0  0  0  0  0
   41.9620   24.3390   31.7850 C   0  0  0  0  0  0  0  0  0  0  0  0
   40.7970   23.7370   31.8090 N   0  0  0  0  0  0  0  0  0  0  0  0
   39.3140   24.9540   34.9060 N   0  0  0  0  0  0  0  0  0  0  0  0
   38.3210   25.8520   34.9570 C   0  0  0  0  0  0  0  0  0  0  0  0
   37.6260   25.7710   36.1150 N   0  0  0  0  0  0  0  0  0  0  0  0
   38.2080   24.7730   36.8290 C   0  0  0  0  0  0  0  0  0  0  0  0
   37.9630   24.2210   38.0570 C   0  0  0  0  0  0  0  0  0  0  0  0
   38.6850   23.2060   38.5850 N   0  0  0  0  0  0  0  0  0  0  0  0
   39.6970   22.7500   37.8070 C   0  0  0  0  0  0  0  0  0  0  0  0
   39.9190   23.2980   36.6170 N   0  0  0  0  0  0  0  0  0  0  0  0
   39.2410   24.2890   36.0640 C   0  0  0  0  0  0  0  0  0  0  0  0
   39.4116   21.4714   33.7644 H   0  0  0  0  0  0  0  0  0  0  0  0
   37.2913   20.1945   33.6870 H   0  0  0  0  0  0  0  0  0  0  0  0
   35.2819   21.1800   32.5813 H   0  0  0  0  0  0  0  0  0  0  0  0
   34.2765   22.9740   31.4363 H   0  0  0  0  0  0  0  0  0  0  0  0
   34.3452   25.2314   30.4148 H   0  0  0  0  0  0  0  0  0  0  0  0
   36.5192   26.4987   30.5064 H   0  0  0  0  0  0  0  0  0  0  0  0
   38.8816   27.3372   32.8623 H   0  0  0  0  0  0  0  0  0  0  0  0
   39.9296   24.2812   27.2103 H   0  0  0  0  0  0  0  0  0  0  0  0
   42.6659   28.0725   28.1448 H   0  0  0  0  0  0  0  0  0  0  0  0
   42.0653   28.5901   29.7430 H   0  0  0  0  0  0  0  0  0  0  0  0
   41.7402   26.0962   34.6459 H   0  0  0  0  0  0  0  0  0  0  0  0
   42.6590   24.1618   30.9526 H   0  0  0  0  0  0  0  0  0  0  0  0
   38.0975   26.5693   34.1535 H   0  0  0  0  0  0  0  0  0  0  0  0
   37.1298   24.6265   38.6498 H   0  0  0  0  0  0  0  0  0  0  0  0
   40.3345   21.9263   38.1608 H   0  0  0  0  0  0  0  0  0  0  0  0
  1 21  1  0
  1  2  2  0
  3  2  1  0
  4  3  2  0
  5 10  2  0
  5  4  1  0
  6  5  1  0
  7  8  1  0
  7  6  2  0
  8  9  2  0
  9 10  1  0
 10  1  1  0
 11  9  1  0
 11 12  1  0
 13 12  2  0
 14 19  2  0
 14 13  1  0
 15 20  1  0
 15 14  1  0
 16 17  1  0
 16 15  2  0
 17 18  2  0
 18 19  1  0
 19 11  1  0
 21 22  1  0
 22 27  1  0
 23 22  2  0
 24 23  1  0
 25 26  1  0
 25 24  2  0
 26 21  2  0
 27 28  1  0
 27 35  1  0
 28 29  2  0
 29 30  1  0
 30 31  2  0
 31 32  1  0
 33 32  2  0
 34 33  1  0
 35 34  2  0
 35 30  1  0
  2 36  1  0
  3 37  1  0
  4 38  1  0
  6 39  1  0
  7 40  1  0
  8 41  1  0
 12 42  1  0
 17 43  1  0
 20 44  1  0
 20 45  1  0
 23 46  1  0
 25 47  1  0
 28 48  1  0
 31 49  1  0
 33 50  1  0
M  ISO  8  36  14  37  14  38  14  39  14  40  14  41  14  42  14  43  14
M  ISO  5  46  14  47  14  48  14  49  14  50  14
M  END
>  <minimizedAffinity>  (1) 
-6.22718668

>  <minimizedRMSD>  (1) 
2.00989819

$$$$
