
     RDKit          3D

 26 27  0  0  1  0  0  0  0  0999 V2000
   38.6520   21.8830   34.3210 C   0  0  2  0  0  0  0  0  0  0  0  0
   38.7430   22.3690   35.7410 C   0  0  0  0  0  0  0  0  0  0  0  0
   39.9770   22.2300   36.4280 C   0  0  0  0  0  0  0  0  0  0  0  0
   40.0190   22.7080   37.7540 C   0  0  0  0  0  0  0  0  0  0  0  0
   38.8850   23.2700   38.2890 N   0  0  0  0  0  0  0  0  0  0  0  0
   37.7530   23.3730   37.5880 C   0  0  0  0  0  0  0  0  0  0  0  0
   37.6670   22.9310   36.3260 N   0  0  0  0  0  0  0  0  0  0  0  0
   39.9630   22.3050   33.6990 C   0  0  0  0  0  0  0  0  0  0  0  0
   37.4970   22.5760   33.6480 C   0  0  0  0  0  0  0  0  0  0  0  0
   36.5780   21.5300   33.1140 C   0  0  0  0  0  0  0  0  0  0  0  0
   36.4750   21.2190   31.7670 C   0  0  0  0  0  0  0  0  0  0  0  0
   35.5590   20.2230   31.5430 C   0  0  0  0  0  0  0  0  0  0  0  0
   35.1120   19.9440   32.7870 N   0  0  0  0  0  0  0  0  0  0  0  0
   35.6930   20.6930   33.7060 N   0  0  0  0  0  0  0  0  0  0  0  0
   38.4878   20.7989   34.2334 H   0  0  0  0  0  0  0  0  0  0  0  0
   40.8560   21.7726   35.9504 H   0  0  0  0  0  0  0  0  0  0  0  0
   40.9415   22.6324   38.3484 H   0  0  0  0  0  0  0  0  0  0  0  0
   36.8703   23.8315   38.0577 H   0  0  0  0  0  0  0  0  0  0  0  0
   40.6874   22.5382   34.4933 H   0  0  0  0  0  0  0  0  0  0  0  0
   40.3531   21.4871   33.0755 H   0  0  0  0  0  0  0  0  0  0  0  0
   39.8027   23.1969   33.0755 H   0  0  0  0  0  0  0  0  0  0  0  0
   36.9636   23.2047   34.3762 H   0  0  0  0  0  0  0  0  0  0  0  0
   37.8602   23.2176   32.8317 H   0  0  0  0  0  0  0  0  0  0  0  0
   37.0572   21.7112   30.9741 H   0  0  0  0  0  0  0  0  0  0  0  0
   35.2621   19.7652   30.5879 H   0  0  0  0  0  0  0  0  0  0  0  0
   34.4000   19.2293   32.9946 H   0  0  0  0  0  0  0  0  0  0  0  0
  1  2  1  0
  2  7  1  0
  2  3  2  0
  3  4  1  0
  4  5  2  0
  6  5  1  0
  7  6  2  0
  8  1  1  0
  9  1  1  0
 10  9  1  0
 10 14  2  0
 11 10  1  0
 12 11  2  0
 12 13  1  0
 13 14  1  0
  1 15  1  1
  3 16  1  0
  4 17  1  0
  6 18  1  0
  8 19  1  0
  8 20  1  0
  8 21  1  0
  9 22  1  0
  9 23  1  0
 11 24  1  0
 12 25  1  0
 13 26  1  0
M  ISO  8  15   8  16  14  17  14  18  14  19   8  20   8  21   8  22   8
M  ISO  4  23   8  24  14  25  14  26   9
M  END
>  <minimizedAffinity>  (1) 
-3.65796232

>  <minimizedRMSD>  (1) 
6.48978662

$$$$
