
     RDKit          3D

 44 49  0  0  0  0  0  0  0  0999 V2000
   39.2030   23.6080   32.4250 C   0  0  0  0  0  0  0  0  0  0  0  0
   39.9490   22.4640   32.6890 C   0  0  0  0  0  0  0  0  0  0  0  0
   39.4180   21.1790   32.5670 C   0  0  0  0  0  0  0  0  0  0  0  0
   38.1000   21.0170   32.1680 C   0  0  0  0  0  0  0  0  0  0  0  0
   37.3370   22.1260   31.8990 C   0  0  0  0  0  0  0  0  0  0  0  0
   36.0420   21.9890   31.4880 C   0  0  0  0  0  0  0  0  0  0  0  0
   35.2390   23.0540   31.1850 C   0  0  0  0  0  0  0  0  0  0  0  0
   35.7950   24.3190   31.3130 C   0  0  0  0  0  0  0  0  0  0  0  0
   37.1140   24.4490   31.7350 C   0  0  0  0  0  0  0  0  0  0  0  0
   37.9090   23.3840   32.0350 C   0  0  0  0  0  0  0  0  0  0  0  0
   39.7910   24.9090   32.5670 C   0  0  0  0  0  0  0  0  0  0  0  0
   39.7900   25.6090   33.7860 C   0  0  0  0  0  0  0  0  0  0  0  0
   40.3970   26.8700   33.8110 C   0  0  0  0  0  0  0  0  0  0  0  0
   40.9610   27.3710   32.6710 N   0  0  0  0  0  0  0  0  0  0  0  0
   40.9480   26.6690   31.5170 C   0  0  0  0  0  0  0  0  0  0  0  0
   40.3780   25.4810   31.4870 N   0  0  0  0  0  0  0  0  0  0  0  0
   39.2170   25.0510   34.9140 N   0  0  0  0  0  0  0  0  0  0  0  0
   37.9700   25.2700   35.3670 C   0  0  0  0  0  0  0  0  0  0  0  0
   37.7220   24.5670   36.4970 N   0  0  0  0  0  0  0  0  0  0  0  0
   38.8560   23.8750   36.7710 C   0  0  0  0  0  0  0  0  0  0  0  0
   39.2200   23.0040   37.7600 C   0  0  0  0  0  0  0  0  0  0  0  0
   40.4360   22.4150   37.8370 N   0  0  0  0  0  0  0  0  0  0  0  0
   41.3140   22.7450   36.8430 C   0  0  0  0  0  0  0  0  0  0  0  0
   40.9520   23.5920   35.8870 N   0  0  0  0  0  0  0  0  0  0  0  0
   39.7720   24.1890   35.7760 C   0  0  0  0  0  0  0  0  0  0  0  0
   37.3540   25.8970   31.7150 C   0  0  0  0  0  0  0  0  0  0  0  0
   36.7890   26.6880   32.7640 C   0  0  0  0  0  0  0  0  0  0  0  0
   37.0200   28.0460   32.6630 C   0  0  0  0  0  0  0  0  0  0  0  0
   37.7350   28.0360   31.5300 N   0  0  0  0  0  0  0  0  0  0  0  0
   37.9220   26.8620   31.0070 N   0  0  0  0  0  0  0  0  0  0  0  0
   40.9964   22.5763   33.0057 H   0  0  0  0  0  0  0  0  0  0  0  0
   40.0416   20.2997   32.7862 H   0  0  0  0  0  0  0  0  0  0  0  0
   37.6699   20.0095   32.0680 H   0  0  0  0  0  0  0  0  0  0  0  0
   35.6253   20.9751   31.3964 H   0  0  0  0  0  0  0  0  0  0  0  0
   34.1991   22.9140   30.8547 H   0  0  0  0  0  0  0  0  0  0  0  0
   35.1967   25.2128   31.0823 H   0  0  0  0  0  0  0  0  0  0  0  0
   40.4201   27.4545   34.7426 H   0  0  0  0  0  0  0  0  0  0  0  0
   41.4095   27.0855   30.6095 H   0  0  0  0  0  0  0  0  0  0  0  0
   37.2428   25.9367   34.8805 H   0  0  0  0  0  0  0  0  0  0  0  0
   38.4806   22.7680   38.5394 H   0  0  0  0  0  0  0  0  0  0  0  0
   42.3233   22.3076   36.8351 H   0  0  0  0  0  0  0  0  0  0  0  0
   36.2127   26.2472   33.5907 H   0  0  0  0  0  0  0  0  0  0  0  0
   36.7120   28.8787   33.3124 H   0  0  0  0  0  0  0  0  0  0  0  0
   38.1090   28.8964   31.1049 H   0  0  0  0  0  0  0  0  0  0  0  0
  1 11  1  0
  1  2  2  0
  3  2  1  0
  4  3  2  0
  5 10  2  0
  5  4  1  0
  6  5  1  0
  7  8  1  0
  7  6  2  0
  8  9  2  0
  9 10  1  0
 10  1  1  0
 11 12  1  0
 12 13  2  0
 12 17  1  0
 14 13  1  0
 15 14  2  0
 16 15  1  0
 16 11  2  0
 17 18  1  0
 17 25  1  0
 18 19  2  0
 19 20  1  0
 20 21  2  0
 21 22  1  0
 23 22  2  0
 24 23  1  0
 25 24  2  0
 25 20  1  0
 26  9  1  0
 26 27  1  0
 28 27  2  0
 29 28  1  0
 30 29  1  0
 30 26  2  0
  2 31  1  0
  3 32  1  0
  4 33  1  0
  6 34  1  0
  7 35  1  0
  8 36  1  0
 13 37  1  0
 15 38  1  0
 18 39  1  0
 21 40  1  0
 23 41  1  0
 27 42  1  0
 28 43  1  0
 29 44  1  0
M  ISO  8  31  14  32  14  33  14  34  14  35  14  36  14  37  14  38  14
M  ISO  6  39  14  40  14  41  14  42  14  43  14  44   9
M  END
>  <minimizedAffinity>  (1) 
-5.99433804

>  <minimizedRMSD>  (1) 
1.25192559

$$$$
