
     RDKit          3D

 42 47  0  0  0  0  0  0  0  0999 V2000
   39.1400   23.5970   32.4260 C   0  0  0  0  0  0  0  0  0  0  0  0
   39.8970   22.4620   32.6890 C   0  0  0  0  0  0  0  0  0  0  0  0
   39.3770   21.1750   32.5700 C   0  0  0  0  0  0  0  0  0  0  0  0
   38.0560   20.9980   32.1740 C   0  0  0  0  0  0  0  0  0  0  0  0
   37.2830   22.0970   31.9070 C   0  0  0  0  0  0  0  0  0  0  0  0
   35.9890   21.9480   31.4950 C   0  0  0  0  0  0  0  0  0  0  0  0
   35.1760   23.0110   31.1900 C   0  0  0  0  0  0  0  0  0  0  0  0
   35.7250   24.2830   31.3150 C   0  0  0  0  0  0  0  0  0  0  0  0
   37.0410   24.4150   31.7360 C   0  0  0  0  0  0  0  0  0  0  0  0
   37.8450   23.3520   32.0390 C   0  0  0  0  0  0  0  0  0  0  0  0
   39.7160   24.9060   32.5650 C   0  0  0  0  0  0  0  0  0  0  0  0
   39.7290   25.5970   33.7880 C   0  0  0  0  0  0  0  0  0  0  0  0
   40.3200   26.8690   33.8040 C   0  0  0  0  0  0  0  0  0  0  0  0
   40.8510   27.3840   32.6630 N   0  0  0  0  0  0  0  0  0  0  0  0
   40.8250   26.6900   31.5050 C   0  0  0  0  0  0  0  0  0  0  0  0
   40.2720   25.4950   31.4790 N   0  0  0  0  0  0  0  0  0  0  0  0
   39.1780   25.0250   34.9200 N   0  0  0  0  0  0  0  0  0  0  0  0
   37.9240   25.2240   35.3880 C   0  0  0  0  0  0  0  0  0  0  0  0
   37.7080   24.5150   36.5210 N   0  0  0  0  0  0  0  0  0  0  0  0
   38.8560   23.8460   36.7800 C   0  0  0  0  0  0  0  0  0  0  0  0
   39.2410   22.9800   37.7670 C   0  0  0  0  0  0  0  0  0  0  0  0
   40.4710   22.4150   37.8260 N   0  0  0  0  0  0  0  0  0  0  0  0
   41.3300   22.7600   36.8240 C   0  0  0  0  0  0  0  0  0  0  0  0
   40.9470   23.6010   35.8700 N   0  0  0  0  0  0  0  0  0  0  0  0
   39.7540   24.1750   35.7780 C   0  0  0  0  0  0  0  0  0  0  0  0
   37.3070   25.8770   31.7120 C   0  0  0  0  0  0  0  0  0  0  0  0
   36.9290   26.6110   32.8150 N   0  0  0  0  0  0  0  0  0  0  0  0
   37.3030   27.8430   32.6710 O   0  0  0  0  0  0  0  0  0  0  0  0
   37.9110   27.9550   31.5250 C   0  0  0  0  0  0  0  0  0  0  0  0
   37.9210   26.7680   30.9320 N   0  0  0  0  0  0  0  0  0  0  0  0
   40.9443   22.5839   33.0024 H   0  0  0  0  0  0  0  0  0  0  0  0
   40.0094   20.3019   32.7886 H   0  0  0  0  0  0  0  0  0  0  0  0
   37.6360   19.9861   32.0761 H   0  0  0  0  0  0  0  0  0  0  0  0
   35.5804   20.9308   31.4036 H   0  0  0  0  0  0  0  0  0  0  0  0
   34.1366   22.8636   30.8614 H   0  0  0  0  0  0  0  0  0  0  0  0
   35.1231   25.1740   31.0829 H   0  0  0  0  0  0  0  0  0  0  0  0
   40.3539   27.4490   34.7381 H   0  0  0  0  0  0  0  0  0  0  0  0
   41.2619   27.1190   30.5912 H   0  0  0  0  0  0  0  0  0  0  0  0
   37.1780   25.8763   34.9105 H   0  0  0  0  0  0  0  0  0  0  0  0
   38.5140   22.7295   38.5535 H   0  0  0  0  0  0  0  0  0  0  0  0
   42.3461   22.3391   36.8060 H   0  0  0  0  0  0  0  0  0  0  0  0
   38.3443   28.8798   31.1164 H   0  0  0  0  0  0  0  0  0  0  0  0
  1 11  1  0
  1  2  2  0
  3  2  1  0
  4  3  2  0
  5 10  2  0
  5  4  1  0
  6  5  1  0
  7  8  1  0
  7  6  2  0
  8  9  2  0
  9 10  1  0
 10  1  1  0
 11 12  1  0
 12 13  2  0
 12 17  1  0
 14 13  1  0
 15 14  2  0
 16 15  1  0
 16 11  2  0
 17 18  1  0
 17 25  1  0
 18 19  2  0
 19 20  1  0
 20 21  2  0
 21 22  1  0
 23 22  2  0
 24 23  1  0
 25 24  2  0
 25 20  1  0
 26  9  1  0
 26 27  2  0
 28 27  1  0
 29 28  1  0
 30 29  2  0
 30 26  1  0
  2 31  1  0
  3 32  1  0
  4 33  1  0
  6 34  1  0
  7 35  1  0
  8 36  1  0
 13 37  1  0
 15 38  1  0
 18 39  1  0
 21 40  1  0
 23 41  1  0
 29 42  1  0
M  ISO  8  31  14  32  14  33  14  34  14  35  14  36  14  37  14  38  14
M  ISO  4  39  14  40  14  41  14  42  14
M  END
>  <minimizedAffinity>  (1) 
-5.96855164

>  <minimizedRMSD>  (1) 
1.20946705

$$$$
