
     RDKit          3D

 39 43  0  0  0  0  0  0  0  0999 V2000
   39.7630   25.5850   32.4880 C   0  0  0  0  0  0  0  0  0  0  0  0
   39.9730   25.9860   33.8180 C   0  0  0  0  0  0  0  0  0  0  0  0
   40.8890   27.0240   34.0400 C   0  0  0  0  0  0  0  0  0  0  0  0
   41.5330   27.5970   32.9900 N   0  0  0  0  0  0  0  0  0  0  0  0
   41.3010   27.1790   31.7260 C   0  0  0  0  0  0  0  0  0  0  0  0
   40.4420   26.2050   31.4990 N   0  0  0  0  0  0  0  0  0  0  0  0
   38.8420   24.5260   32.1440 C   0  0  0  0  0  0  0  0  0  0  0  0
   39.2320   23.1910   32.1920 C   0  0  0  0  0  0  0  0  0  0  0  0
   38.3660   22.1540   31.8700 C   0  0  0  0  0  0  0  0  0  0  0  0
   37.0620   22.4300   31.4840 C   0  0  0  0  0  0  0  0  0  0  0  0
   36.6420   23.7320   31.4250 C   0  0  0  0  0  0  0  0  0  0  0  0
   35.3630   24.0430   31.0490 C   0  0  0  0  0  0  0  0  0  0  0  0
   34.8860   25.3270   30.9700 C   0  0  0  0  0  0  0  0  0  0  0  0
   35.7770   26.3570   31.2990 C   0  0  0  0  0  0  0  0  0  0  0  0
   37.0620   26.0080   31.6760 C   0  0  0  0  0  0  0  0  0  0  0  0
   37.5320   24.7270   31.7520 C   0  0  0  0  0  0  0  0  0  0  0  0
   37.7970   27.1900   31.9610 N   0  0  0  0  0  0  0  0  0  0  0  0
   39.2960   25.3740   34.8580 N   0  0  0  0  0  0  0  0  0  0  0  0
   38.0400   25.6560   35.2740 C   0  0  0  0  0  0  0  0  0  0  0  0
   37.6660   24.8860   36.3100 N   0  0  0  0  0  0  0  0  0  0  0  0
   38.7250   24.0740   36.5730 C   0  0  0  0  0  0  0  0  0  0  0  0
   38.9500   23.0910   37.4940 C   0  0  0  0  0  0  0  0  0  0  0  0
   40.1140   22.3940   37.5740 N   0  0  0  0  0  0  0  0  0  0  0  0
   41.0640   22.7370   36.6660 C   0  0  0  0  0  0  0  0  0  0  0  0
   40.8290   23.6920   35.7800 N   0  0  0  0  0  0  0  0  0  0  0  0
   39.7020   24.4000   35.6680 C   0  0  0  0  0  0  0  0  0  0  0  0
   41.0861   27.3743   35.0639 H   0  0  0  0  0  0  0  0  0  0  0  0
   41.8296   27.6521   30.8853 H   0  0  0  0  0  0  0  0  0  0  0  0
   40.2612   22.9488   32.4953 H   0  0  0  0  0  0  0  0  0  0  0  0
   38.7145   21.1119   31.9211 H   0  0  0  0  0  0  0  0  0  0  0  0
   36.3730   21.6116   31.2281 H   0  0  0  0  0  0  0  0  0  0  0  0
   34.6803   23.2183   30.7964 H   0  0  0  0  0  0  0  0  0  0  0  0
   33.8512   25.5381   30.6624 H   0  0  0  0  0  0  0  0  0  0  0  0
   35.4647   27.4110   31.2589 H   0  0  0  0  0  0  0  0  0  0  0  0
   38.7806   27.1254   32.2597 H   0  0  0  0  0  0  0  0  0  0  0  0
   37.3462   28.1115   31.8689 H   0  0  0  0  0  0  0  0  0  0  0  0
   37.3998   26.4254   34.8177 H   0  0  0  0  0  0  0  0  0  0  0  0
   38.1480   22.8511   38.2076 H   0  0  0  0  0  0  0  0  0  0  0  0
   42.0341   22.2183   36.6669 H   0  0  0  0  0  0  0  0  0  0  0  0
  1  2  1  0
  2  3  2  0
  2 18  1  0
  4  3  1  0
  5  4  2  0
  6  5  1  0
  6  1  2  0
  7  8  2  0
  7  1  1  0
  9  8  1  0
 10  9  2  0
 11 10  1  0
 11 16  2  0
 12 11  1  0
 13 12  2  0
 13 14  1  0
 14 15  2  0
 15 16  1  0
 15 17  1  0
 16  7  1  0
 18 19  1  0
 18 26  1  0
 19 20  2  0
 20 21  1  0
 21 22  2  0
 22 23  1  0
 24 23  2  0
 25 24  1  0
 26 25  2  0
 26 21  1  0
  3 27  1  0
  5 28  1  0
  8 29  1  0
  9 30  1  0
 10 31  1  0
 12 32  1  0
 13 33  1  0
 14 34  1  0
 17 35  1  0
 17 36  1  0
 19 37  1  0
 22 38  1  0
 24 39  1  0
M  ISO  8  27  14  28  14  29  14  30  14  31  14  32  14  33  14  34  14
M  ISO  3  37  14  38  14  39  14
M  END
>  <minimizedAffinity>  (1) 
-5.8478055

>  <minimizedRMSD>  (1) 
0.141750351

$$$$
