
     RDKit          3D

 38 42  0  0  0  0  0  0  0  0999 V2000
   39.7650   25.5710   32.4840 C   0  0  0  0  0  0  0  0  0  0  0  0
   39.9810   25.9920   33.8000 C   0  0  0  0  0  0  0  0  0  0  0  0
   40.8800   27.0260   34.0460 C   0  0  0  0  0  0  0  0  0  0  0  0
   41.5190   27.5980   32.9960 N   0  0  0  0  0  0  0  0  0  0  0  0
   41.2980   27.1760   31.7170 C   0  0  0  0  0  0  0  0  0  0  0  0
   40.4370   26.1850   31.4850 N   0  0  0  0  0  0  0  0  0  0  0  0
   38.8430   24.4960   32.1420 C   0  0  0  0  0  0  0  0  0  0  0  0
   39.2350   23.1730   32.1920 C   0  0  0  0  0  0  0  0  0  0  0  0
   38.3650   22.1370   31.8690 C   0  0  0  0  0  0  0  0  0  0  0  0
   37.0650   22.4120   31.4850 C   0  0  0  0  0  0  0  0  0  0  0  0
   36.6470   23.7090   31.4260 C   0  0  0  0  0  0  0  0  0  0  0  0
   35.3490   24.0250   31.0450 C   0  0  0  0  0  0  0  0  0  0  0  0
   34.8870   25.3320   30.9730 C   0  0  0  0  0  0  0  0  0  0  0  0
   35.7780   26.3450   31.3020 C   0  0  0  0  0  0  0  0  0  0  0  0
   37.0530   25.9990   31.6740 C   0  0  0  0  0  0  0  0  0  0  0  0
   37.5380   24.7130   31.7540 C   0  0  0  0  0  0  0  0  0  0  0  0
   37.8750   27.0810   31.9840 O   0  0  0  0  0  0  0  0  0  0  0  0
   39.3000   25.3740   34.8520 N   0  0  0  0  0  0  0  0  0  0  0  0
   38.0430   25.6550   35.2710 C   0  0  0  0  0  0  0  0  0  0  0  0
   37.6690   24.8870   36.3060 N   0  0  0  0  0  0  0  0  0  0  0  0
   38.7270   24.0790   36.5690 C   0  0  0  0  0  0  0  0  0  0  0  0
   38.9400   23.0990   37.4970 C   0  0  0  0  0  0  0  0  0  0  0  0
   40.1000   22.4050   37.5790 N   0  0  0  0  0  0  0  0  0  0  0  0
   41.0660   22.7360   36.6710 C   0  0  0  0  0  0  0  0  0  0  0  0
   40.8240   23.6950   35.7820 N   0  0  0  0  0  0  0  0  0  0  0  0
   39.7120   24.3970   35.6650 C   0  0  0  0  0  0  0  0  0  0  0  0
   41.0684   27.3724   35.0729 H   0  0  0  0  0  0  0  0  0  0  0  0
   41.8290   27.6524   30.8797 H   0  0  0  0  0  0  0  0  0  0  0  0
   40.2643   22.9316   32.4958 H   0  0  0  0  0  0  0  0  0  0  0  0
   38.7123   21.0945   31.9192 H   0  0  0  0  0  0  0  0  0  0  0  0
   36.3757   21.5936   31.2300 H   0  0  0  0  0  0  0  0  0  0  0  0
   34.6596   23.2066   30.7901 H   0  0  0  0  0  0  0  0  0  0  0  0
   33.8546   25.5567   30.6670 H   0  0  0  0  0  0  0  0  0  0  0  0
   35.4691   27.4001   31.2653 H   0  0  0  0  0  0  0  0  0  0  0  0
   38.8123   26.9267   32.2628 H   0  0  0  0  0  0  0  0  0  0  0  0
   37.4023   26.4243   34.8153 H   0  0  0  0  0  0  0  0  0  0  0  0
   38.1345   22.8636   38.2082 H   0  0  0  0  0  0  0  0  0  0  0  0
   42.0344   22.2143   36.6753 H   0  0  0  0  0  0  0  0  0  0  0  0
  1  2  1  0
  2  3  2  0
  2 18  1  0
  4  3  1  0
  5  4  2  0
  6  5  1  0
  6  1  2  0
  7  8  2  0
  7  1  1  0
  9  8  1  0
 10  9  2  0
 11 10  1  0
 11 16  2  0
 12 11  1  0
 13 12  2  0
 13 14  1  0
 14 15  2  0
 15 16  1  0
 15 17  1  0
 16  7  1  0
 18 19  1  0
 18 26  1  0
 19 20  2  0
 20 21  1  0
 21 22  2  0
 22 23  1  0
 24 23  2  0
 25 24  1  0
 26 25  2  0
 26 21  1  0
  3 27  1  0
  5 28  1  0
  8 29  1  0
  9 30  1  0
 10 31  1  0
 12 32  1  0
 13 33  1  0
 14 34  1  0
 17 35  1  0
 19 36  1  0
 22 37  1  0
 24 38  1  0
M  ISO  8  27  14  28  14  29  14  30  14  31  14  32  14  33  14  34  14
M  ISO  4  35   3  36  14  37  14  38  14
M  END
>  <minimizedAffinity>  (1) 
-5.82902431

>  <minimizedRMSD>  (1) 
0.139095247

$$$$
