
     RDKit          3D

 25 27  0  0  0  0  0  0  0  0999 V2000
   40.7040   21.9150   37.6190 O   0  0  0  0  0  0  0  0  0  0  0  0
   41.9200   22.0610   37.0030 C   0  0  0  0  0  0  0  0  0  0  0  0
   42.4170   23.2170   36.4270 C   0  0  0  0  0  0  0  0  0  0  0  0
   43.6400   23.0100   35.9140 N   0  0  0  0  0  0  0  0  0  0  0  0
   44.0050   21.7260   36.1240 C   0  0  0  0  0  0  0  0  0  0  0  0
   45.1350   21.0020   35.8080 C   0  0  0  0  0  0  0  0  0  0  0  0
   45.2180   19.6590   36.1680 C   0  0  0  0  0  0  0  0  0  0  0  0
   44.1560   19.0590   36.8450 C   0  0  0  0  0  0  0  0  0  0  0  0
   43.0250   19.8040   37.1550 C   0  0  0  0  0  0  0  0  0  0  0  0
   42.9450   21.1460   36.7950 C   0  0  0  0  0  0  0  0  0  0  0  0
   39.5950   22.6820   37.4110 C   0  0  0  0  0  0  0  0  0  0  0  0
   39.0940   23.3690   38.5310 C   0  0  0  0  0  0  0  0  0  0  0  0
   37.9530   24.1630   38.3310 C   0  0  0  0  0  0  0  0  0  0  0  0
   37.4020   24.2260   37.0940 N   0  0  0  0  0  0  0  0  0  0  0  0
   37.9280   23.5410   36.0460 C   0  0  0  0  0  0  0  0  0  0  0  0
   39.0080   22.7790   36.2000 N   0  0  0  0  0  0  0  0  0  0  0  0
   41.8814   24.1772   36.3940 H   0  0  0  0  0  0  0  0  0  0  0  0
   44.2118   23.7200   35.4345 H   0  0  0  0  0  0  0  0  0  0  0  0
   45.9676   21.4830   35.2738 H   0  0  0  0  0  0  0  0  0  0  0  0
   46.1162   19.0746   35.9198 H   0  0  0  0  0  0  0  0  0  0  0  0
   44.2139   17.9988   37.1326 H   0  0  0  0  0  0  0  0  0  0  0  0
   42.1876   19.3303   37.6883 H   0  0  0  0  0  0  0  0  0  0  0  0
   39.5734   23.2883   39.5177 H   0  0  0  0  0  0  0  0  0  0  0  0
   37.5123   24.7262   39.1668 H   0  0  0  0  0  0  0  0  0  0  0  0
   37.4547   23.6171   35.0560 H   0  0  0  0  0  0  0  0  0  0  0  0
  2  1  1  0
  3  2  2  0
  4  5  1  0
  4  3  1  0
  5 10  2  0
  6  5  1  0
  6  7  2  0
  7  8  1  0
  8  9  2  0
 10  2  1  0
 10  9  1  0
 11  1  1  0
 11 12  2  0
 13 12  1  0
 14 13  2  0
 15 16  2  0
 15 14  1  0
 16 11  1  0
  3 17  1  0
  4 18  1  0
  6 19  1  0
  7 20  1  0
  8 21  1  0
  9 22  1  0
 12 23  1  0
 13 24  1  0
 15 25  1  0
M  ISO  8  17  14  18   9  19  14  20  14  21  14  22  14  23  14  24  14
M  ISO  1  25  14
M  END
>  <minimizedAffinity>  (1) 
-4.21562052

>  <minimizedRMSD>  (1) 
1.45390821

$$$$
