
     RDKit          3D

 36 40  0  0  0  0  0  0  0  0999 V2000
   39.7390   22.8720   37.5070 C   0  0  0  0  0  0  0  0  0  0  0  0
   38.9600   23.2120   38.6320 C   0  0  0  0  0  0  0  0  0  0  0  0
   37.8070   23.9770   38.3790 C   0  0  0  0  0  0  0  0  0  0  0  0
   37.5090   24.3390   37.1120 N   0  0  0  0  0  0  0  0  0  0  0  0
   38.2910   23.9860   36.0700 C   0  0  0  0  0  0  0  0  0  0  0  0
   39.4010   23.2580   36.2520 N   0  0  0  0  0  0  0  0  0  0  0  0
   37.9220   24.4000   34.7580 N   0  0  0  0  0  0  0  0  0  0  0  0
   37.9040   23.6360   33.6500 C   0  0  0  0  0  0  0  0  0  0  0  0
   37.5020   24.3750   32.6000 N   0  0  0  0  0  0  0  0  0  0  0  0
   37.2580   25.6270   33.0330 C   0  0  0  0  0  0  0  0  0  0  0  0
   36.8230   26.7780   32.3640 C   0  0  0  0  0  0  0  0  0  0  0  0
   36.6760   27.8980   33.1050 N   0  0  0  0  0  0  0  0  0  0  0  0
   36.9330   27.9050   34.4150 C   0  0  0  0  0  0  0  0  0  0  0  0
   37.3530   26.8020   35.0700 N   0  0  0  0  0  0  0  0  0  0  0  0
   37.5260   25.6320   34.3920 C   0  0  0  0  0  0  0  0  0  0  0  0
   40.8580   22.1360   37.7130 O   0  0  0  0  0  0  0  0  0  0  0  0
   42.0350   22.2130   37.0140 C   0  0  0  0  0  0  0  0  0  0  0  0
   42.5690   23.3420   36.4150 C   0  0  0  0  0  0  0  0  0  0  0  0
   43.7350   23.0590   35.8170 N   0  0  0  0  0  0  0  0  0  0  0  0
   44.0170   21.7500   35.9940 C   0  0  0  0  0  0  0  0  0  0  0  0
   45.0740   20.9390   35.5960 C   0  0  0  0  0  0  0  0  0  0  0  0
   45.0960   19.5980   35.9320 C   0  0  0  0  0  0  0  0  0  0  0  0
   44.0450   19.0810   36.6700 C   0  0  0  0  0  0  0  0  0  0  0  0
   42.9900   19.8760   37.0720 C   0  0  0  0  0  0  0  0  0  0  0  0
   42.9740   21.2160   36.7320 C   0  0  0  0  0  0  0  0  0  0  0  0
   39.2378   22.8972   39.6487 H   0  0  0  0  0  0  0  0  0  0  0  0
   37.1511   24.2790   39.2088 H   0  0  0  0  0  0  0  0  0  0  0  0
   38.1762   22.5710   33.6092 H   0  0  0  0  0  0  0  0  0  0  0  0
   36.6108   26.7704   31.2847 H   0  0  0  0  0  0  0  0  0  0  0  0
   36.7981   28.8398   34.9788 H   0  0  0  0  0  0  0  0  0  0  0  0
   42.0996   24.3367   36.4282 H   0  0  0  0  0  0  0  0  0  0  0  0
   44.3221   23.7324   35.3044 H   0  0  0  0  0  0  0  0  0  0  0  0
   45.8995   21.3678   35.0090 H   0  0  0  0  0  0  0  0  0  0  0  0
   45.9318   18.9549   35.6192 H   0  0  0  0  0  0  0  0  0  0  0  0
   44.0505   18.0151   36.9417 H   0  0  0  0  0  0  0  0  0  0  0  0
   42.1662   19.4452   37.6600 H   0  0  0  0  0  0  0  0  0  0  0  0
  1 16  1  0
  1  2  2  0
  3  2  1  0
  4  3  2  0
  5  6  2  0
  5  4  1  0
  6  1  1  0
  7  5  1  0
  8  7  1  0
  9 10  1  0
  9  8  2  0
 10 15  2  0
 11 10  1  0
 11 12  2  0
 12 13  1  0
 13 14  2  0
 15  7  1  0
 15 14  1  0
 17 16  1  0
 18 17  2  0
 19 20  1  0
 19 18  1  0
 20 25  2  0
 21 22  2  0
 21 20  1  0
 22 23  1  0
 23 24  2  0
 25 17  1  0
 25 24  1  0
  2 26  1  0
  3 27  1  0
  8 28  1  0
 11 29  1  0
 13 30  1  0
 18 31  1  0
 19 32  1  0
 21 33  1  0
 22 34  1  0
 23 35  1  0
 24 36  1  0
M  ISO  8  26  14  27  14  28  14  29  14  30  14  31  14  32   9  33  14
M  ISO  3  34  14  35  14  36  14
M  END
>  <minimizedAffinity>  (1) 
-6.11560583

>  <minimizedRMSD>  (1) 
0.849891186

$$$$
