
     RDKit          3D

 25 26  0  0  1  0  0  0  0  0999 V2000
   39.1760   26.5010   35.2750 C   0  0  2  0  0  0  0  0  0  0  0  0
   38.6380   25.1580   35.6480 C   0  0  0  0  0  0  0  0  0  0  0  0
   38.0920   24.9450   36.9200 C   0  0  0  0  0  0  0  0  0  0  0  0
   37.6040   23.6790   37.2220 C   0  0  0  0  0  0  0  0  0  0  0  0
   37.6810   22.7200   36.2720 N   0  0  0  0  0  0  0  0  0  0  0  0
   38.2120   22.9390   35.0430 C   0  0  0  0  0  0  0  0  0  0  0  0
   38.6850   24.1610   34.7500 N   0  0  0  0  0  0  0  0  0  0  0  0
   38.3220   27.4930   36.0390 C   0  0  0  0  0  0  0  0  0  0  0  0
   39.0360   26.7090   33.7970 C   0  0  0  0  0  0  0  0  0  0  0  0
   40.3080   27.0290   33.1060 C   0  0  0  0  0  0  0  0  0  0  0  0
   41.4920   27.0450   33.8790 C   0  0  0  0  0  0  0  0  0  0  0  0
   42.7270   27.4730   32.6230 S   0  0  0  0  0  0  0  0  0  0  0  0
   41.4540   27.5630   31.2570 C   0  0  0  0  0  0  0  0  0  0  0  0
   40.3980   27.3020   31.8050 N   0  0  0  0  0  0  0  0  0  0  0  0
   40.2430   26.6118   35.5186 H   0  0  0  0  0  0  0  0  0  0  0  0
   38.0505   25.7577   37.6601 H   0  0  0  0  0  0  0  0  0  0  0  0
   37.1667   23.4630   38.2079 H   0  0  0  0  0  0  0  0  0  0  0  0
   38.2543   22.1295   34.2994 H   0  0  0  0  0  0  0  0  0  0  0  0
   38.4565   27.3368   37.1195 H   0  0  0  0  0  0  0  0  0  0  0  0
   38.6255   28.5171   35.7760 H   0  0  0  0  0  0  0  0  0  0  0  0
   37.2642   27.3451   35.7760 H   0  0  0  0  0  0  0  0  0  0  0  0
   38.6259   25.7884   33.3562 H   0  0  0  0  0  0  0  0  0  0  0  0
   38.3747   27.5774   33.6609 H   0  0  0  0  0  0  0  0  0  0  0  0
   41.6272   26.8502   34.9531 H   0  0  0  0  0  0  0  0  0  0  0  0
   41.6212   27.7989   30.1957 H   0  0  0  0  0  0  0  0  0  0  0  0
  1  2  1  0
  1  8  1  0
  2  3  2  0
  3  4  1  0
  5  4  2  0
  6  5  1  0
  7  6  2  0
  7  2  1  0
  9  1  1  0
 10  9  1  0
 10 11  2  0
 12 11  1  0
 13 14  2  0
 13 12  1  0
 14 10  1  0
  1 15  1  1
  3 16  1  0
  4 17  1  0
  6 18  1  0
  8 19  1  0
  8 20  1  0
  8 21  1  0
  9 22  1  0
  9 23  1  0
 11 24  1  0
 13 25  1  0
M  ISO  8  15   8  16  14  17  14  18  14  19   8  20   8  21   8  22   8
M  ISO  3  23   8  24  14  25  14
M  END
>  <minimizedAffinity>  (1) 
-3.528687

>  <minimizedRMSD>  (1) 
6.83133411

$$$$
