
     RDKit          3D

 37 40  0  0  0  0  0  0  0  0999 V2000
   40.5920   21.9600   37.3110 O   0  0  0  0  0  0  0  0  0  0  0  0
   41.8580   22.0710   36.8170 C   0  0  0  0  0  0  0  0  0  0  0  0
   42.4300   23.2060   36.2650 C   0  0  0  0  0  0  0  0  0  0  0  0
   43.6940   22.9680   35.8780 N   0  0  0  0  0  0  0  0  0  0  0  0
   44.0100   21.6800   36.1530 C   0  0  0  0  0  0  0  0  0  0  0  0
   45.1580   20.9330   35.9610 C   0  0  0  0  0  0  0  0  0  0  0  0
   45.1790   19.5940   36.3590 C   0  0  0  0  0  0  0  0  0  0  0  0
   44.0460   19.0430   36.9380 C   0  0  0  0  0  0  0  0  0  0  0  0
   42.9080   19.8050   37.1210 C   0  0  0  0  0  0  0  0  0  0  0  0
   42.8860   21.1300   36.7280 C   0  0  0  0  0  0  0  0  0  0  0  0
   39.6300   22.9250   37.3050 C   0  0  0  0  0  0  0  0  0  0  0  0
   39.0270   23.2280   38.5360 C   0  0  0  0  0  0  0  0  0  0  0  0
   38.0400   24.2140   38.5510 C   0  0  0  0  0  0  0  0  0  0  0  0
   37.7160   24.8200   37.3950 N   0  0  0  0  0  0  0  0  0  0  0  0
   38.3240   24.4970   36.2260 C   0  0  0  0  0  0  0  0  0  0  0  0
   39.2710   23.5640   36.1600 N   0  0  0  0  0  0  0  0  0  0  0  0
   37.9260   25.1860   35.0430 N   0  0  0  0  0  0  0  0  0  0  0  0
   37.1570   26.4090   34.8690 C   0  0  0  0  0  0  0  0  0  0  0  0
   38.1760   27.2060   34.0460 C   0  0  0  0  0  0  0  0  0  0  0  0
   38.7400   26.1520   33.1430 C   0  0  0  0  0  0  0  0  0  0  0  0
   38.2060   24.8120   33.6670 C   0  0  0  0  0  0  0  0  0  0  0  0
   41.9171   24.1732   36.1580 H   0  0  0  0  0  0  0  0  0  0  0  0
   44.3235   23.6563   35.4411 H   0  0  0  0  0  0  0  0  0  0  0  0
   46.0462   21.3889   35.4992 H   0  0  0  0  0  0  0  0  0  0  0  0
   46.0832   18.9844   36.2148 H   0  0  0  0  0  0  0  0  0  0  0  0
   44.0532   17.9896   37.2546 H   0  0  0  0  0  0  0  0  0  0  0  0
   42.0159   19.3553   37.5813 H   0  0  0  0  0  0  0  0  0  0  0  0
   39.3227   22.7056   39.4578 H   0  0  0  0  0  0  0  0  0  0  0  0
   37.5370   24.4901   39.4895 H   0  0  0  0  0  0  0  0  0  0  0  0
   36.2226   26.2353   34.3152 H   0  0  0  0  0  0  0  0  0  0  0  0
   36.8112   26.8906   35.7955 H   0  0  0  0  0  0  0  0  0  0  0  0
   37.6869   28.0056   33.4703 H   0  0  0  0  0  0  0  0  0  0  0  0
   38.9340   27.7196   34.6557 H   0  0  0  0  0  0  0  0  0  0  0  0
   39.8393   26.1657   33.1803 H   0  0  0  0  0  0  0  0  0  0  0  0
   38.4458   26.3201   32.0965 H   0  0  0  0  0  0  0  0  0  0  0  0
   37.2967   24.4964   33.1346 H   0  0  0  0  0  0  0  0  0  0  0  0
   38.8867   23.9567   33.5439 H   0  0  0  0  0  0  0  0  0  0  0  0
  2  1  1  0
  3  2  2  0
  4  5  1  0
  4  3  1  0
  5 10  2  0
  6  5  1  0
  6  7  2  0
  7  8  1  0
  8  9  2  0
 10  2  1  0
 10  9  1  0
 11  1  1  0
 11 12  2  0
 12 13  1  0
 14 13  2  0
 15 14  1  0
 16 15  2  0
 16 11  1  0
 17 15  1  0
 18 17  1  0
 19 18  1  0
 20 21  1  0
 20 19  1  0
 21 17  1  0
  3 22  1  0
  4 23  1  0
  6 24  1  0
  7 25  1  0
  8 26  1  0
  9 27  1  0
 12 28  1  0
 13 29  1  0
 18 30  1  0
 18 31  1  0
 19 32  1  0
 19 33  1  0
 20 34  1  0
 20 35  1  0
 21 36  1  0
 21 37  1  0
M  ISO  8  22  14  23   9  24  14  25  14  26  14  27  14  28  14  29  14
M  ISO  8  30  13  31  13  32  13  33  13  34  13  35  13  36  13  37  13
M  END
>  <minimizedAffinity>  (1) 
-5.2555747

>  <minimizedRMSD>  (1) 
1.14102912

$$$$
