
     RDKit          3D

 31 33  0  0  0  0  0  0  0  0999 V2000
   41.7430   22.1340   36.4990 C   0  0  0  0  0  0  0  0  0  0  0  0
   42.3420   23.2760   35.9930 C   0  0  0  0  0  0  0  0  0  0  0  0
   43.6420   23.0560   35.7440 N   0  0  0  0  0  0  0  0  0  0  0  0
   43.9500   21.7790   36.0690 C   0  0  0  0  0  0  0  0  0  0  0  0
   45.1280   21.0740   36.0020 C   0  0  0  0  0  0  0  0  0  0  0  0
   45.1520   19.7340   36.4170 C   0  0  0  0  0  0  0  0  0  0  0  0
   43.9770   19.1490   36.8880 C   0  0  0  0  0  0  0  0  0  0  0  0
   42.7990   19.8920   36.9440 C   0  0  0  0  0  0  0  0  0  0  0  0
   42.7850   21.2120   36.5340 C   0  0  0  0  0  0  0  0  0  0  0  0
   40.4220   21.9830   36.8700 O   0  0  0  0  0  0  0  0  0  0  0  0
   39.5560   23.0080   37.1430 C   0  0  0  0  0  0  0  0  0  0  0  0
   39.1080   23.1040   38.4690 C   0  0  0  0  0  0  0  0  0  0  0  0
   38.2180   24.1540   38.7580 C   0  0  0  0  0  0  0  0  0  0  0  0
   37.8420   25.0040   37.7710 N   0  0  0  0  0  0  0  0  0  0  0  0
   38.3090   24.8650   36.4940 C   0  0  0  0  0  0  0  0  0  0  0  0
   39.1490   23.8860   36.1880 N   0  0  0  0  0  0  0  0  0  0  0  0
   37.8590   25.8290   35.4620 C   0  0  0  0  0  0  0  0  0  0  0  0
   38.3260   27.2350   35.7190 C   0  0  0  0  0  0  0  0  0  0  0  0
   41.8238   24.2307   35.8194 H   0  0  0  0  0  0  0  0  0  0  0  0
   44.3019   23.7501   35.3650 H   0  0  0  0  0  0  0  0  0  0  0  0
   46.0430   21.5557   35.6267 H   0  0  0  0  0  0  0  0  0  0  0  0
   46.0848   19.1528   36.3715 H   0  0  0  0  0  0  0  0  0  0  0  0
   43.9798   18.0990   37.2160 H   0  0  0  0  0  0  0  0  0  0  0  0
   41.8752   19.4253   37.3166 H   0  0  0  0  0  0  0  0  0  0  0  0
   39.4360   22.3945   39.2429 H   0  0  0  0  0  0  0  0  0  0  0  0
   37.8293   24.2848   39.7787 H   0  0  0  0  0  0  0  0  0  0  0  0
   36.7593   25.8253   35.4364 H   0  0  0  0  0  0  0  0  0  0  0  0
   38.2964   25.5098   34.5045 H   0  0  0  0  0  0  0  0  0  0  0  0
   38.3840   27.4096   36.8035 H   0  0  0  0  0  0  0  0  0  0  0  0
   39.3202   27.3789   35.2708 H   0  0  0  0  0  0  0  0  0  0  0  0
   37.6155   27.9451   35.2708 H   0  0  0  0  0  0  0  0  0  0  0  0
  1  9  1  0
  1 10  1  0
  2  1  2  0
  3  2  1  0
  3  4  1  0
  4  9  2  0
  5  4  1  0
  5  6  2  0
  6  7  1  0
  7  8  2  0
  9  8  1  0
 10 11  1  0
 11 12  2  0
 12 13  1  0
 14 13  2  0
 15 14  1  0
 16 15  2  0
 16 11  1  0
 17 18  1  0
 17 15  1  0
  2 19  1  0
  3 20  1  0
  5 21  1  0
  6 22  1  0
  7 23  1  0
  8 24  1  0
 12 25  1  0
 13 26  1  0
 17 27  1  0
 17 28  1  0
 18 29  1  0
 18 30  1  0
 18 31  1  0
M  ISO  8  19  14  20   9  21  14  22  14  23  14  24  14  25  14  26  14
M  ISO  5  27   8  28   8  29   8  30   8  31   8
M  END
>  <minimizedAffinity>  (1) 
-4.50934696

>  <minimizedRMSD>  (1) 
1.10421419

$$$$
