
     RDKit          3D

 27 29  0  0  0  0  0  0  0  0999 V2000
   41.9680   22.0720   37.0040 C   0  0  0  0  0  0  0  0  0  0  0  0
   42.5780   23.2090   36.4800 C   0  0  0  0  0  0  0  0  0  0  0  0
   43.7900   22.9120   36.0100 N   0  0  0  0  0  0  0  0  0  0  0  0
   44.0520   21.6030   36.1870 C   0  0  0  0  0  0  0  0  0  0  0  0
   45.1270   20.7960   35.8920 C   0  0  0  0  0  0  0  0  0  0  0  0
   45.0950   19.4340   36.2100 C   0  0  0  0  0  0  0  0  0  0  0  0
   43.9690   18.9060   36.8260 C   0  0  0  0  0  0  0  0  0  0  0  0
   42.8890   19.7390   37.1180 C   0  0  0  0  0  0  0  0  0  0  0  0
   42.9280   21.0860   36.7990 C   0  0  0  0  0  0  0  0  0  0  0  0
   40.7150   21.9890   37.5770 O   0  0  0  0  0  0  0  0  0  0  0  0
   39.6680   22.8150   37.3010 C   0  0  0  0  0  0  0  0  0  0  0  0
   38.9380   23.2960   38.3960 C   0  0  0  0  0  0  0  0  0  0  0  0
   37.8550   24.1500   38.1390 C   0  0  0  0  0  0  0  0  0  0  0  0
   37.5700   24.4650   36.8590 N   0  0  0  0  0  0  0  0  0  0  0  0
   38.2990   23.9800   35.8280 C   0  0  0  0  0  0  0  0  0  0  0  0
   39.3340   23.1680   36.0370 N   0  0  0  0  0  0  0  0  0  0  0  0
   37.9850   24.3240   34.4680 N   0  0  0  0  0  0  0  0  0  0  0  0
   42.1241   24.2107   36.4571 H   0  0  0  0  0  0  0  0  0  0  0  0
   44.4339   23.5874   35.5738 H   0  0  0  0  0  0  0  0  0  0  0  0
   46.0152   21.2237   35.4041 H   0  0  0  0  0  0  0  0  0  0  0  0
   45.9536   18.7881   35.9742 H   0  0  0  0  0  0  0  0  0  0  0  0
   43.9285   17.8371   37.0824 H   0  0  0  0  0  0  0  0  0  0  0  0
   41.9966   19.3214   37.6070 H   0  0  0  0  0  0  0  0  0  0  0  0
   39.2056   23.0129   39.4247 H   0  0  0  0  0  0  0  0  0  0  0  0
   37.2508   24.5543   38.9645 H   0  0  0  0  0  0  0  0  0  0  0  0
   37.1921   24.9493   34.2649 H   0  0  0  0  0  0  0  0  0  0  0  0
   38.5529   23.9452   33.6967 H   0  0  0  0  0  0  0  0  0  0  0  0
  1 10  1  0
  2  1  2  0
  3  4  1  0
  3  2  1  0
  4  9  2  0
  5  4  1  0
  5  6  2  0
  6  7  1  0
  7  8  2  0
  9  1  1  0
  9  8  1  0
 11 10  1  0
 11 12  2  0
 13 12  1  0
 14 13  2  0
 15 16  2  0
 15 14  1  0
 16 11  1  0
 17 15  1  0
  2 18  1  0
  3 19  1  0
  5 20  1  0
  6 21  1  0
  7 22  1  0
  8 23  1  0
 12 24  1  0
 13 25  1  0
 17 26  1  0
 17 27  1  0
M  ISO  8  18  14  19   9  20  14  21  14  22  14  23  14  24  14  25  14
M  END
>  <minimizedAffinity>  (1) 
-4.3516264

>  <minimizedRMSD>  (1) 
0.35824874

$$$$
