
     RDKit          3D

 26 27  0  0  1  0  0  0  0  0999 V2000
   41.1570   23.0990   35.8090 C   0  0  2  0  0  0  0  0  0  0  0  0
   39.9120   23.4490   36.5590 C   0  0  0  0  0  0  0  0  0  0  0  0
   38.9340   24.2650   35.9590 C   0  0  0  0  0  0  0  0  0  0  0  0
   37.7840   24.5530   36.7060 C   0  0  0  0  0  0  0  0  0  0  0  0
   37.6740   24.0380   37.9530 N   0  0  0  0  0  0  0  0  0  0  0  0
   38.6280   23.2570   38.5090 C   0  0  0  0  0  0  0  0  0  0  0  0
   39.7440   22.9680   37.8050 N   0  0  0  0  0  0  0  0  0  0  0  0
   40.8100   21.8520   35.0420 C   0  0  0  0  0  0  0  0  0  0  0  0
   42.2700   22.8300   36.7870 C   0  0  0  0  0  0  0  0  0  0  0  0
   42.7270   21.4400   36.7450 C   0  0  0  0  0  0  0  0  0  0  0  0
   43.8340   21.0650   35.9860 C   0  0  0  0  0  0  0  0  0  0  0  0
   44.0070   19.7260   36.1480 N   0  0  0  0  0  0  0  0  0  0  0  0
   43.0530   19.2610   36.9750 C   0  0  0  0  0  0  0  0  0  0  0  0
   42.3080   20.3110   37.3100 N   0  0  0  0  0  0  0  0  0  0  0  0
   41.4949   23.9048   35.1407 H   0  0  0  0  0  0  0  0  0  0  0  0
   39.0677   24.6616   34.9418 H   0  0  0  0  0  0  0  0  0  0  0  0
   36.9867   25.1848   36.2875 H   0  0  0  0  0  0  0  0  0  0  0  0
   38.4961   22.8603   39.5265 H   0  0  0  0  0  0  0  0  0  0  0  0
   40.5837   21.0388   35.7473 H   0  0  0  0  0  0  0  0  0  0  0  0
   39.9310   22.0435   34.4090 H   0  0  0  0  0  0  0  0  0  0  0  0
   41.6616   21.5620   34.4090 H   0  0  0  0  0  0  0  0  0  0  0  0
   43.1181   23.4880   36.5465 H   0  0  0  0  0  0  0  0  0  0  0  0
   41.8822   23.0248   37.7978 H   0  0  0  0  0  0  0  0  0  0  0  0
   44.4547   21.7308   35.3684 H   0  0  0  0  0  0  0  0  0  0  0  0
   42.9165   18.2213   37.3074 H   0  0  0  0  0  0  0  0  0  0  0  0
   41.4943   20.2557   37.9391 H   0  0  0  0  0  0  0  0  0  0  0  0
  1  2  1  0
  1  9  1  0
  2  7  1  0
  3  2  2  0
  3  4  1  0
  4  5  2  0
  5  6  1  0
  7  6  2  0
  8  1  1  0
 10  9  1  0
 10 14  1  0
 11 12  1  0
 11 10  2  0
 12 13  2  0
 13 14  1  0
  1 15  1  6
  3 16  1  0
  4 17  1  0
  6 18  1  0
  8 19  1  0
  8 20  1  0
  8 21  1  0
  9 22  1  0
  9 23  1  0
 11 24  1  0
 13 25  1  0
 14 26  1  0
M  ISO  8  15   8  16  14  17  14  18  14  19   8  20   8  21   8  22   8
M  ISO  4  23   8  24  14  25  14  26   9
M  END
>  <minimizedAffinity>  (1) 
-3.45174766

>  <minimizedRMSD>  (1) 
2.87316275

$$$$
