
     RDKit          3D

 42 46  0  0  0  0  0  0  0  0999 V2000
   38.3230   25.6380   35.8400 O   0  0  0  0  0  0  0  0  0  0  0  0
   37.8880   25.6680   34.5510 C   0  0  0  0  0  0  0  0  0  0  0  0
   37.7100   26.9170   33.9610 C   0  0  0  0  0  0  0  0  0  0  0  0
   37.2600   26.9350   32.6240 C   0  0  0  0  0  0  0  0  0  0  0  0
   37.0260   25.7710   31.9870 N   0  0  0  0  0  0  0  0  0  0  0  0
   37.2180   24.5700   32.6150 C   0  0  0  0  0  0  0  0  0  0  0  0
   37.6380   24.5380   33.8630 N   0  0  0  0  0  0  0  0  0  0  0  0
   36.9930   23.3060   32.0080 N   0  0  0  0  0  0  0  0  0  0  0  0
   37.9770   22.3460   32.0230 C   0  0  0  0  0  0  0  0  0  0  0  0
   37.6890   21.1290   31.4090 C   0  0  0  0  0  0  0  0  0  0  0  0
   36.4620   20.8930   30.8070 C   0  0  0  0  0  0  0  0  0  0  0  0
   36.1950   19.7920   30.2500 O   0  0  0  0  0  0  0  0  0  0  0  0
   35.5290   21.8640   30.8180 N   0  0  0  0  0  0  0  0  0  0  0  0
   35.8030   23.0410   31.4100 C   0  0  0  0  0  0  0  0  0  0  0  0
   34.9500   23.9590   31.4320 O   0  0  0  0  0  0  0  0  0  0  0  0
   38.7260   24.5500   36.5540 C   0  0  0  0  0  0  0  0  0  0  0  0
   37.9940   23.9500   37.5730 C   0  0  0  0  0  0  0  0  0  0  0  0
   38.6780   22.9000   38.0790 N   0  0  0  0  0  0  0  0  0  0  0  0
   39.8700   22.7710   37.4200 C   0  0  0  0  0  0  0  0  0  0  0  0
   40.9050   21.8980   37.5710 C   0  0  0  0  0  0  0  0  0  0  0  0
   42.0150   22.0170   36.7760 C   0  0  0  0  0  0  0  0  0  0  0  0
   42.0510   23.0310   35.8320 C   0  0  0  0  0  0  0  0  0  0  0  0
   40.9820   23.9300   35.6760 C   0  0  0  0  0  0  0  0  0  0  0  0
   39.8860   23.8020   36.4750 C   0  0  0  0  0  0  0  0  0  0  0  0
   41.2080   24.9280   34.6580 C   0  0  0  0  0  0  0  0  0  0  0  0
   41.3550   24.9780   33.2990 C   0  0  0  0  0  0  0  0  0  0  0  0
   41.6420   26.1970   32.8350 N   0  0  0  0  0  0  0  0  0  0  0  0
   41.6980   27.0160   33.8980 C   0  0  0  0  0  0  0  0  0  0  0  0
   41.4400   26.2430   34.9560 N   0  0  0  0  0  0  0  0  0  0  0  0
   37.9112   27.8473   34.5125 H   0  0  0  0  0  0  0  0  0  0  0  0
   37.1014   27.8921   32.1055 H   0  0  0  0  0  0  0  0  0  0  0  0
   38.9509   22.5310   32.4998 H   0  0  0  0  0  0  0  0  0  0  0  0
   38.4524   20.3370   31.4015 H   0  0  0  0  0  0  0  0  0  0  0  0
   34.6119   21.7069   30.3763 H   0  0  0  0  0  0  0  0  0  0  0  0
   37.0031   24.2816   37.9168 H   0  0  0  0  0  0  0  0  0  0  0  0
   38.3522   22.2908   38.8430 H   0  0  0  0  0  0  0  0  0  0  0  0
   40.8500   21.1013   38.3275 H   0  0  0  0  0  0  0  0  0  0  0  0
   42.8603   21.3217   36.8850 H   0  0  0  0  0  0  0  0  0  0  0  0
   42.9377   23.1347   35.1893 H   0  0  0  0  0  0  0  0  0  0  0  0
   41.2470   24.0970   32.6493 H   0  0  0  0  0  0  0  0  0  0  0  0
   41.9113   28.0951   33.8973 H   0  0  0  0  0  0  0  0  0  0  0  0
   41.4175   26.6075   35.9191 H   0  0  0  0  0  0  0  0  0  0  0  0
  1 16  1  0
  2  1  1  0
  3  2  2  0
  4  3  1  0
  5  6  1  0
  5  4  2  0
  6  7  2  0
  7  2  1  0
  8  9  1  0
  8  6  1  0
 10  9  2  0
 11 13  1  0
 11 10  1  0
 12 11  2  0
 13 14  1  0
 14 15  2  0
 14  8  1  0
 16 17  2  0
 17 18  1  0
 19 20  2  0
 19 18  1  0
 21 20  1  0
 22 21  2  0
 23 22  1  0
 23 24  2  0
 24 16  1  0
 24 19  1  0
 25 29  1  0
 25 23  1  0
 26 25  2  0
 27 26  1  0
 27 28  2  0
 28 29  1  0
  3 30  1  0
  4 31  1  0
  9 32  1  0
 10 33  1  0
 13 34  1  0
 17 35  1  0
 18 36  1  0
 20 37  1  0
 21 38  1  0
 22 39  1  0
 26 40  1  0
 28 41  1  0
 29 42  1  0
M  ISO  8  30  14  31  14  32  14  33  14  34   9  35  14  36   9  37  14
M  ISO  5  38  14  39  14  40  14  41  14  42   9
M  END
>  <minimizedAffinity>  (1) 
-6.69716024

>  <minimizedRMSD>  (1) 
5.43614912

$$$$
