
     RDKit          3D

 38 41  0  0  0  0  0  0  0  0999 V2000
   39.8480   22.6240   37.3190 C   0  0  0  0  0  0  0  0  0  0  0  0
   39.2700   23.4210   38.2950 C   0  0  0  0  0  0  0  0  0  0  0  0
   37.8850   23.6650   38.2070 C   0  0  0  0  0  0  0  0  0  0  0  0
   37.1940   23.1150   37.1840 N   0  0  0  0  0  0  0  0  0  0  0  0
   37.8010   22.3430   36.2530 C   0  0  0  0  0  0  0  0  0  0  0  0
   39.1090   22.1020   36.3210 N   0  0  0  0  0  0  0  0  0  0  0  0
   37.1370   21.7320   35.1480 N   0  0  0  0  0  0  0  0  0  0  0  0
   37.5940   21.9170   33.8720 C   0  0  0  0  0  0  0  0  0  0  0  0
   36.8940   21.2890   32.8440 C   0  0  0  0  0  0  0  0  0  0  0  0
   35.7780   20.5060   33.0900 C   0  0  0  0  0  0  0  0  0  0  0  0
   35.1550   19.9440   32.1530 O   0  0  0  0  0  0  0  0  0  0  0  0
   35.3640   20.3520   34.3680 N   0  0  0  0  0  0  0  0  0  0  0  0
   36.0510   20.9670   35.3630 C   0  0  0  0  0  0  0  0  0  0  0  0
   35.6740   20.8300   36.5510 O   0  0  0  0  0  0  0  0  0  0  0  0
   41.1910   22.3900   37.4100 O   0  0  0  0  0  0  0  0  0  0  0  0
   42.1410   22.7930   36.4930 C   0  0  0  0  0  0  0  0  0  0  0  0
   42.2150   24.0170   35.8470 C   0  0  0  0  0  0  0  0  0  0  0  0
   43.2730   24.0550   35.0220 N   0  0  0  0  0  0  0  0  0  0  0  0
   43.9420   22.8730   35.0810 C   0  0  0  0  0  0  0  0  0  0  0  0
   45.0740   22.3970   34.4480 C   0  0  0  0  0  0  0  0  0  0  0  0
   45.5270   21.1280   34.7140 C   0  0  0  0  0  0  0  0  0  0  0  0
   44.8230   20.3280   35.6360 C   0  0  0  0  0  0  0  0  0  0  0  0
   43.6910   20.8290   36.2570 C   0  0  0  0  0  0  0  0  0  0  0  0
   43.2410   22.0980   35.9890 C   0  0  0  0  0  0  0  0  0  0  0  0
   42.9180   19.9980   37.2460 C   0  0  0  0  0  0  0  0  0  0  0  0
   39.8721   23.8484   39.1104 H   0  0  0  0  0  0  0  0  0  0  0  0
   37.3766   24.2904   38.9556 H   0  0  0  0  0  0  0  0  0  0  0  0
   38.4790   22.5369   33.6658 H   0  0  0  0  0  0  0  0  0  0  0  0
   37.2374   21.4187   31.8071 H   0  0  0  0  0  0  0  0  0  0  0  0
   34.5381   19.7754   34.5831 H   0  0  0  0  0  0  0  0  0  0  0  0
   41.5040   24.8440   35.9907 H   0  0  0  0  0  0  0  0  0  0  0  0
   43.5378   24.8578   34.4335 H   0  0  0  0  0  0  0  0  0  0  0  0
   45.6124   23.0343   33.7311 H   0  0  0  0  0  0  0  0  0  0  0  0
   46.4273   20.7413   34.2140 H   0  0  0  0  0  0  0  0  0  0  0  0
   45.1713   19.3093   35.8617 H   0  0  0  0  0  0  0  0  0  0  0  0
   43.1938   20.2945   38.2688 H   0  0  0  0  0  0  0  0  0  0  0  0
   41.8401   20.1579   37.0960 H   0  0  0  0  0  0  0  0  0  0  0  0
   43.1553   18.9344   37.0960 H   0  0  0  0  0  0  0  0  0  0  0  0
  1 15  1  0
  1  2  2  0
  3  2  1  0
  4  3  2  0
  5  6  2  0
  5  4  1  0
  6  1  1  0
  7 13  1  0
  7  5  1  0
  8  7  1  0
  9 10  1  0
  9  8  2  0
 10 12  1  0
 11 10  2  0
 12 13  1  0
 13 14  2  0
 16 15  1  0
 17 16  2  0
 18 19  1  0
 18 17  1  0
 19 24  2  0
 20 21  2  0
 20 19  1  0
 21 22  1  0
 22 23  2  0
 23 25  1  0
 24 23  1  0
 24 16  1  0
  2 26  1  0
  3 27  1  0
  8 28  1  0
  9 29  1  0
 12 30  1  0
 17 31  1  0
 18 32  1  0
 20 33  1  0
 21 34  1  0
 22 35  1  0
 25 36  1  0
 25 37  1  0
 25 38  1  0
M  ISO  8  26  14  27  14  28  14  29  14  30   9  31  14  32   9  33  14
M  ISO  5  34  14  35  14  36   8  37   8  38   8
M  END
>  <minimizedAffinity>  (1) 
-6.07002115

>  <minimizedRMSD>  (1) 
0.91140008

$$$$
