
     RDKit          3D

 41 45  0  0  0  0  0  0  0  0999 V2000
   38.4850   25.3180   35.8480 O   0  0  0  0  0  0  0  0  0  0  0  0
   37.9740   25.3180   34.5670 C   0  0  0  0  0  0  0  0  0  0  0  0
   37.7200   26.5650   34.0000 C   0  0  0  0  0  0  0  0  0  0  0  0
   37.1960   26.5830   32.6920 C   0  0  0  0  0  0  0  0  0  0  0  0
   36.9710   25.4220   32.0640 N   0  0  0  0  0  0  0  0  0  0  0  0
   37.2370   24.2280   32.6600 C   0  0  0  0  0  0  0  0  0  0  0  0
   37.7290   24.1900   33.8890 N   0  0  0  0  0  0  0  0  0  0  0  0
   37.0250   22.9500   32.0620 N   0  0  0  0  0  0  0  0  0  0  0  0
   38.0330   22.0370   32.0100 C   0  0  0  0  0  0  0  0  0  0  0  0
   37.7420   20.8050   31.4060 C   0  0  0  0  0  0  0  0  0  0  0  0
   36.4970   20.5190   30.8850 C   0  0  0  0  0  0  0  0  0  0  0  0
   36.2610   19.4060   30.3480 O   0  0  0  0  0  0  0  0  0  0  0  0
   35.5320   21.4600   30.9620 N   0  0  0  0  0  0  0  0  0  0  0  0
   35.8130   22.6480   31.5440 C   0  0  0  0  0  0  0  0  0  0  0  0
   34.9250   23.5310   31.6230 O   0  0  0  0  0  0  0  0  0  0  0  0
   38.9600   24.2260   36.5180 C   0  0  0  0  0  0  0  0  0  0  0  0
   38.2950   23.5500   37.5310 C   0  0  0  0  0  0  0  0  0  0  0  0
   39.0470   22.5190   37.9760 N   0  0  0  0  0  0  0  0  0  0  0  0
   40.2230   22.4800   37.2780 C   0  0  0  0  0  0  0  0  0  0  0  0
   41.3020   21.6470   37.3470 C   0  0  0  0  0  0  0  0  0  0  0  0
   42.3730   21.8410   36.5140 C   0  0  0  0  0  0  0  0  0  0  0  0
   42.3230   22.8970   35.6090 C   0  0  0  0  0  0  0  0  0  0  0  0
   41.2210   23.7570   35.5280 C   0  0  0  0  0  0  0  0  0  0  0  0
   40.1660   23.5420   36.3730 C   0  0  0  0  0  0  0  0  0  0  0  0
   41.2600   24.8480   34.5240 C   0  0  0  0  0  0  0  0  0  0  0  0
   41.6070   26.1320   34.8970 C   0  0  0  0  0  0  0  0  0  0  0  0
   41.5180   27.1070   33.3700 S   0  0  0  0  0  0  0  0  0  0  0  0
   40.9990   25.5630   32.3980 C   0  0  0  0  0  0  0  0  0  0  0  0
   41.0200   24.8730   33.2600 N   0  0  0  0  0  0  0  0  0  0  0  0
   37.9201   27.4963   34.5502 H   0  0  0  0  0  0  0  0  0  0  0  0
   36.9747   27.5382   32.1934 H   0  0  0  0  0  0  0  0  0  0  0  0
   39.0292   22.2551   32.4223 H   0  0  0  0  0  0  0  0  0  0  0  0
   38.5321   20.0421   31.3458 H   0  0  0  0  0  0  0  0  0  0  0  0
   34.5927   21.2753   30.5819 H   0  0  0  0  0  0  0  0  0  0  0  0
   37.2994   23.8150   37.9163 H   0  0  0  0  0  0  0  0  0  0  0  0
   38.7768   21.8646   38.7241 H   0  0  0  0  0  0  0  0  0  0  0  0
   41.3121   20.8194   38.0716 H   0  0  0  0  0  0  0  0  0  0  0  0
   43.2500   21.1786   36.5597 H   0  0  0  0  0  0  0  0  0  0  0  0
   43.1770   23.0614   34.9354 H   0  0  0  0  0  0  0  0  0  0  0  0
   41.8785   26.4864   35.9023 H   0  0  0  0  0  0  0  0  0  0  0  0
   40.7586   25.4076   31.3359 H   0  0  0  0  0  0  0  0  0  0  0  0
  1 16  1  0
  2  1  1  0
  3  2  2  0
  4  3  1  0
  5  6  1  0
  5  4  2  0
  6  7  2  0
  7  2  1  0
  8  6  1  0
  9  8  1  0
 10  9  2  0
 11 13  1  0
 11 10  1  0
 12 11  2  0
 13 14  1  0
 14 15  2  0
 14  8  1  0
 16 17  2  0
 17 18  1  0
 19 20  2  0
 19 18  1  0
 21 20  1  0
 22 21  2  0
 23 22  1  0
 23 24  2  0
 24 16  1  0
 24 19  1  0
 25 26  2  0
 25 23  1  0
 27 26  1  0
 28 29  2  0
 28 27  1  0
 29 25  1  0
  3 30  1  0
  4 31  1  0
  9 32  1  0
 10 33  1  0
 13 34  1  0
 17 35  1  0
 18 36  1  0
 20 37  1  0
 21 38  1  0
 22 39  1  0
 26 40  1  0
 28 41  1  0
M  ISO  8  30  14  31  14  32  14  33  14  34   9  35  14  36   9  37  14
M  ISO  4  38  14  39  14  40  14  41  14
M  END
>  <minimizedAffinity>  (1) 
-6.4910202

>  <minimizedRMSD>  (1) 
5.20650864

$$$$
