
     RDKit          3D

 36 39  0  0  0  0  0  0  0  0999 V2000
   39.8740   22.6440   37.2050 C   0  0  0  0  0  0  0  0  0  0  0  0
   39.3170   23.3990   38.2430 C   0  0  0  0  0  0  0  0  0  0  0  0
   37.9220   23.6050   38.2130 C   0  0  0  0  0  0  0  0  0  0  0  0
   37.2020   23.0700   37.1980 N   0  0  0  0  0  0  0  0  0  0  0  0
   37.7950   22.3440   36.2160 C   0  0  0  0  0  0  0  0  0  0  0  0
   39.1070   22.1420   36.2310 N   0  0  0  0  0  0  0  0  0  0  0  0
   37.1050   21.7500   35.1170 N   0  0  0  0  0  0  0  0  0  0  0  0
   37.5030   21.9850   33.8420 C   0  0  0  0  0  0  0  0  0  0  0  0
   36.7830   21.3720   32.8110 C   0  0  0  0  0  0  0  0  0  0  0  0
   35.6970   20.5510   33.0750 C   0  0  0  0  0  0  0  0  0  0  0  0
   35.0480   20.0000   32.1490 O   0  0  0  0  0  0  0  0  0  0  0  0
   35.3450   20.3540   34.3610 N   0  0  0  0  0  0  0  0  0  0  0  0
   36.0430   20.9480   35.3490 C   0  0  0  0  0  0  0  0  0  0  0  0
   35.7190   20.7670   36.5520 O   0  0  0  0  0  0  0  0  0  0  0  0
   41.2300   22.4510   37.2450 O   0  0  0  0  0  0  0  0  0  0  0  0
   42.1370   22.9540   36.3270 C   0  0  0  0  0  0  0  0  0  0  0  0
   42.1250   24.1980   35.7460 C   0  0  0  0  0  0  0  0  0  0  0  0
   43.1640   24.3310   34.9050 N   0  0  0  0  0  0  0  0  0  0  0  0
   43.8920   23.1960   34.8990 C   0  0  0  0  0  0  0  0  0  0  0  0
   45.0330   22.8080   34.2290 C   0  0  0  0  0  0  0  0  0  0  0  0
   45.5740   21.5450   34.4220 C   0  0  0  0  0  0  0  0  0  0  0  0
   44.9240   20.6840   35.3180 C   0  0  0  0  0  0  0  0  0  0  0  0
   43.7750   21.0810   35.9900 C   0  0  0  0  0  0  0  0  0  0  0  0
   43.2610   22.3450   35.7750 C   0  0  0  0  0  0  0  0  0  0  0  0
   42.9350   19.9870   37.1370 S   0  0  0  0  0  0  0  0  0  0  0  0
   39.9406   23.8143   39.0483 H   0  0  0  0  0  0  0  0  0  0  0  0
   37.4266   24.1908   39.0013 H   0  0  0  0  0  0  0  0  0  0  0  0
   38.3631   22.6358   33.6258 H   0  0  0  0  0  0  0  0  0  0  0  0
   37.0851   21.5451   31.7675 H   0  0  0  0  0  0  0  0  0  0  0  0
   34.5427   19.7496   34.5886 H   0  0  0  0  0  0  0  0  0  0  0  0
   41.3716   24.9753   35.9414 H   0  0  0  0  0  0  0  0  0  0  0  0
   43.3729   25.1725   34.3490 H   0  0  0  0  0  0  0  0  0  0  0  0
   45.5198   23.5077   33.5337 H   0  0  0  0  0  0  0  0  0  0  0  0
   46.4833   21.2293   33.8895 H   0  0  0  0  0  0  0  0  0  0  0  0
   45.3311   19.6769   35.4916 H   0  0  0  0  0  0  0  0  0  0  0  0
   43.2241   20.3636   38.4221 H   0  0  0  0  0  0  0  0  0  0  0  0
  1 15  1  0
  1  2  2  0
  3  2  1  0
  4  3  2  0
  5  6  2  0
  5  4  1  0
  6  1  1  0
  7 13  1  0
  7  5  1  0
  8  7  1  0
  9 10  1  0
  9  8  2  0
 10 12  1  0
 11 10  2  0
 12 13  1  0
 13 14  2  0
 16 15  1  0
 17 16  2  0
 18 17  1  0
 19 18  1  0
 19 24  2  0
 20 21  2  0
 20 19  1  0
 21 22  1  0
 22 23  2  0
 23 25  1  0
 24 23  1  0
 24 16  1  0
  2 26  1  0
  3 27  1  0
  8 28  1  0
  9 29  1  0
 12 30  1  0
 17 31  1  0
 18 32  1  0
 20 33  1  0
 21 34  1  0
 22 35  1  0
 25 36  1  0
M  ISO  8  26  14  27  14  28  14  29  14  30   9  31  14  32   9  33  14
M  ISO  3  34  14  35  14  36  11
M  END
>  <minimizedAffinity>  (1) 
-5.80361223

>  <minimizedRMSD>  (1) 
1.14784861

$$$$
