
     RDKit          3D

 42 46  0  0  0  0  0  0  0  0999 V2000
   41.4630   21.9270   36.7240 O   0  0  0  0  0  0  0  0  0  0  0  0
   40.1350   22.2500   36.7640 C   0  0  0  0  0  0  0  0  0  0  0  0
   39.6960   22.9620   37.8840 C   0  0  0  0  0  0  0  0  0  0  0  0
   38.3250   23.2960   37.9260 C   0  0  0  0  0  0  0  0  0  0  0  0
   37.5290   22.9220   36.9110 N   0  0  0  0  0  0  0  0  0  0  0  0
   38.0110   22.2330   35.8520 C   0  0  0  0  0  0  0  0  0  0  0  0
   39.2880   21.9030   35.7790 N   0  0  0  0  0  0  0  0  0  0  0  0
   37.2300   21.8010   34.7380 N   0  0  0  0  0  0  0  0  0  0  0  0
   37.6160   22.1020   33.4540 C   0  0  0  0  0  0  0  0  0  0  0  0
   36.8030   21.6450   32.4170 C   0  0  0  0  0  0  0  0  0  0  0  0
   35.6430   20.9120   32.6680 C   0  0  0  0  0  0  0  0  0  0  0  0
   34.9290   20.5120   31.7120 O   0  0  0  0  0  0  0  0  0  0  0  0
   35.3060   20.6420   33.9360 N   0  0  0  0  0  0  0  0  0  0  0  0
   36.0970   21.0860   34.9430 C   0  0  0  0  0  0  0  0  0  0  0  0
   35.7890   20.8390   36.1350 O   0  0  0  0  0  0  0  0  0  0  0  0
   42.5030   22.7440   36.4220 C   0  0  0  0  0  0  0  0  0  0  0  0
   42.4220   24.1360   36.3980 C   0  0  0  0  0  0  0  0  0  0  0  0
   43.6280   24.6720   36.0550 N   0  0  0  0  0  0  0  0  0  0  0  0
   44.5160   23.6730   35.8490 C   0  0  0  0  0  0  0  0  0  0  0  0
   45.8290   23.6510   35.4750 C   0  0  0  0  0  0  0  0  0  0  0  0
   46.5030   22.4740   35.3120 C   0  0  0  0  0  0  0  0  0  0  0  0
   45.8100   21.2810   35.5410 C   0  0  0  0  0  0  0  0  0  0  0  0
   44.4570   21.2920   35.9290 C   0  0  0  0  0  0  0  0  0  0  0  0
   43.8160   22.4890   36.0790 C   0  0  0  0  0  0  0  0  0  0  0  0
   43.9690   19.9460   36.0960 C   0  0  0  0  0  0  0  0  0  0  0  0
   43.9600   19.1350   37.1320 C   0  0  0  0  0  0  0  0  0  0  0  0
   43.5740   17.8670   37.2400 C   0  0  0  0  0  0  0  0  0  0  0  0
   43.1000   17.4210   35.8800 C   0  0  0  0  0  0  0  0  0  0  0  0
   43.3330   18.9560   34.7940 S   0  0  0  0  0  0  0  0  0  0  0  0
   40.3848   23.2479   38.6926 H   0  0  0  0  0  0  0  0  0  0  0  0
   37.9139   23.8555   38.7792 H   0  0  0  0  0  0  0  0  0  0  0  0
   38.5297   22.6803   33.2521 H   0  0  0  0  0  0  0  0  0  0  0  0
   37.0831   21.8678   31.3768 H   0  0  0  0  0  0  0  0  0  0  0  0
   34.4538   20.1021   34.1437 H   0  0  0  0  0  0  0  0  0  0  0  0
   41.5160   24.7177   36.6233 H   0  0  0  0  0  0  0  0  0  0  0  0
   43.8305   25.6780   35.9668 H   0  0  0  0  0  0  0  0  0  0  0  0
   46.3552   24.6012   35.3013 H   0  0  0  0  0  0  0  0  0  0  0  0
   47.5605   22.4648   35.0093 H   0  0  0  0  0  0  0  0  0  0  0  0
   46.3300   20.3198   35.4160 H   0  0  0  0  0  0  0  0  0  0  0  0
   44.3346   19.5805   38.0654 H   0  0  0  0  0  0  0  0  0  0  0  0
   43.5964   17.2555   38.1541 H   0  0  0  0  0  0  0  0  0  0  0  0
   42.7101   16.4351   35.5868 H   0  0  0  0  0  0  0  0  0  0  0  0
  1  2  1  0
  2  3  2  0
  3  4  1  0
  5  4  2  0
  6  5  1  0
  7  6  2  0
  7  2  1  0
  8 14  1  0
  8  6  1  0
  9  8  1  0
 10 11  1  0
 10  9  2  0
 11 13  1  0
 12 11  2  0
 13 14  1  0
 14 15  2  0
 16  1  1  0
 17 16  2  0
 18 17  1  0
 19 18  1  0
 19 24  2  0
 20 19  1  0
 21 20  2  0
 21 22  1  0
 22 23  2  0
 23 24  1  0
 23 25  1  0
 24 16  1  0
 25 26  2  0
 26 27  1  0
 28 27  2  0
 29 28  1  0
 29 25  1  0
  3 30  1  0
  4 31  1  0
  9 32  1  0
 10 33  1  0
 13 34  1  0
 17 35  1  0
 18 36  1  0
 20 37  1  0
 21 38  1  0
 22 39  1  0
 26 40  1  0
 27 41  1  0
 28 42  1  0
M  ISO  8  30  14  31  14  32  14  33  14  34   9  35  14  36   9  37  14
M  ISO  5  38  14  39  14  40  14  41  14  42  14
M  END
>  <minimizedAffinity>  (1) 
-5.78737307

>  <minimizedRMSD>  (1) 
2.22216296

$$$$
