
     RDKit          3D

 14 14  0  0  0  0  0  0  0  0999 V2000
   41.5910   21.6010   36.2790 C   0  0  0  0  0  0  0  0  0  0  0  0
   40.9850   21.9850   37.4970 C   0  0  0  0  0  0  0  0  0  0  0  0
   39.8110   22.7410   37.4280 C   0  0  0  0  0  0  0  0  0  0  0  0
   39.3120   23.0700   36.1870 N   0  0  0  0  0  0  0  0  0  0  0  0
   39.9320   22.6760   35.0560 C   0  0  0  0  0  0  0  0  0  0  0  0
   41.0550   21.9530   35.1080 N   0  0  0  0  0  0  0  0  0  0  0  0
   39.1150   23.1830   38.6780 C   0  0  0  0  0  0  0  0  0  0  0  0
   37.8520   24.4510   38.3170 S   0  0  0  0  0  0  0  0  0  0  0  0
   42.5154   21.0050   36.2962 H   0  0  0  0  0  0  0  0  0  0  0  0
   41.4218   21.6990   38.4652 H   0  0  0  0  0  0  0  0  0  0  0  0
   39.5085   22.9529   34.0793 H   0  0  0  0  0  0  0  0  0  0  0  0
   38.6279   22.3138   39.1440 H   0  0  0  0  0  0  0  0  0  0  0  0
   39.8623   23.6191   39.3573 H   0  0  0  0  0  0  0  0  0  0  0  0
   37.3559   24.9491   39.4929 H   0  0  0  0  0  0  0  0  0  0  0  0
  1  2  2  0
  3  2  1  0
  3  7  1  0
  4  3  2  0
  5  6  2  0
  5  4  1  0
  6  1  1  0
  8  7  1  0
  1  9  1  0
  2 10  1  0
  5 11  1  0
  7 12  1  0
  7 13  1  0
  8 14  1  0
M  ISO  6   9  14  10  14  11  14  12   8  13   8  14  11
M  END
>  <minimizedAffinity>  (1) 
-2.29866695

>  <minimizedRMSD>  (1) 
1.49051547

$$$$
