
     RDKit          3D

 41 44  0  0  1  0  0  0  0  0999 V2000
   37.4140   24.8600   33.1340 N   0  0  0  0  0  0  0  0  0  0  0  0
   37.5150   23.6580   32.3300 C   0  0  0  0  0  0  0  0  0  0  0  0
   36.5190   23.8500   31.2130 C   0  0  0  0  0  0  0  0  0  0  0  0
   35.9260   25.2340   31.5030 C   0  0  0  0  0  0  0  0  0  0  0  0
   37.2000   25.8570   32.1600 C   0  0  1  0  0  0  0  0  0  0  0  0
   36.8070   27.1920   32.5190 C   0  0  0  0  0  0  0  0  0  0  0  0
   36.3250   27.5560   33.7570 C   0  0  0  0  0  0  0  0  0  0  0  0
   35.8980   28.8110   34.1340 C   0  0  0  0  0  0  0  0  0  0  0  0
   35.9420   29.8320   33.2110 C   0  0  0  0  0  0  0  0  0  0  0  0
   36.4100   29.5490   31.9500 C   0  0  0  0  0  0  0  0  0  0  0  0
   36.4370   30.5990   31.0650 C   0  0  0  0  0  0  0  0  0  0  0  0
   36.8930   30.4110   29.7850 C   0  0  0  0  0  0  0  0  0  0  0  0
   37.3210   29.1290   29.4280 C   0  0  0  0  0  0  0  0  0  0  0  0
   37.2700   28.1180   30.3580 C   0  0  0  0  0  0  0  0  0  0  0  0
   36.8240   28.2730   31.6310 C   0  0  0  0  0  0  0  0  0  0  0  0
   38.6720   25.1470   33.7990 C   0  0  0  0  0  0  0  0  0  0  0  0
   37.9590   24.4120   37.4250 C   0  0  0  0  0  0  0  0  0  0  0  0
   37.8890   25.0220   36.1730 C   0  0  0  0  0  0  0  0  0  0  0  0
   38.7130   24.5600   35.1570 C   0  0  0  0  0  0  0  0  0  0  0  0
   39.5770   23.5080   35.4260 N   0  0  0  0  0  0  0  0  0  0  0  0
   39.6130   22.9400   36.6600 C   0  0  0  0  0  0  0  0  0  0  0  0
   38.8050   23.3970   37.6500 N   0  0  0  0  0  0  0  0  0  0  0  0
   38.5322   23.5474   31.9261 H   0  0  0  0  0  0  0  0  0  0  0  0
   37.3083   22.7504   32.9162 H   0  0  0  0  0  0  0  0  0  0  0  0
   35.7402   23.0737   31.2418 H   0  0  0  0  0  0  0  0  0  0  0  0
   36.9734   23.7772   30.2139 H   0  0  0  0  0  0  0  0  0  0  0  0
   35.6245   25.7625   30.5866 H   0  0  0  0  0  0  0  0  0  0  0  0
   35.0034   25.2574   32.1015 H   0  0  0  0  0  0  0  0  0  0  0  0
   38.1489   26.0360   31.6331 H   0  0  0  0  0  0  0  0  0  0  0  0
   36.2760   26.7661   34.5210 H   0  0  0  0  0  0  0  0  0  0  0  0
   35.5287   28.9938   35.1539 H   0  0  0  0  0  0  0  0  0  0  0  0
   35.6114   30.8472   33.4759 H   0  0  0  0  0  0  0  0  0  0  0  0
   36.0919   31.5937   31.3836 H   0  0  0  0  0  0  0  0  0  0  0  0
   36.9209   31.2411   29.0638 H   0  0  0  0  0  0  0  0  0  0  0  0
   37.6950   28.9311   28.4126 H   0  0  0  0  0  0  0  0  0  0  0  0
   37.6127   27.1188   30.0510 H   0  0  0  0  0  0  0  0  0  0  0  0
   39.4956   24.7270   33.2029 H   0  0  0  0  0  0  0  0  0  0  0  0
   38.7729   26.2385   33.8912 H   0  0  0  0  0  0  0  0  0  0  0  0
   37.3110   24.7687   38.2392 H   0  0  0  0  0  0  0  0  0  0  0  0
   37.1928   25.8547   35.9941 H   0  0  0  0  0  0  0  0  0  0  0  0
   40.3011   22.1049   36.8576 H   0  0  0  0  0  0  0  0  0  0  0  0
  1 16  1  0
  2  1  1  0
  3  4  1  0
  3  2  1  0
  4  5  1  0
  5  6  1  0
  5  1  1  0
  6  7  2  0
  7  8  1  0
  9  8  2  0
 10  9  1  0
 11 10  2  0
 12 11  1  0
 13 12  2  0
 13 14  1  0
 14 15  2  0
 15 10  1  0
 15  6  1  0
 16 19  1  0
 17 22  2  0
 18 17  1  0
 19 20  1  0
 19 18  2  0
 20 21  2  0
 21 22  1  0
  2 23  1  0
  2 24  1  0
  3 25  1  0
  3 26  1  0
  4 27  1  0
  4 28  1  0
  5 29  1  6
  7 30  1  0
  8 31  1  0
  9 32  1  0
 11 33  1  0
 12 34  1  0
 13 35  1  0
 14 36  1  0
 16 37  1  0
 16 38  1  0
 17 39  1  0
 18 40  1  0
 21 41  1  0
M  ISO  8  23  13  24  13  25  13  26  13  27  13  28  13  29  13  30  14
M  ISO  8  31  14  32  14  33  14  34  14  35  14  36  14  37   8  38   8
M  ISO  3  39  14  40  14  41  14
M  END
>  <minimizedAffinity>  (1) 
-5.3408556

>  <minimizedRMSD>  (1) 
3.75193119

$$$$
