
     RDKit          3D

 32 34  0  0  1  0  0  0  0  0999 V2000
   37.7250   24.1730   33.6840 N   0  0  0  0  0  0  0  0  0  0  0  0
   38.0390   22.9700   32.9480 C   0  0  0  0  0  0  0  0  0  0  0  0
   37.1730   23.0210   31.7170 C   0  0  0  0  0  0  0  0  0  0  0  0
   36.4070   24.3380   31.8640 C   0  0  0  0  0  0  0  0  0  0  0  0
   37.4920   25.1180   32.6570 C   0  0  1  0  0  0  0  0  0  0  0  0
   36.9620   26.4310   33.0490 C   0  0  0  0  0  0  0  0  0  0  0  0
   37.0090   27.0220   34.2850 C   0  0  0  0  0  0  0  0  0  0  0  0
   36.5000   28.2610   34.4500 C   0  0  0  0  0  0  0  0  0  0  0  0
   35.9500   28.8880   33.3610 C   0  0  0  0  0  0  0  0  0  0  0  0
   36.1250   27.7180   31.9850 S   0  0  0  0  0  0  0  0  0  0  0  0
   38.8770   24.6390   34.4410 C   0  0  0  0  0  0  0  0  0  0  0  0
   37.8850   24.0470   38.0400 C   0  0  0  0  0  0  0  0  0  0  0  0
   37.8950   24.5070   36.7240 C   0  0  0  0  0  0  0  0  0  0  0  0
   38.8830   24.1300   35.8280 C   0  0  0  0  0  0  0  0  0  0  0  0
   39.8480   23.2840   36.3040 N   0  0  0  0  0  0  0  0  0  0  0  0
   39.8360   22.8380   37.5870 C   0  0  0  0  0  0  0  0  0  0  0  0
   38.8640   23.2180   38.4390 N   0  0  0  0  0  0  0  0  0  0  0  0
   39.1032   22.9548   32.6702 H   0  0  0  0  0  0  0  0  0  0  0  0
   37.8529   22.0641   33.5435 H   0  0  0  0  0  0  0  0  0  0  0  0
   36.4812   22.1663   31.6889 H   0  0  0  0  0  0  0  0  0  0  0  0
   37.7549   22.9690   30.7850 H   0  0  0  0  0  0  0  0  0  0  0  0
   36.1835   24.8029   30.8924 H   0  0  0  0  0  0  0  0  0  0  0  0
   35.4136   24.2740   32.3319 H   0  0  0  0  0  0  0  0  0  0  0  0
   38.4263   25.4065   32.1532 H   0  0  0  0  0  0  0  0  0  0  0  0
   37.4585   26.4900   35.1365 H   0  0  0  0  0  0  0  0  0  0  0  0
   36.5255   28.7553   35.4324 H   0  0  0  0  0  0  0  0  0  0  0  0
   35.4976   29.8901   33.3286 H   0  0  0  0  0  0  0  0  0  0  0  0
   39.7929   24.2985   33.9358 H   0  0  0  0  0  0  0  0  0  0  0  0
   38.8263   25.7369   34.4869 H   0  0  0  0  0  0  0  0  0  0  0  0
   37.0922   24.3563   38.7370 H   0  0  0  0  0  0  0  0  0  0  0  0
   37.0981   25.1868   36.3880 H   0  0  0  0  0  0  0  0  0  0  0  0
   40.6287   22.1590   37.9342 H   0  0  0  0  0  0  0  0  0  0  0  0
  1 11  1  0
  2  1  1  0
  3  4  1  0
  3  2  1  0
  4  5  1  0
  5  6  1  0
  5  1  1  0
  6  7  2  0
  7  8  1  0
  9  8  2  0
 10  6  1  0
 10  9  1  0
 11 14  1  0
 12 17  2  0
 13 12  1  0
 14 15  1  0
 14 13  2  0
 15 16  2  0
 16 17  1  0
  2 18  1  0
  2 19  1  0
  3 20  1  0
  3 21  1  0
  4 22  1  0
  4 23  1  0
  5 24  1  6
  7 25  1  0
  8 26  1  0
  9 27  1  0
 11 28  1  0
 11 29  1  0
 12 30  1  0
 13 31  1  0
 16 32  1  0
M  ISO  8  18  13  19  13  20  13  21  13  22  13  23  13  24  13  25  14
M  ISO  7  26  14  27  14  28   8  29   8  30  14  31  14  32  14
M  END
>  <minimizedAffinity>  (1) 
-4.52061272

>  <minimizedRMSD>  (1) 
2.84999108

$$$$
