
     RDKit          3D

 37 38  0  0  1  0  0  0  0  0999 V2000
   38.0160   24.2620   34.9530 N   0  0  0  0  0  0  0  0  0  0  0  0
   38.3590   25.3720   34.0900 C   0  0  0  0  0  0  0  0  0  0  0  0
   38.6310   26.5360   35.0220 C   0  0  0  0  0  0  0  0  0  0  0  0
   38.1960   25.9740   36.3710 C   0  0  0  0  0  0  0  0  0  0  0  0
   38.6740   24.5200   36.1280 C   0  0  1  0  0  0  0  0  0  0  0  0
   38.4740   23.8740   37.4210 C   0  0  0  0  0  0  0  0  0  0  0  0
   38.0970   24.7250   38.5920 C   0  0  0  0  0  0  0  0  0  0  0  0
   37.2460   22.9700   37.2130 C   0  0  0  0  0  0  0  0  0  0  0  0
   39.5280   22.8550   37.8010 C   0  0  0  0  0  0  0  0  0  0  0  0
   38.4280   23.0150   34.3630 C   0  0  0  0  0  0  0  0  0  0  0  0
   35.6240   20.6750   33.4390 C   0  0  0  0  0  0  0  0  0  0  0  0
   36.6450   21.2810   34.1740 C   0  0  0  0  0  0  0  0  0  0  0  0
   37.3340   22.3500   33.6090 C   0  0  0  0  0  0  0  0  0  0  0  0
   36.9860   22.7690   32.3530 N   0  0  0  0  0  0  0  0  0  0  0  0
   35.9850   22.1560   31.6610 C   0  0  0  0  0  0  0  0  0  0  0  0
   35.3190   21.1210   32.2080 N   0  0  0  0  0  0  0  0  0  0  0  0
   39.2549   25.1361   33.4970 H   0  0  0  0  0  0  0  0  0  0  0  0
   37.5541   25.5990   33.3754 H   0  0  0  0  0  0  0  0  0  0  0  0
   39.6981   26.8032   35.0262 H   0  0  0  0  0  0  0  0  0  0  0  0
   38.1078   27.4612   34.7387 H   0  0  0  0  0  0  0  0  0  0  0  0
   38.7151   26.4529   37.2143 H   0  0  0  0  0  0  0  0  0  0  0  0
   37.1387   26.1072   36.6437 H   0  0  0  0  0  0  0  0  0  0  0  0
   39.6994   24.1794   35.9219 H   0  0  0  0  0  0  0  0  0  0  0  0
   38.3334   24.1913   39.5243 H   0  0  0  0  0  0  0  0  0  0  0  0
   38.6613   25.6685   38.5564 H   0  0  0  0  0  0  0  0  0  0  0  0
   37.0190   24.9410   38.5564 H   0  0  0  0  0  0  0  0  0  0  0  0
   36.8405   22.6715   38.1910 H   0  0  0  0  0  0  0  0  0  0  0  0
   36.4774   23.5195   36.6497 H   0  0  0  0  0  0  0  0  0  0  0  0
   37.5423   22.0729   36.6497 H   0  0  0  0  0  0  0  0  0  0  0  0
   39.5961   22.7892   38.8969 H   0  0  0  0  0  0  0  0  0  0  0  0
   39.2524   21.8721   37.3910 H   0  0  0  0  0  0  0  0  0  0  0  0
   40.5010   23.1636   37.3910 H   0  0  0  0  0  0  0  0  0  0  0  0
   39.2627   23.2103   33.6737 H   0  0  0  0  0  0  0  0  0  0  0  0
   38.7256   22.3421   35.1807 H   0  0  0  0  0  0  0  0  0  0  0  0
   35.0671   19.8294   33.8689 H   0  0  0  0  0  0  0  0  0  0  0  0
   36.9001   20.9200   35.1813 H   0  0  0  0  0  0  0  0  0  0  0  0
   35.7201   22.5074   30.6529 H   0  0  0  0  0  0  0  0  0  0  0  0
  1  5  1  0
  2  1  1  0
  2  3  1  0
  3  4  1  0
  5  4  1  0
  5  6  1  0
  6  9  1  0
  6  7  1  0
  8  6  1  0
 10  1  1  0
 11 12  2  0
 13 12  1  0
 13 10  1  0
 14 13  2  0
 15 16  2  0
 15 14  1  0
 16 11  1  0
  2 17  1  0
  2 18  1  0
  3 19  1  0
  3 20  1  0
  4 21  1  0
  4 22  1  0
  5 23  1  6
  7 24  1  0
  7 25  1  0
  7 26  1  0
  8 27  1  0
  8 28  1  0
  8 29  1  0
  9 30  1  0
  9 31  1  0
  9 32  1  0
 10 33  1  0
 10 34  1  0
 11 35  1  0
 12 36  1  0
 15 37  1  0
M  ISO  8  17  13  18  13  19  13  20  13  21  13  22  13  23  13  24   8
M  ISO  8  25   8  26   8  27   8  28   8  29   8  30   8  31   8  32   8
M  ISO  5  33   8  34   8  35  14  36  14  37  14
M  END
>  <minimizedAffinity>  (1) 
-4.31231642

>  <minimizedRMSD>  (1) 
4.5926218

$$$$
