
     RDKit          3D

 27 28  0  0  1  0  0  0  0  0999 V2000
   37.8000   25.9880   34.7620 N   0  0  0  0  0  0  0  0  0  0  0  0
   37.2160   25.8880   33.4740 C   0  0  0  0  0  0  0  0  0  0  0  0
   36.6050   27.2580   33.1980 C   0  0  0  0  0  0  0  0  0  0  0  0
   36.9420   28.0710   34.4430 C   0  0  0  0  0  0  0  0  0  0  0  0
   38.2450   27.3680   34.8260 C   0  0  1  0  0  0  0  0  0  0  0  0
   38.9840   25.1750   34.9360 C   0  0  0  0  0  0  0  0  0  0  0  0
   37.8790   23.7210   38.2410 C   0  0  0  0  0  0  0  0  0  0  0  0
   37.8930   24.4820   37.0820 C   0  0  0  0  0  0  0  0  0  0  0  0
   38.9470   24.3730   36.1800 C   0  0  0  0  0  0  0  0  0  0  0  0
   39.9410   23.4910   36.5000 N   0  0  0  0  0  0  0  0  0  0  0  0
   39.9190   22.7550   37.6290 C   0  0  0  0  0  0  0  0  0  0  0  0
   38.8810   22.8770   38.4950 N   0  0  0  0  0  0  0  0  0  0  0  0
   38.5010   27.7630   36.1960 N   0  0  0  0  0  0  0  0  0  0  0  0
   37.9823   25.6498   32.7216 H   0  0  0  0  0  0  0  0  0  0  0  0
   36.4628   25.0877   33.4277 H   0  0  0  0  0  0  0  0  0  0  0  0
   37.0526   27.7122   32.3017 H   0  0  0  0  0  0  0  0  0  0  0  0
   35.5231   27.2076   33.0058 H   0  0  0  0  0  0  0  0  0  0  0  0
   37.0972   29.1355   34.2135 H   0  0  0  0  0  0  0  0  0  0  0  0
   36.1657   28.0963   35.2219 H   0  0  0  0  0  0  0  0  0  0  0  0
   39.1464   27.5685   34.2282 H   0  0  0  0  0  0  0  0  0  0  0  0
   39.0709   24.4913   34.0787 H   0  0  0  0  0  0  0  0  0  0  0  0
   39.8470   25.8538   35.0031 H   0  0  0  0  0  0  0  0  0  0  0  0
   37.0431   23.8129   38.9501 H   0  0  0  0  0  0  0  0  0  0  0  0
   37.0656   25.1764   36.8742 H   0  0  0  0  0  0  0  0  0  0  0  0
   40.7405   22.0570   37.8481 H   0  0  0  0  0  0  0  0  0  0  0  0
   38.0622   27.0859   36.8362 H   0  0  0  0  0  0  0  0  0  0  0  0
   39.5172   27.7846   36.3629 H   0  0  0  0  0  0  0  0  0  0  0  0
  1  5  1  0
  1  6  1  0
  2  1  1  0
  3  2  1  0
  3  4  1  0
  4  5  1  0
  5 13  1  0
  6  9  1  0
  7 12  2  0
  8  7  1  0
  9 10  1  0
  9  8  2  0
 10 11  2  0
 11 12  1  0
  2 14  1  0
  2 15  1  0
  3 16  1  0
  3 17  1  0
  4 18  1  0
  4 19  1  0
  5 20  1  6
  6 21  1  0
  6 22  1  0
  7 23  1  0
  8 24  1  0
 11 25  1  0
 13 26  1  0
 13 27  1  0
M  ISO  8  14  13  15  13  16  13  17  13  18  13  19  13  20  13  21   8
M  ISO  6  22   8  23  14  24  14  25  14  26   5  27   5
M  END
>  <minimizedAffinity>  (1) 
-4.09025049

>  <minimizedRMSD>  (1) 
0.683097064

$$$$
