
     RDKit          3D

 26 27  0  0  1  0  0  0  0  0999 V2000
   37.8960   25.6380   34.3590 N   0  0  0  0  0  0  0  0  0  0  0  0
   37.3670   25.3250   33.0710 C   0  0  0  0  0  0  0  0  0  0  0  0
   36.7430   26.5990   32.5650 C   0  0  0  0  0  0  0  0  0  0  0  0
   37.0220   27.6240   33.6640 C   0  0  0  0  0  0  0  0  0  0  0  0
   38.3260   27.0150   34.2150 C   0  0  2  0  0  0  0  0  0  0  0  0
   39.0620   24.8900   34.7220 C   0  0  0  0  0  0  0  0  0  0  0  0
   37.9370   24.1930   38.2750 C   0  0  0  0  0  0  0  0  0  0  0  0
   37.9890   24.7560   36.9980 C   0  0  0  0  0  0  0  0  0  0  0  0
   38.9660   24.3180   36.0990 C   0  0  0  0  0  0  0  0  0  0  0  0
   39.8320   23.3450   36.5300 N   0  0  0  0  0  0  0  0  0  0  0  0
   39.7490   22.8270   37.7710 C   0  0  0  0  0  0  0  0  0  0  0  0
   38.8060   23.2550   38.6290 N   0  0  0  0  0  0  0  0  0  0  0  0
   39.3810   27.1790   33.3560 O   0  0  0  0  0  0  0  0  0  0  0  0
   38.1711   24.9974   32.3956 H   0  0  0  0  0  0  0  0  0  0  0  0
   36.6338   24.5065   33.1216 H   0  0  0  0  0  0  0  0  0  0  0  0
   37.2066   26.9093   31.6170 H   0  0  0  0  0  0  0  0  0  0  0  0
   35.6680   26.4862   32.3611 H   0  0  0  0  0  0  0  0  0  0  0  0
   37.1751   28.6352   33.2590 H   0  0  0  0  0  0  0  0  0  0  0  0
   36.2153   27.7712   34.3972 H   0  0  0  0  0  0  0  0  0  0  0  0
   38.7150   27.4688   35.1384 H   0  0  0  0  0  0  0  0  0  0  0  0
   39.1901   24.0655   34.0052 H   0  0  0  0  0  0  0  0  0  0  0  0
   39.9206   25.5774   34.7035 H   0  0  0  0  0  0  0  0  0  0  0  0
   37.1721   24.5288   38.9906 H   0  0  0  0  0  0  0  0  0  0  0  0
   37.2700   25.5345   36.7031 H   0  0  0  0  0  0  0  0  0  0  0  0
   40.4586   22.0474   38.0851 H   0  0  0  0  0  0  0  0  0  0  0  0
   40.2132   27.3084   33.8764 H   0  0  0  0  0  0  0  0  0  0  0  0
  1  6  1  0
  2  1  1  0
  3  2  1  0
  3  4  1  0
  4  5  1  0
  5  1  1  0
  6  9  1  0
  7 12  2  0
  8  7  1  0
  9 10  1  0
  9  8  2  0
 10 11  2  0
 11 12  1  0
 13  5  1  0
  2 14  1  0
  2 15  1  0
  3 16  1  0
  3 17  1  0
  4 18  1  0
  4 19  1  0
  5 20  1  1
  6 21  1  0
  6 22  1  0
  7 23  1  0
  8 24  1  0
 11 25  1  0
 13 26  1  0
M  ISO  8  14  13  15  13  16  13  17  13  18  13  19  13  20  13  21   8
M  ISO  5  22   8  23  14  24  14  25  14  26   3
M  END
>  <minimizedAffinity>  (1) 
-3.73474932

>  <minimizedRMSD>  (1) 
0.281262994

$$$$
