
     RDKit          3D

 37 40  0  0  1  0  0  0  0  0999 V2000
   38.1950   24.1310   33.7570 N   0  0  0  0  0  0  0  0  0  0  0  0
   38.9130   23.4960   32.6870 C   0  0  0  0  0  0  0  0  0  0  0  0
   37.9720   23.4660   31.5230 C   0  0  0  0  0  0  0  0  0  0  0  0
   36.7270   24.1950   32.0250 C   0  0  0  0  0  0  0  0  0  0  0  0
   37.3980   25.1130   33.0710 C   0  0  2  0  0  0  0  0  0  0  0  0
   39.0340   24.8460   34.6630 C   0  0  0  0  0  0  0  0  0  0  0  0
   37.9410   24.2120   38.2400 C   0  0  0  0  0  0  0  0  0  0  0  0
   37.9740   24.7640   36.9550 C   0  0  0  0  0  0  0  0  0  0  0  0
   38.9390   24.3000   36.0580 C   0  0  0  0  0  0  0  0  0  0  0  0
   39.8120   23.3180   36.4820 N   0  0  0  0  0  0  0  0  0  0  0  0
   39.7370   22.8180   37.7330 C   0  0  0  0  0  0  0  0  0  0  0  0
   38.8090   23.2680   38.5900 N   0  0  0  0  0  0  0  0  0  0  0  0
   38.1000   26.1200   32.4830 O   0  0  0  0  0  0  0  0  0  0  0  0
   35.5140   29.7880   33.1830 N   0  0  0  0  0  0  0  0  0  0  0  0
   35.8110   29.1480   34.3370 C   0  0  0  0  0  0  0  0  0  0  0  0
   36.5700   28.0920   34.0140 N   0  0  0  0  0  0  0  0  0  0  0  0
   36.7450   28.0730   32.6750 C   0  0  0  0  0  0  0  0  0  0  0  0
   37.4500   27.1810   31.8700 C   0  0  0  0  0  0  0  0  0  0  0  0
   37.4460   27.4220   30.5450 N   0  0  0  0  0  0  0  0  0  0  0  0
   36.7910   28.4780   30.0090 C   0  0  0  0  0  0  0  0  0  0  0  0
   36.1050   29.3420   30.8120 N   0  0  0  0  0  0  0  0  0  0  0  0
   36.0730   29.1530   32.1430 C   0  0  0  0  0  0  0  0  0  0  0  0
   39.8146   24.0737   32.4354 H   0  0  0  0  0  0  0  0  0  0  0  0
   39.2427   22.4844   32.9662 H   0  0  0  0  0  0  0  0  0  0  0  0
   37.7307   22.4298   31.2437 H   0  0  0  0  0  0  0  0  0  0  0  0
   38.3998   23.9349   30.6246 H   0  0  0  0  0  0  0  0  0  0  0  0
   36.2339   24.7691   31.2267 H   0  0  0  0  0  0  0  0  0  0  0  0
   35.9200   23.5514   32.4052 H   0  0  0  0  0  0  0  0  0  0  0  0
   36.7290   25.6782   33.7366 H   0  0  0  0  0  0  0  0  0  0  0  0
   40.0763   24.7683   34.3202 H   0  0  0  0  0  0  0  0  0  0  0  0
   38.7019   25.8945   34.6823 H   0  0  0  0  0  0  0  0  0  0  0  0
   37.1918   24.5614   38.9656 H   0  0  0  0  0  0  0  0  0  0  0  0
   37.2576   25.5442   36.6583 H   0  0  0  0  0  0  0  0  0  0  0  0
   40.4418   22.0360   38.0520 H   0  0  0  0  0  0  0  0  0  0  0  0
   34.9406   30.6408   33.1133 H   0  0  0  0  0  0  0  0  0  0  0  0
   35.4905   29.4390   35.3482 H   0  0  0  0  0  0  0  0  0  0  0  0
   36.8117   28.6405   28.9213 H   0  0  0  0  0  0  0  0  0  0  0  0
  1  6  1  0
  2  1  1  0
  3  4  1  0
  3  2  1  0
  4  5  1  0
  5  1  1  0
  6  9  1  0
  7 12  2  0
  8  7  1  0
  9 10  1  0
  9  8  2  0
 10 11  2  0
 11 12  1  0
 13  5  1  0
 14 15  1  0
 16 15  2  0
 17 16  1  0
 18 13  1  0
 18 17  2  0
 19 18  1  0
 20 19  2  0
 20 21  1  0
 21 22  2  0
 22 17  1  0
 22 14  1  0
  2 23  1  0
  2 24  1  0
  3 25  1  0
  3 26  1  0
  4 27  1  0
  4 28  1  0
  5 29  1  1
  6 30  1  0
  6 31  1  0
  7 32  1  0
  8 33  1  0
 11 34  1  0
 14 35  1  0
 15 36  1  0
 20 37  1  0
M  ISO  8  23  13  24  13  25  13  26  13  27  13  28  13  29  13  30   8
M  ISO  7  31   8  32  14  33  14  34  14  35   9  36  14  37  14
M  END
>  <minimizedAffinity>  (1) 
-4.97023821

>  <minimizedRMSD>  (1) 
4.39084673

$$$$
