
     RDKit          3D

 41 43  0  0  1  0  0  0  0  0999 V2000
   38.4380   23.1780   33.6840 N   0  0  0  0  0  0  0  0  0  0  0  0
   37.8890   24.5080   33.6670 C   0  0  0  0  0  0  0  0  0  0  0  0
   38.0220   24.9770   32.2430 C   0  0  0  0  0  0  0  0  0  0  0  0
   38.6580   23.8070   31.5220 C   0  0  0  0  0  0  0  0  0  0  0  0
   38.0930   22.6460   32.3930 C   0  0  2  0  0  0  0  0  0  0  0  0
   37.8430   22.3230   34.6520 C   0  0  0  0  0  0  0  0  0  0  0  0
   39.9800   22.7580   37.7500 C   0  0  0  0  0  0  0  0  0  0  0  0
   39.6170   22.4440   36.4370 C   0  0  0  0  0  0  0  0  0  0  0  0
   38.2990   22.6420   36.0510 C   0  0  0  0  0  0  0  0  0  0  0  0
   37.4040   23.1400   36.9790 N   0  0  0  0  0  0  0  0  0  0  0  0
   37.7960   23.4270   38.2250 C   0  0  0  0  0  0  0  0  0  0  0  0
   39.0700   23.2370   38.6030 N   0  0  0  0  0  0  0  0  0  0  0  0
   36.7710   22.4740   32.1870 O   0  0  0  0  0  0  0  0  0  0  0  0
   35.6520   18.6590   31.2450 N   0  0  0  0  0  0  0  0  0  0  0  0
   35.1740   19.5300   32.2990 C   0  0  0  0  0  0  0  0  0  0  0  0
   35.0290   20.9580   31.8340 C   0  0  0  0  0  0  0  0  0  0  0  0
   36.3270   21.5500   31.3110 C   0  0  0  0  0  0  0  0  0  0  0  0
   37.2120   20.4190   30.9400 C   0  0  0  0  0  0  0  0  0  0  0  0
   36.3260   19.4050   30.1980 C   0  0  0  0  0  0  0  0  0  0  0  0
   36.8316   24.4918   33.9697 H   0  0  0  0  0  0  0  0  0  0  0  0
   38.4117   25.1753   34.3680 H   0  0  0  0  0  0  0  0  0  0  0  0
   37.0354   25.2088   31.8152 H   0  0  0  0  0  0  0  0  0  0  0  0
   38.6178   25.8977   32.1575 H   0  0  0  0  0  0  0  0  0  0  0  0
   38.3252   23.7372   30.4759 H   0  0  0  0  0  0  0  0  0  0  0  0
   39.7541   23.8437   31.4368 H   0  0  0  0  0  0  0  0  0  0  0  0
   38.4797   21.6339   32.2028 H   0  0  0  0  0  0  0  0  0  0  0  0
   36.7501   22.4371   34.6012 H   0  0  0  0  0  0  0  0  0  0  0  0
   38.1493   21.2913   34.4245 H   0  0  0  0  0  0  0  0  0  0  0  0
   41.0183   22.6102   38.0820 H   0  0  0  0  0  0  0  0  0  0  0  0
   40.3585   22.0494   35.7268 H   0  0  0  0  0  0  0  0  0  0  0  0
   37.0670   23.8228   38.9475 H   0  0  0  0  0  0  0  0  0  0  0  0
   36.3118   17.9783   31.6477 H   0  0  0  0  0  0  0  0  0  0  0  0
   34.1936   19.1673   32.6414 H   0  0  0  0  0  0  0  0  0  0  0  0
   35.9130   19.5127   33.1136 H   0  0  0  0  0  0  0  0  0  0  0  0
   34.2805   20.9895   31.0286 H   0  0  0  0  0  0  0  0  0  0  0  0
   34.7232   21.5567   32.7047 H   0  0  0  0  0  0  0  0  0  0  0  0
   36.2375   22.1329   30.3825 H   0  0  0  0  0  0  0  0  0  0  0  0
   38.0226   20.7687   30.2838 H   0  0  0  0  0  0  0  0  0  0  0  0
   37.6790   19.9681   31.8280 H   0  0  0  0  0  0  0  0  0  0  0  0
   35.5947   19.9239   29.5608 H   0  0  0  0  0  0  0  0  0  0  0  0
   36.9120   18.7507   29.5359 H   0  0  0  0  0  0  0  0  0  0  0  0
  1  6  1  0
  2  1  1  0
  3  2  1  0
  4  3  1  0
  4  5  1  0
  5  1  1  0
  6  9  1  0
  7 12  2  0
  8  7  1  0
  9  8  2  0
  9 10  1  0
 10 11  2  0
 11 12  1  0
 13  5  1  0
 14 15  1  0
 16 15  1  0
 17 16  1  0
 17 13  1  0
 18 17  1  0
 19 18  1  0
 19 14  1  0
  2 20  1  0
  2 21  1  0
  3 22  1  0
  3 23  1  0
  4 24  1  0
  4 25  1  0
  5 26  1  6
  6 27  1  0
  6 28  1  0
  7 29  1  0
  8 30  1  0
 11 31  1  0
 14 32  1  0
 15 33  1  0
 15 34  1  0
 16 35  1  0
 16 36  1  0
 17 37  1  0
 18 38  1  0
 18 39  1  0
 19 40  1  0
 19 41  1  0
M  ISO  8  20  13  21  13  22  13  23  13  24  13  25  13  26  13  27   8
M  ISO  8  28   8  29  14  30  14  31  14  32   5  33  13  34  13  35  13
M  ISO  6  36  13  37  13  38  13  39  13  40  13  41  13
M  END
>  <minimizedAffinity>  (1) 
-4.70010614

>  <minimizedRMSD>  (1) 
6.51666546

$$$$
