
     RDKit          3D

 29 30  0  0  1  0  0  0  0  0999 V2000
   37.8540   25.3790   34.2200 N   0  0  0  0  0  0  0  0  0  0  0  0
   37.1900   25.2080   32.9550 C   0  0  0  0  0  0  0  0  0  0  0  0
   36.8650   26.5880   32.4710 C   0  0  0  0  0  0  0  0  0  0  0  0
   37.4240   27.5110   33.5370 C   0  0  0  0  0  0  0  0  0  0  0  0
   38.5770   26.6090   34.0610 C   0  0  2  0  0  0  0  0  0  0  0  0
   38.7930   24.3540   34.5160 C   0  0  0  0  0  0  0  0  0  0  0  0
   37.9010   24.1710   38.2050 C   0  0  0  0  0  0  0  0  0  0  0  0
   37.8430   24.5320   36.8600 C   0  0  0  0  0  0  0  0  0  0  0  0
   38.8020   24.0100   35.9770 C   0  0  0  0  0  0  0  0  0  0  0  0
   39.7590   23.1610   36.4900 N   0  0  0  0  0  0  0  0  0  0  0  0
   39.7620   22.8490   37.8110 C   0  0  0  0  0  0  0  0  0  0  0  0
   38.8440   23.3510   38.6430 N   0  0  0  0  0  0  0  0  0  0  0  0
   39.5960   26.5460   33.1630 O   0  0  0  0  0  0  0  0  0  0  0  0
   40.7280   27.2610   33.4530 C   0  0  0  0  0  0  0  0  0  0  0  0
   37.8534   24.6985   32.2406 H   0  0  0  0  0  0  0  0  0  0  0  0
   36.2844   24.5917   33.0547 H   0  0  0  0  0  0  0  0  0  0  0  0
   37.3443   26.7815   31.5000 H   0  0  0  0  0  0  0  0  0  0  0  0
   35.7851   26.7326   32.3196 H   0  0  0  0  0  0  0  0  0  0  0  0
   37.7988   28.4534   33.1111 H   0  0  0  0  0  0  0  0  0  0  0  0
   36.7032   27.8462   34.2974 H   0  0  0  0  0  0  0  0  0  0  0  0
   39.0886   26.9423   34.9760 H   0  0  0  0  0  0  0  0  0  0  0  0
   38.5310   23.4542   33.9401 H   0  0  0  0  0  0  0  0  0  0  0  0
   39.7944   24.7196   34.2451 H   0  0  0  0  0  0  0  0  0  0  0  0
   37.1565   24.5710   38.9091 H   0  0  0  0  0  0  0  0  0  0  0  0
   37.0599   25.2137   36.4967 H   0  0  0  0  0  0  0  0  0  0  0  0
   40.5338   22.1708   38.2040 H   0  0  0  0  0  0  0  0  0  0  0  0
   40.8454   27.3351   34.5442 H   0  0  0  0  0  0  0  0  0  0  0  0
   41.6034   26.7516   33.0238 H   0  0  0  0  0  0  0  0  0  0  0  0
   40.6442   28.2703   33.0238 H   0  0  0  0  0  0  0  0  0  0  0  0
  1  6  1  0
  2  1  1  0
  3  2  1  0
  3  4  1  0
  4  5  1  0
  5  1  1  0
  6  9  1  0
  7 12  2  0
  8  7  1  0
  9 10  1  0
  9  8  2  0
 10 11  2  0
 11 12  1  0
 13 14  1  0
 13  5  1  0
  2 15  1  0
  2 16  1  0
  3 17  1  0
  3 18  1  0
  4 19  1  0
  4 20  1  0
  5 21  1  1
  6 22  1  0
  6 23  1  0
  7 24  1  0
  8 25  1  0
 11 26  1  0
 14 27  1  0
 14 28  1  0
 14 29  1  0
M  ISO  8  15  13  16  13  17  13  18  13  19  13  20  13  21  13  22   8
M  ISO  7  23   8  24  14  25  14  26  14  27   8  28   8  29   8
M  END
>  <minimizedAffinity>  (1) 
-3.64676499

>  <minimizedRMSD>  (1) 
0.417925805

$$$$
