
     RDKit          3D

 29 30  0  0  1  0  0  0  0  0999 V2000
   37.7840   25.4740   34.3260 N   0  0  0  0  0  0  0  0  0  0  0  0
   37.1450   25.3800   33.0440 C   0  0  0  0  0  0  0  0  0  0  0  0
   36.8530   26.7900   32.6370 C   0  0  0  0  0  0  0  0  0  0  0  0
   37.4280   27.6420   33.7600 C   0  0  0  0  0  0  0  0  0  0  0  0
   38.5490   26.6880   34.2320 C   0  0  2  0  0  0  0  0  0  0  0  0
   38.7280   24.4180   34.5690 C   0  0  0  0  0  0  0  0  0  0  0  0
   37.9380   24.1590   38.2730 C   0  0  0  0  0  0  0  0  0  0  0  0
   37.8450   24.5450   36.9390 C   0  0  0  0  0  0  0  0  0  0  0  0
   38.7770   24.0390   36.0210 C   0  0  0  0  0  0  0  0  0  0  0  0
   39.7450   23.1800   36.4900 N   0  0  0  0  0  0  0  0  0  0  0  0
   39.7810   22.8430   37.7990 C   0  0  0  0  0  0  0  0  0  0  0  0
   38.8850   23.3320   38.6780 N   0  0  0  0  0  0  0  0  0  0  0  0
   39.5770   26.6570   33.3390 O   0  0  0  0  0  0  0  0  0  0  0  0
   40.8580   27.0690   33.7550 C   0  0  0  0  0  0  0  0  0  0  0  0
   41.6310   27.8080   33.0560 O   0  0  0  0  0  0  0  0  0  0  0  0
   41.4210   26.7190   34.9730 O   0  0  0  0  0  0  0  0  0  0  0  0
   37.8149   24.9006   32.3150 H   0  0  0  0  0  0  0  0  0  0  0  0
   36.2301   24.7708   33.0883 H   0  0  0  0  0  0  0  0  0  0  0  0
   37.3420   27.0271   31.6806 H   0  0  0  0  0  0  0  0  0  0  0  0
   35.7774   26.9667   32.4888 H   0  0  0  0  0  0  0  0  0  0  0  0
   37.8275   28.5979   33.3903 H   0  0  0  0  0  0  0  0  0  0  0  0
   36.7115   27.9524   34.5348 H   0  0  0  0  0  0  0  0  0  0  0  0
   39.0719   26.9480   35.1642 H   0  0  0  0  0  0  0  0  0  0  0  0
   38.4355   23.5361   33.9802 H   0  0  0  0  0  0  0  0  0  0  0  0
   39.7256   24.7759   34.2746 H   0  0  0  0  0  0  0  0  0  0  0  0
   37.2116   24.5487   39.0013 H   0  0  0  0  0  0  0  0  0  0  0  0
   37.0540   25.2351   36.6102 H   0  0  0  0  0  0  0  0  0  0  0  0
   40.5605   22.1531   38.1546 H   0  0  0  0  0  0  0  0  0  0  0  0
   42.3271   27.0398   35.2099 H   0  0  0  0  0  0  0  0  0  0  0  0
  1  6  1  0
  2  1  1  0
  3  2  1  0
  3  4  1  0
  4  5  1  0
  5  1  1  0
  6  9  1  0
  7 12  2  0
  8  7  1  0
  9 10  1  0
  9  8  2  0
 10 11  2  0
 11 12  1  0
 13 14  1  0
 13  5  1  0
 14 16  1  0
 15 14  2  0
  2 17  1  0
  2 18  1  0
  3 19  1  0
  3 20  1  0
  4 21  1  0
  4 22  1  0
  5 23  1  1
  6 24  1  0
  6 25  1  0
  7 26  1  0
  8 27  1  0
 11 28  1  0
 16 29  1  0
M  ISO  8  17  13  18  13  19  13  20  13  21  13  22  13  23  13  24   8
M  ISO  5  25   8  26  14  27  14  28  14  29   3
M  END
>  <minimizedAffinity>  (1) 
-4.11217499

>  <minimizedRMSD>  (1) 
0.566592693

$$$$
