
     RDKit          3D

 47 51  0  0  1  0  0  0  0  0999 V2000
   38.0300   23.5690   34.7020 N   0  0  0  0  0  0  0  0  0  0  0  0
   37.8390   24.9820   34.4450 C   0  0  0  0  0  0  0  0  0  0  0  0
   38.2570   25.6750   35.6970 C   0  0  0  0  0  0  0  0  0  0  0  0
   38.7220   24.5520   36.6050 C   0  0  0  0  0  0  0  0  0  0  0  0
   39.1920   23.5330   35.5300 C   0  0  2  0  0  0  0  0  0  0  0  0
   38.3340   22.8450   33.5010 C   0  0  0  0  0  0  0  0  0  0  0  0
   35.3790   20.4840   33.2640 C   0  0  0  0  0  0  0  0  0  0  0  0
   36.4780   21.1400   33.7970 C   0  0  0  0  0  0  0  0  0  0  0  0
   37.1440   22.0980   32.9890 C   0  0  0  0  0  0  0  0  0  0  0  0
   36.6600   22.3160   31.7330 N   0  0  0  0  0  0  0  0  0  0  0  0
   35.5860   21.6460   31.2730 C   0  0  0  0  0  0  0  0  0  0  0  0
   34.9600   20.7420   32.0370 N   0  0  0  0  0  0  0  0  0  0  0  0
   40.3200   23.9530   34.8830 O   0  0  0  0  0  0  0  0  0  0  0  0
   41.4730   23.3120   35.2610 C   0  0  2  0  0  0  0  0  0  0  0  0
   41.5270   22.8980   36.7040 C   0  0  0  0  0  0  0  0  0  0  0  0
   42.4500   23.9680   36.1870 C   0  0  1  0  0  0  0  0  0  0  0  0
   43.8660   23.5220   36.1100 C   0  0  0  0  0  0  0  0  0  0  0  0
   44.2340   22.5080   35.2720 N   0  0  0  0  0  0  0  0  0  0  0  0
   45.4970   22.0770   35.1380 C   0  0  0  0  0  0  0  0  0  0  0  0
   46.5150   22.6200   35.8290 N   0  0  0  0  0  0  0  0  0  0  0  0
   46.2250   23.6230   36.6750 C   0  0  0  0  0  0  0  0  0  0  0  0
   47.2670   24.1670   37.3930 C   0  0  0  0  0  0  0  0  0  0  0  0
   47.0180   25.1890   38.2850 C   0  0  0  0  0  0  0  0  0  0  0  0
   45.7090   25.6130   38.4040 C   0  0  0  0  0  0  0  0  0  0  0  0
   44.6550   25.0790   37.6910 C   0  0  0  0  0  0  0  0  0  0  0  0
   44.9250   24.0610   36.8070 C   0  0  0  0  0  0  0  0  0  0  0  0
   38.4630   25.3066   33.5993 H   0  0  0  0  0  0  0  0  0  0  0  0
   36.7962   25.2112   34.1806 H   0  0  0  0  0  0  0  0  0  0  0  0
   39.0770   26.3806   35.4975 H   0  0  0  0  0  0  0  0  0  0  0  0
   37.4447   26.2684   36.1420 H   0  0  0  0  0  0  0  0  0  0  0  0
   39.5475   24.8684   37.2596 H   0  0  0  0  0  0  0  0  0  0  0  0
   37.9658   24.1751   37.3093 H   0  0  0  0  0  0  0  0  0  0  0  0
   39.4853   22.5374   35.8945 H   0  0  0  0  0  0  0  0  0  0  0  0
   38.6669   23.5562   32.7307 H   0  0  0  0  0  0  0  0  0  0  0  0
   39.1239   22.1150   33.7315 H   0  0  0  0  0  0  0  0  0  0  0  0
   34.8473   19.7370   33.8717 H   0  0  0  0  0  0  0  0  0  0  0  0
   36.8243   20.9238   34.8184 H   0  0  0  0  0  0  0  0  0  0  0  0
   35.2180   21.8442   30.2555 H   0  0  0  0  0  0  0  0  0  0  0  0
   41.5877   22.8362   34.2759 H   0  0  0  0  0  0  0  0  0  0  0  0
   40.7037   23.1623   37.3839 H   0  0  0  0  0  0  0  0  0  0  0  0
   41.6598   21.9449   37.2369 H   0  0  0  0  0  0  0  0  0  0  0  0
   42.6770   25.0180   36.4236 H   0  0  0  0  0  0  0  0  0  0  0  0
   45.7070   21.2528   34.4404 H   0  0  0  0  0  0  0  0  0  0  0  0
   48.2908   23.7889   37.2559 H   0  0  0  0  0  0  0  0  0  0  0  0
   47.8259   25.6460   38.8753 H   0  0  0  0  0  0  0  0  0  0  0  0
   45.4931   26.4273   39.1113 H   0  0  0  0  0  0  0  0  0  0  0  0
   43.6305   25.4561   37.8257 H   0  0  0  0  0  0  0  0  0  0  0  0
  1  5  1  0
  2  1  1  0
  2  3  1  0
  3  4  1  0
  5  4  1  0
  6  1  1  0
  7  8  2  0
  9  6  1  0
  9  8  1  0
 10  9  2  0
 11 10  1  0
 11 12  2  0
 12  7  1  0
 13 14  1  0
 13  5  1  0
 14 16  1  0
 14 15  1  0
 16 15  1  0
 17 16  1  0
 17 26  1  0
 18 17  2  0
 19 18  1  0
 19 20  2  0
 20 21  1  0
 21 26  2  0
 21 22  1  0
 22 23  2  0
 23 24  1  0
 25 24  2  0
 26 25  1  0
  2 27  1  0
  2 28  1  0
  3 29  1  0
  3 30  1  0
  4 31  1  0
  4 32  1  0
  5 33  1  1
  6 34  1  0
  6 35  1  0
  7 36  1  0
  8 37  1  0
 11 38  1  0
 14 39  1  6
 15 40  1  0
 15 41  1  0
 16 42  1  1
 19 43  1  0
 22 44  1  0
 23 45  1  0
 24 46  1  0
 25 47  1  0
M  ISO  8  27  13  28  13  29  13  30  13  31  13  32  13  33  13  34   8
M  ISO  8  35   8  36  14  37  14  38  14  39  13  40  13  41  13  42  13
M  ISO  5  43  14  44  14  45  14  46  14  47  14
M  END
>  <minimizedAffinity>  (1) 
-5.36213875

>  <minimizedRMSD>  (1) 
4.5587182

$$$$
