
     RDKit          3D

 41 44  0  0  1  0  0  0  0  0999 V2000
   38.3460   26.0350   34.5240 N   0  0  0  0  0  0  0  0  0  0  0  0
   37.7190   27.2360   34.0050 C   0  0  0  0  0  0  0  0  0  0  0  0
   38.2080   27.3720   32.6050 C   0  0  0  0  0  0  0  0  0  0  0  0
   39.1020   26.1580   32.4060 C   0  0  0  0  0  0  0  0  0  0  0  0
   38.4100   25.1730   33.3940 C   0  0  2  0  0  0  0  0  0  0  0  0
   37.5180   25.3950   35.5060 C   0  0  0  0  0  0  0  0  0  0  0  0
   38.7330   23.4170   38.5030 C   0  0  0  0  0  0  0  0  0  0  0  0
   37.9430   24.2690   37.7370 C   0  0  0  0  0  0  0  0  0  0  0  0
   38.3210   24.4930   36.3940 C   0  0  0  0  0  0  0  0  0  0  0  0
   39.4380   23.8600   35.9340 N   0  0  0  0  0  0  0  0  0  0  0  0
   40.1640   23.0420   36.7290 C   0  0  0  0  0  0  0  0  0  0  0  0
   39.7990   22.8340   38.0020 N   0  0  0  0  0  0  0  0  0  0  0  0
   37.1800   24.7840   32.9450 O   0  0  0  0  0  0  0  0  0  0  0  0
   37.1470   23.5460   32.3610 C   0  0  2  0  0  0  0  0  0  0  0  0
   36.8560   23.5410   30.8930 C   0  0  0  0  0  0  0  0  0  0  0  0
   35.8720   22.9530   31.8550 C   0  0  1  0  0  0  0  0  0  0  0  0
   35.8390   21.4720   31.8030 C   0  0  0  0  0  0  0  0  0  0  0  0
   35.4710   20.7520   32.9400 C   0  0  0  0  0  0  0  0  0  0  0  0
   35.4000   19.3690   33.0270 C   0  0  0  0  0  0  0  0  0  0  0  0
   35.7180   18.6800   31.9020 N   0  0  0  0  0  0  0  0  0  0  0  0
   36.0780   19.3800   30.7900 C   0  0  0  0  0  0  0  0  0  0  0  0
   36.1370   20.7250   30.7400 N   0  0  0  0  0  0  0  0  0  0  0  0
   36.6238   27.1345   34.0207 H   0  0  0  0  0  0  0  0  0  0  0  0
   37.9696   28.1194   34.6106 H   0  0  0  0  0  0  0  0  0  0  0  0
   37.3681   27.3593   31.8948 H   0  0  0  0  0  0  0  0  0  0  0  0
   38.7384   28.3202   32.4328 H   0  0  0  0  0  0  0  0  0  0  0  0
   39.0718   25.7903   31.3697 H   0  0  0  0  0  0  0  0  0  0  0  0
   40.1739   26.3285   32.5848 H   0  0  0  0  0  0  0  0  0  0  0  0
   38.9155   24.2110   33.5643 H   0  0  0  0  0  0  0  0  0  0  0  0
   37.0335   26.1660   36.1231 H   0  0  0  0  0  0  0  0  0  0  0  0
   36.7669   24.7858   34.9818 H   0  0  0  0  0  0  0  0  0  0  0  0
   38.4591   23.2273   39.5513 H   0  0  0  0  0  0  0  0  0  0  0  0
   37.0521   24.7530   38.1637 H   0  0  0  0  0  0  0  0  0  0  0  0
   41.0595   22.5442   36.3288 H   0  0  0  0  0  0  0  0  0  0  0  0
   37.9241   23.1633   33.0390 H   0  0  0  0  0  0  0  0  0  0  0  0
   37.4280   22.8845   30.2209 H   0  0  0  0  0  0  0  0  0  0  0  0
   36.8117   24.3079   30.1057 H   0  0  0  0  0  0  0  0  0  0  0  0
   34.8095   23.1025   32.0972 H   0  0  0  0  0  0  0  0  0  0  0  0
   35.2162   21.3282   33.8417 H   0  0  0  0  0  0  0  0  0  0  0  0
   35.1027   18.8598   33.9556 H   0  0  0  0  0  0  0  0  0  0  0  0
   36.3350   18.8151   29.8818 H   0  0  0  0  0  0  0  0  0  0  0  0
  1  6  1  0
  2  1  1  0
  3  2  1  0
  4  3  1  0
  4  5  1  0
  5  1  1  0
  6  9  1  0
  8  7  2  0
  9  8  1  0
 10  9  2  0
 10 11  1  0
 11 12  2  0
 12  7  1  0
 13  5  1  0
 14 13  1  0
 15 16  1  0
 15 14  1  0
 16 14  1  0
 17 16  1  0
 17 18  2  0
 18 19  1  0
 20 19  2  0
 21 20  1  0
 22 21  2  0
 22 17  1  0
  2 23  1  0
  2 24  1  0
  3 25  1  0
  3 26  1  0
  4 27  1  0
  4 28  1  0
  5 29  1  1
  6 30  1  0
  6 31  1  0
  7 32  1  0
  8 33  1  0
 11 34  1  0
 14 35  1  6
 15 36  1  0
 15 37  1  0
 16 38  1  1
 18 39  1  0
 19 40  1  0
 21 41  1  0
M  ISO  8  23  13  24  13  25  13  26  13  27  13  28  13  29  13  30   8
M  ISO  8  31   8  32  14  33  14  34  14  35  13  36  13  37  13  38  13
M  ISO  3  39  14  40  14  41  14
M  END
>  <minimizedAffinity>  (1) 
-5.12945747

>  <minimizedRMSD>  (1) 
6.70596743

$$$$
