
     RDKit          3D

 44 48  0  0  1  0  0  0  0  0999 V2000
   37.7810   25.2700   34.4170 N   0  0  0  0  0  0  0  0  0  0  0  0
   37.2840   25.3830   33.0610 C   0  0  0  0  0  0  0  0  0  0  0  0
   37.3490   26.8360   32.7340 C   0  0  0  0  0  0  0  0  0  0  0  0
   37.9530   27.4730   33.9730 C   0  0  0  0  0  0  0  0  0  0  0  0
   38.7940   26.2650   34.4890 C   0  0  2  0  0  0  0  0  0  0  0  0
   38.4110   24.0000   34.6420 C   0  0  0  0  0  0  0  0  0  0  0  0
   37.9090   23.8740   38.4000 C   0  0  0  0  0  0  0  0  0  0  0  0
   37.6620   24.1460   37.0510 C   0  0  0  0  0  0  0  0  0  0  0  0
   38.6200   23.7390   36.0990 C   0  0  0  0  0  0  0  0  0  0  0  0
   39.7350   23.1000   36.5580 N   0  0  0  0  0  0  0  0  0  0  0  0
   39.9220   22.8640   37.8700 C   0  0  0  0  0  0  0  0  0  0  0  0
   39.0120   23.2510   38.7710 N   0  0  0  0  0  0  0  0  0  0  0  0
   39.8620   26.0280   33.6880 O   0  0  0  0  0  0  0  0  0  0  0  0
   41.0410   26.5970   34.0810 C   0  0  2  0  0  0  0  0  0  0  0  0
   41.6430   27.5790   33.1150 C   0  0  0  0  0  0  0  0  0  0  0  0
   42.3290   26.2710   33.3970 C   0  0  1  0  0  0  0  0  0  0  0  0
   43.5550   26.4380   34.1520 N   0  0  0  0  0  0  0  0  0  0  0  0
   44.5020   27.3600   33.9000 C   0  0  0  0  0  0  0  0  0  0  0  0
   45.5090   27.2300   34.8020 N   0  0  0  0  0  0  0  0  0  0  0  0
   45.1710   26.2160   35.6160 C   0  0  0  0  0  0  0  0  0  0  0  0
   45.8580   25.6860   36.6960 C   0  0  0  0  0  0  0  0  0  0  0  0
   45.2950   24.6420   37.3680 N   0  0  0  0  0  0  0  0  0  0  0  0
   44.0860   24.1580   36.9600 C   0  0  0  0  0  0  0  0  0  0  0  0
   43.4080   24.6790   35.8970 N   0  0  0  0  0  0  0  0  0  0  0  0
   43.9500   25.7080   35.2230 C   0  0  0  0  0  0  0  0  0  0  0  0
   37.9155   24.8047   32.3705 H   0  0  0  0  0  0  0  0  0  0  0  0
   36.2616   24.9883   32.9664 H   0  0  0  0  0  0  0  0  0  0  0  0
   37.9882   27.0095   31.8557 H   0  0  0  0  0  0  0  0  0  0  0  0
   36.3631   27.2550   32.4843 H   0  0  0  0  0  0  0  0  0  0  0  0
   38.5849   28.3384   33.7246 H   0  0  0  0  0  0  0  0  0  0  0  0
   37.2292   27.8847   34.6918 H   0  0  0  0  0  0  0  0  0  0  0  0
   39.2658   26.3668   35.4775 H   0  0  0  0  0  0  0  0  0  0  0  0
   37.7733   23.2065   34.2252 H   0  0  0  0  0  0  0  0  0  0  0  0
   39.3950   24.0125   34.1504 H   0  0  0  0  0  0  0  0  0  0  0  0
   37.1763   24.1825   39.1603 H   0  0  0  0  0  0  0  0  0  0  0  0
   36.7432   24.6646   36.7397 H   0  0  0  0  0  0  0  0  0  0  0  0
   40.8333   22.3471   38.2051 H   0  0  0  0  0  0  0  0  0  0  0  0
   40.7365   26.5827   35.1379 H   0  0  0  0  0  0  0  0  0  0  0  0
   42.0771   28.5198   33.4843 H   0  0  0  0  0  0  0  0  0  0  0  0
   41.2934   28.0974   32.2100 H   0  0  0  0  0  0  0  0  0  0  0  0
   42.6718   25.3976   32.8228 H   0  0  0  0  0  0  0  0  0  0  0  0
   44.4662   28.1032   33.0898 H   0  0  0  0  0  0  0  0  0  0  0  0
   46.8313   26.0964   37.0030 H   0  0  0  0  0  0  0  0  0  0  0  0
   43.6410   23.3153   37.5094 H   0  0  0  0  0  0  0  0  0  0  0  0
  1  5  1  0
  1  6  1  0
  2  1  1  0
  3  2  1  0
  3  4  1  0
  4  5  1  0
  6  9  1  0
  7 12  2  0
  8  7  1  0
  9 10  1  0
  9  8  2  0
 10 11  2  0
 11 12  1  0
 13 14  1  0
 13  5  1  0
 15 16  1  0
 15 14  1  0
 16 14  1  0
 16 17  1  0
 17 25  1  0
 18 17  1  0
 18 19  2  0
 19 20  1  0
 20 21  2  0
 21 22  1  0
 23 22  2  0
 24 23  1  0
 25 20  1  0
 25 24  2  0
  2 26  1  0
  2 27  1  0
  3 28  1  0
  3 29  1  0
  4 30  1  0
  4 31  1  0
  5 32  1  1
  6 33  1  0
  6 34  1  0
  7 35  1  0
  8 36  1  0
 11 37  1  0
 14 38  1  1
 15 39  1  0
 15 40  1  0
 16 41  1  6
 18 42  1  0
 21 43  1  0
 23 44  1  0
M  ISO  8  26  13  27  13  28  13  29  13  30  13  31  13  32  13  33   8
M  ISO  8  34   8  35  14  36  14  37  14  38  13  39  13  40  13  41  13
M  ISO  3  42  14  43  14  44  14
M  END
>  <minimizedAffinity>  (1) 
-5.15092659

>  <minimizedRMSD>  (1) 
0.91187644

$$$$
