
     RDKit          3D

 40 43  0  0  1  0  0  0  0  0999 V2000
   38.6100   25.7520   34.2850 N   0  0  0  0  0  0  0  0  0  0  0  0
   38.1980   27.0730   33.8560 C   0  0  0  0  0  0  0  0  0  0  0  0
   38.6520   27.1930   32.4400 C   0  0  0  0  0  0  0  0  0  0  0  0
   39.2850   25.8460   32.1360 C   0  0  0  0  0  0  0  0  0  0  0  0
   38.4600   24.9570   33.1160 C   0  0  2  0  0  0  0  0  0  0  0  0
   37.7180   25.2220   35.2780 C   0  0  0  0  0  0  0  0  0  0  0  0
   38.6980   23.4240   38.4680 C   0  0  0  0  0  0  0  0  0  0  0  0
   37.9680   24.2270   37.5980 C   0  0  0  0  0  0  0  0  0  0  0  0
   38.4480   24.3740   36.2750 C   0  0  0  0  0  0  0  0  0  0  0  0
   39.5960   23.7190   35.9400 N   0  0  0  0  0  0  0  0  0  0  0  0
   40.2560   22.9550   36.8330 C   0  0  0  0  0  0  0  0  0  0  0  0
   39.7990   22.8170   38.0860 N   0  0  0  0  0  0  0  0  0  0  0  0
   37.1710   24.8260   32.7020 O   0  0  0  0  0  0  0  0  0  0  0  0
   36.8930   23.6900   31.9930 C   0  0  2  0  0  0  0  0  0  0  0  0
   35.8020   23.8310   30.9680 C   0  0  0  0  0  0  0  0  0  0  0  0
   35.6140   22.9470   32.1610 C   0  0  1  0  0  0  0  0  0  0  0  0
   35.6050   21.5050   31.8140 C   0  0  0  0  0  0  0  0  0  0  0  0
   34.9080   20.4700   32.4070 C   0  0  0  0  0  0  0  0  0  0  0  0
   35.1910   19.2880   31.7680 C   0  0  0  0  0  0  0  0  0  0  0  0
   36.0700   19.6130   30.7800 N   0  0  0  0  0  0  0  0  0  0  0  0
   36.3040   20.9060   30.8150 N   0  0  0  0  0  0  0  0  0  0  0  0
   37.1044   27.1737   33.9187 H   0  0  0  0  0  0  0  0  0  0  0  0
   38.6298   27.8609   34.4907 H   0  0  0  0  0  0  0  0  0  0  0  0
   37.7992   27.3830   31.7717 H   0  0  0  0  0  0  0  0  0  0  0  0
   39.3502   28.0298   32.2910 H   0  0  0  0  0  0  0  0  0  0  0  0
   39.1374   25.5490   31.0872 H   0  0  0  0  0  0  0  0  0  0  0  0
   40.3767   25.7989   32.2622 H   0  0  0  0  0  0  0  0  0  0  0  0
   38.7774   23.9098   33.2281 H   0  0  0  0  0  0  0  0  0  0  0  0
   37.2335   26.0569   35.8055 H   0  0  0  0  0  0  0  0  0  0  0  0
   36.9712   24.5933   34.7710 H   0  0  0  0  0  0  0  0  0  0  0  0
   38.3448   23.2938   39.5016 H   0  0  0  0  0  0  0  0  0  0  0  0
   37.0477   24.7313   37.9276 H   0  0  0  0  0  0  0  0  0  0  0  0
   41.1793   22.4392   36.5306 H   0  0  0  0  0  0  0  0  0  0  0  0
   37.9437   23.3665   32.0314 H   0  0  0  0  0  0  0  0  0  0  0  0
   35.2408   24.7735   30.8862 H   0  0  0  0  0  0  0  0  0  0  0  0
   35.7324   23.6972   29.8784 H   0  0  0  0  0  0  0  0  0  0  0  0
   34.9011   22.8614   32.9943 H   0  0  0  0  0  0  0  0  0  0  0  0
   34.2271   20.5770   33.2642 H   0  0  0  0  0  0  0  0  0  0  0  0
   34.7923   18.2904   32.0041 H   0  0  0  0  0  0  0  0  0  0  0  0
   36.4861   18.9499   30.1106 H   0  0  0  0  0  0  0  0  0  0  0  0
  1  6  1  0
  2  1  1  0
  3  2  1  0
  4  3  1  0
  4  5  1  0
  5  1  1  0
  6  9  1  0
  8  7  2  0
  9  8  1  0
 10  9  2  0
 10 11  1  0
 11 12  2  0
 12  7  1  0
 13  5  1  0
 14 16  1  0
 14 13  1  0
 15 14  1  0
 15 16  1  0
 17 16  1  0
 17 18  1  0
 19 18  2  0
 20 21  1  0
 20 19  1  0
 21 17  2  0
  2 22  1  0
  2 23  1  0
  3 24  1  0
  3 25  1  0
  4 26  1  0
  4 27  1  0
  5 28  1  1
  6 29  1  0
  6 30  1  0
  7 31  1  0
  8 32  1  0
 11 33  1  0
 14 34  1  6
 15 35  1  0
 15 36  1  0
 16 37  1  1
 18 38  1  0
 19 39  1  0
 20 40  1  0
M  ISO  8  22  13  23  13  24  13  25  13  26  13  27  13  28  13  29   8
M  ISO  8  30   8  31  14  32  14  33  14  34  13  35  13  36  13  37  13
M  ISO  3  38  14  39  14  40   9
M  END
>  <minimizedAffinity>  (1) 
-4.82854891

>  <minimizedRMSD>  (1) 
6.38809919

$$$$
