
     RDKit          3D

 40 43  0  0  1  0  0  0  0  0999 V2000
   37.5930   25.5100   34.6120 N   0  0  0  0  0  0  0  0  0  0  0  0
   37.1320   25.8110   33.2740 C   0  0  0  0  0  0  0  0  0  0  0  0
   37.1650   27.2980   33.1640 C   0  0  0  0  0  0  0  0  0  0  0  0
   37.7030   27.7600   34.5070 C   0  0  0  0  0  0  0  0  0  0  0  0
   38.5690   26.5160   34.8730 C   0  0  2  0  0  0  0  0  0  0  0  0
   38.2580   24.2390   34.6700 C   0  0  0  0  0  0  0  0  0  0  0  0
   37.9360   23.6710   38.4050 C   0  0  0  0  0  0  0  0  0  0  0  0
   37.6080   24.0710   37.1110 C   0  0  0  0  0  0  0  0  0  0  0  0
   38.5460   23.8340   36.0850 C   0  0  0  0  0  0  0  0  0  0  0  0
   39.7190   23.2260   36.4300 N   0  0  0  0  0  0  0  0  0  0  0  0
   39.9780   22.8630   37.7020 C   0  0  0  0  0  0  0  0  0  0  0  0
   39.0850   23.0900   38.6700 N   0  0  0  0  0  0  0  0  0  0  0  0
   39.6690   26.4200   34.0770 O   0  0  0  0  0  0  0  0  0  0  0  0
   40.8720   26.5030   34.7200 C   0  0  2  0  0  0  0  0  0  0  0  0
   42.0130   27.0360   33.9010 C   0  0  0  0  0  0  0  0  0  0  0  0
   42.0080   25.6010   34.3550 C   0  0  1  0  0  0  0  0  0  0  0  0
   43.0490   25.3230   35.3650 C   0  0  0  0  0  0  0  0  0  0  0  0
   43.2140   24.1200   36.0580 C   0  0  0  0  0  0  0  0  0  0  0  0
   44.2650   24.2280   36.8980 N   0  0  0  0  0  0  0  0  0  0  0  0
   44.7840   25.4760   36.7640 C   0  0  0  0  0  0  0  0  0  0  0  0
   44.0260   26.1180   35.8280 N   0  0  0  0  0  0  0  0  0  0  0  0
   37.7985   25.3557   32.5266 H   0  0  0  0  0  0  0  0  0  0  0  0
   36.1236   25.4114   33.0912 H   0  0  0  0  0  0  0  0  0  0  0  0
   37.8310   27.6140   32.3475 H   0  0  0  0  0  0  0  0  0  0  0  0
   36.1772   27.7253   32.9366 H   0  0  0  0  0  0  0  0  0  0  0  0
   38.3114   28.6718   34.4146 H   0  0  0  0  0  0  0  0  0  0  0  0
   36.9398   28.0364   35.2493 H   0  0  0  0  0  0  0  0  0  0  0  0
   39.0040   26.4942   35.8831 H   0  0  0  0  0  0  0  0  0  0  0  0
   37.6153   23.4776   34.2040 H   0  0  0  0  0  0  0  0  0  0  0  0
   39.2146   24.3250   34.1339 H   0  0  0  0  0  0  0  0  0  0  0  0
   37.2191   23.8449   39.2210 H   0  0  0  0  0  0  0  0  0  0  0  0
   36.6452   24.5576   36.8961 H   0  0  0  0  0  0  0  0  0  0  0  0
   40.9334   22.3753   37.9456 H   0  0  0  0  0  0  0  0  0  0  0  0
   40.3861   26.7381   35.6784 H   0  0  0  0  0  0  0  0  0  0  0  0
   42.7218   27.7514   34.3435 H   0  0  0  0  0  0  0  0  0  0  0  0
   42.1050   27.5468   32.9311 H   0  0  0  0  0  0  0  0  0  0  0  0
   42.0455   24.6014   33.8974 H   0  0  0  0  0  0  0  0  0  0  0  0
   42.5855   23.2253   35.9375 H   0  0  0  0  0  0  0  0  0  0  0  0
   45.6480   25.8893   37.3051 H   0  0  0  0  0  0  0  0  0  0  0  0
   44.1835   27.0873   35.5172 H   0  0  0  0  0  0  0  0  0  0  0  0
  1  6  1  0
  1  5  1  0
  2  1  1  0
  3  2  1  0
  3  4  1  0
  4  5  1  0
  6  9  1  0
  7 12  2  0
  8  7  1  0
  9 10  1  0
  9  8  2  0
 10 11  2  0
 11 12  1  0
 13 14  1  0
 13  5  1  0
 15 16  1  0
 15 14  1  0
 16 14  1  0
 16 17  1  0
 17 21  1  0
 17 18  2  0
 18 19  1  0
 20 19  2  0
 21 20  1  0
  2 22  1  0
  2 23  1  0
  3 24  1  0
  3 25  1  0
  4 26  1  0
  4 27  1  0
  5 28  1  1
  6 29  1  0
  6 30  1  0
  7 31  1  0
  8 32  1  0
 11 33  1  0
 14 34  1  1
 15 35  1  0
 15 36  1  0
 16 37  1  6
 18 38  1  0
 20 39  1  0
 21 40  1  0
M  ISO  8  22  13  23  13  24  13  25  13  26  13  27  13  28  13  29   8
M  ISO  8  30   8  31  14  32  14  33  14  34  13  35  13  36  13  37  13
M  ISO  3  38  14  39  14  40   9
M  END
>  <minimizedAffinity>  (1) 
-4.89438581

>  <minimizedRMSD>  (1) 
1.08745515

$$$$
