
     RDKit          3D

 36 38  0  0  1  0  0  0  0  0999 V2000
   37.5720   25.5620   34.6010 N   0  0  0  0  0  0  0  0  0  0  0  0
   37.0630   25.8280   33.2720 C   0  0  0  0  0  0  0  0  0  0  0  0
   36.9890   27.3120   33.1610 C   0  0  0  0  0  0  0  0  0  0  0  0
   37.5300   27.8130   34.4890 C   0  0  0  0  0  0  0  0  0  0  0  0
   38.4820   26.6360   34.8390 C   0  0  2  0  0  0  0  0  0  0  0  0
   38.3180   24.3400   34.6490 C   0  0  0  0  0  0  0  0  0  0  0  0
   37.9590   23.7170   38.3640 C   0  0  0  0  0  0  0  0  0  0  0  0
   37.6460   24.1460   37.0770 C   0  0  0  0  0  0  0  0  0  0  0  0
   38.5910   23.9110   36.0590 C   0  0  0  0  0  0  0  0  0  0  0  0
   39.7520   23.2780   36.4010 N   0  0  0  0  0  0  0  0  0  0  0  0
   39.9930   22.8880   37.6690 C   0  0  0  0  0  0  0  0  0  0  0  0
   39.0930   23.1140   38.6350 N   0  0  0  0  0  0  0  0  0  0  0  0
   39.5690   26.6070   34.0170 O   0  0  0  0  0  0  0  0  0  0  0  0
   40.7840   26.6390   34.6500 C   0  0  2  0  0  0  0  0  0  0  0  0
   41.9380   27.1320   33.8260 C   0  0  0  0  0  0  0  0  0  0  0  0
   41.8730   25.6850   34.2470 C   0  0  1  0  0  0  0  0  0  0  0  0
   42.8740   25.2970   35.3090 C   0  0  0  0  0  0  0  0  0  0  0  0
   37.7442   25.4195   32.5110 H   0  0  0  0  0  0  0  0  0  0  0  0
   36.0816   25.3583   33.1104 H   0  0  0  0  0  0  0  0  0  0  0  0
   37.6087   27.6721   32.3266 H   0  0  0  0  0  0  0  0  0  0  0  0
   35.9680   27.6689   32.9606 H   0  0  0  0  0  0  0  0  0  0  0  0
   38.0747   28.7622   34.3783 H   0  0  0  0  0  0  0  0  0  0  0  0
   36.7680   28.0405   35.2490 H   0  0  0  0  0  0  0  0  0  0  0  0
   38.9375   26.6521   35.8401 H   0  0  0  0  0  0  0  0  0  0  0  0
   37.7430   23.5514   34.1416 H   0  0  0  0  0  0  0  0  0  0  0  0
   39.2834   24.5082   34.1492 H   0  0  0  0  0  0  0  0  0  0  0  0
   37.2365   23.8880   39.1756 H   0  0  0  0  0  0  0  0  0  0  0  0
   36.6929   24.6514   36.8623 H   0  0  0  0  0  0  0  0  0  0  0  0
   40.9375   22.3795   37.9125 H   0  0  0  0  0  0  0  0  0  0  0  0
   40.3248   26.8886   35.6179 H   0  0  0  0  0  0  0  0  0  0  0  0
   42.6869   27.8021   34.2733 H   0  0  0  0  0  0  0  0  0  0  0  0
   42.0398   27.6595   32.8661 H   0  0  0  0  0  0  0  0  0  0  0  0
   41.8866   24.7082   33.7413 H   0  0  0  0  0  0  0  0  0  0  0  0
   42.4370   25.4664   36.3042 H   0  0  0  0  0  0  0  0  0  0  0  0
   43.1325   24.2336   35.1982 H   0  0  0  0  0  0  0  0  0  0  0  0
   43.7817   25.9084   35.1982 H   0  0  0  0  0  0  0  0  0  0  0  0
  1  6  1  0
  1  5  1  0
  2  1  1  0
  3  2  1  0
  3  4  1  0
  4  5  1  0
  6  9  1  0
  7 12  2  0
  8  7  1  0
  9 10  1  0
  9  8  2  0
 10 11  2  0
 11 12  1  0
 13 14  1  0
 13  5  1  0
 15 16  1  0
 15 14  1  0
 16 14  1  0
 16 17  1  0
  2 18  1  0
  2 19  1  0
  3 20  1  0
  3 21  1  0
  4 22  1  0
  4 23  1  0
  5 24  1  1
  6 25  1  0
  6 26  1  0
  7 27  1  0
  8 28  1  0
 11 29  1  0
 14 30  1  1
 15 31  1  0
 15 32  1  0
 16 33  1  6
 17 34  1  0
 17 35  1  0
 17 36  1  0
M  ISO  8  18  13  19  13  20  13  21  13  22  13  23  13  24  13  25   8
M  ISO  8  26   8  27  14  28  14  29  14  30  13  31  13  32  13  33  13
M  ISO  3  34   8  35   8  36   8
M  END
>  <minimizedAffinity>  (1) 
-4.1798172

>  <minimizedRMSD>  (1) 
0.559604585

$$$$
