
     RDKit          3D

 26 27  0  0  1  0  0  0  0  0999 V2000
   38.1970   24.4260   36.9220 C   0  0  1  0  0  0  0  0  0  0  0  0
   40.9730   21.9020   37.4350 C   0  0  0  0  0  0  0  0  0  0  0  0
   39.9250   22.8070   37.7160 C   0  0  0  0  0  0  0  0  0  0  0  0
   39.2790   23.4720   36.6430 C   0  0  0  0  0  0  0  0  0  0  0  0
   39.7130   23.1950   35.3810 N   0  0  0  0  0  0  0  0  0  0  0  0
   40.7060   22.3350   35.1390 C   0  0  0  0  0  0  0  0  0  0  0  0
   41.3490   21.6760   36.1520 N   0  0  0  0  0  0  0  0  0  0  0  0
   37.7320   24.3810   38.3600 C   0  0  0  0  0  0  0  0  0  0  0  0
   38.5560   25.8470   36.5580 C   0  0  0  0  0  0  0  0  0  0  0  0
   37.8890   26.1980   35.2860 C   0  0  0  0  0  0  0  0  0  0  0  0
   37.4340   27.4950   35.0250 C   0  0  0  0  0  0  0  0  0  0  0  0
   36.8540   27.5700   33.7890 C   0  0  0  0  0  0  0  0  0  0  0  0
   36.9870   26.2730   33.3390 C   0  0  0  0  0  0  0  0  0  0  0  0
   37.5790   25.5350   34.2230 O   0  0  0  0  0  0  0  0  0  0  0  0
   37.3686   24.1006   36.2756 H   0  0  0  0  0  0  0  0  0  0  0  0
   41.4842   21.3804   38.2576 H   0  0  0  0  0  0  0  0  0  0  0  0
   39.6140   22.9935   38.7545 H   0  0  0  0  0  0  0  0  0  0  0  0
   41.0149   22.1517   34.0993 H   0  0  0  0  0  0  0  0  0  0  0  0
   38.6010   24.4651   39.0292 H   0  0  0  0  0  0  0  0  0  0  0  0
   37.0418   25.2166   38.5485 H   0  0  0  0  0  0  0  0  0  0  0  0
   37.2149   23.4286   38.5485 H   0  0  0  0  0  0  0  0  0  0  0  0
   38.2180   26.5285   37.3526 H   0  0  0  0  0  0  0  0  0  0  0  0
   39.6463   25.9390   36.4452 H   0  0  0  0  0  0  0  0  0  0  0  0
   37.5300   28.3413   35.7211 H   0  0  0  0  0  0  0  0  0  0  0  0
   36.4006   28.4368   33.2859 H   0  0  0  0  0  0  0  0  0  0  0  0
   36.6370   25.9136   32.3601 H   0  0  0  0  0  0  0  0  0  0  0  0
  1  8  1  0
  2  3  2  0
  4  1  1  0
  4  3  1  0
  5  4  2  0
  6  5  1  0
  6  7  2  0
  7  2  1  0
  9  1  1  0
 10  9  1  0
 11 10  2  0
 12 11  1  0
 13 12  2  0
 13 14  1  0
 14 10  1  0
  1 15  1  6
  2 16  1  0
  3 17  1  0
  6 18  1  0
  8 19  1  0
  8 20  1  0
  8 21  1  0
  9 22  1  0
  9 23  1  0
 11 24  1  0
 12 25  1  0
 13 26  1  0
M  ISO  8  15   8  16  14  17  14  18  14  19   8  20   8  21   8  22   8
M  ISO  4  23   8  24  14  25  14  26  14
M  END
>  <minimizedAffinity>  (1) 
-3.99005866

>  <minimizedRMSD>  (1) 
1.09728038

$$$$
