
     RDKit          3D

 20 20  0  0  1  0  0  0  0  0999 V2000
   38.1480   24.4220   36.9920 C   0  0  1  0  0  0  0  0  0  0  0  0
   40.9470   21.9020   37.4170 C   0  0  0  0  0  0  0  0  0  0  0  0
   39.9000   22.8010   37.7190 C   0  0  0  0  0  0  0  0  0  0  0  0
   39.2320   23.4760   36.6820 C   0  0  0  0  0  0  0  0  0  0  0  0
   39.6450   23.2170   35.3980 N   0  0  0  0  0  0  0  0  0  0  0  0
   40.6400   22.3630   35.1320 C   0  0  0  0  0  0  0  0  0  0  0  0
   41.2920   21.7050   36.1240 N   0  0  0  0  0  0  0  0  0  0  0  0
   37.8120   24.4550   38.4610 C   0  0  0  0  0  0  0  0  0  0  0  0
   38.4570   25.8320   36.5210 C   0  0  0  0  0  0  0  0  0  0  0  0
   37.4010   26.1600   35.0810 S   0  0  0  0  0  0  0  0  0  0  0  0
   37.2741   24.0470   36.4391 H   0  0  0  0  0  0  0  0  0  0  0  0
   41.4744   21.3695   38.2222 H   0  0  0  0  0  0  0  0  0  0  0  0
   39.6073   22.9730   38.7653 H   0  0  0  0  0  0  0  0  0  0  0  0
   40.9360   22.1904   34.0867 H   0  0  0  0  0  0  0  0  0  0  0  0
   38.7362   24.3642   39.0506 H   0  0  0  0  0  0  0  0  0  0  0  0
   37.3151   25.4063   38.7022 H   0  0  0  0  0  0  0  0  0  0  0  0
   37.1395   23.6186   38.7022 H   0  0  0  0  0  0  0  0  0  0  0  0
   38.2373   26.5535   37.3217 H   0  0  0  0  0  0  0  0  0  0  0  0
   39.5201   25.9314   36.2566 H   0  0  0  0  0  0  0  0  0  0  0  0
   36.1570   26.5464   35.5055 H   0  0  0  0  0  0  0  0  0  0  0  0
  1  8  1  0
  2  3  2  0
  4  1  1  0
  4  3  1  0
  5  4  2  0
  6  5  1  0
  6  7  2  0
  7  2  1  0
  9  1  1  0
 10  9  1  0
  1 11  1  6
  2 12  1  0
  3 13  1  0
  6 14  1  0
  8 15  1  0
  8 16  1  0
  8 17  1  0
  9 18  1  0
  9 19  1  0
 10 20  1  0
M  ISO  8  11   8  12  14  13  14  14  14  15   8  16   8  17   8  18   8
M  ISO  2  19   8  20  11
M  END
>  <minimizedAffinity>  (1) 
-3.00346565

>  <minimizedRMSD>  (1) 
0.653965354

$$$$
