
     RDKit          3D

 36 38  0  0  1  0  0  0  0  0999 V2000
   37.3370   23.9450   32.4130 C   0  0  0  0  0  0  0  0  0  0  0  0
   37.9820   23.3430   31.3150 N   0  0  0  0  0  0  0  0  0  0  0  0
   38.8980   23.7250   30.4180 C   0  0  0  0  0  0  0  0  0  0  0  0
   39.2460   22.7690   29.4900 C   0  0  0  0  0  0  0  0  0  0  0  0
   38.4900   21.7200   29.8410 N   0  0  0  0  0  0  0  0  0  0  0  0
   37.7460   22.0620   30.9190 C   0  0  0  0  0  0  0  0  0  0  0  0
   36.8490   21.0420   31.4550 C   0  0  0  0  0  0  0  0  0  0  0  0
   37.2740   19.8210   31.9150 C   0  0  0  0  0  0  0  0  0  0  0  0
   36.3620   18.8980   32.4110 C   0  0  0  0  0  0  0  0  0  0  0  0
   35.0040   19.2170   32.4390 C   0  0  0  0  0  0  0  0  0  0  0  0
   34.5880   20.4610   31.9700 C   0  0  0  0  0  0  0  0  0  0  0  0
   35.5050   21.3850   31.4720 C   0  0  0  0  0  0  0  0  0  0  0  0
   38.2210   24.1060   33.6130 C   0  0  1  0  0  0  0  0  0  0  0  0
   38.6770   27.0450   35.9520 C   0  0  0  0  0  0  0  0  0  0  0  0
   38.9030   25.7840   35.3770 C   0  0  0  0  0  0  0  0  0  0  0  0
   38.0610   25.4220   34.2750 C   0  0  0  0  0  0  0  0  0  0  0  0
   37.1010   26.3010   33.8510 N   0  0  0  0  0  0  0  0  0  0  0  0
   36.9250   27.4910   34.4330 C   0  0  0  0  0  0  0  0  0  0  0  0
   37.7240   27.8560   35.4920 N   0  0  0  0  0  0  0  0  0  0  0  0
   38.0060   22.9670   34.5770 C   0  0  0  0  0  0  0  0  0  0  0  0
   36.4765   23.3209   32.6960 H   0  0  0  0  0  0  0  0  0  0  0  0
   37.0352   24.9543   32.0965 H   0  0  0  0  0  0  0  0  0  0  0  0
   39.3418   24.7315   30.4215 H   0  0  0  0  0  0  0  0  0  0  0  0
   39.9675   22.8473   28.6634 H   0  0  0  0  0  0  0  0  0  0  0  0
   38.3450   19.5712   31.8908 H   0  0  0  0  0  0  0  0  0  0  0  0
   36.7085   17.9212   32.7796 H   0  0  0  0  0  0  0  0  0  0  0  0
   34.2706   18.4947   32.8268 H   0  0  0  0  0  0  0  0  0  0  0  0
   33.5187   20.7182   31.9931 H   0  0  0  0  0  0  0  0  0  0  0  0
   35.1703   22.3648   31.1006 H   0  0  0  0  0  0  0  0  0  0  0  0
   39.2620   24.0748   33.2590 H   0  0  0  0  0  0  0  0  0  0  0  0
   39.2988   27.3703   36.7991 H   0  0  0  0  0  0  0  0  0  0  0  0
   39.6858   25.1088   35.7529 H   0  0  0  0  0  0  0  0  0  0  0  0
   36.1453   28.1753   34.0673 H   0  0  0  0  0  0  0  0  0  0  0  0
   38.0767   23.3416   35.6088 H   0  0  0  0  0  0  0  0  0  0  0  0
   37.0096   22.5308   34.4128 H   0  0  0  0  0  0  0  0  0  0  0  0
   38.7748   22.1976   34.4128 H   0  0  0  0  0  0  0  0  0  0  0  0
  1 13  1  0
  2  1  1  0
  3  2  1  0
  4  5  1  0
  4  3  2  0
  5  6  2  0
  6  2  1  0
  6  7  1  0
  7 12  1  0
  7  8  2  0
  8  9  1  0
  9 10  2  0
 11 10  1  0
 12 11  2  0
 13 16  1  0
 13 20  1  0
 15 14  2  0
 16 15  1  0
 17 16  2  0
 17 18  1  0
 18 19  2  0
 19 14  1  0
  1 21  1  0
  1 22  1  0
  3 23  1  0
  4 24  1  0
  8 25  1  0
  9 26  1  0
 10 27  1  0
 11 28  1  0
 12 29  1  0
 13 30  1  6
 14 31  1  0
 15 32  1  0
 18 33  1  0
 20 34  1  0
 20 35  1  0
 20 36  1  0
M  ISO  8  21   8  22   8  23  14  24  14  25  14  26  14  27  14  28  14
M  ISO  8  29  14  30   8  31  14  32  14  33  14  34   8  35   8  36   8
M  END
>  <minimizedAffinity>  (1) 
-4.40231752

>  <minimizedRMSD>  (1) 
7.39125252

$$$$
