
     RDKit          3D

 38 40  0  0  1  0  0  0  0  0999 V2000
   38.6890   24.6520   33.9970 C   0  0  0  0  0  0  0  0  0  0  0  0
   37.6380   24.5230   33.0660 N   0  0  0  0  0  0  0  0  0  0  0  0
   37.0470   23.4810   32.4390 C   0  0  0  0  0  0  0  0  0  0  0  0
   36.0030   23.8280   31.6130 C   0  0  0  0  0  0  0  0  0  0  0  0
   35.9460   25.1480   31.7370 N   0  0  0  0  0  0  0  0  0  0  0  0
   36.9240   25.5810   32.6050 C   0  0  0  0  0  0  0  0  0  0  0  0
   37.0360   27.0160   32.7930 N   0  0  0  0  0  0  0  0  0  0  0  0
   37.4410   28.1650   32.0310 C   0  0  0  0  0  0  0  0  0  0  0  0
   36.1740   29.0440   32.1790 C   0  0  0  0  0  0  0  0  0  0  0  0
   35.8560   28.8080   33.6430 C   0  0  0  0  0  0  0  0  0  0  0  0
   36.7600   27.6830   34.0780 C   0  0  0  0  0  0  0  0  0  0  0  0
   38.3950   24.0130   35.3240 C   0  0  1  0  0  0  0  0  0  0  0  0
   40.7260   22.0900   37.5980 C   0  0  0  0  0  0  0  0  0  0  0  0
   39.6550   22.8960   37.2150 C   0  0  0  0  0  0  0  0  0  0  0  0
   39.4970   23.1610   35.8150 C   0  0  0  0  0  0  0  0  0  0  0  0
   40.3900   22.6190   34.9360 N   0  0  0  0  0  0  0  0  0  0  0  0
   41.4080   21.8480   35.3500 C   0  0  0  0  0  0  0  0  0  0  0  0
   41.5740   21.5840   36.6900 N   0  0  0  0  0  0  0  0  0  0  0  0
   38.0230   25.0810   36.3380 C   0  0  0  0  0  0  0  0  0  0  0  0
   38.8797   25.7229   34.1608 H   0  0  0  0  0  0  0  0  0  0  0  0
   39.5618   24.1330   33.5740 H   0  0  0  0  0  0  0  0  0  0  0  0
   37.3744   22.4401   32.5781 H   0  0  0  0  0  0  0  0  0  0  0  0
   35.3695   23.1710   30.9990 H   0  0  0  0  0  0  0  0  0  0  0  0
   37.6399   27.9087   30.9799 H   0  0  0  0  0  0  0  0  0  0  0  0
   38.3757   28.6382   32.3664 H   0  0  0  0  0  0  0  0  0  0  0  0
   36.3865   30.1035   31.9735 H   0  0  0  0  0  0  0  0  0  0  0  0
   35.3578   28.7993   31.4834 H   0  0  0  0  0  0  0  0  0  0  0  0
   36.0608   29.7146   34.2314 H   0  0  0  0  0  0  0  0  0  0  0  0
   34.7952   28.5593   33.7941 H   0  0  0  0  0  0  0  0  0  0  0  0
   36.2509   27.0070   34.7807 H   0  0  0  0  0  0  0  0  0  0  0  0
   37.6613   28.0133   34.6151 H   0  0  0  0  0  0  0  0  0  0  0  0
   37.5398   23.3361   35.1811 H   0  0  0  0  0  0  0  0  0  0  0  0
   40.8785   21.8649   38.6639 H   0  0  0  0  0  0  0  0  0  0  0  0
   38.9586   23.3123   37.9578 H   0  0  0  0  0  0  0  0  0  0  0  0
   42.1109   21.4264   34.6163 H   0  0  0  0  0  0  0  0  0  0  0  0
   38.1609   24.6850   37.3549 H   0  0  0  0  0  0  0  0  0  0  0  0
   38.6675   25.9611   36.1967 H   0  0  0  0  0  0  0  0  0  0  0  0
   36.9712   25.3703   36.1967 H   0  0  0  0  0  0  0  0  0  0  0  0
  1 12  1  0
  2  1  1  0
  3  2  1  0
  4  5  1  0
  4  3  2  0
  5  6  2  0
  6  7  1  0
  6  2  1  0
  7 11  1  0
  8  9  1  0
  8  7  1  0
  9 10  1  0
 10 11  1  0
 12 15  1  0
 12 19  1  0
 14 13  2  0
 15 14  1  0
 16 17  1  0
 16 15  2  0
 17 18  2  0
 18 13  1  0
  1 20  1  0
  1 21  1  0
  3 22  1  0
  4 23  1  0
  8 24  1  0
  8 25  1  0
  9 26  1  0
  9 27  1  0
 10 28  1  0
 10 29  1  0
 11 30  1  0
 11 31  1  0
 12 32  1  6
 13 33  1  0
 14 34  1  0
 17 35  1  0
 19 36  1  0
 19 37  1  0
 19 38  1  0
M  ISO  8  20   8  21   8  22  14  23  14  24  13  25  13  26  13  27  13
M  ISO  8  28  13  29  13  30  13  31  13  32   8  33  14  34  14  35  14
M  ISO  3  36   8  37   8  38   8
M  END
>  <minimizedAffinity>  (1) 
-4.66265202

>  <minimizedRMSD>  (1) 
2.53526092

$$$$
