
     RDKit          3D

 43 46  0  0  1  0  0  0  0  0999 V2000
   39.6850   22.8060   37.1240 C   0  0  0  0  0  0  0  0  0  0  0  0
   39.5740   23.0010   38.4980 C   0  0  0  0  0  0  0  0  0  0  0  0
   38.6740   23.9170   39.0190 C   0  0  0  0  0  0  0  0  0  0  0  0
   37.8590   24.6640   38.1870 C   0  0  0  0  0  0  0  0  0  0  0  0
   37.9640   24.4750   36.7900 C   0  0  0  0  0  0  0  0  0  0  0  0
   38.8700   23.5530   36.3050 C   0  0  0  0  0  0  0  0  0  0  0  0
   38.7220   23.5580   34.8940 N   0  0  0  0  0  0  0  0  0  0  0  0
   39.2960   24.3380   33.9200 C   0  0  0  0  0  0  0  0  0  0  0  0
   38.8010   23.9620   32.7270 N   0  0  0  0  0  0  0  0  0  0  0  0
   37.9280   22.9620   32.9320 C   0  0  0  0  0  0  0  0  0  0  0  0
   37.1760   22.2620   32.0130 C   0  0  0  0  0  0  0  0  0  0  0  0
   37.2360   22.5090   30.7730 O   0  0  0  0  0  0  0  0  0  0  0  0
   36.3280   21.2650   32.4050 N   0  0  0  0  0  0  0  0  0  0  0  0
   36.2790   21.0170   33.7430 C   0  0  0  0  0  0  0  0  0  0  0  0
   35.4120   19.9850   34.2150 N   0  0  0  0  0  0  0  0  0  0  0  0
   37.0220   21.7110   34.6230 N   0  0  0  0  0  0  0  0  0  0  0  0
   37.8590   22.6910   34.2780 C   0  0  0  0  0  0  0  0  0  0  0  0
   40.6020   21.8360   36.5500 C   0  0  0  0  0  0  0  0  0  0  0  0
   41.8320   22.3500   35.9230 C   0  0  2  0  0  0  0  0  0  0  0  0
   42.9440   21.3610   36.1440 C   0  0  0  0  0  0  0  0  0  0  0  0
   42.6980   20.1850   36.8560 C   0  0  0  0  0  0  0  0  0  0  0  0
   43.7390   19.2940   37.0520 C   0  0  0  0  0  0  0  0  0  0  0  0
   44.9600   19.6320   36.5240 N   0  0  0  0  0  0  0  0  0  0  0  0
   45.1790   20.7660   35.8420 C   0  0  0  0  0  0  0  0  0  0  0  0
   44.1610   21.6240   35.6590 N   0  0  0  0  0  0  0  0  0  0  0  0
   42.3500   23.6340   36.5700 C   0  0  0  0  0  0  0  0  0  0  0  0
   40.2106   22.4190   39.1807 H   0  0  0  0  0  0  0  0  0  0  0  0
   38.6066   24.0520   40.1086 H   0  0  0  0  0  0  0  0  0  0  0  0
   37.1447   25.3894   38.6037 H   0  0  0  0  0  0  0  0  0  0  0  0
   37.3331   25.0540   36.0995 H   0  0  0  0  0  0  0  0  0  0  0  0
   40.0353   25.1352   34.0872 H   0  0  0  0  0  0  0  0  0  0  0  0
   35.7604   20.7334   31.7296 H   0  0  0  0  0  0  0  0  0  0  0  0
   35.3577   19.7789   35.2227 H   0  0  0  0  0  0  0  0  0  0  0  0
   34.8410   19.4468   33.5477 H   0  0  0  0  0  0  0  0  0  0  0  0
   40.9045   21.1516   37.3562 H   0  0  0  0  0  0  0  0  0  0  0  0
   40.0399   21.3732   35.7255 H   0  0  0  0  0  0  0  0  0  0  0  0
   41.5745   22.5259   34.8681 H   0  0  0  0  0  0  0  0  0  0  0  0
   41.6951   19.9707   37.2538 H   0  0  0  0  0  0  0  0  0  0  0  0
   43.5940   18.3554   37.6070 H   0  0  0  0  0  0  0  0  0  0  0  0
   46.1773   20.9904   35.4383 H   0  0  0  0  0  0  0  0  0  0  0  0
   42.3100   23.5349   37.6648 H   0  0  0  0  0  0  0  0  0  0  0  0
   43.3893   23.8096   36.2554 H   0  0  0  0  0  0  0  0  0  0  0  0
   41.7235   24.4817   36.2554 H   0  0  0  0  0  0  0  0  0  0  0  0
  1  2  2  0
  2  3  1  0
  4  3  2  0
  5  4  1  0
  6  5  2  0
  6  1  1  0
  7  6  1  0
  8  7  1  0
  9 10  1  0
  9  8  2  0
 10 17  2  0
 11 13  1  0
 11 10  1  0
 12 11  2  0
 13 14  1  0
 14 15  1  0
 14 16  2  0
 17 16  1  0
 17  7  1  0
 18  1  1  0
 19 20  1  0
 19 18  1  0
 19 26  1  0
 20 21  2  0
 21 22  1  0
 23 22  2  0
 24 23  1  0
 25 24  2  0
 25 20  1  0
  2 27  1  0
  3 28  1  0
  4 29  1  0
  5 30  1  0
  8 31  1  0
 13 32  1  0
 15 33  1  0
 15 34  1  0
 18 35  1  0
 18 36  1  0
 19 37  1  6
 21 38  1  0
 22 39  1  0
 24 40  1  0
 26 41  1  0
 26 42  1  0
 26 43  1  0
M  ISO  8  27  14  28  14  29  14  30  14  31  14  32   9  35   8  36   8
M  ISO  7  37   8  38  14  39  14  40  14  41   8  42   8  43   8
M  END
>  <minimizedAffinity>  (1) 
-5.52827215

>  <minimizedRMSD>  (1) 
1.23185194

$$$$
