
     RDKit          3D

 33 35  0  0  1  0  0  0  0  0999 V2000
   38.2950   26.4880   33.6790 C   0  0  0  0  0  0  0  0  0  0  0  0
   37.2380   26.9750   32.8630 N   0  0  0  0  0  0  0  0  0  0  0  0
   36.6140   28.1520   32.6950 C   0  0  0  0  0  0  0  0  0  0  0  0
   35.6190   28.1580   31.7390 C   0  0  0  0  0  0  0  0  0  0  0  0
   35.6480   26.8780   31.2950 N   0  0  0  0  0  0  0  0  0  0  0  0
   36.5960   26.1890   31.9560 C   0  0  0  0  0  0  0  0  0  0  0  0
   36.8040   24.7760   31.6370 C   0  0  0  0  0  0  0  0  0  0  0  0
   37.8220   24.4020   30.7820 C   0  0  0  0  0  0  0  0  0  0  0  0
   37.7660   23.0120   30.6760 C   0  0  0  0  0  0  0  0  0  0  0  0
   36.6940   22.6240   31.4900 C   0  0  0  0  0  0  0  0  0  0  0  0
   36.1680   23.6980   32.0280 O   0  0  0  0  0  0  0  0  0  0  0  0
   37.8700   26.3280   35.1080 C   0  0  1  0  0  0  0  0  0  0  0  0
   38.2000   23.3280   37.3900 C   0  0  0  0  0  0  0  0  0  0  0  0
   38.0220   24.6660   37.0110 C   0  0  0  0  0  0  0  0  0  0  0  0
   38.0370   24.9400   35.6090 C   0  0  0  0  0  0  0  0  0  0  0  0
   38.2200   23.9010   34.7310 N   0  0  0  0  0  0  0  0  0  0  0  0
   38.3840   22.6500   35.1320 C   0  0  0  0  0  0  0  0  0  0  0  0
   38.3750   22.3540   36.4820 N   0  0  0  0  0  0  0  0  0  0  0  0
   38.5860   27.3190   35.9910 C   0  0  0  0  0  0  0  0  0  0  0  0
   39.1342   27.1977   33.6349 H   0  0  0  0  0  0  0  0  0  0  0  0
   38.5914   25.4993   33.2988 H   0  0  0  0  0  0  0  0  0  0  0  0
   36.8771   29.0472   33.2776 H   0  0  0  0  0  0  0  0  0  0  0  0
   34.9703   28.9871   31.4199 H   0  0  0  0  0  0  0  0  0  0  0  0
   38.5381   25.0704   30.2816 H   0  0  0  0  0  0  0  0  0  0  0  0
   38.4228   22.3605   30.0809 H   0  0  0  0  0  0  0  0  0  0  0  0
   36.3509   21.5913   31.6509 H   0  0  0  0  0  0  0  0  0  0  0  0
   36.7912   26.5397   35.1454 H   0  0  0  0  0  0  0  0  0  0  0  0
   38.1962   23.0692   38.4591 H   0  0  0  0  0  0  0  0  0  0  0  0
   37.8782   25.4636   37.7547 H   0  0  0  0  0  0  0  0  0  0  0  0
   38.5271   21.8482   34.3926 H   0  0  0  0  0  0  0  0  0  0  0  0
   38.4045   27.0677   37.0464 H   0  0  0  0  0  0  0  0  0  0  0  0
   39.6659   27.2800   35.7853 H   0  0  0  0  0  0  0  0  0  0  0  0
   38.2099   28.3320   35.7853 H   0  0  0  0  0  0  0  0  0  0  0  0
  1 12  1  0
  2  1  1  0
  3  2  1  0
  4  3  2  0
  5  4  1  0
  5  6  2  0
  6  2  1  0
  7  6  1  0
  7 11  1  0
  8  7  2  0
  9  8  1  0
  9 10  2  0
 10 11  1  0
 12 15  1  0
 12 19  1  0
 14 13  2  0
 15 14  1  0
 16 17  1  0
 16 15  2  0
 17 18  2  0
 18 13  1  0
  1 20  1  0
  1 21  1  0
  3 22  1  0
  4 23  1  0
  8 24  1  0
  9 25  1  0
 10 26  1  0
 12 27  1  6
 13 28  1  0
 14 29  1  0
 17 30  1  0
 19 31  1  0
 19 32  1  0
 19 33  1  0
M  ISO  8  20   8  21   8  22  14  23  14  24  14  25  14  26  14  27   8
M  ISO  6  28  14  29  14  30  14  31   8  32   8  33   8
M  END
>  <minimizedAffinity>  (1) 
-4.54757452

>  <minimizedRMSD>  (1) 
4.78999662

$$$$
