
     RDKit          3D

 33 35  0  0  1  0  0  0  0  0999 V2000
   39.9790   25.3160   34.2020 C   0  0  0  0  0  0  0  0  0  0  0  0
   38.9820   26.2620   34.5380 N   0  0  0  0  0  0  0  0  0  0  0  0
   38.8230   27.1860   35.5000 C   0  0  0  0  0  0  0  0  0  0  0  0
   37.6510   27.8980   35.4180 C   0  0  0  0  0  0  0  0  0  0  0  0
   37.0470   27.3810   34.3400 N   0  0  0  0  0  0  0  0  0  0  0  0
   37.8380   26.4120   33.8190 C   0  0  0  0  0  0  0  0  0  0  0  0
   37.4430   25.6470   32.6140 C   0  0  0  0  0  0  0  0  0  0  0  0
   36.8770   24.4310   32.2880 C   0  0  0  0  0  0  0  0  0  0  0  0
   36.8030   24.3830   30.9000 C   0  0  0  0  0  0  0  0  0  0  0  0
   37.3090   25.5350   30.4210 N   0  0  0  0  0  0  0  0  0  0  0  0
   37.6950   26.2960   31.4410 N   0  0  0  0  0  0  0  0  0  0  0  0
   40.3290   24.4040   35.3370 C   0  0  1  0  0  0  0  0  0  0  0  0
   37.4420   21.9740   35.6060 C   0  0  0  0  0  0  0  0  0  0  0  0
   38.5480   22.6330   35.0640 C   0  0  0  0  0  0  0  0  0  0  0  0
   39.1620   23.6570   35.8540 C   0  0  0  0  0  0  0  0  0  0  0  0
   38.6370   23.9330   37.0850 N   0  0  0  0  0  0  0  0  0  0  0  0
   37.5800   23.2850   37.5710 C   0  0  0  0  0  0  0  0  0  0  0  0
   36.9750   22.2950   36.8260 N   0  0  0  0  0  0  0  0  0  0  0  0
   41.4620   23.4880   34.9560 C   0  0  0  0  0  0  0  0  0  0  0  0
   39.6143   24.7061   33.3624 H   0  0  0  0  0  0  0  0  0  0  0  0
   40.8881   25.8766   33.9390 H   0  0  0  0  0  0  0  0  0  0  0  0
   39.5700   27.3584   36.2888 H   0  0  0  0  0  0  0  0  0  0  0  0
   37.2939   28.7009   36.0796 H   0  0  0  0  0  0  0  0  0  0  0  0
   36.5481   23.6508   32.9902 H   0  0  0  0  0  0  0  0  0  0  0  0
   36.4025   23.5521   30.3006 H   0  0  0  0  0  0  0  0  0  0  0  0
   37.3849   25.7864   29.4250 H   0  0  0  0  0  0  0  0  0  0  0  0
   40.6692   25.0383   36.1688 H   0  0  0  0  0  0  0  0  0  0  0  0
   36.9458   21.1812   35.0269 H   0  0  0  0  0  0  0  0  0  0  0  0
   38.9331   22.3746   34.0666 H   0  0  0  0  0  0  0  0  0  0  0  0
   37.1894   23.5397   38.5673 H   0  0  0  0  0  0  0  0  0  0  0  0
   41.9419   23.1000   35.8666 H   0  0  0  0  0  0  0  0  0  0  0  0
   41.0712   22.6490   34.3616 H   0  0  0  0  0  0  0  0  0  0  0  0
   42.2005   24.0459   34.3616 H   0  0  0  0  0  0  0  0  0  0  0  0
  1  2  1  0
  1 12  1  0
  2  3  1  0
  4  3  2  0
  5  4  1  0
  6  5  2  0
  6  2  1  0
  7  6  1  0
  8  7  1  0
  9  8  2  0
 10  9  1  0
 10 11  1  0
 11  7  2  0
 12 15  1  0
 13 18  2  0
 14 13  1  0
 14 15  2  0
 15 16  1  0
 16 17  2  0
 18 17  1  0
 19 12  1  0
  1 20  1  0
  1 21  1  0
  3 22  1  0
  4 23  1  0
  8 24  1  0
  9 25  1  0
 10 26  1  0
 12 27  1  1
 13 28  1  0
 14 29  1  0
 17 30  1  0
 19 31  1  0
 19 32  1  0
 19 33  1  0
M  ISO  8  20   8  21   8  22  14  23  14  24  14  25  14  26   9  27   8
M  ISO  6  28  14  29  14  30  14  31   8  32   8  33   8
M  END
>  <minimizedAffinity>  (1) 
-4.18378544

>  <minimizedRMSD>  (1) 
4.37883902

$$$$
