
     RDKit          3D

 40 42  0  0  1  0  0  0  0  0999 V2000
   37.0700   24.7760   31.4960 C   0  0  0  0  0  0  0  0  0  0  0  0
   37.5830   24.3310   32.7340 N   0  0  0  0  0  0  0  0  0  0  0  0
   38.2680   24.8910   33.7410 C   0  0  0  0  0  0  0  0  0  0  0  0
   38.5690   24.0550   34.7940 C   0  0  0  0  0  0  0  0  0  0  0  0
   38.0180   22.8840   34.3960 N   0  0  0  0  0  0  0  0  0  0  0  0
   37.4410   23.0570   33.1830 C   0  0  0  0  0  0  0  0  0  0  0  0
   36.7740   21.9810   32.5070 N   0  0  0  0  0  0  0  0  0  0  0  0
   35.4170   21.8430   32.0660 C   0  0  0  0  0  0  0  0  0  0  0  0
   34.8670   20.4550   32.2980 C   0  0  0  0  0  0  0  0  0  0  0  0
   35.8730   19.4250   32.2690 N   0  0  0  0  0  0  0  0  0  0  0  0
   37.0080   19.8190   31.4880 C   0  0  0  0  0  0  0  0  0  0  0  0
   37.7410   20.9000   32.2800 C   0  0  0  0  0  0  0  0  0  0  0  0
   35.8720   25.6670   31.6420 C   0  0  1  0  0  0  0  0  0  0  0  0
   37.5230   28.8830   30.5260 C   0  0  0  0  0  0  0  0  0  0  0  0
   37.2840   27.5040   30.6260 C   0  0  0  0  0  0  0  0  0  0  0  0
   36.1940   27.1060   31.4610 C   0  0  0  0  0  0  0  0  0  0  0  0
   35.4590   28.0690   32.1060 N   0  0  0  0  0  0  0  0  0  0  0  0
   35.7210   29.3600   31.9830 C   0  0  0  0  0  0  0  0  0  0  0  0
   36.7660   29.7790   31.1840 N   0  0  0  0  0  0  0  0  0  0  0  0
   34.7700   25.2270   30.7160 C   0  0  0  0  0  0  0  0  0  0  0  0
   36.7824   23.8974   30.9000 H   0  0  0  0  0  0  0  0  0  0  0  0
   37.8594   25.3651   31.0063 H   0  0  0  0  0  0  0  0  0  0  0  0
   38.5700   25.9486   33.7275 H   0  0  0  0  0  0  0  0  0  0  0  0
   39.1167   24.2810   35.7208 H   0  0  0  0  0  0  0  0  0  0  0  0
   35.3727   22.0637   30.9893 H   0  0  0  0  0  0  0  0  0  0  0  0
   34.8045   22.5452   32.6506 H   0  0  0  0  0  0  0  0  0  0  0  0
   34.3769   20.4350   33.2826 H   0  0  0  0  0  0  0  0  0  0  0  0
   34.1652   20.2443   31.4775 H   0  0  0  0  0  0  0  0  0  0  0  0
   36.1811   19.2313   33.2326 H   0  0  0  0  0  0  0  0  0  0  0  0
   37.6707   18.9567   31.3229 H   0  0  0  0  0  0  0  0  0  0  0  0
   36.6951   20.1974   30.5037 H   0  0  0  0  0  0  0  0  0  0  0  0
   38.0905   20.4952   33.2412 H   0  0  0  0  0  0  0  0  0  0  0  0
   38.6226   21.2645   31.7323 H   0  0  0  0  0  0  0  0  0  0  0  0
   35.5200   25.5647   32.6791 H   0  0  0  0  0  0  0  0  0  0  0  0
   38.3496   29.2399   29.8941 H   0  0  0  0  0  0  0  0  0  0  0  0
   37.9023   26.7685   30.0905 H   0  0  0  0  0  0  0  0  0  0  0  0
   35.1063   30.0994   32.5173 H   0  0  0  0  0  0  0  0  0  0  0  0
   33.9090   24.8832   31.3080 H   0  0  0  0  0  0  0  0  0  0  0  0
   34.4648   26.0722   30.0816 H   0  0  0  0  0  0  0  0  0  0  0  0
   35.1309   24.4040   30.0816 H   0  0  0  0  0  0  0  0  0  0  0  0
  1 13  1  0
  1  2  1  0
  2  6  1  0
  2  3  1  0
  3  4  2  0
  5  4  1  0
  6  5  2  0
  7  6  1  0
  8  9  1  0
  8  7  1  0
 10  9  1  0
 11 10  1  0
 11 12  1  0
 12  7  1  0
 14 15  2  0
 14 19  1  0
 15 16  1  0
 16 13  1  0
 16 17  2  0
 18 17  1  0
 19 18  2  0
 20 13  1  0
  1 21  1  0
  1 22  1  0
  3 23  1  0
  4 24  1  0
  8 25  1  0
  8 26  1  0
  9 27  1  0
  9 28  1  0
 10 29  1  0
 11 30  1  0
 11 31  1  0
 12 32  1  0
 12 33  1  0
 13 34  1  1
 14 35  1  0
 15 36  1  0
 18 37  1  0
 20 38  1  0
 20 39  1  0
 20 40  1  0
M  ISO  8  21   8  22   8  23  14  24  14  25  13  26  13  27  13  28  13
M  ISO  8  29   5  30  13  31  13  32  13  33  13  34   8  35  14  36  14
M  ISO  4  37  14  38   8  39   8  40   8
M  END
>  <minimizedAffinity>  (1) 
-4.35082769

>  <minimizedRMSD>  (1) 
8.0727911

$$$$
