
     RDKit          3D

 43 46  0  0  1  0  0  0  0  0999 V2000
   39.6360   22.6390   36.9720 C   0  0  0  0  0  0  0  0  0  0  0  0
   39.7500   22.9190   38.3290 C   0  0  0  0  0  0  0  0  0  0  0  0
   38.8960   23.8080   38.9670 C   0  0  0  0  0  0  0  0  0  0  0  0
   37.9000   24.4440   38.2530 C   0  0  0  0  0  0  0  0  0  0  0  0
   37.7690   24.1720   36.8770 C   0  0  0  0  0  0  0  0  0  0  0  0
   38.6350   23.2820   36.2800 C   0  0  0  0  0  0  0  0  0  0  0  0
   38.2530   23.1230   34.8840 C   0  0  0  0  0  0  0  0  0  0  0  0
   38.9470   23.9730   34.0680 N   0  0  0  0  0  0  0  0  0  0  0  0
   38.7250   23.9500   32.7400 C   0  0  0  0  0  0  0  0  0  0  0  0
   37.8320   23.1040   32.1970 N   0  0  0  0  0  0  0  0  0  0  0  0
   37.1330   22.2580   32.9520 C   0  0  0  0  0  0  0  0  0  0  0  0
   36.1980   21.3620   32.4820 C   0  0  0  0  0  0  0  0  0  0  0  0
   35.5010   20.5130   33.3210 C   0  0  0  0  0  0  0  0  0  0  0  0
   35.7580   20.5690   34.6860 C   0  0  0  0  0  0  0  0  0  0  0  0
   36.6810   21.4390   35.2310 C   0  0  0  0  0  0  0  0  0  0  0  0
   37.3210   22.2400   34.3200 C   0  0  0  0  0  0  0  0  0  0  0  0
   40.5040   21.6990   36.2900 C   0  0  0  0  0  0  0  0  0  0  0  0
   41.7260   22.2320   35.6600 C   0  0  2  0  0  0  0  0  0  0  0  0
   42.8780   21.3160   35.9680 C   0  0  0  0  0  0  0  0  0  0  0  0
   42.6770   20.1840   36.7600 C   0  0  0  0  0  0  0  0  0  0  0  0
   43.7520   19.3650   37.0400 C   0  0  0  0  0  0  0  0  0  0  0  0
   44.9660   19.7170   36.5150 N   0  0  0  0  0  0  0  0  0  0  0  0
   45.1440   20.8180   35.7490 C   0  0  0  0  0  0  0  0  0  0  0  0
   44.0900   21.6020   35.4870 N   0  0  0  0  0  0  0  0  0  0  0  0
   42.1640   23.5810   36.2250 C   0  0  0  0  0  0  0  0  0  0  0  0
   40.5387   22.4223   38.9132 H   0  0  0  0  0  0  0  0  0  0  0  0
   39.0129   24.0060   40.0427 H   0  0  0  0  0  0  0  0  0  0  0  0
   37.2201   25.1513   38.7503 H   0  0  0  0  0  0  0  0  0  0  0  0
   36.9836   24.6650   36.2854 H   0  0  0  0  0  0  0  0  0  0  0  0
   39.2846   24.6361   32.0873 H   0  0  0  0  0  0  0  0  0  0  0  0
   35.9991   21.3208   31.4009 H   0  0  0  0  0  0  0  0  0  0  0  0
   34.7591   19.8083   32.9173 H   0  0  0  0  0  0  0  0  0  0  0  0
   35.2053   19.8949   35.3569 H   0  0  0  0  0  0  0  0  0  0  0  0
   36.8869   21.4861   36.3105 H   0  0  0  0  0  0  0  0  0  0  0  0
   40.8160   20.9445   37.0272 H   0  0  0  0  0  0  0  0  0  0  0  0
   39.9008   21.3187   35.4524 H   0  0  0  0  0  0  0  0  0  0  0  0
   41.4866   22.3249   34.5904 H   0  0  0  0  0  0  0  0  0  0  0  0
   41.6776   19.9486   37.1546 H   0  0  0  0  0  0  0  0  0  0  0  0
   43.6376   18.4643   37.6610 H   0  0  0  0  0  0  0  0  0  0  0  0
   46.1380   21.0652   35.3480 H   0  0  0  0  0  0  0  0  0  0  0  0
   42.1507   23.5399   37.3242 H   0  0  0  0  0  0  0  0  0  0  0  0
   43.1827   23.8101   35.8790 H   0  0  0  0  0  0  0  0  0  0  0  0
   41.4742   24.3649   35.8790 H   0  0  0  0  0  0  0  0  0  0  0  0
  1  2  2  0
  2  3  1  0
  4  3  2  0
  5  4  1  0
  6  5  2  0
  6  1  1  0
  7  6  1  0
  8  7  2  0
  9  8  1  0
 10  9  2  0
 10 11  1  0
 11 16  2  0
 12 11  1  0
 12 13  2  0
 13 14  1  0
 14 15  2  0
 16  7  1  0
 16 15  1  0
 17  1  1  0
 18 19  1  0
 18 25  1  0
 18 17  1  0
 19 20  2  0
 20 21  1  0
 22 21  2  0
 23 22  1  0
 24 23  2  0
 24 19  1  0
  2 26  1  0
  3 27  1  0
  4 28  1  0
  5 29  1  0
  9 30  1  0
 12 31  1  0
 13 32  1  0
 14 33  1  0
 15 34  1  0
 17 35  1  0
 17 36  1  0
 18 37  1  6
 20 38  1  0
 21 39  1  0
 23 40  1  0
 25 41  1  0
 25 42  1  0
 25 43  1  0
M  ISO  8  26  14  27  14  28  14  29  14  30  14  31  14  32  14  33  14
M  ISO  8  34  14  35   8  36   8  37   8  38  14  39  14  40  14  41   8
M  ISO  2  42   8  43   8
M  END
>  <minimizedAffinity>  (1) 
-5.47956657

>  <minimizedRMSD>  (1) 
1.49701047

$$$$
