
     RDKit          3D

 32 33  0  0  1  0  0  0  0  0999 V2000
   38.4130   24.0140   36.4320 C   0  0  1  0  0  0  0  0  0  0  0  0
   41.2520   21.7680   37.5370 C   0  0  0  0  0  0  0  0  0  0  0  0
   40.1330   22.6080   37.6450 C   0  0  0  0  0  0  0  0  0  0  0  0
   39.5880   23.1060   36.4180 C   0  0  0  0  0  0  0  0  0  0  0  0
   40.1740   22.7450   35.2310 N   0  0  0  0  0  0  0  0  0  0  0  0
   41.2370   21.9430   35.1830 C   0  0  0  0  0  0  0  0  0  0  0  0
   41.7670   21.4610   36.3490 N   0  0  0  0  0  0  0  0  0  0  0  0
   37.9530   24.3000   37.8390 C   0  0  0  0  0  0  0  0  0  0  0  0
   38.6720   25.2990   35.7020 C   0  0  0  0  0  0  0  0  0  0  0  0
   37.9870   25.3910   34.4750 N   0  0  0  0  0  0  0  0  0  0  0  0
   37.7950   24.5830   33.4250 C   0  0  0  0  0  0  0  0  0  0  0  0
   37.0310   25.1070   32.4060 C   0  0  0  0  0  0  0  0  0  0  0  0
   36.7240   26.3260   32.8500 N   0  0  0  0  0  0  0  0  0  0  0  0
   37.2930   26.5000   34.0880 C   0  0  0  0  0  0  0  0  0  0  0  0
   37.1520   27.7680   34.8900 C   0  0  0  0  0  0  0  0  0  0  0  0
   36.0940   28.6540   34.3090 C   0  0  0  0  0  0  0  0  0  0  0  0
   37.6099   23.4840   35.8989 H   0  0  0  0  0  0  0  0  0  0  0  0
   41.7105   21.3570   38.4485 H   0  0  0  0  0  0  0  0  0  0  0  0
   39.6976   22.8700   38.6206 H   0  0  0  0  0  0  0  0  0  0  0  0
   41.6842   21.6710   34.2155 H   0  0  0  0  0  0  0  0  0  0  0  0
   38.6631   23.8585   38.5538 H   0  0  0  0  0  0  0  0  0  0  0  0
   37.9044   25.3878   37.9949 H   0  0  0  0  0  0  0  0  0  0  0  0
   36.9559   23.8623   37.9949 H   0  0  0  0  0  0  0  0  0  0  0  0
   38.3540   26.1347   36.3428 H   0  0  0  0  0  0  0  0  0  0  0  0
   39.7483   25.3347   35.4775 H   0  0  0  0  0  0  0  0  0  0  0  0
   38.2189   23.5690   33.3792 H   0  0  0  0  0  0  0  0  0  0  0  0
   36.7435   24.6340   31.4554 H   0  0  0  0  0  0  0  0  0  0  0  0
   36.8786   27.5113   35.9241 H   0  0  0  0  0  0  0  0  0  0  0  0
   38.1113   28.3058   34.8679 H   0  0  0  0  0  0  0  0  0  0  0  0
   35.5264   29.1293   35.1226 H   0  0  0  0  0  0  0  0  0  0  0  0
   36.5658   29.4304   33.6888 H   0  0  0  0  0  0  0  0  0  0  0  0
   35.4125   28.0532   33.6888 H   0  0  0  0  0  0  0  0  0  0  0  0
  1  8  1  0
  2  3  2  0
  4  1  1  0
  4  3  1  0
  5  4  2  0
  6  5  1  0
  6  7  2  0
  7  2  1  0
  9  1  1  0
 10  9  1  0
 11 10  1  0
 12 13  1  0
 12 11  2  0
 13 14  2  0
 14 10  1  0
 14 15  1  0
 16 15  1  0
  1 17  1  6
  2 18  1  0
  3 19  1  0
  6 20  1  0
  8 21  1  0
  8 22  1  0
  8 23  1  0
  9 24  1  0
  9 25  1  0
 11 26  1  0
 12 27  1  0
 15 28  1  0
 15 29  1  0
 16 30  1  0
 16 31  1  0
 16 32  1  0
M  ISO  8  17   8  18  14  19  14  20  14  21   8  22   8  23   8  24   8
M  ISO  8  25   8  26  14  27  14  28   8  29   8  30   8  31   8  32   8
M  END
>  <minimizedAffinity>  (1) 
-4.09434795

>  <minimizedRMSD>  (1) 
0.905781746

$$$$
