
     RDKit          3D

 35 37  0  0  1  0  0  0  0  0999 V2000
   38.7280   25.3820   34.2780 C   0  0  0  0  0  0  0  0  0  0  0  0
   37.8570   24.9220   33.2630 N   0  0  0  0  0  0  0  0  0  0  0  0
   37.6620   23.7670   32.6080 C   0  0  0  0  0  0  0  0  0  0  0  0
   36.6550   23.7990   31.6690 C   0  0  0  0  0  0  0  0  0  0  0  0
   36.1990   25.0580   31.7510 N   0  0  0  0  0  0  0  0  0  0  0  0
   36.9130   25.7190   32.6930 C   0  0  0  0  0  0  0  0  0  0  0  0
   36.5890   27.1190   32.9570 C   0  0  0  0  0  0  0  0  0  0  0  0
   36.5870   27.9700   31.8510 C   0  0  0  0  0  0  0  0  0  0  0  0
   36.2940   29.3230   31.9760 C   0  0  0  0  0  0  0  0  0  0  0  0
   36.0030   29.7930   33.2490 C   0  0  0  0  0  0  0  0  0  0  0  0
   36.0080   28.9320   34.3470 C   0  0  0  0  0  0  0  0  0  0  0  0
   36.3010   27.6130   34.1850 N   0  0  0  0  0  0  0  0  0  0  0  0
   38.4700   24.7190   35.5970 C   0  0  1  0  0  0  0  0  0  0  0  0
   40.6010   22.2610   37.5360 C   0  0  0  0  0  0  0  0  0  0  0  0
   39.4610   22.9890   37.1620 C   0  0  0  0  0  0  0  0  0  0  0  0
   39.6110   23.8880   36.0610 C   0  0  0  0  0  0  0  0  0  0  0  0
   40.8380   23.9880   35.4440 N   0  0  0  0  0  0  0  0  0  0  0  0
   41.8870   23.2800   35.8330 C   0  0  0  0  0  0  0  0  0  0  0  0
   41.7710   22.4030   36.8940 N   0  0  0  0  0  0  0  0  0  0  0  0
   38.0790   25.7380   36.6340 C   0  0  0  0  0  0  0  0  0  0  0  0
   38.5914   26.4671   34.3955 H   0  0  0  0  0  0  0  0  0  0  0  0
   39.7561   25.1353   33.9744 H   0  0  0  0  0  0  0  0  0  0  0  0
   38.2599   22.8651   32.8057 H   0  0  0  0  0  0  0  0  0  0  0  0
   36.3085   22.9884   31.0110 H   0  0  0  0  0  0  0  0  0  0  0  0
   36.8227   27.5607   30.8576 H   0  0  0  0  0  0  0  0  0  0  0  0
   36.2928   29.9926   31.1033 H   0  0  0  0  0  0  0  0  0  0  0  0
   35.7655   30.8572   33.3941 H   0  0  0  0  0  0  0  0  0  0  0  0
   35.7739   29.3214   35.3488 H   0  0  0  0  0  0  0  0  0  0  0  0
   37.6286   24.0265   35.4474 H   0  0  0  0  0  0  0  0  0  0  0  0
   40.5339   21.5556   38.3773 H   0  0  0  0  0  0  0  0  0  0  0  0
   38.5022   22.8738   37.6886 H   0  0  0  0  0  0  0  0  0  0  0  0
   42.8496   23.3900   35.3121 H   0  0  0  0  0  0  0  0  0  0  0  0
   38.2397   25.3192   37.6384 H   0  0  0  0  0  0  0  0  0  0  0  0
   38.6944   26.6414   36.5106 H   0  0  0  0  0  0  0  0  0  0  0  0
   37.0173   25.9979   36.5106 H   0  0  0  0  0  0  0  0  0  0  0  0
  1 13  1  0
  2  1  1  0
  3  2  1  0
  4  5  1  0
  4  3  2  0
  5  6  2  0
  6  7  1  0
  6  2  1  0
  7 12  2  0
  8  9  2  0
  8  7  1  0
  9 10  1  0
 10 11  2  0
 12 11  1  0
 13 16  1  0
 13 20  1  0
 15 14  2  0
 16 15  1  0
 17 18  1  0
 17 16  2  0
 18 19  2  0
 19 14  1  0
  1 21  1  0
  1 22  1  0
  3 23  1  0
  4 24  1  0
  8 25  1  0
  9 26  1  0
 10 27  1  0
 11 28  1  0
 13 29  1  6
 14 30  1  0
 15 31  1  0
 18 32  1  0
 20 33  1  0
 20 34  1  0
 20 35  1  0
M  ISO  8  21   8  22   8  23  14  24  14  25  14  26  14  27  14  28  14
M  ISO  7  29   8  30  14  31  14  32  14  33   8  34   8  35   8
M  END
>  <minimizedAffinity>  (1) 
-4.34049559

>  <minimizedRMSD>  (1) 
2.72218275

$$$$
