
     RDKit          3D

 27 28  0  0  1  0  0  0  0  0999 V2000
   38.2910   24.2960   36.7750 C   0  0  1  0  0  0  0  0  0  0  0  0
   41.0760   21.8240   37.4730 C   0  0  0  0  0  0  0  0  0  0  0  0
   40.0260   22.7200   37.7380 C   0  0  0  0  0  0  0  0  0  0  0  0
   39.4000   23.3240   36.6000 C   0  0  0  0  0  0  0  0  0  0  0  0
   39.8510   23.0010   35.3450 N   0  0  0  0  0  0  0  0  0  0  0  0
   40.8440   22.1510   35.1400 C   0  0  0  0  0  0  0  0  0  0  0  0
   41.4670   21.5530   36.2160 N   0  0  0  0  0  0  0  0  0  0  0  0
   37.8100   24.3300   38.2010 C   0  0  0  0  0  0  0  0  0  0  0  0
   38.6480   25.6780   36.3120 C   0  0  0  0  0  0  0  0  0  0  0  0
   37.9870   26.0530   35.1250 N   0  0  0  0  0  0  0  0  0  0  0  0
   37.6450   25.4390   33.9850 C   0  0  0  0  0  0  0  0  0  0  0  0
   36.9790   26.2120   33.0570 C   0  0  0  0  0  0  0  0  0  0  0  0
   36.9080   27.4070   33.6910 N   0  0  0  0  0  0  0  0  0  0  0  0
   37.5020   27.3030   34.9030 C   0  0  0  0  0  0  0  0  0  0  0  0
   37.5760   28.3990   35.7850 O   0  0  0  0  0  0  0  0  0  0  0  0
   37.4716   23.9399   36.1333 H   0  0  0  0  0  0  0  0  0  0  0  0
   41.5893   21.3336   38.3133 H   0  0  0  0  0  0  0  0  0  0  0  0
   39.7022   22.9454   38.7648 H   0  0  0  0  0  0  0  0  0  0  0  0
   41.1717   21.9219   34.1152 H   0  0  0  0  0  0  0  0  0  0  0  0
   38.6728   24.2690   38.8806 H   0  0  0  0  0  0  0  0  0  0  0  0
   37.2662   25.2688   38.3822 H   0  0  0  0  0  0  0  0  0  0  0  0
   37.1395   23.4770   38.3822 H   0  0  0  0  0  0  0  0  0  0  0  0
   38.3781   26.3927   37.1034 H   0  0  0  0  0  0  0  0  0  0  0  0
   39.7276   25.6839   36.1013 H   0  0  0  0  0  0  0  0  0  0  0  0
   37.8813   24.3808   33.7997 H   0  0  0  0  0  0  0  0  0  0  0  0
   36.6035   25.9314   32.0619 H   0  0  0  0  0  0  0  0  0  0  0  0
   38.0159   28.2966   36.6659 H   0  0  0  0  0  0  0  0  0  0  0  0
  1  8  1  0
  2  3  2  0
  4  1  1  0
  4  3  1  0
  5  4  2  0
  6  5  1  0
  6  7  2  0
  7  2  1  0
  9  1  1  0
 10  9  1  0
 11 10  1  0
 12 13  1  0
 12 11  2  0
 13 14  2  0
 14 10  1  0
 14 15  1  0
  1 16  1  6
  2 17  1  0
  3 18  1  0
  6 19  1  0
  8 20  1  0
  8 21  1  0
  8 22  1  0
  9 23  1  0
  9 24  1  0
 11 25  1  0
 12 26  1  0
 15 27  1  0
M  ISO  8  16   8  17  14  18  14  19  14  20   8  21   8  22   8  23   8
M  ISO  4  24   8  25  14  26  14  27   3
M  END
>  <minimizedAffinity>  (1) 
-4.02002335

>  <minimizedRMSD>  (1) 
0.122465812

$$$$
