
     RDKit          3D

 33 35  0  0  1  0  0  0  0  0999 V2000
   36.9850   25.1420   32.7000 C   0  0  1  0  0  0  0  0  0  0  0  0
   37.7940   27.7340   35.3370 C   0  0  0  0  0  0  0  0  0  0  0  0
   37.3250   27.2030   34.1260 C   0  0  0  0  0  0  0  0  0  0  0  0
   37.4450   25.7860   33.9530 C   0  0  0  0  0  0  0  0  0  0  0  0
   38.0000   25.0430   34.9610 N   0  0  0  0  0  0  0  0  0  0  0  0
   38.4330   25.5850   36.0930 C   0  0  0  0  0  0  0  0  0  0  0  0
   38.3300   26.9470   36.2860 N   0  0  0  0  0  0  0  0  0  0  0  0
   36.9120   26.1290   31.5630 C   0  0  0  0  0  0  0  0  0  0  0  0
   37.8200   23.9580   32.3140 C   0  0  0  0  0  0  0  0  0  0  0  0
   38.6140   24.1960   31.1710 N   0  0  0  0  0  0  0  0  0  0  0  0
   38.4860   23.9920   29.8540 C   0  0  0  0  0  0  0  0  0  0  0  0
   39.5500   24.3970   29.0750 C   0  0  0  0  0  0  0  0  0  0  0  0
   40.4020   24.8930   30.0020 N   0  0  0  0  0  0  0  0  0  0  0  0
   39.8440   24.7710   31.2290 C   0  0  0  0  0  0  0  0  0  0  0  0
   40.5740   25.2370   32.4020 C   0  0  0  0  0  0  0  0  0  0  0  0
   41.1900   24.6850   33.4350 C   0  0  0  0  0  0  0  0  0  0  0  0
   41.8070   25.4200   34.4090 C   0  0  0  0  0  0  0  0  0  0  0  0
   41.7300   26.8410   34.2190 C   0  0  0  0  0  0  0  0  0  0  0  0
   40.7490   26.9860   32.6090 S   0  0  0  0  0  0  0  0  0  0  0  0
   35.9703   24.7707   32.9060 H   0  0  0  0  0  0  0  0  0  0  0  0
   37.7216   28.8173   35.5137 H   0  0  0  0  0  0  0  0  0  0  0  0
   36.8863   27.8438   33.3470 H   0  0  0  0  0  0  0  0  0  0  0  0
   38.8730   24.9492   36.8754 H   0  0  0  0  0  0  0  0  0  0  0  0
   36.8365   27.1492   31.9673 H   0  0  0  0  0  0  0  0  0  0  0  0
   37.8188   26.0453   30.9460 H   0  0  0  0  0  0  0  0  0  0  0  0
   36.0274   25.9128   30.9460 H   0  0  0  0  0  0  0  0  0  0  0  0
   38.4823   23.7060   33.1554 H   0  0  0  0  0  0  0  0  0  0  0  0
   37.1330   23.1333   32.0733 H   0  0  0  0  0  0  0  0  0  0  0  0
   37.5873   23.5297   29.4197 H   0  0  0  0  0  0  0  0  0  0  0  0
   39.6737   24.3333   27.9838 H   0  0  0  0  0  0  0  0  0  0  0  0
   41.2064   23.5879   33.5134 H   0  0  0  0  0  0  0  0  0  0  0  0
   42.3198   24.9607   35.2669 H   0  0  0  0  0  0  0  0  0  0  0  0
   42.1387   27.6433   34.8509 H   0  0  0  0  0  0  0  0  0  0  0  0
  1  4  1  0
  2  7  2  0
  3  2  1  0
  4  3  2  0
  4  5  1  0
  5  6  2  0
  6  7  1  0
  8  1  1  0
  9  1  1  0
 10 14  1  0
 10  9  1  0
 11 10  1  0
 12 11  2  0
 12 13  1  0
 13 14  2  0
 14 15  1  0
 15 19  1  0
 15 16  2  0
 16 17  1  0
 18 17  2  0
 19 18  1  0
  1 20  1  1
  2 21  1  0
  3 22  1  0
  6 23  1  0
  8 24  1  0
  8 25  1  0
  8 26  1  0
  9 27  1  0
  9 28  1  0
 11 29  1  0
 12 30  1  0
 16 31  1  0
 17 32  1  0
 18 33  1  0
M  ISO  8  20   8  21  14  22  14  23  14  24   8  25   8  26   8  27   8
M  ISO  6  28   8  29  14  30  14  31  14  32  14  33  14
M  END
>  <minimizedAffinity>  (1) 
-3.33526492

>  <minimizedRMSD>  (1) 
5.55531311

$$$$
