
     RDKit          3D

 43 46  0  0  1  0  0  0  0  0999 V2000
   39.7020   22.6180   37.0880 C   0  0  0  0  0  0  0  0  0  0  0  0
   39.6980   23.0160   38.4190 C   0  0  0  0  0  0  0  0  0  0  0  0
   38.7680   23.9190   38.9090 C   0  0  0  0  0  0  0  0  0  0  0  0
   37.8090   24.4510   38.0630 C   0  0  0  0  0  0  0  0  0  0  0  0
   37.8020   24.0570   36.7030 C   0  0  0  0  0  0  0  0  0  0  0  0
   38.7470   23.1550   36.2600 C   0  0  0  0  0  0  0  0  0  0  0  0
   38.4650   22.9970   34.8430 C   0  0  0  0  0  0  0  0  0  0  0  0
   38.8920   23.5190   33.6070 C   0  0  0  0  0  0  0  0  0  0  0  0
   38.1550   22.9680   32.6310 N   0  0  0  0  0  0  0  0  0  0  0  0
   37.2540   22.1040   33.1260 C   0  0  0  0  0  0  0  0  0  0  0  0
   36.3430   21.3660   32.4300 C   0  0  0  0  0  0  0  0  0  0  0  0
   35.5100   20.5380   33.1450 C   0  0  0  0  0  0  0  0  0  0  0  0
   35.6310   20.4940   34.5180 C   0  0  0  0  0  0  0  0  0  0  0  0
   36.5610   21.2530   35.1770 C   0  0  0  0  0  0  0  0  0  0  0  0
   37.4340   22.1110   34.5030 C   0  0  0  0  0  0  0  0  0  0  0  0
   40.6470   21.6420   36.5740 C   0  0  0  0  0  0  0  0  0  0  0  0
   41.8350   22.1520   35.8690 C   0  0  2  0  0  0  0  0  0  0  0  0
   42.9900   21.2190   36.1190 C   0  0  0  0  0  0  0  0  0  0  0  0
   42.7880   20.0420   36.8410 C   0  0  0  0  0  0  0  0  0  0  0  0
   43.8660   19.1980   37.0590 C   0  0  0  0  0  0  0  0  0  0  0  0
   45.0770   19.5880   36.5410 N   0  0  0  0  0  0  0  0  0  0  0  0
   45.2510   20.7230   35.8480 C   0  0  0  0  0  0  0  0  0  0  0  0
   44.2000   21.5320   35.6430 N   0  0  0  0  0  0  0  0  0  0  0  0
   42.3250   23.4950   36.3980 C   0  0  0  0  0  0  0  0  0  0  0  0
   40.4540   22.6029   39.1029 H   0  0  0  0  0  0  0  0  0  0  0  0
   38.7914   24.2130   39.9687 H   0  0  0  0  0  0  0  0  0  0  0  0
   37.0652   25.1677   38.4414 H   0  0  0  0  0  0  0  0  0  0  0  0
   37.0527   24.4649   36.0087 H   0  0  0  0  0  0  0  0  0  0  0  0
   39.6962   24.2560   33.4653 H   0  0  0  0  0  0  0  0  0  0  0  0
   38.2660   23.1806   31.6293 H   0  0  0  0  0  0  0  0  0  0  0  0
   36.2767   21.4308   31.3339 H   0  0  0  0  0  0  0  0  0  0  0  0
   34.7592   19.9206   32.6301 H   0  0  0  0  0  0  0  0  0  0  0  0
   34.9663   19.8352   35.0961 H   0  0  0  0  0  0  0  0  0  0  0  0
   36.6229   21.1850   36.2732 H   0  0  0  0  0  0  0  0  0  0  0  0
   41.0012   21.0451   37.4274 H   0  0  0  0  0  0  0  0  0  0  0  0
   40.0859   21.0838   35.8101 H   0  0  0  0  0  0  0  0  0  0  0  0
   41.5354   22.2423   34.8145 H   0  0  0  0  0  0  0  0  0  0  0  0
   41.7909   19.7884   37.2303 H   0  0  0  0  0  0  0  0  0  0  0  0
   43.7566   18.2588   37.6211 H   0  0  0  0  0  0  0  0  0  0  0  0
   46.2428   20.9875   35.4526 H   0  0  0  0  0  0  0  0  0  0  0  0
   42.3195   23.4799   37.4979 H   0  0  0  0  0  0  0  0  0  0  0  0
   43.3483   23.6793   36.0389 H   0  0  0  0  0  0  0  0  0  0  0  0
   41.6608   24.2949   36.0389 H   0  0  0  0  0  0  0  0  0  0  0  0
  1  2  2  0
  2  3  1  0
  4  3  2  0
  5  4  1  0
  6  5  2  0
  6  1  1  0
  7  6  1  0
  8  7  2  0
  9 10  1  0
  9  8  1  0
 10 15  2  0
 11 10  1  0
 11 12  2  0
 12 13  1  0
 13 14  2  0
 15  7  1  0
 15 14  1  0
 16  1  1  0
 17 18  1  0
 17 24  1  0
 17 16  1  0
 18 19  2  0
 19 20  1  0
 21 20  2  0
 22 21  1  0
 23 22  2  0
 23 18  1  0
  2 25  1  0
  3 26  1  0
  4 27  1  0
  5 28  1  0
  8 29  1  0
  9 30  1  0
 11 31  1  0
 12 32  1  0
 13 33  1  0
 14 34  1  0
 16 35  1  0
 16 36  1  0
 17 37  1  6
 19 38  1  0
 20 39  1  0
 22 40  1  0
 24 41  1  0
 24 42  1  0
 24 43  1  0
M  ISO  8  25  14  26  14  27  14  28  14  29  14  30   9  31  14  32  14
M  ISO  8  33  14  34  14  35   8  36   8  37   8  38  14  39  14  40  14
M  ISO  3  41   8  42   8  43   8
M  END
>  <minimizedAffinity>  (1) 
-5.4302454

>  <minimizedRMSD>  (1) 
1.13970184

$$$$
