
     RDKit          3D

 39 41  0  0  1  0  0  0  0  0999 V2000
   40.0740   23.4230   36.5630 C   0  0  0  0  0  0  0  0  0  0  0  0
   39.8600   22.9230   37.8430 C   0  0  0  0  0  0  0  0  0  0  0  0
   38.7350   23.2730   38.5790 C   0  0  0  0  0  0  0  0  0  0  0  0
   37.7960   24.1390   38.0450 C   0  0  0  0  0  0  0  0  0  0  0  0
   38.0000   24.6560   36.7440 C   0  0  0  0  0  0  0  0  0  0  0  0
   39.1320   24.2810   36.0440 C   0  0  0  0  0  0  0  0  0  0  0  0
   39.0430   24.9320   34.7900 N   0  0  0  0  0  0  0  0  0  0  0  0
   38.2600   24.3240   33.8370 C   0  0  0  0  0  0  0  0  0  0  0  0
   38.0700   24.8040   32.5350 C   0  0  0  0  0  0  0  0  0  0  0  0
   38.7210   25.9720   32.1980 C   0  0  0  0  0  0  0  0  0  0  0  0
   38.5780   26.4290   31.0560 O   0  0  0  0  0  0  0  0  0  0  0  0
   39.4840   26.5570   33.1390 N   0  0  0  0  0  0  0  0  0  0  0  0
   39.6590   26.0860   34.3840 C   0  0  0  0  0  0  0  0  0  0  0  0
   40.3710   26.6310   35.2630 O   0  0  0  0  0  0  0  0  0  0  0  0
   41.2350   23.0490   35.7740 C   0  0  0  0  0  0  0  0  0  0  0  0
   42.5200   22.8980   36.4840 C   0  0  2  0  0  0  0  0  0  0  0  0
   43.3900   24.0870   36.1930 C   0  0  0  0  0  0  0  0  0  0  0  0
   43.2810   24.7360   34.9610 C   0  0  0  0  0  0  0  0  0  0  0  0
   44.0950   25.8280   34.7170 C   0  0  0  0  0  0  0  0  0  0  0  0
   44.9610   26.2090   35.7000 N   0  0  0  0  0  0  0  0  0  0  0  0
   45.0510   25.5730   36.8760 C   0  0  0  0  0  0  0  0  0  0  0  0
   44.2590   24.5130   37.1090 N   0  0  0  0  0  0  0  0  0  0  0  0
   43.3450   21.7120   35.9880 C   0  0  0  0  0  0  0  0  0  0  0  0
   40.5977   22.2353   38.2822 H   0  0  0  0  0  0  0  0  0  0  0  0
   38.5899   22.8611   39.5886 H   0  0  0  0  0  0  0  0  0  0  0  0
   36.9042   24.4210   38.6239 H   0  0  0  0  0  0  0  0  0  0  0  0
   37.2694   25.3457   36.2962 H   0  0  0  0  0  0  0  0  0  0  0  0
   37.7455   23.3931   34.1176 H   0  0  0  0  0  0  0  0  0  0  0  0
   37.4306   24.2734   31.8141 H   0  0  0  0  0  0  0  0  0  0  0  0
   39.9692   27.4296   32.8859 H   0  0  0  0  0  0  0  0  0  0  0  0
   41.3729   23.8218   35.0035 H   0  0  0  0  0  0  0  0  0  0  0  0
   41.0041   22.0428   35.3942 H   0  0  0  0  0  0  0  0  0  0  0  0
   42.2561   22.7732   37.5446 H   0  0  0  0  0  0  0  0  0  0  0  0
   42.5648   24.3872   34.2025 H   0  0  0  0  0  0  0  0  0  0  0  0
   44.0455   26.3712   33.7617 H   0  0  0  0  0  0  0  0  0  0  0  0
   45.7641   25.9144   37.6408 H   0  0  0  0  0  0  0  0  0  0  0  0
   43.7353   21.1509   36.8498 H   0  0  0  0  0  0  0  0  0  0  0  0
   42.7096   21.0527   35.3785 H   0  0  0  0  0  0  0  0  0  0  0  0
   44.1842   22.0784   35.3785 H   0  0  0  0  0  0  0  0  0  0  0  0
  1  2  2  0
  2  3  1  0
  4  3  2  0
  5  4  1  0
  6  1  1  0
  6  5  2  0
  7  6  1  0
  8  7  1  0
  9  8  2  0
 10  9  1  0
 10 12  1  0
 11 10  2  0
 12 13  1  0
 13  7  1  0
 13 14  2  0
 15 16  1  0
 15  1  1  0
 17 16  1  0
 17 22  1  0
 18 17  2  0
 19 18  1  0
 19 20  2  0
 20 21  1  0
 21 22  2  0
 23 16  1  0
  2 24  1  0
  3 25  1  0
  4 26  1  0
  5 27  1  0
  8 28  1  0
  9 29  1  0
 12 30  1  0
 15 31  1  0
 15 32  1  0
 16 33  1  1
 18 34  1  0
 19 35  1  0
 21 36  1  0
 23 37  1  0
 23 38  1  0
 23 39  1  0
M  ISO  8  24  14  25  14  26  14  27  14  28  14  29  14  30   9  31   8
M  ISO  8  32   8  33   8  34  14  35  14  36  14  37   8  38   8  39   8
M  END
>  <minimizedAffinity>  (1) 
-5.30997276

>  <minimizedRMSD>  (1) 
3.79805636

$$$$
