
     RDKit          3D

 46 49  0  0  1  0  0  0  0  0999 V2000
   37.4210   25.4790   32.9450 N   0  0  0  0  0  0  0  0  0  0  0  0
   36.9860   24.3060   32.4720 C   0  0  0  0  0  0  0  0  0  0  0  0
   35.9700   24.4130   31.5520 C   0  0  0  0  0  0  0  0  0  0  0  0
   35.7650   25.7290   31.4470 N   0  0  0  0  0  0  0  0  0  0  0  0
   36.6320   26.3670   32.2800 C   0  0  0  0  0  0  0  0  0  0  0  0
   36.6330   27.8810   32.3340 C   0  0  1  0  0  0  0  0  0  0  0  0
   36.3120   28.5850   31.0730 C   0  0  0  0  0  0  0  0  0  0  0  0
   35.2810   28.5520   32.1660 C   0  0  2  0  0  0  0  0  0  0  0  0
   34.9770   29.7510   32.9110 N   0  0  0  0  0  0  0  0  0  0  0  0
   35.5860   30.0570   34.0830 C   0  0  0  0  0  0  0  0  0  0  0  0
   35.3050   31.1990   34.8050 C   0  0  0  0  0  0  0  0  0  0  0  0
   35.9860   31.5140   36.0890 C   0  0  0  0  0  0  0  0  0  0  0  0
   34.3580   32.0970   34.3330 C   0  0  0  0  0  0  0  0  0  0  0  0
   34.0980   33.1390   34.9870 O   0  0  0  0  0  0  0  0  0  0  0  0
   33.7580   31.7840   33.1670 N   0  0  0  0  0  0  0  0  0  0  0  0
   34.0770   30.6530   32.5120 C   0  0  0  0  0  0  0  0  0  0  0  0
   33.4470   30.4960   31.4550 O   0  0  0  0  0  0  0  0  0  0  0  0
   38.3970   25.8790   33.8790 C   0  0  0  0  0  0  0  0  0  0  0  0
   37.8980   25.9380   35.2760 C   0  0  1  0  0  0  0  0  0  0  0  0
   38.4820   23.5910   38.1880 C   0  0  0  0  0  0  0  0  0  0  0  0
   37.9030   24.6240   37.4430 C   0  0  0  0  0  0  0  0  0  0  0  0
   38.4500   24.8780   36.1420 C   0  0  0  0  0  0  0  0  0  0  0  0
   39.5080   24.1050   35.6890 N   0  0  0  0  0  0  0  0  0  0  0  0
   40.0220   23.1320   36.4380 C   0  0  0  0  0  0  0  0  0  0  0  0
   39.5140   22.8690   37.6910 N   0  0  0  0  0  0  0  0  0  0  0  0
   38.1810   27.3100   35.8820 C   0  0  0  0  0  0  0  0  0  0  0  0
   37.4046   23.3401   32.7912 H   0  0  0  0  0  0  0  0  0  0  0  0
   35.4466   23.6022   31.0241 H   0  0  0  0  0  0  0  0  0  0  0  0
   37.4488   27.9411   33.0694 H   0  0  0  0  0  0  0  0  0  0  0  0
   36.1496   28.0078   30.1508 H   0  0  0  0  0  0  0  0  0  0  0  0
   36.7946   29.3853   30.4929 H   0  0  0  0  0  0  0  0  0  0  0  0
   34.2302   28.2362   32.2435 H   0  0  0  0  0  0  0  0  0  0  0  0
   36.3409   29.3610   34.4776 H   0  0  0  0  0  0  0  0  0  0  0  0
   35.3412   31.2158   36.9288 H   0  0  0  0  0  0  0  0  0  0  0  0
   36.9373   30.9645   36.1440 H   0  0  0  0  0  0  0  0  0  0  0  0
   36.1832   32.5948   36.1440 H   0  0  0  0  0  0  0  0  0  0  0  0
   33.0477   32.4176   32.7734 H   0  0  0  0  0  0  0  0  0  0  0  0
   39.2309   25.1627   33.8381 H   0  0  0  0  0  0  0  0  0  0  0  0
   38.7054   26.8986   33.6047 H   0  0  0  0  0  0  0  0  0  0  0  0
   36.8126   25.7672   35.2241 H   0  0  0  0  0  0  0  0  0  0  0  0
   38.0935   23.3622   39.1913 H   0  0  0  0  0  0  0  0  0  0  0  0
   37.0643   25.2159   37.8382 H   0  0  0  0  0  0  0  0  0  0  0  0
   40.8600   22.5326   36.0528 H   0  0  0  0  0  0  0  0  0  0  0  0
   38.1658   27.2363   36.9794 H   0  0  0  0  0  0  0  0  0  0  0  0
   39.1702   27.6598   35.5517 H   0  0  0  0  0  0  0  0  0  0  0  0
   37.4109   28.0227   35.5517 H   0  0  0  0  0  0  0  0  0  0  0  0
  1 18  1  0
  2  1  1  0
  3  2  2  0
  4  3  1  0
  4  5  2  0
  5  6  1  0
  5  1  1  0
  7  8  1  0
  7  6  1  0
  8  6  1  0
  8  9  1  0
  9 10  1  0
 10 11  2  0
 11 12  1  0
 13 11  1  0
 13 14  2  0
 15 13  1  0
 16  9  1  0
 16 15  1  0
 17 16  2  0
 18 19  1  0
 19 26  1  0
 19 22  1  0
 21 20  2  0
 22 21  1  0
 23 22  2  0
 23 24  1  0
 24 25  2  0
 25 20  1  0
  2 27  1  0
  3 28  1  0
  6 29  1  1
  7 30  1  0
  7 31  1  0
  8 32  1  6
 10 33  1  0
 12 34  1  0
 12 35  1  0
 12 36  1  0
 15 37  1  0
 18 38  1  0
 18 39  1  0
 19 40  1  6
 20 41  1  0
 21 42  1  0
 24 43  1  0
 26 44  1  0
 26 45  1  0
 26 46  1  0
M  ISO  8  27  14  28  14  29  13  30  13  31  13  32  13  33  14  34   8
M  ISO  8  35   8  36   8  37   9  38   8  39   8  40   8  41  14  42  14
M  ISO  4  43  14  44   8  45   8  46   8
M  END
>  <minimizedAffinity>  (1) 
-5.92141485

>  <minimizedRMSD>  (1) 
2.0067842

$$$$
