
     RDKit          3D

 43 46  0  0  1  0  0  0  0  0999 V2000
   37.3620   25.7090   32.8630 N   0  0  0  0  0  0  0  0  0  0  0  0
   36.8440   24.5970   32.3420 C   0  0  0  0  0  0  0  0  0  0  0  0
   35.8180   24.8210   31.4570 C   0  0  0  0  0  0  0  0  0  0  0  0
   35.6920   26.1460   31.4280 N   0  0  0  0  0  0  0  0  0  0  0  0
   36.6220   26.6880   32.2760 C   0  0  0  0  0  0  0  0  0  0  0  0
   36.7220   28.1890   32.4130 C   0  0  1  0  0  0  0  0  0  0  0  0
   35.7470   28.9790   31.6300 C   0  0  0  0  0  0  0  0  0  0  0  0
   35.5660   28.8580   33.1270 C   0  0  2  0  0  0  0  0  0  0  0  0
   35.7290   30.1430   33.7990 C   0  0  0  0  0  0  0  0  0  0  0  0
   35.7340   31.3280   33.0910 C   0  0  0  0  0  0  0  0  0  0  0  0
   35.8930   32.5190   33.7900 C   0  0  0  0  0  0  0  0  0  0  0  0
   36.0490   32.5970   35.1590 C   0  0  0  0  0  0  0  0  0  0  0  0
   36.0430   31.4100   35.8550 C   0  0  0  0  0  0  0  0  0  0  0  0
   35.8850   30.2230   35.1700 C   0  0  0  0  0  0  0  0  0  0  0  0
   38.3890   25.9970   33.7960 C   0  0  0  0  0  0  0  0  0  0  0  0
   37.9160   26.0150   35.2020 C   0  0  1  0  0  0  0  0  0  0  0  0
   38.4970   23.5460   38.0120 C   0  0  0  0  0  0  0  0  0  0  0  0
   37.8980   24.6070   37.3130 C   0  0  0  0  0  0  0  0  0  0  0  0
   38.4720   24.9300   36.0340 C   0  0  0  0  0  0  0  0  0  0  0  0
   39.5540   24.2030   35.5660 N   0  0  0  0  0  0  0  0  0  0  0  0
   40.0780   23.2050   36.2800 C   0  0  0  0  0  0  0  0  0  0  0  0
   39.5400   22.8770   37.5160 N   0  0  0  0  0  0  0  0  0  0  0  0
   38.1970   27.3670   35.8470 C   0  0  0  0  0  0  0  0  0  0  0  0
   37.2058   23.5902   32.5979 H   0  0  0  0  0  0  0  0  0  0  0  0
   35.2332   24.0750   30.8989 H   0  0  0  0  0  0  0  0  0  0  0  0
   37.8165   28.2021   32.5223 H   0  0  0  0  0  0  0  0  0  0  0  0
   36.0486   29.9413   31.1907 H   0  0  0  0  0  0  0  0  0  0  0  0
   35.1115   28.7753   30.7555 H   0  0  0  0  0  0  0  0  0  0  0  0
   34.8381   28.4783   33.8592 H   0  0  0  0  0  0  0  0  0  0  0  0
   35.6148   31.3298   31.9975 H   0  0  0  0  0  0  0  0  0  0  0  0
   35.8946   33.4576   33.2163 H   0  0  0  0  0  0  0  0  0  0  0  0
   36.1724   33.5632   35.6701 H   0  0  0  0  0  0  0  0  0  0  0  0
   36.1632   31.4076   36.9484 H   0  0  0  0  0  0  0  0  0  0  0  0
   35.8831   29.2870   35.7478 H   0  0  0  0  0  0  0  0  0  0  0  0
   39.1722   25.2305   33.7009 H   0  0  0  0  0  0  0  0  0  0  0  0
   38.7653   27.0047   33.5658 H   0  0  0  0  0  0  0  0  0  0  0  0
   36.8307   25.8425   35.1537 H   0  0  0  0  0  0  0  0  0  0  0  0
   38.0955   23.2587   38.9950 H   0  0  0  0  0  0  0  0  0  0  0  0
   37.0386   25.1596   37.7205 H   0  0  0  0  0  0  0  0  0  0  0  0
   40.9377   22.6416   35.8881 H   0  0  0  0  0  0  0  0  0  0  0  0
   38.1753   27.2625   36.9418 H   0  0  0  0  0  0  0  0  0  0  0  0
   39.1886   27.7244   35.5324 H   0  0  0  0  0  0  0  0  0  0  0  0
   37.4299   28.0899   35.5324 H   0  0  0  0  0  0  0  0  0  0  0  0
  1 15  1  0
  2  1  1  0
  3  2  2  0
  4  3  1  0
  4  5  2  0
  5  6  1  0
  5  1  1  0
  6  8  1  0
  7  6  1  0
  7  8  1  0
  8  9  1  0
  9 14  2  0
 10 11  2  0
 10  9  1  0
 11 12  1  0
 12 13  2  0
 14 13  1  0
 15 16  1  0
 16 23  1  0
 16 19  1  0
 18 17  2  0
 19 18  1  0
 20 19  2  0
 20 21  1  0
 21 22  2  0
 22 17  1  0
  2 24  1  0
  3 25  1  0
  6 26  1  1
  7 27  1  0
  7 28  1  0
  8 29  1  6
 10 30  1  0
 11 31  1  0
 12 32  1  0
 13 33  1  0
 14 34  1  0
 15 35  1  0
 15 36  1  0
 16 37  1  6
 17 38  1  0
 18 39  1  0
 21 40  1  0
 23 41  1  0
 23 42  1  0
 23 43  1  0
M  ISO  8  24  14  25  14  26  13  27  13  28  13  29  13  30  14  31  14
M  ISO  8  32  14  33  14  34  14  35   8  36   8  37   8  38  14  39  14
M  ISO  4  40  14  41   8  42   8  43   8
M  END
>  <minimizedAffinity>  (1) 
-5.98086882

>  <minimizedRMSD>  (1) 
0.619443536

$$$$
