
     RDKit          3D

 42 45  0  0  1  0  0  0  0  0999 V2000
   37.3760   25.7670   32.8790 N   0  0  0  0  0  0  0  0  0  0  0  0
   36.8960   24.6470   32.3370 C   0  0  0  0  0  0  0  0  0  0  0  0
   35.8670   24.8490   31.4500 C   0  0  0  0  0  0  0  0  0  0  0  0
   35.6990   26.1720   31.4420 N   0  0  0  0  0  0  0  0  0  0  0  0
   36.6050   26.7250   32.2990 C   0  0  0  0  0  0  0  0  0  0  0  0
   36.6540   28.2290   32.4570 C   0  0  1  0  0  0  0  0  0  0  0  0
   35.8010   29.0360   31.5600 C   0  0  0  0  0  0  0  0  0  0  0  0
   35.3860   28.8760   33.0040 C   0  0  2  0  0  0  0  0  0  0  0  0
   35.6520   30.1080   33.7940 C   0  0  0  0  0  0  0  0  0  0  0  0
   35.8330   30.1730   35.1660 C   0  0  0  0  0  0  0  0  0  0  0  0
   36.0740   31.3650   35.8070 C   0  0  0  0  0  0  0  0  0  0  0  0
   36.1470   32.5490   35.1220 C   0  0  0  0  0  0  0  0  0  0  0  0
   35.9660   32.4620   33.7700 C   0  0  0  0  0  0  0  0  0  0  0  0
   35.7330   31.2940   33.1680 N   0  0  0  0  0  0  0  0  0  0  0  0
   38.3870   26.0750   33.8200 C   0  0  0  0  0  0  0  0  0  0  0  0
   37.9090   26.0720   35.2240 C   0  0  1  0  0  0  0  0  0  0  0  0
   38.4800   23.5500   37.9890 C   0  0  0  0  0  0  0  0  0  0  0  0
   37.8800   24.6320   37.3130 C   0  0  0  0  0  0  0  0  0  0  0  0
   38.4610   24.9630   36.0370 C   0  0  0  0  0  0  0  0  0  0  0  0
   39.5350   24.2360   35.5500 N   0  0  0  0  0  0  0  0  0  0  0  0
   40.0530   23.2250   36.2400 C   0  0  0  0  0  0  0  0  0  0  0  0
   39.5200   22.8770   37.4740 N   0  0  0  0  0  0  0  0  0  0  0  0
   38.2090   27.4120   35.8900 C   0  0  0  0  0  0  0  0  0  0  0  0
   37.2897   23.6488   32.5791 H   0  0  0  0  0  0  0  0  0  0  0  0
   35.3094   24.0931   30.8776 H   0  0  0  0  0  0  0  0  0  0  0  0
   37.7223   28.2465   32.7185 H   0  0  0  0  0  0  0  0  0  0  0  0
   36.1577   30.0120   31.1991 H   0  0  0  0  0  0  0  0  0  0  0  0
   35.3101   28.8518   30.5930 H   0  0  0  0  0  0  0  0  0  0  0  0
   34.4964   28.5230   33.5463 H   0  0  0  0  0  0  0  0  0  0  0  0
   35.7826   29.2470   35.7576 H   0  0  0  0  0  0  0  0  0  0  0  0
   36.2118   31.3681   36.8983 H   0  0  0  0  0  0  0  0  0  0  0  0
   36.3388   33.5072   35.6270 H   0  0  0  0  0  0  0  0  0  0  0  0
   36.0136   33.3780   33.1628 H   0  0  0  0  0  0  0  0  0  0  0  0
   39.1906   25.3299   33.7242 H   0  0  0  0  0  0  0  0  0  0  0  0
   38.7351   27.0948   33.5988 H   0  0  0  0  0  0  0  0  0  0  0  0
   36.8218   25.9115   35.1771 H   0  0  0  0  0  0  0  0  0  0  0  0
   38.0829   23.2482   38.9694 H   0  0  0  0  0  0  0  0  0  0  0  0
   37.0265   25.1857   37.7313 H   0  0  0  0  0  0  0  0  0  0  0  0
   40.9060   22.6626   35.8325 H   0  0  0  0  0  0  0  0  0  0  0  0
   38.1822   27.2923   36.9831 H   0  0  0  0  0  0  0  0  0  0  0  0
   39.2070   27.7585   35.5834 H   0  0  0  0  0  0  0  0  0  0  0  0
   37.4541   28.1510   35.5834 H   0  0  0  0  0  0  0  0  0  0  0  0
  1 15  1  0
  2  1  1  0
  3  2  2  0
  4  3  1  0
  4  5  2  0
  5  6  1  0
  5  1  1  0
  6  8  1  0
  7  6  1  0
  7  8  1  0
  8  9  1  0
  9 10  2  0
 10 11  1  0
 12 11  2  0
 13 12  1  0
 14 13  2  0
 14  9  1  0
 15 16  1  0
 16 23  1  0
 16 19  1  0
 18 17  2  0
 19 18  1  0
 20 19  2  0
 20 21  1  0
 21 22  2  0
 22 17  1  0
  2 24  1  0
  3 25  1  0
  6 26  1  1
  7 27  1  0
  7 28  1  0
  8 29  1  6
 10 30  1  0
 11 31  1  0
 12 32  1  0
 13 33  1  0
 15 34  1  0
 15 35  1  0
 16 36  1  6
 17 37  1  0
 18 38  1  0
 21 39  1  0
 23 40  1  0
 23 41  1  0
 23 42  1  0
M  ISO  8  24  14  25  14  26  13  27  13  28  13  29  13  30  14  31  14
M  ISO  8  32  14  33  14  34   8  35   8  36   8  37  14  38  14  39  14
M  ISO  3  40   8  41   8  42   8
M  END
>  <minimizedAffinity>  (1) 
-5.75888586

>  <minimizedRMSD>  (1) 
0.813963711

$$$$
