
     RDKit          3D

 40 43  0  0  1  0  0  0  0  0999 V2000
   37.4150   25.7930   32.9070 N   0  0  0  0  0  0  0  0  0  0  0  0
   36.9470   24.6850   32.3180 C   0  0  0  0  0  0  0  0  0  0  0  0
   35.9160   24.9110   31.4380 C   0  0  0  0  0  0  0  0  0  0  0  0
   35.7340   26.2340   31.4820 N   0  0  0  0  0  0  0  0  0  0  0  0
   36.6320   26.7660   32.3630 C   0  0  0  0  0  0  0  0  0  0  0  0
   36.6650   28.2580   32.5810 C   0  0  1  0  0  0  0  0  0  0  0  0
   35.7690   29.0920   31.7520 C   0  0  0  0  0  0  0  0  0  0  0  0
   35.3980   28.8540   33.1950 C   0  0  2  0  0  0  0  0  0  0  0  0
   35.6420   30.0390   34.0540 C   0  0  0  0  0  0  0  0  0  0  0  0
   35.5210   31.3660   33.6290 C   0  0  0  0  0  0  0  0  0  0  0  0
   35.8240   32.1960   34.6940 C   0  0  0  0  0  0  0  0  0  0  0  0
   36.1160   31.3140   35.7270 C   0  0  0  0  0  0  0  0  0  0  0  0
   35.9990   30.0760   35.3120 O   0  0  0  0  0  0  0  0  0  0  0  0
   38.4170   26.0680   33.8560 C   0  0  0  0  0  0  0  0  0  0  0  0
   37.9380   26.0430   35.2600 C   0  0  1  0  0  0  0  0  0  0  0  0
   38.5160   23.5030   38.0060 C   0  0  0  0  0  0  0  0  0  0  0  0
   37.9280   24.5760   37.3270 C   0  0  0  0  0  0  0  0  0  0  0  0
   38.4950   24.9360   36.0600 C   0  0  0  0  0  0  0  0  0  0  0  0
   39.5770   24.2210   35.5730 N   0  0  0  0  0  0  0  0  0  0  0  0
   40.0990   23.2040   36.2610 C   0  0  0  0  0  0  0  0  0  0  0  0
   39.5670   22.8390   37.4900 N   0  0  0  0  0  0  0  0  0  0  0  0
   38.2240   27.3790   35.9400 C   0  0  0  0  0  0  0  0  0  0  0  0
   37.3521   23.6826   32.5207 H   0  0  0  0  0  0  0  0  0  0  0  0
   35.3667   24.1724   30.8357 H   0  0  0  0  0  0  0  0  0  0  0  0
   37.7415   28.2841   32.8054 H   0  0  0  0  0  0  0  0  0  0  0  0
   36.0966   30.0917   31.4306 H   0  0  0  0  0  0  0  0  0  0  0  0
   35.2531   28.9454   30.7916 H   0  0  0  0  0  0  0  0  0  0  0  0
   34.5296   28.4569   33.7410 H   0  0  0  0  0  0  0  0  0  0  0  0
   35.2337   31.6943   32.6192 H   0  0  0  0  0  0  0  0  0  0  0  0
   35.8318   33.2957   34.7172 H   0  0  0  0  0  0  0  0  0  0  0  0
   36.4038   31.6116   36.7461 H   0  0  0  0  0  0  0  0  0  0  0  0
   39.2123   25.3158   33.7479 H   0  0  0  0  0  0  0  0  0  0  0  0
   38.7727   27.0899   33.6580 H   0  0  0  0  0  0  0  0  0  0  0  0
   36.8529   25.8697   35.2091 H   0  0  0  0  0  0  0  0  0  0  0  0
   38.1110   23.1958   38.9815 H   0  0  0  0  0  0  0  0  0  0  0  0
   37.0686   25.1194   37.7467 H   0  0  0  0  0  0  0  0  0  0  0  0
   40.9570   22.6509   35.8514 H   0  0  0  0  0  0  0  0  0  0  0  0
   38.1960   27.2481   37.0318 H   0  0  0  0  0  0  0  0  0  0  0  0
   39.2193   27.7379   35.6391 H   0  0  0  0  0  0  0  0  0  0  0  0
   37.4628   28.1139   35.6391 H   0  0  0  0  0  0  0  0  0  0  0  0
  1 14  1  0
  2  1  1  0
  3  4  1  0
  3  2  2  0
  4  5  2  0
  5  6  1  0
  5  1  1  0
  6  8  1  0
  7  6  1  0
  7  8  1  0
  8  9  1  0
  9 13  1  0
 10  9  2  0
 10 11  1  0
 11 12  2  0
 13 12  1  0
 14 15  1  0
 15 22  1  0
 15 18  1  0
 17 16  2  0
 18 17  1  0
 19 18  2  0
 19 20  1  0
 20 21  2  0
 21 16  1  0
  2 23  1  0
  3 24  1  0
  6 25  1  1
  7 26  1  0
  7 27  1  0
  8 28  1  6
 10 29  1  0
 11 30  1  0
 12 31  1  0
 14 32  1  0
 14 33  1  0
 15 34  1  6
 16 35  1  0
 17 36  1  0
 20 37  1  0
 22 38  1  0
 22 39  1  0
 22 40  1  0
M  ISO  8  23  14  24  14  25  13  26  13  27  13  28  13  29  14  30  14
M  ISO  8  31  14  32   8  33   8  34   8  35  14  36  14  37  14  38   8
M  ISO  2  39   8  40   8
M  END
>  <minimizedAffinity>  (1) 
-5.4446311

>  <minimizedRMSD>  (1) 
0.855225086

$$$$
