
     RDKit          3D

 36 38  0  0  1  0  0  0  0  0999 V2000
   38.5370   25.8120   34.0610 C   0  0  0  0  0  0  0  0  0  0  0  0
   37.5270   25.6420   33.0980 N   0  0  0  0  0  0  0  0  0  0  0  0
   37.0370   24.6090   32.4120 C   0  0  0  0  0  0  0  0  0  0  0  0
   36.0020   24.9320   31.5610 C   0  0  0  0  0  0  0  0  0  0  0  0
   35.8460   26.2430   31.7370 N   0  0  0  0  0  0  0  0  0  0  0  0
   36.7620   26.6740   32.6590 C   0  0  0  0  0  0  0  0  0  0  0  0
   36.8050   28.1460   33.0040 C   0  0  1  0  0  0  0  0  0  0  0  0
   35.9720   29.0270   32.1500 C   0  0  0  0  0  0  0  0  0  0  0  0
   35.5410   28.7450   33.5710 C   0  0  2  0  0  0  0  0  0  0  0  0
   35.6280   29.9840   34.4260 C   0  0  0  0  0  0  0  0  0  0  0  0
   35.8260   31.1450   33.7040 F   0  0  0  0  0  0  0  0  0  0  0  0
   36.5680   29.8500   35.4320 F   0  0  0  0  0  0  0  0  0  0  0  0
   34.4220   30.1530   35.0750 F   0  0  0  0  0  0  0  0  0  0  0  0
   38.0310   25.8140   35.4580 C   0  0  1  0  0  0  0  0  0  0  0  0
   38.6680   23.3630   38.2710 C   0  0  0  0  0  0  0  0  0  0  0  0
   38.0610   24.4210   37.5740 C   0  0  0  0  0  0  0  0  0  0  0  0
   38.6120   24.7270   36.2850 C   0  0  0  0  0  0  0  0  0  0  0  0
   39.6810   23.9930   35.8000 N   0  0  0  0  0  0  0  0  0  0  0  0
   40.2140   23.0020   36.5070 C   0  0  0  0  0  0  0  0  0  0  0  0
   39.7020   22.6840   37.7560 N   0  0  0  0  0  0  0  0  0  0  0  0
   38.2860   27.1610   36.1160 C   0  0  0  0  0  0  0  0  0  0  0  0
   39.0402   26.7717   33.8718 H   0  0  0  0  0  0  0  0  0  0  0  0
   39.2211   24.9558   33.9664 H   0  0  0  0  0  0  0  0  0  0  0  0
   37.4259   23.5854   32.5164 H   0  0  0  0  0  0  0  0  0  0  0  0
   35.4376   24.2642   30.8935 H   0  0  0  0  0  0  0  0  0  0  0  0
   37.8585   28.1329   33.3201 H   0  0  0  0  0  0  0  0  0  0  0  0
   36.3357   30.0282   31.8755 H   0  0  0  0  0  0  0  0  0  0  0  0
   35.4985   28.9260   31.1623 H   0  0  0  0  0  0  0  0  0  0  0  0
   34.6900   28.3042   34.1109 H   0  0  0  0  0  0  0  0  0  0  0  0
   36.9480   25.6309   35.3982 H   0  0  0  0  0  0  0  0  0  0  0  0
   38.2850   23.0852   39.2640 H   0  0  0  0  0  0  0  0  0  0  0  0
   37.2125   24.9823   37.9922 H   0  0  0  0  0  0  0  0  0  0  0  0
   41.0630   22.4328   36.1007 H   0  0  0  0  0  0  0  0  0  0  0  0
   38.2640   27.0449   37.2096 H   0  0  0  0  0  0  0  0  0  0  0  0
   39.2717   27.5392   35.8072 H   0  0  0  0  0  0  0  0  0  0  0  0
   37.5068   27.8733   35.8072 H   0  0  0  0  0  0  0  0  0  0  0  0
  1 14  1  0
  2  1  1  0
  3  2  1  0
  4  5  1  0
  4  3  2  0
  5  6  2  0
  6  7  1  0
  6  2  1  0
  7  9  1  0
  8  7  1  0
  8  9  1  0
  9 10  1  0
 10 13  1  0
 10 12  1  0
 11 10  1  0
 14 21  1  0
 14 17  1  0
 16 15  2  0
 17 16  1  0
 18 17  2  0
 18 19  1  0
 19 20  2  0
 20 15  1  0
  1 22  1  0
  1 23  1  0
  3 24  1  0
  4 25  1  0
  7 26  1  1
  8 27  1  0
  8 28  1  0
  9 29  1  6
 14 30  1  6
 15 31  1  0
 16 32  1  0
 19 33  1  0
 21 34  1  0
 21 35  1  0
 21 36  1  0
M  ISO  8  22   8  23   8  24  14  25  14  26  13  27  13  28  13  29  13
M  ISO  7  30   8  31  14  32  14  33  14  34   8  35   8  36   8
M  END
>  <minimizedAffinity>  (1) 
-5.29536486

>  <minimizedRMSD>  (1) 
0.593682468

$$$$
