
     RDKit          3D

 40 42  0  0  1  0  0  0  0  0999 V2000
   37.3810   25.7860   32.9090 N   0  0  0  0  0  0  0  0  0  0  0  0
   36.9000   24.6850   32.3330 C   0  0  0  0  0  0  0  0  0  0  0  0
   35.8600   24.9150   31.4680 C   0  0  0  0  0  0  0  0  0  0  0  0
   35.6880   26.2370   31.5090 N   0  0  0  0  0  0  0  0  0  0  0  0
   36.6020   26.7650   32.3750 C   0  0  0  0  0  0  0  0  0  0  0  0
   36.6440   28.2580   32.5840 C   0  0  1  0  0  0  0  0  0  0  0  0
   35.4630   29.0300   32.1390 C   0  0  0  0  0  0  0  0  0  0  0  0
   35.6720   28.8140   33.6130 C   0  0  2  0  0  0  0  0  0  0  0  0
   36.1570   30.0060   34.2800 N   0  0  0  0  0  0  0  0  0  0  0  0
   35.3030   30.6590   35.2080 C   0  0  0  0  0  0  0  0  0  0  0  0
   34.0190   30.5340   35.1830 N   0  0  0  0  0  0  0  0  0  0  0  0
   35.8690   31.4850   36.2070 N   0  0  0  0  0  0  0  0  0  0  0  0
   33.6520   29.9150   34.4280 H   0  0  0  0  0  0  0  0  0  0  0  0
   38.4030   26.0640   33.8500 C   0  0  0  0  0  0  0  0  0  0  0  0
   37.9300   26.0410   35.2570 C   0  0  1  0  0  0  0  0  0  0  0  0
   38.5340   23.4840   37.9830 C   0  0  0  0  0  0  0  0  0  0  0  0
   37.9250   24.5700   37.3250 C   0  0  0  0  0  0  0  0  0  0  0  0
   38.5010   24.9210   36.0510 C   0  0  0  0  0  0  0  0  0  0  0  0
   39.5770   24.2130   35.5460 N   0  0  0  0  0  0  0  0  0  0  0  0
   40.0920   23.1950   36.2400 C   0  0  0  0  0  0  0  0  0  0  0  0
   39.5710   22.8290   37.4590 N   0  0  0  0  0  0  0  0  0  0  0  0
   38.2310   27.3730   35.9350 C   0  0  0  0  0  0  0  0  0  0  0  0
   37.3012   23.6805   32.5332 H   0  0  0  0  0  0  0  0  0  0  0  0
   35.2971   24.1780   30.8764 H   0  0  0  0  0  0  0  0  0  0  0  0
   37.7273   28.3338   32.4086 H   0  0  0  0  0  0  0  0  0  0  0  0
   35.5965   30.0338   31.7095 H   0  0  0  0  0  0  0  0  0  0  0  0
   34.6342   28.8365   31.4421 H   0  0  0  0  0  0  0  0  0  0  0  0
   35.0899   28.3954   34.4472 H   0  0  0  0  0  0  0  0  0  0  0  0
   37.1001   30.3714   34.0852 H   0  0  0  0  0  0  0  0  0  0  0  0
   35.2597   31.9637   36.8856 H   0  0  0  0  0  0  0  0  0  0  0  0
   36.8905   31.6078   36.2559 H   0  0  0  0  0  0  0  0  0  0  0  0
   39.1962   25.3105   33.7363 H   0  0  0  0  0  0  0  0  0  0  0  0
   38.7651   27.0823   33.6454 H   0  0  0  0  0  0  0  0  0  0  0  0
   36.8430   25.8769   35.2196 H   0  0  0  0  0  0  0  0  0  0  0  0
   38.1420   23.1658   38.9603 H   0  0  0  0  0  0  0  0  0  0  0  0
   37.0694   25.1126   37.7533 H   0  0  0  0  0  0  0  0  0  0  0  0
   40.9480   22.6394   35.8294 H   0  0  0  0  0  0  0  0  0  0  0  0
   38.2017   27.2435   37.0270 H   0  0  0  0  0  0  0  0  0  0  0  0
   39.2303   27.7203   35.6336 H   0  0  0  0  0  0  0  0  0  0  0  0
   37.4782   28.1162   35.6336 H   0  0  0  0  0  0  0  0  0  0  0  0
  1 14  1  0
  2  1  1  0
  3  4  1  0
  3  2  2  0
  4  5  2  0
  5  6  1  0
  5  1  1  0
  6  8  1  0
  7  6  1  0
  7  8  1  0
  8  9  1  0
  9 10  1  0
 10 12  1  0
 11 10  2  0
 13 11  1  0
 14 15  1  0
 15 22  1  0
 15 18  1  0
 17 16  2  0
 18 17  1  0
 19 18  2  0
 19 20  1  0
 20 21  2  0
 21 16  1  0
  2 23  1  0
  3 24  1  0
  6 25  1  1
  7 26  1  0
  7 27  1  0
  8 28  1  1
  9 29  1  0
 12 30  1  0
 12 31  1  0
 14 32  1  0
 14 33  1  0
 15 34  1  6
 16 35  1  0
 17 36  1  0
 20 37  1  0
 22 38  1  0
 22 39  1  0
 22 40  1  0
M  ISO  8  23  14  24  14  25  13  26  13  27  13  28  13  32   8  33   8
M  ISO  7  34   8  35  14  36  14  37  14  38   8  39   8  40   8
M  END
>  <minimizedAffinity>  (1) 
-5.06079531

>  <minimizedRMSD>  (1) 
1.49083793

$$$$
