
     RDKit          3D

 42 44  0  0  1  0  0  0  0  0999 V2000
   39.5560   22.5000   37.0330 C   0  0  0  0  0  0  0  0  0  0  0  0
   39.8810   22.9830   38.2980 C   0  0  0  0  0  0  0  0  0  0  0  0
   39.0370   23.8660   38.9650 C   0  0  0  0  0  0  0  0  0  0  0  0
   37.8530   24.2870   38.3860 C   0  0  0  0  0  0  0  0  0  0  0  0
   37.5140   23.8040   37.1030 C   0  0  0  0  0  0  0  0  0  0  0  0
   38.3710   22.9270   36.4700 C   0  0  0  0  0  0  0  0  0  0  0  0
   36.3970   21.5320   32.9290 C   0  0  0  0  0  0  0  0  0  0  0  0
   37.3120   22.5440   32.8550 C   0  0  0  0  0  0  0  0  0  0  0  0
   37.9780   23.0340   33.9610 C   0  0  0  0  0  0  0  0  0  0  0  0
   37.7550   22.5220   35.2240 C   0  0  0  0  0  0  0  0  0  0  0  0
   36.8100   21.4880   35.2430 C   0  0  0  0  0  0  0  0  0  0  0  0
   36.1290   20.9780   34.1560 C   0  0  0  0  0  0  0  0  0  0  0  0
   35.5920   20.9570   31.5100 S   0  0  0  0  0  0  0  0  0  0  0  0
   34.4340   20.0720   31.9060 O   0  0  0  0  0  0  0  0  0  0  0  0
   36.4900   20.1190   30.6310 O   0  0  0  0  0  0  0  0  0  0  0  0
   40.4030   21.5750   36.3060 C   0  0  0  0  0  0  0  0  0  0  0  0
   41.5360   22.1250   35.5490 C   0  0  2  0  0  0  0  0  0  0  0  0
   42.7700   21.3310   35.8430 C   0  0  0  0  0  0  0  0  0  0  0  0
   42.7010   20.2230   36.7040 C   0  0  0  0  0  0  0  0  0  0  0  0
   43.8540   19.5170   36.9700 C   0  0  0  0  0  0  0  0  0  0  0  0
   45.0160   19.9440   36.3720 N   0  0  0  0  0  0  0  0  0  0  0  0
   45.0630   21.0100   35.5490 C   0  0  0  0  0  0  0  0  0  0  0  0
   43.9330   21.6870   35.2980 N   0  0  0  0  0  0  0  0  0  0  0  0
   41.9050   23.5530   35.9520 C   0  0  0  0  0  0  0  0  0  0  0  0
   40.8179   22.6621   38.7768 H   0  0  0  0  0  0  0  0  0  0  0  0
   39.3144   24.2334   39.9640 H   0  0  0  0  0  0  0  0  0  0  0  0
   37.1879   24.9852   38.9154 H   0  0  0  0  0  0  0  0  0  0  0  0
   36.5807   24.1221   36.6155 H   0  0  0  0  0  0  0  0  0  0  0  0
   37.5275   22.9877   31.8718 H   0  0  0  0  0  0  0  0  0  0  0  0
   38.7031   23.8512   33.8330 H   0  0  0  0  0  0  0  0  0  0  0  0
   36.5886   21.0376   36.2218 H   0  0  0  0  0  0  0  0  0  0  0  0
   35.4012   20.1609   34.2685 H   0  0  0  0  0  0  0  0  0  0  0  0
   35.1883   22.0701   30.8208 H   0  0  0  0  0  0  0  0  0  0  0  0
   40.8133   20.8633   37.0376 H   0  0  0  0  0  0  0  0  0  0  0  0
   39.7433   21.1444   35.5383 H   0  0  0  0  0  0  0  0  0  0  0  0
   41.2178   22.0936   34.4965 H   0  0  0  0  0  0  0  0  0  0  0  0
   41.7442   19.9246   37.1574 H   0  0  0  0  0  0  0  0  0  0  0  0
   43.8451   18.6426   37.6373 H   0  0  0  0  0  0  0  0  0  0  0  0
   46.0135   21.3200   35.0902 H   0  0  0  0  0  0  0  0  0  0  0  0
   41.9251   23.6308   37.0491 H   0  0  0  0  0  0  0  0  0  0  0  0
   42.8973   23.8031   35.5484 H   0  0  0  0  0  0  0  0  0  0  0  0
   41.1581   24.2525   35.5484 H   0  0  0  0  0  0  0  0  0  0  0  0
  1  2  2  0
  2  3  1  0
  4  3  2  0
  5  4  1  0
  6  1  1  0
  6  5  2  0
  7 12  2  0
  8  7  1  0
  8  9  2  0
  9 10  1  0
 10 11  2  0
 10  6  1  0
 12 11  1  0
 13 14  2  0
 13  7  1  0
 15 13  2  0
 16  1  1  0
 17 18  1  0
 17 24  1  0
 17 16  1  0
 18 19  2  0
 19 20  1  0
 21 20  2  0
 22 21  1  0
 23 22  2  0
 23 18  1  0
  2 25  1  0
  3 26  1  0
  4 27  1  0
  5 28  1  0
  8 29  1  0
  9 30  1  0
 11 31  1  0
 12 32  1  0
 13 33  1  0
 16 34  1  0
 16 35  1  0
 17 36  1  6
 19 37  1  0
 20 38  1  0
 22 39  1  0
 24 40  1  0
 24 41  1  0
 24 42  1  0
M  ISO  8  25  14  26  14  27  14  28  14  29  14  30  14  31  14  32  14
M  ISO  8  33  11  34   8  35   8  36   8  37  14  38  14  39  14  40   8
M  ISO  2  41   8  42   8
M  END
>  <minimizedAffinity>  (1) 
-4.90616322

>  <minimizedRMSD>  (1) 
2.20101786

$$$$
