
     RDKit          3D

 29 30  0  0  0  0  0  0  0  0999 V2000
   40.2220   25.2440   34.9940 C   0  0  0  0  0  0  0  0  0  0  0  0
   39.4010   24.3290   35.7150 C   0  0  0  0  0  0  0  0  0  0  0  0
   38.3790   24.9840   36.3800 C   0  0  0  0  0  0  0  0  0  0  0  0
   38.2020   26.3590   36.3250 N   0  0  0  0  0  0  0  0  0  0  0  0
   39.0150   27.1470   35.6250 C   0  0  0  0  0  0  0  0  0  0  0  0
   40.0260   26.5730   34.9630 N   0  0  0  0  0  0  0  0  0  0  0  0
   39.7910   22.9450   35.5040 C   0  0  0  0  0  0  0  0  0  0  0  0
   40.2580   22.1910   36.7560 C   0  0  0  0  0  0  0  0  0  0  0  0
   41.7300   22.5860   36.8870 C   0  0  0  0  0  0  0  0  0  0  0  0
   42.1460   22.1910   35.4750 C   0  0  0  0  0  0  0  0  0  0  0  0
   41.0560   22.8240   34.6580 C   0  0  0  0  0  0  0  0  0  0  0  0
   37.5690   24.0320   37.2100 C   0  0  0  0  0  0  0  0  0  0  0  0
   37.9410   24.3340   38.6570 C   0  0  0  0  0  0  0  0  0  0  0  0
   41.0711   24.8359   34.4261 H   0  0  0  0  0  0  0  0  0  0  0  0
   38.8605   28.2356   35.5919 H   0  0  0  0  0  0  0  0  0  0  0  0
   38.8667   22.5371   35.0689 H   0  0  0  0  0  0  0  0  0  0  0  0
   39.6864   22.5075   37.6409 H   0  0  0  0  0  0  0  0  0  0  0  0
   40.1131   21.1034   36.6783 H   0  0  0  0  0  0  0  0  0  0  0  0
   41.8631   23.6605   37.0813 H   0  0  0  0  0  0  0  0  0  0  0  0
   42.2932   22.1307   37.7149 H   0  0  0  0  0  0  0  0  0  0  0  0
   43.1331   22.6018   35.2164 H   0  0  0  0  0  0  0  0  0  0  0  0
   42.2502   21.1065   35.3233 H   0  0  0  0  0  0  0  0  0  0  0  0
   41.3762   23.8246   34.3319 H   0  0  0  0  0  0  0  0  0  0  0  0
   40.8491   22.1998   33.7762 H   0  0  0  0  0  0  0  0  0  0  0  0
   36.4940   24.1986   37.0468 H   0  0  0  0  0  0  0  0  0  0  0  0
   37.7749   22.9841   36.9462 H   0  0  0  0  0  0  0  0  0  0  0  0
   37.2661   23.7861   39.3311 H   0  0  0  0  0  0  0  0  0  0  0  0
   38.9787   24.0196   38.8421 H   0  0  0  0  0  0  0  0  0  0  0  0
   37.8466   25.4142   38.8421 H   0  0  0  0  0  0  0  0  0  0  0  0
  1  2  2  0
  2  3  1  0
  3 12  1  0
  4  3  2  0
  5  4  1  0
  6  1  1  0
  6  5  2  0
  7  2  1  0
  7  8  1  0
  8  9  1  0
 10  9  1  0
 11 10  1  0
 11  7  1  0
 12 13  1  0
  1 14  1  0
  5 15  1  0
  7 16  1  0
  8 17  1  0
  8 18  1  0
  9 19  1  0
  9 20  1  0
 10 21  1  0
 10 22  1  0
 11 23  1  0
 11 24  1  0
 12 25  1  0
 12 26  1  0
 13 27  1  0
 13 28  1  0
 13 29  1  0
M  ISO  8  14  14  15  14  16  13  17  13  18  13  19  13  20  13  21  13
M  ISO  8  22  13  23  13  24  13  25   8  26   8  27   8  28   8  29   8
M  END
>  <minimizedAffinity>  (1) 
-3.92399049

>  <minimizedRMSD>  (1) 
4.20001125

$$$$
