
     RDKit          3D

 20 20  0  0  0  0  0  0  0  0999 V2000
   40.0010   22.6430   37.5930 C   0  0  0  0  0  0  0  0  0  0  0  0
   38.9860   23.5550   37.2880 C   0  0  0  0  0  0  0  0  0  0  0  0
   39.0490   24.3720   36.2160 C   0  0  0  0  0  0  0  0  0  0  0  0
   40.1570   24.2670   35.4330 N   0  0  0  0  0  0  0  0  0  0  0  0
   41.1320   23.3920   35.7230 C   0  0  0  0  0  0  0  0  0  0  0  0
   41.0880   22.5840   36.7700 N   0  0  0  0  0  0  0  0  0  0  0  0
   37.9510   25.2760   35.9880 C   0  0  0  0  0  0  0  0  0  0  0  0
   38.3250   26.6870   36.0990 C   0  0  0  0  0  0  0  0  0  0  0  0
   37.9970   23.4270   38.2660 C   0  0  0  0  0  0  0  0  0  0  0  0
   37.3280   22.4890   38.7810 O   0  0  0  0  0  0  0  0  0  0  0  0
   39.9252   21.9893   38.4744 H   0  0  0  0  0  0  0  0  0  0  0  0
   42.0083   23.3441   35.0598 H   0  0  0  0  0  0  0  0  0  0  0  0
   37.1659   25.0644   36.7288 H   0  0  0  0  0  0  0  0  0  0  0  0
   37.6055   25.1125   34.9565 H   0  0  0  0  0  0  0  0  0  0  0  0
   38.3985   26.9644   37.1609 H   0  0  0  0  0  0  0  0  0  0  0  0
   39.2969   26.8483   35.6097 H   0  0  0  0  0  0  0  0  0  0  0  0
   37.5606   27.3085   35.6097 H   0  0  0  0  0  0  0  0  0  0  0  0
   38.4774   23.8814   39.1450 H   0  0  0  0  0  0  0  0  0  0  0  0
   37.1841   23.7425   37.5954 H   0  0  0  0  0  0  0  0  0  0  0  0
   37.3742   22.5538   39.7678 H   0  0  0  0  0  0  0  0  0  0  0  0
  2  1  2  0
  2  9  1  0
  3  2  1  0
  4  5  1  0
  4  3  2  0
  5  6  2  0
  6  1  1  0
  7  8  1  0
  7  3  1  0
  9 10  1  0
  1 11  1  0
  5 12  1  0
  7 13  1  0
  7 14  1  0
  8 15  1  0
  8 16  1  0
  8 17  1  0
  9 18  1  0
  9 19  1  0
 10 20  1  0
M  ISO  8  11  14  12  14  13   8  14   8  15   8  16   8  17   8  18   8
M  ISO  2  19   8  20   3
M  END
>  <minimizedAffinity>  (1) 
-3.42755485

>  <minimizedRMSD>  (1) 
1.92797101

$$$$
