
     RDKit          3D

 17 17  0  0  0  0  0  0  0  0999 V2000
   40.6610   22.1820   37.5980 C   0  0  0  0  0  0  0  0  0  0  0  0
   39.4680   22.9590   37.6180 C   0  0  0  0  0  0  0  0  0  0  0  0
   39.1520   23.7690   36.5450 C   0  0  0  0  0  0  0  0  0  0  0  0
   40.0170   23.7870   35.4920 N   0  0  0  0  0  0  0  0  0  0  0  0
   41.1400   23.0530   35.4770 C   0  0  0  0  0  0  0  0  0  0  0  0
   41.4770   22.2520   36.5070 N   0  0  0  0  0  0  0  0  0  0  0  0
   37.8900   24.5270   36.6810 C   0  0  0  0  0  0  0  0  0  0  0  0
   38.1360   25.9570   36.2390 C   0  0  0  0  0  0  0  0  0  0  0  0
   38.8080   22.7250   38.8150 O   0  0  0  0  0  0  0  0  0  0  0  0
   40.9207   21.5353   38.4491 H   0  0  0  0  0  0  0  0  0  0  0  0
   41.8031   23.1064   34.6009 H   0  0  0  0  0  0  0  0  0  0  0  0
   37.1139   24.0716   36.0483 H   0  0  0  0  0  0  0  0  0  0  0  0
   37.5513   24.5095   37.7274 H   0  0  0  0  0  0  0  0  0  0  0  0
   38.2467   26.6005   37.1242 H   0  0  0  0  0  0  0  0  0  0  0  0
   39.0550   26.0015   35.6361 H   0  0  0  0  0  0  0  0  0  0  0  0
   37.2847   26.3060   35.6361 H   0  0  0  0  0  0  0  0  0  0  0  0
   37.9518   23.1838   39.0061 H   0  0  0  0  0  0  0  0  0  0  0  0
  1  2  2  0
  2  9  1  0
  3  7  1  0
  3  2  1  0
  4  3  2  0
  5  4  1  0
  5  6  2  0
  6  1  1  0
  8  7  1  0
  1 10  1  0
  5 11  1  0
  7 12  1  0
  7 13  1  0
  8 14  1  0
  8 15  1  0
  8 16  1  0
  9 17  1  0
M  ISO  8  10  14  11  14  12   8  13   8  14   8  15   8  16   8  17   3
M  END
>  <minimizedAffinity>  (1) 
-3.32958865

>  <minimizedRMSD>  (1) 
1.16218221

$$$$
