
     RDKit          3D

 39 41  0  0  1  0  0  0  0  0999 V2000
   39.9750   23.3780   36.6260 C   0  0  0  0  0  0  0  0  0  0  0  0
   39.6620   22.8380   37.8720 C   0  0  0  0  0  0  0  0  0  0  0  0
   38.5930   23.3250   38.6160 C   0  0  0  0  0  0  0  0  0  0  0  0
   37.8100   24.3610   38.1390 C   0  0  0  0  0  0  0  0  0  0  0  0
   38.1100   24.9210   36.8770 C   0  0  0  0  0  0  0  0  0  0  0  0
   39.1780   24.4070   36.1710 C   0  0  0  0  0  0  0  0  0  0  0  0
   39.2170   25.0870   34.8820 C   0  0  0  0  0  0  0  0  0  0  0  0
   38.6980   24.6250   33.6780 C   0  0  0  0  0  0  0  0  0  0  0  0
   38.8050   25.3770   32.5280 C   0  0  0  0  0  0  0  0  0  0  0  0
   39.4240   26.6130   32.5050 C   0  0  0  0  0  0  0  0  0  0  0  0
   39.9530   27.1180   33.6630 C   0  0  0  0  0  0  0  0  0  0  0  0
   39.8330   26.3450   34.8040 C   0  0  0  0  0  0  0  0  0  0  0  0
   41.0720   22.9030   35.8110 C   0  0  0  0  0  0  0  0  0  0  0  0
   42.4160   23.4510   36.0730 C   0  0  2  0  0  0  0  0  0  0  0  0
   42.7940   24.3800   34.9530 C   0  0  0  0  0  0  0  0  0  0  0  0
   42.5140   24.0280   33.6290 C   0  0  0  0  0  0  0  0  0  0  0  0
   42.8840   24.8840   32.6110 C   0  0  0  0  0  0  0  0  0  0  0  0
   43.5140   26.0440   32.9750 N   0  0  0  0  0  0  0  0  0  0  0  0
   43.7790   26.3750   34.2480 C   0  0  0  0  0  0  0  0  0  0  0  0
   43.4110   25.5290   35.2250 N   0  0  0  0  0  0  0  0  0  0  0  0
   43.5110   22.3860   36.0540 C   0  0  0  0  0  0  0  0  0  0  0  0
   40.2700   22.0137   38.2731 H   0  0  0  0  0  0  0  0  0  0  0  0
   38.3670   22.8807   39.5966 H   0  0  0  0  0  0  0  0  0  0  0  0
   36.9667   24.7429   38.7332 H   0  0  0  0  0  0  0  0  0  0  0  0
   37.5076   25.7455   36.4680 H   0  0  0  0  0  0  0  0  0  0  0  0
   38.1957   23.6470   33.6427 H   0  0  0  0  0  0  0  0  0  0  0  0
   38.3822   24.9790   31.5937 H   0  0  0  0  0  0  0  0  0  0  0  0
   39.4909   27.1843   31.5674 H   0  0  0  0  0  0  0  0  0  0  0  0
   40.4526   28.0977   33.6849 H   0  0  0  0  0  0  0  0  0  0  0  0
   40.2584   26.7530   35.7327 H   0  0  0  0  0  0  0  0  0  0  0  0
   40.8242   23.1307   34.7637 H   0  0  0  0  0  0  0  0  0  0  0  0
   41.1571   21.8349   36.0597 H   0  0  0  0  0  0  0  0  0  0  0  0
   42.3557   23.9280   37.0624 H   0  0  0  0  0  0  0  0  0  0  0  0
   42.0048   23.0799   33.4012 H   0  0  0  0  0  0  0  0  0  0  0  0
   42.6821   24.6453   31.5564 H   0  0  0  0  0  0  0  0  0  0  0  0
   44.2876   27.3206   34.4872 H   0  0  0  0  0  0  0  0  0  0  0  0
   43.7831   22.1214   37.0865 H   0  0  0  0  0  0  0  0  0  0  0  0
   43.1430   21.4910   35.5309 H   0  0  0  0  0  0  0  0  0  0  0  0
   44.3954   22.7787   35.5309 H   0  0  0  0  0  0  0  0  0  0  0  0
  1  2  2  0
  2  3  1  0
  4  3  2  0
  5  4  1  0
  6  1  1  0
  6  5  2  0
  7  6  1  0
  8  7  2  0
  9  8  1  0
 10  9  2  0
 10 11  1  0
 11 12  2  0
 12  7  1  0
 13 14  1  0
 13  1  1  0
 15 20  1  0
 15 14  1  0
 16 15  2  0
 17 18  2  0
 17 16  1  0
 18 19  1  0
 19 20  2  0
 21 14  1  0
  2 22  1  0
  3 23  1  0
  4 24  1  0
  5 25  1  0
  8 26  1  0
  9 27  1  0
 10 28  1  0
 11 29  1  0
 12 30  1  0
 13 31  1  0
 13 32  1  0
 14 33  1  1
 16 34  1  0
 17 35  1  0
 19 36  1  0
 21 37  1  0
 21 38  1  0
 21 39  1  0
M  ISO  8  22  14  23  14  24  14  25  14  26  14  27  14  28  14  29  14
M  ISO  8  30  14  31   8  32   8  33   8  34  14  35  14  36  14  37   8
M  ISO  2  38   8  39   8
M  END
>  <minimizedAffinity>  (1) 
-4.80783892

>  <minimizedRMSD>  (1) 
4.0690732

$$$$
