
     RDKit          3D

 18 18  0  0  0  0  0  0  0  0999 V2000
   40.6770   22.1560   37.5370 C   0  0  0  0  0  0  0  0  0  0  0  0
   39.5050   22.9630   37.6160 C   0  0  0  0  0  0  0  0  0  0  0  0
   39.1200   23.7210   36.5270 C   0  0  0  0  0  0  0  0  0  0  0  0
   39.8900   23.6680   35.3970 N   0  0  0  0  0  0  0  0  0  0  0  0
   40.9900   22.9010   35.3470 C   0  0  0  0  0  0  0  0  0  0  0  0
   41.3990   22.1500   36.3790 N   0  0  0  0  0  0  0  0  0  0  0  0
   37.8860   24.5160   36.7360 C   0  0  0  0  0  0  0  0  0  0  0  0
   38.1950   25.9210   36.2000 C   0  0  0  0  0  0  0  0  0  0  0  0
   38.8980   22.8280   38.8930 N   0  0  0  0  0  0  0  0  0  0  0  0
   40.9948   21.5473   38.3963 H   0  0  0  0  0  0  0  0  0  0  0  0
   41.5812   22.8881   34.4195 H   0  0  0  0  0  0  0  0  0  0  0  0
   37.0460   24.0714   36.1822 H   0  0  0  0  0  0  0  0  0  0  0  0
   37.5977   24.5429   37.7972 H   0  0  0  0  0  0  0  0  0  0  0  0
   38.3466   26.6102   37.0438 H   0  0  0  0  0  0  0  0  0  0  0  0
   39.1071   25.8868   35.5861 H   0  0  0  0  0  0  0  0  0  0  0  0
   37.3527   26.2727   35.5861 H   0  0  0  0  0  0  0  0  0  0  0  0
   38.0369   23.3491   39.1116 H   0  0  0  0  0  0  0  0  0  0  0  0
   39.3190   22.2090   39.6005 H   0  0  0  0  0  0  0  0  0  0  0  0
  1  2  2  0
  2  9  1  0
  3  7  1  0
  3  2  1  0
  4  3  2  0
  5  4  1  0
  5  6  2  0
  6  1  1  0
  8  7  1  0
  1 10  1  0
  5 11  1  0
  7 12  1  0
  7 13  1  0
  8 14  1  0
  8 15  1  0
  8 16  1  0
  9 17  1  0
  9 18  1  0
M  ISO  7  10  14  11  14  12   8  13   8  14   8  15   8  16   8
M  END
>  <minimizedAffinity>  (1) 
-3.35530925

>  <minimizedRMSD>  (1) 
1.07383072

$$$$
