
     RDKit          3D

 45 47  0  0  1  0  0  0  0  0999 V2000
   41.0110   21.7210   37.1040 C   0  0  0  0  0  0  0  0  0  0  0  0
   39.8740   22.5850   37.2770 C   0  0  0  0  0  0  0  0  0  0  0  0
   39.4300   23.1470   38.4750 C   0  0  0  0  0  0  0  0  0  0  0  0
   38.3350   23.9860   38.5390 C   0  0  0  0  0  0  0  0  0  0  0  0
   37.6460   24.2880   37.3760 C   0  0  0  0  0  0  0  0  0  0  0  0
   38.0570   23.7390   36.1370 C   0  0  0  0  0  0  0  0  0  0  0  0
   39.1580   22.9040   36.1380 C   0  0  0  0  0  0  0  0  0  0  0  0
   39.2560   22.3930   34.7370 C   0  0  0  0  0  0  0  0  0  0  0  0
   37.8410   21.9070   34.2890 C   0  0  0  0  0  0  0  0  0  0  0  0
   38.1110   21.2310   32.9380 C   0  0  0  0  0  0  0  0  0  0  0  0
   38.3150   22.3370   31.9460 C   0  0  0  0  0  0  0  0  0  0  0  0
   38.7530   23.6030   32.6020 C   0  0  0  0  0  0  0  0  0  0  0  0
   39.6860   23.4100   33.7530 C   0  0  0  0  0  0  0  0  0  0  0  0
   42.1190   22.1650   36.2380 C   0  0  2  0  0  0  0  0  0  0  0  0
   43.2430   21.1590   36.3520 C   0  0  0  0  0  0  0  0  0  0  0  0
   43.0310   19.9280   36.9890 C   0  0  0  0  0  0  0  0  0  0  0  0
   44.0770   19.0350   37.0940 C   0  0  0  0  0  0  0  0  0  0  0  0
   45.2840   19.4150   36.5590 N   0  0  0  0  0  0  0  0  0  0  0  0
   45.4680   20.6040   35.9480 C   0  0  0  0  0  0  0  0  0  0  0  0
   44.4390   21.4560   35.8570 N   0  0  0  0  0  0  0  0  0  0  0  0
   42.7660   23.4760   36.6790 C   0  0  0  0  0  0  0  0  0  0  0  0
   41.4345   21.5410   38.1031 H   0  0  0  0  0  0  0  0  0  0  0  0
   40.6005   20.8451   36.5803 H   0  0  0  0  0  0  0  0  0  0  0  0
   39.9726   22.9129   39.4028 H   0  0  0  0  0  0  0  0  0  0  0  0
   38.0138   24.4094   39.5021 H   0  0  0  0  0  0  0  0  0  0  0  0
   36.7746   24.9581   37.4150 H   0  0  0  0  0  0  0  0  0  0  0  0
   37.5184   23.9693   35.2059 H   0  0  0  0  0  0  0  0  0  0  0  0
   40.0126   21.5947   34.7534 H   0  0  0  0  0  0  0  0  0  0  0  0
   37.4234   21.1905   35.0116 H   0  0  0  0  0  0  0  0  0  0  0  0
   37.1066   22.7233   34.2227 H   0  0  0  0  0  0  0  0  0  0  0  0
   39.0126   20.6038   32.9996 H   0  0  0  0  0  0  0  0  0  0  0  0
   37.2752   20.5794   32.6434 H   0  0  0  0  0  0  0  0  0  0  0  0
   37.3673   22.5200   31.4184 H   0  0  0  0  0  0  0  0  0  0  0  0
   39.1057   22.0252   31.2477 H   0  0  0  0  0  0  0  0  0  0  0  0
   39.2598   24.2237   31.8484 H   0  0  0  0  0  0  0  0  0  0  0  0
   37.8469   24.0765   33.0079 H   0  0  0  0  0  0  0  0  0  0  0  0
   40.6647   23.1065   33.3529 H   0  0  0  0  0  0  0  0  0  0  0  0
   39.7153   24.3687   34.2916 H   0  0  0  0  0  0  0  0  0  0  0  0
   41.6812   22.2784   35.2353 H   0  0  0  0  0  0  0  0  0  0  0  0
   42.0420   19.6773   37.4002 H   0  0  0  0  0  0  0  0  0  0  0  0
   43.9500   18.0592   37.5856 H   0  0  0  0  0  0  0  0  0  0  0  0
   46.4503   20.8698   35.5302 H   0  0  0  0  0  0  0  0  0  0  0  0
   42.7888   23.5222   37.7778 H   0  0  0  0  0  0  0  0  0  0  0  0
   43.7930   23.5276   36.2884 H   0  0  0  0  0  0  0  0  0  0  0  0
   42.1822   24.3226   36.2884 H   0  0  0  0  0  0  0  0  0  0  0  0
  1  2  1  0
  2  3  2  0
  3  4  1  0
  5  4  2  0
  6  7  2  0
  6  5  1  0
  7  2  1  0
  8  7  1  0
  9  8  1  0
 10  9  1  0
 11 12  1  0
 11 10  1  0
 12 13  1  0
 13  8  1  0
 14 15  1  0
 14 21  1  0
 14  1  1  0
 15 16  2  0
 16 17  1  0
 18 17  2  0
 19 18  1  0
 20 19  2  0
 20 15  1  0
  1 22  1  0
  1 23  1  0
  3 24  1  0
  4 25  1  0
  5 26  1  0
  6 27  1  0
  8 28  1  0
  9 29  1  0
  9 30  1  0
 10 31  1  0
 10 32  1  0
 11 33  1  0
 11 34  1  0
 12 35  1  0
 12 36  1  0
 13 37  1  0
 13 38  1  0
 14 39  1  6
 16 40  1  0
 17 41  1  0
 19 42  1  0
 21 43  1  0
 21 44  1  0
 21 45  1  0
M  ISO  8  22   8  23   8  24  14  25  14  26  14  27  14  28  13  29  13
M  ISO  8  30  13  31  13  32  13  33  13  34  13  35  13  36  13  37  13
M  ISO  8  38  13  39   8  40  14  41  14  42  14  43   8  44   8  45   8
M  END
>  <minimizedAffinity>  (1) 
-4.77607679

>  <minimizedRMSD>  (1) 
0.639120579

$$$$
