
     RDKit          3D

 22 23  0  0  0  0  0  0  0  0999 V2000
   40.4960   24.8250   35.1200 C   0  0  0  0  0  0  0  0  0  0  0  0
   40.5160   23.5940   35.8350 C   0  0  0  0  0  0  0  0  0  0  0  0
   41.7790   23.2450   36.2050 C   0  0  0  0  0  0  0  0  0  0  0  0
   42.8930   24.0120   35.9070 N   0  0  0  0  0  0  0  0  0  0  0  0
   42.7790   25.1600   35.2270 C   0  0  0  0  0  0  0  0  0  0  0  0
   41.5810   25.5650   34.8340 N   0  0  0  0  0  0  0  0  0  0  0  0
   39.2480   23.0590   35.9860 N   0  0  0  0  0  0  0  0  0  0  0  0
   38.5150   23.7040   36.9560 C   0  0  0  0  0  0  0  0  0  0  0  0
   37.2750   23.1340   37.0530 N   0  0  0  0  0  0  0  0  0  0  0  0
   37.2730   22.1320   36.1240 C   0  0  0  0  0  0  0  0  0  0  0  0
   38.4730   22.0990   35.4860 N   0  0  0  0  0  0  0  0  0  0  0  0
   41.8200   21.9990   36.9690 C   0  0  0  0  0  0  0  0  0  0  0  0
   42.9650   21.1540   36.5490 C   0  0  0  0  0  0  0  0  0  0  0  0
   39.5201   25.1982   34.7761 H   0  0  0  0  0  0  0  0  0  0  0  0
   43.6715   25.7605   34.9972 H   0  0  0  0  0  0  0  0  0  0  0  0
   38.8721   24.5499   37.5617 H   0  0  0  0  0  0  0  0  0  0  0  0
   36.4293   21.4554   35.9231 H   0  0  0  0  0  0  0  0  0  0  0  0
   41.9214   22.2361   38.0383 H   0  0  0  0  0  0  0  0  0  0  0  0
   40.8887   21.4438   36.7834 H   0  0  0  0  0  0  0  0  0  0  0  0
   43.4842   20.7709   37.4399 H   0  0  0  0  0  0  0  0  0  0  0  0
   42.5965   20.3097   35.9479 H   0  0  0  0  0  0  0  0  0  0  0  0
   43.6632   21.7550   35.9479 H   0  0  0  0  0  0  0  0  0  0  0  0
  1  2  2  0
  2  7  1  0
  2  3  1  0
  3 12  1  0
  4  3  2  0
  5  4  1  0
  6  1  1  0
  6  5  2  0
  7  8  1  0
  8  9  2  0
 10  9  1  0
 11  7  1  0
 11 10  2  0
 13 12  1  0
  1 14  1  0
  5 15  1  0
  8 16  1  0
 10 17  1  0
 12 18  1  0
 12 19  1  0
 13 20  1  0
 13 21  1  0
 13 22  1  0
M  ISO  8  14  14  15  14  16  14  17  14  18   8  19   8  20   8  21   8
M  ISO  1  22   8
M  END
>  <minimizedAffinity>  (1) 
-3.14861083

>  <minimizedRMSD>  (1) 
4.20941305

$$$$
