
     RDKit          3D

 19 19  0  0  0  0  0  0  0  0999 V2000
   40.2470   24.2820   34.9400 C   0  0  0  0  0  0  0  0  0  0  0  0
   39.8110   23.6650   36.1530 C   0  0  0  0  0  0  0  0  0  0  0  0
   38.5590   24.1320   36.3860 C   0  0  0  0  0  0  0  0  0  0  0  0
   37.8530   25.0300   35.6020 N   0  0  0  0  0  0  0  0  0  0  0  0
   38.3770   25.5350   34.4860 C   0  0  0  0  0  0  0  0  0  0  0  0
   39.5930   25.1510   34.1560 N   0  0  0  0  0  0  0  0  0  0  0  0
   40.7240   22.7880   36.7830 C   0  0  0  0  0  0  0  0  0  0  0  0
   40.6540   22.9180   38.2090 F   0  0  0  0  0  0  0  0  0  0  0  0
   42.0430   23.0250   36.7830 F   0  0  0  0  0  0  0  0  0  0  0  0
   40.3420   21.4290   36.8660 F   0  0  0  0  0  0  0  0  0  0  0  0
   37.9910   23.5260   37.5490 C   0  0  0  0  0  0  0  0  0  0  0  0
   37.8640   24.3890   38.6940 C   0  0  0  0  0  0  0  0  0  0  0  0
   41.2573   24.0063   34.6035 H   0  0  0  0  0  0  0  0  0  0  0  0
   37.8149   26.2464   33.8632 H   0  0  0  0  0  0  0  0  0  0  0  0
   36.9872   23.1610   37.2859 H   0  0  0  0  0  0  0  0  0  0  0  0
   38.6871   22.7278   37.8461 H   0  0  0  0  0  0  0  0  0  0  0  0
   37.9518   23.7927   39.6141 H   0  0  0  0  0  0  0  0  0  0  0  0
   38.6602   25.1477   38.6714 H   0  0  0  0  0  0  0  0  0  0  0  0
   36.8830   24.8862   38.6714 H   0  0  0  0  0  0  0  0  0  0  0  0
  1  2  2  0
  2  3  1  0
  2  7  1  0
  3 11  1  0
  4  3  2  0
  5  4  1  0
  6  5  2  0
  6  1  1  0
  7  9  1  0
  7 10  1  0
  7  8  1  0
 11 12  1  0
  1 13  1  0
  5 14  1  0
 11 15  1  0
 11 16  1  0
 12 17  1  0
 12 18  1  0
 12 19  1  0
M  ISO  7  13  14  14  14  15   8  16   8  17   8  18   8  19   8
M  END
>  <minimizedAffinity>  (1) 
-3.57615709

>  <minimizedRMSD>  (1) 
2.8249476

$$$$
