
     RDKit          3D

 31 32  0  0  0  0  0  0  0  0999 V2000
   41.2450   24.1690   35.2700 C   0  0  0  0  0  0  0  0  0  0  0  0
   40.0540   24.9520   35.3830 C   0  0  0  0  0  0  0  0  0  0  0  0
   40.3090   26.1830   34.8910 C   0  0  0  0  0  0  0  0  0  0  0  0
   41.5080   26.6040   34.3730 N   0  0  0  0  0  0  0  0  0  0  0  0
   42.5690   25.7910   34.3100 C   0  0  0  0  0  0  0  0  0  0  0  0
   42.4270   24.5600   34.7660 N   0  0  0  0  0  0  0  0  0  0  0  0
   38.9380   24.2900   35.9540 C   0  0  0  0  0  0  0  0  0  0  0  0
   38.2990   25.1220   36.9410 F   0  0  0  0  0  0  0  0  0  0  0  0
   39.0690   23.2930   36.8300 F   0  0  0  0  0  0  0  0  0  0  0  0
   37.7480   24.2640   35.1770 F   0  0  0  0  0  0  0  0  0  0  0  0
   39.1740   27.0320   34.9340 C   0  0  0  0  0  0  0  0  0  0  0  0
   38.4530   27.2230   33.7190 C   0  0  0  0  0  0  0  0  0  0  0  0
   37.0240   27.0780   33.7370 N   0  0  0  0  0  0  0  0  0  0  0  0
   36.6700   26.3330   32.5390 C   0  0  0  0  0  0  0  0  0  0  0  0
   36.2490   27.3600   31.5140 C   0  0  0  0  0  0  0  0  0  0  0  0
   36.5270   28.6810   32.1990 C   0  0  0  0  0  0  0  0  0  0  0  0
   36.2730   28.2800   33.6350 C   0  0  0  0  0  0  0  0  0  0  0  0
   41.1869   23.1332   35.6358 H   0  0  0  0  0  0  0  0  0  0  0  0
   43.5264   26.1363   33.8927 H   0  0  0  0  0  0  0  0  0  0  0  0
   38.4741   26.6106   35.6706 H   0  0  0  0  0  0  0  0  0  0  0  0
   39.5744   28.0257   35.1835 H   0  0  0  0  0  0  0  0  0  0  0  0
   38.8436   26.4953   32.9925 H   0  0  0  0  0  0  0  0  0  0  0  0
   38.6117   28.2843   33.4772 H   0  0  0  0  0  0  0  0  0  0  0  0
   37.5372   25.7631   32.1740 H   0  0  0  0  0  0  0  0  0  0  0  0
   35.8639   25.6117   32.7387 H   0  0  0  0  0  0  0  0  0  0  0  0
   35.1804   27.2596   31.2734 H   0  0  0  0  0  0  0  0  0  0  0  0
   36.7826   27.2535   30.5580 H   0  0  0  0  0  0  0  0  0  0  0  0
   37.5642   29.0129   32.0436 H   0  0  0  0  0  0  0  0  0  0  0  0
   35.9270   29.5294   31.8381 H   0  0  0  0  0  0  0  0  0  0  0  0
   36.6419   29.0437   34.3356 H   0  0  0  0  0  0  0  0  0  0  0  0
   35.2079   28.1629   33.8836 H   0  0  0  0  0  0  0  0  0  0  0  0
  1  2  2  0
  2  7  1  0
  3 11  1  0
  3  2  1  0
  4  3  2  0
  5  4  1  0
  5  6  2  0
  6  1  1  0
  7  9  1  0
  7  8  1  0
 10  7  1  0
 12 13  1  0
 12 11  1  0
 14 13  1  0
 15 16  1  0
 15 14  1  0
 16 17  1  0
 17 13  1  0
  1 18  1  0
  5 19  1  0
 11 20  1  0
 11 21  1  0
 12 22  1  0
 12 23  1  0
 14 24  1  0
 14 25  1  0
 15 26  1  0
 15 27  1  0
 16 28  1  0
 16 29  1  0
 17 30  1  0
 17 31  1  0
M  ISO  8  18  14  19  14  20   8  21   8  22   8  23   8  24  13  25  13
M  ISO  6  26  13  27  13  28  13  29  13  30  13  31  13
M  END
>  <minimizedAffinity>  (1) 
-3.75760818

>  <minimizedRMSD>  (1) 
4.10074759

$$$$
