
     RDKit          3D

 21 21  0  0  0  0  0  0  0  0999 V2000
   40.0940   25.3990   34.9190 C   0  0  0  0  0  0  0  0  0  0  0  0
   39.3840   24.4030   35.6420 C   0  0  0  0  0  0  0  0  0  0  0  0
   38.4110   25.0090   36.3700 C   0  0  0  0  0  0  0  0  0  0  0  0
   38.1770   26.3740   36.3830 N   0  0  0  0  0  0  0  0  0  0  0  0
   38.8990   27.2180   35.6720 C   0  0  0  0  0  0  0  0  0  0  0  0
   39.8660   26.7300   34.9320 N   0  0  0  0  0  0  0  0  0  0  0  0
   39.8170   23.0660   35.4650 C   0  0  0  0  0  0  0  0  0  0  0  0
   40.6130   22.6240   36.5860 F   0  0  0  0  0  0  0  0  0  0  0  0
   40.8180   22.7590   34.6150 F   0  0  0  0  0  0  0  0  0  0  0  0
   38.8980   22.0360   35.7060 F   0  0  0  0  0  0  0  0  0  0  0  0
   37.6270   24.1000   37.1300 C   0  0  0  0  0  0  0  0  0  0  0  0
   38.0000   23.9950   38.5300 C   0  0  0  0  0  0  0  0  0  0  0  0
   38.4720   22.6730   38.9250 N   0  0  0  0  0  0  0  0  0  0  0  0
   40.9179   25.0483   34.2801 H   0  0  0  0  0  0  0  0  0  0  0  0
   38.6964   28.2989   35.6987 H   0  0  0  0  0  0  0  0  0  0  0  0
   36.5782   24.4276   37.0792 H   0  0  0  0  0  0  0  0  0  0  0  0
   37.7935   23.1056   36.6903 H   0  0  0  0  0  0  0  0  0  0  0  0
   38.8019   24.7213   38.7288 H   0  0  0  0  0  0  0  0  0  0  0  0
   37.0902   24.1939   39.1154 H   0  0  0  0  0  0  0  0  0  0  0  0
   38.4947   22.6095   39.9528 H   0  0  0  0  0  0  0  0  0  0  0  0
   37.8353   21.9551   38.5506 H   0  0  0  0  0  0  0  0  0  0  0  0
  1  6  2  0
  1  2  1  0
  2  3  2  0
  3  4  1  0
  3 11  1  0
  5  4  2  0
  6  5  1  0
  7  2  1  0
  7 10  1  0
  7  8  1  0
  9  7  1  0
 11 12  1  0
 12 13  1  0
  1 14  1  0
  5 15  1  0
 11 16  1  0
 11 17  1  0
 12 18  1  0
 12 19  1  0
 13 20  1  0
 13 21  1  0
M  ISO  8  14  14  15  14  16   8  17   8  18   8  19   8  20   5  21   5
M  END
>  <minimizedAffinity>  (1) 
-3.95829487

>  <minimizedRMSD>  (1) 
1.59466994

$$$$
