
     RDKit          3D

 29 29  0  0  0  0  0  0  0  0999 V2000
   38.3380   23.4550   37.6530 C   0  0  0  0  0  0  0  0  0  0  0  0
   41.5910   21.6720   37.0040 C   0  0  0  0  0  0  0  0  0  0  0  0
   40.5470   22.2610   37.7240 C   0  0  0  0  0  0  0  0  0  0  0  0
   39.4710   22.8210   36.9940 C   0  0  0  0  0  0  0  0  0  0  0  0
   39.5220   22.7530   35.6440 N   0  0  0  0  0  0  0  0  0  0  0  0
   40.5390   22.1810   34.9880 C   0  0  0  0  0  0  0  0  0  0  0  0
   41.5710   21.6410   35.6470 N   0  0  0  0  0  0  0  0  0  0  0  0
   38.7810   23.8280   39.0590 C   0  0  0  0  0  0  0  0  0  0  0  0
   37.7820   24.6470   36.9150 C   0  0  0  0  0  0  0  0  0  0  0  0
   37.1890   22.4540   37.7640 C   0  0  0  0  0  0  0  0  0  0  0  0
   36.6100   22.1420   36.4990 N   0  0  0  0  0  0  0  0  0  0  0  0
   35.6850   21.0350   36.4900 C   0  0  0  0  0  0  0  0  0  0  0  0
   35.0850   20.7120   37.6030 N   0  0  0  0  0  0  0  0  0  0  0  0
   35.4290   20.3020   35.2800 N   0  0  0  0  0  0  0  0  0  0  0  0
   34.4250   19.9190   37.5860 H   0  0  0  0  0  0  0  0  0  0  0  0
   42.4399   21.2278   37.5445 H   0  0  0  0  0  0  0  0  0  0  0  0
   40.5613   22.2884   38.8236 H   0  0  0  0  0  0  0  0  0  0  0  0
   40.5262   22.1544   33.8884 H   0  0  0  0  0  0  0  0  0  0  0  0
   38.1543   23.3003   39.7930 H   0  0  0  0  0  0  0  0  0  0  0  0
   39.8331   23.5397   39.2005 H   0  0  0  0  0  0  0  0  0  0  0  0
   38.6761   24.9138   39.2005 H   0  0  0  0  0  0  0  0  0  0  0  0
   37.4323   25.3967   37.6400 H   0  0  0  0  0  0  0  0  0  0  0  0
   38.5680   25.0865   36.2834 H   0  0  0  0  0  0  0  0  0  0  0  0
   36.9401   24.3272   36.2834 H   0  0  0  0  0  0  0  0  0  0  0  0
   37.5720   21.5265   38.2146 H   0  0  0  0  0  0  0  0  0  0  0  0
   36.4057   22.9132   38.3850 H   0  0  0  0  0  0  0  0  0  0  0  0
   36.8376   22.6729   35.6462 H   0  0  0  0  0  0  0  0  0  0  0  0
   34.7664   19.5134   35.2860 H   0  0  0  0  0  0  0  0  0  0  0  0
   35.9082   20.5654   34.4071 H   0  0  0  0  0  0  0  0  0  0  0  0
  1 10  1  0
  1  8  1  0
  2  3  2  0
  4  1  1  0
  4  3  1  0
  5  4  2  0
  6  5  1  0
  6  7  2  0
  7  2  1  0
  9  1  1  0
 11 10  1  0
 12 11  1  0
 12 13  2  0
 14 12  1  0
 15 13  1  0
  2 16  1  0
  3 17  1  0
  6 18  1  0
  8 19  1  0
  8 20  1  0
  8 21  1  0
  9 22  1  0
  9 23  1  0
  9 24  1  0
 10 25  1  0
 10 26  1  0
 11 27  1  0
 14 28  1  0
 14 29  1  0
M  ISO  8  16  14  17  14  18  14  19   8  20   8  21   8  22   8  23   8
M  ISO  3  24   8  25   8  26   8
M  END
>  <minimizedAffinity>  (1) 
-4.49477196

>  <minimizedRMSD>  (1) 
0.886324346

$$$$
