
     RDKit          3D

 42 44  0  0  1  0  0  0  0  0999 V2000
   38.4730   23.3380   34.7200 C   0  0  0  0  0  0  0  0  0  0  0  0
   39.6580   24.0510   35.3890 C   0  0  2  0  0  0  0  0  0  0  0  0
   39.5770   25.5270   35.3830 C   0  0  0  0  0  0  0  0  0  0  0  0
   40.6810   24.7550   34.6700 C   0  0  1  0  0  0  0  0  0  0  0  0
   42.0310   24.6520   35.4230 C   0  0  0  0  0  0  0  0  0  0  0  0
   43.1230   25.3980   34.7370 C   0  0  0  0  0  0  0  0  0  0  0  0
   44.3000   25.5020   35.6540 C   0  0  0  0  0  0  0  0  0  0  0  0
   44.1960   24.6790   36.9070 C   0  0  0  0  0  0  0  0  0  0  0  0
   43.7140   23.3170   36.5240 C   0  0  0  0  0  0  0  0  0  0  0  0
   42.4020   23.2780   35.8320 C   0  0  0  0  0  0  0  0  0  0  0  0
   38.6810   23.3660   33.2850 C   0  0  0  0  0  0  0  0  0  0  0  0
   35.6940   23.8060   31.3690 C   0  0  0  0  0  0  0  0  0  0  0  0
   36.8170   24.1900   32.1440 C   0  0  0  0  0  0  0  0  0  0  0  0
   37.5110   23.1180   32.5330 C   0  0  0  0  0  0  0  0  0  0  0  0
   37.1440   21.8180   32.1970 N   0  0  0  0  0  0  0  0  0  0  0  0
   36.0800   21.5330   31.4670 C   0  0  0  0  0  0  0  0  0  0  0  0
   35.3490   22.5380   31.0500 N   0  0  0  0  0  0  0  0  0  0  0  0
   36.9650   25.5860   32.3250 C   0  0  0  0  0  0  0  0  0  0  0  0
   36.7980   25.9740   33.6780 F   0  0  0  0  0  0  0  0  0  0  0  0
   36.0200   26.4630   31.9470 F   0  0  0  0  0  0  0  0  0  0  0  0
   38.2540   26.1260   32.3020 F   0  0  0  0  0  0  0  0  0  0  0  0
   38.4200   22.2961   35.0686 H   0  0  0  0  0  0  0  0  0  0  0  0
   37.5302   23.8426   34.9779 H   0  0  0  0  0  0  0  0  0  0  0  0
   39.7472   23.2432   36.1303 H   0  0  0  0  0  0  0  0  0  0  0  0
   38.7934   26.0404   34.8065 H   0  0  0  0  0  0  0  0  0  0  0  0
   39.5258   26.3231   36.1404 H   0  0  0  0  0  0  0  0  0  0  0  0
   41.0795   24.7906   33.6453 H   0  0  0  0  0  0  0  0  0  0  0  0
   41.8707   25.1676   36.3813 H   0  0  0  0  0  0  0  0  0  0  0  0
   43.4159   24.8623   33.8220 H   0  0  0  0  0  0  0  0  0  0  0  0
   42.7715   26.4060   34.4716 H   0  0  0  0  0  0  0  0  0  0  0  0
   45.1937   25.1746   35.1025 H   0  0  0  0  0  0  0  0  0  0  0  0
   44.3502   26.5525   35.9763 H   0  0  0  0  0  0  0  0  0  0  0  0
   45.1824   24.6047   37.3882 H   0  0  0  0  0  0  0  0  0  0  0  0
   43.4972   25.1472   37.6158 H   0  0  0  0  0  0  0  0  0  0  0  0
   44.4635   22.8670   35.8563 H   0  0  0  0  0  0  0  0  0  0  0  0
   43.5760   22.7678   37.4670 H   0  0  0  0  0  0  0  0  0  0  0  0
   41.6374   22.8771   36.5137 H   0  0  0  0  0  0  0  0  0  0  0  0
   42.4693   22.6317   34.9444 H   0  0  0  0  0  0  0  0  0  0  0  0
   39.0657   24.3591   33.0099 H   0  0  0  0  0  0  0  0  0  0  0  0
   39.3900   22.5588   33.0489 H   0  0  0  0  0  0  0  0  0  0  0  0
   35.0454   24.6112   30.9936 H   0  0  0  0  0  0  0  0  0  0  0  0
   35.8182   20.4938   31.2191 H   0  0  0  0  0  0  0  0  0  0  0  0
  1  2  1  0
  3  2  1  0
  4  3  1  0
  4  2  1  0
  4  5  1  0
  5 10  1  0
  6  5  1  0
  6  7  1  0
  7  8  1  0
  9  8  1  0
 10  9  1  0
 11  1  1  0
 12 13  2  0
 13 18  1  0
 13 14  1  0
 14 11  1  0
 15 14  2  0
 16 15  1  0
 17 12  1  0
 17 16  2  0
 18 19  1  0
 20 18  1  0
 21 18  1  0
  1 22  1  0
  1 23  1  0
  2 24  1  1
  3 25  1  0
  3 26  1  0
  4 27  1  6
  5 28  1  0
  6 29  1  0
  6 30  1  0
  7 31  1  0
  7 32  1  0
  8 33  1  0
  8 34  1  0
  9 35  1  0
  9 36  1  0
 10 37  1  0
 10 38  1  0
 11 39  1  0
 11 40  1  0
 12 41  1  0
 16 42  1  0
M  ISO  8  22   8  23   8  24  13  25  13  26  13  27  13  28  13  29  13
M  ISO  8  30  13  31  13  32  13  33  13  34  13  35  13  36  13  37  13
M  ISO  5  38  13  39   8  40   8  41  14  42  14
M  END
>  <minimizedAffinity>  (1) 
-4.23051119

>  <minimizedRMSD>  (1) 
7.39948988

$$$$
