
     RDKit          3D

 40 43  0  0  1  0  0  0  0  0999 V2000
   42.2020   24.7300   35.3520 C   0  0  2  0  0  0  0  0  0  0  0  0
   40.9010   25.3970   35.0990 C   0  0  0  0  0  0  0  0  0  0  0  0
   41.7960   24.8710   33.9920 C   0  0  1  0  0  0  0  0  0  0  0  0
   42.5910   25.9740   33.2850 C   0  0  0  0  0  0  0  0  0  0  0  0
   43.8350   26.1710   33.8000 N   0  0  0  0  0  0  0  0  0  0  0  0
   44.5840   27.1740   33.2550 C   0  0  0  0  0  0  0  0  0  0  0  0
   44.1290   27.9570   32.2360 N   0  0  0  0  0  0  0  0  0  0  0  0
   42.9020   27.7130   31.7740 C   0  0  0  0  0  0  0  0  0  0  0  0
   42.4090   28.4830   30.7260 C   0  0  0  0  0  0  0  0  0  0  0  0
   41.1260   28.2130   30.2360 C   0  0  0  0  0  0  0  0  0  0  0  0
   40.3040   27.2010   30.7470 C   0  0  0  0  0  0  0  0  0  0  0  0
   40.8130   26.4500   31.7860 C   0  0  0  0  0  0  0  0  0  0  0  0
   42.0730   26.7110   32.2720 C   0  0  0  0  0  0  0  0  0  0  0  0
   42.0900   23.4220   36.1450 C   0  0  0  0  0  0  0  0  0  0  0  0
   40.9620   22.6710   35.6280 C   0  0  0  0  0  0  0  0  0  0  0  0
   37.5250   22.7770   36.6090 C   0  0  0  0  0  0  0  0  0  0  0  0
   38.6270   22.6250   35.7310 C   0  0  0  0  0  0  0  0  0  0  0  0
   39.7770   22.8250   36.3830 C   0  0  0  0  0  0  0  0  0  0  0  0
   39.8340   23.1360   37.7370 N   0  0  0  0  0  0  0  0  0  0  0  0
   38.7520   23.2610   38.4930 C   0  0  0  0  0  0  0  0  0  0  0  0
   37.5870   23.0790   37.9190 N   0  0  0  0  0  0  0  0  0  0  0  0
   38.2910   22.2920   34.3980 C   0  0  0  0  0  0  0  0  0  0  0  0
   38.5860   23.3360   33.4880 F   0  0  0  0  0  0  0  0  0  0  0  0
   37.0180   22.2600   33.9680 F   0  0  0  0  0  0  0  0  0  0  0  0
   39.1280   21.4160   33.7000 F   0  0  0  0  0  0  0  0  0  0  0  0
   43.1658   24.9677   35.8259 H   0  0  0  0  0  0  0  0  0  0  0  0
   39.9560   24.8893   35.3424 H   0  0  0  0  0  0  0  0  0  0  0  0
   40.4360   26.3598   35.3575 H   0  0  0  0  0  0  0  0  0  0  0  0
   41.6466   24.1944   33.1377 H   0  0  0  0  0  0  0  0  0  0  0  0
   45.5929   27.3573   33.6532 H   0  0  0  0  0  0  0  0  0  0  0  0
   43.0165   29.2898   30.2900 H   0  0  0  0  0  0  0  0  0  0  0  0
   40.7439   28.8271   29.4072 H   0  0  0  0  0  0  0  0  0  0  0  0
   39.2997   27.0138   30.3391 H   0  0  0  0  0  0  0  0  0  0  0  0
   40.2107   25.6417   32.2263 H   0  0  0  0  0  0  0  0  0  0  0  0
   43.0130   22.8353   36.0269 H   0  0  0  0  0  0  0  0  0  0  0  0
   41.9436   23.6381   37.2136 H   0  0  0  0  0  0  0  0  0  0  0  0
   40.7638   23.0077   34.5997 H   0  0  0  0  0  0  0  0  0  0  0  0
   41.2367   21.6070   35.6784 H   0  0  0  0  0  0  0  0  0  0  0  0
   36.5228   22.6345   36.1785 H   0  0  0  0  0  0  0  0  0  0  0  0
   38.8287   23.5082   39.5621 H   0  0  0  0  0  0  0  0  0  0  0  0
  1 14  1  0
  2  1  1  0
  3  2  1  0
  3  1  1  0
  4  5  2  0
  4  3  1  0
  6  5  1  0
  7  6  2  0
  8  7  1  0
  8 13  2  0
  9  8  1  0
 10  9  2  0
 10 11  1  0
 11 12  2  0
 12 13  1  0
 13  4  1  0
 15 14  1  0
 15 18  1  0
 16 21  2  0
 17 18  2  0
 17 16  1  0
 18 19  1  0
 19 20  2  0
 21 20  1  0
 22 17  1  0
 23 22  1  0
 24 22  1  0
 25 22  1  0
  1 26  1  6
  2 27  1  0
  2 28  1  0
  3 29  1  6
  6 30  1  0
  9 31  1  0
 10 32  1  0
 11 33  1  0
 12 34  1  0
 14 35  1  0
 14 36  1  0
 15 37  1  0
 15 38  1  0
 16 39  1  0
 20 40  1  0
M  ISO  8  26  13  27  13  28  13  29  13  30  14  31  14  32  14  33  14
M  ISO  7  34  14  35   8  36   8  37   8  38   8  39  14  40  14
M  END
>  <minimizedAffinity>  (1) 
-4.09593153

>  <minimizedRMSD>  (1) 
8.10037041

$$$$
