
     RDKit          3D

 29 30  0  0  1  0  0  0  0  0999 V2000
   40.0840   23.8910   35.1870 C   0  0  0  0  0  0  0  0  0  0  0  0
   43.3910   23.5100   36.5010 C   0  0  0  0  0  0  0  0  0  0  0  0
   42.0230   23.2000   36.2920 C   0  0  0  0  0  0  0  0  0  0  0  0
   41.4440   24.1100   35.5060 C   0  0  0  0  0  0  0  0  0  0  0  0
   42.1260   25.2020   34.9820 N   0  0  0  0  0  0  0  0  0  0  0  0
   43.4120   25.4290   35.2200 C   0  0  0  0  0  0  0  0  0  0  0  0
   44.0470   24.5710   35.9890 N   0  0  0  0  0  0  0  0  0  0  0  0
   41.5770   22.0200   36.9350 C   0  0  0  0  0  0  0  0  0  0  0  0
   40.7980   22.3000   38.0880 F   0  0  0  0  0  0  0  0  0  0  0  0
   42.3970   21.2520   37.6760 F   0  0  0  0  0  0  0  0  0  0  0  0
   40.5250   21.3090   36.3620 F   0  0  0  0  0  0  0  0  0  0  0  0
   39.1950   24.9440   35.6250 C   0  0  0  0  0  0  0  0  0  0  0  0
   37.9720   24.2980   36.2900 C   0  0  2  0  0  0  0  0  0  0  0  0
   37.9840   24.3120   37.7760 C   0  0  0  0  0  0  0  0  0  0  0  0
   37.9980   23.0380   36.9700 C   0  0  1  0  0  0  0  0  0  0  0  0
   36.6140   22.3450   36.8410 C   0  0  0  0  0  0  0  0  0  0  0  0
   39.9967   23.7981   34.0944 H   0  0  0  0  0  0  0  0  0  0  0  0
   39.7780   22.9778   35.7184 H   0  0  0  0  0  0  0  0  0  0  0  0
   43.9685   22.8236   37.1377 H   0  0  0  0  0  0  0  0  0  0  0  0
   43.9270   26.3011   34.7907 H   0  0  0  0  0  0  0  0  0  0  0  0
   39.7130   25.5910   36.3482 H   0  0  0  0  0  0  0  0  0  0  0  0
   38.8803   25.5553   34.7664 H   0  0  0  0  0  0  0  0  0  0  0  0
   37.3260   24.6508   35.4726 H   0  0  0  0  0  0  0  0  0  0  0  0
   38.8816   24.6355   38.3235 H   0  0  0  0  0  0  0  0  0  0  0  0
   37.3572   24.7418   38.5713 H   0  0  0  0  0  0  0  0  0  0  0  0
   38.6397   22.1447   36.9863 H   0  0  0  0  0  0  0  0  0  0  0  0
   36.2103   22.1428   37.8441 H   0  0  0  0  0  0  0  0  0  0  0  0
   35.9237   23.0038   36.2938 H   0  0  0  0  0  0  0  0  0  0  0  0
   36.7279   21.3976   36.2938 H   0  0  0  0  0  0  0  0  0  0  0  0
  1  4  1  0
  1 12  1  0
  3  2  2  0
  3  8  1  0
  4  3  1  0
  5  6  1  0
  5  4  2  0
  6  7  2  0
  7  2  1  0
  8 10  1  0
  8  9  1  0
 11  8  1  0
 12 13  1  0
 13 15  1  0
 13 14  1  0
 15 14  1  0
 16 15  1  0
  1 17  1  0
  1 18  1  0
  2 19  1  0
  6 20  1  0
 12 21  1  0
 12 22  1  0
 13 23  1  6
 14 24  1  0
 14 25  1  0
 15 26  1  6
 16 27  1  0
 16 28  1  0
 16 29  1  0
M  ISO  8  17   8  18   8  19  14  20  14  21   8  22   8  23  13  24  13
M  ISO  5  25  13  26  13  27   8  28   8  29   8
M  END
>  <minimizedAffinity>  (1) 
-3.65713787

>  <minimizedRMSD>  (1) 
0.413953781

$$$$
