
     RDKit          3D

 28 29  0  0  1  0  0  0  0  0999 V2000
   39.8340   23.8380   35.3020 C   0  0  0  0  0  0  0  0  0  0  0  0
   43.2530   23.5790   36.3420 C   0  0  0  0  0  0  0  0  0  0  0  0
   41.8790   23.2160   36.2480 C   0  0  0  0  0  0  0  0  0  0  0  0
   41.2070   24.1000   35.5070 C   0  0  0  0  0  0  0  0  0  0  0  0
   41.8160   25.2100   34.9260 N   0  0  0  0  0  0  0  0  0  0  0  0
   43.0980   25.4810   35.0560 C   0  0  0  0  0  0  0  0  0  0  0  0
   43.8170   24.6530   35.7740 N   0  0  0  0  0  0  0  0  0  0  0  0
   41.5220   22.0240   36.9350 C   0  0  0  0  0  0  0  0  0  0  0  0
   40.8010   22.2870   38.1240 F   0  0  0  0  0  0  0  0  0  0  0  0
   42.4280   21.3140   37.6350 F   0  0  0  0  0  0  0  0  0  0  0  0
   40.4760   21.2610   36.4330 F   0  0  0  0  0  0  0  0  0  0  0  0
   38.9560   24.8560   35.8370 C   0  0  0  0  0  0  0  0  0  0  0  0
   37.7860   24.1470   36.5420 C   0  0  2  0  0  0  0  0  0  0  0  0
   37.9080   24.0900   38.0220 C   0  0  0  0  0  0  0  0  0  0  0  0
   37.8750   22.8650   37.1460 C   0  0  1  0  0  0  0  0  0  0  0  0
   36.5480   22.1700   37.1170 N   0  0  0  0  0  0  0  0  0  0  0  0
   39.6543   23.7598   34.2196 H   0  0  0  0  0  0  0  0  0  0  0  0
   39.6039   22.9049   35.8372 H   0  0  0  0  0  0  0  0  0  0  0  0
   43.9075   22.9205   36.9320 H   0  0  0  0  0  0  0  0  0  0  0  0
   43.5471   26.3659   34.5815 H   0  0  0  0  0  0  0  0  0  0  0  0
   39.5036   25.4809   36.5579 H   0  0  0  0  0  0  0  0  0  0  0  0
   38.5822   25.5031   35.0298 H   0  0  0  0  0  0  0  0  0  0  0  0
   37.0781   24.5229   35.7886 H   0  0  0  0  0  0  0  0  0  0  0  0
   38.8403   24.3974   38.5183 H   0  0  0  0  0  0  0  0  0  0  0  0
   37.3391   24.4691   38.8837 H   0  0  0  0  0  0  0  0  0  0  0  0
   38.5267   21.9841   37.0498 H   0  0  0  0  0  0  0  0  0  0  0  0
   36.2273   22.0020   38.0813 H   0  0  0  0  0  0  0  0  0  0  0  0
   35.8621   22.7601   36.6249 H   0  0  0  0  0  0  0  0  0  0  0  0
  1  4  1  0
  1 12  1  0
  3  2  2  0
  3  8  1  0
  4  3  1  0
  5  6  1  0
  5  4  2  0
  6  7  2  0
  7  2  1  0
  8 10  1  0
  8  9  1  0
 11  8  1  0
 12 13  1  0
 13 15  1  0
 13 14  1  0
 15 14  1  0
 16 15  1  0
  1 17  1  0
  1 18  1  0
  2 19  1  0
  6 20  1  0
 12 21  1  0
 12 22  1  0
 13 23  1  1
 14 24  1  0
 14 25  1  0
 15 26  1  6
 16 27  1  0
 16 28  1  0
M  ISO  8  17   8  18   8  19  14  20  14  21   8  22   8  23  13  24  13
M  ISO  4  25  13  26  13  27   5  28   5
M  END
>  <minimizedAffinity>  (1) 
-3.96605635

>  <minimizedRMSD>  (1) 
0.418725699

$$$$
