
     RDKit          3D

 35 36  0  0  1  0  0  0  0  0999 V2000
   40.3410   23.8030   35.1020 C   0  0  0  0  0  0  0  0  0  0  0  0
   43.5110   23.3390   36.6890 C   0  0  0  0  0  0  0  0  0  0  0  0
   42.1570   23.0620   36.3780 C   0  0  0  0  0  0  0  0  0  0  0  0
   41.6730   23.9760   35.5270 C   0  0  0  0  0  0  0  0  0  0  0  0
   42.4410   25.0350   35.0440 N   0  0  0  0  0  0  0  0  0  0  0  0
   43.6950   25.2230   35.3820 C   0  0  0  0  0  0  0  0  0  0  0  0
   44.2440   24.3670   36.2150 N   0  0  0  0  0  0  0  0  0  0  0  0
   41.6130   21.9070   36.9960 C   0  0  0  0  0  0  0  0  0  0  0  0
   40.6900   22.2290   38.0180 F   0  0  0  0  0  0  0  0  0  0  0  0
   42.3260   21.1630   37.8590 F   0  0  0  0  0  0  0  0  0  0  0  0
   40.6480   21.1780   36.3030 F   0  0  0  0  0  0  0  0  0  0  0  0
   39.3710   24.5650   35.8670 C   0  0  0  0  0  0  0  0  0  0  0  0
   38.0150   23.8570   35.7710 C   0  0  2  0  0  0  0  0  0  0  0  0
   37.4880   23.3610   37.0650 C   0  0  0  0  0  0  0  0  0  0  0  0
   37.8360   22.4420   35.9110 C   0  0  1  0  0  0  0  0  0  0  0  0
   36.6280   21.9380   35.0930 C   0  0  0  0  0  0  0  0  0  0  0  0
   35.9810   20.7810   35.8450 C   0  0  0  0  0  0  0  0  0  0  0  0
   37.0520   21.4000   33.7480 C   0  0  0  0  0  0  0  0  0  0  0  0
   40.2713   24.1135   34.0490 H   0  0  0  0  0  0  0  0  0  0  0  0
   40.0967   22.7406   35.2488 H   0  0  0  0  0  0  0  0  0  0  0  0
   44.0127   22.6494   37.3838 H   0  0  0  0  0  0  0  0  0  0  0  0
   44.2692   26.0710   34.9805 H   0  0  0  0  0  0  0  0  0  0  0  0
   39.6878   24.6198   36.9190 H   0  0  0  0  0  0  0  0  0  0  0  0
   39.2929   25.5868   35.4672 H   0  0  0  0  0  0  0  0  0  0  0  0
   37.6981   24.5309   34.9614 H   0  0  0  0  0  0  0  0  0  0  0  0
   38.1151   23.3841   37.9684 H   0  0  0  0  0  0  0  0  0  0  0  0
   36.6022   23.5533   37.6883 H   0  0  0  0  0  0  0  0  0  0  0  0
   38.4646   21.5443   35.8163 H   0  0  0  0  0  0  0  0  0  0  0  0
   35.9415   22.7857   34.9509 H   0  0  0  0  0  0  0  0  0  0  0  0
   36.0751   20.9493   36.9280 H   0  0  0  0  0  0  0  0  0  0  0  0
   34.9166   20.7177   35.5749 H   0  0  0  0  0  0  0  0  0  0  0  0
   36.4844   19.8410   35.5749 H   0  0  0  0  0  0  0  0  0  0  0  0
   37.7270   20.5435   33.8919 H   0  0  0  0  0  0  0  0  0  0  0  0
   36.1636   21.0763   33.1859 H   0  0  0  0  0  0  0  0  0  0  0  0
   37.5744   22.1882   33.1859 H   0  0  0  0  0  0  0  0  0  0  0  0
  1  4  1  0
  1 12  1  0
  3  2  2  0
  3  8  1  0
  4  3  1  0
  5  6  1  0
  5  4  2  0
  6  7  2  0
  7  2  1  0
  8 10  1  0
  8  9  1  0
 11  8  1  0
 13 12  1  0
 13 15  1  0
 13 14  1  0
 15 14  1  0
 16 17  1  0
 16 15  1  0
 18 16  1  0
  1 19  1  0
  1 20  1  0
  2 21  1  0
  6 22  1  0
 12 23  1  0
 12 24  1  0
 13 25  1  6
 14 26  1  0
 14 27  1  0
 15 28  1  1
 16 29  1  0
 17 30  1  0
 17 31  1  0
 17 32  1  0
 18 33  1  0
 18 34  1  0
 18 35  1  0
M  ISO  8  19   8  20   8  21  14  22  14  23   8  24   8  25  13  26  13
M  ISO  8  27  13  28  13  29   8  30   8  31   8  32   8  33   8  34   8
M  ISO  1  35   8
M  END
>  <minimizedAffinity>  (1) 
-3.64717698

>  <minimizedRMSD>  (1) 
1.66445088

$$$$
