
     RDKit          3D

 39 41  0  0  1  0  0  0  0  0999 V2000
   40.4840   21.6670   36.2770 C   0  0  0  0  0  0  0  0  0  0  0  0
   39.6110   22.5920   36.9690 C   0  0  0  0  0  0  0  0  0  0  0  0
   39.7700   22.9300   38.3100 C   0  0  0  0  0  0  0  0  0  0  0  0
   38.9080   23.8120   38.9480 C   0  0  0  0  0  0  0  0  0  0  0  0
   37.8580   24.3830   38.2540 C   0  0  0  0  0  0  0  0  0  0  0  0
   37.6760   24.0560   36.8920 C   0  0  0  0  0  0  0  0  0  0  0  0
   38.5540   23.1720   36.2980 C   0  0  0  0  0  0  0  0  0  0  0  0
   38.0930   22.9430   34.9350 C   0  0  0  0  0  0  0  0  0  0  0  0
   38.3520   23.7410   33.8060 C   0  0  0  0  0  0  0  0  0  0  0  0
   37.8400   23.3830   32.5790 C   0  0  0  0  0  0  0  0  0  0  0  0
   37.0670   22.2580   32.3810 C   0  0  0  0  0  0  0  0  0  0  0  0
   36.7840   21.4390   33.4540 C   0  0  0  0  0  0  0  0  0  0  0  0
   37.3030   21.8120   34.6760 C   0  0  0  0  0  0  0  0  0  0  0  0
   41.6700   22.2210   35.6020 C   0  0  2  0  0  0  0  0  0  0  0  0
   42.8630   21.3680   35.8980 C   0  0  0  0  0  0  0  0  0  0  0  0
   42.7250   20.2340   36.7100 C   0  0  0  0  0  0  0  0  0  0  0  0
   43.8380   19.4680   36.9770 C   0  0  0  0  0  0  0  0  0  0  0  0
   45.0330   19.8620   36.4250 N   0  0  0  0  0  0  0  0  0  0  0  0
   45.1490   20.9590   35.6440 C   0  0  0  0  0  0  0  0  0  0  0  0
   44.0530   21.6950   35.3950 N   0  0  0  0  0  0  0  0  0  0  0  0
   42.0680   23.6070   36.0980 C   0  0  0  0  0  0  0  0  0  0  0  0
   40.8390   20.9342   37.0166 H   0  0  0  0  0  0  0  0  0  0  0  0
   39.8669   21.2571   35.4639 H   0  0  0  0  0  0  0  0  0  0  0  0
   40.6004   22.4867   38.8792 H   0  0  0  0  0  0  0  0  0  0  0  0
   39.0613   24.0571   40.0093 H   0  0  0  0  0  0  0  0  0  0  0  0
   37.1733   25.0827   38.7556 H   0  0  0  0  0  0  0  0  0  0  0  0
   36.8499   24.4976   36.3154 H   0  0  0  0  0  0  0  0  0  0  0  0
   38.9631   24.6504   33.9033 H   0  0  0  0  0  0  0  0  0  0  0  0
   38.0583   24.0261   31.7137 H   0  0  0  0  0  0  0  0  0  0  0  0
   36.6810   22.0169   31.3796 H   0  0  0  0  0  0  0  0  0  0  0  0
   36.1732   20.5312   33.3404 H   0  0  0  0  0  0  0  0  0  0  0  0
   37.0756   21.1592   35.5317 H   0  0  0  0  0  0  0  0  0  0  0  0
   41.3955   22.2616   34.5376 H   0  0  0  0  0  0  0  0  0  0  0  0
   41.7445   19.9605   37.1269 H   0  0  0  0  0  0  0  0  0  0  0  0
   43.7725   18.5712   37.6106 H   0  0  0  0  0  0  0  0  0  0  0  0
   46.1231   21.2440   35.2199 H   0  0  0  0  0  0  0  0  0  0  0  0
   42.0706   23.6160   37.1980 H   0  0  0  0  0  0  0  0  0  0  0  0
   43.0735   23.8545   35.7269 H   0  0  0  0  0  0  0  0  0  0  0  0
   41.3470   24.3503   35.7269 H   0  0  0  0  0  0  0  0  0  0  0  0
  1  2  1  0
  2  3  2  0
  3  4  1  0
  5  4  2  0
  6  5  1  0
  7  6  2  0
  7  2  1  0
  8  7  1  0
  9  8  2  0
 10  9  1  0
 11 10  2  0
 11 12  1  0
 12 13  2  0
 13  8  1  0
 14 15  1  0
 14 21  1  0
 14  1  1  0
 15 16  2  0
 16 17  1  0
 18 17  2  0
 19 18  1  0
 20 19  2  0
 20 15  1  0
  1 22  1  0
  1 23  1  0
  3 24  1  0
  4 25  1  0
  5 26  1  0
  6 27  1  0
  9 28  1  0
 10 29  1  0
 11 30  1  0
 12 31  1  0
 13 32  1  0
 14 33  1  6
 16 34  1  0
 17 35  1  0
 19 36  1  0
 21 37  1  0
 21 38  1  0
 21 39  1  0
M  ISO  8  22   8  23   8  24  14  25  14  26  14  27  14  28  14  29  14
M  ISO  8  30  14  31  14  32  14  33   8  34  14  35  14  36  14  37   8
M  ISO  2  38   8  39   8
M  END
>  <minimizedAffinity>  (1) 
-4.48566675

>  <minimizedRMSD>  (1) 
1.5916065

$$$$
