
     RDKit          3D

 40 43  0  0  1  0  0  0  0  0999 V2000
   38.0630   26.0970   31.4260 C   0  0  0  0  0  0  0  0  0  0  0  0
   38.9870   26.5860   30.5070 C   0  0  0  0  0  0  0  0  0  0  0  0
   39.2740   25.4940   29.7260 N   0  0  0  0  0  0  0  0  0  0  0  0
   38.5690   24.4750   30.1710 C   0  0  0  0  0  0  0  0  0  0  0  0
   37.8060   24.8120   31.2250 N   0  0  0  0  0  0  0  0  0  0  0  0
   37.4460   26.8930   32.4870 C   0  0  0  0  0  0  0  0  0  0  0  0
   37.9040   26.7850   33.8130 C   0  0  0  0  0  0  0  0  0  0  0  0
   37.2610   27.5870   34.7890 C   0  0  0  0  0  0  0  0  0  0  0  0
   36.2590   28.3970   34.3860 N   0  0  0  0  0  0  0  0  0  0  0  0
   35.8500   28.4710   33.1030 C   0  0  0  0  0  0  0  0  0  0  0  0
   36.4320   27.7250   32.1340 N   0  0  0  0  0  0  0  0  0  0  0  0
   36.9280   23.9060   31.9240 C   0  0  1  0  0  0  0  0  0  0  0  0
   35.5200   23.7720   31.5970 C   0  0  0  0  0  0  0  0  0  0  0  0
   36.4770   22.7340   31.0820 C   0  0  2  0  0  0  0  0  0  0  0  0
   36.3490   21.3860   31.6960 C   0  0  0  0  0  0  0  0  0  0  0  0
   36.2250   20.2650   30.6920 C   0  0  0  0  0  0  0  0  0  0  0  0
   36.3900   18.9700   31.4580 C   0  0  0  0  0  0  0  0  0  0  0  0
   35.4880   18.8280   32.6360 C   0  0  0  0  0  0  0  0  0  0  0  0
   35.3930   20.0620   33.4830 C   0  0  0  0  0  0  0  0  0  0  0  0
   35.1320   21.2610   32.5930 C   0  0  0  0  0  0  0  0  0  0  0  0
   39.3914   27.6057   30.4258 H   0  0  0  0  0  0  0  0  0  0  0  0
   38.6007   23.4669   29.7320 H   0  0  0  0  0  0  0  0  0  0  0  0
   38.7270   26.1062   34.0812 H   0  0  0  0  0  0  0  0  0  0  0  0
   37.5695   27.5504   35.8442 H   0  0  0  0  0  0  0  0  0  0  0  0
   35.0270   29.1511   32.8382 H   0  0  0  0  0  0  0  0  0  0  0  0
   37.4290   24.0878   32.8863 H   0  0  0  0  0  0  0  0  0  0  0  0
   34.7996   23.5070   32.3849 H   0  0  0  0  0  0  0  0  0  0  0  0
   34.7739   24.4299   31.1276 H   0  0  0  0  0  0  0  0  0  0  0  0
   36.7908   22.3208   30.1121 H   0  0  0  0  0  0  0  0  0  0  0  0
   37.2847   21.2900   32.2664 H   0  0  0  0  0  0  0  0  0  0  0  0
   37.0095   20.3543   29.9262 H   0  0  0  0  0  0  0  0  0  0  0  0
   35.2515   20.2994   30.1809 H   0  0  0  0  0  0  0  0  0  0  0  0
   36.1894   18.1359   30.7695 H   0  0  0  0  0  0  0  0  0  0  0  0
   37.4179   18.9677   31.8497 H   0  0  0  0  0  0  0  0  0  0  0  0
   34.4801   18.5797   32.2721 H   0  0  0  0  0  0  0  0  0  0  0  0
   35.9153   18.0379   33.2710 H   0  0  0  0  0  0  0  0  0  0  0  0
   34.5680   19.9516   34.2022 H   0  0  0  0  0  0  0  0  0  0  0  0
   36.3362   20.2072   34.0301 H   0  0  0  0  0  0  0  0  0  0  0  0
   35.0100   22.1695   33.2011 H   0  0  0  0  0  0  0  0  0  0  0  0
   34.2096   21.1357   32.0069 H   0  0  0  0  0  0  0  0  0  0  0  0
  1  6  1  0
  2  1  2  0
  3  4  2  0
  3  2  1  0
  4  5  1  0
  5  1  1  0
  5 12  1  0
  6  7  2  0
  7  8  1  0
  9  8  2  0
 10  9  1  0
 11  6  1  0
 11 10  2  0
 13 12  1  0
 14 13  1  0
 14 15  1  0
 14 12  1  0
 15 20  1  0
 16 17  1  0
 16 15  1  0
 17 18  1  0
 18 19  1  0
 20 19  1  0
  2 21  1  0
  4 22  1  0
  7 23  1  0
  8 24  1  0
 10 25  1  0
 12 26  1  1
 13 27  1  0
 13 28  1  0
 14 29  1  6
 15 30  1  0
 16 31  1  0
 16 32  1  0
 17 33  1  0
 17 34  1  0
 18 35  1  0
 18 36  1  0
 19 37  1  0
 19 38  1  0
 20 39  1  0
 20 40  1  0
M  ISO  8  21  14  22  14  23  14  24  14  25  14  26  13  27  13  28  13
M  ISO  8  29  13  30  13  31  13  32  13  33  13  34  13  35  13  36  13
M  ISO  4  37  13  38  13  39  13  40  13
M  END
>  <minimizedAffinity>  (1) 
-5.08045435

>  <minimizedRMSD>  (1) 
4.43305302

$$$$
