
     RDKit          3D

 31 34  0  0  1  0  0  0  0  0999 V2000
   38.0940   23.7590   34.5480 C   0  0  0  0  0  0  0  0  0  0  0  0
   38.2760   24.9590   33.8590 C   0  0  0  0  0  0  0  0  0  0  0  0
   37.8210   24.6750   32.5950 N   0  0  0  0  0  0  0  0  0  0  0  0
   37.4200   23.4160   32.5840 C   0  0  0  0  0  0  0  0  0  0  0  0
   37.5750   22.8120   33.7850 N   0  0  0  0  0  0  0  0  0  0  0  0
   38.4350   23.5520   35.9550 C   0  0  0  0  0  0  0  0  0  0  0  0
   39.6430   22.9410   36.3100 C   0  0  0  0  0  0  0  0  0  0  0  0
   39.9130   22.7710   37.6820 C   0  0  0  0  0  0  0  0  0  0  0  0
   39.0050   23.2000   38.5700 N   0  0  0  0  0  0  0  0  0  0  0  0
   37.8370   23.7910   38.1990 C   0  0  0  0  0  0  0  0  0  0  0  0
   37.5430   23.9720   36.8960 N   0  0  0  0  0  0  0  0  0  0  0  0
   37.2190   21.4530   34.0460 C   0  0  1  0  0  0  0  0  0  0  0  0
   35.9780   21.0650   34.7280 C   0  0  0  0  0  0  0  0  0  0  0  0
   36.0010   20.9930   33.2270 C   0  0  2  0  0  0  0  0  0  0  0  0
   36.0240   19.6730   32.6220 C   0  0  0  0  0  0  0  0  0  0  0  0
   35.3470   18.5370   32.9110 C   0  0  0  0  0  0  0  0  0  0  0  0
   35.5290   17.3830   32.1970 C   0  0  0  0  0  0  0  0  0  0  0  0
   36.4990   17.4990   31.1220 C   0  0  0  0  0  0  0  0  0  0  0  0
   37.0530   19.2260   31.2310 S   0  0  0  0  0  0  0  0  0  0  0  0
   38.6862   25.9066   34.2382 H   0  0  0  0  0  0  0  0  0  0  0  0
   37.0060   22.9144   31.6968 H   0  0  0  0  0  0  0  0  0  0  0  0
   40.3572   22.6050   35.5438 H   0  0  0  0  0  0  0  0  0  0  0  0
   40.8474   22.2971   38.0170 H   0  0  0  0  0  0  0  0  0  0  0  0
   37.1261   24.1242   38.9694 H   0  0  0  0  0  0  0  0  0  0  0  0
   38.2628   21.1614   34.2345 H   0  0  0  0  0  0  0  0  0  0  0  0
   35.9488   20.1359   35.3162 H   0  0  0  0  0  0  0  0  0  0  0  0
   35.3214   21.5596   35.4590 H   0  0  0  0  0  0  0  0  0  0  0  0
   35.4115   21.4111   32.3978 H   0  0  0  0  0  0  0  0  0  0  0  0
   34.6291   18.5411   33.7445 H   0  0  0  0  0  0  0  0  0  0  0  0
   34.9886   16.4507   32.4179 H   0  0  0  0  0  0  0  0  0  0  0  0
   36.8217   16.7247   30.4105 H   0  0  0  0  0  0  0  0  0  0  0  0
  1  6  1  0
  2  1  2  0
  3  2  1  0
  4  3  2  0
  4  5  1  0
  5 12  1  0
  5  1  1  0
  6  7  2  0
  6 11  1  0
  7  8  1  0
  8  9  2  0
 10  9  1  0
 11 10  2  0
 12 13  1  0
 14 12  1  0
 14 13  1  0
 15 16  2  0
 15 14  1  0
 17 16  1  0
 18 19  1  0
 18 17  2  0
 19 15  1  0
  2 20  1  0
  4 21  1  0
  7 22  1  0
  8 23  1  0
 10 24  1  0
 12 25  1  1
 13 26  1  0
 13 27  1  0
 14 28  1  6
 16 29  1  0
 17 30  1  0
 18 31  1  0
M  ISO  8  20  14  21  14  22  14  23  14  24  14  25  13  26  13  27  13
M  ISO  4  28  13  29  14  30  14  31  14
M  END
>  <minimizedAffinity>  (1) 
-4.83468246

>  <minimizedRMSD>  (1) 
0.722990036

$$$$
