
     RDKit          3D

 36 38  0  0  1  0  0  0  0  0999 V2000
   38.1820   24.2480   34.7270 C   0  0  0  0  0  0  0  0  0  0  0  0
   38.2300   25.5470   34.2510 C   0  0  0  0  0  0  0  0  0  0  0  0
   37.8740   25.4170   32.9350 N   0  0  0  0  0  0  0  0  0  0  0  0
   37.6420   24.1310   32.6950 C   0  0  0  0  0  0  0  0  0  0  0  0
   37.8260   23.3690   33.8020 N   0  0  0  0  0  0  0  0  0  0  0  0
   38.4870   23.8610   36.1110 C   0  0  0  0  0  0  0  0  0  0  0  0
   39.6940   23.2330   36.4190 C   0  0  0  0  0  0  0  0  0  0  0  0
   39.9440   22.8800   37.7620 C   0  0  0  0  0  0  0  0  0  0  0  0
   38.9870   23.1730   38.6720 N   0  0  0  0  0  0  0  0  0  0  0  0
   37.8280   23.7800   38.3510 C   0  0  0  0  0  0  0  0  0  0  0  0
   37.5700   24.1270   37.0700 N   0  0  0  0  0  0  0  0  0  0  0  0
   37.6460   21.9500   33.8250 C   0  0  1  0  0  0  0  0  0  0  0  0
   36.6090   21.3000   34.6300 C   0  0  0  0  0  0  0  0  0  0  0  0
   36.3390   21.5060   33.1640 C   0  0  2  0  0  0  0  0  0  0  0  0
   36.3070   20.2420   32.3630 C   0  0  0  0  0  0  0  0  0  0  0  0
   35.4870   19.1530   32.9990 C   0  0  0  0  0  0  0  0  0  0  0  0
   37.6800   19.7070   32.0110 C   0  0  0  0  0  0  0  0  0  0  0  0
   35.6200   20.5690   31.0500 C   0  0  0  0  0  0  0  0  0  0  0  0
   38.4916   26.4643   34.7988 H   0  0  0  0  0  0  0  0  0  0  0  0
   37.3373   23.7321   31.7162 H   0  0  0  0  0  0  0  0  0  0  0  0
   40.4334   23.0181   35.6334 H   0  0  0  0  0  0  0  0  0  0  0  0
   40.8811   22.3856   38.0577 H   0  0  0  0  0  0  0  0  0  0  0  0
   37.0874   23.9945   39.1355 H   0  0  0  0  0  0  0  0  0  0  0  0
   38.7260   21.7559   33.7486 H   0  0  0  0  0  0  0  0  0  0  0  0
   36.7763   20.2833   35.0150 H   0  0  0  0  0  0  0  0  0  0  0  0
   36.0741   21.5701   35.5525 H   0  0  0  0  0  0  0  0  0  0  0  0
   35.5986   22.0117   32.5268 H   0  0  0  0  0  0  0  0  0  0  0  0
   35.5509   19.2378   34.0939 H   0  0  0  0  0  0  0  0  0  0  0  0
   34.4378   19.2527   32.6841 H   0  0  0  0  0  0  0  0  0  0  0  0
   35.8727   18.1722   32.6841 H   0  0  0  0  0  0  0  0  0  0  0  0
   38.2368   19.4900   32.9345 H   0  0  0  0  0  0  0  0  0  0  0  0
   37.5740   18.7844   31.4215 H   0  0  0  0  0  0  0  0  0  0  0  0
   38.2261   20.4581   31.4215 H   0  0  0  0  0  0  0  0  0  0  0  0
   34.6438   21.0337   31.2527 H   0  0  0  0  0  0  0  0  0  0  0  0
   36.2451   21.2662   30.4728 H   0  0  0  0  0  0  0  0  0  0  0  0
   35.4731   19.6442   30.4728 H   0  0  0  0  0  0  0  0  0  0  0  0
  1  6  1  0
  2  1  2  0
  3  2  1  0
  4  3  2  0
  4  5  1  0
  5 12  1  0
  5  1  1  0
  6  7  2  0
  6 11  1  0
  7  8  1  0
  8  9  2  0
 10  9  1  0
 11 10  2  0
 12 13  1  0
 14 12  1  0
 14 13  1  0
 15 16  1  0
 15 14  1  0
 17 15  1  0
 18 15  1  0
  2 19  1  0
  4 20  1  0
  7 21  1  0
  8 22  1  0
 10 23  1  0
 12 24  1  6
 13 25  1  0
 13 26  1  0
 14 27  1  1
 16 28  1  0
 16 29  1  0
 16 30  1  0
 17 31  1  0
 17 32  1  0
 17 33  1  0
 18 34  1  0
 18 35  1  0
 18 36  1  0
M  ISO  8  19  14  20  14  21  14  22  14  23  14  24  13  25  13  26  13
M  ISO  8  27  13  28   8  29   8  30   8  31   8  32   8  33   8  34   8
M  ISO  2  35   8  36   8
M  END
>  <minimizedAffinity>  (1) 
-4.61252928

>  <minimizedRMSD>  (1) 
1.11946535

$$$$
