
     RDKit          3D

 37 40  0  0  1  0  0  0  0  0999 V2000
   38.1670   24.2300   34.7800 C   0  0  0  0  0  0  0  0  0  0  0  0
   38.1740   25.5170   34.2790 C   0  0  0  0  0  0  0  0  0  0  0  0
   37.8240   25.3560   32.9640 N   0  0  0  0  0  0  0  0  0  0  0  0
   37.6360   24.0620   32.7530 C   0  0  0  0  0  0  0  0  0  0  0  0
   37.8410   23.3230   33.8670 N   0  0  0  0  0  0  0  0  0  0  0  0
   38.4810   23.8760   36.1620 C   0  0  0  0  0  0  0  0  0  0  0  0
   39.6470   23.1990   36.4870 C   0  0  0  0  0  0  0  0  0  0  0  0
   39.9000   22.8820   37.8370 C   0  0  0  0  0  0  0  0  0  0  0  0
   38.9880   23.2560   38.7460 N   0  0  0  0  0  0  0  0  0  0  0  0
   37.8410   23.9220   38.4170 C   0  0  0  0  0  0  0  0  0  0  0  0
   37.5910   24.2290   37.1330 N   0  0  0  0  0  0  0  0  0  0  0  0
   37.7050   21.9000   33.9150 C   0  0  1  0  0  0  0  0  0  0  0  0
   36.4510   21.2370   34.2930 C   0  0  0  0  0  0  0  0  0  0  0  0
   36.7820   21.3460   32.8310 C   0  0  2  0  0  0  0  0  0  0  0  0
   37.1050   20.0780   32.1470 C   0  0  0  0  0  0  0  0  0  0  0  0
   37.1910   20.3530   30.6360 C   0  0  0  0  0  0  0  0  0  0  0  0
   36.4890   19.2210   29.9510 C   0  0  0  0  0  0  0  0  0  0  0  0
   36.4120   18.1450   30.9880 C   0  0  0  0  0  0  0  0  0  0  0  0
   36.0680   18.9850   32.2340 C   0  0  0  0  0  0  0  0  0  0  0  0
   38.4060   26.4516   34.8106 H   0  0  0  0  0  0  0  0  0  0  0  0
   37.3458   23.6363   31.7811 H   0  0  0  0  0  0  0  0  0  0  0  0
   40.3638   22.9136   35.7029 H   0  0  0  0  0  0  0  0  0  0  0  0
   40.8137   22.3465   38.1344 H   0  0  0  0  0  0  0  0  0  0  0  0
   37.1241   24.2061   39.2014 H   0  0  0  0  0  0  0  0  0  0  0  0
   38.7332   21.7638   34.2813 H   0  0  0  0  0  0  0  0  0  0  0  0
   36.4816   20.2545   34.7867 H   0  0  0  0  0  0  0  0  0  0  0  0
   35.5853   21.5268   34.9067 H   0  0  0  0  0  0  0  0  0  0  0  0
   36.3322   21.7704   31.9213 H   0  0  0  0  0  0  0  0  0  0  0  0
   38.0247   19.7390   32.6462 H   0  0  0  0  0  0  0  0  0  0  0  0
   36.6972   21.3061   30.3956 H   0  0  0  0  0  0  0  0  0  0  0  0
   38.2379   20.4262   30.3065 H   0  0  0  0  0  0  0  0  0  0  0  0
   35.4815   19.5251   29.6308 H   0  0  0  0  0  0  0  0  0  0  0  0
   37.0156   18.8903   29.0436 H   0  0  0  0  0  0  0  0  0  0  0  0
   35.6217   17.4150   30.7587 H   0  0  0  0  0  0  0  0  0  0  0  0
   37.3205   17.5322   31.0831 H   0  0  0  0  0  0  0  0  0  0  0  0
   36.1772   18.3985   33.1582 H   0  0  0  0  0  0  0  0  0  0  0  0
   35.0302   19.3487   32.2605 H   0  0  0  0  0  0  0  0  0  0  0  0
  1  6  1  0
  2  1  2  0
  3  2  1  0
  4  3  2  0
  4  5  1  0
  5 12  1  0
  5  1  1  0
  6  7  2  0
  6 11  1  0
  7  8  1  0
  8  9  2  0
 10  9  1  0
 11 10  2  0
 12 13  1  0
 14 12  1  0
 14 13  1  0
 15 19  1  0
 15 14  1  0
 16 15  1  0
 17 16  1  0
 17 18  1  0
 18 19  1  0
  2 20  1  0
  4 21  1  0
  7 22  1  0
  8 23  1  0
 10 24  1  0
 12 25  1  1
 13 26  1  0
 13 27  1  0
 14 28  1  6
 15 29  1  0
 16 30  1  0
 16 31  1  0
 17 32  1  0
 17 33  1  0
 18 34  1  0
 18 35  1  0
 19 36  1  0
 19 37  1  0
M  ISO  8  20  14  21  14  22  14  23  14  24  14  25  13  26  13  27  13
M  ISO  8  28  13  29  13  30  13  31  13  32  13  33  13  34  13  35  13
M  ISO  2  36  13  37  13
M  END
>  <minimizedAffinity>  (1) 
-4.73594284

>  <minimizedRMSD>  (1) 
1.52968884

$$$$
