
     RDKit          3D

 31 34  0  0  1  0  0  0  0  0999 V2000
   38.0930   23.8180   34.6040 C   0  0  0  0  0  0  0  0  0  0  0  0
   38.2330   25.0320   33.9440 C   0  0  0  0  0  0  0  0  0  0  0  0
   37.7710   24.7710   32.6810 N   0  0  0  0  0  0  0  0  0  0  0  0
   37.4000   23.5050   32.6350 C   0  0  0  0  0  0  0  0  0  0  0  0
   37.5850   22.8710   33.8180 N   0  0  0  0  0  0  0  0  0  0  0  0
   38.4550   23.5850   35.9940 C   0  0  0  0  0  0  0  0  0  0  0  0
   39.6690   22.9930   36.3270 C   0  0  0  0  0  0  0  0  0  0  0  0
   39.9800   22.7850   37.6770 C   0  0  0  0  0  0  0  0  0  0  0  0
   39.0830   23.1720   38.5930 N   0  0  0  0  0  0  0  0  0  0  0  0
   37.8960   23.7510   38.2550 C   0  0  0  0  0  0  0  0  0  0  0  0
   37.5950   23.9510   36.9600 N   0  0  0  0  0  0  0  0  0  0  0  0
   37.2620   21.4770   34.0490 C   0  0  1  0  0  0  0  0  0  0  0  0
   36.0240   21.0880   34.7370 C   0  0  0  0  0  0  0  0  0  0  0  0
   36.0810   21.0250   33.2160 C   0  0  2  0  0  0  0  0  0  0  0  0
   36.1650   19.6860   32.6640 N   0  0  0  0  0  0  0  0  0  0  0  0
   37.1680   19.2150   31.9320 N   0  0  0  0  0  0  0  0  0  0  0  0
   36.9280   17.9410   31.5840 C   0  0  0  0  0  0  0  0  0  0  0  0
   35.7010   17.5670   32.1200 C   0  0  0  0  0  0  0  0  0  0  0  0
   35.2360   18.6950   32.8030 C   0  0  0  0  0  0  0  0  0  0  0  0
   38.6232   25.9804   34.3420 H   0  0  0  0  0  0  0  0  0  0  0  0
   36.9875   23.0199   31.7381 H   0  0  0  0  0  0  0  0  0  0  0  0
   40.3761   22.6919   35.5400 H   0  0  0  0  0  0  0  0  0  0  0  0
   40.9306   22.3187   37.9751 H   0  0  0  0  0  0  0  0  0  0  0  0
   37.1867   24.0536   39.0394 H   0  0  0  0  0  0  0  0  0  0  0  0
   38.3058   21.1800   34.2287 H   0  0  0  0  0  0  0  0  0  0  0  0
   35.9920   20.1577   35.3230 H   0  0  0  0  0  0  0  0  0  0  0  0
   35.3593   21.5739   35.4664 H   0  0  0  0  0  0  0  0  0  0  0  0
   35.5061   21.4439   32.3770 H   0  0  0  0  0  0  0  0  0  0  0  0
   37.5886   17.3027   30.9788 H   0  0  0  0  0  0  0  0  0  0  0  0
   35.2020   16.5911   32.0266 H   0  0  0  0  0  0  0  0  0  0  0  0
   34.2879   18.7708   33.3555 H   0  0  0  0  0  0  0  0  0  0  0  0
  1  6  1  0
  2  1  2  0
  3  2  1  0
  4  3  2  0
  4  5  1  0
  5 12  1  0
  5  1  1  0
  6  7  2  0
  6 11  1  0
  7  8  1  0
  8  9  2  0
 10  9  1  0
 11 10  2  0
 12 13  1  0
 14 12  1  0
 14 13  1  0
 15 19  1  0
 15 14  1  0
 16 15  1  0
 17 16  2  0
 17 18  1  0
 18 19  2  0
  2 20  1  0
  4 21  1  0
  7 22  1  0
  8 23  1  0
 10 24  1  0
 12 25  1  1
 13 26  1  0
 13 27  1  0
 14 28  1  6
 17 29  1  0
 18 30  1  0
 19 31  1  0
M  ISO  8  20  14  21  14  22  14  23  14  24  14  25  13  26  13  27  13
M  ISO  4  28  13  29  14  30  14  31  14
M  END
>  <minimizedAffinity>  (1) 
-4.63695288

>  <minimizedRMSD>  (1) 
0.899208963

$$$$
