
     RDKit          3D

 27 29  0  0  1  0  0  0  0  0999 V2000
   37.8800   23.6910   33.5010 C   0  0  0  0  0  0  0  0  0  0  0  0
   37.4580   22.6550   32.6700 C   0  0  0  0  0  0  0  0  0  0  0  0
   37.4760   21.5640   33.4870 N   0  0  0  0  0  0  0  0  0  0  0  0
   37.8810   21.9590   34.6950 C   0  0  0  0  0  0  0  0  0  0  0  0
   38.1380   23.2740   34.7330 N   0  0  0  0  0  0  0  0  0  0  0  0
   38.0220   25.0720   33.0760 C   0  0  0  0  0  0  0  0  0  0  0  0
   39.2810   25.6010   32.7720 C   0  0  0  0  0  0  0  0  0  0  0  0
   39.3830   26.9440   32.3640 C   0  0  0  0  0  0  0  0  0  0  0  0
   38.2410   27.6570   32.2870 N   0  0  0  0  0  0  0  0  0  0  0  0
   37.0300   27.1280   32.5850 C   0  0  0  0  0  0  0  0  0  0  0  0
   36.9140   25.8460   32.9770 N   0  0  0  0  0  0  0  0  0  0  0  0
   38.5880   23.9700   35.9000 C   0  0  1  0  0  0  0  0  0  0  0  0
   37.9770   25.2170   36.3610 C   0  0  0  0  0  0  0  0  0  0  0  0
   37.5730   23.9340   37.0400 C   0  0  2  0  0  0  0  0  0  0  0  0
   38.1870   23.7150   38.4110 C   0  0  0  0  0  0  0  0  0  0  0  0
   37.4240   22.7650   39.0780 F   0  0  0  0  0  0  0  0  0  0  0  0
   39.5130   23.3170   38.3010 F   0  0  0  0  0  0  0  0  0  0  0  0
   38.1810   24.8890   39.1390 F   0  0  0  0  0  0  0  0  0  0  0  0
   37.1772   22.7056   31.6076 H   0  0  0  0  0  0  0  0  0  0  0  0
   37.9910   21.2855   35.5577 H   0  0  0  0  0  0  0  0  0  0  0  0
   40.1814   24.9740   32.8510 H   0  0  0  0  0  0  0  0  0  0  0  0
   40.3559   27.3943   32.1176 H   0  0  0  0  0  0  0  0  0  0  0  0
   36.1295   27.7548   32.5055 H   0  0  0  0  0  0  0  0  0  0  0  0
   39.6410   23.7118   35.7142 H   0  0  0  0  0  0  0  0  0  0  0  0
   38.5862   25.9533   36.9058 H   0  0  0  0  0  0  0  0  0  0  0  0
   37.4248   26.0292   35.8657 H   0  0  0  0  0  0  0  0  0  0  0  0
   36.6252   23.4161   37.2485 H   0  0  0  0  0  0  0  0  0  0  0  0
  1  5  1  0
  2  3  1  0
  2  1  2  0
  3  4  2  0
  4  5  1  0
  5 12  1  0
  6  1  1  0
  7  6  2  0
  8  7  1  0
  9  8  2  0
  9 10  1  0
 10 11  2  0
 11  6  1  0
 12 13  1  0
 12 14  1  0
 13 14  1  0
 14 15  1  0
 15 16  1  0
 15 18  1  0
 17 15  1  0
  2 19  1  0
  4 20  1  0
  7 21  1  0
  8 22  1  0
 10 23  1  0
 12 24  1  1
 13 25  1  0
 13 26  1  0
 14 27  1  6
M  ISO  8  19  14  20  14  21  14  22  14  23  14  24  13  25  13  26  13
M  ISO  1  27  13
M  END
>  <minimizedAffinity>  (1) 
-4.93279219

>  <minimizedRMSD>  (1) 
5.44569635

$$$$
