
     RDKit          3D

 38 39  0  0  1  0  0  0  0  0999 V2000
   41.0270   21.6870   37.1030 C   0  0  0  0  0  0  0  0  0  0  0  0
   39.8760   22.5470   37.2460 C   0  0  0  0  0  0  0  0  0  0  0  0
   39.4630   23.1670   38.4290 C   0  0  0  0  0  0  0  0  0  0  0  0
   38.3490   23.9720   38.4930 C   0  0  0  0  0  0  0  0  0  0  0  0
   37.6120   24.1820   37.3680 C   0  0  0  0  0  0  0  0  0  0  0  0
   37.9930   23.5740   36.1520 C   0  0  0  0  0  0  0  0  0  0  0  0
   39.1150   22.7670   36.1110 C   0  0  0  0  0  0  0  0  0  0  0  0
   39.2230   22.2670   34.7140 C   0  0  0  0  0  0  0  0  0  0  0  0
   39.6400   23.3860   33.7940 C   0  0  0  0  0  0  0  0  0  0  0  0
   37.8400   21.8380   34.1590 C   0  0  0  0  0  0  0  0  0  0  0  0
   42.1330   22.1200   36.2470 C   0  0  2  0  0  0  0  0  0  0  0  0
   43.2610   21.1180   36.3710 C   0  0  0  0  0  0  0  0  0  0  0  0
   43.0410   19.8920   37.0050 C   0  0  0  0  0  0  0  0  0  0  0  0
   44.1000   19.0070   37.1030 C   0  0  0  0  0  0  0  0  0  0  0  0
   45.2910   19.3800   36.5780 N   0  0  0  0  0  0  0  0  0  0  0  0
   45.4870   20.5650   35.9700 C   0  0  0  0  0  0  0  0  0  0  0  0
   44.4590   21.4370   35.8690 N   0  0  0  0  0  0  0  0  0  0  0  0
   42.7730   23.4440   36.6410 C   0  0  0  0  0  0  0  0  0  0  0  0
   41.4405   21.5313   38.1103 H   0  0  0  0  0  0  0  0  0  0  0  0
   40.6303   20.7970   36.5925 H   0  0  0  0  0  0  0  0  0  0  0  0
   40.0515   23.0050   39.3441 H   0  0  0  0  0  0  0  0  0  0  0  0
   38.0568   24.4413   39.4440 H   0  0  0  0  0  0  0  0  0  0  0  0
   36.7203   24.8249   37.4062 H   0  0  0  0  0  0  0  0  0  0  0  0
   37.3997   23.7416   35.2410 H   0  0  0  0  0  0  0  0  0  0  0  0
   39.9390   21.4324   34.7444 H   0  0  0  0  0  0  0  0  0  0  0  0
   39.9624   24.2513   34.3918 H   0  0  0  0  0  0  0  0  0  0  0  0
   40.4725   23.0480   33.1594 H   0  0  0  0  0  0  0  0  0  0  0  0
   38.7893   23.6753   33.1594 H   0  0  0  0  0  0  0  0  0  0  0  0
   37.1585   21.6266   34.9962 H   0  0  0  0  0  0  0  0  0  0  0  0
   37.4242   22.6494   33.5436 H   0  0  0  0  0  0  0  0  0  0  0  0
   37.9563   20.9337   33.5436 H   0  0  0  0  0  0  0  0  0  0  0  0
   41.6890   22.2153   35.2451 H   0  0  0  0  0  0  0  0  0  0  0  0
   42.0525   19.6375   37.4150 H   0  0  0  0  0  0  0  0  0  0  0  0
   43.9780   18.0296   37.5928 H   0  0  0  0  0  0  0  0  0  0  0  0
   46.4747   20.8214   35.5591 H   0  0  0  0  0  0  0  0  0  0  0  0
   42.8103   23.5212   37.7377 H   0  0  0  0  0  0  0  0  0  0  0  0
   43.7942   23.4928   36.2350 H   0  0  0  0  0  0  0  0  0  0  0  0
   42.1769   24.2746   36.2350 H   0  0  0  0  0  0  0  0  0  0  0  0
  1  2  1  0
  2  3  2  0
  3  4  1  0
  5  4  2  0
  6  5  1  0
  7  6  2  0
  7  2  1  0
  8  7  1  0
  9  8  1  0
 10  8  1  0
 11 12  1  0
 11 18  1  0
 11  1  1  0
 12 13  2  0
 13 14  1  0
 15 14  2  0
 16 15  1  0
 17 16  2  0
 17 12  1  0
  1 19  1  0
  1 20  1  0
  3 21  1  0
  4 22  1  0
  5 23  1  0
  6 24  1  0
  8 25  1  0
  9 26  1  0
  9 27  1  0
  9 28  1  0
 10 29  1  0
 10 30  1  0
 10 31  1  0
 11 32  1  6
 13 33  1  0
 14 34  1  0
 16 35  1  0
 18 36  1  0
 18 37  1  0
 18 38  1  0
M  ISO  8  19   8  20   8  21  14  22  14  23  14  24  14  25   8  26   8
M  ISO  8  27   8  28   8  29   8  30   8  31   8  32   8  33  14  34  14
M  ISO  4  35  14  36   8  37   8  38   8
M  END
>  <minimizedAffinity>  (1) 
-4.39078426

>  <minimizedRMSD>  (1) 
0.319628328

$$$$
