
     RDKit          3D

 35 37  0  0  1  0  0  0  0  0999 V2000
   40.7180   21.7020   36.4550 C   0  0  0  0  0  0  0  0  0  0  0  0
   39.7540   22.6070   37.0290 C   0  0  0  0  0  0  0  0  0  0  0  0
   39.6810   22.9710   38.3730 C   0  0  0  0  0  0  0  0  0  0  0  0
   38.7300   23.8500   38.8530 C   0  0  0  0  0  0  0  0  0  0  0  0
   37.8140   24.4030   38.0090 C   0  0  0  0  0  0  0  0  0  0  0  0
   37.8640   24.0560   36.6660 C   0  0  0  0  0  0  0  0  0  0  0  0
   38.8210   23.1670   36.1910 C   0  0  0  0  0  0  0  0  0  0  0  0
   38.5800   22.9190   34.7540 C   0  0  0  0  0  0  0  0  0  0  0  0
   39.2740   23.6420   33.6530 C   0  0  0  0  0  0  0  0  0  0  0  0
   38.4460   22.7170   32.2240 S   0  0  0  0  0  0  0  0  0  0  0  0
   37.3980   21.6120   33.3530 C   0  0  0  0  0  0  0  0  0  0  0  0
   37.6980   21.9650   34.5970 N   0  0  0  0  0  0  0  0  0  0  0  0
   41.9570   22.2340   35.8910 C   0  0  2  0  0  0  0  0  0  0  0  0
   43.0700   21.2570   36.1460 C   0  0  0  0  0  0  0  0  0  0  0  0
   42.8230   20.0680   36.8710 C   0  0  0  0  0  0  0  0  0  0  0  0
   43.8660   19.1860   37.0910 C   0  0  0  0  0  0  0  0  0  0  0  0
   45.0890   19.5300   36.5830 N   0  0  0  0  0  0  0  0  0  0  0  0
   45.3100   20.6680   35.8940 C   0  0  0  0  0  0  0  0  0  0  0  0
   44.2870   21.5290   35.6790 N   0  0  0  0  0  0  0  0  0  0  0  0
   42.4440   23.5260   36.5330 C   0  0  0  0  0  0  0  0  0  0  0  0
   41.0047   20.9950   37.2475 H   0  0  0  0  0  0  0  0  0  0  0  0
   40.1941   21.2860   35.5818 H   0  0  0  0  0  0  0  0  0  0  0  0
   40.4084   22.5418   39.0777 H   0  0  0  0  0  0  0  0  0  0  0  0
   38.7118   24.1052   39.9228 H   0  0  0  0  0  0  0  0  0  0  0  0
   37.0548   25.1060   38.3823 H   0  0  0  0  0  0  0  0  0  0  0  0
   37.1349   24.4913   35.9668 H   0  0  0  0  0  0  0  0  0  0  0  0
   40.0219   24.4485   33.6657 H   0  0  0  0  0  0  0  0  0  0  0  0
   36.6850   20.8349   33.0403 H   0  0  0  0  0  0  0  0  0  0  0  0
   41.7261   22.4137   34.8306 H   0  0  0  0  0  0  0  0  0  0  0  0
   41.8159   19.8476   37.2545 H   0  0  0  0  0  0  0  0  0  0  0  0
   43.7186   18.2498   37.6495 H   0  0  0  0  0  0  0  0  0  0  0  0
   46.3150   20.8955   35.5090 H   0  0  0  0  0  0  0  0  0  0  0  0
   42.4070   23.4280   37.6280 H   0  0  0  0  0  0  0  0  0  0  0  0
   43.4788   23.7249   36.2174 H   0  0  0  0  0  0  0  0  0  0  0  0
   41.7980   24.3585   36.2174 H   0  0  0  0  0  0  0  0  0  0  0  0
  1  2  1  0
  2  3  2  0
  3  4  1  0
  5  4  2  0
  6  5  1  0
  7  6  2  0
  7  2  1  0
  8  7  1  0
  9  8  2  0
 10 11  1  0
 10  9  1  0
 11 12  2  0
 12  8  1  0
 13 14  1  0
 13  1  1  0
 13 20  1  0
 14 15  2  0
 15 16  1  0
 17 16  2  0
 18 17  1  0
 19 18  2  0
 19 14  1  0
  1 21  1  0
  1 22  1  0
  3 23  1  0
  4 24  1  0
  5 25  1  0
  6 26  1  0
  9 27  1  0
 11 28  1  0
 13 29  1  6
 15 30  1  0
 16 31  1  0
 18 32  1  0
 20 33  1  0
 20 34  1  0
 20 35  1  0
M  ISO  8  21   8  22   8  23  14  24  14  25  14  26  14  27  14  28  14
M  ISO  7  29   8  30  14  31  14  32  14  33   8  34   8  35   8
M  END
>  <minimizedAffinity>  (1) 
-4.38512087

>  <minimizedRMSD>  (1) 
1.04663718

$$$$
