
     RDKit          3D

 36 38  0  0  1  0  0  0  0  0999 V2000
   40.9470   21.6760   36.8730 C   0  0  0  0  0  0  0  0  0  0  0  0
   39.8750   22.6190   37.1250 C   0  0  0  0  0  0  0  0  0  0  0  0
   39.5250   23.0290   38.4080 C   0  0  0  0  0  0  0  0  0  0  0  0
   38.4710   23.9110   38.6210 C   0  0  0  0  0  0  0  0  0  0  0  0
   37.7420   24.4050   37.5530 C   0  0  0  0  0  0  0  0  0  0  0  0
   38.0850   23.9990   36.2450 C   0  0  0  0  0  0  0  0  0  0  0  0
   39.1370   23.1220   36.0760 C   0  0  0  0  0  0  0  0  0  0  0  0
   39.2360   22.8590   34.6840 N   0  0  0  0  0  0  0  0  0  0  0  0
   38.6040   21.7860   34.1700 N   0  0  0  0  0  0  0  0  0  0  0  0
   38.8340   21.7680   32.8320 C   0  0  0  0  0  0  0  0  0  0  0  0
   39.6320   22.8590   32.4900 C   0  0  0  0  0  0  0  0  0  0  0  0
   39.8780   23.5440   33.6850 C   0  0  0  0  0  0  0  0  0  0  0  0
   42.1200   22.1670   36.1190 C   0  0  2  0  0  0  0  0  0  0  0  0
   43.2490   21.1840   36.2820 C   0  0  0  0  0  0  0  0  0  0  0  0
   43.0250   19.9670   36.9310 C   0  0  0  0  0  0  0  0  0  0  0  0
   44.0780   19.0830   37.0810 C   0  0  0  0  0  0  0  0  0  0  0  0
   45.2900   19.4680   36.5730 N   0  0  0  0  0  0  0  0  0  0  0  0
   45.4900   20.6410   35.9520 C   0  0  0  0  0  0  0  0  0  0  0  0
   44.4600   21.4900   35.8130 N   0  0  0  0  0  0  0  0  0  0  0  0
   42.6890   23.4700   36.6820 C   0  0  0  0  0  0  0  0  0  0  0  0
   41.3078   21.3178   37.8485 H   0  0  0  0  0  0  0  0  0  0  0  0
   40.4992   20.9060   36.2276 H   0  0  0  0  0  0  0  0  0  0  0  0
   40.0927   22.6483   39.2699 H   0  0  0  0  0  0  0  0  0  0  0  0
   38.2148   24.2183   39.6457 H   0  0  0  0  0  0  0  0  0  0  0  0
   36.9085   25.1030   37.7208 H   0  0  0  0  0  0  0  0  0  0  0  0
   37.5240   24.3748   35.3766 H   0  0  0  0  0  0  0  0  0  0  0  0
   38.4516   21.0128   32.1295 H   0  0  0  0  0  0  0  0  0  0  0  0
   39.9940   23.1264   31.4863 H   0  0  0  0  0  0  0  0  0  0  0  0
   40.4749   24.4607   33.8011 H   0  0  0  0  0  0  0  0  0  0  0  0
   41.7754   22.3064   35.0837 H   0  0  0  0  0  0  0  0  0  0  0  0
   42.0260   19.7158   37.3169 H   0  0  0  0  0  0  0  0  0  0  0  0
   43.9478   18.1143   37.5856 H   0  0  0  0  0  0  0  0  0  0  0  0
   46.4847   20.9029   35.5623 H   0  0  0  0  0  0  0  0  0  0  0  0
   42.6726   23.4325   37.7812 H   0  0  0  0  0  0  0  0  0  0  0  0
   43.7249   23.5979   36.3349 H   0  0  0  0  0  0  0  0  0  0  0  0
   42.0787   24.3168   36.3349 H   0  0  0  0  0  0  0  0  0  0  0  0
  1  2  1  0
  2  3  2  0
  3  4  1  0
  5  4  2  0
  6  5  1  0
  7  6  2  0
  7  2  1  0
  8  7  1  0
  9  8  1  0
 10  9  2  0
 11 10  1  0
 11 12  2  0
 12  8  1  0
 13 14  1  0
 13 20  1  0
 13  1  1  0
 14 15  2  0
 15 16  1  0
 17 16  2  0
 18 17  1  0
 19 18  2  0
 19 14  1  0
  1 21  1  0
  1 22  1  0
  3 23  1  0
  4 24  1  0
  5 25  1  0
  6 26  1  0
 10 27  1  0
 11 28  1  0
 12 29  1  0
 13 30  1  6
 15 31  1  0
 16 32  1  0
 18 33  1  0
 20 34  1  0
 20 35  1  0
 20 36  1  0
M  ISO  8  21   8  22   8  23  14  24  14  25  14  26  14  27  14  28  14
M  ISO  8  29  14  30   8  31  14  32  14  33  14  34   8  35   8  36   8
M  END
>  <minimizedAffinity>  (1) 
-4.35770178

>  <minimizedRMSD>  (1) 
0.520253181

$$$$
