
     RDKit          3D

 32 33  0  0  1  0  0  0  0  0999 V2000
   42.1600   22.1190   36.3010 C   0  0  2  0  0  0  0  0  0  0  0  0
   43.2760   21.1120   36.3980 C   0  0  0  0  0  0  0  0  0  0  0  0
   43.0530   19.8780   37.0190 C   0  0  0  0  0  0  0  0  0  0  0  0
   44.0980   18.9810   37.1040 C   0  0  0  0  0  0  0  0  0  0  0  0
   45.3020   19.3590   36.5690 N   0  0  0  0  0  0  0  0  0  0  0  0
   45.4970   20.5460   35.9760 C   0  0  0  0  0  0  0  0  0  0  0  0
   44.4740   21.4120   35.8980 N   0  0  0  0  0  0  0  0  0  0  0  0
   42.8290   23.4490   36.6480 C   0  0  0  0  0  0  0  0  0  0  0  0
   41.0920   21.7390   37.2380 C   0  0  0  0  0  0  0  0  0  0  0  0
   39.9010   22.5700   37.2750 C   0  0  0  0  0  0  0  0  0  0  0  0
   39.4520   23.2000   38.4350 C   0  0  0  0  0  0  0  0  0  0  0  0
   38.3100   23.9820   38.4500 C   0  0  0  0  0  0  0  0  0  0  0  0
   37.5910   24.1550   37.3070 C   0  0  0  0  0  0  0  0  0  0  0  0
   38.0210   23.5330   36.1390 C   0  0  0  0  0  0  0  0  0  0  0  0
   39.1610   22.7490   36.1220 C   0  0  0  0  0  0  0  0  0  0  0  0
   39.3870   22.1570   34.7810 C   0  0  0  0  0  0  0  0  0  0  0  0
   41.6790   22.1795   35.3136 H   0  0  0  0  0  0  0  0  0  0  0  0
   42.0643   19.6280   37.4312 H   0  0  0  0  0  0  0  0  0  0  0  0
   43.9696   17.9992   37.5832 H   0  0  0  0  0  0  0  0  0  0  0  0
   46.4812   20.8064   35.5594 H   0  0  0  0  0  0  0  0  0  0  0  0
   42.8837   23.5577   37.7412 H   0  0  0  0  0  0  0  0  0  0  0  0
   43.8447   23.4696   36.2262 H   0  0  0  0  0  0  0  0  0  0  0  0
   42.2400   24.2768   36.2262 H   0  0  0  0  0  0  0  0  0  0  0  0
   40.7733   20.7190   36.9772 H   0  0  0  0  0  0  0  0  0  0  0  0
   41.5424   21.8528   38.2351 H   0  0  0  0  0  0  0  0  0  0  0  0
   40.0227   23.0717   39.3666 H   0  0  0  0  0  0  0  0  0  0  0  0
   37.9839   24.4629   39.3840 H   0  0  0  0  0  0  0  0  0  0  0  0
   36.6838   24.7771   37.3068 H   0  0  0  0  0  0  0  0  0  0  0  0
   37.4440   23.6670   35.2121 H   0  0  0  0  0  0  0  0  0  0  0  0
   39.7773   21.1346   34.8926 H   0  0  0  0  0  0  0  0  0  0  0  0
   38.4366   22.1283   34.2279 H   0  0  0  0  0  0  0  0  0  0  0  0
   40.1147   22.7690   34.2279 H   0  0  0  0  0  0  0  0  0  0  0  0
  1  2  1  0
  1  8  1  0
  1  9  1  0
  2  3  2  0
  3  4  1  0
  5  4  2  0
  6  5  1  0
  7  6  2  0
  7  2  1  0
  9 10  1  0
 10 11  2  0
 11 12  1  0
 13 12  2  0
 14 13  1  0
 15 14  2  0
 15 10  1  0
 16 15  1  0
  1 17  1  6
  3 18  1  0
  4 19  1  0
  6 20  1  0
  8 21  1  0
  8 22  1  0
  8 23  1  0
  9 24  1  0
  9 25  1  0
 11 26  1  0
 12 27  1  0
 13 28  1  0
 14 29  1  0
 16 30  1  0
 16 31  1  0
 16 32  1  0
M  ISO  8  17   8  18  14  19  14  20  14  21   8  22   8  23   8  24   8
M  ISO  8  25   8  26  14  27  14  28  14  29  14  30   8  31   8  32   8
M  END
>  <minimizedAffinity>  (1) 
-4.30715322

>  <minimizedRMSD>  (1) 
0.0676702186

$$$$
