
     RDKit          3D

 31 32  0  0  1  0  0  0  0  0999 V2000
   41.0930   21.7200   37.2580 C   0  0  0  0  0  0  0  0  0  0  0  0
   39.9080   22.5530   37.2860 C   0  0  0  0  0  0  0  0  0  0  0  0
   39.4920   23.2050   38.4370 C   0  0  0  0  0  0  0  0  0  0  0  0
   38.3280   23.9730   38.4310 C   0  0  0  0  0  0  0  0  0  0  0  0
   37.5590   24.1120   37.3010 C   0  0  0  0  0  0  0  0  0  0  0  0
   37.9710   23.4560   36.1240 C   0  0  0  0  0  0  0  0  0  0  0  0
   39.1230   22.7050   36.1590 C   0  0  0  0  0  0  0  0  0  0  0  0
   39.3780   22.1120   34.8950 N   0  0  0  0  0  0  0  0  0  0  0  0
   42.1620   22.0930   36.3110 C   0  0  2  0  0  0  0  0  0  0  0  0
   43.2830   21.1070   36.3990 C   0  0  0  0  0  0  0  0  0  0  0  0
   43.0630   19.8740   37.0240 C   0  0  0  0  0  0  0  0  0  0  0  0
   44.1040   18.9710   37.1150 C   0  0  0  0  0  0  0  0  0  0  0  0
   45.3060   19.3450   36.5790 N   0  0  0  0  0  0  0  0  0  0  0  0
   45.5050   20.5390   35.9790 C   0  0  0  0  0  0  0  0  0  0  0  0
   44.4740   21.4060   35.9010 N   0  0  0  0  0  0  0  0  0  0  0  0
   42.8150   23.4360   36.6280 C   0  0  0  0  0  0  0  0  0  0  0  0
   41.5282   21.7309   38.2682 H   0  0  0  0  0  0  0  0  0  0  0  0
   40.7390   20.7381   36.9109 H   0  0  0  0  0  0  0  0  0  0  0  0
   40.0836   23.1159   39.3601 H   0  0  0  0  0  0  0  0  0  0  0  0
   38.0172   24.4811   39.3558 H   0  0  0  0  0  0  0  0  0  0  0  0
   36.6432   24.7211   37.3148 H   0  0  0  0  0  0  0  0  0  0  0  0
   37.3843   23.5425   35.1975 H   0  0  0  0  0  0  0  0  0  0  0  0
   40.2088   21.5177   34.7632 H   0  0  0  0  0  0  0  0  0  0  0  0
   38.7322   22.2760   34.1095 H   0  0  0  0  0  0  0  0  0  0  0  0
   41.6711   22.1280   35.3272 H   0  0  0  0  0  0  0  0  0  0  0  0
   42.0739   19.6275   37.4373 H   0  0  0  0  0  0  0  0  0  0  0  0
   43.9722   17.9917   37.5984 H   0  0  0  0  0  0  0  0  0  0  0  0
   46.4890   20.7995   35.5619 H   0  0  0  0  0  0  0  0  0  0  0  0
   42.8777   23.5649   37.7186 H   0  0  0  0  0  0  0  0  0  0  0  0
   43.8267   23.4627   36.1969 H   0  0  0  0  0  0  0  0  0  0  0  0
   42.2112   24.2481   36.1969 H   0  0  0  0  0  0  0  0  0  0  0  0
  1  2  1  0
  2  3  2  0
  4  3  1  0
  5  4  2  0
  6  7  2  0
  6  5  1  0
  7  2  1  0
  8  7  1  0
  9 10  1  0
  9 16  1  0
  9  1  1  0
 10 11  2  0
 11 12  1  0
 13 12  2  0
 14 13  1  0
 15 14  2  0
 15 10  1  0
  1 17  1  0
  1 18  1  0
  3 19  1  0
  4 20  1  0
  5 21  1  0
  6 22  1  0
  8 23  1  0
  8 24  1  0
  9 25  1  6
 11 26  1  0
 12 27  1  0
 14 28  1  0
 16 29  1  0
 16 30  1  0
 16 31  1  0
M  ISO  8  17   8  18   8  19  14  20  14  21  14  22  14  25   8  26  14
M  ISO  5  27  14  28  14  29   8  30   8  31   8
M  END
>  <minimizedAffinity>  (1) 
-4.27761364

>  <minimizedRMSD>  (1) 
0.110205501

$$$$
