
     RDKit          3D

 30 31  0  0  1  0  0  0  0  0999 V2000
   42.1560   22.1170   36.2290 C   0  0  2  0  0  0  0  0  0  0  0  0
   43.2860   21.1230   36.3550 C   0  0  0  0  0  0  0  0  0  0  0  0
   43.0690   19.8950   36.9860 C   0  0  0  0  0  0  0  0  0  0  0  0
   44.1180   19.0040   37.1020 C   0  0  0  0  0  0  0  0  0  0  0  0
   45.3240   19.3950   36.5780 N   0  0  0  0  0  0  0  0  0  0  0  0
   45.5170   20.5780   35.9730 C   0  0  0  0  0  0  0  0  0  0  0  0
   44.4830   21.4350   35.8690 N   0  0  0  0  0  0  0  0  0  0  0  0
   42.7690   23.4400   36.6620 C   0  0  0  0  0  0  0  0  0  0  0  0
   41.0350   21.6650   37.0770 C   0  0  0  0  0  0  0  0  0  0  0  0
   39.8940   22.5450   37.1960 C   0  0  0  0  0  0  0  0  0  0  0  0
   39.4860   23.1300   38.3900 C   0  0  0  0  0  0  0  0  0  0  0  0
   38.3630   23.9390   38.4470 C   0  0  0  0  0  0  0  0  0  0  0  0
   37.6090   24.1910   37.3140 C   0  0  0  0  0  0  0  0  0  0  0  0
   38.0030   23.6070   36.0890 C   0  0  0  0  0  0  0  0  0  0  0  0
   39.1260   22.8110   36.0810 C   0  0  0  0  0  0  0  0  0  0  0  0
   39.3630   22.1780   34.4260 S   0  0  0  0  0  0  0  0  0  0  0  0
   41.7353   22.2184   35.2177 H   0  0  0  0  0  0  0  0  0  0  0  0
   42.0758   19.6414   37.3850 H   0  0  0  0  0  0  0  0  0  0  0  0
   43.9923   18.0270   37.5915 H   0  0  0  0  0  0  0  0  0  0  0  0
   46.5048   20.8434   35.5683 H   0  0  0  0  0  0  0  0  0  0  0  0
   42.7927   23.4910   37.7606 H   0  0  0  0  0  0  0  0  0  0  0  0
   43.7937   23.5153   36.2693 H   0  0  0  0  0  0  0  0  0  0  0  0
   42.1639   24.2704   36.2693 H   0  0  0  0  0  0  0  0  0  0  0  0
   40.6742   20.7106   36.6659 H   0  0  0  0  0  0  0  0  0  0  0  0
   41.4547   21.6097   38.0923 H   0  0  0  0  0  0  0  0  0  0  0  0
   40.0661   22.9468   39.3065 H   0  0  0  0  0  0  0  0  0  0  0  0
   38.0662   24.3876   39.4065 H   0  0  0  0  0  0  0  0  0  0  0  0
   36.7185   24.8347   37.3662 H   0  0  0  0  0  0  0  0  0  0  0  0
   37.4284   23.7835   35.1677 H   0  0  0  0  0  0  0  0  0  0  0  0
   39.8428   20.8965   34.4916 H   0  0  0  0  0  0  0  0  0  0  0  0
  1  2  1  0
  1  8  1  0
  1  9  1  0
  2  3  2  0
  3  4  1  0
  5  4  2  0
  6  5  1  0
  7  6  2  0
  7  2  1  0
  9 10  1  0
 10 11  2  0
 11 12  1  0
 13 12  2  0
 14 13  1  0
 15 14  2  0
 15 10  1  0
 16 15  1  0
  1 17  1  6
  3 18  1  0
  4 19  1  0
  6 20  1  0
  8 21  1  0
  8 22  1  0
  8 23  1  0
  9 24  1  0
  9 25  1  0
 11 26  1  0
 12 27  1  0
 13 28  1  0
 14 29  1  0
 16 30  1  0
M  ISO  8  17   8  18  14  19  14  20  14  21   8  22   8  23   8  24   8
M  ISO  6  25   8  26  14  27  14  28  14  29  14  30  11
M  END
>  <minimizedAffinity>  (1) 
-4.17410755

>  <minimizedRMSD>  (1) 
0.146041393

$$$$
