
     RDKit          3D

 29 30  0  0  0  0  0  0  0  0999 V2000
   38.1180   23.7000   37.2000 C   0  0  0  0  0  0  0  0  0  0  0  0
   41.4930   22.0040   37.1730 C   0  0  0  0  0  0  0  0  0  0  0  0
   40.1940   22.3140   37.5710 C   0  0  0  0  0  0  0  0  0  0  0  0
   39.4980   23.3010   36.8670 C   0  0  0  0  0  0  0  0  0  0  0  0
   40.1120   23.9290   35.8120 N   0  0  0  0  0  0  0  0  0  0  0  0
   41.3730   23.5970   35.4620 C   0  0  0  0  0  0  0  0  0  0  0  0
   42.0590   22.6400   36.1370 N   0  0  0  0  0  0  0  0  0  0  0  0
   38.1730   24.3820   38.5600 C   0  0  0  0  0  0  0  0  0  0  0  0
   37.4710   24.5860   36.1760 C   0  0  0  0  0  0  0  0  0  0  0  0
   37.2510   22.4580   37.3250 C   0  0  0  0  0  0  0  0  0  0  0  0
   36.8640   21.8750   36.0420 C   0  0  0  0  0  0  0  0  0  0  0  0
   35.7570   21.0450   35.8170 C   0  0  0  0  0  0  0  0  0  0  0  0
   35.7680   20.7220   34.4610 C   0  0  0  0  0  0  0  0  0  0  0  0
   36.8730   21.3770   33.9790 C   0  0  0  0  0  0  0  0  0  0  0  0
   37.5140   22.0500   34.8940 O   0  0  0  0  0  0  0  0  0  0  0  0
   42.0590   21.2309   37.7133 H   0  0  0  0  0  0  0  0  0  0  0  0
   39.7268   21.7937   38.4201 H   0  0  0  0  0  0  0  0  0  0  0  0
   41.8524   24.1107   34.6157 H   0  0  0  0  0  0  0  0  0  0  0  0
   38.1118   23.6228   39.3536 H   0  0  0  0  0  0  0  0  0  0  0  0
   39.1187   24.9358   38.6545 H   0  0  0  0  0  0  0  0  0  0  0  0
   37.3282   25.0802   38.6545 H   0  0  0  0  0  0  0  0  0  0  0  0
   36.8956   25.3740   36.6840 H   0  0  0  0  0  0  0  0  0  0  0  0
   38.2469   25.0464   35.5467 H   0  0  0  0  0  0  0  0  0  0  0  0
   36.7962   23.9871   35.5467 H   0  0  0  0  0  0  0  0  0  0  0  0
   37.8100   21.7012   37.8949 H   0  0  0  0  0  0  0  0  0  0  0  0
   36.3230   22.7656   37.8291 H   0  0  0  0  0  0  0  0  0  0  0  0
   35.0222   20.7130   36.5653 H   0  0  0  0  0  0  0  0  0  0  0  0
   35.0576   20.0904   33.9075 H   0  0  0  0  0  0  0  0  0  0  0  0
   37.1871   21.3384   32.9255 H   0  0  0  0  0  0  0  0  0  0  0  0
  1 10  1  0
  1  8  1  0
  2  3  2  0
  4  1  1  0
  4  3  1  0
  5  4  2  0
  6  5  1  0
  6  7  2  0
  7  2  1  0
  9  1  1  0
 11 10  1  0
 12 11  2  0
 13 12  1  0
 14 13  2  0
 14 15  1  0
 15 11  1  0
  2 16  1  0
  3 17  1  0
  6 18  1  0
  8 19  1  0
  8 20  1  0
  8 21  1  0
  9 22  1  0
  9 23  1  0
  9 24  1  0
 10 25  1  0
 10 26  1  0
 12 27  1  0
 13 28  1  0
 14 29  1  0
M  ISO  8  16  14  17  14  18  14  19   8  20   8  21   8  22   8  23   8
M  ISO  6  24   8  25   8  26   8  27  14  28  14  29  14
M  END
>  <minimizedAffinity>  (1) 
-3.83884668

>  <minimizedRMSD>  (1) 
1.01114941

$$$$
