
     RDKit          3D

 51 55  0  0  1  0  0  0  0  0999 V2000
   40.9770   23.3140   35.6130 C   0  0  0  0  0  0  0  0  0  0  0  0
   39.8940   23.3950   36.5590 C   0  0  0  0  0  0  0  0  0  0  0  0
   40.0670   23.0510   37.8950 C   0  0  0  0  0  0  0  0  0  0  0  0
   39.0150   23.1040   38.8080 C   0  0  0  0  0  0  0  0  0  0  0  0
   37.7540   23.5120   38.3840 C   0  0  0  0  0  0  0  0  0  0  0  0
   37.5750   23.8640   37.0250 C   0  0  0  0  0  0  0  0  0  0  0  0
   38.6470   23.7950   36.1570 C   0  0  0  0  0  0  0  0  0  0  0  0
   38.1650   24.1910   34.8920 N   0  0  0  0  0  0  0  0  0  0  0  0
   38.0250   23.3420   33.8120 C   0  0  0  0  0  0  0  0  0  0  0  0
   37.5290   24.0010   32.7270 N   0  0  0  0  0  0  0  0  0  0  0  0
   37.3500   25.2600   33.1020 C   0  0  0  0  0  0  0  0  0  0  0  0
   36.8980   26.4340   32.5430 C   0  0  0  0  0  0  0  0  0  0  0  0
   36.8120   27.6180   33.1590 N   0  0  0  0  0  0  0  0  0  0  0  0
   37.1980   27.7010   34.4480 C   0  0  0  0  0  0  0  0  0  0  0  0
   37.6540   26.5790   35.0610 N   0  0  0  0  0  0  0  0  0  0  0  0
   37.7350   25.3970   34.4270 C   0  0  0  0  0  0  0  0  0  0  0  0
   41.8550   24.4870   35.4190 C   0  0  2  0  0  0  0  0  0  0  0  0
   41.4170   25.3000   34.2580 C   0  0  0  0  0  0  0  0  0  0  0  0
   41.3010   24.6990   33.0110 C   0  0  0  0  0  0  0  0  0  0  0  0
   40.9160   25.4690   31.9250 C   0  0  0  0  0  0  0  0  0  0  0  0
   40.6710   26.8040   32.1670 N   0  0  0  0  0  0  0  0  0  0  0  0
   40.7890   27.3640   33.3800 C   0  0  0  0  0  0  0  0  0  0  0  0
   41.1630   26.5870   34.4010 N   0  0  0  0  0  0  0  0  0  0  0  0
   43.2970   24.1030   35.1370 C   0  0  0  0  0  0  0  0  0  0  0  0
   44.2600   24.3520   36.1390 N   0  0  0  0  0  0  0  0  0  0  0  0
   44.3630   25.1530   37.2400 C   0  0  0  0  0  0  0  0  0  0  0  0
   45.4820   25.2200   38.0080 C   0  0  0  0  0  0  0  0  0  0  0  0
   46.5970   24.4850   37.7300 C   0  0  0  0  0  0  0  0  0  0  0  0
   47.7230   24.6160   38.5840 N   0  0  0  0  0  0  0  0  0  0  0  0
   46.5290   23.6790   36.6400 N   0  0  0  0  0  0  0  0  0  0  0  0
   45.3900   23.6360   35.8940 C   0  0  0  0  0  0  0  0  0  0  0  0
   45.5880   22.8140   34.9450 O   0  0  0  0  0  0  0  0  0  0  0  0
   41.6202   22.4805   35.9316 H   0  0  0  0  0  0  0  0  0  0  0  0
   40.4693   23.2044   34.6433 H   0  0  0  0  0  0  0  0  0  0  0  0
   41.0602   22.7285   38.2406 H   0  0  0  0  0  0  0  0  0  0  0  0
   39.1809   22.8246   39.8589 H   0  0  0  0  0  0  0  0  0  0  0  0
   36.9129   23.5600   39.0912 H   0  0  0  0  0  0  0  0  0  0  0  0
   36.5890   24.1903   36.6626 H   0  0  0  0  0  0  0  0  0  0  0  0
   38.2807   22.2722   33.8256 H   0  0  0  0  0  0  0  0  0  0  0  0
   36.5776   26.3946   31.4914 H   0  0  0  0  0  0  0  0  0  0  0  0
   37.1446   28.6563   34.9907 H   0  0  0  0  0  0  0  0  0  0  0  0
   41.7871   25.0487   36.3623 H   0  0  0  0  0  0  0  0  0  0  0  0
   41.5119   23.6265   32.8872 H   0  0  0  0  0  0  0  0  0  0  0  0
   40.8110   25.0362   30.9192 H   0  0  0  0  0  0  0  0  0  0  0  0
   40.5835   28.4341   33.5304 H   0  0  0  0  0  0  0  0  0  0  0  0
   43.3128   23.0227   34.9302 H   0  0  0  0  0  0  0  0  0  0  0  0
   43.5955   24.7550   34.3028 H   0  0  0  0  0  0  0  0  0  0  0  0
   43.4987   25.7738   37.5186 H   0  0  0  0  0  0  0  0  0  0  0  0
   45.4889   25.8882   38.8817 H   0  0  0  0  0  0  0  0  0  0  0  0
   48.5776   24.0724   38.3965 H   0  0  0  0  0  0  0  0  0  0  0  0
   47.6856   25.2547   39.3912 H   0  0  0  0  0  0  0  0  0  0  0  0
  1  2  1  0
  2  3  2  0
  3  4  1  0
  5  4  2  0
  6  5  1  0
  7  2  1  0
  7  6  2  0
  8  7  1  0
  9  8  1  0
 10 11  1  0
 10  9  2  0
 11 16  2  0
 12 11  1  0
 12 13  2  0
 13 14  1  0
 14 15  2  0
 16  8  1  0
 16 15  1  0
 17  1  1  0
 18 23  1  0
 18 17  1  0
 19 18  2  0
 20 21  2  0
 20 19  1  0
 21 22  1  0
 22 23  2  0
 24 17  1  0
 24 25  1  0
 25 26  1  0
 26 27  2  0
 28 27  1  0
 28 29  1  0
 30 28  2  0
 31 25  1  0
 31 30  1  0
 32 31  2  0
  1 33  1  0
  1 34  1  0
  3 35  1  0
  4 36  1  0
  5 37  1  0
  6 38  1  0
  9 39  1  0
 12 40  1  0
 14 41  1  0
 17 42  1  1
 19 43  1  0
 20 44  1  0
 22 45  1  0
 24 46  1  0
 24 47  1  0
 26 48  1  0
 27 49  1  0
 29 50  1  0
 29 51  1  0
M  ISO  8  33   8  34   8  35  14  36  14  37  14  38  14  39  14  40  14
M  ISO  8  41  14  42   8  43  14  44  14  45  14  46   8  47   8  48  14
M  ISO  1  49  14
M  END
>  <minimizedAffinity>  (1) 
-5.95899439

>  <minimizedRMSD>  (1) 
1.94349015

$$$$
