
     RDKit          3D

 55 59  0  0  1  0  0  0  0  0999 V2000
   41.3100   22.9220   35.8570 C   0  0  0  0  0  0  0  0  0  0  0  0
   40.1250   23.2610   36.6050 C   0  0  0  0  0  0  0  0  0  0  0  0
   40.0120   22.9850   37.9610 C   0  0  0  0  0  0  0  0  0  0  0  0
   38.8550   23.2960   38.6810 C   0  0  0  0  0  0  0  0  0  0  0  0
   37.7880   23.8980   38.0340 C   0  0  0  0  0  0  0  0  0  0  0  0
   37.8980   24.1830   36.6510 C   0  0  0  0  0  0  0  0  0  0  0  0
   39.0640   23.8540   35.9820 C   0  0  0  0  0  0  0  0  0  0  0  0
   38.8710   24.2410   34.6380 N   0  0  0  0  0  0  0  0  0  0  0  0
   38.0650   23.5660   33.7440 C   0  0  0  0  0  0  0  0  0  0  0  0
   38.0680   24.1750   32.5230 N   0  0  0  0  0  0  0  0  0  0  0  0
   38.8700   25.2360   32.6310 C   0  0  0  0  0  0  0  0  0  0  0  0
   39.3200   26.2570   31.8290 C   0  0  0  0  0  0  0  0  0  0  0  0
   40.1620   27.2430   32.1950 N   0  0  0  0  0  0  0  0  0  0  0  0
   40.6170   27.2510   33.4540 C   0  0  0  0  0  0  0  0  0  0  0  0
   40.2120   26.2680   34.3010 N   0  0  0  0  0  0  0  0  0  0  0  0
   39.3660   25.2870   33.9180 C   0  0  0  0  0  0  0  0  0  0  0  0
   42.6120   22.8940   36.5390 C   0  0  2  0  0  0  0  0  0  0  0  0
   43.4200   24.1020   36.2420 C   0  0  0  0  0  0  0  0  0  0  0  0
   43.2780   24.7080   34.9980 C   0  0  0  0  0  0  0  0  0  0  0  0
   44.0640   25.8200   34.7030 C   0  0  0  0  0  0  0  0  0  0  0  0
   44.9340   26.2410   35.6790 N   0  0  0  0  0  0  0  0  0  0  0  0
   45.0510   25.6380   36.8740 C   0  0  0  0  0  0  0  0  0  0  0  0
   44.2810   24.5610   37.1460 N   0  0  0  0  0  0  0  0  0  0  0  0
   43.4840   21.7080   36.1720 C   0  0  0  0  0  0  0  0  0  0  0  0
   42.9080   20.4910   35.8840 N   0  0  0  0  0  0  0  0  0  0  0  0
   43.0580   19.7570   34.7090 C   0  0  0  0  0  0  0  0  0  0  0  0
   44.3550   19.0080   34.5730 C   0  0  0  0  0  0  0  0  0  0  0  0
   45.0530   18.7030   35.8510 C   0  0  0  0  0  0  0  0  0  0  0  0
   44.3640   19.0210   37.1170 C   0  0  0  0  0  0  0  0  0  0  0  0
   42.9610   19.5560   36.9870 C   0  0  0  0  0  0  0  0  0  0  0  0
   41.3925   23.6532   35.0393 H   0  0  0  0  0  0  0  0  0  0  0  0
   41.1446   21.8726   35.5718 H   0  0  0  0  0  0  0  0  0  0  0  0
   40.8554   22.5089   38.4826 H   0  0  0  0  0  0  0  0  0  0  0  0
   38.7920   23.0643   39.7545 H   0  0  0  0  0  0  0  0  0  0  0  0
   36.8703   24.1505   38.5855 H   0  0  0  0  0  0  0  0  0  0  0  0
   37.0653   24.6609   36.1142 H   0  0  0  0  0  0  0  0  0  0  0  0
   37.4950   22.6564   33.9842 H   0  0  0  0  0  0  0  0  0  0  0  0
   38.9587   26.2706   30.7901 H   0  0  0  0  0  0  0  0  0  0  0  0
   41.3053   28.0378   33.7964 H   0  0  0  0  0  0  0  0  0  0  0  0
   42.3376   22.8333   37.6025 H   0  0  0  0  0  0  0  0  0  0  0  0
   42.5598   24.3173   34.2621 H   0  0  0  0  0  0  0  0  0  0  0  0
   43.9913   26.3363   33.7344 H   0  0  0  0  0  0  0  0  0  0  0  0
   45.7642   26.0160   37.6213 H   0  0  0  0  0  0  0  0  0  0  0  0
   44.0632   22.0027   35.2845 H   0  0  0  0  0  0  0  0  0  0  0  0
   44.0425   21.5095   37.0986 H   0  0  0  0  0  0  0  0  0  0  0  0
   42.2378   19.0256   34.6596 H   0  0  0  0  0  0  0  0  0  0  0  0
   43.0474   20.4923   33.8909 H   0  0  0  0  0  0  0  0  0  0  0  0
   44.1449   18.0551   34.0653 H   0  0  0  0  0  0  0  0  0  0  0  0
   45.0295   19.6698   34.0098 H   0  0  0  0  0  0  0  0  0  0  0  0
   45.2643   17.6235   35.8573 H   0  0  0  0  0  0  0  0  0  0  0  0
   45.9313   19.3653   35.8458 H   0  0  0  0  0  0  0  0  0  0  0  0
   44.3192   18.1000   37.7168 H   0  0  0  0  0  0  0  0  0  0  0  0
   44.9491   19.8297   37.5791 H   0  0  0  0  0  0  0  0  0  0  0  0
   42.6750   20.0683   37.9175 H   0  0  0  0  0  0  0  0  0  0  0  0
   42.2647   18.7251   36.8006 H   0  0  0  0  0  0  0  0  0  0  0  0
  1 17  1  0
  1  2  1  0
  2  3  2  0
  3  4  1  0
  5  4  2  0
  6  5  1  0
  7  2  1  0
  7  6  2  0
  8  7  1  0
  9  8  1  0
 10 11  1  0
 10  9  2  0
 11 16  2  0
 12 13  2  0
 12 11  1  0
 13 14  1  0
 14 15  2  0
 16 15  1  0
 16  8  1  0
 18 17  1  0
 18 23  1  0
 19 18  2  0
 20 19  1  0
 20 21  2  0
 21 22  1  0
 22 23  2  0
 24 17  1  0
 25 24  1  0
 25 30  1  0
 26 25  1  0
 27 26  1  0
 27 28  1  0
 28 29  1  0
 30 29  1  0
  1 31  1  0
  1 32  1  0
  3 33  1  0
  4 34  1  0
  5 35  1  0
  6 36  1  0
  9 37  1  0
 12 38  1  0
 14 39  1  0
 17 40  1  1
 19 41  1  0
 20 42  1  0
 22 43  1  0
 24 44  1  0
 24 45  1  0
 26 46  1  0
 26 47  1  0
 27 48  1  0
 27 49  1  0
 28 50  1  0
 28 51  1  0
 29 52  1  0
 29 53  1  0
 30 54  1  0
 30 55  1  0
M  ISO  8  31   8  32   8  33  14  34  14  35  14  36  14  37  14  38  14
M  ISO  8  39  14  40   8  41  14  42  14  43  14  44   8  45   8  46  13
M  ISO  8  47  13  48  13  49  13  50  13  51  13  52  13  53  13  54  13
M  ISO  1  55  13
M  END
>  <minimizedAffinity>  (1) 
-5.5332818

>  <minimizedRMSD>  (1) 
2.37055874

$$$$
