
     RDKit          3D

 54 58  0  0  1  0  0  0  0  0999 V2000
   40.7420   23.3570   35.1420 C   0  0  0  0  0  0  0  0  0  0  0  0
   39.7640   23.4980   36.1900 C   0  0  0  0  0  0  0  0  0  0  0  0
   40.0060   23.0510   37.4830 C   0  0  0  0  0  0  0  0  0  0  0  0
   39.0510   23.1560   38.4880 C   0  0  0  0  0  0  0  0  0  0  0  0
   37.8180   23.7210   38.2050 C   0  0  0  0  0  0  0  0  0  0  0  0
   37.5620   24.1810   36.8880 C   0  0  0  0  0  0  0  0  0  0  0  0
   38.5450   24.0530   35.9230 C   0  0  0  0  0  0  0  0  0  0  0  0
   38.0010   24.5850   34.7340 N   0  0  0  0  0  0  0  0  0  0  0  0
   37.8220   23.8610   33.5720 C   0  0  0  0  0  0  0  0  0  0  0  0
   37.2700   24.6290   32.5910 N   0  0  0  0  0  0  0  0  0  0  0  0
   37.0960   25.8380   33.1170 C   0  0  0  0  0  0  0  0  0  0  0  0
   36.6070   27.0680   32.7200 C   0  0  0  0  0  0  0  0  0  0  0  0
   36.5400   28.1670   33.4650 N   0  0  0  0  0  0  0  0  0  0  0  0
   36.9820   28.1100   34.7390 C   0  0  0  0  0  0  0  0  0  0  0  0
   37.4770   26.9280   35.1950 N   0  0  0  0  0  0  0  0  0  0  0  0
   37.5390   25.8300   34.4310 C   0  0  0  0  0  0  0  0  0  0  0  0
   42.1410   23.7140   35.4320 C   0  0  2  0  0  0  0  0  0  0  0  0
   42.4840   25.0330   34.7910 C   0  0  0  0  0  0  0  0  0  0  0  0
   41.4620   25.9080   34.4210 C   0  0  0  0  0  0  0  0  0  0  0  0
   41.7850   27.1050   33.8150 C   0  0  0  0  0  0  0  0  0  0  0  0
   43.1120   27.3630   33.6120 N   0  0  0  0  0  0  0  0  0  0  0  0
   44.0820   26.5170   33.9700 C   0  0  0  0  0  0  0  0  0  0  0  0
   43.7490   25.3610   34.5580 N   0  0  0  0  0  0  0  0  0  0  0  0
   43.1560   22.7530   34.8460 C   0  0  0  0  0  0  0  0  0  0  0  0
   43.2430   21.5000   35.4440 N   0  0  0  0  0  0  0  0  0  0  0  0
   42.8400   20.3380   34.7520 C   0  0  0  0  0  0  0  0  0  0  0  0
   43.4380   19.1460   35.5010 C   0  0  0  0  0  0  0  0  0  0  0  0
   42.8180   19.0340   36.8090 N   0  0  0  0  0  0  0  0  0  0  0  0
   42.5130   20.2820   37.4320 C   0  0  0  0  0  0  0  0  0  0  0  0
   43.3460   21.4040   36.8570 C   0  0  0  0  0  0  0  0  0  0  0  0
   40.4129   23.9890   34.3040 H   0  0  0  0  0  0  0  0  0  0  0  0
   40.7753   22.2745   34.9495 H   0  0  0  0  0  0  0  0  0  0  0  0
   40.9817   22.6009   37.7185 H   0  0  0  0  0  0  0  0  0  0  0  0
   39.2731   22.7925   39.5022 H   0  0  0  0  0  0  0  0  0  0  0  0
   37.0509   23.8113   38.9882 H   0  0  0  0  0  0  0  0  0  0  0  0
   36.5920   24.6348   36.6365 H   0  0  0  0  0  0  0  0  0  0  0  0
   38.0904   22.8009   33.4534 H   0  0  0  0  0  0  0  0  0  0  0  0
   36.2372   27.1453   31.6869 H   0  0  0  0  0  0  0  0  0  0  0  0
   36.9430   28.9953   35.3907 H   0  0  0  0  0  0  0  0  0  0  0  0
   42.1982   23.7148   36.5305 H   0  0  0  0  0  0  0  0  0  0  0  0
   40.4104   25.6465   34.6103 H   0  0  0  0  0  0  0  0  0  0  0  0
   41.0080   27.8208   33.5085 H   0  0  0  0  0  0  0  0  0  0  0  0
   45.1373   26.7661   33.7847 H   0  0  0  0  0  0  0  0  0  0  0  0
   42.8993   22.6007   33.7873 H   0  0  0  0  0  0  0  0  0  0  0  0
   44.1350   23.2249   35.0160 H   0  0  0  0  0  0  0  0  0  0  0  0
   41.7424   20.2658   34.7407 H   0  0  0  0  0  0  0  0  0  0  0  0
   43.1858   20.3612   33.7080 H   0  0  0  0  0  0  0  0  0  0  0  0
   43.2551   18.2245   34.9287 H   0  0  0  0  0  0  0  0  0  0  0  0
   44.5212   19.2951   35.6210 H   0  0  0  0  0  0  0  0  0  0  0  0
   41.9407   18.5045   36.7042 H   0  0  0  0  0  0  0  0  0  0  0  0
   41.4484   20.5098   37.2745 H   0  0  0  0  0  0  0  0  0  0  0  0
   42.7398   20.1976   38.5050 H   0  0  0  0  0  0  0  0  0  0  0  0
   44.3995   21.2300   37.1212 H   0  0  0  0  0  0  0  0  0  0  0  0
   42.9682   22.3463   37.2805 H   0  0  0  0  0  0  0  0  0  0  0  0
  1 17  1  0
  1  2  1  0
  2  3  2  0
  3  4  1  0
  5  4  2  0
  6  5  1  0
  7  2  1  0
  7  6  2  0
  8  7  1  0
  9  8  1  0
 10 11  1  0
 10  9  2  0
 11 16  2  0
 12 11  1  0
 12 13  2  0
 13 14  1  0
 14 15  2  0
 16  8  1  0
 16 15  1  0
 18 17  1  0
 19 18  2  0
 20 19  1  0
 21 20  2  0
 21 22  1  0
 22 23  2  0
 23 18  1  0
 24 17  1  0
 24 25  1  0
 25 30  1  0
 26 25  1  0
 26 27  1  0
 27 28  1  0
 28 29  1  0
 30 29  1  0
  1 31  1  0
  1 32  1  0
  3 33  1  0
  4 34  1  0
  5 35  1  0
  6 36  1  0
  9 37  1  0
 12 38  1  0
 14 39  1  0
 17 40  1  1
 19 41  1  0
 20 42  1  0
 22 43  1  0
 24 44  1  0
 24 45  1  0
 26 46  1  0
 26 47  1  0
 27 48  1  0
 27 49  1  0
 28 50  1  0
 29 51  1  0
 29 52  1  0
 30 53  1  0
 30 54  1  0
M  ISO  8  31   8  32   8  33  14  34  14  35  14  36  14  37  14  38  14
M  ISO  8  39  14  40   8  41  14  42  14  43  14  44   8  45   8  46  13
M  ISO  8  47  13  48  13  49  13  50   5  51  13  52  13  53  13  54  13
M  END
>  <minimizedAffinity>  (1) 
-5.44578695

>  <minimizedRMSD>  (1) 
1.23393285

$$$$
