
     RDKit          3D

 47 51  0  0  1  0  0  0  0  0999 V2000
   40.9520   22.9760   35.4340 C   0  0  0  0  0  0  0  0  0  0  0  0
   39.8910   23.1850   36.3930 C   0  0  0  0  0  0  0  0  0  0  0  0
   40.0960   23.0180   37.7580 C   0  0  0  0  0  0  0  0  0  0  0  0
   39.0690   23.1960   38.6820 C   0  0  0  0  0  0  0  0  0  0  0  0
   37.8040   23.5490   38.2380 C   0  0  0  0  0  0  0  0  0  0  0  0
   37.5930   23.7200   36.8520 C   0  0  0  0  0  0  0  0  0  0  0  0
   38.6410   23.5340   35.9650 C   0  0  0  0  0  0  0  0  0  0  0  0
   38.1270   23.7640   34.6730 N   0  0  0  0  0  0  0  0  0  0  0  0
   37.7330   22.7650   33.8060 C   0  0  0  0  0  0  0  0  0  0  0  0
   37.2690   23.2780   32.6360 N   0  0  0  0  0  0  0  0  0  0  0  0
   37.3640   24.6020   32.7460 C   0  0  0  0  0  0  0  0  0  0  0  0
   37.0890   25.7180   31.9780 C   0  0  0  0  0  0  0  0  0  0  0  0
   37.2850   26.9960   32.3370 N   0  0  0  0  0  0  0  0  0  0  0  0
   37.8000   27.2440   33.5590 C   0  0  0  0  0  0  0  0  0  0  0  0
   38.0890   26.1920   34.3580 N   0  0  0  0  0  0  0  0  0  0  0  0
   37.8890   24.9230   33.9900 C   0  0  0  0  0  0  0  0  0  0  0  0
   42.3120   23.4040   35.7730 C   0  0  2  0  0  0  0  0  0  0  0  0
   42.6400   24.7190   35.1600 C   0  0  0  0  0  0  0  0  0  0  0  0
   41.6120   25.5040   34.6470 C   0  0  0  0  0  0  0  0  0  0  0  0
   41.9140   26.7170   34.0610 C   0  0  0  0  0  0  0  0  0  0  0  0
   43.2420   27.0730   34.0220 N   0  0  0  0  0  0  0  0  0  0  0  0
   44.2160   26.3100   34.5180 C   0  0  0  0  0  0  0  0  0  0  0  0
   43.9050   25.1310   35.0880 N   0  0  0  0  0  0  0  0  0  0  0  0
   43.4060   22.4640   35.2760 C   0  0  0  0  0  0  0  0  0  0  0  0
   43.5160   21.2460   36.0050 N   0  0  0  0  0  0  0  0  0  0  0  0
   44.6340   20.5070   35.9500 N   0  0  0  0  0  0  0  0  0  0  0  0
   44.5170   19.4100   36.6920 C   0  0  0  0  0  0  0  0  0  0  0  0
   43.2670   19.4010   37.2760 C   0  0  0  0  0  0  0  0  0  0  0  0
   42.6770   20.5730   36.8140 C   0  0  0  0  0  0  0  0  0  0  0  0
   40.6659   23.5096   34.5157 H   0  0  0  0  0  0  0  0  0  0  0  0
   41.0306   21.8811   35.3628 H   0  0  0  0  0  0  0  0  0  0  0  0
   41.0968   22.7376   38.1182 H   0  0  0  0  0  0  0  0  0  0  0  0
   39.2603   23.0575   39.7563 H   0  0  0  0  0  0  0  0  0  0  0  0
   36.9798   23.6933   38.9520 H   0  0  0  0  0  0  0  0  0  0  0  0
   36.5976   24.0006   36.4771 H   0  0  0  0  0  0  0  0  0  0  0  0
   37.7876   21.6901   34.0331 H   0  0  0  0  0  0  0  0  0  0  0  0
   36.6693   25.5415   30.9767 H   0  0  0  0  0  0  0  0  0  0  0  0
   37.9802   28.2753   33.8967 H   0  0  0  0  0  0  0  0  0  0  0  0
   42.3011   23.4314   36.8726 H   0  0  0  0  0  0  0  0  0  0  0  0
   40.5685   25.1613   34.7078 H   0  0  0  0  0  0  0  0  0  0  0  0
   41.1303   27.3674   33.6453 H   0  0  0  0  0  0  0  0  0  0  0  0
   45.2636   26.6407   34.4620 H   0  0  0  0  0  0  0  0  0  0  0  0
   43.1951   22.2172   34.2250 H   0  0  0  0  0  0  0  0  0  0  0  0
   44.3595   22.9957   35.4109 H   0  0  0  0  0  0  0  0  0  0  0  0
   45.2893   18.6371   36.8193 H   0  0  0  0  0  0  0  0  0  0  0  0
   42.8376   18.6444   37.9492 H   0  0  0  0  0  0  0  0  0  0  0  0
   41.6613   20.9051   37.0748 H   0  0  0  0  0  0  0  0  0  0  0  0
  1 17  1  0
  1  2  1  0
  2  3  2  0
  3  4  1  0
  5  4  2  0
  6  5  1  0
  7  2  1  0
  7  6  2  0
  8  7  1  0
  9  8  1  0
 10 11  1  0
 10  9  2  0
 11 16  2  0
 12 13  2  0
 12 11  1  0
 13 14  1  0
 14 15  2  0
 16 15  1  0
 16  8  1  0
 18 17  1  0
 19 18  2  0
 20 19  1  0
 21 20  2  0
 21 22  1  0
 22 23  2  0
 23 18  1  0
 24 17  1  0
 24 25  1  0
 25 29  1  0
 26 25  1  0
 26 27  2  0
 27 28  1  0
 29 28  2  0
  1 30  1  0
  1 31  1  0
  3 32  1  0
  4 33  1  0
  5 34  1  0
  6 35  1  0
  9 36  1  0
 12 37  1  0
 14 38  1  0
 17 39  1  1
 19 40  1  0
 20 41  1  0
 22 42  1  0
 24 43  1  0
 24 44  1  0
 27 45  1  0
 28 46  1  0
 29 47  1  0
M  ISO  8  30   8  31   8  32  14  33  14  34  14  35  14  36  14  37  14
M  ISO  8  38  14  39   8  40  14  41  14  42  14  43   8  44   8  45  14
M  ISO  2  46  14  47  14
M  END
>  <minimizedAffinity>  (1) 
-5.31225157

>  <minimizedRMSD>  (1) 
0.602390885

$$$$
