
     RDKit          3D

 35 36  0  0  0  0  0  0  0  0999 V2000
   38.1440   23.7470   37.0780 C   0  0  0  0  0  0  0  0  0  0  0  0
   41.5800   22.1650   37.2310 C   0  0  0  0  0  0  0  0  0  0  0  0
   40.2550   22.4170   37.5730 C   0  0  0  0  0  0  0  0  0  0  0  0
   39.5450   23.3710   36.8410 C   0  0  0  0  0  0  0  0  0  0  0  0
   40.1890   24.0190   35.8140 N   0  0  0  0  0  0  0  0  0  0  0  0
   41.4720   23.7520   35.5090 C   0  0  0  0  0  0  0  0  0  0  0  0
   42.1720   22.8320   36.2080 N   0  0  0  0  0  0  0  0  0  0  0  0
   38.1340   24.3270   38.5200 C   0  0  0  0  0  0  0  0  0  0  0  0
   37.5900   24.7590   36.1270 C   0  0  0  0  0  0  0  0  0  0  0  0
   37.2740   22.5190   37.0840 C   0  0  0  0  0  0  0  0  0  0  0  0
   36.6740   22.1110   35.8040 C   0  0  0  0  0  0  0  0  0  0  0  0
   37.7500   21.6480   34.7910 C   0  0  0  0  0  0  0  0  0  0  0  0
   36.8180   21.3020   33.6490 C   0  0  0  0  0  0  0  0  0  0  0  0
   35.5820   20.7130   34.2950 C   0  0  0  0  0  0  0  0  0  0  0  0
   35.8300   20.8660   35.8070 C   0  0  0  0  0  0  0  0  0  0  0  0
   42.1544   21.4164   37.7964 H   0  0  0  0  0  0  0  0  0  0  0  0
   39.7767   21.8760   38.4028 H   0  0  0  0  0  0  0  0  0  0  0  0
   41.9567   24.2893   34.6805 H   0  0  0  0  0  0  0  0  0  0  0  0
   38.1482   23.5018   39.2472 H   0  0  0  0  0  0  0  0  0  0  0  0
   39.0214   24.9603   38.6666 H   0  0  0  0  0  0  0  0  0  0  0  0
   37.2253   24.9293   38.6666 H   0  0  0  0  0  0  0  0  0  0  0  0
   37.1374   25.5858   36.6940 H   0  0  0  0  0  0  0  0  0  0  0  0
   38.4003   25.1491   35.4936 H   0  0  0  0  0  0  0  0  0  0  0  0
   36.8247   24.2866   35.4936 H   0  0  0  0  0  0  0  0  0  0  0  0
   37.8886   21.6804   37.4431 H   0  0  0  0  0  0  0  0  0  0  0  0
   36.4198   22.7812   37.7255 H   0  0  0  0  0  0  0  0  0  0  0  0
   36.0961   23.0176   35.5715 H   0  0  0  0  0  0  0  0  0  0  0  0
   38.4512   22.4539   34.5286 H   0  0  0  0  0  0  0  0  0  0  0  0
   38.4222   20.8457   35.1293 H   0  0  0  0  0  0  0  0  0  0  0  0
   37.2882   20.5670   32.9791 H   0  0  0  0  0  0  0  0  0  0  0  0
   36.5765   22.1852   33.0394 H   0  0  0  0  0  0  0  0  0  0  0  0
   34.6819   21.2671   33.9902 H   0  0  0  0  0  0  0  0  0  0  0  0
   35.4140   19.6663   34.0016 H   0  0  0  0  0  0  0  0  0  0  0  0
   36.3738   20.0043   36.2215 H   0  0  0  0  0  0  0  0  0  0  0  0
   34.9210   20.9219   36.4240 H   0  0  0  0  0  0  0  0  0  0  0  0
  1 10  1  0
  1  8  1  0
  2  3  2  0
  4  1  1  0
  4  3  1  0
  5  4  2  0
  6  5  1  0
  6  7  2  0
  7  2  1  0
  9  1  1  0
 11 15  1  0
 11 10  1  0
 12 11  1  0
 13 14  1  0
 13 12  1  0
 14 15  1  0
  2 16  1  0
  3 17  1  0
  6 18  1  0
  8 19  1  0
  8 20  1  0
  8 21  1  0
  9 22  1  0
  9 23  1  0
  9 24  1  0
 10 25  1  0
 10 26  1  0
 11 27  1  0
 12 28  1  0
 12 29  1  0
 13 30  1  0
 13 31  1  0
 14 32  1  0
 14 33  1  0
 15 34  1  0
 15 35  1  0
M  ISO  8  16  14  17  14  18  14  19   8  20   8  21   8  22   8  23   8
M  ISO  8  24   8  25   8  26   8  27  13  28  13  29  13  30  13  31  13
M  ISO  4  32  13  33  13  34  13  35  13
M  END
>  <minimizedAffinity>  (1) 
-3.77586412

>  <minimizedRMSD>  (1) 
0.926805973

$$$$
