
     RDKit          3D

 47 51  0  0  1  0  0  0  0  0999 V2000
   41.0940   23.1050   35.7490 C   0  0  0  0  0  0  0  0  0  0  0  0
   39.9390   23.2540   36.6000 C   0  0  0  0  0  0  0  0  0  0  0  0
   40.0240   23.1170   37.9830 C   0  0  0  0  0  0  0  0  0  0  0  0
   38.9050   23.2390   38.8010 C   0  0  0  0  0  0  0  0  0  0  0  0
   37.6690   23.5030   38.2390 C   0  0  0  0  0  0  0  0  0  0  0  0
   37.5700   23.6450   36.8350 C   0  0  0  0  0  0  0  0  0  0  0  0
   38.7130   23.5160   36.0580 C   0  0  0  0  0  0  0  0  0  0  0  0
   38.3070   23.7030   34.7220 N   0  0  0  0  0  0  0  0  0  0  0  0
   37.8570   22.6890   33.8950 C   0  0  0  0  0  0  0  0  0  0  0  0
   37.5260   23.1600   32.6640 N   0  0  0  0  0  0  0  0  0  0  0  0
   37.7580   24.4650   32.6930 C   0  0  0  0  0  0  0  0  0  0  0  0
   37.6530   25.5360   31.8270 C   0  0  0  0  0  0  0  0  0  0  0  0
   37.9680   26.8130   32.1140 N   0  0  0  0  0  0  0  0  0  0  0  0
   38.4270   27.0990   33.3420 C   0  0  0  0  0  0  0  0  0  0  0  0
   38.5540   26.0900   34.2400 N   0  0  0  0  0  0  0  0  0  0  0  0
   38.2380   24.8220   33.9440 C   0  0  0  0  0  0  0  0  0  0  0  0
   42.4030   23.5340   36.2620 C   0  0  2  0  0  0  0  0  0  0  0  0
   42.9180   24.7150   35.5200 C   0  0  0  0  0  0  0  0  0  0  0  0
   42.0630   25.4100   34.6770 C   0  0  0  0  0  0  0  0  0  0  0  0
   42.5390   26.4990   33.9730 C   0  0  0  0  0  0  0  0  0  0  0  0
   43.8650   26.8260   34.1640 N   0  0  0  0  0  0  0  0  0  0  0  0
   44.6780   26.1430   34.9820 C   0  0  0  0  0  0  0  0  0  0  0  0
   44.1920   25.0860   35.6570 N   0  0  0  0  0  0  0  0  0  0  0  0
   43.4940   22.4660   36.0940 C   0  0  0  0  0  0  0  0  0  0  0  0
   43.2460   21.6380   34.9020 C   0  0  0  0  0  0  0  0  0  0  0  0
   43.0230   20.2810   35.1100 C   0  0  0  0  0  0  0  0  0  0  0  0
   42.8150   19.6970   33.8740 C   0  0  0  0  0  0  0  0  0  0  0  0
   42.9200   20.7300   32.9680 C   0  0  0  0  0  0  0  0  0  0  0  0
   43.1700   21.8320   33.6070 O   0  0  0  0  0  0  0  0  0  0  0  0
   40.8991   23.6821   34.8331 H   0  0  0  0  0  0  0  0  0  0  0  0
   41.1974   22.0171   35.6232 H   0  0  0  0  0  0  0  0  0  0  0  0
   41.0017   22.9067   38.4411 H   0  0  0  0  0  0  0  0  0  0  0  0
   39.0030   23.1259   39.8908 H   0  0  0  0  0  0  0  0  0  0  0  0
   36.7764   23.6011   38.8743 H   0  0  0  0  0  0  0  0  0  0  0  0
   36.5983   23.8553   36.3643 H   0  0  0  0  0  0  0  0  0  0  0  0
   37.7772   21.6341   34.1962 H   0  0  0  0  0  0  0  0  0  0  0  0
   37.2791   25.3271   30.8138 H   0  0  0  0  0  0  0  0  0  0  0  0
   38.6948   28.1304   33.6150 H   0  0  0  0  0  0  0  0  0  0  0  0
   42.2185   23.7481   37.3251 H   0  0  0  0  0  0  0  0  0  0  0  0
   41.0141   25.0963   34.5700 H   0  0  0  0  0  0  0  0  0  0  0  0
   41.8933   27.0759   33.2946 H   0  0  0  0  0  0  0  0  0  0  0  0
   45.7297   26.4432   35.0998 H   0  0  0  0  0  0  0  0  0  0  0  0
   44.4699   22.9627   35.9897 H   0  0  0  0  0  0  0  0  0  0  0  0
   43.4846   21.8144   36.9802 H   0  0  0  0  0  0  0  0  0  0  0  0
   43.0138   19.7657   36.0818 H   0  0  0  0  0  0  0  0  0  0  0  0
   42.6101   18.6376   33.6603 H   0  0  0  0  0  0  0  0  0  0  0  0
   42.8096   20.6359   31.8776 H   0  0  0  0  0  0  0  0  0  0  0  0
  1 17  1  0
  1  2  1  0
  2  3  2  0
  3  4  1  0
  5  4  2  0
  6  5  1  0
  7  2  1  0
  7  6  2  0
  8  7  1  0
  9  8  1  0
 10 11  1  0
 10  9  2  0
 11 16  2  0
 12 13  2  0
 12 11  1  0
 13 14  1  0
 14 15  2  0
 16 15  1  0
 16  8  1  0
 18 23  1  0
 18 17  1  0
 19 18  2  0
 20 21  2  0
 20 19  1  0
 21 22  1  0
 22 23  2  0
 24 17  1  0
 25 26  2  0
 25 24  1  0
 27 26  1  0
 28 29  1  0
 28 27  2  0
 29 25  1  0
  1 30  1  0
  1 31  1  0
  3 32  1  0
  4 33  1  0
  5 34  1  0
  6 35  1  0
  9 36  1  0
 12 37  1  0
 14 38  1  0
 17 39  1  1
 19 40  1  0
 20 41  1  0
 22 42  1  0
 24 43  1  0
 24 44  1  0
 26 45  1  0
 27 46  1  0
 28 47  1  0
M  ISO  8  30   8  31   8  32  14  33  14  34  14  35  14  36  14  37  14
M  ISO  8  38  14  39   8  40  14  41  14  42  14  43   8  44   8  45  14
M  ISO  2  46  14  47  14
M  END
>  <minimizedAffinity>  (1) 
-5.02692175

>  <minimizedRMSD>  (1) 
0.745698214

$$$$
