
     RDKit          3D

 32 33  0  0  0  0  0  0  0  0999 V2000
   38.8900   26.2090   34.8740 C   0  0  0  0  0  0  0  0  0  0  0  0
   41.7290   23.7830   35.3470 C   0  0  0  0  0  0  0  0  0  0  0  0
   40.4130   24.2760   35.3140 C   0  0  0  0  0  0  0  0  0  0  0  0
   40.2230   25.6240   34.9330 C   0  0  0  0  0  0  0  0  0  0  0  0
   41.3080   26.3780   34.6170 N   0  0  0  0  0  0  0  0  0  0  0  0
   42.5510   25.8540   34.6650 C   0  0  0  0  0  0  0  0  0  0  0  0
   42.7730   24.5710   35.0240 N   0  0  0  0  0  0  0  0  0  0  0  0
   37.8730   25.1110   35.1360 C   0  0  0  0  0  0  0  0  0  0  0  0
   38.6870   27.3510   35.8510 C   0  0  0  0  0  0  0  0  0  0  0  0
   38.6460   26.7910   33.4840 C   0  0  0  0  0  0  0  0  0  0  0  0
   37.9990   25.8460   32.5600 C   0  0  0  0  0  0  0  0  0  0  0  0
   38.6320   24.8160   31.8950 C   0  0  0  0  0  0  0  0  0  0  0  0
   37.9490   23.9660   31.0380 C   0  0  0  0  0  0  0  0  0  0  0  0
   36.5960   24.1620   30.8470 C   0  0  0  0  0  0  0  0  0  0  0  0
   35.9050   25.1890   31.4950 C   0  0  0  0  0  0  0  0  0  0  0  0
   36.6460   26.0090   32.3430 C   0  0  0  0  0  0  0  0  0  0  0  0
   41.9091   22.7384   35.6409 H   0  0  0  0  0  0  0  0  0  0  0  0
   39.5591   23.6340   35.5760 H   0  0  0  0  0  0  0  0  0  0  0  0
   43.4089   26.4910   34.4039 H   0  0  0  0  0  0  0  0  0  0  0  0
   37.7491   24.9772   36.2208 H   0  0  0  0  0  0  0  0  0  0  0  0
   36.9079   25.3907   34.6884 H   0  0  0  0  0  0  0  0  0  0  0  0
   38.2257   24.1701   34.6884 H   0  0  0  0  0  0  0  0  0  0  0  0
   38.7549   26.9693   36.8804 H   0  0  0  0  0  0  0  0  0  0  0  0
   39.4637   28.1132   35.6906 H   0  0  0  0  0  0  0  0  0  0  0  0
   37.6952   27.7988   35.6906 H   0  0  0  0  0  0  0  0  0  0  0  0
   38.0013   27.6765   33.5850 H   0  0  0  0  0  0  0  0  0  0  0  0
   39.6296   27.0391   33.0586 H   0  0  0  0  0  0  0  0  0  0  0  0
   39.7106   24.6645   32.0492 H   0  0  0  0  0  0  0  0  0  0  0  0
   38.4756   23.1508   30.5201 H   0  0  0  0  0  0  0  0  0  0  0  0
   36.0480   23.4927   30.1675 H   0  0  0  0  0  0  0  0  0  0  0  0
   34.8265   25.3428   31.3427 H   0  0  0  0  0  0  0  0  0  0  0  0
   36.1272   26.8264   32.8652 H   0  0  0  0  0  0  0  0  0  0  0  0
  1  4  1  0
  1  8  1  0
  1  9  1  0
  3  2  2  0
  4  3  1  0
  5  6  1  0
  5  4  2  0
  6  7  2  0
  7  2  1  0
 10  1  1  0
 11 10  1  0
 12 11  2  0
 13 12  1  0
 14 13  2  0
 14 15  1  0
 15 16  2  0
 16 11  1  0
  2 17  1  0
  3 18  1  0
  6 19  1  0
  8 20  1  0
  8 21  1  0
  8 22  1  0
  9 23  1  0
  9 24  1  0
  9 25  1  0
 10 26  1  0
 10 27  1  0
 12 28  1  0
 13 29  1  0
 14 30  1  0
 15 31  1  0
 16 32  1  0
M  ISO  8  17  14  18  14  19  14  20   8  21   8  22   8  23   8  24   8
M  ISO  8  25   8  26   8  27   8  28  14  29  14  30  14  31  14  32  14
M  END
>  <minimizedAffinity>  (1) 
-3.73271632

>  <minimizedRMSD>  (1) 
5.81229019

$$$$
