
     RDKit          3D

 17 18  0  0  0  0  0  0  0  0999 V2000
   39.9030   22.6510   37.1990 C   0  0  0  0  0  0  0  0  0  0  0  0
   39.2940   23.3600   38.2660 C   0  0  0  0  0  0  0  0  0  0  0  0
   37.9000   23.4940   38.2370 C   0  0  0  0  0  0  0  0  0  0  0  0
   37.2040   22.9390   37.1890 N   0  0  0  0  0  0  0  0  0  0  0  0
   37.8250   22.2720   36.1960 C   0  0  0  0  0  0  0  0  0  0  0  0
   39.1740   22.1310   36.2050 N   0  0  0  0  0  0  0  0  0  0  0  0
   37.1020   21.6990   35.1130 N   0  0  0  0  0  0  0  0  0  0  0  0
   37.3020   21.7420   33.7880 C   0  0  0  0  0  0  0  0  0  0  0  0
   36.3290   21.0270   33.1210 C   0  0  0  0  0  0  0  0  0  0  0  0
   35.4960   20.5190   34.0570 N   0  0  0  0  0  0  0  0  0  0  0  0
   35.9850   20.9410   35.2500 C   0  0  0  0  0  0  0  0  0  0  0  0
   40.9959   22.5263   37.1886 H   0  0  0  0  0  0  0  0  0  0  0  0
   39.8927   23.7876   39.0838 H   0  0  0  0  0  0  0  0  0  0  0  0
   37.3721   24.0330   39.0375 H   0  0  0  0  0  0  0  0  0  0  0  0
   38.1303   22.2755   33.2988 H   0  0  0  0  0  0  0  0  0  0  0  0
   36.2463   20.8949   32.0321 H   0  0  0  0  0  0  0  0  0  0  0  0
   35.5272   20.6961   36.2198 H   0  0  0  0  0  0  0  0  0  0  0  0
  1  2  2  0
  3  2  1  0
  4  3  2  0
  5  6  2  0
  5  4  1  0
  6  1  1  0
  7 11  1  0
  7  5  1  0
  8  7  1  0
  9  8  2  0
  9 10  1  0
 10 11  2  0
  1 12  1  0
  2 13  1  0
  3 14  1  0
  8 15  1  0
  9 16  1  0
 11 17  1  0
M  ISO  6  12  14  13  14  14  14  15  14  16  14  17  14
M  END
>  <minimizedAffinity>  (1) 
-3.72307587

>  <minimizedRMSD>  (1) 
1.3964349

$$$$
