
     RDKit          3D

 32 35  0  0  1  0  0  0  0  0999 V2000
   38.9080   23.3560   38.7750 C   0  0  0  0  0  0  0  0  0  0  0  0
   37.8530   24.1980   38.3690 C   0  0  0  0  0  0  0  0  0  0  0  0
   37.7700   24.4890   37.0010 C   0  0  0  0  0  0  0  0  0  0  0  0
   38.7060   23.9520   36.1340 N   0  0  0  0  0  0  0  0  0  0  0  0
   39.6940   23.1540   36.5730 C   0  0  0  0  0  0  0  0  0  0  0  0
   39.7830   22.8630   37.8990 N   0  0  0  0  0  0  0  0  0  0  0  0
   40.6540   22.6000   35.6930 N   0  0  0  0  0  0  0  0  0  0  0  0
   41.9980   22.5420   35.7780 C   0  0  0  0  0  0  0  0  0  0  0  0
   42.5120   21.8980   34.6680 C   0  0  0  0  0  0  0  0  0  0  0  0
   41.4620   21.5470   33.8790 N   0  0  0  0  0  0  0  0  0  0  0  0
   40.3640   21.9870   34.5290 C   0  0  0  0  0  0  0  0  0  0  0  0
   39.1050   21.7420   33.9030 N   0  0  0  0  0  0  0  0  0  0  0  0
   38.9960   21.3290   32.6090 C   0  0  0  0  0  0  0  0  0  0  0  0
   37.7600   21.0990   32.0260 C   0  0  0  0  0  0  0  0  0  0  0  0
   37.6660   20.6490   30.6190 C   0  0  0  0  0  0  0  0  0  0  0  0
   36.6140   21.2950   32.7800 C   0  0  0  0  0  0  0  0  0  0  0  0
   35.4670   21.1030   32.3090 O   0  0  0  0  0  0  0  0  0  0  0  0
   36.7740   21.7080   34.0650 N   0  0  0  0  0  0  0  0  0  0  0  0
   37.9920   21.9340   34.6380 C   0  0  0  0  0  0  0  0  0  0  0  0
   37.9910   22.3150   35.8410 O   0  0  0  0  0  0  0  0  0  0  0  0
   39.0115   23.0999   39.8397 H   0  0  0  0  0  0  0  0  0  0  0  0
   37.1304   24.6065   39.0907 H   0  0  0  0  0  0  0  0  0  0  0  0
   36.7825   24.1450   36.6596 H   0  0  0  0  0  0  0  0  0  0  0  0
   37.9633   25.5709   36.9537 H   0  0  0  0  0  0  0  0  0  0  0  0
   42.5967   22.9469   36.6072 H   0  0  0  0  0  0  0  0  0  0  0  0
   43.5750   21.7051   34.4612 H   0  0  0  0  0  0  0  0  0  0  0  0
   39.9086   21.1749   32.0145 H   0  0  0  0  0  0  0  0  0  0  0  0
   37.4411   19.5726   30.5926 H   0  0  0  0  0  0  0  0  0  0  0  0
   36.8643   21.2037   30.1094 H   0  0  0  0  0  0  0  0  0  0  0  0
   38.6227   20.8364   30.1094 H   0  0  0  0  0  0  0  0  0  0  0  0
   35.9308   21.8585   34.6371 H   0  0  0  0  0  0  0  0  0  0  0  0
   37.9537   22.9820   34.3062 H   0  0  0  0  0  0  0  0  0  0  0  0
  2  1  2  0
  3  2  1  0
  4  5  1  0
  4  3  1  0
  5  6  2  0
  6  1  1  0
  7  8  1  0
  7  5  1  0
  9  8  2  0
 10 11  2  0
 10  9  1  0
 11  7  1  0
 12 11  1  0
 12 19  1  0
 13 12  1  0
 14 13  2  0
 14 16  1  0
 15 14  1  0
 16 18  1  0
 17 16  2  0
 18 19  1  0
 19 20  1  0
 20  4  1  0
  1 21  1  0
  2 22  1  0
  3 23  1  0
  3 24  1  0
  8 25  1  0
  9 26  1  0
 13 27  1  0
 15 28  1  0
 15 29  1  0
 15 30  1  0
 18 31  1  0
 19 32  1  0
M  ISO  8  21  13  22  13  23  13  24  13  25  14  26  14  27  13  28   8
M  ISO  4  29   8  30   8  31  10  32  13
M  END
>  <minimizedAffinity>  (1) 
-5.11902332

>  <minimizedRMSD>  (1) 
5.05923796

$$$$
