
     RDKit          3D

 27 29  0  0  0  0  0  0  0  0999 V2000
   39.7650   22.9860   37.6780 C   0  0  0  0  0  0  0  0  0  0  0  0
   38.4260   23.0640   38.1160 C   0  0  0  0  0  0  0  0  0  0  0  0
   37.4910   23.5830   37.2220 C   0  0  0  0  0  0  0  0  0  0  0  0
   37.9110   23.9870   35.9800 N   0  0  0  0  0  0  0  0  0  0  0  0
   39.1890   23.9000   35.5920 C   0  0  0  0  0  0  0  0  0  0  0  0
   40.1170   23.3960   36.4530 N   0  0  0  0  0  0  0  0  0  0  0  0
   39.6330   24.3150   34.3080 N   0  0  0  0  0  0  0  0  0  0  0  0
   40.6860   25.0630   33.9280 C   0  0  0  0  0  0  0  0  0  0  0  0
   40.7210   25.2080   32.5640 C   0  0  0  0  0  0  0  0  0  0  0  0
   39.6520   24.5270   32.0680 N   0  0  0  0  0  0  0  0  0  0  0  0
   39.0170   24.0010   33.1510 C   0  0  0  0  0  0  0  0  0  0  0  0
   37.8470   23.2290   32.9070 N   0  0  0  0  0  0  0  0  0  0  0  0
   36.9270   23.4990   31.9850 C   0  0  0  0  0  0  0  0  0  0  0  0
   35.8410   22.6270   31.8870 C   0  0  0  0  0  0  0  0  0  0  0  0
   35.6990   21.5200   32.7000 C   0  0  0  0  0  0  0  0  0  0  0  0
   34.7290   20.7310   32.6210 O   0  0  0  0  0  0  0  0  0  0  0  0
   36.6460   21.2730   33.6210 N   0  0  0  0  0  0  0  0  0  0  0  0
   37.7030   22.1340   33.7060 C   0  0  0  0  0  0  0  0  0  0  0  0
   38.5540   21.8340   34.5990 O   0  0  0  0  0  0  0  0  0  0  0  0
   40.5325   22.5816   38.3543 H   0  0  0  0  0  0  0  0  0  0  0  0
   38.1321   22.7290   39.1217 H   0  0  0  0  0  0  0  0  0  0  0  0
   36.4322   23.6674   37.5080 H   0  0  0  0  0  0  0  0  0  0  0  0
   41.4212   25.5002   34.6197 H   0  0  0  0  0  0  0  0  0  0  0  0
   41.4692   25.7672   31.9830 H   0  0  0  0  0  0  0  0  0  0  0  0
   37.0182   24.3748   31.3257 H   0  0  0  0  0  0  0  0  0  0  0  0
   35.0674   22.8300   31.1318 H   0  0  0  0  0  0  0  0  0  0  0  0
   36.5767   20.4569   34.2456 H   0  0  0  0  0  0  0  0  0  0  0  0
  1  2  2  0
  3  2  1  0
  4  3  2  0
  5  4  1  0
  5  6  2  0
  6  1  1  0
  7  5  1  0
  8  7  1  0
  9  8  2  0
 10  9  1  0
 10 11  2  0
 11  7  1  0
 12 11  1  0
 12 18  1  0
 13 12  1  0
 14 13  2  0
 14 15  1  0
 15 17  1  0
 16 15  2  0
 17 18  1  0
 18 19  2  0
  1 20  1  0
  2 21  1  0
  3 22  1  0
  8 23  1  0
  9 24  1  0
 13 25  1  0
 14 26  1  0
 17 27  1  0
M  ISO  8  20  14  21  14  22  14  23  14  24  14  25  14  26  14  27   9
M  END
>  <minimizedAffinity>  (1) 
-4.84815025

>  <minimizedRMSD>  (1) 
4.69596481

$$$$
