
     RDKit          3D

 26 28  0  0  1  0  0  0  0  0999 V2000
   39.6680   22.8000   36.9750 C   0  0  0  0  0  0  0  0  0  0  0  0
   38.9800   23.7430   37.7620 C   0  0  0  0  0  0  0  0  0  0  0  0
   37.6380   23.9430   37.4600 C   0  0  0  0  0  0  0  0  0  0  0  0
   37.0390   23.2380   36.4340 N   0  0  0  0  0  0  0  0  0  0  0  0
   37.7630   22.3450   35.7180 C   0  0  0  0  0  0  0  0  0  0  0  0
   39.0720   22.1210   35.9810 N   0  0  0  0  0  0  0  0  0  0  0  0
   37.1560   21.6080   34.6520 N   0  0  0  0  0  0  0  0  0  0  0  0
   37.5900   21.3800   33.3920 C   0  0  0  0  0  0  0  0  0  0  0  0
   36.6430   20.6070   32.7250 C   0  0  0  0  0  0  0  0  0  0  0  0
   35.6290   20.3620   33.5750 N   0  0  0  0  0  0  0  0  0  0  0  0
   35.9600   20.9760   34.7310 C   0  0  0  0  0  0  0  0  0  0  0  0
   35.1330   20.9520   35.8960 N   0  0  0  0  0  0  0  0  0  0  0  0
   35.6860   21.0180   37.2170 C   0  0  0  0  0  0  0  0  0  0  0  0
   36.8150   21.6550   37.3530 N   0  0  0  0  0  0  0  0  0  0  0  0
   35.0250   20.4090   38.3320 N   0  0  0  0  0  0  0  0  0  0  0  0
   40.7320   22.6125   37.1815 H   0  0  0  0  0  0  0  0  0  0  0  0
   39.4785   24.2930   38.5738 H   0  0  0  0  0  0  0  0  0  0  0  0
   37.0712   23.7125   38.3741 H   0  0  0  0  0  0  0  0  0  0  0  0
   37.6181   24.9799   37.0932 H   0  0  0  0  0  0  0  0  0  0  0  0
   38.5354   21.7450   32.9642 H   0  0  0  0  0  0  0  0  0  0  0  0
   36.7119   20.2575   31.6843 H   0  0  0  0  0  0  0  0  0  0  0  0
   34.1113   20.8854   35.7836 H   0  0  0  0  0  0  0  0  0  0  0  0
   36.2356   20.0830   37.0336 H   0  0  0  0  0  0  0  0  0  0  0  0
   37.5642   21.0168   37.0491 H   0  0  0  0  0  0  0  0  0  0  0  0
   35.4226   20.7753   39.2087 H   0  0  0  0  0  0  0  0  0  0  0  0
   34.0187   20.6254   38.2946 H   0  0  0  0  0  0  0  0  0  0  0  0
  1  2  2  0
  3  2  1  0
  4 14  1  0
  4  3  1  0
  5  6  2  0
  5  4  1  0
  6  1  1  0
  7 11  1  0
  7  5  1  0
  8  7  1  0
  9  8  2  0
  9 10  1  0
 10 11  2  0
 11 12  1  0
 12 13  1  0
 13 14  1  0
 13 15  1  0
  1 16  1  0
  2 17  1  0
  3 18  1  0
  3 19  1  0
  8 20  1  0
  9 21  1  0
 12 22  1  0
 13 23  1  0
 14 24  1  0
 15 25  1  0
 15 26  1  0
M  ISO  8  16  13  17  13  18  13  19  13  20  14  21  14  23  13  24   5
M  ISO  2  25   5  26   5
M  END
>  <minimizedAffinity>  (1) 
-4.7360754

>  <minimizedRMSD>  (1) 
0.693675876

$$$$
