
     RDKit          3D

 27 29  0  0  0  0  0  0  0  0999 V2000
   40.2120   23.7450   34.2130 C   0  0  0  0  0  0  0  0  0  0  0  0
   39.9520   22.6910   35.1120 C   0  0  0  0  0  0  0  0  0  0  0  0
   38.6650   22.1550   35.1200 C   0  0  0  0  0  0  0  0  0  0  0  0
   37.7360   22.6790   34.2620 N   0  0  0  0  0  0  0  0  0  0  0  0
   38.0070   23.6800   33.4160 C   0  0  0  0  0  0  0  0  0  0  0  0
   39.2610   24.2180   33.3930 N   0  0  0  0  0  0  0  0  0  0  0  0
   37.0320   24.2160   32.5280 N   0  0  0  0  0  0  0  0  0  0  0  0
   36.6960   25.4950   32.2670 C   0  0  0  0  0  0  0  0  0  0  0  0
   35.6880   25.5280   31.3250 C   0  0  0  0  0  0  0  0  0  0  0  0
   35.3940   24.2500   30.9970 N   0  0  0  0  0  0  0  0  0  0  0  0
   36.2280   23.4700   31.7450 C   0  0  0  0  0  0  0  0  0  0  0  0
   36.1300   22.0210   31.5910 C   0  0  0  0  0  0  0  0  0  0  0  0
   35.0290   21.5090   32.2650 C   0  0  0  0  0  0  0  0  0  0  0  0
   34.7500   20.1500   32.2500 C   0  0  0  0  0  0  0  0  0  0  0  0
   35.5780   19.2880   31.5540 C   0  0  0  0  0  0  0  0  0  0  0  0
   36.6630   19.8230   30.8960 C   0  0  0  0  0  0  0  0  0  0  0  0
   36.9500   21.1680   30.9040 C   0  0  0  0  0  0  0  0  0  0  0  0
   41.2175   24.1900   34.1829 H   0  0  0  0  0  0  0  0  0  0  0  0
   40.7349   22.3059   35.7819 H   0  0  0  0  0  0  0  0  0  0  0  0
   38.4024   21.3308   35.7995 H   0  0  0  0  0  0  0  0  0  0  0  0
   37.1556   26.3785   32.7341 H   0  0  0  0  0  0  0  0  0  0  0  0
   35.2105   26.4304   30.9154 H   0  0  0  0  0  0  0  0  0  0  0  0
   34.3679   22.1914   32.8193 H   0  0  0  0  0  0  0  0  0  0  0  0
   33.8742   19.7598   32.7892 H   0  0  0  0  0  0  0  0  0  0  0  0
   35.3758   18.2071   31.5269 H   0  0  0  0  0  0  0  0  0  0  0  0
   37.3284   19.1458   30.3404 H   0  0  0  0  0  0  0  0  0  0  0  0
   37.8280   21.5532   30.3647 H   0  0  0  0  0  0  0  0  0  0  0  0
  1  2  2  0
  2  3  1  0
  4  3  2  0
  5  4  1  0
  6  5  2  0
  6  1  1  0
  7  5  1  0
  8  7  1  0
  9  8  2  0
 10  9  1  0
 10 11  2  0
 11  7  1  0
 12 11  1  0
 12 13  2  0
 14 13  1  0
 15 14  2  0
 16 17  2  0
 16 15  1  0
 17 12  1  0
  1 18  1  0
  2 19  1  0
  3 20  1  0
  8 21  1  0
  9 22  1  0
 13 23  1  0
 14 24  1  0
 15 25  1  0
 16 26  1  0
 17 27  1  0
M  ISO  8  18  14  19  14  20  14  21  14  22  14  23  14  24  14  25  14
M  ISO  2  26  14  27  14
M  END
>  <minimizedAffinity>  (1) 
-4.71768379

>  <minimizedRMSD>  (1) 
4.89337921

$$$$
