
     RDKit          3D

 24 26  0  0  0  0  0  0  0  0999 V2000
   40.0460   23.0280   37.9590 C   0  0  0  0  0  0  0  0  0  0  0  0
   38.8210   23.2210   38.6240 C   0  0  0  0  0  0  0  0  0  0  0  0
   37.6910   23.4350   37.8400 C   0  0  0  0  0  0  0  0  0  0  0  0
   37.8060   23.4520   36.4720 N   0  0  0  0  0  0  0  0  0  0  0  0
   39.0060   23.2610   35.8790 C   0  0  0  0  0  0  0  0  0  0  0  0
   40.1090   23.0510   36.6220 N   0  0  0  0  0  0  0  0  0  0  0  0
   39.1470   23.2740   34.4560 N   0  0  0  0  0  0  0  0  0  0  0  0
   40.0200   23.8940   33.6660 C   0  0  0  0  0  0  0  0  0  0  0  0
   39.7640   23.6080   32.3360 C   0  0  0  0  0  0  0  0  0  0  0  0
   38.7000   22.7860   32.3010 N   0  0  0  0  0  0  0  0  0  0  0  0
   38.3300   22.5890   33.6000 C   0  0  0  0  0  0  0  0  0  0  0  0
   37.2360   21.7760   34.0340 N   0  0  0  0  0  0  0  0  0  0  0  0
   36.9560   21.7080   35.3300 N   0  0  0  0  0  0  0  0  0  0  0  0
   35.8950   20.8920   35.5200 C   0  0  0  0  0  0  0  0  0  0  0  0
   35.5420   20.4630   34.2560 C   0  0  0  0  0  0  0  0  0  0  0  0
   36.3920   21.0260   33.3340 C   0  0  0  0  0  0  0  0  0  0  0  0
   40.9616   22.8564   38.5440 H   0  0  0  0  0  0  0  0  0  0  0  0
   38.7588   23.2034   39.7221 H   0  0  0  0  0  0  0  0  0  0  0  0
   36.7106   23.5898   38.3142 H   0  0  0  0  0  0  0  0  0  0  0  0
   40.8331   24.5443   34.0209 H   0  0  0  0  0  0  0  0  0  0  0  0
   40.3265   23.9834   31.4685 H   0  0  0  0  0  0  0  0  0  0  0  0
   35.4167   20.6273   36.4745 H   0  0  0  0  0  0  0  0  0  0  0  0
   34.7123   19.7792   34.0237 H   0  0  0  0  0  0  0  0  0  0  0  0
   36.3766   20.8848   32.2432 H   0  0  0  0  0  0  0  0  0  0  0  0
  1  2  2  0
  3  2  1  0
  4  3  2  0
  5  4  1  0
  5  6  2  0
  6  1  1  0
  7  5  1  0
  8  7  1  0
  9  8  2  0
 10  9  1  0
 10 11  2  0
 11 12  1  0
 11  7  1  0
 12 13  1  0
 13 14  2  0
 15 14  1  0
 16 12  1  0
 16 15  2  0
  1 17  1  0
  2 18  1  0
  3 19  1  0
  8 20  1  0
  9 21  1  0
 14 22  1  0
 15 23  1  0
 16 24  1  0
M  ISO  8  17  14  18  14  19  14  20  14  21  14  22  14  23  14  24  14
M  END
>  <minimizedAffinity>  (1) 
-4.43090916

>  <minimizedRMSD>  (1) 
2.93629718

$$$$
