
     RDKit          3D

 26 28  0  0  0  0  0  0  0  0999 V2000
   39.4880   22.9510   37.8310 C   0  0  0  0  0  0  0  0  0  0  0  0
   38.1870   23.4300   38.1290 C   0  0  0  0  0  0  0  0  0  0  0  0
   37.4350   23.9570   37.0640 C   0  0  0  0  0  0  0  0  0  0  0  0
   37.9900   23.9820   35.7990 N   0  0  0  0  0  0  0  0  0  0  0  0
   39.2250   23.5170   35.5710 C   0  0  0  0  0  0  0  0  0  0  0  0
   39.9780   22.9990   36.5870 N   0  0  0  0  0  0  0  0  0  0  0  0
   39.7990   23.5420   34.2700 N   0  0  0  0  0  0  0  0  0  0  0  0
   41.0180   23.9520   33.8530 C   0  0  0  0  0  0  0  0  0  0  0  0
   41.1570   23.8000   32.5010 C   0  0  0  0  0  0  0  0  0  0  0  0
   40.0060   23.2860   32.0610 N   0  0  0  0  0  0  0  0  0  0  0  0
   39.1890   23.1340   33.1490 C   0  0  0  0  0  0  0  0  0  0  0  0
   37.8530   22.5790   32.9510 C   0  0  0  0  0  0  0  0  0  0  0  0
   36.9090   23.1540   32.1310 C   0  0  0  0  0  0  0  0  0  0  0  0
   35.6380   22.6710   31.9100 C   0  0  0  0  0  0  0  0  0  0  0  0
   35.2480   21.5250   32.5440 C   0  0  0  0  0  0  0  0  0  0  0  0
   36.1830   20.9500   33.3610 C   0  0  0  0  0  0  0  0  0  0  0  0
   37.4000   21.4600   33.5380 N   0  0  0  0  0  0  0  0  0  0  0  0
   40.1064   22.5318   38.6384 H   0  0  0  0  0  0  0  0  0  0  0  0
   37.7827   23.3909   39.1512 H   0  0  0  0  0  0  0  0  0  0  0  0
   36.4196   24.3437   37.2356 H   0  0  0  0  0  0  0  0  0  0  0  0
   41.7975   24.3558   34.5158 H   0  0  0  0  0  0  0  0  0  0  0  0
   42.0410   24.0512   31.8965 H   0  0  0  0  0  0  0  0  0  0  0  0
   37.1938   24.0784   31.6072 H   0  0  0  0  0  0  0  0  0  0  0  0
   34.9487   23.1989   31.2346 H   0  0  0  0  0  0  0  0  0  0  0  0
   34.2461   21.0923   32.4063 H   0  0  0  0  0  0  0  0  0  0  0  0
   35.9174   20.0257   33.8950 H   0  0  0  0  0  0  0  0  0  0  0  0
  1  2  2  0
  3  2  1  0
  4  3  2  0
  5  4  1  0
  5  6  2  0
  6  1  1  0
  7  5  1  0
  8  7  1  0
  9  8  2  0
 10  9  1  0
 10 11  2  0
 11  7  1  0
 12 11  1  0
 12 17  1  0
 13 12  2  0
 14 13  1  0
 14 15  2  0
 15 16  1  0
 16 17  2  0
  1 18  1  0
  2 19  1  0
  3 20  1  0
  8 21  1  0
  9 22  1  0
 13 23  1  0
 14 24  1  0
 15 25  1  0
 16 26  1  0
M  ISO  8  18  14  19  14  20  14  21  14  22  14  23  14  24  14  25  14
M  ISO  1  26  14
M  END
>  <minimizedAffinity>  (1) 
-4.30104351

>  <minimizedRMSD>  (1) 
4.42792606

$$$$
