
     RDKit          3D

 25 27  0  0  0  0  0  0  0  0999 V2000
   39.5010   22.9430   37.8050 C   0  0  0  0  0  0  0  0  0  0  0  0
   38.2160   23.4220   38.1270 C   0  0  0  0  0  0  0  0  0  0  0  0
   37.4480   23.9410   37.0890 C   0  0  0  0  0  0  0  0  0  0  0  0
   37.9640   23.9660   35.8030 N   0  0  0  0  0  0  0  0  0  0  0  0
   39.2140   23.4870   35.5620 C   0  0  0  0  0  0  0  0  0  0  0  0
   39.9730   22.9800   36.5510 N   0  0  0  0  0  0  0  0  0  0  0  0
   39.7420   23.5210   34.2300 N   0  0  0  0  0  0  0  0  0  0  0  0
   40.9380   23.9770   33.7860 C   0  0  0  0  0  0  0  0  0  0  0  0
   41.0130   23.8280   32.4200 C   0  0  0  0  0  0  0  0  0  0  0  0
   39.8580   23.2780   32.0180 N   0  0  0  0  0  0  0  0  0  0  0  0
   39.1050   23.1000   33.1260 C   0  0  0  0  0  0  0  0  0  0  0  0
   37.7780   22.5050   32.9980 C   0  0  0  0  0  0  0  0  0  0  0  0
   36.8060   23.0060   32.1600 C   0  0  0  0  0  0  0  0  0  0  0  0
   35.5390   22.4960   31.9930 C   0  0  0  0  0  0  0  0  0  0  0  0
   35.2000   21.4100   32.7020 N   0  0  0  0  0  0  0  0  0  0  0  0
   36.1220   20.8920   33.5310 C   0  0  0  0  0  0  0  0  0  0  0  0
   37.3480   21.4220   33.6640 N   0  0  0  0  0  0  0  0  0  0  0  0
   40.1335   22.5278   38.6034 H   0  0  0  0  0  0  0  0  0  0  0  0
   37.8347   23.3872   39.1582 H   0  0  0  0  0  0  0  0  0  0  0  0
   36.4380   24.3288   37.2879 H   0  0  0  0  0  0  0  0  0  0  0  0
   41.7292   24.4019   34.4211 H   0  0  0  0  0  0  0  0  0  0  0  0
   41.8614   24.1077   31.7782 H   0  0  0  0  0  0  0  0  0  0  0  0
   37.0671   23.8966   31.5695 H   0  0  0  0  0  0  0  0  0  0  0  0
   34.8261   22.9651   31.2989 H   0  0  0  0  0  0  0  0  0  0  0  0
   35.8626   20.0013   34.1221 H   0  0  0  0  0  0  0  0  0  0  0  0
  1  2  2  0
  3  2  1  0
  4  3  2  0
  5  4  1  0
  5  6  2  0
  6  1  1  0
  7  5  1  0
  8  7  1  0
  9  8  2  0
 10  9  1  0
 10 11  2  0
 11  7  1  0
 12 11  1  0
 12 17  1  0
 13 12  2  0
 14 13  1  0
 14 15  2  0
 15 16  1  0
 16 17  2  0
  1 18  1  0
  2 19  1  0
  3 20  1  0
  8 21  1  0
  9 22  1  0
 13 23  1  0
 14 24  1  0
 16 25  1  0
M  ISO  8  18  14  19  14  20  14  21  14  22  14  23  14  24  14  25  14
M  END
>  <minimizedAffinity>  (1) 
-4.09396791

>  <minimizedRMSD>  (1) 
4.29040623

$$$$
