
     RDKit          3D

 24 26  0  0  0  0  0  0  0  0999 V2000
   42.5830   21.1000   35.0520 C   0  0  0  0  0  0  0  0  0  0  0  0
   42.5980   20.5860   36.3650 C   0  0  0  0  0  0  0  0  0  0  0  0
   41.9740   21.3540   37.3590 C   0  0  0  0  0  0  0  0  0  0  0  0
   41.3780   22.5590   37.0280 N   0  0  0  0  0  0  0  0  0  0  0  0
   41.4050   22.9890   35.7390 C   0  0  0  0  0  0  0  0  0  0  0  0
   41.9990   22.2670   34.7750 N   0  0  0  0  0  0  0  0  0  0  0  0
   40.7950   24.2380   35.3920 N   0  0  0  0  0  0  0  0  0  0  0  0
   41.2900   25.2650   34.6630 C   0  0  0  0  0  0  0  0  0  0  0  0
   40.3430   26.2720   34.5990 C   0  0  0  0  0  0  0  0  0  0  0  0
   39.2660   25.8640   35.2890 N   0  0  0  0  0  0  0  0  0  0  0  0
   39.5630   24.6320   35.7580 C   0  0  0  0  0  0  0  0  0  0  0  0
   38.5890   23.8790   36.5650 C   0  0  0  0  0  0  0  0  0  0  0  0
   38.2320   24.0810   37.8770 C   0  0  0  0  0  0  0  0  0  0  0  0
   37.2830   23.1710   38.2900 C   0  0  0  0  0  0  0  0  0  0  0  0
   37.0670   22.4100   37.2040 N   0  0  0  0  0  0  0  0  0  0  0  0
   37.8220   22.8280   36.2270 N   0  0  0  0  0  0  0  0  0  0  0  0
   43.0610   20.5290   34.2424 H   0  0  0  0  0  0  0  0  0  0  0  0
   43.0782   19.6245   36.5995 H   0  0  0  0  0  0  0  0  0  0  0  0
   41.9582   20.9994   38.4002 H   0  0  0  0  0  0  0  0  0  0  0  0
   42.2856   25.2946   34.1961 H   0  0  0  0  0  0  0  0  0  0  0  0
   40.4529   27.2338   34.0767 H   0  0  0  0  0  0  0  0  0  0  0  0
   38.6516   24.8707   38.5175 H   0  0  0  0  0  0  0  0  0  0  0  0
   36.8113   23.0871   39.2802 H   0  0  0  0  0  0  0  0  0  0  0  0
   36.4081   21.6201   37.1516 H   0  0  0  0  0  0  0  0  0  0  0  0
  1  2  2  0
  2  3  1  0
  4  3  2  0
  5  4  1  0
  6  1  1  0
  6  5  2  0
  7  5  1  0
  7 11  1  0
  8  7  1  0
  9  8  2  0
  9 10  1  0
 10 11  2  0
 11 12  1  0
 12 13  1  0
 13 14  2  0
 15 14  1  0
 16 12  2  0
 16 15  1  0
  1 17  1  0
  2 18  1  0
  3 19  1  0
  8 20  1  0
  9 21  1  0
 13 22  1  0
 14 23  1  0
 15 24  1  0
M  ISO  8  17  14  18  14  19  14  20  14  21  14  22  14  23  14  24   9
M  END
>  <minimizedAffinity>  (1) 
-4.03557539

>  <minimizedRMSD>  (1) 
4.77465153

$$$$
