
     RDKit          3D

 29 30  0  0  0  0  0  0  0  0999 V2000
   40.1490   23.6930   34.6860 C   0  0  0  0  0  0  0  0  0  0  0  0
   39.8540   22.8470   35.7980 C   0  0  0  0  0  0  0  0  0  0  0  0
   38.5920   22.2170   35.8330 C   0  0  0  0  0  0  0  0  0  0  0  0
   37.7490   22.4710   34.7910 N   0  0  0  0  0  0  0  0  0  0  0  0
   38.0350   23.2620   33.7580 C   0  0  0  0  0  0  0  0  0  0  0  0
   39.2390   23.8570   33.7340 N   0  0  0  0  0  0  0  0  0  0  0  0
   37.1210   23.4960   32.7020 N   0  0  0  0  0  0  0  0  0  0  0  0
   36.7300   24.6620   32.1350 C   0  0  0  0  0  0  0  0  0  0  0  0
   35.8030   24.3730   31.1380 C   0  0  0  0  0  0  0  0  0  0  0  0
   35.6340   23.0440   31.1000 N   0  0  0  0  0  0  0  0  0  0  0  0
   36.4360   22.5130   32.0510 C   0  0  0  0  0  0  0  0  0  0  0  0
   36.4590   21.0350   32.2610 C   0  0  0  0  0  0  0  0  0  0  0  0
   35.7330   20.3120   31.1120 C   0  0  0  0  0  0  0  0  0  0  0  0
   35.5910   20.7330   33.4810 C   0  0  0  0  0  0  0  0  0  0  0  0
   37.8010   20.4160   32.3210 C   0  0  0  0  0  0  0  0  0  0  0  0
   41.1210   24.2037   34.6192 H   0  0  0  0  0  0  0  0  0  0  0  0
   40.5880   22.6913   36.6024 H   0  0  0  0  0  0  0  0  0  0  0  0
   38.3019   21.5530   36.6606 H   0  0  0  0  0  0  0  0  0  0  0  0
   37.0842   25.6652   32.4145 H   0  0  0  0  0  0  0  0  0  0  0  0
   35.2973   25.1072   30.4936 H   0  0  0  0  0  0  0  0  0  0  0  0
   35.0116   19.5936   31.5286 H   0  0  0  0  0  0  0  0  0  0  0  0
   35.2005   21.0493   30.4932 H   0  0  0  0  0  0  0  0  0  0  0  0
   36.4681   19.7765   30.4932 H   0  0  0  0  0  0  0  0  0  0  0  0
   36.1650   20.9327   34.3979 H   0  0  0  0  0  0  0  0  0  0  0  0
   34.6963   21.3727   33.4619 H   0  0  0  0  0  0  0  0  0  0  0  0
   35.2866   19.6761   33.4619 H   0  0  0  0  0  0  0  0  0  0  0  0
   38.0955   20.2802   33.3721 H   0  0  0  0  0  0  0  0  0  0  0  0
   37.7766   19.4382   31.8178 H   0  0  0  0  0  0  0  0  0  0  0  0
   38.5290   21.0693   31.8178 H   0  0  0  0  0  0  0  0  0  0  0  0
  1  2  2  0
  2  3  1  0
  4  3  2  0
  5  4  1  0
  6  5  2  0
  6  1  1  0
  7  5  1  0
  8  7  1  0
  9  8  2  0
 10  9  1  0
 10 11  2  0
 11 12  1  0
 11  7  1  0
 12 15  1  0
 12 14  1  0
 13 12  1  0
  1 16  1  0
  2 17  1  0
  3 18  1  0
  8 19  1  0
  9 20  1  0
 13 21  1  0
 13 22  1  0
 13 23  1  0
 14 24  1  0
 14 25  1  0
 14 26  1  0
 15 27  1  0
 15 28  1  0
 15 29  1  0
M  ISO  8  16  14  17  14  18  14  19  14  20  14  21   8  22   8  23   8
M  ISO  6  24   8  25   8  26   8  27   8  28   8  29   8
M  END
>  <minimizedAffinity>  (1) 
-3.9149189

>  <minimizedRMSD>  (1) 
3.69767213

$$$$
