
     RDKit          3D

 23 24  0  0  0  0  0  0  0  0999 V2000
   39.9600   22.7480   37.8110 C   0  0  0  0  0  0  0  0  0  0  0  0
   38.8980   23.2940   38.5590 C   0  0  0  0  0  0  0  0  0  0  0  0
   37.6750   23.5330   37.8930 C   0  0  0  0  0  0  0  0  0  0  0  0
   37.5940   23.2190   36.5560 N   0  0  0  0  0  0  0  0  0  0  0  0
   38.6500   22.6950   35.8840 C   0  0  0  0  0  0  0  0  0  0  0  0
   39.8180   22.4640   36.5120 N   0  0  0  0  0  0  0  0  0  0  0  0
   38.5410   22.3780   34.4960 N   0  0  0  0  0  0  0  0  0  0  0  0
   39.3790   22.6730   33.4780 C   0  0  0  0  0  0  0  0  0  0  0  0
   38.8780   22.1690   32.2940 C   0  0  0  0  0  0  0  0  0  0  0  0
   37.7140   21.5560   32.5840 N   0  0  0  0  0  0  0  0  0  0  0  0
   37.5310   21.6960   33.9210 C   0  0  0  0  0  0  0  0  0  0  0  0
   36.3700   21.1700   34.6830 C   0  0  0  0  0  0  0  0  0  0  0  0
   35.4950   20.3240   33.7800 C   0  0  0  0  0  0  0  0  0  0  0  0
   40.9233   22.5518   38.3045 H   0  0  0  0  0  0  0  0  0  0  0  0
   39.0173   23.5268   39.6275 H   0  0  0  0  0  0  0  0  0  0  0  0
   36.8128   23.9577   38.4279 H   0  0  0  0  0  0  0  0  0  0  0  0
   40.3211   23.2320   33.5777 H   0  0  0  0  0  0  0  0  0  0  0  0
   39.3423   22.2524   31.3003 H   0  0  0  0  0  0  0  0  0  0  0  0
   36.7324   20.5543   35.5194 H   0  0  0  0  0  0  0  0  0  0  0  0
   35.7797   22.0144   35.0684 H   0  0  0  0  0  0  0  0  0  0  0  0
   34.8391   19.6898   34.3944 H   0  0  0  0  0  0  0  0  0  0  0  0
   34.8811   20.9798   33.1451 H   0  0  0  0  0  0  0  0  0  0  0  0
   36.1297   19.6884   33.1451 H   0  0  0  0  0  0  0  0  0  0  0  0
  1  2  2  0
  3  2  1  0
  4  3  2  0
  5  6  2  0
  5  4  1  0
  6  1  1  0
  7  5  1  0
  8  7  1  0
  9 10  1  0
  9  8  2  0
 10 11  2  0
 11  7  1  0
 11 12  1  0
 13 12  1  0
  1 14  1  0
  2 15  1  0
  3 16  1  0
  8 17  1  0
  9 18  1  0
 12 19  1  0
 12 20  1  0
 13 21  1  0
 13 22  1  0
 13 23  1  0
M  ISO  8  14  14  15  14  16  14  17  14  18  14  19   8  20   8  21   8
M  ISO  2  22   8  23   8
M  END
>  <minimizedAffinity>  (1) 
-3.78550434

>  <minimizedRMSD>  (1) 
1.90415323

$$$$
