
     RDKit          3D

 20 21  0  0  0  0  0  0  0  0999 V2000
   39.9160   22.8440   37.7190 C   0  0  0  0  0  0  0  0  0  0  0  0
   38.9740   23.2470   38.6870 C   0  0  0  0  0  0  0  0  0  0  0  0
   37.6460   23.3640   38.2760 C   0  0  0  0  0  0  0  0  0  0  0  0
   37.3240   23.0860   36.9660 N   0  0  0  0  0  0  0  0  0  0  0  0
   38.2600   22.7050   36.0810 C   0  0  0  0  0  0  0  0  0  0  0  0
   39.5690   22.5810   36.4530 N   0  0  0  0  0  0  0  0  0  0  0  0
   37.9300   22.4170   34.7250 N   0  0  0  0  0  0  0  0  0  0  0  0
   38.4870   22.8320   33.5680 C   0  0  0  0  0  0  0  0  0  0  0  0
   37.8300   22.2920   32.4930 C   0  0  0  0  0  0  0  0  0  0  0  0
   36.8290   21.5120   32.9840 N   0  0  0  0  0  0  0  0  0  0  0  0
   36.9180   21.6090   34.3380 C   0  0  0  0  0  0  0  0  0  0  0  0
   35.9950   20.9000   35.2820 C   0  0  0  0  0  0  0  0  0  0  0  0
   35.3010   19.9180   34.6300 F   0  0  0  0  0  0  0  0  0  0  0  0
   35.0810   21.7310   35.8680 F   0  0  0  0  0  0  0  0  0  0  0  0
   36.7550   20.2500   36.2620 F   0  0  0  0  0  0  0  0  0  0  0  0
   40.9710   22.7422   38.0135 H   0  0  0  0  0  0  0  0  0  0  0  0
   39.2736   23.4604   39.7237 H   0  0  0  0  0  0  0  0  0  0  0  0
   36.8670   23.6739   38.9881 H   0  0  0  0  0  0  0  0  0  0  0  0
   39.3499   23.5105   33.4973 H   0  0  0  0  0  0  0  0  0  0  0  0
   38.0675   22.4581   31.4319 H   0  0  0  0  0  0  0  0  0  0  0  0
  1  2  2  0
  3  2  1  0
  4  3  2  0
  5  6  2  0
  5  4  1  0
  6  1  1  0
  7  5  1  0
  8  7  1  0
  9 10  1  0
  9  8  2  0
 10 11  2  0
 11  7  1  0
 11 12  1  0
 12 14  1  0
 12 15  1  0
 13 12  1  0
  1 16  1  0
  2 17  1  0
  3 18  1  0
  8 19  1  0
  9 20  1  0
M  ISO  5  16  14  17  14  18  14  19  14  20  14
M  END
>  <minimizedAffinity>  (1) 
-3.3352654

>  <minimizedRMSD>  (1) 
1.30598354

$$$$
