
     RDKit          3D

 31 33  0  0  0  0  0  0  0  0999 V2000
   40.4200   23.0630   37.1130 C   0  0  0  0  0  0  0  0  0  0  0  0
   39.2570   22.8530   37.8980 C   0  0  0  0  0  0  0  0  0  0  0  0
   38.0100   23.1260   37.2990 C   0  0  0  0  0  0  0  0  0  0  0  0
   37.9770   23.5800   35.9950 N   0  0  0  0  0  0  0  0  0  0  0  0
   39.1270   23.7630   35.2880 C   0  0  0  0  0  0  0  0  0  0  0  0
   40.3170   23.5020   35.8600 N   0  0  0  0  0  0  0  0  0  0  0  0
   39.0950   24.2010   33.9560 N   0  0  0  0  0  0  0  0  0  0  0  0
   39.8100   25.1600   33.3270 C   0  0  0  0  0  0  0  0  0  0  0  0
   39.4520   25.2650   32.0040 C   0  0  0  0  0  0  0  0  0  0  0  0
   38.4770   24.3360   31.7950 N   0  0  0  0  0  0  0  0  0  0  0  0
   38.2850   23.7190   32.9800 C   0  0  0  0  0  0  0  0  0  0  0  0
   37.2840   22.7050   33.0640 N   0  0  0  0  0  0  0  0  0  0  0  0
   37.3240   21.8760   34.1450 C   0  0  0  0  0  0  0  0  0  0  0  0
   36.2020   21.0660   33.9810 C   0  0  0  0  0  0  0  0  0  0  0  0
   35.5310   21.4190   32.8170 N   0  0  0  0  0  0  0  0  0  0  0  0
   36.2040   22.4400   32.2430 C   0  0  0  0  0  0  0  0  0  0  0  0
   35.9240   23.1440   31.0480 N   0  0  0  0  0  0  0  0  0  0  0  0
   35.7040   24.5470   31.1340 C   0  0  0  0  0  0  0  0  0  0  0  0
   36.3680   25.2880   31.9410 N   0  0  0  0  0  0  0  0  0  0  0  0
   34.7200   25.2170   30.3140 N   0  0  0  0  0  0  0  0  0  0  0  0
   37.1000   24.9050   32.5720 H   0  0  0  0  0  0  0  0  0  0  0  0
   41.4128   22.8620   37.5420 H   0  0  0  0  0  0  0  0  0  0  0  0
   39.3255   22.4910   38.9345 H   0  0  0  0  0  0  0  0  0  0  0  0
   37.0766   22.9794   37.8623 H   0  0  0  0  0  0  0  0  0  0  0  0
   40.5802   25.7777   33.8119 H   0  0  0  0  0  0  0  0  0  0  0  0
   39.8696   25.9608   31.2614 H   0  0  0  0  0  0  0  0  0  0  0  0
   38.0669   21.8520   34.9559 H   0  0  0  0  0  0  0  0  0  0  0  0
   35.8936   20.2663   34.6705 H   0  0  0  0  0  0  0  0  0  0  0  0
   35.8807   22.6551   30.1424 H   0  0  0  0  0  0  0  0  0  0  0  0
   34.5846   26.2344   30.4000 H   0  0  0  0  0  0  0  0  0  0  0  0
   34.1543   24.6770   29.6437 H   0  0  0  0  0  0  0  0  0  0  0  0
  1  2  2  0
  3  2  1  0
  4  3  2  0
  5  6  2  0
  5  4  1  0
  6  1  1  0
  7  5  1  0
  8  7  1  0
  9  8  2  0
 10  9  1  0
 10 11  2  0
 11 12  1  0
 11  7  1  0
 12 13  1  0
 14 13  2  0
 15 14  1  0
 16 15  2  0
 16 12  1  0
 17 18  1  0
 17 16  1  0
 18 19  2  0
 19 21  1  0
 20 18  1  0
  1 22  1  0
  2 23  1  0
  3 24  1  0
  8 25  1  0
  9 26  1  0
 13 27  1  0
 14 28  1  0
 17 29  1  0
 20 30  1  0
 20 31  1  0
M  ISO  7  22  14  23  14  24  14  25  14  26  14  27  14  28  14
M  END
>  <minimizedAffinity>  (1) 
-5.32611322

>  <minimizedRMSD>  (1) 
1.56790519

$$$$
