
     RDKit          3D

 37 41  0  0  0  0  0  0  0  0999 V2000
   39.1440   23.2860   38.5000 C   0  0  0  0  0  0  0  0  0  0  0  0
   37.9110   23.9730   38.3620 C   0  0  0  0  0  0  0  0  0  0  0  0
   37.4330   24.1990   37.0540 C   0  0  0  0  0  0  0  0  0  0  0  0
   38.1710   23.7490   35.9750 N   0  0  0  0  0  0  0  0  0  0  0  0
   39.3510   23.0920   36.1760 C   0  0  0  0  0  0  0  0  0  0  0  0
   39.8090   22.8750   37.4200 N   0  0  0  0  0  0  0  0  0  0  0  0
   40.0920   22.6180   35.0790 N   0  0  0  0  0  0  0  0  0  0  0  0
   41.4110   22.7120   34.7970 C   0  0  0  0  0  0  0  0  0  0  0  0
   41.7140   22.1130   33.6050 C   0  0  0  0  0  0  0  0  0  0  0  0
   40.5420   21.6210   33.1190 N   0  0  0  0  0  0  0  0  0  0  0  0
   39.5930   21.9400   34.0250 C   0  0  0  0  0  0  0  0  0  0  0  0
   38.2500   21.5500   33.7470 N   0  0  0  0  0  0  0  0  0  0  0  0
   37.3700   21.5750   34.7970 C   0  0  0  0  0  0  0  0  0  0  0  0
   36.1520   21.2200   34.2190 C   0  0  0  0  0  0  0  0  0  0  0  0
   36.3160   20.9850   32.8610 N   0  0  0  0  0  0  0  0  0  0  0  0
   37.6250   21.1900   32.5670 C   0  0  0  0  0  0  0  0  0  0  0  0
   38.3940   21.1070   31.3750 N   0  0  0  0  0  0  0  0  0  0  0  0
   39.5850   21.6300   30.9730 C   0  0  0  0  0  0  0  0  0  0  0  0
   39.8340   21.2090   29.7130 N   0  0  0  0  0  0  0  0  0  0  0  0
   38.8100   20.4230   29.3090 C   0  0  0  0  0  0  0  0  0  0  0  0
   38.6150   19.7660   28.1080 C   0  0  0  0  0  0  0  0  0  0  0  0
   37.4860   19.0250   27.9430 N   0  0  0  0  0  0  0  0  0  0  0  0
   36.6020   18.9620   28.9640 C   0  0  0  0  0  0  0  0  0  0  0  0
   36.7870   19.5980   30.1350 N   0  0  0  0  0  0  0  0  0  0  0  0
   37.8980   20.3560   30.3590 C   0  0  0  0  0  0  0  0  0  0  0  0
   39.5410   19.8280   27.0300 N   0  0  0  0  0  0  0  0  0  0  0  0
   39.5534   23.0914   39.5023 H   0  0  0  0  0  0  0  0  0  0  0  0
   37.3481   24.3169   39.2423 H   0  0  0  0  0  0  0  0  0  0  0  0
   36.4820   24.7283   36.8942 H   0  0  0  0  0  0  0  0  0  0  0  0
   42.1484   23.2082   35.4451 H   0  0  0  0  0  0  0  0  0  0  0  0
   42.7056   22.0431   33.1341 H   0  0  0  0  0  0  0  0  0  0  0  0
   37.5763   21.8183   35.8497 H   0  0  0  0  0  0  0  0  0  0  0  0
   35.1984   21.1380   34.7611 H   0  0  0  0  0  0  0  0  0  0  0  0
   40.2348   22.2846   31.5724 H   0  0  0  0  0  0  0  0  0  0  0  0
   35.6891   18.3629   28.8311 H   0  0  0  0  0  0  0  0  0  0  0  0
   39.3480   19.3194   26.1554 H   0  0  0  0  0  0  0  0  0  0  0  0
   40.4045   20.3815   27.1240 H   0  0  0  0  0  0  0  0  0  0  0  0
  2  1  2  0
  3  2  1  0
  4  5  1  0
  4  3  2  0
  5  6  2  0
  6  1  1  0
  7  5  1  0
  8  7  1  0
  9  8  2  0
 10  9  1  0
 10 11  2  0
 11  7  1  0
 12 11  1  0
 12 13  1  0
 14 13  2  0
 15 14  1  0
 16 15  2  0
 16 12  1  0
 17 16  1  0
 18 17  1  0
 19 18  2  0
 20 19  1  0
 20 25  2  0
 21 20  1  0
 22 21  2  0
 22 23  1  0
 23 24  2  0
 24 25  1  0
 25 17  1  0
 26 21  1  0
  1 27  1  0
  2 28  1  0
  3 29  1  0
  8 30  1  0
  9 31  1  0
 13 32  1  0
 14 33  1  0
 18 34  1  0
 23 35  1  0
 26 36  1  0
 26 37  1  0
M  ISO  8  27  14  28  14  29  14  30  14  31  14  32  14  33  14  34  14
M  ISO  1  35  14
M  END
>  <minimizedAffinity>  (1) 
-5.24930382

>  <minimizedRMSD>  (1) 
1.98543441

$$$$
