
     RDKit          3D

 27 29  0  0  0  0  0  0  0  0999 V2000
   39.9390   22.9850   37.8680 C   0  0  0  0  0  0  0  0  0  0  0  0
   38.6790   23.1980   38.4810 C   0  0  0  0  0  0  0  0  0  0  0  0
   37.5850   23.4680   37.6330 C   0  0  0  0  0  0  0  0  0  0  0  0
   37.7730   23.5160   36.2640 N   0  0  0  0  0  0  0  0  0  0  0  0
   39.0110   23.3010   35.7390 C   0  0  0  0  0  0  0  0  0  0  0  0
   40.0620   23.0420   36.5420 N   0  0  0  0  0  0  0  0  0  0  0  0
   39.2140   23.3220   34.3480 N   0  0  0  0  0  0  0  0  0  0  0  0
   40.1670   23.9230   33.6030 C   0  0  0  0  0  0  0  0  0  0  0  0
   39.9810   23.6790   32.2600 C   0  0  0  0  0  0  0  0  0  0  0  0
   38.8710   22.8950   32.1600 N   0  0  0  0  0  0  0  0  0  0  0  0
   38.4410   22.7060   33.4330 C   0  0  0  0  0  0  0  0  0  0  0  0
   37.2570   21.9310   33.6110 N   0  0  0  0  0  0  0  0  0  0  0  0
   37.0270   21.4440   34.8760 C   0  0  0  0  0  0  0  0  0  0  0  0
   35.7920   20.7970   34.7660 C   0  0  0  0  0  0  0  0  0  0  0  0
   35.3150   20.9000   33.4640 N   0  0  0  0  0  0  0  0  0  0  0  0
   36.2290   21.6050   32.7490 C   0  0  0  0  0  0  0  0  0  0  0  0
   36.2960   22.0390   31.3320 C   0  0  0  0  0  0  0  0  0  0  0  0
   35.1460   21.5640   30.7210 F   0  0  0  0  0  0  0  0  0  0  0  0
   36.4230   23.4050   31.1850 F   0  0  0  0  0  0  0  0  0  0  0  0
   37.3510   21.4080   30.7030 F   0  0  0  0  0  0  0  0  0  0  0  0
   40.8206   22.7714   38.4902 H   0  0  0  0  0  0  0  0  0  0  0  0
   38.5593   23.1545   39.5736 H   0  0  0  0  0  0  0  0  0  0  0  0
   36.5856   23.6398   38.0592 H   0  0  0  0  0  0  0  0  0  0  0  0
   40.9866   24.5295   34.0158 H   0  0  0  0  0  0  0  0  0  0  0  0
   40.6054   24.0449   31.4316 H   0  0  0  0  0  0  0  0  0  0  0  0
   37.6653   21.5407   35.7666 H   0  0  0  0  0  0  0  0  0  0  0  0
   35.2741   20.2822   35.5887 H   0  0  0  0  0  0  0  0  0  0  0  0
  1  2  2  0
  3  2  1  0
  4  3  2  0
  5  4  1  0
  5  6  2  0
  6  1  1  0
  7  5  1  0
  8  7  1  0
  9  8  2  0
 10  9  1  0
 10 11  2  0
 11 12  1  0
 11  7  1  0
 12 13  1  0
 14 13  2  0
 15 14  1  0
 16 15  2  0
 16 12  1  0
 17 16  1  0
 18 17  1  0
 19 17  1  0
 20 17  1  0
  1 21  1  0
  2 22  1  0
  3 23  1  0
  8 24  1  0
  9 25  1  0
 13 26  1  0
 14 27  1  0
M  ISO  7  21  14  22  14  23  14  24  14  25  14  26  14  27  14
M  END
>  <minimizedAffinity>  (1) 
-5.00331688

>  <minimizedRMSD>  (1) 
0.667038918

$$$$
