
     RDKit          3D

 39 42  0  0  0  0  0  0  0  0999 V2000
   39.4970   23.3160   38.4240 C   0  0  0  0  0  0  0  0  0  0  0  0
   38.2390   23.9460   38.5670 C   0  0  0  0  0  0  0  0  0  0  0  0
   37.4310   24.0870   37.4130 C   0  0  0  0  0  0  0  0  0  0  0  0
   37.8870   23.6130   36.2040 N   0  0  0  0  0  0  0  0  0  0  0  0
   39.1100   23.0130   36.1270 C   0  0  0  0  0  0  0  0  0  0  0  0
   39.8900   22.8760   37.2300 N   0  0  0  0  0  0  0  0  0  0  0  0
   39.5920   22.4980   34.9010 N   0  0  0  0  0  0  0  0  0  0  0  0
   40.8030   22.6090   34.3140 C   0  0  0  0  0  0  0  0  0  0  0  0
   40.8380   21.9310   33.1220 C   0  0  0  0  0  0  0  0  0  0  0  0
   39.6000   21.3700   32.9490 N   0  0  0  0  0  0  0  0  0  0  0  0
   38.8860   21.7350   34.0350 C   0  0  0  0  0  0  0  0  0  0  0  0
   37.5370   21.3140   34.1070 N   0  0  0  0  0  0  0  0  0  0  0  0
   36.9280   21.3520   35.3390 C   0  0  0  0  0  0  0  0  0  0  0  0
   35.6150   20.9430   35.1100 C   0  0  0  0  0  0  0  0  0  0  0  0
   35.4510   20.6610   33.7650 N   0  0  0  0  0  0  0  0  0  0  0  0
   36.6420   20.8900   33.1490 C   0  0  0  0  0  0  0  0  0  0  0  0
   36.9680   20.7390   31.7850 N   0  0  0  0  0  0  0  0  0  0  0  0
   37.2470   19.5860   30.9640 C   0  0  0  0  0  0  0  0  0  0  0  0
   37.7640   20.0180   29.6120 C   0  0  0  0  0  0  0  0  0  0  0  0
   38.8230   21.0800   29.6490 C   0  0  0  0  0  0  0  0  0  0  0  0
   38.4910   22.2350   30.5680 C   0  0  0  0  0  0  0  0  0  0  0  0
   37.0460   21.9810   31.0210 C   0  0  0  0  0  0  0  0  0  0  0  0
   40.1511   23.1893   39.2992 H   0  0  0  0  0  0  0  0  0  0  0  0
   37.8985   24.3154   39.5455 H   0  0  0  0  0  0  0  0  0  0  0  0
   36.4460   24.5718   37.4822 H   0  0  0  0  0  0  0  0  0  0  0  0
   41.6501   23.1695   34.7362 H   0  0  0  0  0  0  0  0  0  0  0  0
   41.6950   21.8528   32.4369 H   0  0  0  0  0  0  0  0  0  0  0  0
   37.3796   21.6426   36.2990 H   0  0  0  0  0  0  0  0  0  0  0  0
   34.8321   20.8578   35.8780 H   0  0  0  0  0  0  0  0  0  0  0  0
   38.0051   18.9622   31.4600 H   0  0  0  0  0  0  0  0  0  0  0  0
   36.3188   19.0122   30.8256 H   0  0  0  0  0  0  0  0  0  0  0  0
   36.9146   20.4030   29.0287 H   0  0  0  0  0  0  0  0  0  0  0  0
   38.2340   19.1301   29.1640 H   0  0  0  0  0  0  0  0  0  0  0  0
   39.7627   20.6222   29.9915 H   0  0  0  0  0  0  0  0  0  0  0  0
   38.9038   21.4904   28.6316 H   0  0  0  0  0  0  0  0  0  0  0  0
   39.1705   22.2483   31.4329 H   0  0  0  0  0  0  0  0  0  0  0  0
   38.6012   23.2073   30.0654 H   0  0  0  0  0  0  0  0  0  0  0  0
   36.7107   22.8174   31.6519 H   0  0  0  0  0  0  0  0  0  0  0  0
   36.4011   21.8978   30.1338 H   0  0  0  0  0  0  0  0  0  0  0  0
  1  2  2  0
  3  2  1  0
  4  3  2  0
  5  4  1  0
  5  6  2  0
  6  1  1  0
  7  5  1  0
  8  7  1  0
  9  8  2  0
 10  9  1  0
 10 11  2  0
 11 12  1  0
 11  7  1  0
 12 13  1  0
 14 13  2  0
 15 14  1  0
 16 15  2  0
 16 12  1  0
 17 16  1  0
 18 17  1  0
 19 20  1  0
 19 18  1  0
 20 21  1  0
 21 22  1  0
 22 17  1  0
  1 23  1  0
  2 24  1  0
  3 25  1  0
  8 26  1  0
  9 27  1  0
 13 28  1  0
 14 29  1  0
 18 30  1  0
 18 31  1  0
 19 32  1  0
 19 33  1  0
 20 34  1  0
 20 35  1  0
 21 36  1  0
 21 37  1  0
 22 38  1  0
 22 39  1  0
M  ISO  8  23  14  24  14  25  14  26  14  27  14  28  14  29  14  30  13
M  ISO  8  31  13  32  13  33  13  34  13  35  13  36  13  37  13  38  13
M  ISO  1  39  13
M  END
>  <minimizedAffinity>  (1) 
-4.91342783

>  <minimizedRMSD>  (1) 
0.993235409

$$$$
