
     RDKit          3D

 40 44  0  0  0  0  0  0  0  0999 V2000
   39.2100   23.4760   38.5820 C   0  0  0  0  0  0  0  0  0  0  0  0
   37.9970   24.2130   38.5100 C   0  0  0  0  0  0  0  0  0  0  0  0
   37.3720   24.3190   37.2470 C   0  0  0  0  0  0  0  0  0  0  0  0
   37.9620   23.7100   36.1600 N   0  0  0  0  0  0  0  0  0  0  0  0
   39.1360   23.0130   36.3000 C   0  0  0  0  0  0  0  0  0  0  0  0
   39.7310   22.9080   37.4910 N   0  0  0  0  0  0  0  0  0  0  0  0
   39.7140   22.4020   35.1520 N   0  0  0  0  0  0  0  0  0  0  0  0
   40.9870   22.4770   34.6970 C   0  0  0  0  0  0  0  0  0  0  0  0
   41.1040   21.7870   33.5280 C   0  0  0  0  0  0  0  0  0  0  0  0
   39.8820   21.2890   33.2760 N   0  0  0  0  0  0  0  0  0  0  0  0
   39.0630   21.6550   34.2430 C   0  0  0  0  0  0  0  0  0  0  0  0
   37.7020   21.2660   34.2020 N   0  0  0  0  0  0  0  0  0  0  0  0
   36.9390   21.4880   35.3090 C   0  0  0  0  0  0  0  0  0  0  0  0
   35.6530   21.1390   34.9000 C   0  0  0  0  0  0  0  0  0  0  0  0
   35.7220   20.7310   33.6090 N   0  0  0  0  0  0  0  0  0  0  0  0
   36.9440   20.7850   33.1390 C   0  0  0  0  0  0  0  0  0  0  0  0
   37.2950   20.4570   31.8040 C   0  0  0  0  0  0  0  0  0  0  0  0
   37.7690   21.2880   30.8060 C   0  0  0  0  0  0  0  0  0  0  0  0
   38.0390   20.9780   29.4940 C   0  0  0  0  0  0  0  0  0  0  0  0
   37.8160   19.6700   29.1220 C   0  0  0  0  0  0  0  0  0  0  0  0
   37.3460   18.7580   30.0410 C   0  0  0  0  0  0  0  0  0  0  0  0
   37.1560   17.4880   29.5400 C   0  0  0  0  0  0  0  0  0  0  0  0
   36.6800   16.5160   30.3900 C   0  0  0  0  0  0  0  0  0  0  0  0
   36.4070   16.8350   31.7030 C   0  0  0  0  0  0  0  0  0  0  0  0
   36.6260   18.1290   32.1170 C   0  0  0  0  0  0  0  0  0  0  0  0
   37.1000   19.1630   31.3370 C   0  0  0  0  0  0  0  0  0  0  0  0
   39.7261   23.3720   39.5478 H   0  0  0  0  0  0  0  0  0  0  0  0
   37.5610   24.6832   39.4038 H   0  0  0  0  0  0  0  0  0  0  0  0
   36.4313   24.8776   37.1332 H   0  0  0  0  0  0  0  0  0  0  0  0
   41.8056   23.0153   35.1971 H   0  0  0  0  0  0  0  0  0  0  0  0
   42.0106   21.6634   32.9174 H   0  0  0  0  0  0  0  0  0  0  0  0
   37.2620   21.8561   36.2939 H   0  0  0  0  0  0  0  0  0  0  0  0
   34.7429   21.1863   35.5160 H   0  0  0  0  0  0  0  0  0  0  0  0
   37.9540   22.3319   31.0994 H   0  0  0  0  0  0  0  0  0  0  0  0
   38.4113   21.7301   28.7828 H   0  0  0  0  0  0  0  0  0  0  0  0
   38.0141   19.3531   28.0874 H   0  0  0  0  0  0  0  0  0  0  0  0
   37.3791   17.2574   28.4878 H   0  0  0  0  0  0  0  0  0  0  0  0
   36.5184   15.4913   30.0241 H   0  0  0  0  0  0  0  0  0  0  0  0
   36.0244   16.0757   32.4010 H   0  0  0  0  0  0  0  0  0  0  0  0
   36.4020   18.3604   33.1688 H   0  0  0  0  0  0  0  0  0  0  0  0
  2  1  2  0
  3  2  1  0
  4  5  1  0
  4  3  2  0
  5  6  2  0
  6  1  1  0
  7  5  1  0
  8  7  1  0
  9  8  2  0
 10  9  1  0
 10 11  2  0
 11  7  1  0
 12 11  1  0
 12 13  1  0
 14 13  2  0
 15 14  1  0
 16 15  2  0
 16 12  1  0
 17 16  1  0
 18 17  2  0
 19 18  1  0
 20 19  2  0
 20 21  1  0
 21 26  2  0
 22 21  1  0
 22 23  2  0
 23 24  1  0
 24 25  2  0
 26 17  1  0
 26 25  1  0
  1 27  1  0
  2 28  1  0
  3 29  1  0
  8 30  1  0
  9 31  1  0
 13 32  1  0
 14 33  1  0
 18 34  1  0
 19 35  1  0
 20 36  1  0
 22 37  1  0
 23 38  1  0
 24 39  1  0
 25 40  1  0
M  ISO  8  27  14  28  14  29  14  30  14  31  14  32  14  33  14  34  14
M  ISO  6  35  14  36  14  37  14  38  14  39  14  40  14
M  END
>  <minimizedAffinity>  (1) 
-4.74772978

>  <minimizedRMSD>  (1) 
2.2833848

$$$$
