
     RDKit          3D

 31 34  0  0  0  0  0  0  0  0999 V2000
   39.4520   23.3260   38.4020 C   0  0  0  0  0  0  0  0  0  0  0  0
   38.2010   23.9800   38.5330 C   0  0  0  0  0  0  0  0  0  0  0  0
   37.4190   24.1210   37.3660 C   0  0  0  0  0  0  0  0  0  0  0  0
   37.8870   23.6280   36.1600 N   0  0  0  0  0  0  0  0  0  0  0  0
   39.1020   23.0080   36.1070 C   0  0  0  0  0  0  0  0  0  0  0  0
   39.8630   22.8660   37.2190 N   0  0  0  0  0  0  0  0  0  0  0  0
   39.5790   22.4860   34.8910 N   0  0  0  0  0  0  0  0  0  0  0  0
   40.7820   22.6110   34.2890 C   0  0  0  0  0  0  0  0  0  0  0  0
   40.8140   21.9350   33.0990 C   0  0  0  0  0  0  0  0  0  0  0  0
   39.6000   21.3670   32.9480 N   0  0  0  0  0  0  0  0  0  0  0  0
   38.8780   21.7150   34.0360 C   0  0  0  0  0  0  0  0  0  0  0  0
   37.5150   21.2780   34.1170 N   0  0  0  0  0  0  0  0  0  0  0  0
   36.9040   21.3720   35.3270 C   0  0  0  0  0  0  0  0  0  0  0  0
   35.5990   20.9660   35.0640 C   0  0  0  0  0  0  0  0  0  0  0  0
   35.4600   20.6350   33.7230 N   0  0  0  0  0  0  0  0  0  0  0  0
   36.6620   20.8280   33.1260 C   0  0  0  0  0  0  0  0  0  0  0  0
   37.1320   20.6610   31.7960 N   0  0  0  0  0  0  0  0  0  0  0  0
   38.1410   21.2400   31.1640 N   0  0  0  0  0  0  0  0  0  0  0  0
   38.2630   20.8100   29.9040 C   0  0  0  0  0  0  0  0  0  0  0  0
   37.2600   19.8780   29.6860 C   0  0  0  0  0  0  0  0  0  0  0  0
   36.5760   19.8120   30.8890 C   0  0  0  0  0  0  0  0  0  0  0  0
   40.0921   23.1961   39.2871 H   0  0  0  0  0  0  0  0  0  0  0  0
   37.8538   24.3620   39.5043 H   0  0  0  0  0  0  0  0  0  0  0  0
   36.4405   24.6212   37.4149 H   0  0  0  0  0  0  0  0  0  0  0  0
   41.6267   23.1822   34.7017 H   0  0  0  0  0  0  0  0  0  0  0  0
   41.6630   21.8682   32.4028 H   0  0  0  0  0  0  0  0  0  0  0  0
   37.3374   21.6926   36.2858 H   0  0  0  0  0  0  0  0  0  0  0  0
   34.7935   20.9148   35.8113 H   0  0  0  0  0  0  0  0  0  0  0  0
   39.0195   21.1356   29.1748 H   0  0  0  0  0  0  0  0  0  0  0  0
   37.0533   19.3160   28.7633 H   0  0  0  0  0  0  0  0  0  0  0  0
   35.7074   19.1656   31.0834 H   0  0  0  0  0  0  0  0  0  0  0  0
  1  2  2  0
  3  2  1  0
  4  3  2  0
  5  4  1  0
  5  6  2  0
  6  1  1  0
  7  5  1  0
  8  7  1  0
  9  8  2  0
 10  9  1  0
 10 11  2  0
 11 12  1  0
 11  7  1  0
 12 13  1  0
 14 13  2  0
 15 14  1  0
 16 15  2  0
 16 12  1  0
 17 16  1  0
 18 17  1  0
 19 18  2  0
 20 19  1  0
 20 21  2  0
 21 17  1  0
  1 22  1  0
  2 23  1  0
  3 24  1  0
  8 25  1  0
  9 26  1  0
 13 27  1  0
 14 28  1  0
 19 29  1  0
 20 30  1  0
 21 31  1  0
M  ISO  8  22  14  23  14  24  14  25  14  26  14  27  14  28  14  29  14
M  ISO  2  30  14  31  14
M  END
>  <minimizedAffinity>  (1) 
-4.65260172

>  <minimizedRMSD>  (1) 
0.937378287

$$$$
