
     RDKit          3D

 30 32  0  0  0  0  0  0  0  0999 V2000
   39.9200   22.9690   38.0610 C   0  0  0  0  0  0  0  0  0  0  0  0
   38.6710   23.3210   38.6030 C   0  0  0  0  0  0  0  0  0  0  0  0
   37.6310   23.5910   37.6880 C   0  0  0  0  0  0  0  0  0  0  0  0
   37.8660   23.5020   36.3310 N   0  0  0  0  0  0  0  0  0  0  0  0
   39.0980   23.1540   35.8790 C   0  0  0  0  0  0  0  0  0  0  0  0
   40.1120   22.8920   36.7410 N   0  0  0  0  0  0  0  0  0  0  0  0
   39.3680   23.0280   34.4930 N   0  0  0  0  0  0  0  0  0  0  0  0
   40.4010   23.4730   33.7480 C   0  0  0  0  0  0  0  0  0  0  0  0
   40.2520   23.1140   32.4270 C   0  0  0  0  0  0  0  0  0  0  0  0
   39.0830   22.4180   32.3450 N   0  0  0  0  0  0  0  0  0  0  0  0
   38.5840   22.3890   33.6080 C   0  0  0  0  0  0  0  0  0  0  0  0
   37.3310   21.7310   33.8030 N   0  0  0  0  0  0  0  0  0  0  0  0
   37.0300   21.3700   35.0950 C   0  0  0  0  0  0  0  0  0  0  0  0
   35.7500   20.8060   34.9910 C   0  0  0  0  0  0  0  0  0  0  0  0
   35.3230   20.8330   33.6690 N   0  0  0  0  0  0  0  0  0  0  0  0
   36.3110   21.4100   32.9330 C   0  0  0  0  0  0  0  0  0  0  0  0
   36.4760   21.7270   31.4930 C   0  0  0  0  0  0  0  0  0  0  0  0
   35.6940   23.0270   31.2590 C   0  0  0  0  0  0  0  0  0  0  0  0
   40.7582   22.7521   38.7394 H   0  0  0  0  0  0  0  0  0  0  0  0
   38.5120   23.3830   39.6897 H   0  0  0  0  0  0  0  0  0  0  0  0
   36.6334   23.8723   38.0563 H   0  0  0  0  0  0  0  0  0  0  0  0
   41.2513   24.0476   34.1441 H   0  0  0  0  0  0  0  0  0  0  0  0
   40.9408   23.3437   31.6007 H   0  0  0  0  0  0  0  0  0  0  0  0
   37.6471   21.4941   35.9971 H   0  0  0  0  0  0  0  0  0  0  0  0
   35.1691   20.4014   35.8329 H   0  0  0  0  0  0  0  0  0  0  0  0
   37.5395   21.8710   31.2518 H   0  0  0  0  0  0  0  0  0  0  0  0
   36.1065   20.9115   30.8539 H   0  0  0  0  0  0  0  0  0  0  0  0
   35.4257   23.4730   32.2281 H   0  0  0  0  0  0  0  0  0  0  0  0
   36.3176   23.7328   30.6906 H   0  0  0  0  0  0  0  0  0  0  0  0
   34.7783   22.8068   30.6906 H   0  0  0  0  0  0  0  0  0  0  0  0
  1  2  2  0
  3  2  1  0
  4  3  2  0
  5  4  1  0
  5  6  2  0
  6  1  1  0
  7  5  1  0
  8  7  1  0
  9  8  2  0
 10  9  1  0
 10 11  2  0
 11 12  1  0
 11  7  1  0
 12 13  1  0
 14 13  2  0
 15 14  1  0
 16 15  2  0
 16 12  1  0
 17 16  1  0
 18 17  1  0
  1 19  1  0
  2 20  1  0
  3 21  1  0
  8 22  1  0
  9 23  1  0
 13 24  1  0
 14 25  1  0
 17 26  1  0
 17 27  1  0
 18 28  1  0
 18 29  1  0
 18 30  1  0
M  ISO  8  19  14  20  14  21  14  22  14  23  14  24  14  25  14  26   8
M  ISO  4  27   8  28   8  29   8  30   8
M  END
>  <minimizedAffinity>  (1) 
-4.59436464

>  <minimizedRMSD>  (1) 
0.13422215

$$$$
