
     RDKit          3D

 30 33  0  0  0  0  0  0  0  0999 V2000
   39.3850   23.3900   38.4400 C   0  0  0  0  0  0  0  0  0  0  0  0
   38.1270   24.0370   38.5360 C   0  0  0  0  0  0  0  0  0  0  0  0
   37.3750   24.1550   37.3490 C   0  0  0  0  0  0  0  0  0  0  0  0
   37.8790   23.6460   36.1670 N   0  0  0  0  0  0  0  0  0  0  0  0
   39.0970   23.0320   36.1420 C   0  0  0  0  0  0  0  0  0  0  0  0
   39.8150   22.9200   37.2720 N   0  0  0  0  0  0  0  0  0  0  0  0
   39.6030   22.4950   34.9510 N   0  0  0  0  0  0  0  0  0  0  0  0
   40.8320   22.5970   34.4000 C   0  0  0  0  0  0  0  0  0  0  0  0
   40.8940   21.9050   33.2050 C   0  0  0  0  0  0  0  0  0  0  0  0
   39.6640   21.3560   33.0070 N   0  0  0  0  0  0  0  0  0  0  0  0
   38.9200   21.7310   34.0720 C   0  0  0  0  0  0  0  0  0  0  0  0
   37.5530   21.3140   34.1090 N   0  0  0  0  0  0  0  0  0  0  0  0
   36.9220   21.3770   35.3290 C   0  0  0  0  0  0  0  0  0  0  0  0
   35.6110   20.9750   35.0430 C   0  0  0  0  0  0  0  0  0  0  0  0
   35.4870   20.6800   33.6930 N   0  0  0  0  0  0  0  0  0  0  0  0
   36.6970   20.8910   33.1130 C   0  0  0  0  0  0  0  0  0  0  0  0
   37.1980   20.7670   31.7890 N   0  0  0  0  0  0  0  0  0  0  0  0
   38.1090   21.4340   31.0730 C   0  0  0  0  0  0  0  0  0  0  0  0
   38.1960   20.8780   29.8320 N   0  0  0  0  0  0  0  0  0  0  0  0
   37.3240   19.8630   29.8000 C   0  0  0  0  0  0  0  0  0  0  0  0
   36.7150   19.7960   30.9970 N   0  0  0  0  0  0  0  0  0  0  0  0
   40.0101   23.2758   39.3379 H   0  0  0  0  0  0  0  0  0  0  0  0
   37.7543   24.4294   39.4937 H   0  0  0  0  0  0  0  0  0  0  0  0
   36.3925   24.6495   37.3637 H   0  0  0  0  0  0  0  0  0  0  0  0
   41.6702   23.1553   34.8424 H   0  0  0  0  0  0  0  0  0  0  0  0
   41.7676   21.8153   32.5426 H   0  0  0  0  0  0  0  0  0  0  0  0
   37.3463   21.6730   36.2998 H   0  0  0  0  0  0  0  0  0  0  0  0
   34.7984   20.9036   35.7810 H   0  0  0  0  0  0  0  0  0  0  0  0
   38.6948   22.2943   31.4289 H   0  0  0  0  0  0  0  0  0  0  0  0
   37.1379   19.1989   28.9431 H   0  0  0  0  0  0  0  0  0  0  0  0
  1  2  2  0
  3  2  1  0
  4  3  2  0
  5  4  1  0
  5  6  2  0
  6  1  1  0
  7  5  1  0
  8  7  1  0
  9  8  2  0
 10  9  1  0
 10 11  2  0
 11 12  1  0
 11  7  1  0
 12 13  1  0
 14 13  2  0
 15 14  1  0
 16 15  2  0
 16 12  1  0
 17 16  1  0
 18 17  1  0
 19 18  2  0
 20 19  1  0
 20 21  2  0
 21 17  1  0
  1 22  1  0
  2 23  1  0
  3 24  1  0
  8 25  1  0
  9 26  1  0
 13 27  1  0
 14 28  1  0
 18 29  1  0
 20 30  1  0
M  ISO  8  22  14  23  14  24  14  25  14  26  14  27  14  28  14  29  14
M  ISO  1  30  14
M  END
>  <minimizedAffinity>  (1) 
-4.58788633

>  <minimizedRMSD>  (1) 
0.997840881

$$$$
