
     RDKit          3D

 30 31  0  0  0  0  0  0  0  0999 V2000
   38.5040   23.6250   35.7400 C   0  0  0  0  0  0  0  0  0  0  0  0
   41.4620   21.8250   37.2370 C   0  0  0  0  0  0  0  0  0  0  0  0
   40.1350   22.1440   36.9450 C   0  0  0  0  0  0  0  0  0  0  0  0
   39.8590   23.2200   36.0990 C   0  0  0  0  0  0  0  0  0  0  0  0
   40.9150   23.9220   35.5870 N   0  0  0  0  0  0  0  0  0  0  0  0
   42.1850   23.5880   35.8890 C   0  0  0  0  0  0  0  0  0  0  0  0
   42.4670   22.5590   36.6980 N   0  0  0  0  0  0  0  0  0  0  0  0
   37.5890   22.4370   36.0570 C   0  0  0  0  0  0  0  0  0  0  0  0
   38.0150   24.8550   36.4770 C   0  0  0  0  0  0  0  0  0  0  0  0
   38.4350   23.9530   34.2620 C   0  0  0  0  0  0  0  0  0  0  0  0
   38.1480   22.7850   33.4060 C   0  0  0  0  0  0  0  0  0  0  0  0
   39.0000   21.7250   33.1760 C   0  0  0  0  0  0  0  0  0  0  0  0
   38.5320   20.7280   32.3350 C   0  0  0  0  0  0  0  0  0  0  0  0
   37.3220   20.7380   31.7490 N   0  0  0  0  0  0  0  0  0  0  0  0
   36.5270   21.7760   31.9940 C   0  0  0  0  0  0  0  0  0  0  0  0
   36.9290   22.7720   32.8020 N   0  0  0  0  0  0  0  0  0  0  0  0
   41.6922   20.9802   37.9028 H   0  0  0  0  0  0  0  0  0  0  0  0
   39.3141   21.5531   37.3774 H   0  0  0  0  0  0  0  0  0  0  0  0
   43.0105   24.1752   35.4603 H   0  0  0  0  0  0  0  0  0  0  0  0
   37.5010   22.3227   37.1475 H   0  0  0  0  0  0  0  0  0  0  0  0
   36.5931   22.6159   35.6255 H   0  0  0  0  0  0  0  0  0  0  0  0
   38.0162   21.5198   35.6255 H   0  0  0  0  0  0  0  0  0  0  0  0
   38.0830   24.6839   37.5615 H   0  0  0  0  0  0  0  0  0  0  0  0
   38.6381   25.7189   36.2023 H   0  0  0  0  0  0  0  0  0  0  0  0
   36.9688   25.0553   36.2023 H   0  0  0  0  0  0  0  0  0  0  0  0
   37.6411   24.6988   34.1088 H   0  0  0  0  0  0  0  0  0  0  0  0
   39.4269   24.3285   33.9702 H   0  0  0  0  0  0  0  0  0  0  0  0
   39.9980   21.6738   33.6357 H   0  0  0  0  0  0  0  0  0  0  0  0
   39.1937   19.8726   32.1337 H   0  0  0  0  0  0  0  0  0  0  0  0
   35.5303   21.8197   31.5306 H   0  0  0  0  0  0  0  0  0  0  0  0
  1  8  1  0
  1  4  1  0
  1  9  1  0
  3  2  2  0
  4  3  1  0
  5  6  1  0
  5  4  2  0
  6  7  2  0
  7  2  1  0
 10  1  1  0
 11 10  1  0
 12 11  2  0
 13 12  1  0
 14 15  1  0
 14 13  2  0
 15 16  2  0
 16 11  1  0
  2 17  1  0
  3 18  1  0
  6 19  1  0
  8 20  1  0
  8 21  1  0
  8 22  1  0
  9 23  1  0
  9 24  1  0
  9 25  1  0
 10 26  1  0
 10 27  1  0
 12 28  1  0
 13 29  1  0
 15 30  1  0
M  ISO  8  17  14  18  14  19  14  20   8  21   8  22   8  23   8  24   8
M  ISO  6  25   8  26   8  27   8  28  14  29  14  30  14
M  END
>  <minimizedAffinity>  (1) 
-3.52231121

>  <minimizedRMSD>  (1) 
3.98245144

$$$$
