
     RDKit          3D

 33 36  0  0  0  0  0  0  0  0999 V2000
   39.4800   23.2400   38.4720 C   0  0  0  0  0  0  0  0  0  0  0  0
   38.2350   23.8860   38.6320 C   0  0  0  0  0  0  0  0  0  0  0  0
   37.4520   24.0600   37.4710 C   0  0  0  0  0  0  0  0  0  0  0  0
   37.9330   23.6000   36.2660 N   0  0  0  0  0  0  0  0  0  0  0  0
   39.1470   22.9810   36.1760 C   0  0  0  0  0  0  0  0  0  0  0  0
   39.8900   22.8150   37.2740 N   0  0  0  0  0  0  0  0  0  0  0  0
   39.5990   22.5230   34.9170 N   0  0  0  0  0  0  0  0  0  0  0  0
   40.8080   22.7040   34.3290 C   0  0  0  0  0  0  0  0  0  0  0  0
   40.8150   22.1270   33.0920 C   0  0  0  0  0  0  0  0  0  0  0  0
   39.5910   21.5890   32.9360 N   0  0  0  0  0  0  0  0  0  0  0  0
   38.8790   21.8250   34.0180 C   0  0  0  0  0  0  0  0  0  0  0  0
   37.5480   21.3710   34.0970 N   0  0  0  0  0  0  0  0  0  0  0  0
   36.9330   21.3960   35.3290 C   0  0  0  0  0  0  0  0  0  0  0  0
   35.6340   20.9790   35.0710 C   0  0  0  0  0  0  0  0  0  0  0  0
   35.5020   20.7100   33.7230 N   0  0  0  0  0  0  0  0  0  0  0  0
   36.6820   20.9470   33.1010 C   0  0  0  0  0  0  0  0  0  0  0  0
   36.9970   20.7950   31.6860 C   0  0  0  0  0  0  0  0  0  0  0  0
   37.8110   19.6090   31.2810 C   0  0  0  0  0  0  0  0  0  0  0  0
   38.6700   20.0520   30.1300 C   0  0  0  0  0  0  0  0  0  0  0  0
   38.4450   21.5300   29.9160 C   0  0  0  0  0  0  0  0  0  0  0  0
   37.4470   22.0040   30.9410 C   0  0  0  0  0  0  0  0  0  0  0  0
   40.1241   23.0838   39.3499 H   0  0  0  0  0  0  0  0  0  0  0  0
   37.8912   24.2374   39.6160 H   0  0  0  0  0  0  0  0  0  0  0  0
   36.4718   24.5559   37.5280 H   0  0  0  0  0  0  0  0  0  0  0  0
   41.6570   23.2369   34.7820 H   0  0  0  0  0  0  0  0  0  0  0  0
   41.6471   22.1060   32.3728 H   0  0  0  0  0  0  0  0  0  0  0  0
   37.3711   21.6813   36.2968 H   0  0  0  0  0  0  0  0  0  0  0  0
   34.8362   20.8788   35.8217 H   0  0  0  0  0  0  0  0  0  0  0  0
   38.4411   19.2767   32.1192 H   0  0  0  0  0  0  0  0  0  0  0  0
   37.1671   18.7646   30.9941 H   0  0  0  0  0  0  0  0  0  0  0  0
   39.3456   19.4108   29.5448 H   0  0  0  0  0  0  0  0  0  0  0  0
   38.9256   22.1519   29.1464 H   0  0  0  0  0  0  0  0  0  0  0  0
   37.1157   23.0398   31.1066 H   0  0  0  0  0  0  0  0  0  0  0  0
  1  2  2  0
  3  2  1  0
  4  3  2  0
  5  4  1  0
  5  6  2  0
  6  1  1  0
  7  5  1  0
  8  7  1  0
  9  8  2  0
 10  9  1  0
 10 11  2  0
 11 12  1  0
 11  7  1  0
 12 13  1  0
 14 13  2  0
 15 14  1  0
 16 15  2  0
 16 12  1  0
 17 16  1  0
 18 17  1  0
 19 18  1  0
 20 19  2  0
 20 21  1  0
 21 17  2  0
  1 22  1  0
  2 23  1  0
  3 24  1  0
  8 25  1  0
  9 26  1  0
 13 27  1  0
 14 28  1  0
 18 29  1  0
 18 30  1  0
 19 31  1  0
 20 32  1  0
 21 33  1  0
M  ISO  8  22  14  23  14  24  14  25  14  26  14  27  14  28  14  29  13
M  ISO  4  30  13  31  13  32  13  33  13
M  END
>  <minimizedAffinity>  (1) 
-4.49157047

>  <minimizedRMSD>  (1) 
0.878853083

$$$$
