
     RDKit          3D

 32 35  0  0  0  0  0  0  0  0999 V2000
   39.2640   23.1460   38.4190 C   0  0  0  0  0  0  0  0  0  0  0  0
   37.9540   23.6230   38.4050 C   0  0  0  0  0  0  0  0  0  0  0  0
   37.4180   23.9900   37.1540 C   0  0  0  0  0  0  0  0  0  0  0  0
   38.1960   23.8660   36.0240 N   0  0  0  0  0  0  0  0  0  0  0  0
   39.4510   23.3990   36.0910 C   0  0  0  0  0  0  0  0  0  0  0  0
   39.9710   23.0440   37.2940 N   0  0  0  0  0  0  0  0  0  0  0  0
   40.2600   23.2340   34.9330 N   0  0  0  0  0  0  0  0  0  0  0  0
   41.5450   23.5660   34.7150 C   0  0  0  0  0  0  0  0  0  0  0  0
   41.9290   23.2130   33.4410 C   0  0  0  0  0  0  0  0  0  0  0  0
   40.8430   22.6490   32.8700 N   0  0  0  0  0  0  0  0  0  0  0  0
   39.8540   22.6680   33.7690 C   0  0  0  0  0  0  0  0  0  0  0  0
   38.5790   22.1590   33.4240 N   0  0  0  0  0  0  0  0  0  0  0  0
   37.7260   21.8430   34.4540 C   0  0  0  0  0  0  0  0  0  0  0  0
   36.5570   21.4320   33.8000 C   0  0  0  0  0  0  0  0  0  0  0  0
   36.7300   21.5030   32.4280 N   0  0  0  0  0  0  0  0  0  0  0  0
   37.9890   21.9550   32.1950 C   0  0  0  0  0  0  0  0  0  0  0  0
   38.5970   22.1890   30.9070 C   0  0  0  0  0  0  0  0  0  0  0  0
   38.4980   23.4770   30.4170 C   0  0  0  0  0  0  0  0  0  0  0  0
   39.0110   23.9010   29.2120 C   0  0  0  0  0  0  0  0  0  0  0  0
   39.6530   22.9820   28.4690 N   0  0  0  0  0  0  0  0  0  0  0  0
   39.7820   21.7140   28.8920 C   0  0  0  0  0  0  0  0  0  0  0  0
   39.2550   21.3980   30.0660 N   0  0  0  0  0  0  0  0  0  0  0  0
   39.7214   22.8490   39.3743 H   0  0  0  0  0  0  0  0  0  0  0  0
   37.3645   23.7092   39.3297 H   0  0  0  0  0  0  0  0  0  0  0  0
   36.3889   24.3715   37.0809 H   0  0  0  0  0  0  0  0  0  0  0  0
   42.1992   24.0527   35.4533 H   0  0  0  0  0  0  0  0  0  0  0  0
   42.9178   23.3602   32.9822 H   0  0  0  0  0  0  0  0  0  0  0  0
   37.9160   21.8994   35.5360 H   0  0  0  0  0  0  0  0  0  0  0  0
   35.6363   21.1013   34.3030 H   0  0  0  0  0  0  0  0  0  0  0  0
   37.9704   24.2182   31.0353 H   0  0  0  0  0  0  0  0  0  0  0  0
   38.9011   24.9417   28.8730 H   0  0  0  0  0  0  0  0  0  0  0  0
   40.3076   20.9628   28.2842 H   0  0  0  0  0  0  0  0  0  0  0  0
  2  1  2  0
  3  2  1  0
  4  5  1  0
  4  3  2  0
  5  6  2  0
  6  1  1  0
  7  5  1  0
  8  7  1  0
  9  8  2  0
 10  9  1  0
 10 11  2  0
 11  7  1  0
 12 11  1  0
 12 13  1  0
 14 13  2  0
 15 14  1  0
 16 15  2  0
 16 12  1  0
 17 16  1  0
 18 17  2  0
 19 18  1  0
 20 21  1  0
 20 19  2  0
 21 22  2  0
 22 17  1  0
  1 23  1  0
  2 24  1  0
  3 25  1  0
  8 26  1  0
  9 27  1  0
 13 28  1  0
 14 29  1  0
 18 30  1  0
 19 31  1  0
 21 32  1  0
M  ISO  8  23  14  24  14  25  14  26  14  27  14  28  14  29  14  30  14
M  ISO  2  31  14  32  14
M  END
>  <minimizedAffinity>  (1) 
-4.38949156

>  <minimizedRMSD>  (1) 
2.16395426

$$$$
