
     RDKit          3D

 25 27  0  0  0  0  0  0  0  0999 V2000
   39.8780   22.9680   38.0620 C   0  0  0  0  0  0  0  0  0  0  0  0
   38.6100   23.3680   38.5530 C   0  0  0  0  0  0  0  0  0  0  0  0
   37.6010   23.6410   37.6080 C   0  0  0  0  0  0  0  0  0  0  0  0
   37.8760   23.5110   36.2570 N   0  0  0  0  0  0  0  0  0  0  0  0
   39.1200   23.1210   35.8540 C   0  0  0  0  0  0  0  0  0  0  0  0
   40.0870   22.8600   36.7530 N   0  0  0  0  0  0  0  0  0  0  0  0
   39.4030   22.9660   34.4820 N   0  0  0  0  0  0  0  0  0  0  0  0
   40.4550   23.3900   33.7460 C   0  0  0  0  0  0  0  0  0  0  0  0
   40.3230   23.0160   32.4280 C   0  0  0  0  0  0  0  0  0  0  0  0
   39.1500   22.3320   32.3340 N   0  0  0  0  0  0  0  0  0  0  0  0
   38.6290   22.3250   33.5850 C   0  0  0  0  0  0  0  0  0  0  0  0
   37.3660   21.6880   33.7650 N   0  0  0  0  0  0  0  0  0  0  0  0
   37.0250   21.3590   35.0590 C   0  0  0  0  0  0  0  0  0  0  0  0
   35.7380   20.8100   34.9350 C   0  0  0  0  0  0  0  0  0  0  0  0
   35.3440   20.8130   33.6010 N   0  0  0  0  0  0  0  0  0  0  0  0
   36.3610   21.3590   32.8850 C   0  0  0  0  0  0  0  0  0  0  0  0
   36.5510   21.6230   31.5360 O   0  0  0  0  0  0  0  0  0  0  0  0
   40.6929   22.7459   38.7667 H   0  0  0  0  0  0  0  0  0  0  0  0
   38.4205   23.4619   39.6325 H   0  0  0  0  0  0  0  0  0  0  0  0
   36.6010   23.9555   37.9414 H   0  0  0  0  0  0  0  0  0  0  0  0
   41.3057   23.9597   34.1482 H   0  0  0  0  0  0  0  0  0  0  0  0
   41.0277   23.2284   31.6105 H   0  0  0  0  0  0  0  0  0  0  0  0
   37.6206   21.4944   35.9739 H   0  0  0  0  0  0  0  0  0  0  0  0
   35.1304   20.4328   35.7708 H   0  0  0  0  0  0  0  0  0  0  0  0
   37.3950   22.0381   31.2269 H   0  0  0  0  0  0  0  0  0  0  0  0
  1  2  2  0
  3  2  1  0
  4  3  2  0
  5  4  1  0
  5  6  2  0
  6  1  1  0
  7  5  1  0
  8  7  1  0
  9  8  2  0
 10  9  1  0
 10 11  2  0
 11 12  1  0
 11  7  1  0
 12 13  1  0
 14 13  2  0
 15 14  1  0
 16 15  2  0
 16 12  1  0
 17 16  1  0
  1 18  1  0
  2 19  1  0
  3 20  1  0
  8 21  1  0
  9 22  1  0
 13 23  1  0
 14 24  1  0
 17 25  1  0
M  ISO  8  18  14  19  14  20  14  21  14  22  14  23  14  24  14  25   3
M  END
>  <minimizedAffinity>  (1) 
-4.30387592

>  <minimizedRMSD>  (1) 
0.135839999

$$$$
