
     RDKit          3D

 30 33  0  0  0  0  0  0  0  0999 V2000
   39.0050   23.2780   38.6570 C   0  0  0  0  0  0  0  0  0  0  0  0
   37.8550   24.0350   38.3630 C   0  0  0  0  0  0  0  0  0  0  0  0
   37.6110   24.3290   37.0040 C   0  0  0  0  0  0  0  0  0  0  0  0
   38.4890   23.8800   36.0330 N   0  0  0  0  0  0  0  0  0  0  0  0
   39.5860   23.1500   36.3920 C   0  0  0  0  0  0  0  0  0  0  0  0
   39.8040   22.8740   37.6800 N   0  0  0  0  0  0  0  0  0  0  0  0
   40.4760   22.6620   35.3950 N   0  0  0  0  0  0  0  0  0  0  0  0
   41.8190   22.7230   35.3430 C   0  0  0  0  0  0  0  0  0  0  0  0
   42.2890   22.1470   34.2010 C   0  0  0  0  0  0  0  0  0  0  0  0
   41.2100   21.7200   33.5400 N   0  0  0  0  0  0  0  0  0  0  0  0
   40.1150   22.0240   34.2470 C   0  0  0  0  0  0  0  0  0  0  0  0
   38.8200   21.7200   33.7670 N   0  0  0  0  0  0  0  0  0  0  0  0
   37.7900   21.7910   34.6360 C   0  0  0  0  0  0  0  0  0  0  0  0
   36.6300   21.5880   33.8390 C   0  0  0  0  0  0  0  0  0  0  0  0
   37.0400   21.3960   32.5260 N   0  0  0  0  0  0  0  0  0  0  0  0
   38.4010   21.4780   32.5030 C   0  0  0  0  0  0  0  0  0  0  0  0
   38.7700   21.3560   31.1770 C   0  0  0  0  0  0  0  0  0  0  0  0
   38.0450   20.0600   30.9220 C   0  0  0  0  0  0  0  0  0  0  0  0
   38.3200   19.5570   29.1750 S   0  0  0  0  0  0  0  0  0  0  0  0
   39.3830   21.1460   28.9600 C   0  0  0  0  0  0  0  0  0  0  0  0
   39.1030   21.2450   29.9760 N   0  0  0  0  0  0  0  0  0  0  0  0
   39.2409   23.0212   39.7003 H   0  0  0  0  0  0  0  0  0  0  0  0
   37.1769   24.3819   39.1567 H   0  0  0  0  0  0  0  0  0  0  0  0
   36.7246   24.9139   36.7173 H   0  0  0  0  0  0  0  0  0  0  0  0
   42.4530   23.1772   36.1188 H   0  0  0  0  0  0  0  0  0  0  0  0
   43.3395   22.0532   33.8884 H   0  0  0  0  0  0  0  0  0  0  0  0
   37.8373   21.9670   35.7208 H   0  0  0  0  0  0  0  0  0  0  0  0
   35.5906   21.5838   34.1991 H   0  0  0  0  0  0  0  0  0  0  0  0
   37.4482   19.5050   31.6608 H   0  0  0  0  0  0  0  0  0  0  0  0
   39.9690   21.6713   28.1915 H   0  0  0  0  0  0  0  0  0  0  0  0
  2  1  2  0
  3  2  1  0
  4  5  1  0
  4  3  2  0
  5  6  2  0
  6  1  1  0
  7  5  1  0
  8  7  1  0
  9  8  2  0
 10  9  1  0
 10 11  2  0
 11  7  1  0
 12 11  1  0
 12 13  1  0
 14 13  2  0
 15 14  1  0
 16 15  2  0
 16 12  1  0
 17 16  1  0
 18 17  2  0
 19 18  1  0
 20 19  1  0
 20 21  2  0
 21 17  1  0
  1 22  1  0
  2 23  1  0
  3 24  1  0
  8 25  1  0
  9 26  1  0
 13 27  1  0
 14 28  1  0
 18 29  1  0
 20 30  1  0
M  ISO  8  22  14  23  14  24  14  25  14  26  14  27  14  28  14  29  14
M  ISO  1  30  14
M  END
>  <minimizedAffinity>  (1) 
-4.27886343

>  <minimizedRMSD>  (1) 
2.4625175

$$$$
