
     RDKit          3D

 41 45  0  0  0  0  0  0  0  0999 V2000
   39.8540   22.6470   37.2630 C   0  0  0  0  0  0  0  0  0  0  0  0
   38.4460   22.7060   37.4990 C   0  0  0  0  0  0  0  0  0  0  0  0
   37.7040   23.6640   36.7540 C   0  0  0  0  0  0  0  0  0  0  0  0
   38.3370   24.4860   35.8520 N   0  0  0  0  0  0  0  0  0  0  0  0
   39.6840   24.3700   35.6780 C   0  0  0  0  0  0  0  0  0  0  0  0
   40.4320   23.4680   36.3710 N   0  0  0  0  0  0  0  0  0  0  0  0
   40.3650   25.1670   34.7430 N   0  0  0  0  0  0  0  0  0  0  0  0
   41.5230   25.8700   34.8300 C   0  0  0  0  0  0  0  0  0  0  0  0
   41.8200   26.5110   33.6380 C   0  0  0  0  0  0  0  0  0  0  0  0
   40.8150   26.1940   32.7860 N   0  0  0  0  0  0  0  0  0  0  0  0
   39.9610   25.3950   33.4620 C   0  0  0  0  0  0  0  0  0  0  0  0
   38.8050   24.9410   32.7940 N   0  0  0  0  0  0  0  0  0  0  0  0
   38.2080   23.8260   33.3020 C   0  0  0  0  0  0  0  0  0  0  0  0
   37.0860   23.6370   32.4910 C   0  0  0  0  0  0  0  0  0  0  0  0
   37.0300   24.6340   31.5100 N   0  0  0  0  0  0  0  0  0  0  0  0
   38.1150   25.4350   31.7170 C   0  0  0  0  0  0  0  0  0  0  0  0
   38.6450   26.6240   30.9820 C   0  0  0  0  0  0  0  0  0  0  0  0
   37.7660   27.7820   30.9340 C   0  0  0  0  0  0  0  0  0  0  0  0
   37.5200   28.5020   29.8210 N   0  0  0  0  0  0  0  0  0  0  0  0
   36.7280   29.5690   29.7450 C   0  0  0  0  0  0  0  0  0  0  0  0
   36.0670   30.0470   30.8400 N   0  0  0  0  0  0  0  0  0  0  0  0
   36.2460   29.3930   32.0190 C   0  0  0  0  0  0  0  0  0  0  0  0
   35.5900   29.8490   33.1400 C   0  0  0  0  0  0  0  0  0  0  0  0
   35.7420   29.2160   34.3390 C   0  0  0  0  0  0  0  0  0  0  0  0
   36.5640   28.1120   34.4030 C   0  0  0  0  0  0  0  0  0  0  0  0
   37.1970   27.6960   33.2520 C   0  0  0  0  0  0  0  0  0  0  0  0
   37.0820   28.2960   32.0160 C   0  0  0  0  0  0  0  0  0  0  0  0
   40.4698   21.9229   37.8166 H   0  0  0  0  0  0  0  0  0  0  0  0
   37.9572   22.0397   38.2251 H   0  0  0  0  0  0  0  0  0  0  0  0
   36.6170   23.7476   36.9005 H   0  0  0  0  0  0  0  0  0  0  0  0
   42.1476   25.9240   35.7339 H   0  0  0  0  0  0  0  0  0  0  0  0
   42.6925   27.1467   33.4267 H   0  0  0  0  0  0  0  0  0  0  0  0
   38.5350   23.2144   34.1558 H   0  0  0  0  0  0  0  0  0  0  0  0
   36.3541   22.8240   32.6065 H   0  0  0  0  0  0  0  0  0  0  0  0
   39.5822   26.9316   31.4689 H   0  0  0  0  0  0  0  0  0  0  0  0
   38.7687   26.2993   29.9383 H   0  0  0  0  0  0  0  0  0  0  0  0
   36.6031   30.0775   28.7776 H   0  0  0  0  0  0  0  0  0  0  0  0
   34.9374   30.7316   33.0684 H   0  0  0  0  0  0  0  0  0  0  0  0
   35.2192   29.5794   35.2360 H   0  0  0  0  0  0  0  0  0  0  0  0
   36.7115   27.5749   35.3515 H   0  0  0  0  0  0  0  0  0  0  0  0
   37.8478   26.8122   33.3253 H   0  0  0  0  0  0  0  0  0  0  0  0
  1  2  2  0
  3  2  1  0
  4  3  2  0
  5  4  1  0
  5  6  2  0
  6  1  1  0
  7  8  1  0
  7  5  1  0
  9  8  2  0
 10 11  2  0
 10  9  1  0
 11  7  1  0
 12 13  1  0
 12 11  1  0
 14 13  2  0
 15 16  2  0
 15 14  1  0
 16 12  1  0
 17 16  1  0
 18 17  1  0
 18 27  1  0
 19 18  2  0
 20 19  1  0
 20 21  2  0
 21 22  1  0
 22 23  1  0
 23 24  2  0
 24 25  1  0
 26 25  2  0
 27 22  2  0
 27 26  1  0
  1 28  1  0
  2 29  1  0
  3 30  1  0
  8 31  1  0
  9 32  1  0
 13 33  1  0
 14 34  1  0
 17 35  1  0
 17 36  1  0
 20 37  1  0
 23 38  1  0
 24 39  1  0
 25 40  1  0
 26 41  1  0
M  ISO  8  28  14  29  14  30  14  31  14  32  14  33  14  34  14  35   8
M  ISO  6  36   8  37  14  38  14  39  14  40  14  41  14
M  END
>  <minimizedAffinity>  (1) 
-5.82038403

>  <minimizedRMSD>  (1) 
3.63170576

$$$$
