
     RDKit          3D

 36 39  0  0  0  0  0  0  0  0999 V2000
   39.9890   22.8680   38.1860 C   0  0  0  0  0  0  0  0  0  0  0  0
   38.7030   23.1950   38.7210 C   0  0  0  0  0  0  0  0  0  0  0  0
   37.6800   23.5400   37.7950 C   0  0  0  0  0  0  0  0  0  0  0  0
   37.9420   23.5500   36.4430 N   0  0  0  0  0  0  0  0  0  0  0  0
   39.1920   23.2260   36.0040 C   0  0  0  0  0  0  0  0  0  0  0  0
   40.1950   22.8920   36.8580 N   0  0  0  0  0  0  0  0  0  0  0  0
   39.4850   23.1940   34.6330 N   0  0  0  0  0  0  0  0  0  0  0  0
   40.5320   23.6910   33.9280 C   0  0  0  0  0  0  0  0  0  0  0  0
   40.4080   23.4140   32.5730 C   0  0  0  0  0  0  0  0  0  0  0  0
   39.2500   22.7250   32.4340 N   0  0  0  0  0  0  0  0  0  0  0  0
   38.7190   22.6070   33.6750 C   0  0  0  0  0  0  0  0  0  0  0  0
   37.4810   21.9420   33.8060 N   0  0  0  0  0  0  0  0  0  0  0  0
   37.1740   21.4530   35.0410 C   0  0  0  0  0  0  0  0  0  0  0  0
   35.9010   20.9000   34.8900 C   0  0  0  0  0  0  0  0  0  0  0  0
   35.4730   21.0650   33.5660 N   0  0  0  0  0  0  0  0  0  0  0  0
   36.4710   21.7120   32.9100 C   0  0  0  0  0  0  0  0  0  0  0  0
   36.6210   22.1280   31.4840 C   0  0  0  0  0  0  0  0  0  0  0  0
   36.2550   23.5280   31.2240 C   0  0  0  0  0  0  0  0  0  0  0  0
   34.9910   24.0700   31.1540 C   0  0  0  0  0  0  0  0  0  0  0  0
   34.6730   25.3740   30.9060 C   0  0  0  0  0  0  0  0  0  0  0  0
   35.7010   26.2690   30.6990 C   0  0  0  0  0  0  0  0  0  0  0  0
   36.9670   25.7390   30.7660 C   0  0  0  0  0  0  0  0  0  0  0  0
   37.2250   24.4490   31.0140 N   0  0  0  0  0  0  0  0  0  0  0  0
   40.8117   22.5961   38.8636 H   0  0  0  0  0  0  0  0  0  0  0  0
   38.5132   23.1802   39.8044 H   0  0  0  0  0  0  0  0  0  0  0  0
   36.6755   23.7999   38.1602 H   0  0  0  0  0  0  0  0  0  0  0  0
   41.3726   24.2434   34.3733 H   0  0  0  0  0  0  0  0  0  0  0  0
   41.1087   23.6970   31.7737 H   0  0  0  0  0  0  0  0  0  0  0  0
   37.7905   21.4866   35.9514 H   0  0  0  0  0  0  0  0  0  0  0  0
   35.3230   20.4102   35.6875 H   0  0  0  0  0  0  0  0  0  0  0  0
   37.6719   21.9860   31.1917 H   0  0  0  0  0  0  0  0  0  0  0  0
   35.9285   21.5057   30.8982 H   0  0  0  0  0  0  0  0  0  0  0  0
   34.1496   23.3799   31.3148 H   0  0  0  0  0  0  0  0  0  0  0  0
   33.6237   25.7023   30.8722 H   0  0  0  0  0  0  0  0  0  0  0  0
   35.5201   27.3345   30.4942 H   0  0  0  0  0  0  0  0  0  0  0  0
   37.8197   26.4153   30.6063 H   0  0  0  0  0  0  0  0  0  0  0  0
  1  2  2  0
  3  2  1  0
  4  3  2  0
  5  4  1  0
  5  6  2  0
  6  1  1  0
  7  5  1  0
  8  7  1  0
  9  8  2  0
 10  9  1  0
 10 11  2  0
 11 12  1  0
 11  7  1  0
 12 13  1  0
 14 13  2  0
 15 14  1  0
 16 15  2  0
 16 12  1  0
 17 16  1  0
 18 17  1  0
 19 18  2  0
 20 19  1  0
 21 22  1  0
 21 20  2  0
 22 23  2  0
 23 18  1  0
  1 24  1  0
  2 25  1  0
  3 26  1  0
  8 27  1  0
  9 28  1  0
 13 29  1  0
 14 30  1  0
 17 31  1  0
 17 32  1  0
 19 33  1  0
 20 34  1  0
 21 35  1  0
 22 36  1  0
M  ISO  8  24  14  25  14  26  14  27  14  28  14  29  14  30  14  31   8
M  ISO  5  32   8  33  14  34  14  35  14  36  14
M  END
>  <minimizedAffinity>  (1) 
-5.21919966

>  <minimizedRMSD>  (1) 
0.603235841

$$$$
