
     RDKit          3D

 35 38  0  0  0  0  0  0  0  0999 V2000
   39.7420   23.0350   38.1320 C   0  0  0  0  0  0  0  0  0  0  0  0
   38.4800   23.5920   38.5010 C   0  0  0  0  0  0  0  0  0  0  0  0
   37.5460   23.8320   37.4540 C   0  0  0  0  0  0  0  0  0  0  0  0
   37.8680   23.5320   36.1500 N   0  0  0  0  0  0  0  0  0  0  0  0
   39.0940   23.0000   35.8750 C   0  0  0  0  0  0  0  0  0  0  0  0
   40.0120   22.7580   36.8480 N   0  0  0  0  0  0  0  0  0  0  0  0
   39.4440   22.6560   34.5580 N   0  0  0  0  0  0  0  0  0  0  0  0
   40.5680   22.9000   33.8390 C   0  0  0  0  0  0  0  0  0  0  0  0
   40.4790   22.3700   32.5600 C   0  0  0  0  0  0  0  0  0  0  0  0
   39.2570   21.7780   32.4890 N   0  0  0  0  0  0  0  0  0  0  0  0
   38.6640   21.9600   33.6870 C   0  0  0  0  0  0  0  0  0  0  0  0
   37.3590   21.4530   33.8750 N   0  0  0  0  0  0  0  0  0  0  0  0
   36.9500   21.2650   35.1620 C   0  0  0  0  0  0  0  0  0  0  0  0
   35.6290   20.8220   35.0390 C   0  0  0  0  0  0  0  0  0  0  0  0
   35.2820   20.7490   33.6800 N   0  0  0  0  0  0  0  0  0  0  0  0
   36.3710   21.1420   32.9820 C   0  0  0  0  0  0  0  0  0  0  0  0
   36.6250   21.2180   31.5130 C   0  0  0  0  0  0  0  0  0  0  0  0
   36.7620   19.8200   31.0240 C   0  0  0  0  0  0  0  0  0  0  0  0
   36.9730   18.5950   31.6080 C   0  0  0  0  0  0  0  0  0  0  0  0
   37.0380   17.4420   30.8590 C   0  0  0  0  0  0  0  0  0  0  0  0
   36.9010   17.4640   29.5390 N   0  0  0  0  0  0  0  0  0  0  0  0
   36.6930   18.6590   28.9400 C   0  0  0  0  0  0  0  0  0  0  0  0
   36.6300   19.7640   29.6600 N   0  0  0  0  0  0  0  0  0  0  0  0
   40.4972   22.8319   38.9056 H   0  0  0  0  0  0  0  0  0  0  0  0
   38.2400   23.8255   39.5488 H   0  0  0  0  0  0  0  0  0  0  0  0
   36.5603   24.2601   37.6887 H   0  0  0  0  0  0  0  0  0  0  0  0
   41.4407   23.4493   34.2220 H   0  0  0  0  0  0  0  0  0  0  0  0
   41.2399   22.4186   31.7671 H   0  0  0  0  0  0  0  0  0  0  0  0
   37.5265   21.4250   36.0851 H   0  0  0  0  0  0  0  0  0  0  0  0
   34.9639   20.5695   35.8780 H   0  0  0  0  0  0  0  0  0  0  0  0
   35.7825   21.7140   31.0088 H   0  0  0  0  0  0  0  0  0  0  0  0
   37.5342   21.7997   31.3008 H   0  0  0  0  0  0  0  0  0  0  0  0
   37.0928   18.5339   32.6997 H   0  0  0  0  0  0  0  0  0  0  0  0
   37.2073   16.4806   31.3659 H   0  0  0  0  0  0  0  0  0  0  0  0
   36.5758   18.7104   27.8475 H   0  0  0  0  0  0  0  0  0  0  0  0
  1  2  2  0
  3  2  1  0
  4  3  2  0
  5  4  1  0
  5  6  2  0
  6  1  1  0
  7  5  1  0
  8  7  1  0
  9  8  2  0
 10  9  1  0
 10 11  2  0
 11 12  1  0
 11  7  1  0
 12 13  1  0
 14 13  2  0
 15 14  1  0
 16 15  2  0
 16 12  1  0
 17 16  1  0
 18 17  1  0
 18 19  2  0
 20 19  1  0
 21 20  2  0
 22 21  1  0
 22 23  2  0
 23 18  1  0
  1 24  1  0
  2 25  1  0
  3 26  1  0
  8 27  1  0
  9 28  1  0
 13 29  1  0
 14 30  1  0
 17 31  1  0
 17 32  1  0
 19 33  1  0
 20 34  1  0
 22 35  1  0
M  ISO  8  24  14  25  14  26  14  27  14  28  14  29  14  30  14  31   8
M  ISO  4  32   8  33  14  34  14  35  14
M  END
>  <minimizedAffinity>  (1) 
-4.96940947

>  <minimizedRMSD>  (1) 
0.60599643

$$$$
