
     RDKit          3D

 35 38  0  0  0  0  0  0  0  0999 V2000
   39.6770   23.0810   38.2350 C   0  0  0  0  0  0  0  0  0  0  0  0
   38.4190   23.6920   38.5330 C   0  0  0  0  0  0  0  0  0  0  0  0
   37.5330   23.9120   37.4430 C   0  0  0  0  0  0  0  0  0  0  0  0
   37.8920   23.5440   36.1660 N   0  0  0  0  0  0  0  0  0  0  0  0
   39.1100   22.9630   35.9610 C   0  0  0  0  0  0  0  0  0  0  0  0
   39.9890   22.7350   36.9760 N   0  0  0  0  0  0  0  0  0  0  0  0
   39.4970   22.5500   34.6760 N   0  0  0  0  0  0  0  0  0  0  0  0
   40.6540   22.7240   33.9920 C   0  0  0  0  0  0  0  0  0  0  0  0
   40.5930   22.1360   32.7340 C   0  0  0  0  0  0  0  0  0  0  0  0
   39.3580   21.5820   32.6410 N   0  0  0  0  0  0  0  0  0  0  0  0
   38.7250   21.8430   33.8090 C   0  0  0  0  0  0  0  0  0  0  0  0
   37.3980   21.3860   33.9660 N   0  0  0  0  0  0  0  0  0  0  0  0
   36.9400   21.2630   35.2450 C   0  0  0  0  0  0  0  0  0  0  0  0
   35.6130   20.8490   35.0930 C   0  0  0  0  0  0  0  0  0  0  0  0
   35.3050   20.7300   33.7280 N   0  0  0  0  0  0  0  0  0  0  0  0
   36.4250   21.0650   33.0270 C   0  0  0  0  0  0  0  0  0  0  0  0
   36.7440   21.1160   31.5820 C   0  0  0  0  0  0  0  0  0  0  0  0
   36.8310   19.7230   31.0820 C   0  0  0  0  0  0  0  0  0  0  0  0
   36.6910   19.6370   29.6890 C   0  0  0  0  0  0  0  0  0  0  0  0
   36.7350   18.4810   28.9710 C   0  0  0  0  0  0  0  0  0  0  0  0
   36.9280   17.2970   29.6160 N   0  0  0  0  0  0  0  0  0  0  0  0
   37.0630   17.3630   30.9480 C   0  0  0  0  0  0  0  0  0  0  0  0
   37.0130   18.5160   31.6040 N   0  0  0  0  0  0  0  0  0  0  0  0
   40.3964   22.8926   39.0456 H   0  0  0  0  0  0  0  0  0  0  0  0
   38.1487   23.9791   39.5599 H   0  0  0  0  0  0  0  0  0  0  0  0
   36.5535   24.3797   37.6214 H   0  0  0  0  0  0  0  0  0  0  0  0
   41.5301   23.2622   34.3828 H   0  0  0  0  0  0  0  0  0  0  0  0
   41.3843   22.1226   31.9700 H   0  0  0  0  0  0  0  0  0  0  0  0
   37.4883   21.4471   36.1806 H   0  0  0  0  0  0  0  0  0  0  0  0
   34.9150   20.6468   35.9188 H   0  0  0  0  0  0  0  0  0  0  0  0
   35.9517   21.6569   31.0438 H   0  0  0  0  0  0  0  0  0  0  0  0
   37.6973   21.6403   31.4196 H   0  0  0  0  0  0  0  0  0  0  0  0
   36.5338   20.5741   29.1349 H   0  0  0  0  0  0  0  0  0  0  0  0
   36.6155   18.5031   27.8777 H   0  0  0  0  0  0  0  0  0  0  0  0
   37.2200   16.4334   31.5148 H   0  0  0  0  0  0  0  0  0  0  0  0
  1  2  2  0
  3  2  1  0
  4  3  2  0
  5  4  1  0
  5  6  2  0
  6  1  1  0
  7  5  1  0
  8  7  1  0
  9  8  2  0
 10  9  1  0
 10 11  2  0
 11 12  1  0
 11  7  1  0
 12 13  1  0
 14 13  2  0
 15 14  1  0
 16 15  2  0
 16 12  1  0
 17 16  1  0
 18 17  1  0
 18 23  1  0
 19 18  2  0
 20 21  2  0
 20 19  1  0
 21 22  1  0
 22 23  2  0
  1 24  1  0
  2 25  1  0
  3 26  1  0
  8 27  1  0
  9 28  1  0
 13 29  1  0
 14 30  1  0
 17 31  1  0
 17 32  1  0
 19 33  1  0
 20 34  1  0
 22 35  1  0
M  ISO  8  24  14  25  14  26  14  27  14  28  14  29  14  30  14  31   8
M  ISO  4  32   8  33  14  34  14  35  14
M  END
>  <minimizedAffinity>  (1) 
-4.90775156

>  <minimizedRMSD>  (1) 
0.876609921

$$$$
