
     RDKit          3D

 34 37  0  0  0  0  0  0  0  0999 V2000
   39.7300   23.0180   38.1140 C   0  0  0  0  0  0  0  0  0  0  0  0
   38.4630   23.5810   38.4660 C   0  0  0  0  0  0  0  0  0  0  0  0
   37.5430   23.8270   37.4080 C   0  0  0  0  0  0  0  0  0  0  0  0
   37.8820   23.5270   36.1040 N   0  0  0  0  0  0  0  0  0  0  0  0
   39.1080   22.9910   35.8450 C   0  0  0  0  0  0  0  0  0  0  0  0
   40.0100   22.7430   36.8300 N   0  0  0  0  0  0  0  0  0  0  0  0
   39.4660   22.6480   34.5280 N   0  0  0  0  0  0  0  0  0  0  0  0
   40.5970   22.8890   33.8250 C   0  0  0  0  0  0  0  0  0  0  0  0
   40.5150   22.3600   32.5420 C   0  0  0  0  0  0  0  0  0  0  0  0
   39.2970   21.7770   32.4610 N   0  0  0  0  0  0  0  0  0  0  0  0
   38.6900   21.9600   33.6530 C   0  0  0  0  0  0  0  0  0  0  0  0
   37.3790   21.4600   33.8220 N   0  0  0  0  0  0  0  0  0  0  0  0
   36.9610   21.2640   35.1070 C   0  0  0  0  0  0  0  0  0  0  0  0
   35.6390   20.8260   34.9680 C   0  0  0  0  0  0  0  0  0  0  0  0
   35.2990   20.7670   33.6050 N   0  0  0  0  0  0  0  0  0  0  0  0
   36.3900   21.1620   32.8950 C   0  0  0  0  0  0  0  0  0  0  0  0
   36.6630   21.2870   31.4520 C   0  0  0  0  0  0  0  0  0  0  0  0
   36.7800   19.8780   30.9110 C   0  0  0  0  0  0  0  0  0  0  0  0
   36.6770   19.5930   29.6260 C   0  0  0  0  0  0  0  0  0  0  0  0
   36.7810   18.3550   29.0820 C   0  0  0  0  0  0  0  0  0  0  0  0
   37.0190   17.3580   30.0410 C   0  0  0  0  0  0  0  0  0  0  0  0
   37.0760   18.3010   31.6860 S   0  0  0  0  0  0  0  0  0  0  0  0
   40.4754   22.8102   38.8958 H   0  0  0  0  0  0  0  0  0  0  0  0
   38.2101   23.8142   39.5108 H   0  0  0  0  0  0  0  0  0  0  0  0
   36.5561   24.2587   37.6309 H   0  0  0  0  0  0  0  0  0  0  0  0
   41.4685   23.4331   34.2180 H   0  0  0  0  0  0  0  0  0  0  0  0
   41.2822   22.4060   31.7551 H   0  0  0  0  0  0  0  0  0  0  0  0
   37.5309   21.4152   36.0357 H   0  0  0  0  0  0  0  0  0  0  0  0
   34.9673   20.5670   35.7997 H   0  0  0  0  0  0  0  0  0  0  0  0
   35.8380   21.8176   30.9541 H   0  0  0  0  0  0  0  0  0  0  0  0
   37.5844   21.8597   31.2705 H   0  0  0  0  0  0  0  0  0  0  0  0
   36.4910   20.4309   28.9381 H   0  0  0  0  0  0  0  0  0  0  0  0
   36.6887   18.1537   28.0045 H   0  0  0  0  0  0  0  0  0  0  0  0
   37.1438   16.2776   29.8764 H   0  0  0  0  0  0  0  0  0  0  0  0
  1  2  2  0
  3  2  1  0
  4  3  2  0
  5  4  1  0
  5  6  2  0
  6  1  1  0
  7  5  1  0
  8  7  1  0
  9  8  2  0
 10  9  1  0
 10 11  2  0
 11 12  1  0
 11  7  1  0
 12 13  1  0
 14 13  2  0
 15 14  1  0
 16 15  2  0
 16 12  1  0
 17 16  1  0
 18 17  1  0
 18 22  1  0
 19 18  2  0
 20 19  1  0
 20 21  2  0
 21 22  1  0
  1 23  1  0
  2 24  1  0
  3 25  1  0
  8 26  1  0
  9 27  1  0
 13 28  1  0
 14 29  1  0
 17 30  1  0
 17 31  1  0
 19 32  1  0
 20 33  1  0
 21 34  1  0
M  ISO  8  23  14  24  14  25  14  26  14  27  14  28  14  29  14  30   8
M  ISO  4  31   8  32  14  33  14  34  14
M  END
>  <minimizedAffinity>  (1) 
-4.90368509

>  <minimizedRMSD>  (1) 
0.917508304

$$$$
