
     RDKit          3D

 34 37  0  0  0  0  0  0  0  0999 V2000
   39.9720   22.9070   38.0670 C   0  0  0  0  0  0  0  0  0  0  0  0
   38.6790   23.1630   38.6200 C   0  0  0  0  0  0  0  0  0  0  0  0
   37.6390   23.5040   37.7100 C   0  0  0  0  0  0  0  0  0  0  0  0
   37.8980   23.5770   36.3620 N   0  0  0  0  0  0  0  0  0  0  0  0
   39.1550   23.3180   35.9010 C   0  0  0  0  0  0  0  0  0  0  0  0
   40.1710   22.9890   36.7430 N   0  0  0  0  0  0  0  0  0  0  0  0
   39.4430   23.3480   34.5310 N   0  0  0  0  0  0  0  0  0  0  0  0
   40.4690   23.9080   33.8460 C   0  0  0  0  0  0  0  0  0  0  0  0
   40.3530   23.6830   32.4800 C   0  0  0  0  0  0  0  0  0  0  0  0
   39.2100   22.9570   32.3100 N   0  0  0  0  0  0  0  0  0  0  0  0
   38.6900   22.7750   33.5520 C   0  0  0  0  0  0  0  0  0  0  0  0
   37.4780   22.0640   33.6620 N   0  0  0  0  0  0  0  0  0  0  0  0
   37.1950   21.5170   34.8770 C   0  0  0  0  0  0  0  0  0  0  0  0
   35.9390   20.9310   34.7100 C   0  0  0  0  0  0  0  0  0  0  0  0
   35.4860   21.1270   33.3990 N   0  0  0  0  0  0  0  0  0  0  0  0
   36.4680   21.8360   32.7680 C   0  0  0  0  0  0  0  0  0  0  0  0
   36.5980   22.3050   31.3510 C   0  0  0  0  0  0  0  0  0  0  0  0
   36.1410   23.6540   31.1460 N   0  0  0  0  0  0  0  0  0  0  0  0
   36.9070   24.7250   30.8690 N   0  0  0  0  0  0  0  0  0  0  0  0
   36.1960   25.8290   30.7350 C   0  0  0  0  0  0  0  0  0  0  0  0
   34.8580   25.4800   30.9360 C   0  0  0  0  0  0  0  0  0  0  0  0
   34.9000   24.1240   31.1850 C   0  0  0  0  0  0  0  0  0  0  0  0
   40.8081   22.6414   38.7306 H   0  0  0  0  0  0  0  0  0  0  0  0
   38.4955   23.0992   39.7027 H   0  0  0  0  0  0  0  0  0  0  0  0
   36.6260   23.7095   38.0862 H   0  0  0  0  0  0  0  0  0  0  0  0
   41.2910   24.4704   34.3130 H   0  0  0  0  0  0  0  0  0  0  0  0
   41.0435   24.0219   31.6936 H   0  0  0  0  0  0  0  0  0  0  0  0
   37.8160   21.5333   35.7848 H   0  0  0  0  0  0  0  0  0  0  0  0
   35.3855   20.3934   35.4940 H   0  0  0  0  0  0  0  0  0  0  0  0
   37.6580   22.2493   31.0622 H   0  0  0  0  0  0  0  0  0  0  0  0
   35.9616   21.6520   30.7356 H   0  0  0  0  0  0  0  0  0  0  0  0
   36.5833   26.8332   30.5081 H   0  0  0  0  0  0  0  0  0  0  0  0
   33.9751   26.1353   30.9032 H   0  0  0  0  0  0  0  0  0  0  0  0
   34.0130   23.5069   31.3909 H   0  0  0  0  0  0  0  0  0  0  0  0
  1  2  2  0
  3  2  1  0
  4  3  2  0
  5  4  1  0
  5  6  2  0
  6  1  1  0
  7  5  1  0
  8  7  1  0
  9  8  2  0
 10  9  1  0
 10 11  2  0
 11 12  1  0
 11  7  1  0
 12 13  1  0
 14 13  2  0
 15 14  1  0
 16 15  2  0
 16 12  1  0
 17 16  1  0
 18 22  1  0
 18 17  1  0
 19 18  1  0
 20 19  2  0
 20 21  1  0
 21 22  2  0
  1 23  1  0
  2 24  1  0
  3 25  1  0
  8 26  1  0
  9 27  1  0
 13 28  1  0
 14 29  1  0
 17 30  1  0
 17 31  1  0
 20 32  1  0
 21 33  1  0
 22 34  1  0
M  ISO  8  23  14  24  14  25  14  26  14  27  14  28  14  29  14  30   8
M  ISO  4  31   8  32  14  33  14  34  14
M  END
>  <minimizedAffinity>  (1) 
-4.89127445

>  <minimizedRMSD>  (1) 
0.506507456

$$$$
