
     RDKit          3D

 32 35  0  0  0  0  0  0  0  0999 V2000
   39.9450   23.0060   38.0270 C   0  0  0  0  0  0  0  0  0  0  0  0
   38.6780   23.3210   38.6080 C   0  0  0  0  0  0  0  0  0  0  0  0
   37.6050   23.5940   37.7160 C   0  0  0  0  0  0  0  0  0  0  0  0
   37.7980   23.5520   36.3520 N   0  0  0  0  0  0  0  0  0  0  0  0
   39.0400   23.2410   35.8760 C   0  0  0  0  0  0  0  0  0  0  0  0
   40.0950   22.9740   36.6920 N   0  0  0  0  0  0  0  0  0  0  0  0
   39.2690   23.1580   34.4930 N   0  0  0  0  0  0  0  0  0  0  0  0
   40.2570   23.6650   33.7200 C   0  0  0  0  0  0  0  0  0  0  0  0
   40.0820   23.3300   32.3830 C   0  0  0  0  0  0  0  0  0  0  0  0
   38.9430   22.5870   32.3260 N   0  0  0  0  0  0  0  0  0  0  0  0
   38.4800   22.5010   33.5980 C   0  0  0  0  0  0  0  0  0  0  0  0
   37.2770   21.7950   33.8200 N   0  0  0  0  0  0  0  0  0  0  0  0
   37.0450   21.3600   35.0900 C   0  0  0  0  0  0  0  0  0  0  0  0
   35.7830   20.7610   35.0230 C   0  0  0  0  0  0  0  0  0  0  0  0
   35.2940   20.8440   33.7260 N   0  0  0  0  0  0  0  0  0  0  0  0
   36.2330   21.4880   32.9770 C   0  0  0  0  0  0  0  0  0  0  0  0
   36.3240   21.8370   31.5280 C   0  0  0  0  0  0  0  0  0  0  0  0
   36.6980   20.5990   30.7960 C   0  0  0  0  0  0  0  0  0  0  0  0
   35.9080   19.4850   30.8360 N   0  0  0  0  0  0  0  0  0  0  0  0
   36.4340   18.5410   30.1250 O   0  0  0  0  0  0  0  0  0  0  0  0
   37.5560   18.9560   29.5930 C   0  0  0  0  0  0  0  0  0  0  0  0
   37.7140   20.2180   30.0060 N   0  0  0  0  0  0  0  0  0  0  0  0
   40.8045   22.7879   38.6779 H   0  0  0  0  0  0  0  0  0  0  0  0
   38.5388   23.3510   39.6987 H   0  0  0  0  0  0  0  0  0  0  0  0
   36.6115   23.8411   38.1183 H   0  0  0  0  0  0  0  0  0  0  0  0
   41.0943   24.2673   34.1024 H   0  0  0  0  0  0  0  0  0  0  0  0
   40.7324   23.6088   31.5409 H   0  0  0  0  0  0  0  0  0  0  0  0
   37.7007   21.4576   35.9678 H   0  0  0  0  0  0  0  0  0  0  0  0
   35.2574   20.2948   35.8694 H   0  0  0  0  0  0  0  0  0  0  0  0
   35.3526   22.2075   31.1687 H   0  0  0  0  0  0  0  0  0  0  0  0
   37.0726   22.6263   31.3646 H   0  0  0  0  0  0  0  0  0  0  0  0
   38.2309   18.3835   28.9397 H   0  0  0  0  0  0  0  0  0  0  0  0
  1  2  2  0
  3  2  1  0
  4  3  2  0
  5  4  1  0
  5  6  2  0
  6  1  1  0
  7  5  1  0
  8  7  1  0
  9  8  2  0
 10  9  1  0
 10 11  2  0
 11 12  1  0
 11  7  1  0
 12 13  1  0
 14 13  2  0
 15 14  1  0
 16 15  2  0
 16 12  1  0
 17 16  1  0
 18 19  2  0
 18 17  1  0
 20 19  1  0
 21 22  2  0
 21 20  1  0
 22 18  1  0
  1 23  1  0
  2 24  1  0
  3 25  1  0
  8 26  1  0
  9 27  1  0
 13 28  1  0
 14 29  1  0
 17 30  1  0
 17 31  1  0
 21 32  1  0
M  ISO  8  23  14  24  14  25  14  26  14  27  14  28  14  29  14  30   8
M  ISO  2  31   8  32  14
M  END
>  <minimizedAffinity>  (1) 
-4.87896395

>  <minimizedRMSD>  (1) 
0.222139984

$$$$
