
     RDKit          3D

 33 36  0  0  0  0  0  0  0  0999 V2000
   39.9120   22.9860   38.0640 C   0  0  0  0  0  0  0  0  0  0  0  0
   38.6310   23.3550   38.5840 C   0  0  0  0  0  0  0  0  0  0  0  0
   37.5950   23.6370   37.6500 C   0  0  0  0  0  0  0  0  0  0  0  0
   37.8460   23.5500   36.2990 N   0  0  0  0  0  0  0  0  0  0  0  0
   39.0880   23.1920   35.8740 C   0  0  0  0  0  0  0  0  0  0  0  0
   40.1000   22.9160   36.7350 N   0  0  0  0  0  0  0  0  0  0  0  0
   39.3630   23.0640   34.5000 N   0  0  0  0  0  0  0  0  0  0  0  0
   40.3940   23.5200   33.7480 C   0  0  0  0  0  0  0  0  0  0  0  0
   40.2520   23.1490   32.4210 C   0  0  0  0  0  0  0  0  0  0  0  0
   39.1040   22.4430   32.3490 N   0  0  0  0  0  0  0  0  0  0  0  0
   38.5870   22.4040   33.5980 C   0  0  0  0  0  0  0  0  0  0  0  0
   37.3530   21.7460   33.7950 N   0  0  0  0  0  0  0  0  0  0  0  0
   37.0590   21.3530   35.0650 C   0  0  0  0  0  0  0  0  0  0  0  0
   35.7760   20.8060   34.9620 C   0  0  0  0  0  0  0  0  0  0  0  0
   35.3330   20.8790   33.6320 N   0  0  0  0  0  0  0  0  0  0  0  0
   36.3290   21.4630   32.9250 C   0  0  0  0  0  0  0  0  0  0  0  0
   36.4740   21.7630   31.4710 C   0  0  0  0  0  0  0  0  0  0  0  0
   36.7260   20.5280   30.7920 N   0  0  0  0  0  0  0  0  0  0  0  0
   36.1000   19.3650   30.7760 C   0  0  0  0  0  0  0  0  0  0  0  0
   36.7120   18.4770   29.9680 N   0  0  0  0  0  0  0  0  0  0  0  0
   37.7840   19.1340   29.4530 C   0  0  0  0  0  0  0  0  0  0  0  0
   37.7670   20.3520   29.9620 N   0  0  0  0  0  0  0  0  0  0  0  0
   40.7412   22.7601   38.7506 H   0  0  0  0  0  0  0  0  0  0  0  0
   38.4533   23.4185   39.6677 H   0  0  0  0  0  0  0  0  0  0  0  0
   36.5949   23.9241   38.0069 H   0  0  0  0  0  0  0  0  0  0  0  0
   41.2357   24.1092   34.1410 H   0  0  0  0  0  0  0  0  0  0  0  0
   40.9370   23.3827   31.5927 H   0  0  0  0  0  0  0  0  0  0  0  0
   37.6858   21.4446   35.9643 H   0  0  0  0  0  0  0  0  0  0  0  0
   35.2003   20.3821   35.7980 H   0  0  0  0  0  0  0  0  0  0  0  0
   35.5483   22.2180   31.0887 H   0  0  0  0  0  0  0  0  0  0  0  0
   37.3016   22.4684   31.3050 H   0  0  0  0  0  0  0  0  0  0  0  0
   35.1889   19.1475   31.3527 H   0  0  0  0  0  0  0  0  0  0  0  0
   38.5241   18.7288   28.7473 H   0  0  0  0  0  0  0  0  0  0  0  0
  1  2  2  0
  3  2  1  0
  4  3  2  0
  5  4  1  0
  5  6  2  0
  6  1  1  0
  7  5  1  0
  8  7  1  0
  9  8  2  0
 10  9  1  0
 10 11  2  0
 11 12  1  0
 11  7  1  0
 12 13  1  0
 14 13  2  0
 15 14  1  0
 16 15  2  0
 16 12  1  0
 17 16  1  0
 18 17  1  0
 19 18  1  0
 20 19  2  0
 21 22  2  0
 21 20  1  0
 22 18  1  0
  1 23  1  0
  2 24  1  0
  3 25  1  0
  8 26  1  0
  9 27  1  0
 13 28  1  0
 14 29  1  0
 17 30  1  0
 17 31  1  0
 19 32  1  0
 21 33  1  0
M  ISO  8  23  14  24  14  25  14  26  14  27  14  28  14  29  14  30   8
M  ISO  3  31   8  32  14  33  14
M  END
>  <minimizedAffinity>  (1) 
-4.78016043

>  <minimizedRMSD>  (1) 
0.0722546577

$$$$
