
     RDKit          3D

 39 42  0  0  0  0  0  0  0  0999 V2000
   40.0140   22.9100   38.1130 C   0  0  0  0  0  0  0  0  0  0  0  0
   38.6640   23.0170   38.5750 C   0  0  0  0  0  0  0  0  0  0  0  0
   37.6810   23.4410   37.6370 C   0  0  0  0  0  0  0  0  0  0  0  0
   38.0410   23.7310   36.3370 N   0  0  0  0  0  0  0  0  0  0  0  0
   39.3470   23.6040   35.9700 C   0  0  0  0  0  0  0  0  0  0  0  0
   40.3120   23.2030   36.8380 N   0  0  0  0  0  0  0  0  0  0  0  0
   39.7430   23.8630   34.6480 N   0  0  0  0  0  0  0  0  0  0  0  0
   40.7750   24.5890   34.1520 C   0  0  0  0  0  0  0  0  0  0  0  0
   40.7890   24.5670   32.7660 C   0  0  0  0  0  0  0  0  0  0  0  0
   39.7330   23.8040   32.3980 N   0  0  0  0  0  0  0  0  0  0  0  0
   39.1230   23.3960   33.5310 C   0  0  0  0  0  0  0  0  0  0  0  0
   37.9610   22.6060   33.4230 N   0  0  0  0  0  0  0  0  0  0  0  0
   37.6000   21.8810   34.5150 C   0  0  0  0  0  0  0  0  0  0  0  0
   36.4060   21.2630   34.1460 C   0  0  0  0  0  0  0  0  0  0  0  0
   36.0770   21.6180   32.8540 N   0  0  0  0  0  0  0  0  0  0  0  0
   37.0560   22.4570   32.4070 C   0  0  0  0  0  0  0  0  0  0  0  0
   37.2770   23.1150   31.0880 C   0  0  0  0  0  0  0  0  0  0  0  0
   36.4870   24.2420   30.8120 N   0  0  0  0  0  0  0  0  0  0  0  0
   37.1000   25.4430   31.2740 C   0  0  0  0  0  0  0  0  0  0  0  0
   36.1130   26.4870   30.7950 C   0  0  0  0  0  0  0  0  0  0  0  0
   34.7930   25.7710   30.9150 C   0  0  0  0  0  0  0  0  0  0  0  0
   35.1120   24.2680   30.9630 C   0  0  0  0  0  0  0  0  0  0  0  0
   40.8075   22.5875   38.8031 H   0  0  0  0  0  0  0  0  0  0  0  0
   38.3961   22.7806   39.6154 H   0  0  0  0  0  0  0  0  0  0  0  0
   36.6308   23.5378   37.9496 H   0  0  0  0  0  0  0  0  0  0  0  0
   41.5081   25.1272   34.7708 H   0  0  0  0  0  0  0  0  0  0  0  0
   41.5097   25.0666   32.1020 H   0  0  0  0  0  0  0  0  0  0  0  0
   38.1311   21.8001   35.4749 H   0  0  0  0  0  0  0  0  0  0  0  0
   35.8152   20.5933   34.7882 H   0  0  0  0  0  0  0  0  0  0  0  0
   38.3311   23.4259   31.0417 H   0  0  0  0  0  0  0  0  0  0  0  0
   36.9893   22.3655   30.3360 H   0  0  0  0  0  0  0  0  0  0  0  0
   37.1936   25.4509   32.3700 H   0  0  0  0  0  0  0  0  0  0  0  0
   38.1262   25.5934   30.9075 H   0  0  0  0  0  0  0  0  0  0  0  0
   36.3148   26.7757   29.7529 H   0  0  0  0  0  0  0  0  0  0  0  0
   36.1556   27.4249   31.3682 H   0  0  0  0  0  0  0  0  0  0  0  0
   34.2764   26.0790   31.8360 H   0  0  0  0  0  0  0  0  0  0  0  0
   34.1334   26.0099   30.0677 H   0  0  0  0  0  0  0  0  0  0  0  0
   34.6130   23.7306   30.1431 H   0  0  0  0  0  0  0  0  0  0  0  0
   34.7656   23.7783   31.8851 H   0  0  0  0  0  0  0  0  0  0  0  0
  1  2  2  0
  3  2  1  0
  4  3  2  0
  5  4  1  0
  5  6  2  0
  6  1  1  0
  7  5  1  0
  8  7  1  0
  9  8  2  0
 10  9  1  0
 10 11  2  0
 11  7  1  0
 12 11  1  0
 12 13  1  0
 14 13  2  0
 15 14  1  0
 16 15  2  0
 16 12  1  0
 17 16  1  0
 18 22  1  0
 18 17  1  0
 18 19  1  0
 20 21  1  0
 20 19  1  0
 21 22  1  0
  1 23  1  0
  2 24  1  0
  3 25  1  0
  8 26  1  0
  9 27  1  0
 13 28  1  0
 14 29  1  0
 17 30  1  0
 17 31  1  0
 19 32  1  0
 19 33  1  0
 20 34  1  0
 20 35  1  0
 21 36  1  0
 21 37  1  0
 22 38  1  0
 22 39  1  0
M  ISO  8  23  14  24  14  25  14  26  14  27  14  28  14  29  14  30   8
M  ISO  8  31   8  32  13  33  13  34  13  35  13  36  13  37  13  38  13
M  ISO  1  39  13
M  END
>  <minimizedAffinity>  (1) 
-4.77118111

>  <minimizedRMSD>  (1) 
1.11626506

$$$$
