
     RDKit          3D

 25 27  0  0  0  0  0  0  0  0999 V2000
   37.7420   22.5090   33.6800 C   0  0  0  0  0  0  0  0  0  0  0  0
   37.9390   23.7370   33.1520 N   0  0  0  0  0  0  0  0  0  0  0  0
   37.1720   24.1660   32.1330 C   0  0  0  0  0  0  0  0  0  0  0  0
   36.1770   23.4150   31.5830 N   0  0  0  0  0  0  0  0  0  0  0  0
   35.9580   22.1810   32.0920 C   0  0  0  0  0  0  0  0  0  0  0  0
   34.9480   21.4310   31.5240 C   0  0  0  0  0  0  0  0  0  0  0  0
   34.6820   20.1540   32.0120 C   0  0  0  0  0  0  0  0  0  0  0  0
   35.4460   19.6780   33.0550 C   0  0  0  0  0  0  0  0  0  0  0  0
   36.4410   20.4410   33.6000 C   0  0  0  0  0  0  0  0  0  0  0  0
   36.7350   21.7270   33.1340 C   0  0  0  0  0  0  0  0  0  0  0  0
   38.4240   21.9010   34.7180 O   0  0  0  0  0  0  0  0  0  0  0  0
   39.9720   22.7570   37.7920 C   0  0  0  0  0  0  0  0  0  0  0  0
   38.9220   23.3680   38.5410 C   0  0  0  0  0  0  0  0  0  0  0  0
   37.6720   23.4620   37.9280 C   0  0  0  0  0  0  0  0  0  0  0  0
   37.5230   22.9790   36.6800 N   0  0  0  0  0  0  0  0  0  0  0  0
   38.5310   22.4060   35.9940 C   0  0  0  0  0  0  0  0  0  0  0  0
   39.7350   22.3060   36.5610 N   0  0  0  0  0  0  0  0  0  0  0  0
   37.3570   25.1705   31.7247 H   0  0  0  0  0  0  0  0  0  0  0  0
   34.3569   21.8394   30.6911 H   0  0  0  0  0  0  0  0  0  0  0  0
   33.8808   19.5399   31.5750 H   0  0  0  0  0  0  0  0  0  0  0  0
   35.2530   18.6714   33.4543 H   0  0  0  0  0  0  0  0  0  0  0  0
   37.0303   20.0299   34.4329 H   0  0  0  0  0  0  0  0  0  0  0  0
   40.9759   22.6585   38.2306 H   0  0  0  0  0  0  0  0  0  0  0  0
   39.0910   23.7489   39.5590 H   0  0  0  0  0  0  0  0  0  0  0  0
   36.8234   23.9225   38.4550 H   0  0  0  0  0  0  0  0  0  0  0  0
  1 11  1  0
  2  1  2  0
  3  2  1  0
  4  5  1  0
  4  3  2  0
  5 10  2  0
  6  7  2  0
  6  5  1  0
  7  8  1  0
  8  9  2  0
 10  9  1  0
 10  1  1  0
 11 16  1  0
 12 13  2  0
 14 13  1  0
 15 14  2  0
 16 17  2  0
 16 15  1  0
 17 12  1  0
  3 18  1  0
  6 19  1  0
  7 20  1  0
  8 21  1  0
  9 22  1  0
 12 23  1  0
 13 24  1  0
 14 25  1  0
M  ISO  8  18  14  19  14  20  14  21  14  22  14  23  14  24  14  25  14
M  END
>  <minimizedAffinity>  (1) 
-4.92395926

>  <minimizedRMSD>  (1) 
1.5822252

$$$$
