
     RDKit          3D

 25 27  0  0  0  0  0  0  0  0999 V2000
   37.1960   22.3760   35.0620 O   0  0  0  0  0  0  0  0  0  0  0  0
   37.6210   21.7810   33.8880 C   0  0  0  0  0  0  0  0  0  0  0  0
   38.8080   21.9120   33.1610 C   0  0  0  0  0  0  0  0  0  0  0  0
   38.7550   21.1190   32.0740 N   0  0  0  0  0  0  0  0  0  0  0  0
   37.5720   20.4810   32.0760 C   0  0  0  0  0  0  0  0  0  0  0  0
   37.0720   19.5630   31.1540 C   0  0  0  0  0  0  0  0  0  0  0  0
   35.8190   19.0120   31.3340 C   0  0  0  0  0  0  0  0  0  0  0  0
   35.0980   19.4020   32.4430 C   0  0  0  0  0  0  0  0  0  0  0  0
   35.6190   20.3130   33.3380 C   0  0  0  0  0  0  0  0  0  0  0  0
   36.8490   20.8700   33.1870 C   0  0  0  0  0  0  0  0  0  0  0  0
   40.1310   22.3280   37.0750 C   0  0  0  0  0  0  0  0  0  0  0  0
   39.7490   23.0260   38.2390 C   0  0  0  0  0  0  0  0  0  0  0  0
   38.4260   23.5170   38.3010 C   0  0  0  0  0  0  0  0  0  0  0  0
   37.5990   23.2920   37.2420 N   0  0  0  0  0  0  0  0  0  0  0  0
   38.0290   22.6080   36.1420 C   0  0  0  0  0  0  0  0  0  0  0  0
   39.2740   22.1430   36.0770 N   0  0  0  0  0  0  0  0  0  0  0  0
   39.6529   22.5612   33.4342 H   0  0  0  0  0  0  0  0  0  0  0  0
   39.4938   21.0186   31.3634 H   0  0  0  0  0  0  0  0  0  0  0  0
   37.6771   19.2769   30.2810 H   0  0  0  0  0  0  0  0  0  0  0  0
   35.4093   18.2858   30.6165 H   0  0  0  0  0  0  0  0  0  0  0  0
   34.0962   18.9818   32.6157 H   0  0  0  0  0  0  0  0  0  0  0  0
   35.0136   20.6005   34.2102 H   0  0  0  0  0  0  0  0  0  0  0  0
   41.1535   21.9309   36.9921 H   0  0  0  0  0  0  0  0  0  0  0  0
   40.4550   23.1824   39.0680 H   0  0  0  0  0  0  0  0  0  0  0  0
   38.0715   24.0685   39.1843 H   0  0  0  0  0  0  0  0  0  0  0  0
  1 15  1  0
  2  1  1  0
  3  2  2  0
  4  5  1  0
  4  3  1  0
  5 10  2  0
  6  7  2  0
  6  5  1  0
  7  8  1  0
  8  9  2  0
 10  9  1  0
 10  2  1  0
 11 12  2  0
 12 13  1  0
 14 13  2  0
 15 14  1  0
 16 15  2  0
 16 11  1  0
  3 17  1  0
  4 18  1  0
  6 19  1  0
  7 20  1  0
  8 21  1  0
  9 22  1  0
 11 23  1  0
 12 24  1  0
 13 25  1  0
M  ISO  8  17  14  18   9  19  14  20  14  21  14  22  14  23  14  24  14
M  ISO  1  25  14
M  END
>  <minimizedAffinity>  (1) 
-4.35732031

>  <minimizedRMSD>  (1) 
1.92083168

$$$$
