
     RDKit          3D

 21 22  0  0  0  0  0  0  0  0999 V2000
   38.5270   21.7630   34.5710 O   0  0  0  0  0  0  0  0  0  0  0  0
   39.9150   22.7170   37.6820 C   0  0  0  0  0  0  0  0  0  0  0  0
   38.8500   23.3470   38.3520 C   0  0  0  0  0  0  0  0  0  0  0  0
   37.6250   23.4310   37.6840 C   0  0  0  0  0  0  0  0  0  0  0  0
   37.5240   22.9100   36.4430 N   0  0  0  0  0  0  0  0  0  0  0  0
   38.5860   22.3090   35.8380 C   0  0  0  0  0  0  0  0  0  0  0  0
   39.7770   22.2150   36.4590 N   0  0  0  0  0  0  0  0  0  0  0  0
   37.4510   21.8510   33.7250 C   0  0  0  0  0  0  0  0  0  0  0  0
   36.3790   20.9850   33.7090 C   0  0  0  0  0  0  0  0  0  0  0  0
   35.3000   21.0650   32.8680 C   0  0  0  0  0  0  0  0  0  0  0  0
   35.2990   22.1010   31.9670 C   0  0  0  0  0  0  0  0  0  0  0  0
   36.3210   23.0220   31.8990 C   0  0  0  0  0  0  0  0  0  0  0  0
   37.3800   22.8680   32.7910 C   0  0  0  0  0  0  0  0  0  0  0  0
   40.8901   22.6376   38.1850 H   0  0  0  0  0  0  0  0  0  0  0  0
   38.9768   23.7583   39.3643 H   0  0  0  0  0  0  0  0  0  0  0  0
   36.7590   23.9130   38.1611 H   0  0  0  0  0  0  0  0  0  0  0  0
   36.3905   20.1579   34.4341 H   0  0  0  0  0  0  0  0  0  0  0  0
   34.4769   20.3366   32.9125 H   0  0  0  0  0  0  0  0  0  0  0  0
   34.4506   22.1992   31.2738 H   0  0  0  0  0  0  0  0  0  0  0  0
   36.3018   23.8456   31.1701 H   0  0  0  0  0  0  0  0  0  0  0  0
   38.2045   23.5950   32.7500 H   0  0  0  0  0  0  0  0  0  0  0  0
  1  6  1  0
  2  3  2  0
  4  3  1  0
  5  4  2  0
  6  5  1  0
  6  7  2  0
  7  2  1  0
  8  1  1  0
  9  8  2  0
 10  9  1  0
 11 10  2  0
 12 11  1  0
 12 13  2  0
 13  8  1  0
  2 14  1  0
  3 15  1  0
  4 16  1  0
  9 17  1  0
 10 18  1  0
 11 19  1  0
 12 20  1  0
 13 21  1  0
M  ISO  8  14  14  15  14  16  14  17  14  18  14  19  14  20  14  21  14
M  END
>  <minimizedAffinity>  (1) 
-4.18229151

>  <minimizedRMSD>  (1) 
3.02420712

$$$$
