
     RDKit          3D

 20 21  0  0  0  0  0  0  0  0999 V2000
   39.9040   22.7510   37.5800 C   0  0  0  0  0  0  0  0  0  0  0  0
   38.7900   23.3290   38.2150 C   0  0  0  0  0  0  0  0  0  0  0  0
   37.5730   23.3440   37.5270 C   0  0  0  0  0  0  0  0  0  0  0  0
   37.5250   22.8060   36.2890 N   0  0  0  0  0  0  0  0  0  0  0  0
   38.6320   22.2550   35.7120 C   0  0  0  0  0  0  0  0  0  0  0  0
   39.8010   22.2330   36.3570 N   0  0  0  0  0  0  0  0  0  0  0  0
   38.6100   21.6980   34.4500 O   0  0  0  0  0  0  0  0  0  0  0  0
   37.5780   22.0100   33.5790 C   0  0  0  0  0  0  0  0  0  0  0  0
   36.5130   21.1180   33.4320 C   0  0  0  0  0  0  0  0  0  0  0  0
   35.5420   21.5220   32.5440 C   0  0  0  0  0  0  0  0  0  0  0  0
   35.6470   22.7060   31.8820 C   0  0  0  0  0  0  0  0  0  0  0  0
   36.7180   23.5730   32.0500 C   0  0  0  0  0  0  0  0  0  0  0  0
   37.6810   23.1870   32.9200 N   0  0  0  0  0  0  0  0  0  0  0  0
   40.8730   22.7264   38.1001 H   0  0  0  0  0  0  0  0  0  0  0  0
   38.8739   23.7573   39.2247 H   0  0  0  0  0  0  0  0  0  0  0  0
   36.6744   23.7842   37.9838 H   0  0  0  0  0  0  0  0  0  0  0  0
   36.4549   20.1675   33.9826 H   0  0  0  0  0  0  0  0  0  0  0  0
   34.6680   20.8780   32.3669 H   0  0  0  0  0  0  0  0  0  0  0  0
   34.8470   22.9890   31.1820 H   0  0  0  0  0  0  0  0  0  0  0  0
   36.7811   24.5257   31.5038 H   0  0  0  0  0  0  0  0  0  0  0  0
  1  2  2  0
  3  2  1  0
  4  3  2  0
  5  4  1  0
  5  6  2  0
  6  1  1  0
  7  5  1  0
  8  7  1  0
  9  8  2  0
 10  9  1  0
 11 12  1  0
 11 10  2  0
 12 13  2  0
 13  8  1  0
  1 14  1  0
  2 15  1  0
  3 16  1  0
  9 17  1  0
 10 18  1  0
 11 19  1  0
 12 20  1  0
M  ISO  7  14  14  15  14  16  14  17  14  18  14  19  14  20  14
M  END
>  <minimizedAffinity>  (1) 
-3.95201349

>  <minimizedRMSD>  (1) 
1.04412997

$$$$
