
     RDKit          3D

 27 28  0  0  0  0  0  0  0  0999 V2000
   39.7440   22.8660   37.5640 C   0  0  0  0  0  0  0  0  0  0  0  0
   38.9890   23.2370   38.7110 C   0  0  0  0  0  0  0  0  0  0  0  0
   37.9820   24.1850   38.5290 C   0  0  0  0  0  0  0  0  0  0  0  0
   37.7620   24.7070   37.2980 N   0  0  0  0  0  0  0  0  0  0  0  0
   38.5170   24.3150   36.2280 C   0  0  0  0  0  0  0  0  0  0  0  0
   39.4850   23.4140   36.3670 N   0  0  0  0  0  0  0  0  0  0  0  0
   38.3280   24.8240   34.9440 O   0  0  0  0  0  0  0  0  0  0  0  0
   38.3170   26.2270   34.6930 C   0  0  0  0  0  0  0  0  0  0  0  0
   37.8650   26.5190   33.3020 C   0  0  0  0  0  0  0  0  0  0  0  0
   39.0190   26.1090   32.3780 C   0  0  0  0  0  0  0  0  0  0  0  0
   40.0810   27.1640   32.5980 C   0  0  0  0  0  0  0  0  0  0  0  0
   40.6180   27.0480   33.9980 C   0  0  0  0  0  0  0  0  0  0  0  0
   39.6290   26.8400   35.0690 C   0  0  0  0  0  0  0  0  0  0  0  0
   40.5486   22.1220   37.6593 H   0  0  0  0  0  0  0  0  0  0  0  0
   39.1904   22.7957   39.6983 H   0  0  0  0  0  0  0  0  0  0  0  0
   37.3680   24.5080   39.3826 H   0  0  0  0  0  0  0  0  0  0  0  0
   37.5718   26.7124   35.3404 H   0  0  0  0  0  0  0  0  0  0  0  0
   36.9623   25.9368   33.0650 H   0  0  0  0  0  0  0  0  0  0  0  0
   37.6135   27.5828   33.1789 H   0  0  0  0  0  0  0  0  0  0  0  0
   38.6913   26.1016   31.3280 H   0  0  0  0  0  0  0  0  0  0  0  0
   39.3874   25.0959   32.5968 H   0  0  0  0  0  0  0  0  0  0  0  0
   40.8993   27.0168   31.8777 H   0  0  0  0  0  0  0  0  0  0  0  0
   39.6423   28.1625   32.4543 H   0  0  0  0  0  0  0  0  0  0  0  0
   41.3156   26.1977   34.0184 H   0  0  0  0  0  0  0  0  0  0  0  0
   41.0778   28.0237   34.2137 H   0  0  0  0  0  0  0  0  0  0  0  0
   39.4168   27.8225   35.5159 H   0  0  0  0  0  0  0  0  0  0  0  0
   40.0969   26.1060   35.7415 H   0  0  0  0  0  0  0  0  0  0  0  0
  1  2  2  0
  3  2  1  0
  4  3  2  0
  5  6  2  0
  5  4  1  0
  6  1  1  0
  7  5  1  0
  8  7  1  0
  8 13  1  0
  9  8  1  0
 10 11  1  0
 10  9  1  0
 11 12  1  0
 12 13  1  0
  1 14  1  0
  2 15  1  0
  3 16  1  0
  8 17  1  0
  9 18  1  0
  9 19  1  0
 10 20  1  0
 10 21  1  0
 11 22  1  0
 11 23  1  0
 12 24  1  0
 12 25  1  0
 13 26  1  0
 13 27  1  0
M  ISO  8  14  14  15  14  16  14  17  13  18  13  19  13  20  13  21  13
M  ISO  6  22  13  23  13  24  13  25  13  26  13  27  13
M  END
>  <minimizedAffinity>  (1) 
-3.95011425

>  <minimizedRMSD>  (1) 
5.02598715

$$$$
