
     RDKit          3D

 19 20  0  0  0  0  0  0  0  0999 V2000
   39.9350   22.7100   37.6570 C   0  0  0  0  0  0  0  0  0  0  0  0
   38.8700   23.3410   38.3340 C   0  0  0  0  0  0  0  0  0  0  0  0
   37.6410   23.4170   37.6790 C   0  0  0  0  0  0  0  0  0  0  0  0
   37.5270   22.8900   36.4440 N   0  0  0  0  0  0  0  0  0  0  0  0
   38.5810   22.2860   35.8190 C   0  0  0  0  0  0  0  0  0  0  0  0
   39.7780   22.2000   36.4290 N   0  0  0  0  0  0  0  0  0  0  0  0
   38.4950   21.7390   34.5560 O   0  0  0  0  0  0  0  0  0  0  0  0
   37.5520   22.1320   33.6180 C   0  0  0  0  0  0  0  0  0  0  0  0
   36.5180   21.2130   33.4210 C   0  0  0  0  0  0  0  0  0  0  0  0
   35.4930   21.4680   32.5070 C   0  0  0  0  0  0  0  0  0  0  0  0
   35.4940   22.6160   31.8000 N   0  0  0  0  0  0  0  0  0  0  0  0
   36.5180   23.4860   32.0200 C   0  0  0  0  0  0  0  0  0  0  0  0
   37.5250   23.2740   32.8950 N   0  0  0  0  0  0  0  0  0  0  0  0
   40.9160   22.6354   38.1490 H   0  0  0  0  0  0  0  0  0  0  0  0
   39.0043   23.7583   39.3429 H   0  0  0  0  0  0  0  0  0  0  0  0
   36.7788   23.8993   38.1627 H   0  0  0  0  0  0  0  0  0  0  0  0
   36.5111   20.2744   33.9945 H   0  0  0  0  0  0  0  0  0  0  0  0
   34.6866   20.7336   32.3643 H   0  0  0  0  0  0  0  0  0  0  0  0
   36.5258   24.4247   31.4466 H   0  0  0  0  0  0  0  0  0  0  0  0
  1  2  2  0
  3  2  1  0
  4  3  2  0
  5  6  2  0
  5  4  1  0
  6  1  1  0
  7  5  1  0
  8  7  1  0
  9  8  2  0
 10  9  1  0
 11 12  1  0
 11 10  2  0
 12 13  2  0
 13  8  1  0
  1 14  1  0
  2 15  1  0
  3 16  1  0
  9 17  1  0
 10 18  1  0
 12 19  1  0
M  ISO  6  14  14  15  14  16  14  17  14  18  14  19  14
M  END
>  <minimizedAffinity>  (1) 
-3.85313559

>  <minimizedRMSD>  (1) 
1.01755202

$$$$
