
     RDKit          3D

 19 20  0  0  0  0  0  0  0  0999 V2000
   39.9430   22.7110   37.6600 C   0  0  0  0  0  0  0  0  0  0  0  0
   38.8640   23.3230   38.3460 C   0  0  0  0  0  0  0  0  0  0  0  0
   37.6240   23.3940   37.6740 C   0  0  0  0  0  0  0  0  0  0  0  0
   37.5350   22.8770   36.4180 N   0  0  0  0  0  0  0  0  0  0  0  0
   38.6010   22.3070   35.8150 C   0  0  0  0  0  0  0  0  0  0  0  0
   39.7950   22.2240   36.4310 N   0  0  0  0  0  0  0  0  0  0  0  0
   38.5320   21.7770   34.5410 O   0  0  0  0  0  0  0  0  0  0  0  0
   37.4630   21.9240   33.6820 C   0  0  0  0  0  0  0  0  0  0  0  0
   37.5430   23.0380   32.8450 C   0  0  0  0  0  0  0  0  0  0  0  0
   36.5510   23.3360   31.9170 C   0  0  0  0  0  0  0  0  0  0  0  0
   35.4780   22.4990   31.8430 N   0  0  0  0  0  0  0  0  0  0  0  0
   35.4130   21.4250   32.6580 C   0  0  0  0  0  0  0  0  0  0  0  0
   36.3720   21.1350   33.5560 N   0  0  0  0  0  0  0  0  0  0  0  0
   40.9230   22.6373   38.1542 H   0  0  0  0  0  0  0  0  0  0  0  0
   38.9877   23.7267   39.3617 H   0  0  0  0  0  0  0  0  0  0  0  0
   36.7496   23.8568   38.1548 H   0  0  0  0  0  0  0  0  0  0  0  0
   38.4176   23.7007   32.9217 H   0  0  0  0  0  0  0  0  0  0  0  0
   36.6298   24.2180   31.2644 H   0  0  0  0  0  0  0  0  0  0  0  0
   34.5402   20.7596   32.5850 H   0  0  0  0  0  0  0  0  0  0  0  0
  1  2  2  0
  3  2  1  0
  4  3  2  0
  5  4  1  0
  5  6  2  0
  6  1  1  0
  7  5  1  0
  8  7  1  0
  9  8  2  0
 10  9  1  0
 11 10  2  0
 11 12  1  0
 12 13  2  0
 13  8  1  0
  1 14  1  0
  2 15  1  0
  3 16  1  0
  9 17  1  0
 10 18  1  0
 12 19  1  0
M  ISO  6  14  14  15  14  16  14  17  14  18  14  19  14
M  END
>  <minimizedAffinity>  (1) 
-3.8429718

>  <minimizedRMSD>  (1) 
3.11105275

$$$$
