
     RDKit          3D

 26 27  0  0  0  0  0  0  0  0999 V2000
   39.7080   22.8830   36.6310 C   0  0  0  0  0  0  0  0  0  0  0  0
   39.6460   22.8130   38.0490 C   0  0  0  0  0  0  0  0  0  0  0  0
   38.7490   23.6640   38.6960 C   0  0  0  0  0  0  0  0  0  0  0  0
   37.9820   24.5140   37.9520 N   0  0  0  0  0  0  0  0  0  0  0  0
   38.0850   24.5370   36.5990 C   0  0  0  0  0  0  0  0  0  0  0  0
   38.9310   23.7390   35.9450 N   0  0  0  0  0  0  0  0  0  0  0  0
   37.3240   25.3850   35.8120 O   0  0  0  0  0  0  0  0  0  0  0  0
   40.0020   27.2190   33.2430 N   0  0  0  0  0  0  0  0  0  0  0  0
   40.2710   26.9370   34.6110 C   0  0  0  0  0  0  0  0  0  0  0  0
   39.0960   27.0190   35.5340 C   0  0  0  0  0  0  0  0  0  0  0  0
   37.8260   26.4250   35.0100 C   0  0  0  0  0  0  0  0  0  0  0  0
   38.0100   25.9970   33.5670 C   0  0  0  0  0  0  0  0  0  0  0  0
   38.6040   27.2250   32.8950 C   0  0  0  0  0  0  0  0  0  0  0  0
   40.4026   22.2266   36.0863 H   0  0  0  0  0  0  0  0  0  0  0  0
   40.2806   22.1150   38.6148 H   0  0  0  0  0  0  0  0  0  0  0  0
   38.6609   23.6502   39.7924 H   0  0  0  0  0  0  0  0  0  0  0  0
   40.3915   28.1470   33.0237 H   0  0  0  0  0  0  0  0  0  0  0  0
   40.6781   25.9169   34.6720 H   0  0  0  0  0  0  0  0  0  0  0  0
   40.9702   27.7173   34.9460 H   0  0  0  0  0  0  0  0  0  0  0  0
   39.3579   26.4938   36.4644 H   0  0  0  0  0  0  0  0  0  0  0  0
   38.8943   28.0913   35.6738 H   0  0  0  0  0  0  0  0  0  0  0  0
   37.0564   27.2100   35.0491 H   0  0  0  0  0  0  0  0  0  0  0  0
   38.6977   25.1413   33.4971 H   0  0  0  0  0  0  0  0  0  0  0  0
   37.0704   25.6693   33.0983 H   0  0  0  0  0  0  0  0  0  0  0  0
   38.1193   28.1392   33.2683 H   0  0  0  0  0  0  0  0  0  0  0  0
   38.4558   27.2044   31.8052 H   0  0  0  0  0  0  0  0  0  0  0  0
  1  2  2  0
  2  3  1  0
  4  3  2  0
  5  4  1  0
  6  5  2  0
  6  1  1  0
  7  5  1  0
  8  9  1  0
  9 10  1  0
 11 10  1  0
 11  7  1  0
 12 11  1  0
 13  8  1  0
 13 12  1  0
  1 14  1  0
  2 15  1  0
  3 16  1  0
  8 17  1  0
  9 18  1  0
  9 19  1  0
 10 20  1  0
 10 21  1  0
 11 22  1  0
 12 23  1  0
 12 24  1  0
 13 25  1  0
 13 26  1  0
M  ISO  8  14  14  15  14  16  14  17   5  18  13  19  13  20  13  21  13
M  ISO  5  22  13  23  13  24  13  25  13  26  13
M  END
>  <minimizedAffinity>  (1) 
-3.8310492

>  <minimizedRMSD>  (1) 
4.9324975

$$$$
