
     RDKit          3D

 18 19  0  0  0  0  0  0  0  0999 V2000
   39.9110   22.6710   37.5450 C   0  0  0  0  0  0  0  0  0  0  0  0
   38.8670   23.2970   38.2460 C   0  0  0  0  0  0  0  0  0  0  0  0
   37.6360   23.3910   37.6030 C   0  0  0  0  0  0  0  0  0  0  0  0
   37.5140   22.8850   36.3610 N   0  0  0  0  0  0  0  0  0  0  0  0
   38.5380   22.2900   35.7180 C   0  0  0  0  0  0  0  0  0  0  0  0
   39.7380   22.1840   36.3130 N   0  0  0  0  0  0  0  0  0  0  0  0
   38.4700   21.7540   34.4460 O   0  0  0  0  0  0  0  0  0  0  0  0
   37.2540   21.6010   33.7950 C   0  0  0  0  0  0  0  0  0  0  0  0
   36.1110   20.8480   33.8850 C   0  0  0  0  0  0  0  0  0  0  0  0
   35.2960   21.2760   32.8380 C   0  0  0  0  0  0  0  0  0  0  0  0
   35.9850   22.2660   32.1680 C   0  0  0  0  0  0  0  0  0  0  0  0
   37.1430   22.4130   32.7860 O   0  0  0  0  0  0  0  0  0  0  0  0
   40.8974   22.5793   38.0232 H   0  0  0  0  0  0  0  0  0  0  0  0
   39.0159   23.6961   39.2602 H   0  0  0  0  0  0  0  0  0  0  0  0
   36.7792   23.8695   38.0999 H   0  0  0  0  0  0  0  0  0  0  0  0
   35.8847   20.0691   34.6281 H   0  0  0  0  0  0  0  0  0  0  0  0
   34.2933   20.8962   32.5925 H   0  0  0  0  0  0  0  0  0  0  0  0
   35.6365   22.8258   31.2875 H   0  0  0  0  0  0  0  0  0  0  0  0
  1  2  2  0
  3  2  1  0
  4  3  2  0
  5  6  2  0
  5  4  1  0
  6  1  1  0
  7  5  1  0
  8  9  2  0
  8  7  1  0
 10  9  1  0
 11 12  1  0
 11 10  2  0
 12  8  1  0
  1 13  1  0
  2 14  1  0
  3 15  1  0
  9 16  1  0
 10 17  1  0
 11 18  1  0
M  ISO  6  13  14  14  14  15  14  16  14  17  14  18  14
M  END
>  <minimizedAffinity>  (1) 
-3.73711872

>  <minimizedRMSD>  (1) 
0.575494528

$$$$
