
     RDKit          3D

 24 25  0  0  0  0  0  0  0  0999 V2000
   39.7230   22.8430   37.6500 C   0  0  0  0  0  0  0  0  0  0  0  0
   38.9310   23.3120   38.7260 C   0  0  0  0  0  0  0  0  0  0  0  0
   37.9500   24.2590   38.4430 C   0  0  0  0  0  0  0  0  0  0  0  0
   37.7940   24.6880   37.1590 N   0  0  0  0  0  0  0  0  0  0  0  0
   38.5810   24.2040   36.1690 C   0  0  0  0  0  0  0  0  0  0  0  0
   39.5350   23.2910   36.4060 N   0  0  0  0  0  0  0  0  0  0  0  0
   38.4500   24.6210   34.8390 O   0  0  0  0  0  0  0  0  0  0  0  0
   38.0730   25.9700   34.6390 C   0  0  0  0  0  0  0  0  0  0  0  0
   39.2870   26.8950   34.6510 C   0  0  0  0  0  0  0  0  0  0  0  0
   39.5450   27.1090   33.1690 C   0  0  0  0  0  0  0  0  0  0  0  0
   38.1060   27.3190   32.6830 C   0  0  0  0  0  0  0  0  0  0  0  0
   37.4390   26.0900   33.2850 C   0  0  0  0  0  0  0  0  0  0  0  0
   40.5073   22.0961   37.8422 H   0  0  0  0  0  0  0  0  0  0  0  0
   39.0853   22.9411   39.7500 H   0  0  0  0  0  0  0  0  0  0  0  0
   37.3098   24.6553   39.2449 H   0  0  0  0  0  0  0  0  0  0  0  0
   37.3862   26.2573   35.4487 H   0  0  0  0  0  0  0  0  0  0  0  0
   39.0593   27.8448   35.1570 H   0  0  0  0  0  0  0  0  0  0  0  0
   40.1503   26.4821   35.1935 H   0  0  0  0  0  0  0  0  0  0  0  0
   40.1721   27.9941   32.9863 H   0  0  0  0  0  0  0  0  0  0  0  0
   40.0916   26.2958   32.6691 H   0  0  0  0  0  0  0  0  0  0  0  0
   37.6745   28.2512   33.0766 H   0  0  0  0  0  0  0  0  0  0  0  0
   37.9959   27.4176   31.5930 H   0  0  0  0  0  0  0  0  0  0  0  0
   36.3523   26.2363   33.3721 H   0  0  0  0  0  0  0  0  0  0  0  0
   37.5723   25.1878   32.6699 H   0  0  0  0  0  0  0  0  0  0  0  0
  1  2  2  0
  3  2  1  0
  4  3  2  0
  5  6  2  0
  5  4  1  0
  6  1  1  0
  7  5  1  0
  8  9  1  0
  8  7  1  0
 10  9  1  0
 11 10  1  0
 11 12  1  0
 12  8  1  0
  1 13  1  0
  2 14  1  0
  3 15  1  0
  8 16  1  0
  9 17  1  0
  9 18  1  0
 10 19  1  0
 10 20  1  0
 11 21  1  0
 11 22  1  0
 12 23  1  0
 12 24  1  0
M  ISO  8  13  14  14  14  15  14  16  13  17  13  18  13  19  13  20  13
M  ISO  4  21  13  22  13  23  13  24  13
M  END
>  <minimizedAffinity>  (1) 
-3.72991014

>  <minimizedRMSD>  (1) 
4.33344173

$$$$
