
     RDKit          3D

 23 24  0  0  1  0  0  0  0  0999 V2000
   39.9810   22.6290   37.5040 C   0  0  0  0  0  0  0  0  0  0  0  0
   39.0540   23.3270   38.2970 C   0  0  0  0  0  0  0  0  0  0  0  0
   37.7380   23.4560   37.7980 C   0  0  0  0  0  0  0  0  0  0  0  0
   37.4430   22.9030   36.5910 N   0  0  0  0  0  0  0  0  0  0  0  0
   38.3840   22.2380   35.8720 C   0  0  0  0  0  0  0  0  0  0  0  0
   39.6260   22.1110   36.3320 N   0  0  0  0  0  0  0  0  0  0  0  0
   38.1080   21.6690   34.6450 O   0  0  0  0  0  0  0  0  0  0  0  0
   36.8660   21.8370   32.6930 N   0  0  0  0  0  0  0  0  0  0  0  0
   36.5680   20.4800   32.2770 C   0  0  0  0  0  0  0  0  0  0  0  0
   35.4890   20.0500   33.2470 C   0  0  0  0  0  0  0  0  0  0  0  0
   35.9470   20.6560   34.5380 C   0  0  0  0  0  0  0  0  0  0  0  0
   36.7760   21.8420   34.1390 C   0  0  1  0  0  0  0  0  0  0  0  0
   41.0155   22.5095   37.8582 H   0  0  0  0  0  0  0  0  0  0  0  0
   39.3415   23.7562   39.2682 H   0  0  0  0  0  0  0  0  0  0  0  0
   36.9689   23.9921   38.3734 H   0  0  0  0  0  0  0  0  0  0  0  0
   36.1819   22.4930   32.2898 H   0  0  0  0  0  0  0  0  0  0  0  0
   36.1990   20.4571   31.2410 H   0  0  0  0  0  0  0  0  0  0  0  0
   37.4487   19.8211   32.2916 H   0  0  0  0  0  0  0  0  0  0  0  0
   34.5070   20.4461   32.9491 H   0  0  0  0  0  0  0  0  0  0  0  0
   35.3579   18.9591   33.2989 H   0  0  0  0  0  0  0  0  0  0  0  0
   35.0850   20.9731   35.1434 H   0  0  0  0  0  0  0  0  0  0  0  0
   36.5166   19.9414   35.1503 H   0  0  0  0  0  0  0  0  0  0  0  0
   36.3310   22.7710   34.5249 H   0  0  0  0  0  0  0  0  0  0  0  0
  1  2  2  0
  3  2  1  0
  4  3  2  0
  5  6  2  0
  5  4  1  0
  6  1  1  0
  7  5  1  0
  8 12  1  0
  9  8  1  0
  9 10  1  0
 10 11  1  0
 12 11  1  0
 12  7  1  0
  1 13  1  0
  2 14  1  0
  3 15  1  0
  8 16  1  0
  9 17  1  0
  9 18  1  0
 10 19  1  0
 10 20  1  0
 11 21  1  0
 11 22  1  0
 12 23  1  1
M  ISO  8  13  14  14  14  15  14  16   5  17  13  18  13  19  13  20  13
M  ISO  3  21  13  22  13  23  13
M  END
>  <minimizedAffinity>  (1) 
-3.59466887

>  <minimizedRMSD>  (1) 
0.198981136

$$$$
