
     RDKit          3D

 18 19  0  0  0  0  0  0  0  0999 V2000
   39.6520   22.8410   37.4500 C   0  0  0  0  0  0  0  0  0  0  0  0
   38.9360   23.2710   38.5860 C   0  0  0  0  0  0  0  0  0  0  0  0
   37.9510   24.2650   38.4070 C   0  0  0  0  0  0  0  0  0  0  0  0
   37.7460   24.7500   37.1590 N   0  0  0  0  0  0  0  0  0  0  0  0
   38.4610   24.3040   36.1000 C   0  0  0  0  0  0  0  0  0  0  0  0
   39.4010   23.3640   36.2340 N   0  0  0  0  0  0  0  0  0  0  0  0
   38.2840   24.7710   34.8120 O   0  0  0  0  0  0  0  0  0  0  0  0
   37.6440   25.9610   34.4900 C   0  0  0  0  0  0  0  0  0  0  0  0
   37.2550   26.0430   33.1490 C   0  0  0  0  0  0  0  0  0  0  0  0
   36.6470   27.2540   32.9910 N   0  0  0  0  0  0  0  0  0  0  0  0
   36.6550   27.8970   34.1790 C   0  0  0  0  0  0  0  0  0  0  0  0
   37.2610   27.1180   35.1050 N   0  0  0  0  0  0  0  0  0  0  0  0
   40.4266   22.0675   37.5581 H   0  0  0  0  0  0  0  0  0  0  0  0
   39.1389   22.8452   39.5797 H   0  0  0  0  0  0  0  0  0  0  0  0
   37.3640   24.6369   39.2597 H   0  0  0  0  0  0  0  0  0  0  0  0
   37.4093   25.2793   32.3725 H   0  0  0  0  0  0  0  0  0  0  0  0
   36.2350   28.8966   34.3645 H   0  0  0  0  0  0  0  0  0  0  0  0
   37.4071   27.3556   36.0965 H   0  0  0  0  0  0  0  0  0  0  0  0
  1  2  2  0
  3  2  1  0
  4  3  2  0
  5  6  2  0
  5  4  1  0
  6  1  1  0
  7  5  1  0
  8  7  1  0
  8 12  1  0
  9  8  2  0
 10  9  1  0
 10 11  2  0
 11 12  1  0
  1 13  1  0
  2 14  1  0
  3 15  1  0
  9 16  1  0
 11 17  1  0
 12 18  1  0
M  ISO  6  13  14  14  14  15  14  16  14  17  14  18   9
M  END
>  <minimizedAffinity>  (1) 
-3.57857013

>  <minimizedRMSD>  (1) 
3.5774436

$$$$
