
     RDKit          3D

 14 14  0  0  0  0  0  0  0  0999 V2000
   39.9390   22.6910   37.7420 C   0  0  0  0  0  0  0  0  0  0  0  0
   38.9010   23.3750   38.4000 C   0  0  0  0  0  0  0  0  0  0  0  0
   37.6920   23.5220   37.7150 C   0  0  0  0  0  0  0  0  0  0  0  0
   37.5750   23.0090   36.4770 N   0  0  0  0  0  0  0  0  0  0  0  0
   38.6070   22.3500   35.8720 C   0  0  0  0  0  0  0  0  0  0  0  0
   39.7810   22.1990   36.5160 N   0  0  0  0  0  0  0  0  0  0  0  0
   38.5380   21.8050   34.6020 O   0  0  0  0  0  0  0  0  0  0  0  0
   37.3390   21.6290   33.8700 C   0  0  0  0  0  0  0  0  0  0  0  0
   36.9360   22.7980   33.2520 F   0  0  0  0  0  0  0  0  0  0  0  0
   36.3630   21.0840   34.6810 F   0  0  0  0  0  0  0  0  0  0  0  0
   37.6210   20.7320   32.8480 F   0  0  0  0  0  0  0  0  0  0  0  0
   40.9042   22.5597   38.2531 H   0  0  0  0  0  0  0  0  0  0  0  0
   39.0357   23.7785   39.4144 H   0  0  0  0  0  0  0  0  0  0  0  0
   36.8474   24.0500   38.1818 H   0  0  0  0  0  0  0  0  0  0  0  0
  1  2  2  0
  3  2  1  0
  4  3  2  0
  5  4  1  0
  5  6  2  0
  6  1  1  0
  7  5  1  0
  8  7  1  0
  8 10  1  0
  9  8  1  0
 11  8  1  0
  1 12  1  0
  2 13  1  0
  3 14  1  0
M  ISO  3  12  14  13  14  14  14
M  END
>  <minimizedAffinity>  (1) 
-3.27666473

>  <minimizedRMSD>  (1) 
0.478610426

$$$$
