
     RDKit          3D

 20 20  0  0  0  0  0  0  0  0999 V2000
   40.0070   22.6660   37.6800 C   0  0  0  0  0  0  0  0  0  0  0  0
   38.9570   23.3180   38.3920 C   0  0  0  0  0  0  0  0  0  0  0  0
   37.7240   23.4310   37.7540 C   0  0  0  0  0  0  0  0  0  0  0  0
   37.5690   22.9280   36.5070 N   0  0  0  0  0  0  0  0  0  0  0  0
   38.6000   22.3140   35.8660 C   0  0  0  0  0  0  0  0  0  0  0  0
   39.7910   22.1930   36.4540 N   0  0  0  0  0  0  0  0  0  0  0  0
   38.4910   21.7830   34.5870 O   0  0  0  0  0  0  0  0  0  0  0  0
   37.3250   22.2410   33.8860 C   0  0  0  0  0  0  0  0  0  0  0  0
   36.5080   21.0390   33.4600 C   0  0  0  0  0  0  0  0  0  0  0  0
   37.7410   23.0220   32.6480 C   0  0  0  0  0  0  0  0  0  0  0  0
   40.9976   22.5536   38.1448 H   0  0  0  0  0  0  0  0  0  0  0  0
   39.1148   23.7160   39.4053 H   0  0  0  0  0  0  0  0  0  0  0  0
   36.8819   23.9257   38.2602 H   0  0  0  0  0  0  0  0  0  0  0  0
   36.7317   22.8922   34.5448 H   0  0  0  0  0  0  0  0  0  0  0  0
   36.1462   20.5067   34.3521 H   0  0  0  0  0  0  0  0  0  0  0  0
   35.6494   21.3735   32.8593 H   0  0  0  0  0  0  0  0  0  0  0  0
   37.1350   20.3637   32.8593 H   0  0  0  0  0  0  0  0  0  0  0  0
   38.2379   23.9549   32.9528 H   0  0  0  0  0  0  0  0  0  0  0  0
   38.4356   22.4156   32.0482 H   0  0  0  0  0  0  0  0  0  0  0  0
   36.8502   23.2601   32.0482 H   0  0  0  0  0  0  0  0  0  0  0  0
  1  2  2  0
  3  2  1  0
  4  3  2  0
  5  6  2  0
  5  4  1  0
  6  1  1  0
  7  5  1  0
  8  7  1  0
  9  8  1  0
 10  8  1  0
  1 11  1  0
  2 12  1  0
  3 13  1  0
  8 14  1  0
  9 15  1  0
  9 16  1  0
  9 17  1  0
 10 18  1  0
 10 19  1  0
 10 20  1  0
M  ISO  8  11  14  12  14  13  14  14   8  15   8  16   8  17   8  18   8
M  ISO  2  19   8  20   8
M  END
>  <minimizedAffinity>  (1) 
-3.01180983

>  <minimizedRMSD>  (1) 
0.808938563

$$$$
