
     RDKit          3D

 13 13  0  0  0  0  0  0  0  0999 V2000
   40.0060   22.6240   37.4440 C   0  0  0  0  0  0  0  0  0  0  0  0
   39.1580   23.2750   38.3670 C   0  0  0  0  0  0  0  0  0  0  0  0
   37.8130   23.4410   38.0020 C   0  0  0  0  0  0  0  0  0  0  0  0
   37.4070   22.9730   36.7940 N   0  0  0  0  0  0  0  0  0  0  0  0
   38.2560   22.3600   35.9490 C   0  0  0  0  0  0  0  0  0  0  0  0
   39.5370   22.1850   36.2640 N   0  0  0  0  0  0  0  0  0  0  0  0
   37.8720   21.8650   34.6990 O   0  0  0  0  0  0  0  0  0  0  0  0
   37.7970   22.7820   33.6330 C   0  0  0  0  0  0  0  0  0  0  0  0
   36.9670   22.8420   32.6720 O   0  0  0  0  0  0  0  0  0  0  0  0
   41.0664   22.4741   37.6950 H   0  0  0  0  0  0  0  0  0  0  0  0
   39.5368   23.6377   39.3339 H   0  0  0  0  0  0  0  0  0  0  0  0
   37.1038   23.9391   38.6794 H   0  0  0  0  0  0  0  0  0  0  0  0
   38.5720   23.5626   33.6316 H   0  0  0  0  0  0  0  0  0  0  0  0
  1  2  2  0
  3  2  1  0
  4  3  2  0
  5  6  2  0
  5  4  1  0
  6  1  1  0
  7  5  1  0
  8  7  1  0
  9  8  2  0
  1 10  1  0
  2 11  1  0
  3 12  1  0
  8 13  1  0
M  ISO  4  10  14  11  14  12  14  13   6
M  END
>  <minimizedAffinity>  (1) 
-2.79881644

>  <minimizedRMSD>  (1) 
0.603559613

$$$$
