
     RDKit          3D

 30 31  0  0  1  0  0  0  0  0999 V2000
   37.2610   21.8600   33.8610 C   0  0  1  0  0  0  0  0  0  0  0  0
   37.3500   22.5980   32.5710 C   0  0  0  0  0  0  0  0  0  0  0  0
   37.3100   21.1020   32.5650 C   0  0  2  0  0  0  0  0  0  0  0  0
   36.1430   20.3340   32.0610 C   0  0  0  0  0  0  0  0  0  0  0  0
   35.1080   21.3220   31.5580 C   0  0  0  0  0  0  0  0  0  0  0  0
   36.5340   19.5190   30.8190 C   0  0  0  0  0  0  0  0  0  0  0  0
   35.5430   19.3510   33.0150 C   0  0  0  0  0  0  0  0  0  0  0  0
   38.4580   21.7760   34.6270 O   0  0  0  0  0  0  0  0  0  0  0  0
   39.9930   22.6700   37.6690 C   0  0  0  0  0  0  0  0  0  0  0  0
   38.9680   23.3200   38.4020 C   0  0  0  0  0  0  0  0  0  0  0  0
   37.7100   23.4320   37.7740 C   0  0  0  0  0  0  0  0  0  0  0  0
   37.5780   22.9180   36.5370 N   0  0  0  0  0  0  0  0  0  0  0  0
   38.6030   22.3010   35.8790 C   0  0  0  0  0  0  0  0  0  0  0  0
   39.8020   22.1750   36.4330 N   0  0  0  0  0  0  0  0  0  0  0  0
   36.5833   21.9093   34.7260 H   0  0  0  0  0  0  0  0  0  0  0  0
   36.4853   23.1716   32.2061 H   0  0  0  0  0  0  0  0  0  0  0  0
   38.0302   23.3571   32.1573 H   0  0  0  0  0  0  0  0  0  0  0  0
   37.9452   20.3099   32.1418 H   0  0  0  0  0  0  0  0  0  0  0  0
   34.6090   21.7983   32.4148 H   0  0  0  0  0  0  0  0  0  0  0  0
   35.6023   22.0918   30.9472 H   0  0  0  0  0  0  0  0  0  0  0  0
   34.3620   20.7924   30.9472 H   0  0  0  0  0  0  0  0  0  0  0  0
   36.9900   18.5684   31.1328 H   0  0  0  0  0  0  0  0  0  0  0  0
   35.6362   19.3140   30.2174 H   0  0  0  0  0  0  0  0  0  0  0  0
   37.2558   20.0910   30.2174 H   0  0  0  0  0  0  0  0  0  0  0  0
   35.7406   19.6747   34.0476 H   0  0  0  0  0  0  0  0  0  0  0  0
   34.4569   19.2956   32.8496 H   0  0  0  0  0  0  0  0  0  0  0  0
   35.9902   18.3597   32.8496 H   0  0  0  0  0  0  0  0  0  0  0  0
   40.9861   22.5662   38.1305 H   0  0  0  0  0  0  0  0  0  0  0  0
   39.1454   23.7179   39.4121 H   0  0  0  0  0  0  0  0  0  0  0  0
   36.8648   23.9231   38.2784 H   0  0  0  0  0  0  0  0  0  0  0  0
  1  8  1  0
  2  1  1  0
  3  2  1  0
  3  1  1  0
  4  3  1  0
  4  7  1  0
  5  4  1  0
  6  4  1  0
  8 13  1  0
  9 10  2  0
 11 10  1  0
 12 11  2  0
 13 14  2  0
 13 12  1  0
 14  9  1  0
  1 15  1  1
  2 16  1  0
  2 17  1  0
  3 18  1  1
  5 19  1  0
  5 20  1  0
  5 21  1  0
  6 22  1  0
  6 23  1  0
  6 24  1  0
  7 25  1  0
  7 26  1  0
  7 27  1  0
  9 28  1  0
 10 29  1  0
 11 30  1  0
M  ISO  8  15  13  16  13  17  13  18  13  19   8  20   8  21   8  22   8
M  ISO  8  23   8  24   8  25   8  26   8  27   8  28  14  29  14  30  14
M  END
>  <minimizedAffinity>  (1) 
-4.10362864

>  <minimizedRMSD>  (1) 
1.84214497

$$$$
