
     RDKit          3D

 21 22  0  0  1  0  0  0  0  0999 V2000
   38.8270   24.5500   35.9200 C   0  0  1  0  0  0  0  0  0  0  0  0
   38.1150   25.6550   36.6450 C   0  0  0  0  0  0  0  0  0  0  0  0
   37.7850   24.2330   36.9570 C   0  0  2  0  0  0  0  0  0  0  0  0
   38.1790   23.7580   38.3170 C   0  0  0  0  0  0  0  0  0  0  0  0
   39.4680   23.2210   38.3170 F   0  0  0  0  0  0  0  0  0  0  0  0
   37.3060   22.8280   38.8440 F   0  0  0  0  0  0  0  0  0  0  0  0
   38.1860   24.8340   39.1830 F   0  0  0  0  0  0  0  0  0  0  0  0
   38.3920   24.3170   34.5780 O   0  0  0  0  0  0  0  0  0  0  0  0
   37.0170   26.5030   32.1750 C   0  0  0  0  0  0  0  0  0  0  0  0
   38.1210   27.2650   31.7170 C   0  0  0  0  0  0  0  0  0  0  0  0
   39.3690   26.9780   32.2940 C   0  0  0  0  0  0  0  0  0  0  0  0
   39.4280   26.0080   33.2300 N   0  0  0  0  0  0  0  0  0  0  0  0
   38.3290   25.3050   33.6320 C   0  0  0  0  0  0  0  0  0  0  0  0
   37.1290   25.5460   33.1110 N   0  0  0  0  0  0  0  0  0  0  0  0
   39.8826   24.2901   35.7522 H   0  0  0  0  0  0  0  0  0  0  0  0
   38.6567   26.2672   37.3810 H   0  0  0  0  0  0  0  0  0  0  0  0
   37.5341   26.5369   36.3372 H   0  0  0  0  0  0  0  0  0  0  0  0
   36.8914   23.5916   36.9478 H   0  0  0  0  0  0  0  0  0  0  0  0
   36.0247   26.7042   31.7450 H   0  0  0  0  0  0  0  0  0  0  0  0
   38.0060   28.0427   30.9476 H   0  0  0  0  0  0  0  0  0  0  0  0
   40.2722   27.5282   31.9915 H   0  0  0  0  0  0  0  0  0  0  0  0
  1  2  1  0
  1  3  1  0
  2  3  1  0
  3  4  1  0
  4  6  1  0
  4  7  1  0
  5  4  1  0
  8  1  1  0
  9 14  2  0
 10  9  1  0
 10 11  2  0
 11 12  1  0
 12 13  2  0
 13  8  1  0
 14 13  1  0
  1 15  1  1
  2 16  1  0
  2 17  1  0
  3 18  1  6
  9 19  1  0
 10 20  1  0
 11 21  1  0
M  ISO  7  15  13  16  13  17  13  18  13  19  14  20  14  21  14
M  END
>  <minimizedAffinity>  (1) 
-4.09091568

>  <minimizedRMSD>  (1) 
6.00149441

$$$$
