
     RDKit          3D

 21 22  0  0  1  0  0  0  0  0999 V2000
   37.5100   22.2450   33.4630 C   0  0  1  0  0  0  0  0  0  0  0  0
   37.3250   21.3950   32.2480 C   0  0  0  0  0  0  0  0  0  0  0  0
   36.1780   21.6300   33.1730 C   0  0  1  0  0  0  0  0  0  0  0  0
   35.6660   20.4650   33.8980 C   0  0  0  0  0  0  0  0  0  0  0  0
   35.4290   19.3720   33.2850 O   0  0  0  0  0  0  0  0  0  0  0  0
   35.4230   20.5120   35.2670 O   0  0  0  0  0  0  0  0  0  0  0  0
   38.2430   21.6320   34.5180 O   0  0  0  0  0  0  0  0  0  0  0  0
   39.9360   22.7080   37.4150 C   0  0  0  0  0  0  0  0  0  0  0  0
   38.9180   23.3100   38.1980 C   0  0  0  0  0  0  0  0  0  0  0  0
   37.6190   23.3280   37.6740 C   0  0  0  0  0  0  0  0  0  0  0  0
   37.4490   22.7710   36.4660 N   0  0  0  0  0  0  0  0  0  0  0  0
   38.4550   22.2000   35.7440 C   0  0  0  0  0  0  0  0  0  0  0  0
   39.7000   22.1700   36.2170 N   0  0  0  0  0  0  0  0  0  0  0  0
   37.8715   23.2659   33.6554 H   0  0  0  0  0  0  0  0  0  0  0  0
   37.7942   20.4015   32.1955 H   0  0  0  0  0  0  0  0  0  0  0  0
   37.4949   21.5326   31.1700 H   0  0  0  0  0  0  0  0  0  0  0  0
   35.1627   22.0499   33.1195 H   0  0  0  0  0  0  0  0  0  0  0  0
   35.0768   19.7118   35.7360 H   0  0  0  0  0  0  0  0  0  0  0  0
   40.9618   22.6837   37.8115 H   0  0  0  0  0  0  0  0  0  0  0  0
   39.1408   23.7475   39.1824 H   0  0  0  0  0  0  0  0  0  0  0  0
   36.7800   23.7768   38.2260 H   0  0  0  0  0  0  0  0  0  0  0  0
  1  7  1  0
  2  3  1  0
  2  1  1  0
  3  1  1  0
  3  4  1  0
  4  6  1  0
  5  4  2  0
  7 12  1  0
  8  9  2  0
 10  9  1  0
 11 10  2  0
 12 13  2  0
 12 11  1  0
 13  8  1  0
  1 14  1  6
  2 15  1  0
  2 16  1  0
  3 17  1  6
  6 18  1  0
  8 19  1  0
  9 20  1  0
 10 21  1  0
M  ISO  8  14  13  15  13  16  13  17  13  18   3  19  14  20  14  21  14
M  END
>  <minimizedAffinity>  (1) 
-3.97607422

>  <minimizedRMSD>  (1) 
0.937393188

$$$$
