
     RDKit          3D

 27 28  0  0  1  0  0  0  0  0999 V2000
   38.3870   21.8370   34.6200 O   0  0  0  0  0  0  0  0  0  0  0  0
   39.9830   22.6690   37.6480 C   0  0  0  0  0  0  0  0  0  0  0  0
   38.9870   23.3100   38.4150 C   0  0  0  0  0  0  0  0  0  0  0  0
   37.7210   23.4430   37.8220 C   0  0  0  0  0  0  0  0  0  0  0  0
   37.5410   22.9560   36.5730 N   0  0  0  0  0  0  0  0  0  0  0  0
   38.5500   22.3440   35.8840 C   0  0  0  0  0  0  0  0  0  0  0  0
   39.7700   22.1970   36.4090 N   0  0  0  0  0  0  0  0  0  0  0  0
   37.6160   22.4870   33.6140 C   0  0  1  0  0  0  0  0  0  0  0  0
   38.3490   22.8280   32.3530 C   0  0  0  0  0  0  0  0  0  0  0  0
   37.4020   21.6740   32.3650 C   0  0  2  0  0  0  0  0  0  0  0  0
   36.1040   21.7590   31.6260 C   0  0  0  0  0  0  0  0  0  0  0  0
   35.6890   23.1650   31.2990 C   0  0  0  0  0  0  0  0  0  0  0  0
   34.9790   21.0710   32.3660 C   0  0  0  0  0  0  0  0  0  0  0  0
   40.9845   22.5499   38.0872 H   0  0  0  0  0  0  0  0  0  0  0  0
   39.1922   23.6870   39.4278 H   0  0  0  0  0  0  0  0  0  0  0  0
   36.8955   23.9315   38.3604 H   0  0  0  0  0  0  0  0  0  0  0  0
   36.9732   23.0431   34.3123 H   0  0  0  0  0  0  0  0  0  0  0  0
   39.4319   22.6485   32.2821 H   0  0  0  0  0  0  0  0  0  0  0  0
   38.4575   23.7353   31.7407 H   0  0  0  0  0  0  0  0  0  0  0  0
   37.4730   20.6064   32.1097 H   0  0  0  0  0  0  0  0  0  0  0  0
   36.2930   21.2337   30.6782 H   0  0  0  0  0  0  0  0  0  0  0  0
   35.5238   23.7248   32.2314 H   0  0  0  0  0  0  0  0  0  0  0  0
   36.4811   23.6542   30.7131 H   0  0  0  0  0  0  0  0  0  0  0  0
   34.7582   23.1457   30.7131 H   0  0  0  0  0  0  0  0  0  0  0  0
   35.1392   21.1690   33.4499 H   0  0  0  0  0  0  0  0  0  0  0  0
   34.0211   21.5380   32.0932 H   0  0  0  0  0  0  0  0  0  0  0  0
   34.9583   20.0056   32.0932 H   0  0  0  0  0  0  0  0  0  0  0  0
  1  6  1  0
  2  3  2  0
  4  3  1  0
  5  4  2  0
  6  7  2  0
  6  5  1  0
  7  2  1  0
  8  1  1  0
  9 10  1  0
  9  8  1  0
 10  8  1  0
 11 10  1  0
 11 13  1  0
 12 11  1  0
  2 14  1  0
  3 15  1  0
  4 16  1  0
  8 17  1  1
  9 18  1  0
  9 19  1  0
 10 20  1  1
 11 21  1  0
 12 22  1  0
 12 23  1  0
 12 24  1  0
 13 25  1  0
 13 26  1  0
 13 27  1  0
M  ISO  8  14  14  15  14  16  14  17  13  18  13  19  13  20  13  21   8
M  ISO  6  22   8  23   8  24   8  25   8  26   8  27   8
M  END
>  <minimizedAffinity>  (1) 
-3.84705544

>  <minimizedRMSD>  (1) 
1.762483

$$$$
