
     RDKit          3D

 20 21  0  0  1  0  0  0  0  0999 V2000
   38.4470   21.7700   34.5920 O   0  0  0  0  0  0  0  0  0  0  0  0
   39.9860   22.6630   37.6290 C   0  0  0  0  0  0  0  0  0  0  0  0
   38.9690   23.3120   38.3720 C   0  0  0  0  0  0  0  0  0  0  0  0
   37.7090   23.4310   37.7600 C   0  0  0  0  0  0  0  0  0  0  0  0
   37.5360   22.9270   36.5150 N   0  0  0  0  0  0  0  0  0  0  0  0
   38.5690   22.3120   35.8630 C   0  0  0  0  0  0  0  0  0  0  0  0
   39.7920   22.1760   36.4080 N   0  0  0  0  0  0  0  0  0  0  0  0
   37.4060   22.1620   33.6950 C   0  0  1  0  0  0  0  0  0  0  0  0
   37.6430   21.7600   32.2660 C   0  0  0  0  0  0  0  0  0  0  0  0
   36.6440   21.0130   33.0850 C   0  0  2  0  0  0  0  0  0  0  0  0
   35.2350   21.1850   32.8030 N   0  0  0  0  0  0  0  0  0  0  0  0
   40.9820   22.5574   38.0839 H   0  0  0  0  0  0  0  0  0  0  0  0
   39.1569   23.7050   39.3821 H   0  0  0  0  0  0  0  0  0  0  0  0
   36.8775   23.9253   38.2837 H   0  0  0  0  0  0  0  0  0  0  0  0
   37.1342   23.0928   34.2143 H   0  0  0  0  0  0  0  0  0  0  0  0
   38.5899   21.2779   31.9813 H   0  0  0  0  0  0  0  0  0  0  0  0
   37.6168   22.2834   31.2989 H   0  0  0  0  0  0  0  0  0  0  0  0
   36.4899   19.9552   33.3446 H   0  0  0  0  0  0  0  0  0  0  0  0
   34.7129   21.2487   33.6886 H   0  0  0  0  0  0  0  0  0  0  0  0
   35.0965   22.0491   32.2599 H   0  0  0  0  0  0  0  0  0  0  0  0
  1  6  1  0
  2  3  2  0
  4  3  1  0
  5  4  2  0
  6  7  2  0
  6  5  1  0
  7  2  1  0
  8  1  1  0
  9 10  1  0
  9  8  1  0
 10  8  1  0
 11 10  1  0
  2 12  1  0
  3 13  1  0
  4 14  1  0
  8 15  1  6
  9 16  1  0
  9 17  1  0
 10 18  1  1
 11 19  1  0
 11 20  1  0
M  ISO  8  12  14  13  14  14  14  15  13  16  13  17  13  18  13  19   5
M  ISO  1  20   5
M  END
>  <minimizedAffinity>  (1) 
-3.26091361

>  <minimizedRMSD>  (1) 
0.740049779

$$$$
