
     RDKit          3D

 45 49  0  0  1  0  0  0  0  0999 V2000
   38.7160   22.8370   35.9680 O   0  0  0  0  0  0  0  0  0  0  0  0
   35.7150   20.9940   35.9100 C   0  0  0  0  0  0  0  0  0  0  0  0
   35.5850   20.5980   34.5490 C   0  0  0  0  0  0  0  0  0  0  0  0
   36.6120   21.0130   33.6670 C   0  0  0  0  0  0  0  0  0  0  0  0
   37.6030   21.7370   34.1940 N   0  0  0  0  0  0  0  0  0  0  0  0
   37.6830   22.0910   35.5010 C   0  0  0  0  0  0  0  0  0  0  0  0
   36.7550   21.7280   36.3530 N   0  0  0  0  0  0  0  0  0  0  0  0
   36.5510   20.6550   32.2900 N   0  0  0  0  0  0  0  0  0  0  0  0
   36.4820   21.6050   31.3120 C   0  0  0  0  0  0  0  0  0  0  0  0
   36.4370   20.9680   30.1120 N   0  0  0  0  0  0  0  0  0  0  0  0
   36.4780   19.6500   30.3680 C   0  0  0  0  0  0  0  0  0  0  0  0
   36.4590   18.5560   29.5150 C   0  0  0  0  0  0  0  0  0  0  0  0
   36.3950   18.6460   28.2620 O   0  0  0  0  0  0  0  0  0  0  0  0
   36.5160   17.3390   30.1210 N   0  0  0  0  0  0  0  0  0  0  0  0
   36.5860   17.1170   31.4450 C   0  0  0  0  0  0  0  0  0  0  0  0
   36.6370   15.7700   31.8910 N   0  0  0  0  0  0  0  0  0  0  0  0
   36.6040   18.1910   32.2830 N   0  0  0  0  0  0  0  0  0  0  0  0
   36.5490   19.4310   31.7290 C   0  0  0  0  0  0  0  0  0  0  0  0
   39.8300   23.2840   35.2030 C   0  0  1  0  0  0  0  0  0  0  0  0
   40.0300   24.7860   35.2910 C   0  0  0  0  0  0  0  0  0  0  0  0
   40.9640   23.8530   35.9800 C   0  0  2  0  0  0  0  0  0  0  0  0
   42.3520   23.7980   35.4730 C   0  0  0  0  0  0  0  0  0  0  0  0
   43.2880   23.2320   36.5290 C   0  0  0  0  0  0  0  0  0  0  0  0
   44.1550   24.4080   36.9460 C   0  0  0  0  0  0  0  0  0  0  0  0
   44.1850   25.3420   35.7690 C   0  0  0  0  0  0  0  0  0  0  0  0
   42.8060   25.2060   35.1830 C   0  0  0  0  0  0  0  0  0  0  0  0
   34.9380   20.6897   36.6267 H   0  0  0  0  0  0  0  0  0  0  0  0
   34.7302   20.0000   34.2002 H   0  0  0  0  0  0  0  0  0  0  0  0
   36.4657   22.6938   31.4676 H   0  0  0  0  0  0  0  0  0  0  0  0
   36.5044   16.5110   29.5084 H   0  0  0  0  0  0  0  0  0  0  0  0
   36.6911   15.5628   32.8985 H   0  0  0  0  0  0  0  0  0  0  0  0
   36.6199   15.0000   31.2071 H   0  0  0  0  0  0  0  0  0  0  0  0
   39.7506   22.5298   34.4062 H   0  0  0  0  0  0  0  0  0  0  0  0
   40.3652   25.3508   34.4086 H   0  0  0  0  0  0  0  0  0  0  0  0
   39.4098   25.6407   35.5991 H   0  0  0  0  0  0  0  0  0  0  0  0
   41.3138   23.6924   37.0105 H   0  0  0  0  0  0  0  0  0  0  0  0
   42.3752   23.1621   34.5757 H   0  0  0  0  0  0  0  0  0  0  0  0
   42.7174   22.8472   37.3871 H   0  0  0  0  0  0  0  0  0  0  0  0
   43.8842   22.3897   36.1483 H   0  0  0  0  0  0  0  0  0  0  0  0
   43.7198   24.9115   37.8218 H   0  0  0  0  0  0  0  0  0  0  0  0
   45.1675   24.0815   37.2257 H   0  0  0  0  0  0  0  0  0  0  0  0
   44.3757   26.3762   36.0916 H   0  0  0  0  0  0  0  0  0  0  0  0
   44.9831   25.1032   35.0506 H   0  0  0  0  0  0  0  0  0  0  0  0
   42.8362   25.3790   34.0971 H   0  0  0  0  0  0  0  0  0  0  0  0
   42.1154   25.9432   35.6184 H   0  0  0  0  0  0  0  0  0  0  0  0
  2  7  2  0
  3  2  1  0
  4  5  1  0
  4  3  2  0
  5  6  2  0
  6  1  1  0
  6  7  1  0
  8  4  1  0
  9  8  1  0
 10 11  1  0
 10  9  2  0
 11 18  2  0
 12 14  1  0
 12 11  1  0
 13 12  2  0
 14 15  1  0
 15 16  1  0
 15 17  2  0
 18 17  1  0
 18  8  1  0
 19 20  1  0
 19  1  1  0
 19 21  1  0
 20 21  1  0
 22 21  1  0
 22 23  1  0
 23 24  1  0
 25 24  1  0
 26 22  1  0
 26 25  1  0
  2 27  1  0
  3 28  1  0
  9 29  1  0
 14 30  1  0
 16 31  1  0
 16 32  1  0
 19 33  1  6
 20 34  1  0
 20 35  1  0
 21 36  1  1
 22 37  1  0
 23 38  1  0
 23 39  1  0
 24 40  1  0
 24 41  1  0
 25 42  1  0
 25 43  1  0
 26 44  1  0
 26 45  1  0
M  ISO  8  27  14  28  14  29  14  30   9  33  13  34  13  35  13  36  13
M  ISO  8  37  13  38  13  39  13  40  13  41  13  42  13  43  13  44  13
M  ISO  1  45  13
M  END
>  <minimizedAffinity>  (1) 
-5.27918959

>  <minimizedRMSD>  (1) 
1.0999738

$$$$
