
     RDKit          3D

 47 51  0  0  1  0  0  0  0  0999 V2000
   39.9300   23.3720   35.2580 C   0  0  1  0  0  0  0  0  0  0  0  0
   40.1340   24.7000   34.5610 C   0  0  0  0  0  0  0  0  0  0  0  0
   41.0320   24.2910   35.6740 C   0  0  2  0  0  0  0  0  0  0  0  0
   42.4440   24.0150   35.3310 C   0  0  0  0  0  0  0  0  0  0  0  0
   43.1800   23.3810   36.4750 C   0  0  0  0  0  0  0  0  0  0  0  0
   44.1600   24.4330   36.9550 C   0  0  0  0  0  0  0  0  0  0  0  0
   44.4420   25.3110   35.7740 C   0  0  0  0  0  0  0  0  0  0  0  0
   43.1250   25.3340   35.0400 C   0  0  0  0  0  0  0  0  0  0  0  0
   38.7890   23.3740   36.1150 O   0  0  0  0  0  0  0  0  0  0  0  0
   35.8620   21.5560   36.8650 C   0  0  0  0  0  0  0  0  0  0  0  0
   35.5540   20.8680   35.6760 C   0  0  0  0  0  0  0  0  0  0  0  0
   36.4250   21.0700   34.5840 C   0  0  0  0  0  0  0  0  0  0  0  0
   37.4510   21.8950   34.8040 N   0  0  0  0  0  0  0  0  0  0  0  0
   37.7160   22.5400   35.9600 C   0  0  0  0  0  0  0  0  0  0  0  0
   36.9270   22.3730   36.9870 N   0  0  0  0  0  0  0  0  0  0  0  0
   36.3990   20.4470   33.2840 C   0  0  0  0  0  0  0  0  0  0  0  0
   35.4900   19.3910   33.1110 C   0  0  0  0  0  0  0  0  0  0  0  0
   35.3290   18.6740   31.9610 C   0  0  0  0  0  0  0  0  0  0  0  0
   36.0920   18.9780   30.8710 C   0  0  0  0  0  0  0  0  0  0  0  0
   37.0100   19.9990   30.9580 C   0  0  0  0  0  0  0  0  0  0  0  0
   37.8210   20.3090   29.8890 C   0  0  0  0  0  0  0  0  0  0  0  0
   38.7790   21.3000   29.9480 C   0  0  0  0  0  0  0  0  0  0  0  0
   38.8860   21.9800   31.1620 C   0  0  0  0  0  0  0  0  0  0  0  0
   38.0650   21.6500   32.2090 C   0  0  0  0  0  0  0  0  0  0  0  0
   37.1190   20.6760   32.1450 C   0  0  0  0  0  0  0  0  0  0  0  0
   39.8784   22.3139   34.9616 H   0  0  0  0  0  0  0  0  0  0  0  0
   40.5135   24.7278   33.5289 H   0  0  0  0  0  0  0  0  0  0  0  0
   39.5018   25.5753   34.3509 H   0  0  0  0  0  0  0  0  0  0  0  0
   41.3319   24.6996   36.6503 H   0  0  0  0  0  0  0  0  0  0  0  0
   42.4591   23.3314   34.4693 H   0  0  0  0  0  0  0  0  0  0  0  0
   42.4808   23.1105   37.2799 H   0  0  0  0  0  0  0  0  0  0  0  0
   43.6900   22.4551   36.1707 H   0  0  0  0  0  0  0  0  0  0  0  0
   43.7172   25.0225   37.7714 H   0  0  0  0  0  0  0  0  0  0  0  0
   45.0817   23.9750   37.3433 H   0  0  0  0  0  0  0  0  0  0  0  0
   44.7326   26.3223   36.0947 H   0  0  0  0  0  0  0  0  0  0  0  0
   45.2749   24.9468   35.1546 H   0  0  0  0  0  0  0  0  0  0  0  0
   43.2952   25.4427   33.9587 H   0  0  0  0  0  0  0  0  0  0  0  0
   42.5040   26.1812   35.3665 H   0  0  0  0  0  0  0  0  0  0  0  0
   35.2027   21.4205   37.7350 H   0  0  0  0  0  0  0  0  0  0  0  0
   34.6785   20.2062   35.6018 H   0  0  0  0  0  0  0  0  0  0  0  0
   34.8581   19.1204   33.9697 H   0  0  0  0  0  0  0  0  0  0  0  0
   34.5916   17.8592   31.9131 H   0  0  0  0  0  0  0  0  0  0  0  0
   35.9744   18.4135   29.9342 H   0  0  0  0  0  0  0  0  0  0  0  0
   37.7003   19.7449   28.9524 H   0  0  0  0  0  0  0  0  0  0  0  0
   39.4213   21.5403   29.0879 H   0  0  0  0  0  0  0  0  0  0  0  0
   39.6300   22.7817   31.2789 H   0  0  0  0  0  0  0  0  0  0  0  0
   38.1779   22.2038   33.1527 H   0  0  0  0  0  0  0  0  0  0  0  0
  1  3  1  0
  1  9  1  0
  2  1  1  0
  2  3  1  0
  4  3  1  0
  4  5  1  0
  5  6  1  0
  7  6  1  0
  8  4  1  0
  8  7  1  0
 10 15  2  0
 11 10  1  0
 12 13  1  0
 12 11  2  0
 13 14  2  0
 14  9  1  0
 14 15  1  0
 16 12  1  0
 17 16  2  0
 18 17  1  0
 19 20  1  0
 19 18  2  0
 20 25  2  0
 21 22  2  0
 21 20  1  0
 22 23  1  0
 23 24  2  0
 25 24  1  0
 25 16  1  0
  1 26  1  6
  2 27  1  0
  2 28  1  0
  3 29  1  1
  4 30  1  0
  5 31  1  0
  5 32  1  0
  6 33  1  0
  6 34  1  0
  7 35  1  0
  7 36  1  0
  8 37  1  0
  8 38  1  0
 10 39  1  0
 11 40  1  0
 17 41  1  0
 18 42  1  0
 19 43  1  0
 21 44  1  0
 22 45  1  0
 23 46  1  0
 24 47  1  0
M  ISO  8  26  13  27  13  28  13  29  13  30  13  31  13  32  13  33  13
M  ISO  8  34  13  35  13  36  13  37  13  38  13  39  14  40  14  41  14
M  ISO  6  42  14  43  14  44  14  45  14  46  14  47  14
M  END
>  <minimizedAffinity>  (1) 
-5.15270996

>  <minimizedRMSD>  (1) 
1.67583621

$$$$
