
     RDKit          3D

 45 48  0  0  1  0  0  0  0  0999 V2000
   39.8140   23.3950   35.2140 C   0  0  1  0  0  0  0  0  0  0  0  0
   40.0810   24.8820   35.0630 C   0  0  0  0  0  0  0  0  0  0  0  0
   40.9810   24.0330   35.8830 C   0  0  2  0  0  0  0  0  0  0  0  0
   42.3660   23.8370   35.3970 C   0  0  0  0  0  0  0  0  0  0  0  0
   43.2240   23.2000   36.4780 C   0  0  0  0  0  0  0  0  0  0  0  0
   44.1980   24.2660   36.8990 C   0  0  0  0  0  0  0  0  0  0  0  0
   44.3300   25.2150   35.7320 C   0  0  0  0  0  0  0  0  0  0  0  0
   42.9550   25.2080   35.1350 C   0  0  0  0  0  0  0  0  0  0  0  0
   38.6940   23.1230   36.0320 O   0  0  0  0  0  0  0  0  0  0  0  0
   35.7920   21.1500   36.3600 C   0  0  0  0  0  0  0  0  0  0  0  0
   35.5350   20.6830   35.0590 C   0  0  0  0  0  0  0  0  0  0  0  0
   36.4380   21.0950   34.0570 C   0  0  0  0  0  0  0  0  0  0  0  0
   37.4540   21.8880   34.4130 N   0  0  0  0  0  0  0  0  0  0  0  0
   37.6520   22.3090   35.6880 C   0  0  0  0  0  0  0  0  0  0  0  0
   36.8380   21.9480   36.6520 N   0  0  0  0  0  0  0  0  0  0  0  0
   36.2920   20.6940   32.7040 N   0  0  0  0  0  0  0  0  0  0  0  0
   37.3640   20.3640   31.7930 C   0  0  0  0  0  0  0  0  0  0  0  0
   37.1450   18.9420   31.3240 C   0  0  0  0  0  0  0  0  0  0  0  0
   35.7860   18.6690   30.9770 N   0  0  0  0  0  0  0  0  0  0  0  0
   34.8000   19.0760   31.9280 C   0  0  0  0  0  0  0  0  0  0  0  0
   34.9650   20.5900   32.1240 C   0  0  0  0  0  0  0  0  0  0  0  0
   39.6944   22.5261   34.5501 H   0  0  0  0  0  0  0  0  0  0  0  0
   40.4286   25.2850   34.1003 H   0  0  0  0  0  0  0  0  0  0  0  0
   39.5020   25.8011   35.2362 H   0  0  0  0  0  0  0  0  0  0  0  0
   41.3370   24.0243   36.9238 H   0  0  0  0  0  0  0  0  0  0  0  0
   42.3474   23.1982   34.5017 H   0  0  0  0  0  0  0  0  0  0  0  0
   42.6012   22.8902   37.3302 H   0  0  0  0  0  0  0  0  0  0  0  0
   43.7383   22.2990   36.1123 H   0  0  0  0  0  0  0  0  0  0  0  0
   43.8174   24.8006   37.7818 H   0  0  0  0  0  0  0  0  0  0  0  0
   45.1715   23.8301   37.1679 H   0  0  0  0  0  0  0  0  0  0  0  0
   44.6084   26.2234   36.0719 H   0  0  0  0  0  0  0  0  0  0  0  0
   45.1138   24.9193   35.0191 H   0  0  0  0  0  0  0  0  0  0  0  0
   43.0122   25.3941   34.0524 H   0  0  0  0  0  0  0  0  0  0  0  0
   42.3295   25.9958   35.5801 H   0  0  0  0  0  0  0  0  0  0  0  0
   35.1122   20.8522   37.1719 H   0  0  0  0  0  0  0  0  0  0  0  0
   34.6770   20.0322   34.8350 H   0  0  0  0  0  0  0  0  0  0  0  0
   37.3492   21.0492   30.9326 H   0  0  0  0  0  0  0  0  0  0  0  0
   38.3390   20.4598   32.2931 H   0  0  0  0  0  0  0  0  0  0  0  0
   37.7746   18.7642   30.4397 H   0  0  0  0  0  0  0  0  0  0  0  0
   37.4102   18.2768   32.1590 H   0  0  0  0  0  0  0  0  0  0  0  0
   35.5850   19.1513   30.0894 H   0  0  0  0  0  0  0  0  0  0  0  0
   33.7926   18.8517   31.5475 H   0  0  0  0  0  0  0  0  0  0  0  0
   34.9276   18.5402   32.8802 H   0  0  0  0  0  0  0  0  0  0  0  0
   34.9092   21.1228   31.1632 H   0  0  0  0  0  0  0  0  0  0  0  0
   34.1788   21.0374   32.7499 H   0  0  0  0  0  0  0  0  0  0  0  0
  1  3  1  0
  1  9  1  0
  2  1  1  0
  2  3  1  0
  4  3  1  0
  4  5  1  0
  5  6  1  0
  7  6  1  0
  8  4  1  0
  8  7  1  0
 10 15  2  0
 11 10  1  0
 12 13  1  0
 12 11  2  0
 13 14  2  0
 14  9  1  0
 14 15  1  0
 16 12  1  0
 17 16  1  0
 18 17  1  0
 19 18  1  0
 19 20  1  0
 20 21  1  0
 21 16  1  0
  1 22  1  6
  2 23  1  0
  2 24  1  0
  3 25  1  1
  4 26  1  0
  5 27  1  0
  5 28  1  0
  6 29  1  0
  6 30  1  0
  7 31  1  0
  7 32  1  0
  8 33  1  0
  8 34  1  0
 10 35  1  0
 11 36  1  0
 17 37  1  0
 17 38  1  0
 18 39  1  0
 18 40  1  0
 19 41  1  0
 20 42  1  0
 20 43  1  0
 21 44  1  0
 21 45  1  0
M  ISO  8  22  13  23  13  24  13  25  13  26  13  27  13  28  13  29  13
M  ISO  8  30  13  31  13  32  13  33  13  34  13  35  14  36  14  37  13
M  ISO  8  38  13  39  13  40  13  41   5  42  13  43  13  44  13  45  13
M  END
>  <minimizedAffinity>  (1) 
-4.77218199

>  <minimizedRMSD>  (1) 
0.69296062

$$$$
