
     RDKit          3D

 41 44  0  0  1  0  0  0  0  0999 V2000
   39.7970   23.5410   35.2630 C   0  0  1  0  0  0  0  0  0  0  0  0
   40.0910   25.0210   35.0760 C   0  0  0  0  0  0  0  0  0  0  0  0
   40.9760   24.1770   35.9190 C   0  0  2  0  0  0  0  0  0  0  0  0
   42.3500   23.9340   35.4300 C   0  0  0  0  0  0  0  0  0  0  0  0
   43.2040   23.2810   36.5000 C   0  0  0  0  0  0  0  0  0  0  0  0
   44.1870   24.3560   36.9240 C   0  0  0  0  0  0  0  0  0  0  0  0
   44.3600   25.2380   35.7190 C   0  0  0  0  0  0  0  0  0  0  0  0
   42.9830   25.2630   35.1040 C   0  0  0  0  0  0  0  0  0  0  0  0
   38.6720   23.3160   36.1160 O   0  0  0  0  0  0  0  0  0  0  0  0
   35.7730   21.3680   36.5720 C   0  0  0  0  0  0  0  0  0  0  0  0
   35.5760   20.7420   35.3170 C   0  0  0  0  0  0  0  0  0  0  0  0
   36.5180   21.0380   34.3090 C   0  0  0  0  0  0  0  0  0  0  0  0
   37.5080   21.8810   34.6290 N   0  0  0  0  0  0  0  0  0  0  0  0
   37.6510   22.4580   35.8470 C   0  0  0  0  0  0  0  0  0  0  0  0
   36.8020   22.2110   36.8150 N   0  0  0  0  0  0  0  0  0  0  0  0
   36.4160   20.4510   32.9810 C   0  0  0  0  0  0  0  0  0  0  0  0
   35.7200   19.3050   32.6730 C   0  0  0  0  0  0  0  0  0  0  0  0
   35.6710   18.8110   31.3850 C   0  0  0  0  0  0  0  0  0  0  0  0
   36.3130   19.4350   30.3400 C   0  0  0  0  0  0  0  0  0  0  0  0
   37.0040   20.5730   30.6440 C   0  0  0  0  0  0  0  0  0  0  0  0
   37.0600   21.0790   31.9390 C   0  0  0  0  0  0  0  0  0  0  0  0
   39.6577   22.6619   34.6166 H   0  0  0  0  0  0  0  0  0  0  0  0
   40.4469   25.3940   34.1043 H   0  0  0  0  0  0  0  0  0  0  0  0
   39.5278   25.9539   35.2256 H   0  0  0  0  0  0  0  0  0  0  0  0
   41.3314   24.1945   36.9598 H   0  0  0  0  0  0  0  0  0  0  0  0
   42.2926   23.2747   34.5514 H   0  0  0  0  0  0  0  0  0  0  0  0
   42.5834   22.9661   37.3519 H   0  0  0  0  0  0  0  0  0  0  0  0
   43.7116   22.3776   36.1309 H   0  0  0  0  0  0  0  0  0  0  0  0
   43.7843   24.9338   37.7690 H   0  0  0  0  0  0  0  0  0  0  0  0
   45.1435   23.9267   37.2569 H   0  0  0  0  0  0  0  0  0  0  0  0
   44.6780   26.2490   36.0135 H   0  0  0  0  0  0  0  0  0  0  0  0
   45.1331   24.8729   35.0268 H   0  0  0  0  0  0  0  0  0  0  0  0
   43.0549   25.3936   34.0141 H   0  0  0  0  0  0  0  0  0  0  0  0
   42.3846   26.0981   35.4971 H   0  0  0  0  0  0  0  0  0  0  0  0
   35.0593   21.1598   37.3828 H   0  0  0  0  0  0  0  0  0  0  0  0
   34.7319   20.0600   35.1372 H   0  0  0  0  0  0  0  0  0  0  0  0
   35.1891   18.7688   33.4734 H   0  0  0  0  0  0  0  0  0  0  0  0
   35.1015   17.8907   31.1880 H   0  0  0  0  0  0  0  0  0  0  0  0
   36.2718   19.0384   29.3148 H   0  0  0  0  0  0  0  0  0  0  0  0
   37.5327   21.1062   29.8402 H   0  0  0  0  0  0  0  0  0  0  0  0
   37.6303   21.9992   32.1340 H   0  0  0  0  0  0  0  0  0  0  0  0
  1  3  1  0
  1  9  1  0
  2  1  1  0
  2  3  1  0
  4  3  1  0
  4  5  1  0
  5  6  1  0
  7  6  1  0
  8  4  1  0
  8  7  1  0
 10 15  2  0
 11 10  1  0
 12 13  1  0
 12 11  2  0
 13 14  2  0
 14  9  1  0
 14 15  1  0
 16 12  1  0
 17 16  2  0
 18 17  1  0
 19 20  1  0
 19 18  2  0
 20 21  2  0
 21 16  1  0
  1 22  1  6
  2 23  1  0
  2 24  1  0
  3 25  1  1
  4 26  1  0
  5 27  1  0
  5 28  1  0
  6 29  1  0
  6 30  1  0
  7 31  1  0
  7 32  1  0
  8 33  1  0
  8 34  1  0
 10 35  1  0
 11 36  1  0
 17 37  1  0
 18 38  1  0
 19 39  1  0
 20 40  1  0
 21 41  1  0
M  ISO  8  22  13  23  13  24  13  25  13  26  13  27  13  28  13  29  13
M  ISO  8  30  13  31  13  32  13  33  13  34  13  35  14  36  14  37  14
M  ISO  4  38  14  39  14  40  14  41  14
M  END
>  <minimizedAffinity>  (1) 
-4.70273781

>  <minimizedRMSD>  (1) 
1.02376854

$$$$
