
     RDKit          3D

 38 41  0  0  1  0  0  0  0  0999 V2000
   39.7620   23.3530   35.0950 C   0  0  1  0  0  0  0  0  0  0  0  0
   40.0200   24.8400   35.0610 C   0  0  0  0  0  0  0  0  0  0  0  0
   40.9040   23.9460   35.8500 C   0  0  2  0  0  0  0  0  0  0  0  0
   42.2990   23.7900   35.3820 C   0  0  0  0  0  0  0  0  0  0  0  0
   43.1800   23.1980   36.4650 C   0  0  0  0  0  0  0  0  0  0  0  0
   44.1000   24.3150   36.8850 C   0  0  0  0  0  0  0  0  0  0  0  0
   44.1860   25.2680   35.7290 C   0  0  0  0  0  0  0  0  0  0  0  0
   42.8500   25.1560   35.0580 C   0  0  0  0  0  0  0  0  0  0  0  0
   38.6200   23.0190   35.8900 O   0  0  0  0  0  0  0  0  0  0  0  0
   35.7090   21.0410   36.0380 C   0  0  0  0  0  0  0  0  0  0  0  0
   35.5600   20.5370   34.7320 C   0  0  0  0  0  0  0  0  0  0  0  0
   36.5360   20.9230   33.7890 C   0  0  0  0  0  0  0  0  0  0  0  0
   37.5300   21.7340   34.1810 N   0  0  0  0  0  0  0  0  0  0  0  0
   37.6120   22.1890   35.4780 C   0  0  0  0  0  0  0  0  0  0  0  0
   36.7280   21.8580   36.3960 N   0  0  0  0  0  0  0  0  0  0  0  0
   36.4050   20.4140   32.4300 C   0  0  0  0  0  0  0  0  0  0  0  0
   36.8780   21.0160   31.2840 C   0  0  0  0  0  0  0  0  0  0  0  0
   36.4770   20.1070   30.2990 C   0  0  0  0  0  0  0  0  0  0  0  0
   35.8190   19.0530   30.8190 N   0  0  0  0  0  0  0  0  0  0  0  0
   35.7850   19.2610   32.1230 N   0  0  0  0  0  0  0  0  0  0  0  0
   39.6642   22.5403   34.3601 H   0  0  0  0  0  0  0  0  0  0  0  0
   40.3947   25.3130   34.1413 H   0  0  0  0  0  0  0  0  0  0  0  0
   39.4255   25.7392   35.2801 H   0  0  0  0  0  0  0  0  0  0  0  0
   41.2279   23.8690   36.8984 H   0  0  0  0  0  0  0  0  0  0  0  0
   42.2952   23.1238   34.5067 H   0  0  0  0  0  0  0  0  0  0  0  0
   42.5701   22.8607   37.3161 H   0  0  0  0  0  0  0  0  0  0  0  0
   43.7380   22.3209   36.1054 H   0  0  0  0  0  0  0  0  0  0  0  0
   43.6928   24.8282   37.7686 H   0  0  0  0  0  0  0  0  0  0  0  0
   45.0946   23.9269   37.1497 H   0  0  0  0  0  0  0  0  0  0  0  0
   44.3599   26.2950   36.0825 H   0  0  0  0  0  0  0  0  0  0  0  0
   45.0188   25.0321   35.0502 H   0  0  0  0  0  0  0  0  0  0  0  0
   42.9648   25.2673   33.9697 H   0  0  0  0  0  0  0  0  0  0  0  0
   42.1693   25.9445   35.4113 H   0  0  0  0  0  0  0  0  0  0  0  0
   34.9668   20.7595   36.7995 H   0  0  0  0  0  0  0  0  0  0  0  0
   34.7244   19.8753   34.4603 H   0  0  0  0  0  0  0  0  0  0  0  0
   37.4268   21.9628   31.1729 H   0  0  0  0  0  0  0  0  0  0  0  0
   36.6759   20.2378   29.2251 H   0  0  0  0  0  0  0  0  0  0  0  0
   35.4244   18.2515   30.3064 H   0  0  0  0  0  0  0  0  0  0  0  0
  1  3  1  0
  1  9  1  0
  2  1  1  0
  2  3  1  0
  4  3  1  0
  4  5  1  0
  5  6  1  0
  7  6  1  0
  8  4  1  0
  8  7  1  0
 10 15  2  0
 11 10  1  0
 12 13  1  0
 12 11  2  0
 13 14  2  0
 14  9  1  0
 14 15  1  0
 16 12  1  0
 17 16  1  0
 18 19  1  0
 18 17  2  0
 19 20  1  0
 20 16  2  0
  1 21  1  6
  2 22  1  0
  2 23  1  0
  3 24  1  1
  4 25  1  0
  5 26  1  0
  5 27  1  0
  6 28  1  0
  6 29  1  0
  7 30  1  0
  7 31  1  0
  8 32  1  0
  8 33  1  0
 10 34  1  0
 11 35  1  0
 17 36  1  0
 18 37  1  0
 19 38  1  0
M  ISO  8  21  13  22  13  23  13  24  13  25  13  26  13  27  13  28  13
M  ISO  8  29  13  30  13  31  13  32  13  33  13  34  14  35  14  36  14
M  ISO  2  37  14  38   9
M  END
>  <minimizedAffinity>  (1) 
-4.67545462

>  <minimizedRMSD>  (1) 
0.469732165

$$$$
