
     RDKit          3D

 34 36  0  0  1  0  0  0  0  0999 V2000
   39.7030   23.2620   34.9320 C   0  0  1  0  0  0  0  0  0  0  0  0
   39.9320   24.7220   35.2690 C   0  0  0  0  0  0  0  0  0  0  0  0
   40.8320   23.6600   35.8190 C   0  0  2  0  0  0  0  0  0  0  0  0
   42.2290   23.6650   35.3410 C   0  0  0  0  0  0  0  0  0  0  0  0
   43.1630   23.0980   36.3980 C   0  0  0  0  0  0  0  0  0  0  0  0
   43.9770   24.2920   36.8710 C   0  0  0  0  0  0  0  0  0  0  0  0
   44.0080   25.2520   35.7190 C   0  0  0  0  0  0  0  0  0  0  0  0
   42.6390   25.0980   35.1070 C   0  0  0  0  0  0  0  0  0  0  0  0
   38.5590   22.7310   35.5850 O   0  0  0  0  0  0  0  0  0  0  0  0
   35.6990   20.7100   35.1630 C   0  0  0  0  0  0  0  0  0  0  0  0
   35.5030   20.6780   33.7550 C   0  0  0  0  0  0  0  0  0  0  0  0
   36.4280   21.4000   32.9690 C   0  0  0  0  0  0  0  0  0  0  0  0
   37.4150   22.0570   33.6020 N   0  0  0  0  0  0  0  0  0  0  0  0
   37.5470   22.0480   34.9730 C   0  0  0  0  0  0  0  0  0  0  0  0
   36.7110   21.3900   35.7390 N   0  0  0  0  0  0  0  0  0  0  0  0
   36.3550   21.4590   31.5060 C   0  0  0  0  0  0  0  0  0  0  0  0
   35.3840   22.3960   31.1620 F   0  0  0  0  0  0  0  0  0  0  0  0
   35.9220   20.2550   30.9350 F   0  0  0  0  0  0  0  0  0  0  0  0
   37.5590   21.7320   30.9180 F   0  0  0  0  0  0  0  0  0  0  0  0
   39.6292   22.6508   34.0204 H   0  0  0  0  0  0  0  0  0  0  0  0
   40.3021   25.4148   34.4989 H   0  0  0  0  0  0  0  0  0  0  0  0
   39.3223   25.5303   35.6991 H   0  0  0  0  0  0  0  0  0  0  0  0
   41.1512   23.3154   36.8136 H   0  0  0  0  0  0  0  0  0  0  0  0
   42.2926   23.0577   34.4260 H   0  0  0  0  0  0  0  0  0  0  0  0
   42.5896   22.6646   37.2307 H   0  0  0  0  0  0  0  0  0  0  0  0
   43.7974   22.2904   36.0041 H   0  0  0  0  0  0  0  0  0  0  0  0
   43.4990   24.7587   37.7450 H   0  0  0  0  0  0  0  0  0  0  0  0
   44.9912   23.9939   37.1751 H   0  0  0  0  0  0  0  0  0  0  0  0
   44.1706   26.2824   36.0682 H   0  0  0  0  0  0  0  0  0  0  0  0
   44.8236   25.0489   35.0094 H   0  0  0  0  0  0  0  0  0  0  0  0
   42.6777   25.3118   34.0287 H   0  0  0  0  0  0  0  0  0  0  0  0
   41.9193   25.7981   35.5563 H   0  0  0  0  0  0  0  0  0  0  0  0
   34.9981   20.1588   35.8072 H   0  0  0  0  0  0  0  0  0  0  0  0
   34.6721   20.1186   33.3005 H   0  0  0  0  0  0  0  0  0  0  0  0
  1  2  1  0
  1  9  1  0
  1  3  1  0
  2  3  1  0
  4  3  1  0
  4  5  1  0
  5  6  1  0
  7  6  1  0
  8  4  1  0
  8  7  1  0
 10 15  2  0
 11 10  1  0
 12 13  1  0
 12 11  2  0
 13 14  2  0
 14  9  1  0
 14 15  1  0
 16 12  1  0
 17 16  1  0
 18 16  1  0
 19 16  1  0
  1 20  1  6
  2 21  1  0
  2 22  1  0
  3 23  1  1
  4 24  1  0
  5 25  1  0
  5 26  1  0
  6 27  1  0
  6 28  1  0
  7 29  1  0
  7 30  1  0
  8 31  1  0
  8 32  1  0
 10 33  1  0
 11 34  1  0
M  ISO  8  20  13  21  13  22  13  23  13  24  13  25  13  26  13  27  13
M  ISO  7  28  13  29  13  30  13  31  13  32  13  33  14  34  14
M  END
>  <minimizedAffinity>  (1) 
-4.55548048

>  <minimizedRMSD>  (1) 
0.453848541

$$$$
