
     RDKit          3D

 40 42  0  0  1  0  0  0  0  0999 V2000
   39.7390   23.2420   35.0460 C   0  0  1  0  0  0  0  0  0  0  0  0
   39.9740   24.7270   35.2520 C   0  0  0  0  0  0  0  0  0  0  0  0
   40.8720   23.7210   35.8870 C   0  0  2  0  0  0  0  0  0  0  0  0
   42.2650   23.6740   35.3960 C   0  0  0  0  0  0  0  0  0  0  0  0
   43.1990   23.1240   36.4590 C   0  0  0  0  0  0  0  0  0  0  0  0
   44.0440   24.3140   36.8830 C   0  0  0  0  0  0  0  0  0  0  0  0
   44.0720   25.2620   35.7190 C   0  0  0  0  0  0  0  0  0  0  0  0
   42.7070   25.0900   35.1030 C   0  0  0  0  0  0  0  0  0  0  0  0
   38.5960   22.7780   35.7640 O   0  0  0  0  0  0  0  0  0  0  0  0
   35.7010   20.7800   35.5670 C   0  0  0  0  0  0  0  0  0  0  0  0
   35.5060   20.5920   34.1730 C   0  0  0  0  0  0  0  0  0  0  0  0
   36.4460   21.2020   33.3110 C   0  0  0  0  0  0  0  0  0  0  0  0
   37.4440   21.9060   33.8690 N   0  0  0  0  0  0  0  0  0  0  0  0
   37.5760   22.0510   35.2320 C   0  0  0  0  0  0  0  0  0  0  0  0
   36.7250   21.5000   36.0640 N   0  0  0  0  0  0  0  0  0  0  0  0
   36.3880   21.1030   31.8320 C   0  0  0  0  0  0  0  0  0  0  0  0
   35.6770   19.8150   31.4320 C   0  0  0  0  0  0  0  0  0  0  0  0
   35.7430   22.3260   31.1960 C   0  0  0  0  0  0  0  0  0  0  0  0
   39.6580   22.5514   34.1937 H   0  0  0  0  0  0  0  0  0  0  0  0
   40.3411   25.3479   34.4215 H   0  0  0  0  0  0  0  0  0  0  0  0
   39.3681   25.5714   35.6123 H   0  0  0  0  0  0  0  0  0  0  0  0
   41.1964   23.4726   36.9083 H   0  0  0  0  0  0  0  0  0  0  0  0
   42.3023   23.0301   34.5049 H   0  0  0  0  0  0  0  0  0  0  0  0
   42.6269   22.7308   37.3123 H   0  0  0  0  0  0  0  0  0  0  0  0
   43.8117   22.2909   36.0841 H   0  0  0  0  0  0  0  0  0  0  0  0
   43.5955   24.8039   37.7598 H   0  0  0  0  0  0  0  0  0  0  0  0
   45.0607   23.9980   37.1596 H   0  0  0  0  0  0  0  0  0  0  0  0
   44.2247   26.2976   36.0571 H   0  0  0  0  0  0  0  0  0  0  0  0
   44.8922   25.0574   35.0152 H   0  0  0  0  0  0  0  0  0  0  0  0
   42.7598   25.2520   34.0163 H   0  0  0  0  0  0  0  0  0  0  0  0
   41.9943   25.8176   35.5185 H   0  0  0  0  0  0  0  0  0  0  0  0
   34.9886   20.3200   36.2676 H   0  0  0  0  0  0  0  0  0  0  0  0
   34.6646   20.0006   33.7829 H   0  0  0  0  0  0  0  0  0  0  0  0
   37.4185   21.0721   31.4485 H   0  0  0  0  0  0  0  0  0  0  0  0
   35.3745   19.2670   32.3366 H   0  0  0  0  0  0  0  0  0  0  0  0
   34.7855   20.0584   30.8354 H   0  0  0  0  0  0  0  0  0  0  0  0
   36.3581   19.1903   30.8354 H   0  0  0  0  0  0  0  0  0  0  0  0
   35.3854   23.0040   31.9850 H   0  0  0  0  0  0  0  0  0  0  0  0
   36.4831   22.8480   30.5717 H   0  0  0  0  0  0  0  0  0  0  0  0
   34.8943   22.0100   30.5717 H   0  0  0  0  0  0  0  0  0  0  0  0
  1  2  1  0
  1  9  1  0
  1  3  1  0
  2  3  1  0
  4  3  1  0
  4  5  1  0
  5  6  1  0
  7  6  1  0
  8  4  1  0
  8  7  1  0
 10 15  2  0
 11 10  1  0
 12 13  1  0
 12 11  2  0
 13 14  2  0
 14  9  1  0
 14 15  1  0
 16 12  1  0
 17 16  1  0
 18 16  1  0
  1 19  1  6
  2 20  1  0
  2 21  1  0
  3 22  1  1
  4 23  1  0
  5 24  1  0
  5 25  1  0
  6 26  1  0
  6 27  1  0
  7 28  1  0
  7 29  1  0
  8 30  1  0
  8 31  1  0
 10 32  1  0
 11 33  1  0
 16 34  1  0
 17 35  1  0
 17 36  1  0
 17 37  1  0
 18 38  1  0
 18 39  1  0
 18 40  1  0
M  ISO  8  19  13  20  13  21  13  22  13  23  13  24  13  25  13  26  13
M  ISO  8  27  13  28  13  29  13  30  13  31  13  32  14  33  14  34   8
M  ISO  6  35   8  36   8  37   8  38   8  39   8  40   8
M  END
>  <minimizedAffinity>  (1) 
-4.54365683

>  <minimizedRMSD>  (1) 
0.352606595

$$$$
