
     RDKit          3D

 37 40  0  0  1  0  0  0  0  0999 V2000
   39.6870   23.3320   34.9980 C   0  0  1  0  0  0  0  0  0  0  0  0
   39.9300   24.7960   35.3090 C   0  0  0  0  0  0  0  0  0  0  0  0
   40.8280   23.7480   35.8620 C   0  0  2  0  0  0  0  0  0  0  0  0
   42.2200   23.7110   35.3740 C   0  0  0  0  0  0  0  0  0  0  0  0
   43.1450   23.1380   36.4360 C   0  0  0  0  0  0  0  0  0  0  0  0
   44.0050   24.3050   36.8720 C   0  0  0  0  0  0  0  0  0  0  0  0
   44.0620   25.2300   35.6890 C   0  0  0  0  0  0  0  0  0  0  0  0
   42.6770   25.1260   35.1150 C   0  0  0  0  0  0  0  0  0  0  0  0
   38.5530   22.8160   35.6990 O   0  0  0  0  0  0  0  0  0  0  0  0
   35.6490   20.8450   35.3980 C   0  0  0  0  0  0  0  0  0  0  0  0
   35.6850   20.3640   34.0630 C   0  0  0  0  0  0  0  0  0  0  0  0
   36.7840   20.7660   33.2700 C   0  0  0  0  0  0  0  0  0  0  0  0
   37.6860   21.5640   33.8610 N   0  0  0  0  0  0  0  0  0  0  0  0
   37.6060   21.9970   35.1410 C   0  0  0  0  0  0  0  0  0  0  0  0
   36.6010   21.6430   35.9030 N   0  0  0  0  0  0  0  0  0  0  0  0
   36.9370   20.3360   31.8770 C   0  0  0  0  0  0  0  0  0  0  0  0
   36.0420   19.4120   31.3440 C   0  0  0  0  0  0  0  0  0  0  0  0
   36.6490   19.1970   29.5760 S   0  0  0  0  0  0  0  0  0  0  0  0
   38.0350   20.4430   29.9350 C   0  0  0  0  0  0  0  0  0  0  0  0
   37.8490   20.7180   31.0070 N   0  0  0  0  0  0  0  0  0  0  0  0
   39.5934   22.7077   34.0972 H   0  0  0  0  0  0  0  0  0  0  0  0
   40.2927   25.4740   34.5224 H   0  0  0  0  0  0  0  0  0  0  0  0
   39.3299   25.6138   35.7344 H   0  0  0  0  0  0  0  0  0  0  0  0
   41.1606   23.4353   36.8628 H   0  0  0  0  0  0  0  0  0  0  0  0
   42.2541   23.0909   34.4661 H   0  0  0  0  0  0  0  0  0  0  0  0
   42.5648   22.7462   37.2844 H   0  0  0  0  0  0  0  0  0  0  0  0
   43.7462   22.2998   36.0539 H   0  0  0  0  0  0  0  0  0  0  0  0
   43.5522   24.8139   37.7357 H   0  0  0  0  0  0  0  0  0  0  0  0
   45.0086   23.9776   37.1811 H   0  0  0  0  0  0  0  0  0  0  0  0
   44.2841   26.2607   36.0028 H   0  0  0  0  0  0  0  0  0  0  0  0
   44.8515   24.9672   34.9695 H   0  0  0  0  0  0  0  0  0  0  0  0
   42.6958   25.3290   34.0341 H   0  0  0  0  0  0  0  0  0  0  0  0
   41.9963   25.8579   35.5744 H   0  0  0  0  0  0  0  0  0  0  0  0
   34.8077   20.5518   36.0432 H   0  0  0  0  0  0  0  0  0  0  0  0
   34.8955   19.7098   33.6646 H   0  0  0  0  0  0  0  0  0  0  0  0
   35.1873   18.9257   31.8370 H   0  0  0  0  0  0  0  0  0  0  0  0
   38.8244   20.8055   29.2601 H   0  0  0  0  0  0  0  0  0  0  0  0
  1  2  1  0
  1  9  1  0
  1  3  1  0
  2  3  1  0
  4  3  1  0
  4  5  1  0
  5  6  1  0
  7  6  1  0
  8  4  1  0
  8  7  1  0
 10 15  2  0
 11 10  1  0
 12 13  1  0
 12 11  2  0
 13 14  2  0
 14  9  1  0
 14 15  1  0
 16 12  1  0
 17 16  2  0
 18 19  1  0
 18 17  1  0
 19 20  2  0
 20 16  1  0
  1 21  1  6
  2 22  1  0
  2 23  1  0
  3 24  1  1
  4 25  1  0
  5 26  1  0
  5 27  1  0
  6 28  1  0
  6 29  1  0
  7 30  1  0
  7 31  1  0
  8 32  1  0
  8 33  1  0
 10 34  1  0
 11 35  1  0
 17 36  1  0
 19 37  1  0
M  ISO  8  21  13  22  13  23  13  24  13  25  13  26  13  27  13  28  13
M  ISO  8  29  13  30  13  31  13  32  13  33  13  34  14  35  14  36  14
M  ISO  1  37  14
M  END
>  <minimizedAffinity>  (1) 
-4.35283041

>  <minimizedRMSD>  (1) 
0.484308332

$$$$
