
     RDKit          3D

 34 36  0  0  1  0  0  0  0  0999 V2000
   39.7380   23.2440   35.0440 C   0  0  1  0  0  0  0  0  0  0  0  0
   39.9650   24.7280   35.2600 C   0  0  0  0  0  0  0  0  0  0  0  0
   40.8740   23.7240   35.8740 C   0  0  2  0  0  0  0  0  0  0  0  0
   42.2700   23.6840   35.3890 C   0  0  0  0  0  0  0  0  0  0  0  0
   43.1960   23.1370   36.4590 C   0  0  0  0  0  0  0  0  0  0  0  0
   44.0460   24.2940   36.8920 C   0  0  0  0  0  0  0  0  0  0  0  0
   44.0390   25.3040   35.7780 C   0  0  0  0  0  0  0  0  0  0  0  0
   42.7230   25.0870   35.0860 C   0  0  0  0  0  0  0  0  0  0  0  0
   38.6070   22.7630   35.7730 O   0  0  0  0  0  0  0  0  0  0  0  0
   35.6890   20.8020   35.5370 C   0  0  0  0  0  0  0  0  0  0  0  0
   35.5280   20.5570   34.1590 C   0  0  0  0  0  0  0  0  0  0  0  0
   36.5030   21.1170   33.2990 C   0  0  0  0  0  0  0  0  0  0  0  0
   37.4990   21.8320   33.8490 N   0  0  0  0  0  0  0  0  0  0  0  0
   37.5920   22.0310   35.2080 C   0  0  0  0  0  0  0  0  0  0  0  0
   36.7080   21.5300   36.0580 N   0  0  0  0  0  0  0  0  0  0  0  0
   36.3870   20.8930   31.8360 C   0  0  0  0  0  0  0  0  0  0  0  0
   39.6513   22.5607   34.1863 H   0  0  0  0  0  0  0  0  0  0  0  0
   40.3187   25.3586   34.4310 H   0  0  0  0  0  0  0  0  0  0  0  0
   39.3580   25.5654   35.6345 H   0  0  0  0  0  0  0  0  0  0  0  0
   41.2111   23.4698   36.8897 H   0  0  0  0  0  0  0  0  0  0  0  0
   42.3053   23.0419   34.4966 H   0  0  0  0  0  0  0  0  0  0  0  0
   42.6139   22.7500   37.3084 H   0  0  0  0  0  0  0  0  0  0  0  0
   43.8069   22.3046   36.0797 H   0  0  0  0  0  0  0  0  0  0  0  0
   43.6319   24.7420   37.8073 H   0  0  0  0  0  0  0  0  0  0  0  0
   45.0724   23.9612   37.1058 H   0  0  0  0  0  0  0  0  0  0  0  0
   44.1042   26.3263   36.1789 H   0  0  0  0  0  0  0  0  0  0  0  0
   44.8953   25.1845   35.0980 H   0  0  0  0  0  0  0  0  0  0  0  0
   42.8456   25.2144   34.0003 H   0  0  0  0  0  0  0  0  0  0  0  0
   41.9785   25.8159   35.4387 H   0  0  0  0  0  0  0  0  0  0  0  0
   34.9464   20.3790   36.2295 H   0  0  0  0  0  0  0  0  0  0  0  0
   34.6883   19.9615   33.7715 H   0  0  0  0  0  0  0  0  0  0  0  0
   35.8884   19.9301   31.6509 H   0  0  0  0  0  0  0  0  0  0  0  0
   35.7958   21.7045   31.3866 H   0  0  0  0  0  0  0  0  0  0  0  0
   37.3909   20.8784   31.3866 H   0  0  0  0  0  0  0  0  0  0  0  0
  1  2  1  0
  1  9  1  0
  1  3  1  0
  2  3  1  0
  4  3  1  0
  4  5  1  0
  5  6  1  0
  7  6  1  0
  8  4  1  0
  8  7  1  0
 10 15  2  0
 11 10  1  0
 12 13  1  0
 12 11  2  0
 13 14  2  0
 14  9  1  0
 14 15  1  0
 16 12  1  0
  1 17  1  6
  2 18  1  0
  2 19  1  0
  3 20  1  1
  4 21  1  0
  5 22  1  0
  5 23  1  0
  6 24  1  0
  6 25  1  0
  7 26  1  0
  7 27  1  0
  8 28  1  0
  8 29  1  0
 10 30  1  0
 11 31  1  0
 16 32  1  0
 16 33  1  0
 16 34  1  0
M  ISO  8  17  13  18  13  19  13  20  13  21  13  22  13  23  13  24  13
M  ISO  8  25  13  26  13  27  13  28  13  29  13  30  14  31  14  32   8
M  ISO  2  33   8  34   8
M  END
>  <minimizedAffinity>  (1) 
-4.11852551

>  <minimizedRMSD>  (1) 
0.10154815

$$$$
