
     RDKit          3D

 32 34  0  0  1  0  0  0  0  0999 V2000
   39.7530   23.2350   35.0560 C   0  0  1  0  0  0  0  0  0  0  0  0
   39.9760   24.7190   35.2610 C   0  0  0  0  0  0  0  0  0  0  0  0
   40.8880   23.7240   35.8930 C   0  0  2  0  0  0  0  0  0  0  0  0
   42.2820   23.6810   35.4020 C   0  0  0  0  0  0  0  0  0  0  0  0
   43.2190   23.1350   36.4610 C   0  0  0  0  0  0  0  0  0  0  0  0
   44.0570   24.3150   36.8940 C   0  0  0  0  0  0  0  0  0  0  0  0
   44.0580   25.2930   35.7550 C   0  0  0  0  0  0  0  0  0  0  0  0
   42.7280   25.0850   35.1000 C   0  0  0  0  0  0  0  0  0  0  0  0
   38.6230   22.7540   35.7940 O   0  0  0  0  0  0  0  0  0  0  0  0
   35.6840   20.8170   35.5470 C   0  0  0  0  0  0  0  0  0  0  0  0
   35.5490   20.5410   34.1740 C   0  0  0  0  0  0  0  0  0  0  0  0
   36.5470   21.0700   33.3230 C   0  0  0  0  0  0  0  0  0  0  0  0
   37.5330   21.7850   33.8830 N   0  0  0  0  0  0  0  0  0  0  0  0
   37.6040   22.0170   35.2390 C   0  0  0  0  0  0  0  0  0  0  0  0
   36.7030   21.5470   36.0680 N   0  0  0  0  0  0  0  0  0  0  0  0
   36.5240   20.8680   31.9650 O   0  0  0  0  0  0  0  0  0  0  0  0
   39.6690   22.5487   34.2005 H   0  0  0  0  0  0  0  0  0  0  0  0
   40.3330   25.3430   34.4284 H   0  0  0  0  0  0  0  0  0  0  0  0
   39.3635   25.5573   35.6244 H   0  0  0  0  0  0  0  0  0  0  0  0
   41.2208   23.4831   36.9134 H   0  0  0  0  0  0  0  0  0  0  0  0
   42.3121   23.0350   34.5122 H   0  0  0  0  0  0  0  0  0  0  0  0
   42.6482   22.7342   37.3117 H   0  0  0  0  0  0  0  0  0  0  0  0
   43.8373   22.3100   36.0774 H   0  0  0  0  0  0  0  0  0  0  0  0
   43.6208   24.7796   37.7906 H   0  0  0  0  0  0  0  0  0  0  0  0
   45.0812   23.9997   37.1420 H   0  0  0  0  0  0  0  0  0  0  0  0
   44.1549   26.3244   36.1250 H   0  0  0  0  0  0  0  0  0  0  0  0
   44.8998   25.1383   35.0640 H   0  0  0  0  0  0  0  0  0  0  0  0
   42.8207   25.2225   34.0126 H   0  0  0  0  0  0  0  0  0  0  0  0
   41.9946   25.8115   35.4799 H   0  0  0  0  0  0  0  0  0  0  0  0
   34.9231   20.4200   36.2351 H   0  0  0  0  0  0  0  0  0  0  0  0
   34.7112   19.9450   33.7830 H   0  0  0  0  0  0  0  0  0  0  0  0
   35.7940   20.3393   31.5555 H   0  0  0  0  0  0  0  0  0  0  0  0
  1  2  1  0
  1  9  1  0
  1  3  1  0
  2  3  1  0
  4  3  1  0
  4  5  1  0
  5  6  1  0
  7  6  1  0
  8  4  1  0
  8  7  1  0
 10 15  2  0
 11 10  1  0
 12 13  1  0
 12 11  2  0
 13 14  2  0
 14  9  1  0
 14 15  1  0
 16 12  1  0
  1 17  1  6
  2 18  1  0
  2 19  1  0
  3 20  1  1
  4 21  1  0
  5 22  1  0
  5 23  1  0
  6 24  1  0
  6 25  1  0
  7 26  1  0
  7 27  1  0
  8 28  1  0
  8 29  1  0
 10 30  1  0
 11 31  1  0
 16 32  1  0
M  ISO  8  17  13  18  13  19  13  20  13  21  13  22  13  23  13  24  13
M  ISO  8  25  13  26  13  27  13  28  13  29  13  30  14  31  14  32   3
M  END
>  <minimizedAffinity>  (1) 
-4.04750681

>  <minimizedRMSD>  (1) 
0.0769506171

$$$$
