
     RDKit          3D

 48 52  0  0  1  0  0  0  0  0999 V2000
   38.1870   22.7640   36.1820 C   0  0  0  0  0  0  0  0  0  0  0  0
   37.7150   22.0920   35.0430 C   0  0  0  0  0  0  0  0  0  0  0  0
   38.4950   22.1700   33.8710 C   0  0  0  0  0  0  0  0  0  0  0  0
   39.6270   22.8810   33.9520 N   0  0  0  0  0  0  0  0  0  0  0  0
   40.0500   23.5190   35.0900 C   0  0  0  0  0  0  0  0  0  0  0  0
   39.3490   23.4710   36.1940 N   0  0  0  0  0  0  0  0  0  0  0  0
   38.0860   21.5110   32.6960 N   0  0  0  0  0  0  0  0  0  0  0  0
   38.3590   20.2430   32.3870 N   0  0  0  0  0  0  0  0  0  0  0  0
   37.7640   19.9120   31.2110 C   0  0  0  0  0  0  0  0  0  0  0  0
   37.0970   21.0670   30.8000 C   0  0  0  0  0  0  0  0  0  0  0  0
   37.3180   22.0600   31.7510 C   0  0  0  0  0  0  0  0  0  0  0  0
   36.7390   23.3320   31.4690 C   0  0  0  0  0  0  0  0  0  0  0  0
   37.6100   24.4130   31.2660 C   0  0  0  0  0  0  0  0  0  0  0  0
   37.2580   25.7470   31.0350 C   0  0  0  0  0  0  0  0  0  0  0  0
   35.9100   26.0080   31.0080 C   0  0  0  0  0  0  0  0  0  0  0  0
   34.9650   25.0240   31.1940 C   0  0  0  0  0  0  0  0  0  0  0  0
   35.3920   23.7370   31.4160 C   0  0  0  0  0  0  0  0  0  0  0  0
   41.2270   24.2340   35.1300 O   0  0  0  0  0  0  0  0  0  0  0  0
   42.4560   23.7150   35.6440 C   0  0  1  0  0  0  0  0  0  0  0  0
   43.6220   24.1800   34.7960 C   0  0  0  0  0  0  0  0  0  0  0  0
   43.4250   24.7030   36.1690 C   0  0  2  0  0  0  0  0  0  0  0  0
   44.4400   24.3560   37.1730 C   0  0  0  0  0  0  0  0  0  0  0  0
   44.8640   25.5650   37.9780 C   0  0  0  0  0  0  0  0  0  0  0  0
   46.2830   25.8500   37.5520 C   0  0  0  0  0  0  0  0  0  0  0  0
   46.8580   24.5660   37.0480 C   0  0  0  0  0  0  0  0  0  0  0  0
   45.6790   23.8670   36.4620 C   0  0  0  0  0  0  0  0  0  0  0  0
   37.5908   22.7166   37.1052 H   0  0  0  0  0  0  0  0  0  0  0  0
   36.7721   21.5259   35.0643 H   0  0  0  0  0  0  0  0  0  0  0  0
   37.8003   18.9418   30.6939 H   0  0  0  0  0  0  0  0  0  0  0  0
   36.4995   21.1745   29.8827 H   0  0  0  0  0  0  0  0  0  0  0  0
   38.6863   24.1871   31.2912 H   0  0  0  0  0  0  0  0  0  0  0  0
   38.0110   26.5347   30.8849 H   0  0  0  0  0  0  0  0  0  0  0  0
   35.5731   27.0402   30.8315 H   0  0  0  0  0  0  0  0  0  0  0  0
   33.8917   25.2630   31.1655 H   0  0  0  0  0  0  0  0  0  0  0  0
   34.6228   22.9646   31.5635 H   0  0  0  0  0  0  0  0  0  0  0  0
   42.0572   22.7705   36.0427 H   0  0  0  0  0  0  0  0  0  0  0  0
   44.4555   23.4954   34.5801 H   0  0  0  0  0  0  0  0  0  0  0  0
   43.7342   24.6265   33.7970 H   0  0  0  0  0  0  0  0  0  0  0  0
   43.2923   25.6891   36.6380 H   0  0  0  0  0  0  0  0  0  0  0  0
   44.0022   23.5964   37.8374 H   0  0  0  0  0  0  0  0  0  0  0  0
   44.2146   26.4241   37.7538 H   0  0  0  0  0  0  0  0  0  0  0  0
   44.7896   25.3834   39.0603 H   0  0  0  0  0  0  0  0  0  0  0  0
   46.2923   26.6065   36.7535 H   0  0  0  0  0  0  0  0  0  0  0  0
   46.8736   26.2389   38.3946 H   0  0  0  0  0  0  0  0  0  0  0  0
   47.6259   24.7520   36.2827 H   0  0  0  0  0  0  0  0  0  0  0  0
   47.3576   23.9809   37.8342 H   0  0  0  0  0  0  0  0  0  0  0  0
   45.6067   24.0948   35.3883 H   0  0  0  0  0  0  0  0  0  0  0  0
   45.7828   22.7787   36.5840 H   0  0  0  0  0  0  0  0  0  0  0  0
  1  6  2  0
  2  1  1  0
  3  4  1  0
  3  2  2  0
  4  5  2  0
  5 18  1  0
  5  6  1  0
  7  3  1  0
  8  7  1  0
  9  8  2  0
 10  9  1  0
 10 11  2  0
 11  7  1  0
 12 11  1  0
 13 12  2  0
 14 13  1  0
 15 14  2  0
 15 16  1  0
 16 17  2  0
 17 12  1  0
 18 19  1  0
 19 21  1  0
 20 19  1  0
 20 21  1  0
 21 22  1  0
 22 23  1  0
 24 23  1  0
 25 24  1  0
 26 25  1  0
 26 22  1  0
  1 27  1  0
  2 28  1  0
  9 29  1  0
 10 30  1  0
 13 31  1  0
 14 32  1  0
 15 33  1  0
 16 34  1  0
 17 35  1  0
 19 36  1  1
 20 37  1  0
 20 38  1  0
 21 39  1  6
 22 40  1  0
 23 41  1  0
 23 42  1  0
 24 43  1  0
 24 44  1  0
 25 45  1  0
 25 46  1  0
 26 47  1  0
 26 48  1  0
M  ISO  8  27  14  28  14  29  14  30  14  31  14  32  14  33  14  34  14
M  ISO  8  35  14  36  13  37  13  38  13  39  13  40  13  41  13  42  13
M  ISO  6  43  13  44  13  45  13  46  13  47  13  48  13
M  END
>  <minimizedAffinity>  (1) 
-5.52956676

>  <minimizedRMSD>  (1) 
3.96807313

$$$$
