
     RDKit          3D

 45 49  0  0  1  0  0  0  0  0999 V2000
   42.4780   23.7090   35.4880 C   0  0  1  0  0  0  0  0  0  0  0  0
   43.6670   24.2450   34.7180 C   0  0  0  0  0  0  0  0  0  0  0  0
   43.3820   24.7020   36.1050 C   0  0  2  0  0  0  0  0  0  0  0  0
   44.3690   24.3280   37.1320 C   0  0  0  0  0  0  0  0  0  0  0  0
   44.8010   25.5400   37.9340 C   0  0  0  0  0  0  0  0  0  0  0  0
   46.2380   25.7890   37.5320 C   0  0  0  0  0  0  0  0  0  0  0  0
   46.7900   24.4860   37.0600 C   0  0  0  0  0  0  0  0  0  0  0  0
   45.6130   23.8060   36.4570 C   0  0  0  0  0  0  0  0  0  0  0  0
   41.2580   24.2120   34.9350 O   0  0  0  0  0  0  0  0  0  0  0  0
   38.3150   22.8620   36.3650 C   0  0  0  0  0  0  0  0  0  0  0  0
   37.6370   22.2550   35.2910 C   0  0  0  0  0  0  0  0  0  0  0  0
   38.2660   22.3510   34.0160 C   0  0  0  0  0  0  0  0  0  0  0  0
   39.4420   22.9980   33.9390 N   0  0  0  0  0  0  0  0  0  0  0  0
   40.0490   23.5630   35.0410 C   0  0  0  0  0  0  0  0  0  0  0  0
   39.5100   23.5070   36.2340 N   0  0  0  0  0  0  0  0  0  0  0  0
   37.6440   21.7760   32.8940 N   0  0  0  0  0  0  0  0  0  0  0  0
   37.7170   20.4900   32.5530 N   0  0  0  0  0  0  0  0  0  0  0  0
   36.9280   20.2580   31.4660 C   0  0  0  0  0  0  0  0  0  0  0  0
   36.3600   21.4720   31.1460 C   0  0  0  0  0  0  0  0  0  0  0  0
   36.8340   22.3960   32.0520 C   0  0  0  0  0  0  0  0  0  0  0  0
   36.4110   23.7480   31.8050 C   0  0  0  0  0  0  0  0  0  0  0  0
   35.3690   24.1990   31.0780 C   0  0  0  0  0  0  0  0  0  0  0  0
   35.0590   25.5100   30.9530 C   0  0  0  0  0  0  0  0  0  0  0  0
   35.8910   26.4320   31.6350 C   0  0  0  0  0  0  0  0  0  0  0  0
   37.1250   25.4120   32.4580 S   0  0  0  0  0  0  0  0  0  0  0  0
   42.0934   22.7353   35.8255 H   0  0  0  0  0  0  0  0  0  0  0  0
   44.5327   23.5970   34.5163 H   0  0  0  0  0  0  0  0  0  0  0  0
   43.8137   24.7370   33.7452 H   0  0  0  0  0  0  0  0  0  0  0  0
   43.1879   25.6591   36.6113 H   0  0  0  0  0  0  0  0  0  0  0  0
   43.9023   23.5768   37.7861 H   0  0  0  0  0  0  0  0  0  0  0  0
   44.1748   26.4098   37.6864 H   0  0  0  0  0  0  0  0  0  0  0  0
   44.6994   25.3745   39.0167 H   0  0  0  0  0  0  0  0  0  0  0  0
   46.2806   26.5328   36.7227 H   0  0  0  0  0  0  0  0  0  0  0  0
   46.8211   26.1789   38.3793 H   0  0  0  0  0  0  0  0  0  0  0  0
   47.5799   24.6424   36.3106 H   0  0  0  0  0  0  0  0  0  0  0  0
   47.2547   23.9009   37.8673 H   0  0  0  0  0  0  0  0  0  0  0  0
   45.5702   24.0219   35.3792 H   0  0  0  0  0  0  0  0  0  0  0  0
   45.6915   22.7175   36.5951 H   0  0  0  0  0  0  0  0  0  0  0  0
   37.8565   22.8137   37.3637 H   0  0  0  0  0  0  0  0  0  0  0  0
   36.6767   21.7363   35.4281 H   0  0  0  0  0  0  0  0  0  0  0  0
   36.7759   19.2985   30.9501 H   0  0  0  0  0  0  0  0  0  0  0  0
   35.6589   21.6672   30.3211 H   0  0  0  0  0  0  0  0  0  0  0  0
   34.7378   23.4624   30.5593 H   0  0  0  0  0  0  0  0  0  0  0  0
   34.2016   25.8443   30.3504 H   0  0  0  0  0  0  0  0  0  0  0  0
   35.8025   27.5282   31.6568 H   0  0  0  0  0  0  0  0  0  0  0  0
  1  3  1  0
  2  1  1  0
  2  3  1  0
  3  4  1  0
  4  5  1  0
  6  5  1  0
  7  6  1  0
  8  7  1  0
  8  4  1  0
  9 14  1  0
  9  1  1  0
 11 10  2  0
 12 11  1  0
 13 12  2  0
 13 14  1  0
 14 15  2  0
 15 10  1  0
 16 12  1  0
 17 16  1  0
 18 17  2  0
 19 18  1  0
 19 20  2  0
 20 16  1  0
 21 20  1  0
 21 25  1  0
 22 21  2  0
 23 22  1  0
 23 24  2  0
 24 25  1  0
  1 26  1  1
  2 27  1  0
  2 28  1  0
  3 29  1  6
  4 30  1  0
  5 31  1  0
  5 32  1  0
  6 33  1  0
  6 34  1  0
  7 35  1  0
  7 36  1  0
  8 37  1  0
  8 38  1  0
 10 39  1  0
 11 40  1  0
 18 41  1  0
 19 42  1  0
 22 43  1  0
 23 44  1  0
 24 45  1  0
M  ISO  8  26  13  27  13  28  13  29  13  30  13  31  13  32  13  33  13
M  ISO  8  34  13  35  13  36  13  37  13  38  13  39  14  40  14  41  14
M  ISO  4  42  14  43  14  44  14  45  14
M  END
>  <minimizedAffinity>  (1) 
-5.502563

>  <minimizedRMSD>  (1) 
3.85637856

$$$$
