
     RDKit          3D

 54 58  0  0  1  0  0  0  0  0999 V2000
   41.4710   22.7280   37.3050 O   0  0  0  0  0  0  0  0  0  0  0  0
   38.0370   23.1450   38.0020 C   0  0  0  0  0  0  0  0  0  0  0  0
   37.4180   23.0290   36.7500 C   0  0  0  0  0  0  0  0  0  0  0  0
   38.2410   22.7950   35.6400 C   0  0  0  0  0  0  0  0  0  0  0  0
   39.5600   22.7000   35.8670 N   0  0  0  0  0  0  0  0  0  0  0  0
   40.1250   22.8220   37.1090 C   0  0  0  0  0  0  0  0  0  0  0  0
   39.3880   23.0420   38.1750 N   0  0  0  0  0  0  0  0  0  0  0  0
   37.6710   22.6890   34.3610 N   0  0  0  0  0  0  0  0  0  0  0  0
   37.0960   21.6230   33.8650 N   0  0  0  0  0  0  0  0  0  0  0  0
   36.6400   21.8430   32.5970 C   0  0  0  0  0  0  0  0  0  0  0  0
   36.9870   23.1560   32.3420 C   0  0  0  0  0  0  0  0  0  0  0  0
   37.6200   23.6430   33.4500 C   0  0  0  0  0  0  0  0  0  0  0  0
   38.0900   25.0230   33.3020 C   0  0  0  0  0  0  0  0  0  0  0  0
   39.6030   25.1330   33.5070 C   0  0  0  0  0  0  0  0  0  0  0  0
   39.9240   26.6110   33.5720 C   0  0  0  0  0  0  0  0  0  0  0  0
   39.5450   27.1910   34.9140 C   0  0  0  0  0  0  0  0  0  0  0  0
   38.5010   26.2200   35.4900 C   0  0  0  0  0  0  0  0  0  0  0  0
   37.5120   25.9540   34.3880 C   0  0  0  0  0  0  0  0  0  0  0  0
   42.4320   22.8370   36.2610 C   0  0  1  0  0  0  0  0  0  0  0  0
   43.4650   23.9290   36.5210 C   0  0  0  0  0  0  0  0  0  0  0  0
   43.8220   22.4920   36.6220 C   0  0  2  0  0  0  0  0  0  0  0  0
   44.7840   21.9790   35.6280 C   0  0  0  0  0  0  0  0  0  0  0  0
   44.8380   20.4520   35.6780 C   0  0  0  0  0  0  0  0  0  0  0  0
   46.2100   20.1430   36.2460 C   0  0  0  0  0  0  0  0  0  0  0  0
   47.0910   21.3070   35.9500 C   0  0  0  0  0  0  0  0  0  0  0  0
   46.1580   22.4690   35.9940 C   0  0  0  0  0  0  0  0  0  0  0  0
   37.4066   23.3271   38.8849 H   0  0  0  0  0  0  0  0  0  0  0  0
   36.3269   23.1183   36.6425 H   0  0  0  0  0  0  0  0  0  0  0  0
   36.1177   21.1387   31.9328 H   0  0  0  0  0  0  0  0  0  0  0  0
   36.7888   23.7101   31.4126 H   0  0  0  0  0  0  0  0  0  0  0  0
   37.7737   25.3107   32.2885 H   0  0  0  0  0  0  0  0  0  0  0  0
   39.8958   24.6393   34.4454 H   0  0  0  0  0  0  0  0  0  0  0  0
   40.1510   24.6435   32.6884 H   0  0  0  0  0  0  0  0  0  0  0  0
   41.0031   26.7517   33.4116 H   0  0  0  0  0  0  0  0  0  0  0  0
   39.3465   27.1287   32.7919 H   0  0  0  0  0  0  0  0  0  0  0  0
   40.4244   27.2476   35.5724 H   0  0  0  0  0  0  0  0  0  0  0  0
   39.1508   28.2140   34.8242 H   0  0  0  0  0  0  0  0  0  0  0  0
   38.9848   25.2824   35.8010 H   0  0  0  0  0  0  0  0  0  0  0  0
   38.0059   26.6469   36.3747 H   0  0  0  0  0  0  0  0  0  0  0  0
   37.2331   26.9111   33.9230 H   0  0  0  0  0  0  0  0  0  0  0  0
   36.6371   25.4556   34.8309 H   0  0  0  0  0  0  0  0  0  0  0  0
   41.7586   22.5473   35.4409 H   0  0  0  0  0  0  0  0  0  0  0  0
   43.8486   24.5374   35.6887 H   0  0  0  0  0  0  0  0  0  0  0  0
   43.5329   24.8033   37.1850 H   0  0  0  0  0  0  0  0  0  0  0  0
   44.2357   21.8247   37.3924 H   0  0  0  0  0  0  0  0  0  0  0  0
   44.4721   22.3208   34.6301 H   0  0  0  0  0  0  0  0  0  0  0  0
   44.0474   20.0555   36.3320 H   0  0  0  0  0  0  0  0  0  0  0  0
   44.6793   19.9937   34.6907 H   0  0  0  0  0  0  0  0  0  0  0  0
   46.1407   19.9916   37.3333 H   0  0  0  0  0  0  0  0  0  0  0  0
   46.6172   19.2254   35.7964 H   0  0  0  0  0  0  0  0  0  0  0  0
   47.5509   21.2093   34.9555 H   0  0  0  0  0  0  0  0  0  0  0  0
   47.9278   21.4021   36.6576 H   0  0  0  0  0  0  0  0  0  0  0  0
   46.4838   23.2361   35.2761 H   0  0  0  0  0  0  0  0  0  0  0  0
   46.1489   22.9125   37.0006 H   0  0  0  0  0  0  0  0  0  0  0  0
  2  7  2  0
  3  2  1  0
  4  5  1  0
  4  3  2  0
  5  6  2  0
  6  1  1  0
  6  7  1  0
  8  4  1  0
  9  8  1  0
 10  9  2  0
 11 10  1  0
 11 12  2  0
 12  8  1  0
 13 12  1  0
 13 14  1  0
 13 18  1  0
 14 15  1  0
 15 16  1  0
 16 17  1  0
 18 17  1  0
 19 20  1  0
 19 21  1  0
 19  1  1  0
 20 21  1  0
 22 23  1  0
 22 26  1  0
 22 21  1  0
 23 24  1  0
 25 26  1  0
 25 24  1  0
  2 27  1  0
  3 28  1  0
 10 29  1  0
 11 30  1  0
 13 31  1  0
 14 32  1  0
 14 33  1  0
 15 34  1  0
 15 35  1  0
 16 36  1  0
 16 37  1  0
 17 38  1  0
 17 39  1  0
 18 40  1  0
 18 41  1  0
 19 42  1  6
 20 43  1  0
 20 44  1  0
 21 45  1  1
 22 46  1  0
 23 47  1  0
 23 48  1  0
 24 49  1  0
 24 50  1  0
 25 51  1  0
 25 52  1  0
 26 53  1  0
 26 54  1  0
M  ISO  8  27  14  28  14  29  14  30  14  31  13  32  13  33  13  34  13
M  ISO  8  35  13  36  13  37  13  38  13  39  13  40  13  41  13  42  13
M  ISO  8  43  13  44  13  45  13  46  13  47  13  48  13  49  13  50  13
M  ISO  4  51  13  52  13  53  13  54  13
M  END
>  <minimizedAffinity>  (1) 
-5.12916851

>  <minimizedRMSD>  (1) 
5.56294346

$$$$
