
     RDKit          3D

 44 47  0  0  1  0  0  0  0  0999 V2000
   39.8020   23.3380   35.2100 C   0  0  1  0  0  0  0  0  0  0  0  0
   40.0440   24.8420   35.1790 C   0  0  0  0  0  0  0  0  0  0  0  0
   40.9550   23.9260   35.9250 C   0  0  2  0  0  0  0  0  0  0  0  0
   42.3330   23.8230   35.4140 C   0  0  0  0  0  0  0  0  0  0  0  0
   43.2430   23.1880   36.4600 C   0  0  0  0  0  0  0  0  0  0  0  0
   44.1570   24.3040   36.9100 C   0  0  0  0  0  0  0  0  0  0  0  0
   44.1960   25.3240   35.8320 C   0  0  0  0  0  0  0  0  0  0  0  0
   42.8750   25.1990   35.1610 C   0  0  0  0  0  0  0  0  0  0  0  0
   38.6560   23.0190   35.9780 O   0  0  0  0  0  0  0  0  0  0  0  0
   35.7060   21.0770   36.0180 C   0  0  0  0  0  0  0  0  0  0  0  0
   35.5910   20.5830   34.7030 C   0  0  0  0  0  0  0  0  0  0  0  0
   36.5930   20.9610   33.7930 C   0  0  0  0  0  0  0  0  0  0  0  0
   37.5740   21.7560   34.2490 N   0  0  0  0  0  0  0  0  0  0  0  0
   37.6420   22.2090   35.5400 C   0  0  0  0  0  0  0  0  0  0  0  0
   36.7300   21.8860   36.4270 N   0  0  0  0  0  0  0  0  0  0  0  0
   36.5420   20.5130   32.4600 N   0  0  0  0  0  0  0  0  0  0  0  0
   37.0070   21.1520   31.4050 N   0  0  0  0  0  0  0  0  0  0  0  0
   36.7840   20.4350   30.2620 C   0  0  0  0  0  0  0  0  0  0  0  0
   36.1410   19.2940   30.6860 C   0  0  0  0  0  0  0  0  0  0  0  0
   36.0070   19.3770   32.0500 C   0  0  0  0  0  0  0  0  0  0  0  0
   35.3030   18.2430   32.6600 C   0  0  0  0  0  0  0  0  0  0  0  0
   35.8250   16.8820   32.2500 C   0  0  0  0  0  0  0  0  0  0  0  0
   39.7097   22.5099   34.4918 H   0  0  0  0  0  0  0  0  0  0  0  0
   40.3850   25.3288   34.2534 H   0  0  0  0  0  0  0  0  0  0  0  0
   39.4552   25.7374   35.4271 H   0  0  0  0  0  0  0  0  0  0  0  0
   41.3091   23.8121   36.9602 H   0  0  0  0  0  0  0  0  0  0  0  0
   42.3089   23.2170   34.4963 H   0  0  0  0  0  0  0  0  0  0  0  0
   42.6526   22.8065   37.3061 H   0  0  0  0  0  0  0  0  0  0  0  0
   43.8031   22.3317   36.0562 H   0  0  0  0  0  0  0  0  0  0  0  0
   43.7699   24.7537   37.8363 H   0  0  0  0  0  0  0  0  0  0  0  0
   45.1672   23.9161   37.1074 H   0  0  0  0  0  0  0  0  0  0  0  0
   44.3253   26.3318   36.2534 H   0  0  0  0  0  0  0  0  0  0  0  0
   45.0361   25.1711   35.1385 H   0  0  0  0  0  0  0  0  0  0  0  0
   42.9936   25.3565   34.0788 H   0  0  0  0  0  0  0  0  0  0  0  0
   42.1805   25.9535   35.5590 H   0  0  0  0  0  0  0  0  0  0  0  0
   34.9346   20.7983   36.7510 H   0  0  0  0  0  0  0  0  0  0  0  0
   34.7563   19.9323   34.4031 H   0  0  0  0  0  0  0  0  0  0  0  0
   37.0577   20.7091   29.2325 H   0  0  0  0  0  0  0  0  0  0  0  0
   35.7971   18.4664   30.0482 H   0  0  0  0  0  0  0  0  0  0  0  0
   35.3941   18.3304   33.7527 H   0  0  0  0  0  0  0  0  0  0  0  0
   34.2623   18.2965   32.3079 H   0  0  0  0  0  0  0  0  0  0  0  0
   36.0520   16.2903   33.1491 H   0  0  0  0  0  0  0  0  0  0  0  0
   35.0625   16.3619   31.6515 H   0  0  0  0  0  0  0  0  0  0  0  0
   36.7397   17.0052   31.6515 H   0  0  0  0  0  0  0  0  0  0  0  0
  1  3  1  0
  1  9  1  0
  2  1  1  0
  2  3  1  0
  4  3  1  0
  4  5  1  0
  5  6  1  0
  7  6  1  0
  8  4  1  0
  8  7  1  0
 10 15  2  0
 11 10  1  0
 12 13  1  0
 12 11  2  0
 13 14  2  0
 14  9  1  0
 14 15  1  0
 16 12  1  0
 17 16  1  0
 18 19  1  0
 18 17  2  0
 19 20  2  0
 20 16  1  0
 20 21  1  0
 22 21  1  0
  1 23  1  6
  2 24  1  0
  2 25  1  0
  3 26  1  1
  4 27  1  0
  5 28  1  0
  5 29  1  0
  6 30  1  0
  6 31  1  0
  7 32  1  0
  7 33  1  0
  8 34  1  0
  8 35  1  0
 10 36  1  0
 11 37  1  0
 18 38  1  0
 19 39  1  0
 21 40  1  0
 21 41  1  0
 22 42  1  0
 22 43  1  0
 22 44  1  0
M  ISO  8  23  13  24  13  25  13  26  13  27  13  28  13  29  13  30  13
M  ISO  8  31  13  32  13  33  13  34  13  35  13  36  14  37  14  38  14
M  ISO  6  39  14  40   8  41   8  42   8  43   8  44   8
M  END
>  <minimizedAffinity>  (1) 
-4.93043184

>  <minimizedRMSD>  (1) 
0.728791475

$$$$
