
     RDKit          3D

 39 42  0  0  1  0  0  0  0  0999 V2000
   39.7190   23.2620   35.0440 C   0  0  1  0  0  0  0  0  0  0  0  0
   39.9680   24.7380   35.2890 C   0  0  0  0  0  0  0  0  0  0  0  0
   40.8620   23.7150   35.8780 C   0  0  2  0  0  0  0  0  0  0  0  0
   42.2490   23.6740   35.3930 C   0  0  0  0  0  0  0  0  0  0  0  0
   43.1830   23.1310   36.4650 C   0  0  0  0  0  0  0  0  0  0  0  0
   44.0350   24.3130   36.8710 C   0  0  0  0  0  0  0  0  0  0  0  0
   44.0500   25.2670   35.7110 C   0  0  0  0  0  0  0  0  0  0  0  0
   42.6920   25.0930   35.1250 C   0  0  0  0  0  0  0  0  0  0  0  0
   38.5620   22.8110   35.7600 O   0  0  0  0  0  0  0  0  0  0  0  0
   35.6430   20.8450   35.4710 C   0  0  0  0  0  0  0  0  0  0  0  0
   35.6570   20.3920   34.1410 C   0  0  0  0  0  0  0  0  0  0  0  0
   36.7300   20.7970   33.3320 C   0  0  0  0  0  0  0  0  0  0  0  0
   37.6570   21.5840   33.8920 N   0  0  0  0  0  0  0  0  0  0  0  0
   37.5980   22.0020   35.2040 C   0  0  0  0  0  0  0  0  0  0  0  0
   36.6100   21.6440   35.9890 N   0  0  0  0  0  0  0  0  0  0  0  0
   36.8090   20.3820   31.9850 N   0  0  0  0  0  0  0  0  0  0  0  0
   37.7900   20.6640   31.1380 N   0  0  0  0  0  0  0  0  0  0  0  0
   37.5360   20.0990   29.9260 C   0  0  0  0  0  0  0  0  0  0  0  0
   36.3230   19.4390   30.0710 C   0  0  0  0  0  0  0  0  0  0  0  0
   35.8980   19.6350   31.3650 C   0  0  0  0  0  0  0  0  0  0  0  0
   34.7000   19.0700   31.7530 O   0  0  0  0  0  0  0  0  0  0  0  0
   39.6300   22.5833   34.1829 H   0  0  0  0  0  0  0  0  0  0  0  0
   40.3276   25.3799   34.4713 H   0  0  0  0  0  0  0  0  0  0  0  0
   39.3736   25.5759   35.6823 H   0  0  0  0  0  0  0  0  0  0  0  0
   41.1982   23.4347   36.8871 H   0  0  0  0  0  0  0  0  0  0  0  0
   42.2873   23.0361   34.4977 H   0  0  0  0  0  0  0  0  0  0  0  0
   42.6089   22.7540   37.3242 H   0  0  0  0  0  0  0  0  0  0  0  0
   43.7889   22.2888   36.0996 H   0  0  0  0  0  0  0  0  0  0  0  0
   43.6034   24.8026   37.7564 H   0  0  0  0  0  0  0  0  0  0  0  0
   45.0554   23.9906   37.1254 H   0  0  0  0  0  0  0  0  0  0  0  0
   44.2057   26.3016   36.0506 H   0  0  0  0  0  0  0  0  0  0  0  0
   44.8621   25.0707   34.9955 H   0  0  0  0  0  0  0  0  0  0  0  0
   42.7267   25.2752   34.0408 H   0  0  0  0  0  0  0  0  0  0  0  0
   41.9861   25.8063   35.5754 H   0  0  0  0  0  0  0  0  0  0  0  0
   34.8108   20.5382   36.1216 H   0  0  0  0  0  0  0  0  0  0  0  0
   34.8582   19.7452   33.7491 H   0  0  0  0  0  0  0  0  0  0  0  0
   38.1603   20.1537   29.0220 H   0  0  0  0  0  0  0  0  0  0  0  0
   35.7979   18.8646   29.2937 H   0  0  0  0  0  0  0  0  0  0  0  0
   34.3703   19.1951   32.6781 H   0  0  0  0  0  0  0  0  0  0  0  0
  1  2  1  0
  1  9  1  0
  1  3  1  0
  2  3  1  0
  4  3  1  0
  4  5  1  0
  5  6  1  0
  7  6  1  0
  8  4  1  0
  8  7  1  0
 10 15  2  0
 11 10  1  0
 12 13  1  0
 12 11  2  0
 13 14  2  0
 14  9  1  0
 14 15  1  0
 16 12  1  0
 17 16  1  0
 18 19  1  0
 18 17  2  0
 19 20  2  0
 20 21  1  0
 20 16  1  0
  1 22  1  6
  2 23  1  0
  2 24  1  0
  3 25  1  1
  4 26  1  0
  5 27  1  0
  5 28  1  0
  6 29  1  0
  6 30  1  0
  7 31  1  0
  7 32  1  0
  8 33  1  0
  8 34  1  0
 10 35  1  0
 11 36  1  0
 18 37  1  0
 19 38  1  0
 21 39  1  0
M  ISO  8  22  13  23  13  24  13  25  13  26  13  27  13  28  13  29  13
M  ISO  8  30  13  31  13  32  13  33  13  34  13  35  14  36  14  37  14
M  ISO  2  38  14  39   3
M  END
>  <minimizedAffinity>  (1) 
-4.92085123

>  <minimizedRMSD>  (1) 
0.117358431

$$$$
