
     RDKit          3D

 52 56  0  0  1  0  0  0  0  0999 V2000
   38.6260   22.6830   35.8410 O   0  0  0  0  0  0  0  0  0  0  0  0
   35.6140   20.8460   35.6020 C   0  0  0  0  0  0  0  0  0  0  0  0
   35.5700   20.4570   34.2630 C   0  0  0  0  0  0  0  0  0  0  0  0
   36.6120   20.8460   33.4140 C   0  0  0  0  0  0  0  0  0  0  0  0
   37.5840   21.5730   33.9800 N   0  0  0  0  0  0  0  0  0  0  0  0
   37.6000   21.9380   35.3000 C   0  0  0  0  0  0  0  0  0  0  0  0
   36.6270   21.5820   36.1070 N   0  0  0  0  0  0  0  0  0  0  0  0
   36.6140   20.5190   32.0470 N   0  0  0  0  0  0  0  0  0  0  0  0
   36.6190   21.3540   31.0400 N   0  0  0  0  0  0  0  0  0  0  0  0
   36.5780   20.6900   29.8620 C   0  0  0  0  0  0  0  0  0  0  0  0
   36.5470   19.3450   30.2110 C   0  0  0  0  0  0  0  0  0  0  0  0
   36.5710   19.2730   31.5790 C   0  0  0  0  0  0  0  0  0  0  0  0
   36.5450   17.9690   32.0910 N   0  0  0  0  0  0  0  0  0  0  0  0
   37.7570   17.1230   32.0830 C   0  0  0  0  0  0  0  0  0  0  0  0
   37.4940   16.0250   31.0990 C   0  0  0  0  0  0  0  0  0  0  0  0
   36.4360   15.1930   31.6400 N   0  0  0  0  0  0  0  0  0  0  0  0
   35.2250   15.9110   31.8930 C   0  0  0  0  0  0  0  0  0  0  0  0
   35.4420   17.1750   32.6690 C   0  0  0  0  0  0  0  0  0  0  0  0
   39.7610   23.1260   35.1040 C   0  0  1  0  0  0  0  0  0  0  0  0
   39.9400   24.6260   35.2490 C   0  0  0  0  0  0  0  0  0  0  0  0
   40.8880   23.6670   35.8970 C   0  0  2  0  0  0  0  0  0  0  0  0
   42.2780   23.6560   35.3940 C   0  0  0  0  0  0  0  0  0  0  0  0
   43.2380   23.1340   36.4490 C   0  0  0  0  0  0  0  0  0  0  0  0
   44.0610   24.3200   36.8720 C   0  0  0  0  0  0  0  0  0  0  0  0
   44.0390   25.2960   35.7290 C   0  0  0  0  0  0  0  0  0  0  0  0
   42.6970   25.0770   35.1090 C   0  0  0  0  0  0  0  0  0  0  0  0
   34.7944   20.5424   36.2699 H   0  0  0  0  0  0  0  0  0  0  0  0
   34.7316   19.8556   33.8817 H   0  0  0  0  0  0  0  0  0  0  0  0
   36.5708   21.1203   28.8497 H   0  0  0  0  0  0  0  0  0  0  0  0
   36.5099   18.4935   29.5156 H   0  0  0  0  0  0  0  0  0  0  0  0
   38.6316   17.7128   31.7714 H   0  0  0  0  0  0  0  0  0  0  0  0
   37.9717   16.7210   33.0841 H   0  0  0  0  0  0  0  0  0  0  0  0
   38.4049   15.4257   30.9539 H   0  0  0  0  0  0  0  0  0  0  0  0
   37.1966   16.4425   30.1257 H   0  0  0  0  0  0  0  0  0  0  0  0
   36.2351   14.4403   30.9662 H   0  0  0  0  0  0  0  0  0  0  0  0
   34.7620   16.1673   30.9287 H   0  0  0  0  0  0  0  0  0  0  0  0
   34.5786   15.2602   32.5002 H   0  0  0  0  0  0  0  0  0  0  0  0
   35.6897   16.9199   33.7099 H   0  0  0  0  0  0  0  0  0  0  0  0
   34.5203   17.7739   32.6275 H   0  0  0  0  0  0  0  0  0  0  0  0
   39.7028   22.3877   34.2906 H   0  0  0  0  0  0  0  0  0  0  0  0
   40.2656   25.2299   34.3892 H   0  0  0  0  0  0  0  0  0  0  0  0
   39.3123   25.4615   35.5924 H   0  0  0  0  0  0  0  0  0  0  0  0
   41.2423   23.4580   36.9172 H   0  0  0  0  0  0  0  0  0  0  0  0
   42.3103   23.0159   34.5000 H   0  0  0  0  0  0  0  0  0  0  0  0
   42.6817   22.7276   37.3065 H   0  0  0  0  0  0  0  0  0  0  0  0
   43.8677   22.3210   36.0586 H   0  0  0  0  0  0  0  0  0  0  0  0
   43.6264   24.7807   37.7714 H   0  0  0  0  0  0  0  0  0  0  0  0
   45.0911   24.0189   37.1131 H   0  0  0  0  0  0  0  0  0  0  0  0
   44.1404   26.3293   36.0923 H   0  0  0  0  0  0  0  0  0  0  0  0
   44.8676   25.1457   35.0213 H   0  0  0  0  0  0  0  0  0  0  0  0
   42.7571   25.2377   34.0225 H   0  0  0  0  0  0  0  0  0  0  0  0
   41.9636   25.7826   35.5263 H   0  0  0  0  0  0  0  0  0  0  0  0
  2  7  2  0
  3  2  1  0
  4  5  1  0
  4  3  2  0
  5  6  2  0
  6  1  1  0
  6  7  1  0
  8  4  1  0
  9  8  1  0
 10 11  1  0
 10  9  2  0
 11 12  2  0
 12  8  1  0
 12 13  1  0
 13 18  1  0
 14 13  1  0
 15 16  1  0
 15 14  1  0
 16 17  1  0
 17 18  1  0
 19 20  1  0
 19  1  1  0
 19 21  1  0
 20 21  1  0
 22 21  1  0
 22 23  1  0
 23 24  1  0
 25 24  1  0
 26 22  1  0
 26 25  1  0
  2 27  1  0
  3 28  1  0
 10 29  1  0
 11 30  1  0
 14 31  1  0
 14 32  1  0
 15 33  1  0
 15 34  1  0
 16 35  1  0
 17 36  1  0
 17 37  1  0
 18 38  1  0
 18 39  1  0
 19 40  1  6
 20 41  1  0
 20 42  1  0
 21 43  1  1
 22 44  1  0
 23 45  1  0
 23 46  1  0
 24 47  1  0
 24 48  1  0
 25 49  1  0
 25 50  1  0
 26 51  1  0
 26 52  1  0
M  ISO  8  27  14  28  14  29  14  30  14  31  13  32  13  33  13  34  13
M  ISO  8  35   5  36  13  37  13  38  13  39  13  40  13  41  13  42  13
M  ISO  8  43  13  44  13  45  13  46  13  47  13  48  13  49  13  50  13
M  ISO  2  51  13  52  13
M  END
>  <minimizedAffinity>  (1) 
-4.69575357

>  <minimizedRMSD>  (1) 
1.80410373

$$$$
