
     RDKit          3D

 43 47  0  0  1  0  0  0  0  0999 V2000
   38.6540   22.5720   35.8770 O   0  0  0  0  0  0  0  0  0  0  0  0
   35.6110   20.8310   35.5360 C   0  0  0  0  0  0  0  0  0  0  0  0
   35.5500   20.4850   34.1770 C   0  0  0  0  0  0  0  0  0  0  0  0
   36.6300   20.8880   33.3700 C   0  0  0  0  0  0  0  0  0  0  0  0
   37.6260   21.5660   33.9580 N   0  0  0  0  0  0  0  0  0  0  0  0
   37.6300   21.8760   35.2940 C   0  0  0  0  0  0  0  0  0  0  0  0
   36.6430   21.5210   36.0860 N   0  0  0  0  0  0  0  0  0  0  0  0
   36.6400   20.5850   31.9910 N   0  0  0  0  0  0  0  0  0  0  0  0
   36.7680   21.4480   31.0030 N   0  0  0  0  0  0  0  0  0  0  0  0
   36.7280   20.8150   29.7960 C   0  0  0  0  0  0  0  0  0  0  0  0
   36.5630   19.4730   30.1050 C   0  0  0  0  0  0  0  0  0  0  0  0
   36.5120   19.3690   31.4730 C   0  0  0  0  0  0  0  0  0  0  0  0
   36.3310   18.0460   31.9630 C   0  0  0  0  0  0  0  0  0  0  0  0
   37.2940   17.1160   32.0970 N   0  0  0  0  0  0  0  0  0  0  0  0
   36.7170   16.0310   32.5600 O   0  0  0  0  0  0  0  0  0  0  0  0
   35.4390   16.2050   32.7330 C   0  0  0  0  0  0  0  0  0  0  0  0
   35.1590   17.4670   32.3670 N   0  0  0  0  0  0  0  0  0  0  0  0
   39.7810   23.0650   35.1730 C   0  0  1  0  0  0  0  0  0  0  0  0
   39.9790   24.5570   35.4170 C   0  0  0  0  0  0  0  0  0  0  0  0
   40.9240   23.5490   35.9770 C   0  0  2  0  0  0  0  0  0  0  0  0
   42.2990   23.5840   35.4460 C   0  0  0  0  0  0  0  0  0  0  0  0
   43.2870   23.0940   36.5000 C   0  0  0  0  0  0  0  0  0  0  0  0
   44.0800   24.3240   36.8860 C   0  0  0  0  0  0  0  0  0  0  0  0
   44.0120   25.2780   35.7410 C   0  0  0  0  0  0  0  0  0  0  0  0
   42.6750   25.0080   35.1410 C   0  0  0  0  0  0  0  0  0  0  0  0
   34.7797   20.5274   36.1893 H   0  0  0  0  0  0  0  0  0  0  0  0
   34.6984   19.9254   33.7626 H   0  0  0  0  0  0  0  0  0  0  0  0
   36.8088   21.2687   28.7972 H   0  0  0  0  0  0  0  0  0  0  0  0
   36.4870   18.6441   29.3859 H   0  0  0  0  0  0  0  0  0  0  0  0
   34.7228   15.4592   33.1083 H   0  0  0  0  0  0  0  0  0  0  0  0
   39.7041   22.3805   34.3153 H   0  0  0  0  0  0  0  0  0  0  0  0
   40.2953   25.2152   34.5944 H   0  0  0  0  0  0  0  0  0  0  0  0
   39.3672   25.3734   35.8284 H   0  0  0  0  0  0  0  0  0  0  0  0
   41.2927   23.2592   36.9720 H   0  0  0  0  0  0  0  0  0  0  0  0
   42.3359   22.9479   34.5494 H   0  0  0  0  0  0  0  0  0  0  0  0
   42.7538   22.6871   37.3718 H   0  0  0  0  0  0  0  0  0  0  0  0
   43.9307   22.2858   36.1226 H   0  0  0  0  0  0  0  0  0  0  0  0
   43.6449   24.7846   37.7852 H   0  0  0  0  0  0  0  0  0  0  0  0
   45.1241   24.0583   37.1079 H   0  0  0  0  0  0  0  0  0  0  0  0
   44.0827   26.3183   36.0915 H   0  0  0  0  0  0  0  0  0  0  0  0
   44.8368   25.1470   35.0251 H   0  0  0  0  0  0  0  0  0  0  0  0
   42.7194   25.1558   34.0519 H   0  0  0  0  0  0  0  0  0  0  0  0
   41.9258   25.6958   35.5601 H   0  0  0  0  0  0  0  0  0  0  0  0
  2  7  2  0
  3  2  1  0
  4  5  1  0
  4  3  2  0
  5  6  2  0
  6  1  1  0
  6  7  1  0
  8  4  1  0
  9  8  1  0
 10 11  1  0
 10  9  2  0
 11 12  2  0
 12 13  1  0
 12  8  1  0
 13 14  2  0
 13 17  1  0
 14 15  1  0
 15 16  1  0
 17 16  2  0
 18 19  1  0
 18  1  1  0
 18 20  1  0
 19 20  1  0
 21 20  1  0
 21 22  1  0
 22 23  1  0
 24 23  1  0
 25 21  1  0
 25 24  1  0
  2 26  1  0
  3 27  1  0
 10 28  1  0
 11 29  1  0
 16 30  1  0
 18 31  1  6
 19 32  1  0
 19 33  1  0
 20 34  1  1
 21 35  1  0
 22 36  1  0
 22 37  1  0
 23 38  1  0
 23 39  1  0
 24 40  1  0
 24 41  1  0
 25 42  1  0
 25 43  1  0
M  ISO  8  26  14  27  14  28  14  29  14  30  14  31  13  32  13  33  13
M  ISO  8  34  13  35  13  36  13  37  13  38  13  39  13  40  13  41  13
M  ISO  2  42  13  43  13
M  END
>  <minimizedAffinity>  (1) 
-4.64416933

>  <minimizedRMSD>  (1) 
1.63273907

$$$$
