
     RDKit          3D

 22 23  0  0  0  0  0  0  0  0999 V2000
   37.7590   22.6830   35.0680 C   0  0  0  0  0  0  0  0  0  0  0  0
   36.9380   21.5540   35.2080 C   0  0  0  0  0  0  0  0  0  0  0  0
   36.3210   21.0260   34.0760 C   0  0  0  0  0  0  0  0  0  0  0  0
   36.5580   21.6530   32.8740 N   0  0  0  0  0  0  0  0  0  0  0  0
   37.3540   22.7380   32.7790 C   0  0  0  0  0  0  0  0  0  0  0  0
   37.9530   23.2560   33.8610 N   0  0  0  0  0  0  0  0  0  0  0  0
   38.4270   23.2840   36.1770 N   0  0  0  0  0  0  0  0  0  0  0  0
   37.8510   23.9160   37.3570 C   0  0  0  0  0  0  0  0  0  0  0  0
   38.7570   23.3710   38.4680 C   0  0  0  0  0  0  0  0  0  0  0  0
   39.9280   22.7090   37.7630 C   0  0  0  0  0  0  0  0  0  0  0  0
   39.8560   23.4230   36.4160 C   0  0  0  0  0  0  0  0  0  0  0  0
   36.7840   21.0934   36.1950 H   0  0  0  0  0  0  0  0  0  0  0  0
   35.6695   20.1420   34.1404 H   0  0  0  0  0  0  0  0  0  0  0  0
   37.5145   23.2060   31.7965 H   0  0  0  0  0  0  0  0  0  0  0  0
   37.9079   25.0127   37.2937 H   0  0  0  0  0  0  0  0  0  0  0  0
   36.7821   23.7018   37.5041 H   0  0  0  0  0  0  0  0  0  0  0  0
   39.1109   24.1912   39.1099 H   0  0  0  0  0  0  0  0  0  0  0  0
   38.2207   22.6606   39.1143 H   0  0  0  0  0  0  0  0  0  0  0  0
   40.8797   22.9038   38.2791 H   0  0  0  0  0  0  0  0  0  0  0  0
   39.8803   21.6112   37.7114 H   0  0  0  0  0  0  0  0  0  0  0  0
   40.4566   22.9171   35.6457 H   0  0  0  0  0  0  0  0  0  0  0  0
   40.2465   24.4512   36.3978 H   0  0  0  0  0  0  0  0  0  0  0  0
  1  2  2  0
  1  7  1  0
  3  2  1  0
  4  3  2  0
  5  4  1  0
  5  6  2  0
  6  1  1  0
  7 11  1  0
  7  8  1  0
  8  9  1  0
 10  9  1  0
 11 10  1  0
  2 12  1  0
  3 13  1  0
  5 14  1  0
  8 15  1  0
  8 16  1  0
  9 17  1  0
  9 18  1  0
 10 19  1  0
 10 20  1  0
 11 21  1  0
 11 22  1  0
M  ISO  8  12  14  13  14  14  14  15  13  16  13  17  13  18  13  19  13
M  ISO  3  20  13  21  13  22  13
M  END
>  <minimizedAffinity>  (1) 
-3.18059969

>  <minimizedRMSD>  (1) 
3.99764919

$$$$
