
     RDKit          3D

 37 39  0  0  1  0  0  0  0  0999 V2000
   38.0380   23.2330   36.4350 N   0  0  0  0  0  0  0  0  0  0  0  0
   37.5210   24.4150   37.1150 C   0  0  0  0  0  0  0  0  0  0  0  0
   38.1300   24.2900   38.5070 C   0  0  0  0  0  0  0  0  0  0  0  0
   39.1840   23.1880   38.3820 C   0  0  0  0  0  0  0  0  0  0  0  0
   39.3990   23.2430   36.8870 C   0  0  1  0  0  0  0  0  0  0  0  0
   37.3640   22.3240   35.5630 C   0  0  0  0  0  0  0  0  0  0  0  0
   37.6580   22.2770   34.1830 C   0  0  0  0  0  0  0  0  0  0  0  0
   36.9460   21.3680   33.4090 C   0  0  0  0  0  0  0  0  0  0  0  0
   36.0020   20.5760   34.0380 N   0  0  0  0  0  0  0  0  0  0  0  0
   35.7640   20.6630   35.3540 C   0  0  0  0  0  0  0  0  0  0  0  0
   36.4380   21.5290   36.1140 N   0  0  0  0  0  0  0  0  0  0  0  0
   40.2410   22.2100   36.3890 N   0  0  0  0  0  0  0  0  0  0  0  0
   41.0210   22.7470   35.2950 C   0  0  0  0  0  0  0  0  0  0  0  0
   41.7880   21.6670   34.5620 C   0  0  0  0  0  0  0  0  0  0  0  0
   42.5010   20.7930   35.5660 C   0  0  0  0  0  0  0  0  0  0  0  0
   42.5180   21.5160   36.8910 C   0  0  0  0  0  0  0  0  0  0  0  0
   41.0640   21.5660   37.3820 C   0  0  0  0  0  0  0  0  0  0  0  0
   37.8544   25.3374   36.6170 H   0  0  0  0  0  0  0  0  0  0  0  0
   36.4224   24.4711   37.1212 H   0  0  0  0  0  0  0  0  0  0  0  0
   38.5968   25.2385   38.8111 H   0  0  0  0  0  0  0  0  0  0  0  0
   37.3729   24.0524   39.2688 H   0  0  0  0  0  0  0  0  0  0  0  0
   40.1008   23.4276   38.9406 H   0  0  0  0  0  0  0  0  0  0  0  0
   38.8949   22.2060   38.7847 H   0  0  0  0  0  0  0  0  0  0  0  0
   39.9637   24.1130   36.5207 H   0  0  0  0  0  0  0  0  0  0  0  0
   38.4202   22.9335   33.7379 H   0  0  0  0  0  0  0  0  0  0  0  0
   37.1279   21.2809   32.3276 H   0  0  0  0  0  0  0  0  0  0  0  0
   35.0044   20.0132   35.8132 H   0  0  0  0  0  0  0  0  0  0  0  0
   40.3429   23.2445   34.5860 H   0  0  0  0  0  0  0  0  0  0  0  0
   41.7496   23.4569   35.7134 H   0  0  0  0  0  0  0  0  0  0  0  0
   41.0890   21.0551   33.9730 H   0  0  0  0  0  0  0  0  0  0  0  0
   42.5238   22.1301   33.8881 H   0  0  0  0  0  0  0  0  0  0  0  0
   41.9693   19.8358   35.6707 H   0  0  0  0  0  0  0  0  0  0  0  0
   43.5286   20.5889   35.2308 H   0  0  0  0  0  0  0  0  0  0  0  0
   43.1439   20.9708   37.6129 H   0  0  0  0  0  0  0  0  0  0  0  0
   42.9361   22.5279   36.7855 H   0  0  0  0  0  0  0  0  0  0  0  0
   41.0145   22.1337   38.3229 H   0  0  0  0  0  0  0  0  0  0  0  0
   40.6996   20.5419   37.5507 H   0  0  0  0  0  0  0  0  0  0  0  0
  1  5  1  0
  1  2  1  0
  2  3  1  0
  4  3  1  0
  5  4  1  0
  6 11  1  0
  6  1  1  0
  7  6  2  0
  8  9  2  0
  8  7  1  0
  9 10  1  0
 10 11  2  0
 12  5  1  0
 12 17  1  0
 13 12  1  0
 14 13  1  0
 14 15  1  0
 15 16  1  0
 16 17  1  0
  2 18  1  0
  2 19  1  0
  3 20  1  0
  3 21  1  0
  4 22  1  0
  4 23  1  0
  5 24  1  1
  7 25  1  0
  8 26  1  0
 10 27  1  0
 13 28  1  0
 13 29  1  0
 14 30  1  0
 14 31  1  0
 15 32  1  0
 15 33  1  0
 16 34  1  0
 16 35  1  0
 17 36  1  0
 17 37  1  0
M  ISO  8  18  13  19  13  20  13  21  13  22  13  23  13  24  13  25  14
M  ISO  8  26  14  27  14  28  13  29  13  30  13  31  13  32  13  33  13
M  ISO  4  34  13  35  13  36  13  37  13
M  END
>  <minimizedAffinity>  (1) 
-4.43181467

>  <minimizedRMSD>  (1) 
2.09653091

$$$$
