
     RDKit          3D

 33 35  0  0  1  0  0  0  0  0999 V2000
   38.4820   23.6050   36.0960 N   0  0  0  0  0  0  0  0  0  0  0  0
   37.7300   24.1830   37.2180 C   0  0  0  0  0  0  0  0  0  0  0  0
   38.4050   23.5350   38.4200 C   0  0  0  0  0  0  0  0  0  0  0  0
   39.6370   22.8240   37.8650 C   0  0  0  0  0  0  0  0  0  0  0  0
   39.8130   23.6660   36.6070 C   0  0  1  0  0  0  0  0  0  0  0  0
   40.8780   23.2670   35.7820 N   0  0  0  0  0  0  0  0  0  0  0  0
   41.2560   21.9550   35.7740 C   0  0  0  0  0  0  0  0  0  0  0  0
   42.2830   21.5390   34.9870 C   0  0  0  0  0  0  0  0  0  0  0  0
   42.9540   22.4620   34.1800 C   0  0  0  0  0  0  0  0  0  0  0  0
   44.0340   22.1010   33.3330 N   0  0  0  0  0  0  0  0  0  0  0  0
   42.5480   23.7610   34.2170 N   0  0  0  0  0  0  0  0  0  0  0  0
   41.5160   24.1570   35.0130 C   0  0  0  0  0  0  0  0  0  0  0  0
   41.2400   25.3630   34.9580 O   0  0  0  0  0  0  0  0  0  0  0  0
   37.9690   23.1310   34.8580 C   0  0  0  0  0  0  0  0  0  0  0  0
   37.9860   23.8810   33.6860 C   0  0  0  0  0  0  0  0  0  0  0  0
   37.4700   23.3580   32.5130 C   0  0  0  0  0  0  0  0  0  0  0  0
   36.9510   22.0760   32.5860 N   0  0  0  0  0  0  0  0  0  0  0  0
   36.9440   21.3660   33.7280 C   0  0  0  0  0  0  0  0  0  0  0  0
   37.4490   21.8960   34.8490 N   0  0  0  0  0  0  0  0  0  0  0  0
   37.8314   25.2780   37.2450 H   0  0  0  0  0  0  0  0  0  0  0  0
   36.6465   24.0003   37.1663 H   0  0  0  0  0  0  0  0  0  0  0  0
   38.7008   24.3000   39.1530 H   0  0  0  0  0  0  0  0  0  0  0  0
   37.7310   22.8369   38.9381 H   0  0  0  0  0  0  0  0  0  0  0  0
   40.5015   22.8979   38.5411 H   0  0  0  0  0  0  0  0  0  0  0  0
   39.5424   21.7388   37.7124 H   0  0  0  0  0  0  0  0  0  0  0  0
   40.1549   24.7019   36.7482 H   0  0  0  0  0  0  0  0  0  0  0  0
   40.7257   21.2298   36.4088 H   0  0  0  0  0  0  0  0  0  0  0  0
   42.5846   20.4812   34.9852 H   0  0  0  0  0  0  0  0  0  0  0  0
   44.3529   21.1224   33.2938 H   0  0  0  0  0  0  0  0  0  0  0  0
   44.4989   22.8176   32.7575 H   0  0  0  0  0  0  0  0  0  0  0  0
   38.4119   24.8952   33.6918 H   0  0  0  0  0  0  0  0  0  0  0  0
   37.4720   23.9298   31.5733 H   0  0  0  0  0  0  0  0  0  0  0  0
   36.5233   20.3497   33.7412 H   0  0  0  0  0  0  0  0  0  0  0  0
  1  5  1  0
  1  2  1  0
  2  3  1  0
  4  3  1  0
  5  4  1  0
  6  5  1  0
  7  6  1  0
  8  7  2  0
  9 11  2  0
  9  8  1  0
 10  9  1  0
 11 12  1  0
 12  6  1  0
 13 12  2  0
 14  1  1  0
 15 14  2  0
 16 17  2  0
 16 15  1  0
 17 18  1  0
 18 19  2  0
 19 14  1  0
  2 20  1  0
  2 21  1  0
  3 22  1  0
  3 23  1  0
  4 24  1  0
  4 25  1  0
  5 26  1  1
  7 27  1  0
  8 28  1  0
 10 29  1  0
 10 30  1  0
 15 31  1  0
 16 32  1  0
 18 33  1  0
M  ISO  8  20  13  21  13  22  13  23  13  24  13  25  13  26  13  27  14
M  ISO  4  28  14  31  14  32  14  33  14
M  END
>  <minimizedAffinity>  (1) 
-4.06426096

>  <minimizedRMSD>  (1) 
1.52040792

$$$$
