
     RDKit          3D

 36 38  0  0  1  0  0  0  0  0999 V2000
   38.5210   22.6960   36.2350 N   0  0  0  0  0  0  0  0  0  0  0  0
   38.3460   23.6880   37.2760 C   0  0  0  0  0  0  0  0  0  0  0  0
   39.4090   23.2460   38.2930 C   0  0  0  0  0  0  0  0  0  0  0  0
   40.2780   22.2340   37.5630 C   0  0  0  0  0  0  0  0  0  0  0  0
   39.9520   22.5850   36.1380 C   0  0  2  0  0  0  0  0  0  0  0  0
   37.5260   21.9910   35.4760 C   0  0  0  0  0  0  0  0  0  0  0  0
   36.4430   21.3530   36.0930 C   0  0  0  0  0  0  0  0  0  0  0  0
   35.5150   20.6870   35.2960 C   0  0  0  0  0  0  0  0  0  0  0  0
   35.7220   20.6960   33.9320 N   0  0  0  0  0  0  0  0  0  0  0  0
   36.7750   21.3200   33.3850 C   0  0  0  0  0  0  0  0  0  0  0  0
   37.6620   21.9560   34.1420 N   0  0  0  0  0  0  0  0  0  0  0  0
   40.5770   23.7960   35.7160 N   0  0  0  0  0  0  0  0  0  0  0  0
   41.9940   23.7480   35.8770 C   0  0  0  0  0  0  0  0  0  0  0  0
   42.6180   22.6740   34.9890 C   0  0  0  0  0  0  0  0  0  0  0  0
   42.3410   23.0100   33.6120 N   0  0  0  0  0  0  0  0  0  0  0  0
   40.8970   23.0310   33.3950 C   0  0  0  0  0  0  0  0  0  0  0  0
   40.3090   24.0700   34.3380 C   0  0  0  0  0  0  0  0  0  0  0  0
   38.5437   24.7035   36.9022 H   0  0  0  0  0  0  0  0  0  0  0  0
   37.3256   23.7388   37.6836 H   0  0  0  0  0  0  0  0  0  0  0  0
   40.0120   24.1071   38.6168 H   0  0  0  0  0  0  0  0  0  0  0  0
   38.9533   22.8144   39.1963 H   0  0  0  0  0  0  0  0  0  0  0  0
   41.3457   22.3785   37.7845 H   0  0  0  0  0  0  0  0  0  0  0  0
   40.0922   21.1843   37.8345 H   0  0  0  0  0  0  0  0  0  0  0  0
   40.3063   21.8628   35.3877 H   0  0  0  0  0  0  0  0  0  0  0  0
   36.3273   21.3773   37.1866 H   0  0  0  0  0  0  0  0  0  0  0  0
   34.6488   20.1727   35.7379 H   0  0  0  0  0  0  0  0  0  0  0  0
   36.9064   21.3051   32.2930 H   0  0  0  0  0  0  0  0  0  0  0  0
   42.4184   24.7264   35.6077 H   0  0  0  0  0  0  0  0  0  0  0  0
   42.2158   23.5025   36.9261 H   0  0  0  0  0  0  0  0  0  0  0  0
   43.7052   22.6409   35.1528 H   0  0  0  0  0  0  0  0  0  0  0  0
   42.1957   21.6877   35.2318 H   0  0  0  0  0  0  0  0  0  0  0  0
   42.7332   23.9385   33.3999 H   0  0  0  0  0  0  0  0  0  0  0  0
   40.6777   23.3033   32.3520 H   0  0  0  0  0  0  0  0  0  0  0  0
   40.4611   22.0399   33.5894 H   0  0  0  0  0  0  0  0  0  0  0  0
   40.7369   25.0518   34.0871 H   0  0  0  0  0  0  0  0  0  0  0  0
   39.2170   24.0496   34.2070 H   0  0  0  0  0  0  0  0  0  0  0  0
  1  2  1  0
  2  3  1  0
  4  3  1  0
  5  1  1  0
  5  4  1  0
  6  7  2  0
  6  1  1  0
  8  7  1  0
  9  8  2  0
 10  9  1  0
 10 11  2  0
 11  6  1  0
 12 13  1  0
 12  5  1  0
 14 13  1  0
 15 14  1  0
 16 15  1  0
 16 17  1  0
 17 12  1  0
  2 18  1  0
  2 19  1  0
  3 20  1  0
  3 21  1  0
  4 22  1  0
  4 23  1  0
  5 24  1  6
  7 25  1  0
  8 26  1  0
 10 27  1  0
 13 28  1  0
 13 29  1  0
 14 30  1  0
 14 31  1  0
 15 32  1  0
 16 33  1  0
 16 34  1  0
 17 35  1  0
 17 36  1  0
M  ISO  8  18  13  19  13  20  13  21  13  22  13  23  13  24  13  25  14
M  ISO  8  26  14  27  14  28  13  29  13  30  13  31  13  32   5  33  13
M  ISO  3  34  13  35  13  36  13
M  END
>  <minimizedAffinity>  (1) 
-4.04622364

>  <minimizedRMSD>  (1) 
1.62111044

$$$$
