
     RDKit          3D

 32 34  0  0  1  0  0  0  0  0999 V2000
   38.3940   23.6580   36.1160 N   0  0  0  0  0  0  0  0  0  0  0  0
   37.5650   24.0690   37.2410 C   0  0  0  0  0  0  0  0  0  0  0  0
   38.2650   23.4110   38.4230 C   0  0  0  0  0  0  0  0  0  0  0  0
   39.5880   22.8980   37.8800 C   0  0  0  0  0  0  0  0  0  0  0  0
   39.7200   23.8060   36.6660 C   0  0  1  0  0  0  0  0  0  0  0  0
   37.9900   23.2260   34.8200 C   0  0  0  0  0  0  0  0  0  0  0  0
   37.6210   21.9000   34.5580 C   0  0  0  0  0  0  0  0  0  0  0  0
   37.2390   21.5740   33.2530 C   0  0  0  0  0  0  0  0  0  0  0  0
   37.2470   22.5700   32.3070 N   0  0  0  0  0  0  0  0  0  0  0  0
   37.6080   23.8280   32.6030 C   0  0  0  0  0  0  0  0  0  0  0  0
   37.9810   24.1740   33.8520 N   0  0  0  0  0  0  0  0  0  0  0  0
   40.7380   23.2790   35.7850 N   0  0  0  0  0  0  0  0  0  0  0  0
   41.0300   21.9780   35.8210 C   0  0  0  0  0  0  0  0  0  0  0  0
   42.0180   21.4930   34.9590 C   0  0  0  0  0  0  0  0  0  0  0  0
   42.6690   22.3620   34.0940 C   0  0  0  0  0  0  0  0  0  0  0  0
   43.5620   21.9240   33.3150 O   0  0  0  0  0  0  0  0  0  0  0  0
   42.3160   23.6620   34.1180 N   0  0  0  0  0  0  0  0  0  0  0  0
   41.3570   24.1440   34.9530 C   0  0  0  0  0  0  0  0  0  0  0  0
   41.0760   25.3790   34.9240 O   0  0  0  0  0  0  0  0  0  0  0  0
   37.5516   25.1639   37.3460 H   0  0  0  0  0  0  0  0  0  0  0  0
   36.5095   23.7770   37.1381 H   0  0  0  0  0  0  0  0  0  0  0  0
   38.4373   24.1447   39.2243 H   0  0  0  0  0  0  0  0  0  0  0  0
   37.6600   22.5999   38.8545 H   0  0  0  0  0  0  0  0  0  0  0  0
   40.4110   23.0442   38.5950 H   0  0  0  0  0  0  0  0  0  0  0  0
   39.6242   21.8192   37.6681 H   0  0  0  0  0  0  0  0  0  0  0  0
   40.0154   24.8486   36.8549 H   0  0  0  0  0  0  0  0  0  0  0  0
   37.6315   21.1400   35.3532 H   0  0  0  0  0  0  0  0  0  0  0  0
   36.9403   20.5482   32.9911 H   0  0  0  0  0  0  0  0  0  0  0  0
   37.5995   24.5919   31.8116 H   0  0  0  0  0  0  0  0  0  0  0  0
   40.5056   21.3024   36.5128 H   0  0  0  0  0  0  0  0  0  0  0  0
   42.2792   20.4245   34.9661 H   0  0  0  0  0  0  0  0  0  0  0  0
   42.7908   24.3159   33.4793 H   0  0  0  0  0  0  0  0  0  0  0  0
  1  5  1  0
  1  2  1  0
  2  3  1  0
  4  3  1  0
  5  4  1  0
  6  1  1  0
  7  6  2  0
  8  7  1  0
  9 10  1  0
  9  8  2  0
 10 11  2  0
 11  6  1  0
 12 13  1  0
 12  5  1  0
 14 13  2  0
 15 17  1  0
 15 14  1  0
 16 15  2  0
 17 18  1  0
 18 12  1  0
 19 18  2  0
  2 20  1  0
  2 21  1  0
  3 22  1  0
  3 23  1  0
  4 24  1  0
  4 25  1  0
  5 26  1  1
  7 27  1  0
  8 28  1  0
 10 29  1  0
 13 30  1  0
 14 31  1  0
 17 32  1  0
M  ISO  8  20  13  21  13  22  13  23  13  24  13  25  13  26  13  27  14
M  ISO  5  28  14  29  14  30  14  31  14  32   9
M  END
>  <minimizedAffinity>  (1) 
-3.98995876

>  <minimizedRMSD>  (1) 
1.07843065

$$$$
