
     RDKit          3D

 28 29  0  0  1  0  0  0  0  0999 V2000
   38.0940   23.2950   36.3990 N   0  0  0  0  0  0  0  0  0  0  0  0
   37.5190   24.4250   37.1070 C   0  0  0  0  0  0  0  0  0  0  0  0
   38.1050   24.2300   38.5080 C   0  0  0  0  0  0  0  0  0  0  0  0
   39.1650   23.1600   38.3720 C   0  0  0  0  0  0  0  0  0  0  0  0
   39.4590   23.2550   36.8700 C   0  0  1  0  0  0  0  0  0  0  0  0
   37.4600   22.4200   35.4530 C   0  0  0  0  0  0  0  0  0  0  0  0
   37.7710   22.4390   34.0780 C   0  0  0  0  0  0  0  0  0  0  0  0
   37.1180   21.5650   33.2260 C   0  0  0  0  0  0  0  0  0  0  0  0
   36.1870   20.7150   33.7840 N   0  0  0  0  0  0  0  0  0  0  0  0
   35.9160   20.7240   35.0970 C   0  0  0  0  0  0  0  0  0  0  0  0
   36.5420   21.5620   35.9200 N   0  0  0  0  0  0  0  0  0  0  0  0
   40.0970   21.9380   36.5020 C   0  0  0  0  0  0  0  0  0  0  0  0
   41.3100   21.6370   37.3490 C   0  0  0  0  0  0  0  0  0  0  0  0
   37.8381   25.3811   36.6664 H   0  0  0  0  0  0  0  0  0  0  0  0
   36.4200   24.4624   37.0793 H   0  0  0  0  0  0  0  0  0  0  0  0
   38.5528   25.1677   38.8688 H   0  0  0  0  0  0  0  0  0  0  0  0
   37.3296   23.9388   39.2318 H   0  0  0  0  0  0  0  0  0  0  0  0
   40.0550   23.3897   38.9763 H   0  0  0  0  0  0  0  0  0  0  0  0
   38.8591   22.1620   38.7191 H   0  0  0  0  0  0  0  0  0  0  0  0
   40.1001   24.0696   36.5022 H   0  0  0  0  0  0  0  0  0  0  0  0
   38.5234   23.1398   33.6870 H   0  0  0  0  0  0  0  0  0  0  0  0
   37.3332   21.5493   32.1474 H   0  0  0  0  0  0  0  0  0  0  0  0
   35.1651   20.0285   35.5001 H   0  0  0  0  0  0  0  0  0  0  0  0
   39.3585   21.1349   36.6423 H   0  0  0  0  0  0  0  0  0  0  0  0
   40.4239   22.0017   35.4536 H   0  0  0  0  0  0  0  0  0  0  0  0
   41.0399   21.7040   38.4132 H   0  0  0  0  0  0  0  0  0  0  0  0
   41.6706   20.6221   37.1255 H   0  0  0  0  0  0  0  0  0  0  0  0
   42.1033   22.3655   37.1255 H   0  0  0  0  0  0  0  0  0  0  0  0
  1  5  1  0
  1  2  1  0
  2  3  1  0
  4  3  1  0
  5  4  1  0
  6 11  1  0
  6  1  1  0
  7  6  2  0
  8  9  2  0
  8  7  1  0
  9 10  1  0
 10 11  2  0
 12  5  1  0
 12 13  1  0
  2 14  1  0
  2 15  1  0
  3 16  1  0
  3 17  1  0
  4 18  1  0
  4 19  1  0
  5 20  1  1
  7 21  1  0
  8 22  1  0
 10 23  1  0
 12 24  1  0
 12 25  1  0
 13 26  1  0
 13 27  1  0
 13 28  1  0
M  ISO  8  14  13  15  13  16  13  17  13  18  13  19  13  20  13  21  14
M  ISO  7  22  14  23  14  24   8  25   8  26   8  27   8  28   8
M  END
>  <minimizedAffinity>  (1) 
-3.78071213

>  <minimizedRMSD>  (1) 
1.85394812

$$$$
