
     RDKit          3D

 29 31  0  0  1  0  0  0  0  0999 V2000
   38.4140   23.8000   36.1170 N   0  0  0  0  0  0  0  0  0  0  0  0
   37.6800   24.7040   37.0060 C   0  0  0  0  0  0  0  0  0  0  0  0
   38.0230   24.1340   38.3780 C   0  0  0  0  0  0  0  0  0  0  0  0
   39.1360   23.1290   38.1530 C   0  0  0  0  0  0  0  0  0  0  0  0
   39.6840   23.6270   36.8300 C   0  0  1  0  0  0  0  0  0  0  0  0
   38.0060   23.2340   34.8870 C   0  0  0  0  0  0  0  0  0  0  0  0
   37.5590   21.9050   34.7860 C   0  0  0  0  0  0  0  0  0  0  0  0
   37.1690   21.4020   33.5480 C   0  0  0  0  0  0  0  0  0  0  0  0
   37.2480   22.2540   32.4820 N   0  0  0  0  0  0  0  0  0  0  0  0
   37.6820   23.5240   32.6110 C   0  0  0  0  0  0  0  0  0  0  0  0
   38.0610   24.0220   33.8040 N   0  0  0  0  0  0  0  0  0  0  0  0
   40.6590   22.8870   36.1820 C   0  0  0  0  0  0  0  0  0  0  0  0
   41.2760   22.8620   34.9410 C   0  0  0  0  0  0  0  0  0  0  0  0
   42.2450   21.9570   34.6190 C   0  0  0  0  0  0  0  0  0  0  0  0
   42.6330   20.9860   35.6340 C   0  0  0  0  0  0  0  0  0  0  0  0
   41.5170   21.4630   37.0660 S   0  0  0  0  0  0  0  0  0  0  0  0
   38.0322   25.7410   36.9031 H   0  0  0  0  0  0  0  0  0  0  0  0
   36.6006   24.7537   36.8002 H   0  0  0  0  0  0  0  0  0  0  0  0
   38.3634   24.9358   39.0497 H   0  0  0  0  0  0  0  0  0  0  0  0
   37.1464   23.6628   38.8466 H   0  0  0  0  0  0  0  0  0  0  0  0
   39.8927   23.1738   38.9501 H   0  0  0  0  0  0  0  0  0  0  0  0
   38.8145   22.0770   38.1526 H   0  0  0  0  0  0  0  0  0  0  0  0
   40.3139   24.5235   36.9280 H   0  0  0  0  0  0  0  0  0  0  0  0
   37.5176   21.2660   35.6804 H   0  0  0  0  0  0  0  0  0  0  0  0
   36.8139   20.3673   33.4329 H   0  0  0  0  0  0  0  0  0  0  0  0
   37.7277   24.1688   31.7210 H   0  0  0  0  0  0  0  0  0  0  0  0
   40.9722   23.6015   34.1854 H   0  0  0  0  0  0  0  0  0  0  0  0
   42.7178   21.9602   33.6258 H   0  0  0  0  0  0  0  0  0  0  0  0
   43.3833   20.1837   35.5762 H   0  0  0  0  0  0  0  0  0  0  0  0
  1  5  1  0
  1  2  1  0
  2  3  1  0
  4  3  1  0
  5  4  1  0
  6  1  1  0
  7  6  2  0
  8  7  1  0
  9 10  1  0
  9  8  2  0
 10 11  2  0
 11  6  1  0
 12  5  1  0
 12 16  1  0
 13 12  2  0
 14 13  1  0
 14 15  2  0
 15 16  1  0
  2 17  1  0
  2 18  1  0
  3 19  1  0
  3 20  1  0
  4 21  1  0
  4 22  1  0
  5 23  1  1
  7 24  1  0
  8 25  1  0
 10 26  1  0
 13 27  1  0
 14 28  1  0
 15 29  1  0
M  ISO  8  17  13  18  13  19  13  20  13  21  13  22  13  23  13  24  14
M  ISO  5  25  14  26  14  27  14  28  14  29  14
M  END
>  <minimizedAffinity>  (1) 
-3.77192497

>  <minimizedRMSD>  (1) 
1.13596153

$$$$
