
     RDKit          3D

 29 31  0  0  1  0  0  0  0  0999 V2000
   38.4980   23.7380   36.1270 N   0  0  0  0  0  0  0  0  0  0  0  0
   37.6520   24.6460   36.9050 C   0  0  0  0  0  0  0  0  0  0  0  0
   37.8890   24.1640   38.3310 C   0  0  0  0  0  0  0  0  0  0  0  0
   39.0680   23.2050   38.2440 C   0  0  0  0  0  0  0  0  0  0  0  0
   39.6940   23.7030   36.9350 C   0  0  1  0  0  0  0  0  0  0  0  0
   38.1930   23.0830   34.9050 C   0  0  0  0  0  0  0  0  0  0  0  0
   37.4690   21.8950   34.8380 C   0  0  0  0  0  0  0  0  0  0  0  0
   37.2310   21.3430   33.5750 C   0  0  0  0  0  0  0  0  0  0  0  0
   37.7180   21.9980   32.4790 N   0  0  0  0  0  0  0  0  0  0  0  0
   38.4130   23.1460   32.5840 C   0  0  0  0  0  0  0  0  0  0  0  0
   38.6530   23.6900   33.7780 N   0  0  0  0  0  0  0  0  0  0  0  0
   40.6730   22.6810   36.4860 C   0  0  0  0  0  0  0  0  0  0  0  0
   41.1350   21.6620   37.2900 C   0  0  0  0  0  0  0  0  0  0  0  0
   42.0010   20.9320   36.5640 N   0  0  0  0  0  0  0  0  0  0  0  0
   42.0850   21.4730   35.3320 C   0  0  0  0  0  0  0  0  0  0  0  0
   41.2690   22.5570   35.2670 N   0  0  0  0  0  0  0  0  0  0  0  0
   37.9688   25.6919   36.7797 H   0  0  0  0  0  0  0  0  0  0  0  0
   36.5942   24.6309   36.6038 H   0  0  0  0  0  0  0  0  0  0  0  0
   38.1307   25.0121   38.9885 H   0  0  0  0  0  0  0  0  0  0  0  0
   36.9966   23.6774   38.7515 H   0  0  0  0  0  0  0  0  0  0  0  0
   39.7536   23.3173   39.0969 H   0  0  0  0  0  0  0  0  0  0  0  0
   38.8083   22.1363   38.2651 H   0  0  0  0  0  0  0  0  0  0  0  0
   40.2485   24.6530   36.9434 H   0  0  0  0  0  0  0  0  0  0  0  0
   37.0960   21.4061   35.7500 H   0  0  0  0  0  0  0  0  0  0  0  0
   36.6661   20.4054   33.4667 H   0  0  0  0  0  0  0  0  0  0  0  0
   38.7870   23.6407   31.6755 H   0  0  0  0  0  0  0  0  0  0  0  0
   40.8478   21.4786   38.3359 H   0  0  0  0  0  0  0  0  0  0  0  0
   42.7134   21.0970   34.5112 H   0  0  0  0  0  0  0  0  0  0  0  0
   41.1276   23.1692   34.4509 H   0  0  0  0  0  0  0  0  0  0  0  0
  1  2  1  0
  1  5  1  0
  2  3  1  0
  4  3  1  0
  5  4  1  0
  6  1  1  0
  7  6  2  0
  8  7  1  0
  9 10  1  0
  9  8  2  0
 10 11  2  0
 11  6  1  0
 12  5  1  0
 12 13  2  0
 14 13  1  0
 15 14  2  0
 16 15  1  0
 16 12  1  0
  2 17  1  0
  2 18  1  0
  3 19  1  0
  3 20  1  0
  4 21  1  0
  4 22  1  0
  5 23  1  1
  7 24  1  0
  8 25  1  0
 10 26  1  0
 13 27  1  0
 15 28  1  0
 16 29  1  0
M  ISO  8  17  13  18  13  19  13  20  13  21  13  22  13  23  13  24  14
M  ISO  5  25  14  26  14  27  14  28  14  29   9
M  END
>  <minimizedAffinity>  (1) 
-3.75495815

>  <minimizedRMSD>  (1) 
1.23678863

$$$$
