
     RDKit          3D

 28 30  0  0  1  0  0  0  0  0999 V2000
   38.5280   23.6460   36.2110 N   0  0  0  0  0  0  0  0  0  0  0  0
   37.7780   24.1420   37.3510 C   0  0  0  0  0  0  0  0  0  0  0  0
   38.4670   23.4190   38.5190 C   0  0  0  0  0  0  0  0  0  0  0  0
   39.7340   22.8160   37.9230 C   0  0  0  0  0  0  0  0  0  0  0  0
   39.8790   23.7020   36.6960 C   0  0  1  0  0  0  0  0  0  0  0  0
   38.0240   23.2160   34.9440 C   0  0  0  0  0  0  0  0  0  0  0  0
   37.6050   21.8860   34.7190 C   0  0  0  0  0  0  0  0  0  0  0  0
   37.1350   21.5590   33.4490 C   0  0  0  0  0  0  0  0  0  0  0  0
   37.1060   22.5390   32.4970 N   0  0  0  0  0  0  0  0  0  0  0  0
   37.5200   23.8060   32.7610 C   0  0  0  0  0  0  0  0  0  0  0  0
   37.9720   24.1350   33.9680 N   0  0  0  0  0  0  0  0  0  0  0  0
   40.9000   23.2200   35.7470 C   0  0  0  0  0  0  0  0  0  0  0  0
   41.6120   24.1240   34.8350 C   0  0  0  0  0  0  0  0  0  0  0  0
   42.7040   22.9030   33.9600 S   0  0  0  0  0  0  0  0  0  0  0  0
   42.0070   21.4490   34.9690 C   0  0  0  0  0  0  0  0  0  0  0  0
   41.2330   21.9250   35.6650 N   0  0  0  0  0  0  0  0  0  0  0  0
   37.8693   25.2341   37.4461 H   0  0  0  0  0  0  0  0  0  0  0  0
   36.6958   23.9554   37.2877 H   0  0  0  0  0  0  0  0  0  0  0  0
   38.7179   24.1307   39.3193 H   0  0  0  0  0  0  0  0  0  0  0  0
   37.8185   22.6526   38.9685 H   0  0  0  0  0  0  0  0  0  0  0  0
   40.5935   22.9122   38.6027 H   0  0  0  0  0  0  0  0  0  0  0  0
   39.6878   21.7362   37.7185 H   0  0  0  0  0  0  0  0  0  0  0  0
   40.2482   24.7212   36.8830 H   0  0  0  0  0  0  0  0  0  0  0  0
   37.6484   21.1334   35.5200 H   0  0  0  0  0  0  0  0  0  0  0  0
   36.7960   20.5383   33.2184 H   0  0  0  0  0  0  0  0  0  0  0  0
   37.4810   24.5676   31.9683 H   0  0  0  0  0  0  0  0  0  0  0  0
   41.5238   25.2129   34.7067 H   0  0  0  0  0  0  0  0  0  0  0  0
   42.2857   20.3872   34.8992 H   0  0  0  0  0  0  0  0  0  0  0  0
  1  5  1  0
  1  2  1  0
  2  3  1  0
  4  3  1  0
  5  4  1  0
  6  1  1  0
  7  6  2  0
  8  7  1  0
  9 10  1  0
  9  8  2  0
 10 11  2  0
 11  6  1  0
 12  5  1  0
 13 12  2  0
 14 13  1  0
 14 15  1  0
 15 16  2  0
 16 12  1  0
  2 17  1  0
  2 18  1  0
  3 19  1  0
  3 20  1  0
  4 21  1  0
  4 22  1  0
  5 23  1  1
  7 24  1  0
  8 25  1  0
 10 26  1  0
 13 27  1  0
 15 28  1  0
M  ISO  8  17  13  18  13  19  13  20  13  21  13  22  13  23  13  24  14
M  ISO  4  25  14  26  14  27  14  28  14
M  END
>  <minimizedAffinity>  (1) 
-3.67688608

>  <minimizedRMSD>  (1) 
0.941414297

$$$$
