
     RDKit          3D

 27 29  0  0  1  0  0  0  0  0999 V2000
   38.4470   23.6150   36.1070 N   0  0  0  0  0  0  0  0  0  0  0  0
   37.6720   24.1330   37.2390 C   0  0  0  0  0  0  0  0  0  0  0  0
   38.3750   23.4580   38.4200 C   0  0  0  0  0  0  0  0  0  0  0  0
   39.6680   22.8740   37.8660 C   0  0  0  0  0  0  0  0  0  0  0  0
   39.8030   23.7200   36.6090 C   0  0  1  0  0  0  0  0  0  0  0  0
   37.9700   23.1400   34.8550 C   0  0  0  0  0  0  0  0  0  0  0  0
   37.5160   21.8220   34.6780 C   0  0  0  0  0  0  0  0  0  0  0  0
   37.0630   21.4280   33.4260 C   0  0  0  0  0  0  0  0  0  0  0  0
   37.0870   22.3700   32.4240 N   0  0  0  0  0  0  0  0  0  0  0  0
   37.5270   23.6180   32.6320 C   0  0  0  0  0  0  0  0  0  0  0  0
   37.9690   24.0140   33.8380 N   0  0  0  0  0  0  0  0  0  0  0  0
   40.8060   23.0770   35.7280 C   0  0  0  0  0  0  0  0  0  0  0  0
   41.5060   23.5670   34.6650 N   0  0  0  0  0  0  0  0  0  0  0  0
   42.2780   22.6270   34.1990 O   0  0  0  0  0  0  0  0  0  0  0  0
   42.1220   21.5310   34.9070 C   0  0  0  0  0  0  0  0  0  0  0  0
   41.2000   21.7970   35.8720 N   0  0  0  0  0  0  0  0  0  0  0  0
   37.7384   25.2291   37.3042 H   0  0  0  0  0  0  0  0  0  0  0  0
   36.5936   23.9248   37.1787 H   0  0  0  0  0  0  0  0  0  0  0  0
   38.5954   24.1961   39.2053 H   0  0  0  0  0  0  0  0  0  0  0  0
   37.7433   22.6784   38.8707 H   0  0  0  0  0  0  0  0  0  0  0  0
   40.5136   23.0221   38.5538 H   0  0  0  0  0  0  0  0  0  0  0  0
   39.6593   21.7864   37.7013 H   0  0  0  0  0  0  0  0  0  0  0  0
   40.1429   24.7602   36.7211 H   0  0  0  0  0  0  0  0  0  0  0  0
   37.5194   21.1129   35.5189 H   0  0  0  0  0  0  0  0  0  0  0  0
   36.7003   20.4057   33.2432 H   0  0  0  0  0  0  0  0  0  0  0  0
   37.5266   24.3346   31.7974 H   0  0  0  0  0  0  0  0  0  0  0  0
   42.6413   20.5743   34.7487 H   0  0  0  0  0  0  0  0  0  0  0  0
  1  5  1  0
  1  2  1  0
  2  3  1  0
  4  3  1  0
  5  4  1  0
  6  1  1  0
  7  6  2  0
  8  7  1  0
  9 10  1  0
  9  8  2  0
 10 11  2  0
 11  6  1  0
 12 16  1  0
 12  5  1  0
 13 12  2  0
 14 13  1  0
 14 15  1  0
 15 16  2  0
  2 17  1  0
  2 18  1  0
  3 19  1  0
  3 20  1  0
  4 21  1  0
  4 22  1  0
  5 23  1  1
  7 24  1  0
  8 25  1  0
 10 26  1  0
 15 27  1  0
M  ISO  8  17  13  18  13  19  13  20  13  21  13  22  13  23  13  24  14
M  ISO  3  25  14  26  14  27  14
M  END
>  <minimizedAffinity>  (1) 
-3.64295483

>  <minimizedRMSD>  (1) 
0.807271183

$$$$
