
     RDKit          3D

 45 49  0  0  1  0  0  0  0  0999 V2000
   38.7440   23.7190   36.0560 N   0  0  0  0  0  0  0  0  0  0  0  0
   37.5740   24.3850   36.5930 C   0  0  0  0  0  0  0  0  0  0  0  0
   37.4380   23.7180   37.9640 C   0  0  0  0  0  0  0  0  0  0  0  0
   38.7330   22.9660   38.1830 C   0  0  0  0  0  0  0  0  0  0  0  0
   39.6320   23.6910   37.2250 C   0  0  1  0  0  0  0  0  0  0  0  0
   38.9720   23.2240   34.7350 C   0  0  0  0  0  0  0  0  0  0  0  0
   38.5890   21.9260   34.3620 C   0  0  0  0  0  0  0  0  0  0  0  0
   38.8510   21.5230   33.0550 C   0  0  0  0  0  0  0  0  0  0  0  0
   39.4680   22.4260   32.2150 N   0  0  0  0  0  0  0  0  0  0  0  0
   39.8120   23.6580   32.6270 C   0  0  0  0  0  0  0  0  0  0  0  0
   39.5820   24.1020   33.8870 N   0  0  0  0  0  0  0  0  0  0  0  0
   40.9200   23.0510   36.9970 C   0  0  0  0  0  0  0  0  0  0  0  0
   41.2250   21.7200   37.1590 C   0  0  0  0  0  0  0  0  0  0  0  0
   42.5440   21.5480   36.8360 C   0  0  0  0  0  0  0  0  0  0  0  0
   43.0180   22.8070   36.4790 C   0  0  0  0  0  0  0  0  0  0  0  0
   42.0380   23.6110   36.5960 O   0  0  0  0  0  0  0  0  0  0  0  0
   44.4180   22.9200   36.0830 C   0  0  0  0  0  0  0  0  0  0  0  0
   45.0180   22.0850   35.1450 C   0  0  0  0  0  0  0  0  0  0  0  0
   46.3290   22.1610   34.7470 C   0  0  0  0  0  0  0  0  0  0  0  0
   47.1310   23.1300   35.3040 C   0  0  0  0  0  0  0  0  0  0  0  0
   46.6090   23.9950   36.2400 C   0  0  0  0  0  0  0  0  0  0  0  0
   47.4430   24.9500   36.7730 C   0  0  0  0  0  0  0  0  0  0  0  0
   46.9740   25.8420   37.7140 C   0  0  0  0  0  0  0  0  0  0  0  0
   45.6340   25.7340   38.0950 C   0  0  0  0  0  0  0  0  0  0  0  0
   44.8620   24.7570   37.5190 C   0  0  0  0  0  0  0  0  0  0  0  0
   45.2810   23.8540   36.5870 C   0  0  0  0  0  0  0  0  0  0  0  0
   37.7382   25.4684   36.6889 H   0  0  0  0  0  0  0  0  0  0  0  0
   36.6785   24.2924   35.9610 H   0  0  0  0  0  0  0  0  0  0  0  0
   37.2979   24.4770   38.7477 H   0  0  0  0  0  0  0  0  0  0  0  0
   36.5669   23.0475   38.0050 H   0  0  0  0  0  0  0  0  0  0  0  0
   39.0861   23.0579   39.2207 H   0  0  0  0  0  0  0  0  0  0  0  0
   38.6672   21.8802   38.0194 H   0  0  0  0  0  0  0  0  0  0  0  0
   39.9804   24.6765   37.5678 H   0  0  0  0  0  0  0  0  0  0  0  0
   38.0985   21.2501   35.0779 H   0  0  0  0  0  0  0  0  0  0  0  0
   38.5749   20.5176   32.7042 H   0  0  0  0  0  0  0  0  0  0  0  0
   40.3011   24.3351   31.9112 H   0  0  0  0  0  0  0  0  0  0  0  0
   40.5316   20.9327   37.4897 H   0  0  0  0  0  0  0  0  0  0  0  0
   43.1132   20.6069   36.8548 H   0  0  0  0  0  0  0  0  0  0  0  0
   44.3931   21.3039   34.6874 H   0  0  0  0  0  0  0  0  0  0  0  0
   46.7301   21.4619   33.9984 H   0  0  0  0  0  0  0  0  0  0  0  0
   48.1857   23.2137   35.0028 H   0  0  0  0  0  0  0  0  0  0  0  0
   48.4920   25.0026   36.4461 H   0  0  0  0  0  0  0  0  0  0  0  0
   47.6304   26.6102   38.1487 H   0  0  0  0  0  0  0  0  0  0  0  0
   45.2065   26.4189   38.8421 H   0  0  0  0  0  0  0  0  0  0  0  0
   43.8109   24.6967   37.8375 H   0  0  0  0  0  0  0  0  0  0  0  0
  1  2  1  0
  1  5  1  0
  2  3  1  0
  3  4  1  0
  5  4  1  0
  6  1  1  0
  7  6  2  0
  8  7  1  0
  9 10  1  0
  9  8  2  0
 10 11  2  0
 11  6  1  0
 12 13  2  0
 12  5  1  0
 14 13  1  0
 15 16  1  0
 15 14  2  0
 16 12  1  0
 17 15  1  0
 17 26  1  0
 18 17  2  0
 19 18  1  0
 19 20  2  0
 20 21  1  0
 21 26  2  0
 21 22  1  0
 22 23  2  0
 23 24  1  0
 25 24  2  0
 26 25  1  0
  2 27  1  0
  2 28  1  0
  3 29  1  0
  3 30  1  0
  4 31  1  0
  4 32  1  0
  5 33  1  1
  7 34  1  0
  8 35  1  0
 10 36  1  0
 13 37  1  0
 14 38  1  0
 18 39  1  0
 19 40  1  0
 20 41  1  0
 22 42  1  0
 23 43  1  0
 24 44  1  0
 25 45  1  0
M  ISO  8  27  13  28  13  29  13  30  13  31  13  32  13  33  13  34  14
M  ISO  8  35  14  36  14  37  14  38  14  39  14  40  14  41  14  42  14
M  ISO  3  43  14  44  14  45  14
M  END
>  <minimizedAffinity>  (1) 
-5.2810936

>  <minimizedRMSD>  (1) 
2.26307464

$$$$
