
     RDKit          3D

 43 47  0  0  1  0  0  0  0  0999 V2000
   38.7630   23.7290   36.1590 N   0  0  0  0  0  0  0  0  0  0  0  0
   37.6500   24.4670   36.7200 C   0  0  0  0  0  0  0  0  0  0  0  0
   37.5410   23.8550   38.1180 C   0  0  0  0  0  0  0  0  0  0  0  0
   38.8100   23.0560   38.3170 C   0  0  0  0  0  0  0  0  0  0  0  0
   39.6940   23.6940   37.2920 C   0  0  1  0  0  0  0  0  0  0  0  0
   38.9150   23.1840   34.8480 C   0  0  0  0  0  0  0  0  0  0  0  0
   38.3510   21.9300   34.5140 C   0  0  0  0  0  0  0  0  0  0  0  0
   38.5510   21.4730   33.2100 C   0  0  0  0  0  0  0  0  0  0  0  0
   39.2720   22.2610   32.3480 N   0  0  0  0  0  0  0  0  0  0  0  0
   39.7840   23.4490   32.7280 C   0  0  0  0  0  0  0  0  0  0  0  0
   39.6320   23.9590   33.9810 N   0  0  0  0  0  0  0  0  0  0  0  0
   40.9450   22.9890   37.0410 C   0  0  0  0  0  0  0  0  0  0  0  0
   41.1590   21.6260   37.1250 C   0  0  0  0  0  0  0  0  0  0  0  0
   42.4910   21.4210   36.8020 C   0  0  0  0  0  0  0  0  0  0  0  0
   43.0290   22.6400   36.5350 C   0  0  0  0  0  0  0  0  0  0  0  0
   42.1030   23.5170   36.6840 O   0  0  0  0  0  0  0  0  0  0  0  0
   44.3480   23.0910   36.1460 C   0  0  0  0  0  0  0  0  0  0  0  0
   45.0830   22.6110   35.0810 C   0  0  0  0  0  0  0  0  0  0  0  0
   46.2850   23.2380   34.9820 N   0  0  0  0  0  0  0  0  0  0  0  0
   46.3810   24.1450   35.9700 C   0  0  0  0  0  0  0  0  0  0  0  0
   47.3680   25.0290   36.3200 C   0  0  0  0  0  0  0  0  0  0  0  0
   47.2270   25.8740   37.4010 C   0  0  0  0  0  0  0  0  0  0  0  0
   46.0470   25.7780   38.1050 C   0  0  0  0  0  0  0  0  0  0  0  0
   45.0760   24.8870   37.7350 C   0  0  0  0  0  0  0  0  0  0  0  0
   45.1940   24.0360   36.6630 C   0  0  0  0  0  0  0  0  0  0  0  0
   37.8683   25.5440   36.7702 H   0  0  0  0  0  0  0  0  0  0  0  0
   36.7250   24.3952   36.1291 H   0  0  0  0  0  0  0  0  0  0  0  0
   37.4634   24.6466   38.8779 H   0  0  0  0  0  0  0  0  0  0  0  0
   36.6453   23.2240   38.2155 H   0  0  0  0  0  0  0  0  0  0  0  0
   39.2122   23.1782   39.3335 H   0  0  0  0  0  0  0  0  0  0  0  0
   38.6900   21.9681   38.2072 H   0  0  0  0  0  0  0  0  0  0  0  0
   40.1006   24.6749   37.5794 H   0  0  0  0  0  0  0  0  0  0  0  0
   37.7809   21.3420   35.2483 H   0  0  0  0  0  0  0  0  0  0  0  0
   38.1413   20.5063   32.8819 H   0  0  0  0  0  0  0  0  0  0  0  0
   40.3520   24.0344   31.9899 H   0  0  0  0  0  0  0  0  0  0  0  0
   40.4196   20.8574   37.3944 H   0  0  0  0  0  0  0  0  0  0  0  0
   43.0141   20.4539   36.7681 H   0  0  0  0  0  0  0  0  0  0  0  0
   44.7392   21.8202   34.3980 H   0  0  0  0  0  0  0  0  0  0  0  0
   47.0033   23.0495   34.2683 H   0  0  0  0  0  0  0  0  0  0  0  0
   48.2930   25.0655   35.7258 H   0  0  0  0  0  0  0  0  0  0  0  0
   48.0150   26.5867   37.6858 H   0  0  0  0  0  0  0  0  0  0  0  0
   45.8825   26.4271   38.9777 H   0  0  0  0  0  0  0  0  0  0  0  0
   44.1506   24.8504   38.3285 H   0  0  0  0  0  0  0  0  0  0  0  0
  1  2  1  0
  1  5  1  0
  2  3  1  0
  3  4  1  0
  5  4  1  0
  6  1  1  0
  7  6  2  0
  8  7  1  0
  9 10  1  0
  9  8  2  0
 10 11  2  0
 11  6  1  0
 12 13  2  0
 12  5  1  0
 14 13  1  0
 15 16  1  0
 15 14  2  0
 16 12  1  0
 17 15  1  0
 17 25  1  0
 18 17  2  0
 19 18  1  0
 19 20  1  0
 20 21  2  0
 20 25  1  0
 21 22  1  0
 22 23  2  0
 24 23  1  0
 25 24  2  0
  2 26  1  0
  2 27  1  0
  3 28  1  0
  3 29  1  0
  4 30  1  0
  4 31  1  0
  5 32  1  1
  7 33  1  0
  8 34  1  0
 10 35  1  0
 13 36  1  0
 14 37  1  0
 18 38  1  0
 19 39  1  0
 21 40  1  0
 22 41  1  0
 23 42  1  0
 24 43  1  0
M  ISO  8  26  13  27  13  28  13  29  13  30  13  31  13  32  13  33  14
M  ISO  8  34  14  35  14  36  14  37  14  38  14  39   9  40  14  41  14
M  ISO  2  42  14  43  14
M  END
>  <minimizedAffinity>  (1) 
-5.26993561

>  <minimizedRMSD>  (1) 
2.52252388

$$$$
