
     RDKit          3D

 43 47  0  0  1  0  0  0  0  0999 V2000
   38.7480   23.7150   36.0610 N   0  0  0  0  0  0  0  0  0  0  0  0
   37.5740   24.3720   36.6060 C   0  0  0  0  0  0  0  0  0  0  0  0
   37.4550   23.7050   37.9770 C   0  0  0  0  0  0  0  0  0  0  0  0
   38.7510   22.9480   38.1810 C   0  0  0  0  0  0  0  0  0  0  0  0
   39.6400   23.6850   37.2240 C   0  0  1  0  0  0  0  0  0  0  0  0
   38.9740   23.2310   34.7340 C   0  0  0  0  0  0  0  0  0  0  0  0
   38.5840   21.9210   34.3650 C   0  0  0  0  0  0  0  0  0  0  0  0
   38.8410   21.5310   33.0510 C   0  0  0  0  0  0  0  0  0  0  0  0
   39.4510   22.4370   32.2120 N   0  0  0  0  0  0  0  0  0  0  0  0
   39.7970   23.6690   32.6280 C   0  0  0  0  0  0  0  0  0  0  0  0
   39.5780   24.1180   33.8920 N   0  0  0  0  0  0  0  0  0  0  0  0
   40.9330   23.0560   36.9860 C   0  0  0  0  0  0  0  0  0  0  0  0
   41.2540   21.7280   37.1590 C   0  0  0  0  0  0  0  0  0  0  0  0
   42.5690   21.5670   36.8240 C   0  0  0  0  0  0  0  0  0  0  0  0
   43.0280   22.8260   36.4460 C   0  0  0  0  0  0  0  0  0  0  0  0
   42.0420   23.6260   36.5630 O   0  0  0  0  0  0  0  0  0  0  0  0
   44.4240   22.9380   36.0330 C   0  0  0  0  0  0  0  0  0  0  0  0
   45.0010   22.1500   35.1170 N   0  0  0  0  0  0  0  0  0  0  0  0
   46.2750   22.2200   34.7120 C   0  0  0  0  0  0  0  0  0  0  0  0
   47.0990   23.1520   35.2420 N   0  0  0  0  0  0  0  0  0  0  0  0
   46.6250   24.0030   36.1770 C   0  0  0  0  0  0  0  0  0  0  0  0
   47.4640   24.9410   36.7080 C   0  0  0  0  0  0  0  0  0  0  0  0
   47.0180   25.8240   37.6610 C   0  0  0  0  0  0  0  0  0  0  0  0
   45.6820   25.7260   38.0650 C   0  0  0  0  0  0  0  0  0  0  0  0
   44.8920   24.7560   37.4870 C   0  0  0  0  0  0  0  0  0  0  0  0
   45.3000   23.8690   36.5450 C   0  0  0  0  0  0  0  0  0  0  0  0
   37.7288   25.4570   36.6999 H   0  0  0  0  0  0  0  0  0  0  0  0
   36.6748   24.2713   35.9805 H   0  0  0  0  0  0  0  0  0  0  0  0
   37.3270   24.4642   38.7626 H   0  0  0  0  0  0  0  0  0  0  0  0
   36.5830   23.0363   38.0278 H   0  0  0  0  0  0  0  0  0  0  0  0
   39.1116   23.0287   39.2171 H   0  0  0  0  0  0  0  0  0  0  0  0
   38.6849   21.8636   38.0087 H   0  0  0  0  0  0  0  0  0  0  0  0
   39.9829   24.6706   37.5718 H   0  0  0  0  0  0  0  0  0  0  0  0
   38.1002   21.2416   35.0822 H   0  0  0  0  0  0  0  0  0  0  0  0
   38.5643   20.5278   32.6946 H   0  0  0  0  0  0  0  0  0  0  0  0
   40.2812   24.3465   31.9093 H   0  0  0  0  0  0  0  0  0  0  0  0
   40.5726   20.9370   37.5055 H   0  0  0  0  0  0  0  0  0  0  0  0
   43.1478   20.6319   36.8481 H   0  0  0  0  0  0  0  0  0  0  0  0
   46.6506   21.5212   33.9500 H   0  0  0  0  0  0  0  0  0  0  0  0
   48.5091   24.9899   36.3685 H   0  0  0  0  0  0  0  0  0  0  0  0
   47.6883   26.5823   38.0919 H   0  0  0  0  0  0  0  0  0  0  0  0
   45.2722   26.4068   38.8256 H   0  0  0  0  0  0  0  0  0  0  0  0
   43.8442   24.6960   37.8166 H   0  0  0  0  0  0  0  0  0  0  0  0
  1  2  1  0
  1  5  1  0
  2  3  1  0
  3  4  1  0
  5  4  1  0
  6  1  1  0
  7  6  2  0
  8  7  1  0
  9 10  1  0
  9  8  2  0
 10 11  2  0
 11  6  1  0
 12 13  2  0
 12  5  1  0
 14 13  1  0
 15 16  1  0
 15 14  2  0
 16 12  1  0
 17 15  1  0
 17 26  1  0
 18 17  2  0
 19 18  1  0
 19 20  2  0
 20 21  1  0
 21 26  2  0
 21 22  1  0
 22 23  2  0
 23 24  1  0
 25 24  2  0
 26 25  1  0
  2 27  1  0
  2 28  1  0
  3 29  1  0
  3 30  1  0
  4 31  1  0
  4 32  1  0
  5 33  1  1
  7 34  1  0
  8 35  1  0
 10 36  1  0
 13 37  1  0
 14 38  1  0
 19 39  1  0
 22 40  1  0
 23 41  1  0
 24 42  1  0
 25 43  1  0
M  ISO  8  27  13  28  13  29  13  30  13  31  13  32  13  33  13  34  14
M  ISO  8  35  14  36  14  37  14  38  14  39  14  40  14  41  14  42  14
M  ISO  1  43  14
M  END
>  <minimizedAffinity>  (1) 
-5.09448814

>  <minimizedRMSD>  (1) 
2.89845467

$$$$
