
     RDKit          3D

 39 42  0  0  1  0  0  0  0  0999 V2000
   38.8350   23.7630   36.2570 N   0  0  0  0  0  0  0  0  0  0  0  0
   37.7540   24.5690   36.8070 C   0  0  0  0  0  0  0  0  0  0  0  0
   37.6140   23.9760   38.2060 C   0  0  0  0  0  0  0  0  0  0  0  0
   38.8360   23.0930   38.4020 C   0  0  0  0  0  0  0  0  0  0  0  0
   39.7680   23.6810   37.3880 C   0  0  1  0  0  0  0  0  0  0  0  0
   38.9480   23.2050   34.9490 C   0  0  0  0  0  0  0  0  0  0  0  0
   38.3650   21.9740   34.6160 C   0  0  0  0  0  0  0  0  0  0  0  0
   38.5380   21.5140   33.3090 C   0  0  0  0  0  0  0  0  0  0  0  0
   39.2680   22.2940   32.4350 N   0  0  0  0  0  0  0  0  0  0  0  0
   39.7980   23.4560   32.8070 C   0  0  0  0  0  0  0  0  0  0  0  0
   39.6610   23.9430   34.0490 N   0  0  0  0  0  0  0  0  0  0  0  0
   40.9660   22.9040   37.1230 C   0  0  0  0  0  0  0  0  0  0  0  0
   41.1140   21.5240   37.3020 C   0  0  0  0  0  0  0  0  0  0  0  0
   42.3980   21.1810   36.9340 C   0  0  0  0  0  0  0  0  0  0  0  0
   42.9750   22.3850   36.5440 C   0  0  0  0  0  0  0  0  0  0  0  0
   42.1280   23.3510   36.6650 O   0  0  0  0  0  0  0  0  0  0  0  0
   44.3590   22.5610   36.0570 C   0  0  0  0  0  0  0  0  0  0  0  0
   44.9900   23.7490   36.3720 C   0  0  0  0  0  0  0  0  0  0  0  0
   46.3010   23.9720   35.9370 C   0  0  0  0  0  0  0  0  0  0  0  0
   46.8520   22.9380   35.2100 C   0  0  0  0  0  0  0  0  0  0  0  0
   46.2650   21.7360   34.8710 C   0  0  0  0  0  0  0  0  0  0  0  0
   44.9620   21.5580   35.3240 C   0  0  0  0  0  0  0  0  0  0  0  0
   38.0271   25.6338   36.8474 H   0  0  0  0  0  0  0  0  0  0  0  0
   36.8280   24.5423   36.2138 H   0  0  0  0  0  0  0  0  0  0  0  0
   37.5932   24.7755   38.9613 H   0  0  0  0  0  0  0  0  0  0  0  0
   36.6794   23.4060   38.3140 H   0  0  0  0  0  0  0  0  0  0  0  0
   39.2394   23.1795   39.4217 H   0  0  0  0  0  0  0  0  0  0  0  0
   38.6464   22.0166   38.2782 H   0  0  0  0  0  0  0  0  0  0  0  0
   40.2386   24.6290   37.6876 H   0  0  0  0  0  0  0  0  0  0  0  0
   37.7938   21.3935   35.3554 H   0  0  0  0  0  0  0  0  0  0  0  0
   38.1045   20.5564   32.9848 H   0  0  0  0  0  0  0  0  0  0  0  0
   40.3693   24.0385   32.0692 H   0  0  0  0  0  0  0  0  0  0  0  0
   40.3414   20.8337   37.6715 H   0  0  0  0  0  0  0  0  0  0  0  0
   42.8604   20.1830   36.9461 H   0  0  0  0  0  0  0  0  0  0  0  0
   44.4648   24.5151   36.9613 H   0  0  0  0  0  0  0  0  0  0  0  0
   46.8493   24.8997   36.1577 H   0  0  0  0  0  0  0  0  0  0  0  0
   47.8831   23.0894   34.8581 H   0  0  0  0  0  0  0  0  0  0  0  0
   46.7918   20.9705   34.2824 H   0  0  0  0  0  0  0  0  0  0  0  0
   44.4178   20.6284   35.1008 H   0  0  0  0  0  0  0  0  0  0  0  0
  1  2  1  0
  1  5  1  0
  2  3  1  0
  3  4  1  0
  5  4  1  0
  6  1  1  0
  7  6  2  0
  8  7  1  0
  9 10  1  0
  9  8  2  0
 10 11  2  0
 11  6  1  0
 12 13  2  0
 12  5  1  0
 14 13  1  0
 15 16  1  0
 15 14  2  0
 16 12  1  0
 17 18  2  0
 17 15  1  0
 19 18  1  0
 20 19  2  0
 21 20  1  0
 21 22  2  0
 22 17  1  0
  2 23  1  0
  2 24  1  0
  3 25  1  0
  3 26  1  0
  4 27  1  0
  4 28  1  0
  5 29  1  1
  7 30  1  0
  8 31  1  0
 10 32  1  0
 13 33  1  0
 14 34  1  0
 18 35  1  0
 19 36  1  0
 20 37  1  0
 21 38  1  0
 22 39  1  0
M  ISO  8  23  13  24  13  25  13  26  13  27  13  28  13  29  13  30  14
M  ISO  8  31  14  32  14  33  14  34  14  35  14  36  14  37  14  38  14
M  ISO  1  39  14
M  END
>  <minimizedAffinity>  (1) 
-4.29556847

>  <minimizedRMSD>  (1) 
1.72525692

$$$$
