
     RDKit          3D

 41 44  0  0  1  0  0  0  0  0999 V2000
   38.8840   23.8010   36.1890 N   0  0  0  0  0  0  0  0  0  0  0  0
   37.8510   24.6680   36.7490 C   0  0  0  0  0  0  0  0  0  0  0  0
   37.6910   24.0860   38.1590 C   0  0  0  0  0  0  0  0  0  0  0  0
   38.8760   23.1650   38.3630 C   0  0  0  0  0  0  0  0  0  0  0  0
   39.8170   23.6910   37.3230 C   0  0  1  0  0  0  0  0  0  0  0  0
   38.9800   23.2230   34.8930 C   0  0  0  0  0  0  0  0  0  0  0  0
   38.3300   21.9900   34.5940 C   0  0  0  0  0  0  0  0  0  0  0  0
   38.4730   21.4830   33.3080 C   0  0  0  0  0  0  0  0  0  0  0  0
   39.2290   22.2040   32.4110 N   0  0  0  0  0  0  0  0  0  0  0  0
   39.8120   23.3500   32.7480 C   0  0  0  0  0  0  0  0  0  0  0  0
   39.7090   23.8930   33.9840 N   0  0  0  0  0  0  0  0  0  0  0  0
   40.9940   22.8750   37.0740 C   0  0  0  0  0  0  0  0  0  0  0  0
   41.1030   21.4990   37.3150 C   0  0  0  0  0  0  0  0  0  0  0  0
   42.3640   21.1150   36.9500 C   0  0  0  0  0  0  0  0  0  0  0  0
   42.9810   22.2780   36.4960 C   0  0  0  0  0  0  0  0  0  0  0  0
   42.1530   23.2750   36.5840 O   0  0  0  0  0  0  0  0  0  0  0  0
   44.3190   22.3660   36.0110 N   0  0  0  0  0  0  0  0  0  0  0  0
   45.4450   21.4710   35.7800 C   0  0  0  0  0  0  0  0  0  0  0  0
   46.7060   22.2520   36.0460 C   0  0  0  0  0  0  0  0  0  0  0  0
   46.1680   23.6440   36.4120 C   0  0  0  0  0  0  0  0  0  0  0  0
   44.9150   23.6360   35.5570 C   0  0  0  0  0  0  0  0  0  0  0  0
   38.1819   25.7165   36.7827 H   0  0  0  0  0  0  0  0  0  0  0  0
   36.9191   24.6886   36.1650 H   0  0  0  0  0  0  0  0  0  0  0  0
   37.6982   24.8910   38.9086 H   0  0  0  0  0  0  0  0  0  0  0  0
   36.7374   23.5488   38.2691 H   0  0  0  0  0  0  0  0  0  0  0  0
   39.2952   23.2617   39.3754 H   0  0  0  0  0  0  0  0  0  0  0  0
   38.6438   22.0938   38.2696 H   0  0  0  0  0  0  0  0  0  0  0  0
   40.3226   24.6280   37.5993 H   0  0  0  0  0  0  0  0  0  0  0  0
   37.7370   21.4593   35.3534 H   0  0  0  0  0  0  0  0  0  0  0  0
   37.9971   20.5353   33.0158 H   0  0  0  0  0  0  0  0  0  0  0  0
   40.4047   23.8811   31.9886 H   0  0  0  0  0  0  0  0  0  0  0  0
   40.3174   20.8463   37.7234 H   0  0  0  0  0  0  0  0  0  0  0  0
   42.7973   20.1054   37.0035 H   0  0  0  0  0  0  0  0  0  0  0  0
   45.3860   20.6095   36.4614 H   0  0  0  0  0  0  0  0  0  0  0  0
   45.4339   21.0929   34.7471 H   0  0  0  0  0  0  0  0  0  0  0  0
   47.2754   21.8147   36.8794 H   0  0  0  0  0  0  0  0  0  0  0  0
   47.4019   22.2623   35.1941 H   0  0  0  0  0  0  0  0  0  0  0  0
   45.9371   23.7299   37.4841 H   0  0  0  0  0  0  0  0  0  0  0  0
   46.8583   24.4826   36.2381 H   0  0  0  0  0  0  0  0  0  0  0  0
   45.1513   23.6176   34.4828 H   0  0  0  0  0  0  0  0  0  0  0  0
   44.2698   24.5205   35.6634 H   0  0  0  0  0  0  0  0  0  0  0  0
  1  2  1  0
  1  5  1  0
  2  3  1  0
  3  4  1  0
  5  4  1  0
  6  1  1  0
  7  6  2  0
  8  7  1  0
  9 10  1  0
  9  8  2  0
 10 11  2  0
 11  6  1  0
 12 13  2  0
 12  5  1  0
 14 13  1  0
 15 16  1  0
 15 14  2  0
 16 12  1  0
 17 15  1  0
 18 17  1  0
 18 19  1  0
 19 20  1  0
 21 17  1  0
 21 20  1  0
  2 22  1  0
  2 23  1  0
  3 24  1  0
  3 25  1  0
  4 26  1  0
  4 27  1  0
  5 28  1  1
  7 29  1  0
  8 30  1  0
 10 31  1  0
 13 32  1  0
 14 33  1  0
 18 34  1  0
 18 35  1  0
 19 36  1  0
 19 37  1  0
 20 38  1  0
 20 39  1  0
 21 40  1  0
 21 41  1  0
M  ISO  8  22  13  23  13  24  13  25  13  26  13  27  13  28  13  29  14
M  ISO  8  30  14  31  14  32  14  33  14  34  13  35  13  36  13  37  13
M  ISO  4  38  13  39  13  40  13  41  13
M  END
>  <minimizedAffinity>  (1) 
-4.22901487

>  <minimizedRMSD>  (1) 
1.62670028

$$$$
