
     RDKit          3D

 43 46  0  0  1  0  0  0  0  0999 V2000
   38.8580   23.8030   36.2080 N   0  0  0  0  0  0  0  0  0  0  0  0
   37.8240   24.6630   36.7520 C   0  0  0  0  0  0  0  0  0  0  0  0
   37.6720   24.1130   38.1700 C   0  0  0  0  0  0  0  0  0  0  0  0
   38.8370   23.1620   38.3720 C   0  0  0  0  0  0  0  0  0  0  0  0
   39.7850   23.6980   37.3410 C   0  0  1  0  0  0  0  0  0  0  0  0
   38.9550   23.2160   34.9100 C   0  0  0  0  0  0  0  0  0  0  0  0
   38.3190   22.0040   34.6050 C   0  0  0  0  0  0  0  0  0  0  0  0
   38.4620   21.4930   33.3190 C   0  0  0  0  0  0  0  0  0  0  0  0
   39.2230   22.2160   32.4260 N   0  0  0  0  0  0  0  0  0  0  0  0
   39.8060   23.3610   32.7650 C   0  0  0  0  0  0  0  0  0  0  0  0
   39.6970   23.8960   33.9980 N   0  0  0  0  0  0  0  0  0  0  0  0
   40.9640   22.8800   37.0910 C   0  0  0  0  0  0  0  0  0  0  0  0
   41.0330   21.4880   37.2210 C   0  0  0  0  0  0  0  0  0  0  0  0
   42.3070   21.1110   36.8960 C   0  0  0  0  0  0  0  0  0  0  0  0
   42.9630   22.2750   36.5830 C   0  0  0  0  0  0  0  0  0  0  0  0
   42.1580   23.2950   36.7040 O   0  0  0  0  0  0  0  0  0  0  0  0
   44.2980   22.6290   36.1630 N   0  0  0  0  0  0  0  0  0  0  0  0
   44.6540   23.9930   36.5540 C   0  0  0  0  0  0  0  0  0  0  0  0
   45.4350   24.5390   35.3580 C   0  0  0  0  0  0  0  0  0  0  0  0
   46.6870   23.8710   35.1890 N   0  0  0  0  0  0  0  0  0  0  0  0
   46.6480   22.5720   35.8270 C   0  0  0  0  0  0  0  0  0  0  0  0
   45.3350   21.9150   35.4440 C   0  0  0  0  0  0  0  0  0  0  0  0
   38.1435   25.7155   36.7630 H   0  0  0  0  0  0  0  0  0  0  0  0
   36.8902   24.6587   36.1706 H   0  0  0  0  0  0  0  0  0  0  0  0
   37.7134   24.9308   38.9045 H   0  0  0  0  0  0  0  0  0  0  0  0
   36.7061   23.6043   38.3054 H   0  0  0  0  0  0  0  0  0  0  0  0
   39.2532   23.2347   39.3876 H   0  0  0  0  0  0  0  0  0  0  0  0
   38.5904   22.0951   38.2677 H   0  0  0  0  0  0  0  0  0  0  0  0
   40.2872   24.6348   37.6241 H   0  0  0  0  0  0  0  0  0  0  0  0
   37.7235   21.4721   35.3616 H   0  0  0  0  0  0  0  0  0  0  0  0
   37.9850   20.5462   33.0256 H   0  0  0  0  0  0  0  0  0  0  0  0
   40.4016   23.8940   32.0092 H   0  0  0  0  0  0  0  0  0  0  0  0
   40.2141   20.8207   37.5278 H   0  0  0  0  0  0  0  0  0  0  0  0
   42.7185   20.0909   36.8874 H   0  0  0  0  0  0  0  0  0  0  0  0
   43.7510   24.5940   36.7365 H   0  0  0  0  0  0  0  0  0  0  0  0
   45.2379   24.0236   37.4858 H   0  0  0  0  0  0  0  0  0  0  0  0
   44.8330   24.4018   34.4476 H   0  0  0  0  0  0  0  0  0  0  0  0
   45.6391   25.6042   35.5418 H   0  0  0  0  0  0  0  0  0  0  0  0
   46.8762   23.7512   34.1836 H   0  0  0  0  0  0  0  0  0  0  0  0
   47.4912   21.9572   35.4790 H   0  0  0  0  0  0  0  0  0  0  0  0
   46.7258   22.6744   36.9195 H   0  0  0  0  0  0  0  0  0  0  0  0
   45.1709   21.9955   34.3593 H   0  0  0  0  0  0  0  0  0  0  0  0
   45.3340   20.8449   35.6988 H   0  0  0  0  0  0  0  0  0  0  0  0
  1  2  1  0
  1  5  1  0
  2  3  1  0
  3  4  1  0
  5  4  1  0
  6  1  1  0
  7  6  2  0
  8  7  1  0
  9 10  1  0
  9  8  2  0
 10 11  2  0
 11  6  1  0
 12 13  2  0
 12  5  1  0
 14 13  1  0
 15 16  1  0
 15 14  2  0
 16 12  1  0
 17 18  1  0
 17 15  1  0
 19 18  1  0
 20 19  1  0
 20 21  1  0
 22 21  1  0
 22 17  1  0
  2 23  1  0
  2 24  1  0
  3 25  1  0
  3 26  1  0
  4 27  1  0
  4 28  1  0
  5 29  1  1
  7 30  1  0
  8 31  1  0
 10 32  1  0
 13 33  1  0
 14 34  1  0
 18 35  1  0
 18 36  1  0
 19 37  1  0
 19 38  1  0
 20 39  1  0
 21 40  1  0
 21 41  1  0
 22 42  1  0
 22 43  1  0
M  ISO  8  23  13  24  13  25  13  26  13  27  13  28  13  29  13  30  14
M  ISO  8  31  14  32  14  33  14  34  14  35  13  36  13  37  13  38  13
M  ISO  5  39   5  40  13  41  13  42  13  43  13
M  END
>  <minimizedAffinity>  (1) 
-4.19864988

>  <minimizedRMSD>  (1) 
1.70829809

$$$$
