
     RDKit          3D

 38 40  0  0  1  0  0  0  0  0999 V2000
   38.8630   23.8070   36.3580 N   0  0  0  0  0  0  0  0  0  0  0  0
   37.8720   24.6790   36.9680 C   0  0  0  0  0  0  0  0  0  0  0  0
   37.8040   24.1190   38.3880 C   0  0  0  0  0  0  0  0  0  0  0  0
   38.9880   23.1760   38.5130 C   0  0  0  0  0  0  0  0  0  0  0  0
   39.8720   23.6970   37.4220 C   0  0  1  0  0  0  0  0  0  0  0  0
   38.8520   23.2190   35.0620 C   0  0  0  0  0  0  0  0  0  0  0  0
   38.1690   22.0240   34.7910 C   0  0  0  0  0  0  0  0  0  0  0  0
   38.2220   21.5280   33.4870 C   0  0  0  0  0  0  0  0  0  0  0  0
   38.9380   22.2410   32.5500 N   0  0  0  0  0  0  0  0  0  0  0  0
   39.5680   23.3690   32.8600 C   0  0  0  0  0  0  0  0  0  0  0  0
   39.5470   23.8860   34.0960 N   0  0  0  0  0  0  0  0  0  0  0  0
   41.0050   22.8400   37.0920 C   0  0  0  0  0  0  0  0  0  0  0  0
   41.1530   21.4910   37.4280 C   0  0  0  0  0  0  0  0  0  0  0  0
   42.3680   21.0700   36.9170 C   0  0  0  0  0  0  0  0  0  0  0  0
   42.8960   22.1970   36.2940 C   0  0  0  0  0  0  0  0  0  0  0  0
   42.0870   23.1880   36.4170 O   0  0  0  0  0  0  0  0  0  0  0  0
   44.2320   22.0730   35.6280 C   0  0  0  0  0  0  0  0  0  0  0  0
   45.1800   23.1290   36.0610 C   0  0  0  0  0  0  0  0  0  0  0  0
   44.8650   20.7220   35.9390 C   0  0  0  0  0  0  0  0  0  0  0  0
   38.2039   25.7277   36.9654 H   0  0  0  0  0  0  0  0  0  0  0  0
   36.9044   24.6922   36.4449 H   0  0  0  0  0  0  0  0  0  0  0  0
   37.8811   24.9317   39.1252 H   0  0  0  0  0  0  0  0  0  0  0  0
   36.8511   23.6027   38.5764 H   0  0  0  0  0  0  0  0  0  0  0  0
   39.4693   23.2576   39.4988 H   0  0  0  0  0  0  0  0  0  0  0  0
   38.7342   22.1093   38.4256 H   0  0  0  0  0  0  0  0  0  0  0  0
   40.4110   24.6257   37.6609 H   0  0  0  0  0  0  0  0  0  0  0  0
   37.6111   21.4961   35.5785 H   0  0  0  0  0  0  0  0  0  0  0  0
   37.7070   20.5948   33.2153 H   0  0  0  0  0  0  0  0  0  0  0  0
   40.1269   23.8975   32.0737 H   0  0  0  0  0  0  0  0  0  0  0  0
   40.4362   20.8778   37.9939 H   0  0  0  0  0  0  0  0  0  0  0  0
   42.8165   20.0681   36.9874 H   0  0  0  0  0  0  0  0  0  0  0  0
   44.0457   22.1785   34.5490 H   0  0  0  0  0  0  0  0  0  0  0  0
   45.2121   23.1647   37.1600 H   0  0  0  0  0  0  0  0  0  0  0  0
   46.1837   22.9026   35.6720 H   0  0  0  0  0  0  0  0  0  0  0  0
   44.8470   24.1026   35.6720 H   0  0  0  0  0  0  0  0  0  0  0  0
   44.9275   20.5886   37.0291 H   0  0  0  0  0  0  0  0  0  0  0  0
   44.2489   19.9201   35.5062 H   0  0  0  0  0  0  0  0  0  0  0  0
   45.8755   20.6822   35.5062 H   0  0  0  0  0  0  0  0  0  0  0  0
  1  2  1  0
  1  5  1  0
  2  3  1  0
  3  4  1  0
  5  4  1  0
  6  1  1  0
  7  6  2  0
  8  7  1  0
  9 10  1  0
  9  8  2  0
 10 11  2  0
 11  6  1  0
 12  5  1  0
 12 13  2  0
 14 13  1  0
 15 16  1  0
 15 14  2  0
 16 12  1  0
 17 19  1  0
 17 18  1  0
 17 15  1  0
  2 20  1  0
  2 21  1  0
  3 22  1  0
  3 23  1  0
  4 24  1  0
  4 25  1  0
  5 26  1  1
  7 27  1  0
  8 28  1  0
 10 29  1  0
 13 30  1  0
 14 31  1  0
 17 32  1  0
 18 33  1  0
 18 34  1  0
 18 35  1  0
 19 36  1  0
 19 37  1  0
 19 38  1  0
M  ISO  8  20  13  21  13  22  13  23  13  24  13  25  13  26  13  27  14
M  ISO  8  28  14  29  14  30  14  31  14  32   8  33   8  34   8  35   8
M  ISO  3  36   8  37   8  38   8
M  END
>  <minimizedAffinity>  (1) 
-4.05509663

>  <minimizedRMSD>  (1) 
0.920921326

$$$$
