
     RDKit          3D

 41 42  0  0  0  0  0  0  0  0999 V2000
   38.2590   23.5910   37.0180 C   0  0  0  0  0  0  0  0  0  0  0  0
   41.6510   21.9650   37.1170 C   0  0  0  0  0  0  0  0  0  0  0  0
   40.3240   22.2100   37.4490 C   0  0  0  0  0  0  0  0  0  0  0  0
   39.6570   23.2360   36.7610 C   0  0  0  0  0  0  0  0  0  0  0  0
   40.3290   23.9410   35.8090 N   0  0  0  0  0  0  0  0  0  0  0  0
   41.6180   23.6690   35.5190 C   0  0  0  0  0  0  0  0  0  0  0  0
   42.2730   22.6860   36.1700 N   0  0  0  0  0  0  0  0  0  0  0  0
   38.1970   24.1810   38.4370 C   0  0  0  0  0  0  0  0  0  0  0  0
   37.6500   24.5170   36.0220 C   0  0  0  0  0  0  0  0  0  0  0  0
   37.4170   22.3260   37.0240 C   0  0  0  0  0  0  0  0  0  0  0  0
   37.0400   21.8600   35.7100 C   0  0  0  0  0  0  0  0  0  0  0  0
   35.9820   21.0590   35.4770 C   0  0  0  0  0  0  0  0  0  0  0  0
   35.5650   20.6020   34.2900 C   0  0  0  0  0  0  0  0  0  0  0  0
   36.4510   21.1090   33.2260 C   0  0  0  0  0  0  0  0  0  0  0  0
   37.7440   22.1620   34.0930 S   0  0  0  0  0  0  0  0  0  0  0  0
   36.5170   20.9680   31.7630 C   0  0  0  0  0  0  0  0  0  0  0  0
   35.7370   22.1020   31.2260 C   0  0  0  0  0  0  0  0  0  0  0  0
   35.8890   19.6820   31.2710 C   0  0  0  0  0  0  0  0  0  0  0  0
   37.9540   20.9790   31.3340 C   0  0  0  0  0  0  0  0  0  0  0  0
   42.2008   21.1676   37.6383 H   0  0  0  0  0  0  0  0  0  0  0  0
   39.8136   21.6201   38.2245 H   0  0  0  0  0  0  0  0  0  0  0  0
   42.1387   24.2532   34.7459 H   0  0  0  0  0  0  0  0  0  0  0  0
   38.2822   23.3701   39.1753 H   0  0  0  0  0  0  0  0  0  0  0  0
   39.0254   24.8913   38.5753 H   0  0  0  0  0  0  0  0  0  0  0  0
   37.2390   24.7036   38.5753 H   0  0  0  0  0  0  0  0  0  0  0  0
   37.1192   25.3240   36.5483 H   0  0  0  0  0  0  0  0  0  0  0  0
   38.4410   24.9488   35.3912 H   0  0  0  0  0  0  0  0  0  0  0  0
   36.9402   23.9618   35.3912 H   0  0  0  0  0  0  0  0  0  0  0  0
   37.9926   21.5307   37.5201 H   0  0  0  0  0  0  0  0  0  0  0  0
   36.4838   22.5697   37.5529 H   0  0  0  0  0  0  0  0  0  0  0  0
   35.3987   20.7473   36.3560 H   0  0  0  0  0  0  0  0  0  0  0  0
   34.6945   19.9482   34.1324 H   0  0  0  0  0  0  0  0  0  0  0  0
   35.3298   22.6940   32.0589 H   0  0  0  0  0  0  0  0  0  0  0  0
   36.3902   22.7371   30.6096 H   0  0  0  0  0  0  0  0  0  0  0  0
   34.9102   21.7192   30.6096 H   0  0  0  0  0  0  0  0  0  0  0  0
   35.5889   19.0675   32.1326 H   0  0  0  0  0  0  0  0  0  0  0  0
   35.0038   19.9160   30.6614 H   0  0  0  0  0  0  0  0  0  0  0  0
   36.6179   19.1278   30.6614 H   0  0  0  0  0  0  0  0  0  0  0  0
   38.6020   20.9840   32.2229 H   0  0  0  0  0  0  0  0  0  0  0  0
   38.1639   20.0824   30.7322 H   0  0  0  0  0  0  0  0  0  0  0  0
   38.1501   21.8787   30.7322 H   0  0  0  0  0  0  0  0  0  0  0  0
  1 10  1  0
  1  8  1  0
  2  3  2  0
  4  1  1  0
  4  3  1  0
  5  4  2  0
  6  5  1  0
  6  7  2  0
  7  2  1  0
  9  1  1  0
 11 10  1  0
 12 11  2  0
 13 12  1  0
 14 15  1  0
 14 13  2  0
 15 11  1  0
 16 14  1  0
 17 16  1  0
 18 16  1  0
 19 16  1  0
  2 20  1  0
  3 21  1  0
  6 22  1  0
  8 23  1  0
  8 24  1  0
  8 25  1  0
  9 26  1  0
  9 27  1  0
  9 28  1  0
 10 29  1  0
 10 30  1  0
 12 31  1  0
 13 32  1  0
 17 33  1  0
 17 34  1  0
 17 35  1  0
 18 36  1  0
 18 37  1  0
 18 38  1  0
 19 39  1  0
 19 40  1  0
 19 41  1  0
M  ISO  8  20  14  21  14  22  14  23   8  24   8  25   8  26   8  27   8
M  ISO  8  28   8  29   8  30   8  31  14  32  14  33   8  34   8  35   8
M  ISO  6  36   8  37   8  38   8  39   8  40   8  41   8
M  END
>  <minimizedAffinity>  (1) 
-4.68323088

>  <minimizedRMSD>  (1) 
0.253699064

$$$$
