
     RDKit          3D

 36 39  0  0  1  0  0  0  0  0999 V2000
   38.7960   23.8410   36.3580 N   0  0  0  0  0  0  0  0  0  0  0  0
   37.8500   24.7400   36.9960 C   0  0  0  0  0  0  0  0  0  0  0  0
   37.8070   24.1820   38.4180 C   0  0  0  0  0  0  0  0  0  0  0  0
   38.9770   23.2130   38.5100 C   0  0  0  0  0  0  0  0  0  0  0  0
   39.8380   23.7000   37.3840 C   0  0  1  0  0  0  0  0  0  0  0  0
   38.7280   23.2510   35.0630 C   0  0  0  0  0  0  0  0  0  0  0  0
   38.0370   22.0530   34.8270 C   0  0  0  0  0  0  0  0  0  0  0  0
   38.0280   21.5520   33.5270 C   0  0  0  0  0  0  0  0  0  0  0  0
   38.6970   22.2620   32.5560 N   0  0  0  0  0  0  0  0  0  0  0  0
   39.3380   23.3950   32.8310 C   0  0  0  0  0  0  0  0  0  0  0  0
   39.3760   23.9190   34.0690 N   0  0  0  0  0  0  0  0  0  0  0  0
   40.9440   22.8360   37.0180 C   0  0  0  0  0  0  0  0  0  0  0  0
   41.1080   21.5030   37.4190 C   0  0  0  0  0  0  0  0  0  0  0  0
   42.2860   21.0580   36.8490 C   0  0  0  0  0  0  0  0  0  0  0  0
   42.7810   22.1410   36.1290 C   0  0  0  0  0  0  0  0  0  0  0  0
   41.9730   23.1570   36.2520 O   0  0  0  0  0  0  0  0  0  0  0  0
   44.0110   21.9670   35.4250 N   0  0  0  0  0  0  0  0  0  0  0  0
   43.8970   21.8300   34.1020 N   0  0  0  0  0  0  0  0  0  0  0  0
   45.1000   21.6750   33.5460 C   0  0  0  0  0  0  0  0  0  0  0  0
   46.0350   21.7160   34.5730 C   0  0  0  0  0  0  0  0  0  0  0  0
   45.3140   21.9010   35.7500 C   0  0  0  0  0  0  0  0  0  0  0  0
   38.2120   25.7786   36.9831 H   0  0  0  0  0  0  0  0  0  0  0  0
   36.8683   24.7810   36.5015 H   0  0  0  0  0  0  0  0  0  0  0  0
   37.9206   24.9927   39.1527 H   0  0  0  0  0  0  0  0  0  0  0  0
   36.8488   23.6865   38.6332 H   0  0  0  0  0  0  0  0  0  0  0  0
   39.4935   23.2934   39.4779 H   0  0  0  0  0  0  0  0  0  0  0  0
   38.6948   22.1521   38.4401 H   0  0  0  0  0  0  0  0  0  0  0  0
   40.4138   24.6110   37.6043 H   0  0  0  0  0  0  0  0  0  0  0  0
   37.5191   21.5263   35.6420 H   0  0  0  0  0  0  0  0  0  0  0  0
   37.5020   20.6170   33.2839 H   0  0  0  0  0  0  0  0  0  0  0  0
   39.8557   23.9223   32.0162 H   0  0  0  0  0  0  0  0  0  0  0  0
   40.4303   20.9231   38.0628 H   0  0  0  0  0  0  0  0  0  0  0  0
   42.7368   20.0591   36.9444 H   0  0  0  0  0  0  0  0  0  0  0  0
   45.3119   21.5400   32.4751 H   0  0  0  0  0  0  0  0  0  0  0  0
   47.1266   21.6213   34.4758 H   0  0  0  0  0  0  0  0  0  0  0  0
   45.7348   21.9791   36.7633 H   0  0  0  0  0  0  0  0  0  0  0  0
  1  2  1  0
  1  5  1  0
  2  3  1  0
  3  4  1  0
  5  4  1  0
  6  1  1  0
  7  6  2  0
  8  7  1  0
  9 10  1  0
  9  8  2  0
 10 11  2  0
 11  6  1  0
 12  5  1  0
 12 13  2  0
 14 13  1  0
 15 16  1  0
 15 14  2  0
 16 12  1  0
 17 21  1  0
 17 15  1  0
 18 17  1  0
 19 18  2  0
 19 20  1  0
 20 21  2  0
  2 22  1  0
  2 23  1  0
  3 24  1  0
  3 25  1  0
  4 26  1  0
  4 27  1  0
  5 28  1  1
  7 29  1  0
  8 30  1  0
 10 31  1  0
 13 32  1  0
 14 33  1  0
 19 34  1  0
 20 35  1  0
 21 36  1  0
M  ISO  8  22  13  23  13  24  13  25  13  26  13  27  13  28  13  29  14
M  ISO  7  30  14  31  14  32  14  33  14  34  14  35  14  36  14
M  END
>  <minimizedAffinity>  (1) 
-3.9129436

>  <minimizedRMSD>  (1) 
0.843143225

$$$$
