
     RDKit          3D

 32 34  0  0  1  0  0  0  0  0999 V2000
   38.5880   23.8670   36.3080 N   0  0  0  0  0  0  0  0  0  0  0  0
   37.7520   24.8030   37.0280 C   0  0  0  0  0  0  0  0  0  0  0  0
   37.8370   24.2480   38.4560 C   0  0  0  0  0  0  0  0  0  0  0  0
   38.9720   23.2440   38.4310 C   0  0  0  0  0  0  0  0  0  0  0  0
   39.7280   23.7020   37.2200 C   0  0  1  0  0  0  0  0  0  0  0  0
   38.3730   23.2600   35.0380 C   0  0  0  0  0  0  0  0  0  0  0  0
   37.7500   22.0100   34.9100 C   0  0  0  0  0  0  0  0  0  0  0  0
   37.5800   21.4900   33.6300 C   0  0  0  0  0  0  0  0  0  0  0  0
   38.0350   22.2370   32.5640 N   0  0  0  0  0  0  0  0  0  0  0  0
   38.6230   23.4230   32.7380 C   0  0  0  0  0  0  0  0  0  0  0  0
   38.8080   23.9640   33.9550 N   0  0  0  0  0  0  0  0  0  0  0  0
   40.7720   22.8080   36.7540 C   0  0  0  0  0  0  0  0  0  0  0  0
   41.1160   21.5790   37.3350 C   0  0  0  0  0  0  0  0  0  0  0  0
   42.1520   21.0620   36.5760 C   0  0  0  0  0  0  0  0  0  0  0  0
   42.3840   21.9990   35.5780 C   0  0  0  0  0  0  0  0  0  0  0  0
   41.5620   23.0020   35.7130 O   0  0  0  0  0  0  0  0  0  0  0  0
   43.4280   21.8520   34.5200 C   0  0  0  0  0  0  0  0  0  0  0  0
   38.1511   25.8264   36.9696 H   0  0  0  0  0  0  0  0  0  0  0  0
   36.7270   24.8836   36.6370 H   0  0  0  0  0  0  0  0  0  0  0  0
   38.0535   25.0558   39.1706 H   0  0  0  0  0  0  0  0  0  0  0  0
   36.8899   23.7867   38.7725 H   0  0  0  0  0  0  0  0  0  0  0  0
   39.5880   23.3071   39.3402 H   0  0  0  0  0  0  0  0  0  0  0  0
   38.6488   22.1932   38.3948 H   0  0  0  0  0  0  0  0  0  0  0  0
   40.3489   24.5978   37.3685 H   0  0  0  0  0  0  0  0  0  0  0  0
   37.4055   21.4563   35.7959 H   0  0  0  0  0  0  0  0  0  0  0  0
   37.0978   20.5137   33.4738 H   0  0  0  0  0  0  0  0  0  0  0  0
   38.9688   23.9779   31.8534 H   0  0  0  0  0  0  0  0  0  0  0  0
   40.6537   21.1167   38.2196 H   0  0  0  0  0  0  0  0  0  0  0  0
   42.6801   20.1096   36.7310 H   0  0  0  0  0  0  0  0  0  0  0  0
   44.4117   21.7135   34.9923 H   0  0  0  0  0  0  0  0  0  0  0  0
   43.1953   20.9778   33.8942 H   0  0  0  0  0  0  0  0  0  0  0  0
   43.4458   22.7565   33.8942 H   0  0  0  0  0  0  0  0  0  0  0  0
  1  2  1  0
  1  5  1  0
  2  3  1  0
  4  3  1  0
  5  4  1  0
  6  1  1  0
  7  6  2  0
  8  7  1  0
  9 10  1  0
  9  8  2  0
 10 11  2  0
 11  6  1  0
 12  5  1  0
 12 13  2  0
 14 13  1  0
 15 16  1  0
 15 14  2  0
 16 12  1  0
 17 15  1  0
  2 18  1  0
  2 19  1  0
  3 20  1  0
  3 21  1  0
  4 22  1  0
  4 23  1  0
  5 24  1  1
  7 25  1  0
  8 26  1  0
 10 27  1  0
 13 28  1  0
 14 29  1  0
 17 30  1  0
 17 31  1  0
 17 32  1  0
M  ISO  8  18  13  19  13  20  13  21  13  22  13  23  13  24  13  25  14
M  ISO  7  26  14  27  14  28  14  29  14  30   8  31   8  32   8
M  END
>  <minimizedAffinity>  (1) 
-3.90622807

>  <minimizedRMSD>  (1) 
0.0933581963

$$$$
