
     RDKit          3D

 31 33  0  0  1  0  0  0  0  0999 V2000
   38.5820   23.8560   36.3040 N   0  0  0  0  0  0  0  0  0  0  0  0
   37.7210   24.7840   37.0280 C   0  0  0  0  0  0  0  0  0  0  0  0
   37.8430   24.2480   38.4570 C   0  0  0  0  0  0  0  0  0  0  0  0
   38.9740   23.2430   38.4270 C   0  0  0  0  0  0  0  0  0  0  0  0
   39.7250   23.7040   37.2150 C   0  0  1  0  0  0  0  0  0  0  0  0
   38.3610   23.2590   35.0310 C   0  0  0  0  0  0  0  0  0  0  0  0
   37.7470   22.0040   34.8990 C   0  0  0  0  0  0  0  0  0  0  0  0
   37.5740   21.4970   33.6120 C   0  0  0  0  0  0  0  0  0  0  0  0
   38.0160   22.2590   32.5520 N   0  0  0  0  0  0  0  0  0  0  0  0
   38.5920   23.4430   32.7360 C   0  0  0  0  0  0  0  0  0  0  0  0
   38.7840   23.9810   33.9540 N   0  0  0  0  0  0  0  0  0  0  0  0
   40.7650   22.8140   36.7400 C   0  0  0  0  0  0  0  0  0  0  0  0
   41.1200   21.5900   37.3210 C   0  0  0  0  0  0  0  0  0  0  0  0
   42.1480   21.0640   36.5620 C   0  0  0  0  0  0  0  0  0  0  0  0
   42.3670   21.9950   35.5530 C   0  0  0  0  0  0  0  0  0  0  0  0
   41.5440   22.9980   35.6890 O   0  0  0  0  0  0  0  0  0  0  0  0
   43.3720   21.8090   34.5420 N   0  0  0  0  0  0  0  0  0  0  0  0
   38.0887   25.8179   36.9523 H   0  0  0  0  0  0  0  0  0  0  0  0
   36.6891   24.8317   36.6499 H   0  0  0  0  0  0  0  0  0  0  0  0
   38.0765   25.0663   39.1541 H   0  0  0  0  0  0  0  0  0  0  0  0
   36.9034   23.7890   38.7981 H   0  0  0  0  0  0  0  0  0  0  0  0
   39.5932   23.3027   39.3342 H   0  0  0  0  0  0  0  0  0  0  0  0
   38.6498   22.1925   38.3904 H   0  0  0  0  0  0  0  0  0  0  0  0
   40.3410   24.6025   37.3675 H   0  0  0  0  0  0  0  0  0  0  0  0
   37.4133   21.4390   35.7819 H   0  0  0  0  0  0  0  0  0  0  0  0
   37.0992   20.5185   33.4475 H   0  0  0  0  0  0  0  0  0  0  0  0
   38.9264   24.0077   31.8532 H   0  0  0  0  0  0  0  0  0  0  0  0
   40.6662   21.1336   38.2130 H   0  0  0  0  0  0  0  0  0  0  0  0
   42.6785   20.1137   36.7217 H   0  0  0  0  0  0  0  0  0  0  0  0
   43.9600   20.9634   34.5498 H   0  0  0  0  0  0  0  0  0  0  0  0
   43.5040   22.5214   33.8099 H   0  0  0  0  0  0  0  0  0  0  0  0
  1  2  1  0
  1  5  1  0
  2  3  1  0
  4  3  1  0
  5  4  1  0
  6  1  1  0
  7  6  2  0
  8  7  1  0
  9 10  1  0
  9  8  2  0
 10 11  2  0
 11  6  1  0
 12  5  1  0
 12 13  2  0
 14 13  1  0
 15 16  1  0
 15 14  2  0
 16 12  1  0
 17 15  1  0
  2 18  1  0
  2 19  1  0
  3 20  1  0
  3 21  1  0
  4 22  1  0
  4 23  1  0
  5 24  1  1
  7 25  1  0
  8 26  1  0
 10 27  1  0
 13 28  1  0
 14 29  1  0
 17 30  1  0
 17 31  1  0
M  ISO  8  18  13  19  13  20  13  21  13  22  13  23  13  24  13  25  14
M  ISO  4  26  14  27  14  28  14  29  14
M  END
>  <minimizedAffinity>  (1) 
-3.90506029

>  <minimizedRMSD>  (1) 
0.0758678615

$$$$
