
     RDKit          3D

 37 39  0  0  0  0  0  0  0  0999 V2000
   38.1300   23.7720   37.0290 C   0  0  0  0  0  0  0  0  0  0  0  0
   41.4620   22.0280   37.2470 C   0  0  0  0  0  0  0  0  0  0  0  0
   40.1420   22.3310   37.5530 C   0  0  0  0  0  0  0  0  0  0  0  0
   39.5150   23.3540   36.8060 C   0  0  0  0  0  0  0  0  0  0  0  0
   40.2300   23.9860   35.8330 N   0  0  0  0  0  0  0  0  0  0  0  0
   41.5020   23.6580   35.5740 C   0  0  0  0  0  0  0  0  0  0  0  0
   42.1200   22.6830   36.2760 N   0  0  0  0  0  0  0  0  0  0  0  0
   38.0790   24.4170   38.4260 C   0  0  0  0  0  0  0  0  0  0  0  0
   37.5690   24.6740   35.9840 C   0  0  0  0  0  0  0  0  0  0  0  0
   37.2450   22.5460   37.0780 C   0  0  0  0  0  0  0  0  0  0  0  0
   37.0170   21.9200   35.7970 C   0  0  0  0  0  0  0  0  0  0  0  0
   35.9260   21.1840   35.5110 C   0  0  0  0  0  0  0  0  0  0  0  0
   35.6570   20.5850   34.3210 C   0  0  0  0  0  0  0  0  0  0  0  0
   36.7320   20.8520   33.3680 C   0  0  0  0  0  0  0  0  0  0  0  0
   37.9830   21.9180   34.2930 S   0  0  0  0  0  0  0  0  0  0  0  0
   36.9670   20.4850   32.0180 C   0  0  0  0  0  0  0  0  0  0  0  0
   36.0460   19.7880   31.3010 C   0  0  0  0  0  0  0  0  0  0  0  0
   36.4250   19.5030   29.9830 C   0  0  0  0  0  0  0  0  0  0  0  0
   37.6140   19.8970   29.4840 N   0  0  0  0  0  0  0  0  0  0  0  0
   38.4980   20.5860   30.2300 C   0  0  0  0  0  0  0  0  0  0  0  0
   38.1460   20.8740   31.5190 N   0  0  0  0  0  0  0  0  0  0  0  0
   41.9787   21.2368   37.8102 H   0  0  0  0  0  0  0  0  0  0  0  0
   39.6037   21.7943   38.3481 H   0  0  0  0  0  0  0  0  0  0  0  0
   42.0498   24.1881   34.7810 H   0  0  0  0  0  0  0  0  0  0  0  0
   38.1410   23.6325   39.1946 H   0  0  0  0  0  0  0  0  0  0  0  0
   38.9251   25.1105   38.5408 H   0  0  0  0  0  0  0  0  0  0  0  0
   37.1344   24.9689   38.5408 H   0  0  0  0  0  0  0  0  0  0  0  0
   37.0468   25.5136   36.4662 H   0  0  0  0  0  0  0  0  0  0  0  0
   38.3857   25.0615   35.3572 H   0  0  0  0  0  0  0  0  0  0  0  0
   36.8603   24.1128   35.3572 H   0  0  0  0  0  0  0  0  0  0  0  0
   37.7178   21.8074   37.7420 H   0  0  0  0  0  0  0  0  0  0  0  0
   36.2628   22.8837   37.4402 H   0  0  0  0  0  0  0  0  0  0  0  0
   35.1850   21.0560   36.3138 H   0  0  0  0  0  0  0  0  0  0  0  0
   34.7598   19.9859   34.1064 H   0  0  0  0  0  0  0  0  0  0  0  0
   35.0800   19.4729   31.7224 H   0  0  0  0  0  0  0  0  0  0  0  0
   35.7334   18.9422   29.3371 H   0  0  0  0  0  0  0  0  0  0  0  0
   39.4667   20.9050   29.8178 H   0  0  0  0  0  0  0  0  0  0  0  0
  1 10  1  0
  1  8  1  0
  2  3  2  0
  4  1  1  0
  4  3  1  0
  5  4  2  0
  6  5  1  0
  6  7  2  0
  7  2  1  0
  9  1  1  0
 11 10  1  0
 12 11  2  0
 13 12  1  0
 14 15  1  0
 14 13  2  0
 15 11  1  0
 16 14  1  0
 17 16  2  0
 18 17  1  0
 19 18  2  0
 19 20  1  0
 20 21  2  0
 21 16  1  0
  2 22  1  0
  3 23  1  0
  6 24  1  0
  8 25  1  0
  8 26  1  0
  8 27  1  0
  9 28  1  0
  9 29  1  0
  9 30  1  0
 10 31  1  0
 10 32  1  0
 12 33  1  0
 13 34  1  0
 17 35  1  0
 18 36  1  0
 20 37  1  0
M  ISO  8  22  14  23  14  24  14  25   8  26   8  27   8  28   8  29   8
M  ISO  8  30   8  31   8  32   8  33  14  34  14  35  14  36  14  37  14
M  END
>  <minimizedAffinity>  (1) 
-4.65853548

>  <minimizedRMSD>  (1) 
0.641140282

$$$$
