
     RDKit          3D

 37 39  0  0  0  0  0  0  0  0999 V2000
   38.1320   23.7590   37.0180 C   0  0  0  0  0  0  0  0  0  0  0  0
   41.4550   22.0170   37.2590 C   0  0  0  0  0  0  0  0  0  0  0  0
   40.1400   22.3270   37.5470 C   0  0  0  0  0  0  0  0  0  0  0  0
   39.5150   23.3510   36.8000 C   0  0  0  0  0  0  0  0  0  0  0  0
   40.2350   23.9840   35.8360 N   0  0  0  0  0  0  0  0  0  0  0  0
   41.5090   23.6580   35.5830 C   0  0  0  0  0  0  0  0  0  0  0  0
   42.1230   22.6780   36.2890 N   0  0  0  0  0  0  0  0  0  0  0  0
   38.0670   24.4210   38.4060 C   0  0  0  0  0  0  0  0  0  0  0  0
   37.5720   24.6660   35.9730 C   0  0  0  0  0  0  0  0  0  0  0  0
   37.2480   22.5380   37.0710 C   0  0  0  0  0  0  0  0  0  0  0  0
   37.0140   21.9170   35.7830 C   0  0  0  0  0  0  0  0  0  0  0  0
   35.9210   21.1850   35.4870 C   0  0  0  0  0  0  0  0  0  0  0  0
   35.6620   20.5900   34.2930 C   0  0  0  0  0  0  0  0  0  0  0  0
   36.7420   20.8510   33.3480 C   0  0  0  0  0  0  0  0  0  0  0  0
   37.9860   21.9080   34.2810 S   0  0  0  0  0  0  0  0  0  0  0  0
   36.9680   20.4740   31.9980 C   0  0  0  0  0  0  0  0  0  0  0  0
   36.0230   19.7650   31.3020 C   0  0  0  0  0  0  0  0  0  0  0  0
   36.3990   19.4740   29.9850 C   0  0  0  0  0  0  0  0  0  0  0  0
   37.5710   19.8500   29.4500 N   0  0  0  0  0  0  0  0  0  0  0  0
   38.4510   20.5390   30.1760 C   0  0  0  0  0  0  0  0  0  0  0  0
   38.1190   20.8400   31.4600 N   0  0  0  0  0  0  0  0  0  0  0  0
   41.9635   21.2232   37.8258 H   0  0  0  0  0  0  0  0  0  0  0  0
   39.5937   21.7909   38.3370 H   0  0  0  0  0  0  0  0  0  0  0  0
   42.0619   24.1905   34.7951 H   0  0  0  0  0  0  0  0  0  0  0  0
   38.1429   23.6479   39.1849 H   0  0  0  0  0  0  0  0  0  0  0  0
   38.8997   25.1319   38.5126 H   0  0  0  0  0  0  0  0  0  0  0  0
   37.1120   24.9563   38.5126 H   0  0  0  0  0  0  0  0  0  0  0  0
   37.0530   25.5065   36.4569 H   0  0  0  0  0  0  0  0  0  0  0  0
   38.3894   25.0518   35.3460 H   0  0  0  0  0  0  0  0  0  0  0  0
   36.8609   24.1081   35.3460 H   0  0  0  0  0  0  0  0  0  0  0  0
   37.7233   21.7965   37.7301 H   0  0  0  0  0  0  0  0  0  0  0  0
   36.2684   22.8732   37.4426 H   0  0  0  0  0  0  0  0  0  0  0  0
   35.1723   21.0582   36.2829 H   0  0  0  0  0  0  0  0  0  0  0  0
   34.7639   19.9951   34.0704 H   0  0  0  0  0  0  0  0  0  0  0  0
   35.0614   19.4545   31.7367 H   0  0  0  0  0  0  0  0  0  0  0  0
   35.6969   18.9074   29.3558 H   0  0  0  0  0  0  0  0  0  0  0  0
   39.4151   20.8541   29.7503 H   0  0  0  0  0  0  0  0  0  0  0  0
  1 10  1  0
  1  8  1  0
  2  3  2  0
  4  1  1  0
  4  3  1  0
  5  4  2  0
  6  5  1  0
  6  7  2  0
  7  2  1  0
  9  1  1  0
 11 10  1  0
 12 11  2  0
 13 12  1  0
 14 15  1  0
 14 13  2  0
 15 11  1  0
 16 14  1  0
 17 16  2  0
 18 17  1  0
 19 18  2  0
 19 20  1  0
 20 21  2  0
 21 16  1  0
  2 22  1  0
  3 23  1  0
  6 24  1  0
  8 25  1  0
  8 26  1  0
  8 27  1  0
  9 28  1  0
  9 29  1  0
  9 30  1  0
 10 31  1  0
 10 32  1  0
 12 33  1  0
 13 34  1  0
 17 35  1  0
 18 36  1  0
 20 37  1  0
M  ISO  8  22  14  23  14  24  14  25   8  26   8  27   8  28   8  29   8
M  ISO  8  30   8  31   8  32   8  33  14  34  14  35  14  36  14  37  14
M  END
>  <minimizedAffinity>  (1) 
-4.65228939

>  <minimizedRMSD>  (1) 
0.721521258

$$$$
