
     RDKit          3D

 35 37  0  0  1  0  0  0  0  0999 V2000
   38.9020   23.8240   36.3750 N   0  0  0  0  0  0  0  0  0  0  0  0
   37.8850   24.6800   36.9700 C   0  0  0  0  0  0  0  0  0  0  0  0
   37.7480   24.0660   38.3630 C   0  0  0  0  0  0  0  0  0  0  0  0
   38.9350   23.1240   38.5090 C   0  0  0  0  0  0  0  0  0  0  0  0
   39.8650   23.6840   37.4760 C   0  0  1  0  0  0  0  0  0  0  0  0
   38.9420   23.2760   35.0610 C   0  0  0  0  0  0  0  0  0  0  0  0
   38.3630   22.0360   34.7560 C   0  0  0  0  0  0  0  0  0  0  0  0
   38.4550   21.5770   33.4450 C   0  0  0  0  0  0  0  0  0  0  0  0
   39.1120   22.3720   32.5290 N   0  0  0  0  0  0  0  0  0  0  0  0
   39.6500   23.5500   32.8690 C   0  0  0  0  0  0  0  0  0  0  0  0
   39.5840   24.0330   34.1240 N   0  0  0  0  0  0  0  0  0  0  0  0
   41.0240   22.8700   37.1620 C   0  0  0  0  0  0  0  0  0  0  0  0
   41.1440   21.4940   37.3910 C   0  0  0  0  0  0  0  0  0  0  0  0
   42.4000   21.1250   36.9460 C   0  0  0  0  0  0  0  0  0  0  0  0
   42.9810   22.2940   36.4670 C   0  0  0  0  0  0  0  0  0  0  0  0
   42.1490   23.2880   36.6100 O   0  0  0  0  0  0  0  0  0  0  0  0
   44.3480   22.3940   35.8790 C   0  0  0  0  0  0  0  0  0  0  0  0
   44.9500   23.7010   36.3590 C   0  0  0  0  0  0  0  0  0  0  0  0
   38.2209   25.7261   37.0231 H   0  0  0  0  0  0  0  0  0  0  0  0
   36.9436   24.7196   36.4024 H   0  0  0  0  0  0  0  0  0  0  0  0
   37.7818   24.8499   39.1340 H   0  0  0  0  0  0  0  0  0  0  0  0
   36.7903   23.5387   38.4849 H   0  0  0  0  0  0  0  0  0  0  0  0
   39.3714   23.1756   39.5174 H   0  0  0  0  0  0  0  0  0  0  0  0
   38.6917   22.0597   38.3744 H   0  0  0  0  0  0  0  0  0  0  0  0
   40.3875   24.6035   37.7787 H   0  0  0  0  0  0  0  0  0  0  0  0
   37.8516   21.4438   35.5292 H   0  0  0  0  0  0  0  0  0  0  0  0
   38.0180   20.6118   33.1492 H   0  0  0  0  0  0  0  0  0  0  0  0
   40.1629   24.1428   32.0974 H   0  0  0  0  0  0  0  0  0  0  0  0
   40.3859   20.8343   37.8383 H   0  0  0  0  0  0  0  0  0  0  0  0
   42.8454   20.1194   36.9665 H   0  0  0  0  0  0  0  0  0  0  0  0
   44.2869   22.3884   34.7807 H   0  0  0  0  0  0  0  0  0  0  0  0
   44.9694   21.5412   36.1898 H   0  0  0  0  0  0  0  0  0  0  0  0
   44.9582   23.7189   37.4588 H   0  0  0  0  0  0  0  0  0  0  0  0
   45.9799   23.7902   35.9831 H   0  0  0  0  0  0  0  0  0  0  0  0
   44.3484   24.5417   35.9831 H   0  0  0  0  0  0  0  0  0  0  0  0
  1  2  1  0
  1  5  1  0
  2  3  1  0
  3  4  1  0
  5  4  1  0
  6  1  1  0
  7  6  2  0
  8  7  1  0
  9 10  1  0
  9  8  2  0
 10 11  2  0
 11  6  1  0
 12 13  2  0
 12  5  1  0
 14 13  1  0
 15 16  1  0
 15 14  2  0
 16 12  1  0
 17 18  1  0
 17 15  1  0
  2 19  1  0
  2 20  1  0
  3 21  1  0
  3 22  1  0
  4 23  1  0
  4 24  1  0
  5 25  1  1
  7 26  1  0
  8 27  1  0
 10 28  1  0
 13 29  1  0
 14 30  1  0
 17 31  1  0
 17 32  1  0
 18 33  1  0
 18 34  1  0
 18 35  1  0
M  ISO  8  19  13  20  13  21  13  22  13  23  13  24  13  25  13  26  14
M  ISO  8  27  14  28  14  29  14  30  14  31   8  32   8  33   8  34   8
M  ISO  1  35   8
M  END
>  <minimizedAffinity>  (1) 
-3.95184803

>  <minimizedRMSD>  (1) 
0.955866277

$$$$
