
     RDKit          3D

 45 48  0  0  1  0  0  0  0  0999 V2000
   38.8370   23.7200   36.2200 N   0  0  0  0  0  0  0  0  0  0  0  0
   37.7590   24.5410   36.7760 C   0  0  0  0  0  0  0  0  0  0  0  0
   37.6320   23.9620   38.1840 C   0  0  0  0  0  0  0  0  0  0  0  0
   38.8530   23.0870   38.3650 C   0  0  0  0  0  0  0  0  0  0  0  0
   39.7890   23.6360   37.3610 C   0  0  1  0  0  0  0  0  0  0  0  0
   38.9350   23.1590   34.9170 C   0  0  0  0  0  0  0  0  0  0  0  0
   38.3310   21.9490   34.5920 C   0  0  0  0  0  0  0  0  0  0  0  0
   38.4860   21.4780   33.2890 C   0  0  0  0  0  0  0  0  0  0  0  0
   39.2310   22.2520   32.4060 N   0  0  0  0  0  0  0  0  0  0  0  0
   39.7860   23.4030   32.7700 C   0  0  0  0  0  0  0  0  0  0  0  0
   39.6640   23.8950   34.0160 N   0  0  0  0  0  0  0  0  0  0  0  0
   40.9870   22.8910   37.0760 C   0  0  0  0  0  0  0  0  0  0  0  0
   41.1680   21.5220   37.3700 C   0  0  0  0  0  0  0  0  0  0  0  0
   42.4440   21.1980   36.9390 C   0  0  0  0  0  0  0  0  0  0  0  0
   42.9650   22.3720   36.4120 C   0  0  0  0  0  0  0  0  0  0  0  0
   42.0810   23.3380   36.5110 O   0  0  0  0  0  0  0  0  0  0  0  0
   44.3270   22.5250   35.8180 C   0  0  0  0  0  0  0  0  0  0  0  0
   44.5690   23.9970   35.5890 C   0  0  0  0  0  0  0  0  0  0  0  0
   45.2540   24.5010   36.8130 C   0  0  0  0  0  0  0  0  0  0  0  0
   46.5120   24.1300   37.1780 C   0  0  0  0  0  0  0  0  0  0  0  0
   47.0470   24.6710   38.3470 C   0  0  0  0  0  0  0  0  0  0  0  0
   46.3170   25.5610   39.1160 C   0  0  0  0  0  0  0  0  0  0  0  0
   45.0410   25.9430   38.7520 C   0  0  0  0  0  0  0  0  0  0  0  0
   44.5150   25.3970   37.5820 C   0  0  0  0  0  0  0  0  0  0  0  0
   38.0368   25.6050   36.8024 H   0  0  0  0  0  0  0  0  0  0  0  0
   36.8266   24.5124   36.1931 H   0  0  0  0  0  0  0  0  0  0  0  0
   37.6205   24.7677   38.9328 H   0  0  0  0  0  0  0  0  0  0  0  0
   36.6978   23.3958   38.3128 H   0  0  0  0  0  0  0  0  0  0  0  0
   39.2615   23.1793   39.3822 H   0  0  0  0  0  0  0  0  0  0  0  0
   38.6481   22.0142   38.2343 H   0  0  0  0  0  0  0  0  0  0  0  0
   40.2812   24.5665   37.6801 H   0  0  0  0  0  0  0  0  0  0  0  0
   37.7515   21.3837   35.3367 H   0  0  0  0  0  0  0  0  0  0  0  0
   38.0345   20.5269   32.9704 H   0  0  0  0  0  0  0  0  0  0  0  0
   40.3645   23.9725   32.0277 H   0  0  0  0  0  0  0  0  0  0  0  0
   40.4411   20.8475   37.8461 H   0  0  0  0  0  0  0  0  0  0  0  0
   42.9396   20.2179   37.0012 H   0  0  0  0  0  0  0  0  0  0  0  0
   45.0835   22.1247   36.5090 H   0  0  0  0  0  0  0  0  0  0  0  0
   44.3962   21.9726   34.8693 H   0  0  0  0  0  0  0  0  0  0  0  0
   45.2078   24.1456   34.7059 H   0  0  0  0  0  0  0  0  0  0  0  0
   43.6268   24.5346   35.4068 H   0  0  0  0  0  0  0  0  0  0  0  0
   47.0913   23.4221   36.5670 H   0  0  0  0  0  0  0  0  0  0  0  0
   48.0619   24.3868   38.6619 H   0  0  0  0  0  0  0  0  0  0  0  0
   46.7619   25.9717   40.0344 H   0  0  0  0  0  0  0  0  0  0  0  0
   44.4614   26.6514   39.3621 H   0  0  0  0  0  0  0  0  0  0  0  0
   43.5010   25.6780   37.2613 H   0  0  0  0  0  0  0  0  0  0  0  0
  1  2  1  0
  1  5  1  0
  2  3  1  0
  3  4  1  0
  5  4  1  0
  6  1  1  0
  7  6  2  0
  8  7  1  0
  9 10  1  0
  9  8  2  0
 10 11  2  0
 11  6  1  0
 12  5  1  0
 12 13  2  0
 14 13  1  0
 15 16  1  0
 15 14  2  0
 16 12  1  0
 17 15  1  0
 18 17  1  0
 18 19  1  0
 19 20  2  0
 19 24  1  0
 20 21  1  0
 21 22  2  0
 23 22  1  0
 24 23  2  0
  2 25  1  0
  2 26  1  0
  3 27  1  0
  3 28  1  0
  4 29  1  0
  4 30  1  0
  5 31  1  1
  7 32  1  0
  8 33  1  0
 10 34  1  0
 13 35  1  0
 14 36  1  0
 17 37  1  0
 17 38  1  0
 18 39  1  0
 18 40  1  0
 20 41  1  0
 21 42  1  0
 22 43  1  0
 23 44  1  0
 24 45  1  0
M  ISO  8  25  13  26  13  27  13  28  13  29  13  30  13  31  13  32  14
M  ISO  8  33  14  34  14  35  14  36  14  37   8  38   8  39   8  40   8
M  ISO  5  41  14  42  14  43  14  44  14  45  14
M  END
>  <minimizedAffinity>  (1) 
-5.66119862

>  <minimizedRMSD>  (1) 
2.03680301

$$$$
