
     RDKit          3D

 51 54  0  0  1  0  0  0  0  0999 V2000
   38.9550   23.7260   36.1560 N   0  0  0  0  0  0  0  0  0  0  0  0
   37.8840   24.5850   36.6720 C   0  0  0  0  0  0  0  0  0  0  0  0
   37.6980   24.0350   38.0740 C   0  0  0  0  0  0  0  0  0  0  0  0
   38.9060   23.1440   38.3190 C   0  0  0  0  0  0  0  0  0  0  0  0
   39.8770   23.6480   37.3210 C   0  0  1  0  0  0  0  0  0  0  0  0
   39.0650   23.1340   34.8690 C   0  0  0  0  0  0  0  0  0  0  0  0
   38.3860   21.9670   34.5360 C   0  0  0  0  0  0  0  0  0  0  0  0
   38.5610   21.4620   33.2490 C   0  0  0  0  0  0  0  0  0  0  0  0
   39.4000   22.1580   32.3870 N   0  0  0  0  0  0  0  0  0  0  0  0
   40.0240   23.2730   32.7610 C   0  0  0  0  0  0  0  0  0  0  0  0
   39.8870   23.7980   33.9920 N   0  0  0  0  0  0  0  0  0  0  0  0
   41.0580   22.8540   37.0810 C   0  0  0  0  0  0  0  0  0  0  0  0
   41.1780   21.4780   37.3670 C   0  0  0  0  0  0  0  0  0  0  0  0
   42.4590   21.1130   36.9860 C   0  0  0  0  0  0  0  0  0  0  0  0
   43.0400   22.2690   36.4970 C   0  0  0  0  0  0  0  0  0  0  0  0
   42.1920   23.2660   36.5680 O   0  0  0  0  0  0  0  0  0  0  0  0
   44.4360   22.3910   35.9580 C   0  0  0  0  0  0  0  0  0  0  0  0
   44.7230   23.8520   35.7450 C   0  0  0  0  0  0  0  0  0  0  0  0
   45.3180   24.4360   36.9790 C   0  0  0  0  0  0  0  0  0  0  0  0
   44.6190   25.6320   37.5320 C   0  0  0  0  0  0  0  0  0  0  0  0
   45.2960   25.9910   38.8500 C   0  0  0  0  0  0  0  0  0  0  0  0
   46.3730   25.0230   39.2400 C   0  0  0  0  0  0  0  0  0  0  0  0
   47.4050   24.8320   38.1520 C   0  0  0  0  0  0  0  0  0  0  0  0
   46.7750   24.8410   36.7750 C   0  0  0  0  0  0  0  0  0  0  0  0
   38.1917   25.6409   36.6929 H   0  0  0  0  0  0  0  0  0  0  0  0
   36.9686   24.5728   36.0622 H   0  0  0  0  0  0  0  0  0  0  0  0
   37.6678   24.8536   38.8082 H   0  0  0  0  0  0  0  0  0  0  0  0
   36.7528   23.4815   38.1754 H   0  0  0  0  0  0  0  0  0  0  0  0
   39.2887   23.2643   39.3433 H   0  0  0  0  0  0  0  0  0  0  0  0
   38.6890   22.0702   38.2194 H   0  0  0  0  0  0  0  0  0  0  0  0
   40.3831   24.5759   37.6259 H   0  0  0  0  0  0  0  0  0  0  0  0
   37.7339   21.4605   35.2627 H   0  0  0  0  0  0  0  0  0  0  0  0
   38.0515   20.5422   32.9258 H   0  0  0  0  0  0  0  0  0  0  0  0
   40.6756   23.7838   32.0368 H   0  0  0  0  0  0  0  0  0  0  0  0
   40.4084   20.8253   37.8049 H   0  0  0  0  0  0  0  0  0  0  0  0
   42.9169   20.1154   37.0573 H   0  0  0  0  0  0  0  0  0  0  0  0
   45.1529   21.9704   36.6785 H   0  0  0  0  0  0  0  0  0  0  0  0
   44.5307   21.8397   35.0108 H   0  0  0  0  0  0  0  0  0  0  0  0
   45.4293   23.9671   34.9096 H   0  0  0  0  0  0  0  0  0  0  0  0
   43.7841   24.3757   35.5124 H   0  0  0  0  0  0  0  0  0  0  0  0
   45.2123   23.6125   37.7006 H   0  0  0  0  0  0  0  0  0  0  0  0
   44.6994   26.4729   36.8274 H   0  0  0  0  0  0  0  0  0  0  0  0
   43.5519   25.4175   37.6909 H   0  0  0  0  0  0  0  0  0  0  0  0
   45.7427   26.9916   38.7532 H   0  0  0  0  0  0  0  0  0  0  0  0
   44.5255   25.9585   39.6344 H   0  0  0  0  0  0  0  0  0  0  0  0
   46.8773   25.4015   40.1414 H   0  0  0  0  0  0  0  0  0  0  0  0
   45.8956   24.0487   39.4210 H   0  0  0  0  0  0  0  0  0  0  0  0
   48.1417   25.6467   38.2124 H   0  0  0  0  0  0  0  0  0  0  0  0
   47.8856   23.8541   38.3029 H   0  0  0  0  0  0  0  0  0  0  0  0
   47.2836   24.1212   36.1168 H   0  0  0  0  0  0  0  0  0  0  0  0
   46.8566   25.8298   36.3000 H   0  0  0  0  0  0  0  0  0  0  0  0
  1  2  1  0
  1  5  1  0
  2  3  1  0
  3  4  1  0
  5  4  1  0
  6  1  1  0
  7  6  2  0
  8  7  1  0
  9 10  1  0
  9  8  2  0
 10 11  2  0
 11  6  1  0
 12  5  1  0
 12 13  2  0
 14 13  1  0
 15 16  1  0
 15 14  2  0
 16 12  1  0
 17 15  1  0
 18 17  1  0
 18 19  1  0
 19 20  1  0
 20 21  1  0
 21 22  1  0
 23 22  1  0
 24 19  1  0
 24 23  1  0
  2 25  1  0
  2 26  1  0
  3 27  1  0
  3 28  1  0
  4 29  1  0
  4 30  1  0
  5 31  1  1
  7 32  1  0
  8 33  1  0
 10 34  1  0
 13 35  1  0
 14 36  1  0
 17 37  1  0
 17 38  1  0
 18 39  1  0
 18 40  1  0
 19 41  1  0
 20 42  1  0
 20 43  1  0
 21 44  1  0
 21 45  1  0
 22 46  1  0
 22 47  1  0
 23 48  1  0
 23 49  1  0
 24 50  1  0
 24 51  1  0
M  ISO  8  25  13  26  13  27  13  28  13  29  13  30  13  31  13  32  14
M  ISO  8  33  14  34  14  35  14  36  14  37   8  38   8  39   8  40   8
M  ISO  8  41  13  42  13  43  13  44  13  45  13  46  13  47  13  48  13
M  ISO  3  49  13  50  13  51  13
M  END
>  <minimizedAffinity>  (1) 
-5.59917307

>  <minimizedRMSD>  (1) 
1.92623973

$$$$
