
     RDKit          3D

 48 51  0  0  1  0  0  0  0  0999 V2000
   38.8280   23.7330   36.2400 N   0  0  0  0  0  0  0  0  0  0  0  0
   37.7430   24.5400   36.8050 C   0  0  0  0  0  0  0  0  0  0  0  0
   37.6190   23.9570   38.2020 C   0  0  0  0  0  0  0  0  0  0  0  0
   38.8530   23.0870   38.3830 C   0  0  0  0  0  0  0  0  0  0  0  0
   39.7820   23.6560   37.3810 C   0  0  1  0  0  0  0  0  0  0  0  0
   38.9280   23.1820   34.9360 C   0  0  0  0  0  0  0  0  0  0  0  0
   38.3410   21.9650   34.6050 C   0  0  0  0  0  0  0  0  0  0  0  0
   38.4990   21.5060   33.2980 C   0  0  0  0  0  0  0  0  0  0  0  0
   39.2290   22.2930   32.4180 N   0  0  0  0  0  0  0  0  0  0  0  0
   39.7720   23.4550   32.7870 C   0  0  0  0  0  0  0  0  0  0  0  0
   39.6440   23.9360   34.0380 N   0  0  0  0  0  0  0  0  0  0  0  0
   40.9860   22.9220   37.0890 C   0  0  0  0  0  0  0  0  0  0  0  0
   41.1750   21.5500   37.3600 C   0  0  0  0  0  0  0  0  0  0  0  0
   42.4550   21.2410   36.9290 C   0  0  0  0  0  0  0  0  0  0  0  0
   42.9720   22.4290   36.4220 C   0  0  0  0  0  0  0  0  0  0  0  0
   42.0800   23.3850   36.5360 O   0  0  0  0  0  0  0  0  0  0  0  0
   44.3270   22.5820   35.8430 C   0  0  0  0  0  0  0  0  0  0  0  0
   44.6690   24.0710   35.8790 C   0  0  0  0  0  0  0  0  0  0  0  0
   45.2490   24.3360   37.2350 C   0  0  0  0  0  0  0  0  0  0  0  0
   46.7380   24.4100   37.2850 C   0  0  0  0  0  0  0  0  0  0  0  0
   46.9490   24.8780   38.7310 C   0  0  0  0  0  0  0  0  0  0  0  0
   45.6840   25.6390   39.1000 C   0  0  0  0  0  0  0  0  0  0  0  0
   44.8580   25.6790   37.8050 C   0  0  0  0  0  0  0  0  0  0  0  0
   38.0119   25.6061   36.8381 H   0  0  0  0  0  0  0  0  0  0  0  0
   36.8106   24.5042   36.2224 H   0  0  0  0  0  0  0  0  0  0  0  0
   37.5992   24.7593   38.9543 H   0  0  0  0  0  0  0  0  0  0  0  0
   36.6894   23.3822   38.3262 H   0  0  0  0  0  0  0  0  0  0  0  0
   39.2595   23.1772   39.4012 H   0  0  0  0  0  0  0  0  0  0  0  0
   38.6608   22.0123   38.2489 H   0  0  0  0  0  0  0  0  0  0  0  0
   40.2618   24.5913   37.7051 H   0  0  0  0  0  0  0  0  0  0  0  0
   37.7727   21.3857   35.3476 H   0  0  0  0  0  0  0  0  0  0  0  0
   38.0593   20.5510   32.9746 H   0  0  0  0  0  0  0  0  0  0  0  0
   40.3410   24.0370   32.0471 H   0  0  0  0  0  0  0  0  0  0  0  0
   40.4505   20.8629   37.8214 H   0  0  0  0  0  0  0  0  0  0  0  0
   42.9565   20.2631   36.9774 H   0  0  0  0  0  0  0  0  0  0  0  0
   44.3364   22.2183   34.8049 H   0  0  0  0  0  0  0  0  0  0  0  0
   45.0638   21.9985   36.4146 H   0  0  0  0  0  0  0  0  0  0  0  0
   45.4037   24.3122   35.0966 H   0  0  0  0  0  0  0  0  0  0  0  0
   43.7785   24.6905   35.6967 H   0  0  0  0  0  0  0  0  0  0  0  0
   44.8512   23.4755   37.7930 H   0  0  0  0  0  0  0  0  0  0  0  0
   47.1993   23.4277   37.1051 H   0  0  0  0  0  0  0  0  0  0  0  0
   47.1894   25.0621   36.5227 H   0  0  0  0  0  0  0  0  0  0  0  0
   47.0868   24.0145   39.3984 H   0  0  0  0  0  0  0  0  0  0  0  0
   47.8468   25.5058   38.8301 H   0  0  0  0  0  0  0  0  0  0  0  0
   45.1337   25.1137   39.8945 H   0  0  0  0  0  0  0  0  0  0  0  0
   45.9026   26.6462   39.4843 H   0  0  0  0  0  0  0  0  0  0  0  0
   45.1590   26.5091   37.1490 H   0  0  0  0  0  0  0  0  0  0  0  0
   43.7780   25.8410   37.9371 H   0  0  0  0  0  0  0  0  0  0  0  0
  1  2  1  0
  1  5  1  0
  2  3  1  0
  3  4  1  0
  5  4  1  0
  6  1  1  0
  7  6  2  0
  8  7  1  0
  9 10  1  0
  9  8  2  0
 10 11  2  0
 11  6  1  0
 12 13  2  0
 12  5  1  0
 14 13  1  0
 15 16  1  0
 15 14  2  0
 16 12  1  0
 17 18  1  0
 17 15  1  0
 18 19  1  0
 19 20  1  0
 19 23  1  0
 20 21  1  0
 21 22  1  0
 23 22  1  0
  2 24  1  0
  2 25  1  0
  3 26  1  0
  3 27  1  0
  4 28  1  0
  4 29  1  0
  5 30  1  1
  7 31  1  0
  8 32  1  0
 10 33  1  0
 13 34  1  0
 14 35  1  0
 17 36  1  0
 17 37  1  0
 18 38  1  0
 18 39  1  0
 19 40  1  0
 20 41  1  0
 20 42  1  0
 21 43  1  0
 21 44  1  0
 22 45  1  0
 22 46  1  0
 23 47  1  0
 23 48  1  0
M  ISO  8  24  13  25  13  26  13  27  13  28  13  29  13  30  13  31  14
M  ISO  8  32  14  33  14  34  14  35  14  36   8  37   8  38   8  39   8
M  ISO  8  40  13  41  13  42  13  43  13  44  13  45  13  46  13  47  13
M  ISO  1  48  13
M  END
>  <minimizedAffinity>  (1) 
-5.38248062

>  <minimizedRMSD>  (1) 
1.6441828

$$$$
