
     RDKit          3D

 50 53  0  0  1  0  0  0  0  0999 V2000
   39.0400   23.7690   36.1600 N   0  0  0  0  0  0  0  0  0  0  0  0
   38.0070   24.6620   36.6850 C   0  0  0  0  0  0  0  0  0  0  0  0
   37.7750   24.0810   38.0750 C   0  0  0  0  0  0  0  0  0  0  0  0
   38.9460   23.1430   38.3120 C   0  0  0  0  0  0  0  0  0  0  0  0
   39.9410   23.6360   37.3350 C   0  0  1  0  0  0  0  0  0  0  0  0
   39.1440   23.1930   34.8670 C   0  0  0  0  0  0  0  0  0  0  0  0
   38.5000   22.0060   34.5360 C   0  0  0  0  0  0  0  0  0  0  0  0
   38.6660   21.5200   33.2350 C   0  0  0  0  0  0  0  0  0  0  0  0
   39.4600   22.2490   32.3620 N   0  0  0  0  0  0  0  0  0  0  0  0
   40.0600   23.3950   32.7460 C   0  0  0  0  0  0  0  0  0  0  0  0
   39.9270   23.8990   33.9860 N   0  0  0  0  0  0  0  0  0  0  0  0
   41.0990   22.7970   37.0990 C   0  0  0  0  0  0  0  0  0  0  0  0
   41.2080   21.4390   37.4400 C   0  0  0  0  0  0  0  0  0  0  0  0
   42.4620   21.0190   37.0430 C   0  0  0  0  0  0  0  0  0  0  0  0
   43.0540   22.1440   36.4780 C   0  0  0  0  0  0  0  0  0  0  0  0
   42.2290   23.1660   36.5280 O   0  0  0  0  0  0  0  0  0  0  0  0
   44.4280   22.1950   35.8930 C   0  0  0  0  0  0  0  0  0  0  0  0
   44.7970   23.6420   35.7210 C   0  0  0  0  0  0  0  0  0  0  0  0
   45.2070   24.3190   36.8840 N   0  0  0  0  0  0  0  0  0  0  0  0
   44.6800   25.6520   37.0800 C   0  0  0  0  0  0  0  0  0  0  0  0
   44.7190   25.9060   38.5740 C   0  0  0  0  0  0  0  0  0  0  0  0
   46.1260   25.8500   39.0690 C   0  0  0  0  0  0  0  0  0  0  0  0
   46.9430   24.7090   38.5690 C   0  0  0  0  0  0  0  0  0  0  0  0
   46.6250   24.3120   37.1560 C   0  0  0  0  0  0  0  0  0  0  0  0
   38.3644   25.7009   36.7390 H   0  0  0  0  0  0  0  0  0  0  0  0
   37.1004   24.7106   36.0639 H   0  0  0  0  0  0  0  0  0  0  0  0
   37.7615   24.8805   38.8304 H   0  0  0  0  0  0  0  0  0  0  0  0
   36.8086   23.5607   38.1483 H   0  0  0  0  0  0  0  0  0  0  0  0
   39.3225   23.2269   39.3421 H   0  0  0  0  0  0  0  0  0  0  0  0
   38.6933   22.0796   38.1879 H   0  0  0  0  0  0  0  0  0  0  0  0
   40.4707   24.5443   37.6581 H   0  0  0  0  0  0  0  0  0  0  0  0
   37.8824   21.4686   35.2707 H   0  0  0  0  0  0  0  0  0  0  0  0
   38.1809   20.5866   32.9134 H   0  0  0  0  0  0  0  0  0  0  0  0
   40.6810   23.9373   32.0178 H   0  0  0  0  0  0  0  0  0  0  0  0
   40.4387   20.8251   37.9312 H   0  0  0  0  0  0  0  0  0  0  0  0
   42.8976   20.0146   37.1501 H   0  0  0  0  0  0  0  0  0  0  0  0
   45.1422   21.7040   36.5704 H   0  0  0  0  0  0  0  0  0  0  0  0
   44.4548   21.6725   34.9254 H   0  0  0  0  0  0  0  0  0  0  0  0
   45.6205   23.6946   34.9937 H   0  0  0  0  0  0  0  0  0  0  0  0
   43.8745   24.1454   35.3960 H   0  0  0  0  0  0  0  0  0  0  0  0
   45.3017   26.3895   36.5513 H   0  0  0  0  0  0  0  0  0  0  0  0
   43.6574   25.7412   36.6845 H   0  0  0  0  0  0  0  0  0  0  0  0
   44.2988   26.9005   38.7847 H   0  0  0  0  0  0  0  0  0  0  0  0
   44.1271   25.1326   39.0855 H   0  0  0  0  0  0  0  0  0  0  0  0
   46.6272   26.7818   38.7680 H   0  0  0  0  0  0  0  0  0  0  0  0
   46.0549   25.7126   40.1581 H   0  0  0  0  0  0  0  0  0  0  0  0
   48.0044   24.9936   38.6192 H   0  0  0  0  0  0  0  0  0  0  0  0
   46.7099   23.8432   39.2063 H   0  0  0  0  0  0  0  0  0  0  0  0
   47.0129   23.2980   36.9790 H   0  0  0  0  0  0  0  0  0  0  0  0
   47.0963   25.0484   36.4885 H   0  0  0  0  0  0  0  0  0  0  0  0
  1  2  1  0
  1  5  1  0
  2  3  1  0
  3  4  1  0
  5  4  1  0
  6  1  1  0
  7  6  2  0
  8  7  1  0
  9 10  1  0
  9  8  2  0
 10 11  2  0
 11  6  1  0
 12  5  1  0
 12 13  2  0
 14 13  1  0
 15 16  1  0
 15 14  2  0
 16 12  1  0
 17 15  1  0
 18 17  1  0
 18 19  1  0
 19 20  1  0
 19 24  1  0
 20 21  1  0
 21 22  1  0
 23 22  1  0
 24 23  1  0
  2 25  1  0
  2 26  1  0
  3 27  1  0
  3 28  1  0
  4 29  1  0
  4 30  1  0
  5 31  1  1
  7 32  1  0
  8 33  1  0
 10 34  1  0
 13 35  1  0
 14 36  1  0
 17 37  1  0
 17 38  1  0
 18 39  1  0
 18 40  1  0
 20 41  1  0
 20 42  1  0
 21 43  1  0
 21 44  1  0
 22 45  1  0
 22 46  1  0
 23 47  1  0
 23 48  1  0
 24 49  1  0
 24 50  1  0
M  ISO  8  25  13  26  13  27  13  28  13  29  13  30  13  31  13  32  14
M  ISO  8  33  14  34  14  35  14  36  14  37   8  38   8  39   8  40   8
M  ISO  8  41  13  42  13  43  13  44  13  45  13  46  13  47  13  48  13
M  ISO  2  49  13  50  13
M  END
>  <minimizedAffinity>  (1) 
-5.33555651

>  <minimizedRMSD>  (1) 
1.91689861

$$$$
