
     RDKit          3D

 49 53  0  0  1  0  0  0  0  0999 V2000
   40.9720   22.9250   37.0510 C   0  0  0  0  0  0  0  0  0  0  0  0
   41.1580   21.5470   37.2850 C   0  0  0  0  0  0  0  0  0  0  0  0
   42.4360   21.2430   36.8610 C   0  0  0  0  0  0  0  0  0  0  0  0
   42.9650   22.4480   36.3910 C   0  0  0  0  0  0  0  0  0  0  0  0
   42.0810   23.3820   36.5230 O   0  0  0  0  0  0  0  0  0  0  0  0
   38.8150   23.7440   36.2160 N   0  0  0  0  0  0  0  0  0  0  0  0
   37.7430   24.5580   36.8010 C   0  0  0  0  0  0  0  0  0  0  0  0
   37.6240   23.9550   38.1950 C   0  0  0  0  0  0  0  0  0  0  0  0
   38.8600   23.1010   38.3670 C   0  0  0  0  0  0  0  0  0  0  0  0
   39.7720   23.6610   37.3480 C   0  0  1  0  0  0  0  0  0  0  0  0
   38.9050   23.1920   34.9120 C   0  0  0  0  0  0  0  0  0  0  0  0
   38.3200   21.9730   34.5860 C   0  0  0  0  0  0  0  0  0  0  0  0
   38.4660   21.5120   33.2800 C   0  0  0  0  0  0  0  0  0  0  0  0
   39.1810   22.2950   32.3920 N   0  0  0  0  0  0  0  0  0  0  0  0
   39.7260   23.4650   32.7560 C   0  0  0  0  0  0  0  0  0  0  0  0
   39.6090   23.9450   34.0070 N   0  0  0  0  0  0  0  0  0  0  0  0
   44.3400   22.6150   35.8250 C   0  0  0  0  0  0  0  0  0  0  0  0
   45.0820   23.5750   36.7110 C   0  0  0  0  0  0  0  0  0  0  0  0
   45.4920   24.8280   36.0810 C   0  0  0  0  0  0  0  0  0  0  0  0
   44.7440   25.5100   35.1750 N   0  0  0  0  0  0  0  0  0  0  0  0
   45.1550   26.6540   34.6030 C   0  0  0  0  0  0  0  0  0  0  0  0
   46.3440   27.2120   34.8870 N   0  0  0  0  0  0  0  0  0  0  0  0
   47.1580   26.5910   35.7880 C   0  0  0  0  0  0  0  0  0  0  0  0
   48.3640   27.1990   36.0540 C   0  0  0  0  0  0  0  0  0  0  0  0
   49.2040   26.5900   36.9730 C   0  0  0  0  0  0  0  0  0  0  0  0
   48.8320   25.4130   37.5940 C   0  0  0  0  0  0  0  0  0  0  0  0
   47.5880   24.8740   37.2560 C   0  0  0  0  0  0  0  0  0  0  0  0
   46.7200   25.4210   36.3630 C   0  0  0  0  0  0  0  0  0  0  0  0
   40.4270   20.8500   37.7206 H   0  0  0  0  0  0  0  0  0  0  0  0
   42.9321   20.2616   36.8875 H   0  0  0  0  0  0  0  0  0  0  0  0
   38.0251   25.6202   36.8462 H   0  0  0  0  0  0  0  0  0  0  0  0
   36.8055   24.5423   36.2259 H   0  0  0  0  0  0  0  0  0  0  0  0
   37.5946   24.7481   38.9567 H   0  0  0  0  0  0  0  0  0  0  0  0
   36.7007   23.3683   38.3107 H   0  0  0  0  0  0  0  0  0  0  0  0
   39.2796   23.2061   39.3784 H   0  0  0  0  0  0  0  0  0  0  0  0
   38.6722   22.0239   38.2466 H   0  0  0  0  0  0  0  0  0  0  0  0
   40.2528   24.5992   37.6620 H   0  0  0  0  0  0  0  0  0  0  0  0
   37.7608   21.3925   35.3346 H   0  0  0  0  0  0  0  0  0  0  0  0
   38.0261   20.5545   32.9644 H   0  0  0  0  0  0  0  0  0  0  0  0
   40.2849   24.0490   32.0099 H   0  0  0  0  0  0  0  0  0  0  0  0
   44.8582   21.6449   35.8059 H   0  0  0  0  0  0  0  0  0  0  0  0
   44.2901   22.9990   34.7954 H   0  0  0  0  0  0  0  0  0  0  0  0
   44.4310   23.8217   37.5627 H   0  0  0  0  0  0  0  0  0  0  0  0
   46.0129   23.0630   36.9962 H   0  0  0  0  0  0  0  0  0  0  0  0
   44.4952   27.1513   33.8768 H   0  0  0  0  0  0  0  0  0  0  0  0
   48.6512   28.1360   35.5544 H   0  0  0  0  0  0  0  0  0  0  0  0
   50.1757   27.0478   37.2102 H   0  0  0  0  0  0  0  0  0  0  0  0
   49.4892   24.9199   38.3254 H   0  0  0  0  0  0  0  0  0  0  0  0
   47.2882   23.9374   37.7489 H   0  0  0  0  0  0  0  0  0  0  0  0
  1  2  2  0
  1 10  1  0
  3  2  1  0
  4  5  1  0
  4  3  2  0
  5  1  1  0
  6  7  1  0
  6 10  1  0
  7  8  1  0
  8  9  1  0
 10  9  1  0
 11  6  1  0
 12 11  2  0
 13 12  1  0
 14 15  1  0
 14 13  2  0
 15 16  2  0
 16 11  1  0
 17  4  1  0
 17 18  1  0
 19 28  1  0
 19 18  1  0
 20 19  2  0
 21 22  2  0
 21 20  1  0
 22 23  1  0
 23 24  1  0
 23 28  2  0
 24 25  2  0
 25 26  1  0
 27 26  2  0
 28 27  1  0
  2 29  1  0
  3 30  1  0
  7 31  1  0
  7 32  1  0
  8 33  1  0
  8 34  1  0
  9 35  1  0
  9 36  1  0
 10 37  1  1
 12 38  1  0
 13 39  1  0
 15 40  1  0
 17 41  1  0
 17 42  1  0
 18 43  1  0
 18 44  1  0
 21 45  1  0
 24 46  1  0
 25 47  1  0
 26 48  1  0
 27 49  1  0
M  ISO  8  29  14  30  14  31  13  32  13  33  13  34  13  35  13  36  13
M  ISO  8  37  13  38  14  39  14  40  14  41   8  42   8  43   8  44   8
M  ISO  5  45  14  46  14  47  14  48  14  49  14
M  END
>  <minimizedAffinity>  (1) 
-5.12273932

>  <minimizedRMSD>  (1) 
2.7703259

$$$$
