
     RDKit          3D

 36 38  0  0  0  0  0  0  0  0999 V2000
   38.1550   23.7650   37.0250 C   0  0  0  0  0  0  0  0  0  0  0  0
   41.4860   22.0210   37.2220 C   0  0  0  0  0  0  0  0  0  0  0  0
   40.1680   22.3270   37.5280 C   0  0  0  0  0  0  0  0  0  0  0  0
   39.5350   23.3530   36.7880 C   0  0  0  0  0  0  0  0  0  0  0  0
   40.2440   23.9890   35.8170 N   0  0  0  0  0  0  0  0  0  0  0  0
   41.5200   23.6590   35.5570 C   0  0  0  0  0  0  0  0  0  0  0  0
   42.1450   22.6780   36.2550 N   0  0  0  0  0  0  0  0  0  0  0  0
   38.1160   24.4590   38.3960 C   0  0  0  0  0  0  0  0  0  0  0  0
   37.5780   24.6420   35.9680 C   0  0  0  0  0  0  0  0  0  0  0  0
   37.2760   22.5320   37.1190 C   0  0  0  0  0  0  0  0  0  0  0  0
   36.9950   21.9100   35.8420 C   0  0  0  0  0  0  0  0  0  0  0  0
   35.9100   21.1460   35.6070 C   0  0  0  0  0  0  0  0  0  0  0  0
   35.5890   20.5510   34.4240 C   0  0  0  0  0  0  0  0  0  0  0  0
   36.6050   20.8600   33.4240 C   0  0  0  0  0  0  0  0  0  0  0  0
   37.8740   21.9450   34.2830 S   0  0  0  0  0  0  0  0  0  0  0  0
   36.7600   20.5100   32.0740 C   0  0  0  0  0  0  0  0  0  0  0  0
   35.9040   19.7780   31.2880 C   0  0  0  0  0  0  0  0  0  0  0  0
   36.5380   19.7280   30.0410 C   0  0  0  0  0  0  0  0  0  0  0  0
   37.7210   20.4100   30.1110 N   0  0  0  0  0  0  0  0  0  0  0  0
   37.8280   20.8700   31.3510 N   0  0  0  0  0  0  0  0  0  0  0  0
   42.0000   21.2258   37.7819 H   0  0  0  0  0  0  0  0  0  0  0  0
   39.6311   21.7879   38.3224 H   0  0  0  0  0  0  0  0  0  0  0  0
   42.0667   24.1927   34.7656 H   0  0  0  0  0  0  0  0  0  0  0  0
   38.1586   23.7010   39.1920 H   0  0  0  0  0  0  0  0  0  0  0  0
   38.9775   25.1367   38.4886 H   0  0  0  0  0  0  0  0  0  0  0  0
   37.1840   25.0359   38.4886 H   0  0  0  0  0  0  0  0  0  0  0  0
   37.0315   25.4726   36.4387 H   0  0  0  0  0  0  0  0  0  0  0  0
   38.3885   25.0441   35.3424 H   0  0  0  0  0  0  0  0  0  0  0  0
   36.8879   24.0568   35.3424 H   0  0  0  0  0  0  0  0  0  0  0  0
   37.7822   21.7944   37.7590 H   0  0  0  0  0  0  0  0  0  0  0  0
   36.3108   22.8601   37.5323 H   0  0  0  0  0  0  0  0  0  0  0  0
   35.2193   20.9881   36.4484 H   0  0  0  0  0  0  0  0  0  0  0  0
   34.6975   19.9307   34.2493 H   0  0  0  0  0  0  0  0  0  0  0  0
   34.9396   19.3324   31.5735 H   0  0  0  0  0  0  0  0  0  0  0  0
   36.1467   19.2207   29.1469 H   0  0  0  0  0  0  0  0  0  0  0  0
   38.3994   20.5415   29.3472 H   0  0  0  0  0  0  0  0  0  0  0  0
  1 10  1  0
  1  8  1  0
  2  3  2  0
  4  1  1  0
  4  3  1  0
  5  4  2  0
  6  5  1  0
  6  7  2  0
  7  2  1  0
  9  1  1  0
 11 10  1  0
 12 11  2  0
 13 12  1  0
 14 15  1  0
 14 13  2  0
 15 11  1  0
 16 14  1  0
 17 16  1  0
 18 19  1  0
 18 17  2  0
 19 20  1  0
 20 16  2  0
  2 21  1  0
  3 22  1  0
  6 23  1  0
  8 24  1  0
  8 25  1  0
  8 26  1  0
  9 27  1  0
  9 28  1  0
  9 29  1  0
 10 30  1  0
 10 31  1  0
 12 32  1  0
 13 33  1  0
 17 34  1  0
 18 35  1  0
 19 36  1  0
M  ISO  8  21  14  22  14  23  14  24   8  25   8  26   8  27   8  28   8
M  ISO  8  29   8  30   8  31   8  32  14  33  14  34  14  35  14  36   9
M  END
>  <minimizedAffinity>  (1) 
-4.61589289

>  <minimizedRMSD>  (1) 
0.416621745

$$$$
