
     RDKit          3D

 48 51  0  0  1  0  0  0  0  0999 V2000
   41.0190   22.8890   37.1070 C   0  0  0  0  0  0  0  0  0  0  0  0
   41.1930   21.5240   37.4170 C   0  0  0  0  0  0  0  0  0  0  0  0
   42.4250   21.1610   36.9000 C   0  0  0  0  0  0  0  0  0  0  0  0
   42.9270   22.3060   36.3100 C   0  0  0  0  0  0  0  0  0  0  0  0
   42.0770   23.2960   36.4520 O   0  0  0  0  0  0  0  0  0  0  0  0
   38.8620   23.8050   36.3690 N   0  0  0  0  0  0  0  0  0  0  0  0
   37.8350   24.6440   36.9960 C   0  0  0  0  0  0  0  0  0  0  0  0
   37.7420   24.0240   38.3790 C   0  0  0  0  0  0  0  0  0  0  0  0
   38.9580   23.1260   38.5010 C   0  0  0  0  0  0  0  0  0  0  0  0
   39.8620   23.6700   37.4640 C   0  0  1  0  0  0  0  0  0  0  0  0
   38.8800   23.2730   35.0520 C   0  0  0  0  0  0  0  0  0  0  0  0
   38.3030   22.0430   34.7480 C   0  0  0  0  0  0  0  0  0  0  0  0
   38.3750   21.6050   33.4280 C   0  0  0  0  0  0  0  0  0  0  0  0
   39.0150   22.4220   32.5060 N   0  0  0  0  0  0  0  0  0  0  0  0
   39.5510   23.5940   32.8550 C   0  0  0  0  0  0  0  0  0  0  0  0
   39.5070   24.0580   34.1150 N   0  0  0  0  0  0  0  0  0  0  0  0
   44.2450   22.4220   35.6080 C   0  0  0  0  0  0  0  0  0  0  0  0
   44.7480   23.8300   35.7990 C   0  0  0  0  0  0  0  0  0  0  0  0
   48.2960   23.7550   38.0620 C   0  0  0  0  0  0  0  0  0  0  0  0
   47.3400   24.6970   38.3950 C   0  0  0  0  0  0  0  0  0  0  0  0
   46.1350   24.7840   37.6890 C   0  0  0  0  0  0  0  0  0  0  0  0
   45.9630   23.8850   36.6550 C   0  0  0  0  0  0  0  0  0  0  0  0
   46.9120   22.9350   36.3120 C   0  0  0  0  0  0  0  0  0  0  0  0
   48.0990   22.8560   37.0130 C   0  0  0  0  0  0  0  0  0  0  0  0
   49.7770   23.7130   38.9970 S   0  0  0  0  0  0  0  0  0  0  0  0
   50.7030   24.8300   38.6040 O   0  0  0  0  0  0  0  0  0  0  0  0
   49.4880   23.8050   40.4730 O   0  0  0  0  0  0  0  0  0  0  0  0
   40.4897   20.8766   37.9613 H   0  0  0  0  0  0  0  0  0  0  0  0
   42.9030   20.1715   36.9484 H   0  0  0  0  0  0  0  0  0  0  0  0
   38.1518   25.6961   37.0476 H   0  0  0  0  0  0  0  0  0  0  0  0
   36.8804   24.6685   36.4499 H   0  0  0  0  0  0  0  0  0  0  0  0
   37.7615   24.8053   39.1530 H   0  0  0  0  0  0  0  0  0  0  0  0
   36.8049   23.4639   38.5138 H   0  0  0  0  0  0  0  0  0  0  0  0
   39.4093   23.2014   39.5013 H   0  0  0  0  0  0  0  0  0  0  0  0
   38.7300   22.0581   38.3681 H   0  0  0  0  0  0  0  0  0  0  0  0
   40.3948   24.5799   37.7774 H   0  0  0  0  0  0  0  0  0  0  0  0
   37.8080   21.4388   35.5226 H   0  0  0  0  0  0  0  0  0  0  0  0
   37.9384   20.6418   33.1254 H   0  0  0  0  0  0  0  0  0  0  0  0
   40.0464   24.2014   32.0832 H   0  0  0  0  0  0  0  0  0  0  0  0
   44.1172   22.2128   34.5357 H   0  0  0  0  0  0  0  0  0  0  0  0
   44.9640   21.6986   36.0199 H   0  0  0  0  0  0  0  0  0  0  0  0
   44.9899   24.2557   34.8140 H   0  0  0  0  0  0  0  0  0  0  0  0
   43.9562   24.4045   36.3020 H   0  0  0  0  0  0  0  0  0  0  0  0
   47.5299   25.3893   39.2285 H   0  0  0  0  0  0  0  0  0  0  0  0
   45.3662   25.5283   37.9439 H   0  0  0  0  0  0  0  0  0  0  0  0
   46.7192   22.2424   35.4795 H   0  0  0  0  0  0  0  0  0  0  0  0
   48.8638   22.1093   36.7532 H   0  0  0  0  0  0  0  0  0  0  0  0
   50.3861   22.5152   38.7303 H   0  0  0  0  0  0  0  0  0  0  0  0
  1  2  2  0
  1 10  1  0
  3  2  1  0
  4  5  1  0
  4  3  2  0
  5  1  1  0
  6  7  1  0
  6 10  1  0
  7  8  1  0
  8  9  1  0
 10  9  1  0
 11  6  1  0
 12 11  2  0
 13 12  1  0
 14 15  1  0
 14 13  2  0
 15 16  2  0
 16 11  1  0
 17 18  1  0
 17  4  1  0
 18 22  1  0
 19 20  2  0
 19 25  1  0
 21 20  1  0
 22 21  2  0
 23 22  1  0
 23 24  2  0
 24 19  1  0
 25 27  2  0
 26 25  2  0
  2 28  1  0
  3 29  1  0
  7 30  1  0
  7 31  1  0
  8 32  1  0
  8 33  1  0
  9 34  1  0
  9 35  1  0
 10 36  1  1
 12 37  1  0
 13 38  1  0
 15 39  1  0
 17 40  1  0
 17 41  1  0
 18 42  1  0
 18 43  1  0
 20 44  1  0
 21 45  1  0
 23 46  1  0
 24 47  1  0
 25 48  1  0
M  ISO  8  28  14  29  14  30  13  31  13  32  13  33  13  34  13  35  13
M  ISO  8  36  13  37  14  38  14  39  14  40   8  41   8  42   8  43   8
M  ISO  5  44  14  45  14  46  14  47  14  48  11
M  END
>  <minimizedAffinity>  (1) 
-5.03296185

>  <minimizedRMSD>  (1) 
2.2184782

$$$$
