
     RDKit          3D

 42 45  0  0  1  0  0  0  0  0999 V2000
   38.9590   23.7960   36.3540 N   0  0  0  0  0  0  0  0  0  0  0  0
   37.9180   24.6440   36.9440 C   0  0  0  0  0  0  0  0  0  0  0  0
   37.7920   24.0480   38.3400 C   0  0  0  0  0  0  0  0  0  0  0  0
   38.9910   23.1290   38.4880 C   0  0  0  0  0  0  0  0  0  0  0  0
   39.9270   23.6640   37.4760 C   0  0  1  0  0  0  0  0  0  0  0  0
   39.0120   23.2560   35.0430 C   0  0  0  0  0  0  0  0  0  0  0  0
   38.4340   22.0310   34.7270 C   0  0  0  0  0  0  0  0  0  0  0  0
   38.5420   21.5850   33.4110 C   0  0  0  0  0  0  0  0  0  0  0  0
   39.2180   22.3920   32.5060 N   0  0  0  0  0  0  0  0  0  0  0  0
   39.7540   23.5560   32.8600 C   0  0  0  0  0  0  0  0  0  0  0  0
   39.6750   24.0300   34.1200 N   0  0  0  0  0  0  0  0  0  0  0  0
   41.0940   22.8810   37.1570 C   0  0  0  0  0  0  0  0  0  0  0  0
   41.2090   21.4910   37.3630 C   0  0  0  0  0  0  0  0  0  0  0  0
   42.4750   21.1370   36.9240 C   0  0  0  0  0  0  0  0  0  0  0  0
   43.0530   22.3100   36.4810 C   0  0  0  0  0  0  0  0  0  0  0  0
   42.2160   23.3110   36.6330 O   0  0  0  0  0  0  0  0  0  0  0  0
   44.4250   22.4400   35.9130 C   0  0  0  0  0  0  0  0  0  0  0  0
   44.7340   23.9110   35.7640 C   0  0  0  0  0  0  0  0  0  0  0  0
   45.1400   24.5740   37.0000 C   0  0  0  0  0  0  0  0  0  0  0  0
   46.4720   24.4420   37.4040 C   0  0  0  0  0  0  0  0  0  0  0  0
   46.6080   25.1280   38.5500 N   0  0  0  0  0  0  0  0  0  0  0  0
   45.4420   25.6930   38.9060 C   0  0  0  0  0  0  0  0  0  0  0  0
   44.5780   25.3390   37.9480 N   0  0  0  0  0  0  0  0  0  0  0  0
   38.2332   25.6971   36.9841 H   0  0  0  0  0  0  0  0  0  0  0  0
   36.9760   24.6565   36.3761 H   0  0  0  0  0  0  0  0  0  0  0  0
   37.8169   24.8409   39.1020 H   0  0  0  0  0  0  0  0  0  0  0  0
   36.8418   23.5102   38.4740 H   0  0  0  0  0  0  0  0  0  0  0  0
   39.4190   23.1928   39.4993 H   0  0  0  0  0  0  0  0  0  0  0  0
   38.7500   22.0652   38.3454 H   0  0  0  0  0  0  0  0  0  0  0  0
   40.4547   24.5731   37.8002 H   0  0  0  0  0  0  0  0  0  0  0  0
   37.9101   21.4352   35.4889 H   0  0  0  0  0  0  0  0  0  0  0  0
   38.1057   20.6245   33.0995 H   0  0  0  0  0  0  0  0  0  0  0  0
   40.2795   24.1524   32.0997 H   0  0  0  0  0  0  0  0  0  0  0  0
   40.4464   20.8214   37.7873 H   0  0  0  0  0  0  0  0  0  0  0  0
   42.9246   20.1331   36.9277 H   0  0  0  0  0  0  0  0  0  0  0  0
   45.1548   21.9725   36.5904 H   0  0  0  0  0  0  0  0  0  0  0  0
   44.4820   21.9378   34.9360 H   0  0  0  0  0  0  0  0  0  0  0  0
   45.5491   24.0183   35.0331 H   0  0  0  0  0  0  0  0  0  0  0  0
   43.8002   24.3952   35.4422 H   0  0  0  0  0  0  0  0  0  0  0  0
   47.2606   23.8812   36.8810 H   0  0  0  0  0  0  0  0  0  0  0  0
   45.2414   26.3122   39.7927 H   0  0  0  0  0  0  0  0  0  0  0  0
   43.5880   25.6231   37.9392 H   0  0  0  0  0  0  0  0  0  0  0  0
  1  2  1  0
  1  5  1  0
  2  3  1  0
  3  4  1  0
  5  4  1  0
  6  1  1  0
  7  6  2  0
  8  7  1  0
  9 10  1  0
  9  8  2  0
 10 11  2  0
 11  6  1  0
 12 13  2  0
 12  5  1  0
 14 13  1  0
 15 16  1  0
 15 14  2  0
 16 12  1  0
 17 15  1  0
 18 17  1  0
 18 19  1  0
 19 20  2  0
 19 23  1  0
 20 21  1  0
 21 22  2  0
 23 22  1  0
  2 24  1  0
  2 25  1  0
  3 26  1  0
  3 27  1  0
  4 28  1  0
  4 29  1  0
  5 30  1  1
  7 31  1  0
  8 32  1  0
 10 33  1  0
 13 34  1  0
 14 35  1  0
 17 36  1  0
 17 37  1  0
 18 38  1  0
 18 39  1  0
 20 40  1  0
 22 41  1  0
 23 42  1  0
M  ISO  8  24  13  25  13  26  13  27  13  28  13  29  13  30  13  31  14
M  ISO  8  32  14  33  14  34  14  35  14  36   8  37   8  38   8  39   8
M  ISO  3  40  14  41  14  42   9
M  END
>  <minimizedAffinity>  (1) 
-4.80239487

>  <minimizedRMSD>  (1) 
0.78337878

$$$$
