
     RDKit          3D

 43 46  0  0  1  0  0  0  0  0999 V2000
   40.3370   24.9100   34.7530 N   0  0  0  0  0  0  0  0  0  0  0  0
   40.8160   26.2610   35.0650 C   0  0  0  0  0  0  0  0  0  0  0  0
   39.5810   27.0970   34.7820 C   0  0  0  0  0  0  0  0  0  0  0  0
   38.4400   26.0960   34.6650 C   0  0  0  0  0  0  0  0  0  0  0  0
   38.9820   24.9140   35.3670 C   0  0  1  0  0  0  0  0  0  0  0  0
   41.0160   23.8790   34.0470 C   0  0  0  0  0  0  0  0  0  0  0  0
   40.9120   23.7420   32.6660 C   0  0  0  0  0  0  0  0  0  0  0  0
   41.6130   22.6950   32.0700 C   0  0  0  0  0  0  0  0  0  0  0  0
   42.3640   21.8640   32.8910 N   0  0  0  0  0  0  0  0  0  0  0  0
   42.4260   22.0430   34.2120 C   0  0  0  0  0  0  0  0  0  0  0  0
   41.7670   23.0390   34.8330 N   0  0  0  0  0  0  0  0  0  0  0  0
   38.2720   23.6650   35.2220 C   0  0  0  0  0  0  0  0  0  0  0  0
   37.9590   22.7890   36.2850 C   0  0  0  0  0  0  0  0  0  0  0  0
   37.2810   21.7220   35.7210 C   0  0  0  0  0  0  0  0  0  0  0  0
   37.2200   22.0010   34.3660 C   0  0  0  0  0  0  0  0  0  0  0  0
   37.8100   23.1430   34.1130 O   0  0  0  0  0  0  0  0  0  0  0  0
   36.5790   21.1330   33.3370 C   0  0  0  0  0  0  0  0  0  0  0  0
   36.0610   22.0310   32.2300 C   0  0  0  0  0  0  0  0  0  0  0  0
   37.1300   22.3240   31.2400 C   0  0  0  0  0  0  0  0  0  0  0  0
   37.8670   21.2370   30.7650 C   0  0  0  0  0  0  0  0  0  0  0  0
   38.8870   21.3160   29.8510 C   0  0  0  0  0  0  0  0  0  0  0  0
   39.1860   22.5440   29.3910 N   0  0  0  0  0  0  0  0  0  0  0  0
   38.4770   23.6130   29.8460 C   0  0  0  0  0  0  0  0  0  0  0  0
   37.4770   23.5250   30.7410 N   0  0  0  0  0  0  0  0  0  0  0  0
   41.1242   26.3442   36.1176 H   0  0  0  0  0  0  0  0  0  0  0  0
   41.7029   26.5648   34.4896 H   0  0  0  0  0  0  0  0  0  0  0  0
   39.3940   27.8005   35.6067 H   0  0  0  0  0  0  0  0  0  0  0  0
   39.6934   27.7009   33.8695 H   0  0  0  0  0  0  0  0  0  0  0  0
   37.5306   26.4696   35.1584 H   0  0  0  0  0  0  0  0  0  0  0  0
   38.1395   25.8913   33.6268 H   0  0  0  0  0  0  0  0  0  0  0  0
   38.9239   24.9892   36.4629 H   0  0  0  0  0  0  0  0  0  0  0  0
   40.3002   24.4333   32.0679 H   0  0  0  0  0  0  0  0  0  0  0  0
   41.5726   22.5320   30.9829 H   0  0  0  0  0  0  0  0  0  0  0  0
   43.0362   21.3534   34.8137 H   0  0  0  0  0  0  0  0  0  0  0  0
   38.2048   22.9271   37.3482 H   0  0  0  0  0  0  0  0  0  0  0  0
   36.8766   20.8399   36.2391 H   0  0  0  0  0  0  0  0  0  0  0  0
   37.3177   20.4264   32.9307 H   0  0  0  0  0  0  0  0  0  0  0  0
   35.7545   20.5559   33.7809 H   0  0  0  0  0  0  0  0  0  0  0  0
   35.2259   21.5286   31.7200 H   0  0  0  0  0  0  0  0  0  0  0  0
   35.7252   22.9792   32.6752 H   0  0  0  0  0  0  0  0  0  0  0  0
   37.6098   20.2406   31.1537 H   0  0  0  0  0  0  0  0  0  0  0  0
   39.4315   20.4223   29.5123 H   0  0  0  0  0  0  0  0  0  0  0  0
   38.7376   24.6089   29.4584 H   0  0  0  0  0  0  0  0  0  0  0  0
  1  2  1  0
  1  5  1  0
  3  2  1  0
  4  3  1  0
  4  5  1  0
  6  1  1  0
  6 11  1  0
  7  6  2  0
  8  7  1  0
  8  9  2  0
  9 10  1  0
 10 11  2  0
 12  5  1  0
 12 13  2  0
 14 13  1  0
 15 14  2  0
 16 15  1  0
 16 12  1  0
 17 15  1  0
 18 17  1  0
 19 18  1  0
 20 19  2  0
 21 20  1  0
 22 23  1  0
 22 21  2  0
 23 24  2  0
 24 19  1  0
  2 25  1  0
  2 26  1  0
  3 27  1  0
  3 28  1  0
  4 29  1  0
  4 30  1  0
  5 31  1  1
  7 32  1  0
  8 33  1  0
 10 34  1  0
 13 35  1  0
 14 36  1  0
 17 37  1  0
 17 38  1  0
 18 39  1  0
 18 40  1  0
 20 41  1  0
 21 42  1  0
 23 43  1  0
M  ISO  8  25  13  26  13  27  13  28  13  29  13  30  13  31  13  32  14
M  ISO  8  33  14  34  14  35  14  36  14  37   8  38   8  39   8  40   8
M  ISO  3  41  14  42  14  43  14
M  END
>  <minimizedAffinity>  (1) 
-3.86169481

>  <minimizedRMSD>  (1) 
7.16840696

$$$$
