
     RDKit          3D

 36 38  0  0  0  0  0  0  0  0999 V2000
   38.1690   23.7820   37.1010 C   0  0  0  0  0  0  0  0  0  0  0  0
   41.4890   21.9980   37.2030 C   0  0  0  0  0  0  0  0  0  0  0  0
   40.1790   22.3200   37.5520 C   0  0  0  0  0  0  0  0  0  0  0  0
   39.5460   23.3490   36.8330 C   0  0  0  0  0  0  0  0  0  0  0  0
   40.2430   23.9750   35.8390 N   0  0  0  0  0  0  0  0  0  0  0  0
   41.5050   23.6400   35.5270 C   0  0  0  0  0  0  0  0  0  0  0  0
   42.1230   22.6540   36.2110 N   0  0  0  0  0  0  0  0  0  0  0  0
   38.1790   24.4540   38.4840 C   0  0  0  0  0  0  0  0  0  0  0  0
   37.5750   24.6680   36.0610 C   0  0  0  0  0  0  0  0  0  0  0  0
   37.2800   22.5600   37.2020 C   0  0  0  0  0  0  0  0  0  0  0  0
   36.9800   21.9310   35.9350 C   0  0  0  0  0  0  0  0  0  0  0  0
   35.9040   21.1480   35.7340 C   0  0  0  0  0  0  0  0  0  0  0  0
   35.5410   20.5400   34.6000 C   0  0  0  0  0  0  0  0  0  0  0  0
   36.5360   20.8570   33.5350 C   0  0  0  0  0  0  0  0  0  0  0  0
   37.8120   21.9770   34.3660 S   0  0  0  0  0  0  0  0  0  0  0  0
   36.6550   20.4990   32.1790 N   0  0  0  0  0  0  0  0  0  0  0  0
   37.7560   20.9070   31.5400 N   0  0  0  0  0  0  0  0  0  0  0  0
   37.7330   20.4940   30.2590 C   0  0  0  0  0  0  0  0  0  0  0  0
   36.5530   19.7900   30.1020 C   0  0  0  0  0  0  0  0  0  0  0  0
   35.8700   19.7930   31.3180 C   0  0  0  0  0  0  0  0  0  0  0  0
   42.0132   21.1970   37.7449 H   0  0  0  0  0  0  0  0  0  0  0  0
   39.6584   21.7877   38.3617 H   0  0  0  0  0  0  0  0  0  0  0  0
   42.0328   24.1664   34.7180 H   0  0  0  0  0  0  0  0  0  0  0  0
   38.1675   23.6816   39.2671 H   0  0  0  0  0  0  0  0  0  0  0  0
   39.0864   25.0672   38.5871 H   0  0  0  0  0  0  0  0  0  0  0  0
   37.2903   25.0939   38.5871 H   0  0  0  0  0  0  0  0  0  0  0  0
   37.0256   25.4874   36.5476 H   0  0  0  0  0  0  0  0  0  0  0  0
   38.3764   25.0855   35.4337 H   0  0  0  0  0  0  0  0  0  0  0  0
   36.8844   24.0852   35.4337 H   0  0  0  0  0  0  0  0  0  0  0  0
   37.7836   21.8206   37.8421 H   0  0  0  0  0  0  0  0  0  0  0  0
   36.3206   22.9041   37.6157 H   0  0  0  0  0  0  0  0  0  0  0  0
   35.2478   20.9901   36.6026 H   0  0  0  0  0  0  0  0  0  0  0  0
   34.6505   19.9069   34.4727 H   0  0  0  0  0  0  0  0  0  0  0  0
   38.4988   20.6792   29.4914 H   0  0  0  0  0  0  0  0  0  0  0  0
   36.2107   19.3086   29.1741 H   0  0  0  0  0  0  0  0  0  0  0  0
   34.8996   19.3232   31.5364 H   0  0  0  0  0  0  0  0  0  0  0  0
  1 10  1  0
  1  8  1  0
  2  3  2  0
  4  1  1  0
  4  3  1  0
  5  4  2  0
  6  5  1  0
  6  7  2  0
  7  2  1  0
  9  1  1  0
 11 10  1  0
 12 11  2  0
 13 12  1  0
 14 15  1  0
 14 13  2  0
 15 11  1  0
 16 14  1  0
 17 16  1  0
 18 17  2  0
 19 18  1  0
 19 20  2  0
 20 16  1  0
  2 21  1  0
  3 22  1  0
  6 23  1  0
  8 24  1  0
  8 25  1  0
  8 26  1  0
  9 27  1  0
  9 28  1  0
  9 29  1  0
 10 30  1  0
 10 31  1  0
 12 32  1  0
 13 33  1  0
 18 34  1  0
 19 35  1  0
 20 36  1  0
M  ISO  8  21  14  22  14  23  14  24   8  25   8  26   8  27   8  28   8
M  ISO  8  29   8  30   8  31   8  32  14  33  14  34  14  35  14  36  14
M  END
>  <minimizedAffinity>  (1) 
-4.60520935

>  <minimizedRMSD>  (1) 
0.510474861

$$$$
