
     RDKit          3D

 36 38  0  0  1  0  0  0  0  0999 V2000
   38.8990   23.8040   36.3770 N   0  0  0  0  0  0  0  0  0  0  0  0
   37.8690   24.6550   36.9790 C   0  0  0  0  0  0  0  0  0  0  0  0
   37.7540   24.0500   38.3690 C   0  0  0  0  0  0  0  0  0  0  0  0
   38.9470   23.1250   38.5080 C   0  0  0  0  0  0  0  0  0  0  0  0
   39.8770   23.6630   37.4900 C   0  0  1  0  0  0  0  0  0  0  0  0
   38.9380   23.2630   35.0620 C   0  0  0  0  0  0  0  0  0  0  0  0
   38.3740   22.0280   34.7600 C   0  0  0  0  0  0  0  0  0  0  0  0
   38.4680   21.5830   33.4420 C   0  0  0  0  0  0  0  0  0  0  0  0
   39.1150   22.3990   32.5240 N   0  0  0  0  0  0  0  0  0  0  0  0
   39.6380   23.5770   32.8730 C   0  0  0  0  0  0  0  0  0  0  0  0
   39.5720   24.0470   34.1300 N   0  0  0  0  0  0  0  0  0  0  0  0
   41.0380   22.8790   37.1580 C   0  0  0  0  0  0  0  0  0  0  0  0
   41.1620   21.4920   37.3900 C   0  0  0  0  0  0  0  0  0  0  0  0
   42.4180   21.1320   36.9290 C   0  0  0  0  0  0  0  0  0  0  0  0
   42.9850   22.3100   36.4450 C   0  0  0  0  0  0  0  0  0  0  0  0
   42.1450   23.3000   36.6010 O   0  0  0  0  0  0  0  0  0  0  0  0
   44.3400   22.4060   35.8490 C   0  0  0  0  0  0  0  0  0  0  0  0
   44.9840   23.6790   36.3940 C   0  0  0  0  0  0  0  0  0  0  0  0
   45.1140   24.9400   35.1030 S   0  0  0  0  0  0  0  0  0  0  0  0
   38.1908   25.7060   37.0231 H   0  0  0  0  0  0  0  0  0  0  0  0
   36.9222   24.6789   36.4195 H   0  0  0  0  0  0  0  0  0  0  0  0
   37.7874   24.8384   39.1354 H   0  0  0  0  0  0  0  0  0  0  0  0
   36.8034   23.5130   38.5030 H   0  0  0  0  0  0  0  0  0  0  0  0
   39.3820   23.1833   39.5167 H   0  0  0  0  0  0  0  0  0  0  0  0
   38.7018   22.0622   38.3657 H   0  0  0  0  0  0  0  0  0  0  0  0
   40.4106   24.5688   37.8137 H   0  0  0  0  0  0  0  0  0  0  0  0
   37.8728   21.4252   35.5317 H   0  0  0  0  0  0  0  0  0  0  0  0
   38.0425   20.6150   33.1389 H   0  0  0  0  0  0  0  0  0  0  0  0
   40.1402   24.1835   32.1049 H   0  0  0  0  0  0  0  0  0  0  0  0
   40.4114   20.8295   37.8457 H   0  0  0  0  0  0  0  0  0  0  0  0
   42.8713   20.1298   36.9421 H   0  0  0  0  0  0  0  0  0  0  0  0
   44.2666   22.4604   34.7528 H   0  0  0  0  0  0  0  0  0  0  0  0
   44.9430   21.5226   36.1058 H   0  0  0  0  0  0  0  0  0  0  0  0
   44.3690   24.0694   37.2182 H   0  0  0  0  0  0  0  0  0  0  0  0
   45.9956   23.4361   36.7513 H   0  0  0  0  0  0  0  0  0  0  0  0
   45.2413   26.1750   35.6821 H   0  0  0  0  0  0  0  0  0  0  0  0
  1  2  1  0
  1  5  1  0
  2  3  1  0
  3  4  1  0
  5  4  1  0
  6  1  1  0
  7  6  2  0
  8  7  1  0
  9 10  1  0
  9  8  2  0
 10 11  2  0
 11  6  1  0
 12 13  2  0
 12  5  1  0
 14 13  1  0
 15 16  1  0
 15 14  2  0
 16 12  1  0
 17 18  1  0
 17 15  1  0
 19 18  1  0
  2 20  1  0
  2 21  1  0
  3 22  1  0
  3 23  1  0
  4 24  1  0
  4 25  1  0
  5 26  1  1
  7 27  1  0
  8 28  1  0
 10 29  1  0
 13 30  1  0
 14 31  1  0
 17 32  1  0
 17 33  1  0
 18 34  1  0
 18 35  1  0
 19 36  1  0
M  ISO  8  20  13  21  13  22  13  23  13  24  13  25  13  26  13  27  14
M  ISO  8  28  14  29  14  30  14  31  14  32   8  33   8  34   8  35   8
M  ISO  1  36  11
M  END
>  <minimizedAffinity>  (1) 
-3.79827476

>  <minimizedRMSD>  (1) 
0.313596636

$$$$
