
     RDKit          3D

 36 38  0  0  1  0  0  0  0  0999 V2000
   38.8970   23.8030   36.3820 N   0  0  0  0  0  0  0  0  0  0  0  0
   37.8700   24.6540   36.9890 C   0  0  0  0  0  0  0  0  0  0  0  0
   37.7370   24.0370   38.3700 C   0  0  0  0  0  0  0  0  0  0  0  0
   38.9490   23.1300   38.5190 C   0  0  0  0  0  0  0  0  0  0  0  0
   39.8730   23.6660   37.4970 C   0  0  1  0  0  0  0  0  0  0  0  0
   38.9350   23.2620   35.0670 C   0  0  0  0  0  0  0  0  0  0  0  0
   38.3740   22.0270   34.7630 C   0  0  0  0  0  0  0  0  0  0  0  0
   38.4690   21.5840   33.4450 C   0  0  0  0  0  0  0  0  0  0  0  0
   39.1140   22.4020   32.5260 N   0  0  0  0  0  0  0  0  0  0  0  0
   39.6350   23.5800   32.8760 C   0  0  0  0  0  0  0  0  0  0  0  0
   39.5680   24.0500   34.1350 N   0  0  0  0  0  0  0  0  0  0  0  0
   41.0350   22.8790   37.1630 C   0  0  0  0  0  0  0  0  0  0  0  0
   41.1630   21.4940   37.3970 C   0  0  0  0  0  0  0  0  0  0  0  0
   42.4170   21.1350   36.9340 C   0  0  0  0  0  0  0  0  0  0  0  0
   42.9820   22.3140   36.4460 C   0  0  0  0  0  0  0  0  0  0  0  0
   42.1410   23.3020   36.6010 O   0  0  0  0  0  0  0  0  0  0  0  0
   44.3350   22.4110   35.8450 C   0  0  0  0  0  0  0  0  0  0  0  0
   44.9720   23.6930   36.3780 C   0  0  0  0  0  0  0  0  0  0  0  0
   44.3430   24.8160   35.9010 O   0  0  0  0  0  0  0  0  0  0  0  0
   38.2004   25.7015   37.0478 H   0  0  0  0  0  0  0  0  0  0  0  0
   36.9275   24.6899   36.4229 H   0  0  0  0  0  0  0  0  0  0  0  0
   37.7424   24.8186   39.1440 H   0  0  0  0  0  0  0  0  0  0  0  0
   36.7929   23.4843   38.4846 H   0  0  0  0  0  0  0  0  0  0  0  0
   39.3824   23.2070   39.5271 H   0  0  0  0  0  0  0  0  0  0  0  0
   38.7185   22.0626   38.3870 H   0  0  0  0  0  0  0  0  0  0  0  0
   40.4024   24.5747   37.8194 H   0  0  0  0  0  0  0  0  0  0  0  0
   37.8739   21.4221   35.5337 H   0  0  0  0  0  0  0  0  0  0  0  0
   38.0457   20.6152   33.1414 H   0  0  0  0  0  0  0  0  0  0  0  0
   40.1366   24.1877   32.1085 H   0  0  0  0  0  0  0  0  0  0  0  0
   40.4150   20.8310   37.8562 H   0  0  0  0  0  0  0  0  0  0  0  0
   42.8715   20.1334   36.9478 H   0  0  0  0  0  0  0  0  0  0  0  0
   44.2586   22.4552   34.7485 H   0  0  0  0  0  0  0  0  0  0  0  0
   44.9437   21.5330   36.1068 H   0  0  0  0  0  0  0  0  0  0  0  0
   44.9099   23.6905   37.4762 H   0  0  0  0  0  0  0  0  0  0  0  0
   46.0181   23.7193   36.0389 H   0  0  0  0  0  0  0  0  0  0  0  0
   44.0333   25.3689   36.6615 H   0  0  0  0  0  0  0  0  0  0  0  0
  1  2  1  0
  1  5  1  0
  2  3  1  0
  3  4  1  0
  5  4  1  0
  6  1  1  0
  7  6  2  0
  8  7  1  0
  9 10  1  0
  9  8  2  0
 10 11  2  0
 11  6  1  0
 12 13  2  0
 12  5  1  0
 14 13  1  0
 15 16  1  0
 15 14  2  0
 16 12  1  0
 17 18  1  0
 17 15  1  0
 19 18  1  0
  2 20  1  0
  2 21  1  0
  3 22  1  0
  3 23  1  0
  4 24  1  0
  4 25  1  0
  5 26  1  1
  7 27  1  0
  8 28  1  0
 10 29  1  0
 13 30  1  0
 14 31  1  0
 17 32  1  0
 17 33  1  0
 18 34  1  0
 18 35  1  0
 19 36  1  0
M  ISO  8  20  13  21  13  22  13  23  13  24  13  25  13  26  13  27  14
M  ISO  8  28  14  29  14  30  14  31  14  32   8  33   8  34   8  35   8
M  ISO  1  36   3
M  END
>  <minimizedAffinity>  (1) 
-3.82370543

>  <minimizedRMSD>  (1) 
0.0428173617

$$$$
