
     RDKit          3D

 52 55  0  0  1  0  0  0  0  0999 V2000
   38.8320   23.7920   36.3580 N   0  0  0  0  0  0  0  0  0  0  0  0
   37.8850   24.7100   37.0050 C   0  0  0  0  0  0  0  0  0  0  0  0
   37.8290   24.1710   38.4120 C   0  0  0  0  0  0  0  0  0  0  0  0
   39.0100   23.2190   38.5150 C   0  0  0  0  0  0  0  0  0  0  0  0
   39.8850   23.6510   37.4260 C   0  0  1  0  0  0  0  0  0  0  0  0
   38.7530   23.2100   35.0670 C   0  0  0  0  0  0  0  0  0  0  0  0
   38.0650   22.0370   34.8350 C   0  0  0  0  0  0  0  0  0  0  0  0
   38.0530   21.5520   33.5270 C   0  0  0  0  0  0  0  0  0  0  0  0
   38.7280   22.2770   32.5530 N   0  0  0  0  0  0  0  0  0  0  0  0
   39.3800   23.4120   32.8410 C   0  0  0  0  0  0  0  0  0  0  0  0
   39.4210   23.9200   34.0850 N   0  0  0  0  0  0  0  0  0  0  0  0
   40.9780   22.8150   37.0300 C   0  0  0  0  0  0  0  0  0  0  0  0
   41.1550   21.4730   37.4570 C   0  0  0  0  0  0  0  0  0  0  0  0
   42.3190   21.0190   36.8580 C   0  0  0  0  0  0  0  0  0  0  0  0
   42.7890   22.0960   36.1030 C   0  0  0  0  0  0  0  0  0  0  0  0
   41.9750   23.1060   36.2410 O   0  0  0  0  0  0  0  0  0  0  0  0
   44.0260   22.0830   35.2710 C   0  0  0  0  0  0  0  0  0  0  0  0
   45.0410   22.9590   35.9730 C   0  0  0  0  0  0  0  0  0  0  0  0
   45.1090   24.2190   35.4390 O   0  0  0  0  0  0  0  0  0  0  0  0
   45.5480   25.1880   36.3430 C   0  0  0  0  0  0  0  0  0  0  0  0
   46.7790   24.5390   36.9850 C   0  0  0  0  0  0  0  0  0  0  0  0
   47.1860   25.1530   38.2750 C   0  0  0  0  0  0  0  0  0  0  0  0
   46.0360   25.2760   39.2570 C   0  0  0  0  0  0  0  0  0  0  0  0
   44.8970   26.0170   38.6470 C   0  0  0  0  0  0  0  0  0  0  0  0
   44.4570   25.3430   37.3700 C   0  0  0  0  0  0  0  0  0  0  0  0
   38.2583   25.7446   36.9889 H   0  0  0  0  0  0  0  0  0  0  0  0
   36.9038   24.7534   36.5096 H   0  0  0  0  0  0  0  0  0  0  0  0
   37.9253   24.9873   39.1430 H   0  0  0  0  0  0  0  0  0  0  0  0
   36.8735   23.6692   38.6249 H   0  0  0  0  0  0  0  0  0  0  0  0
   39.5131   23.3188   39.4881 H   0  0  0  0  0  0  0  0  0  0  0  0
   38.7184   22.1610   38.4396 H   0  0  0  0  0  0  0  0  0  0  0  0
   40.4845   24.5328   37.6962 H   0  0  0  0  0  0  0  0  0  0  0  0
   37.5474   21.5062   35.6476 H   0  0  0  0  0  0  0  0  0  0  0  0
   37.5238   20.6215   33.2739 H   0  0  0  0  0  0  0  0  0  0  0  0
   39.8994   23.9462   32.0317 H   0  0  0  0  0  0  0  0  0  0  0  0
   40.4972   20.9049   38.1312 H   0  0  0  0  0  0  0  0  0  0  0  0
   42.7755   20.0230   36.9561 H   0  0  0  0  0  0  0  0  0  0  0  0
   43.8113   22.4823   34.2688 H   0  0  0  0  0  0  0  0  0  0  0  0
   44.4078   21.0583   35.1515 H   0  0  0  0  0  0  0  0  0  0  0  0
   44.7620   23.0406   37.0339 H   0  0  0  0  0  0  0  0  0  0  0  0
   46.0284   22.4906   35.8479 H   0  0  0  0  0  0  0  0  0  0  0  0
   45.7761   26.1706   35.9042 H   0  0  0  0  0  0  0  0  0  0  0  0
   46.5558   23.4768   37.1634 H   0  0  0  0  0  0  0  0  0  0  0  0
   47.6156   24.6863   36.2861 H   0  0  0  0  0  0  0  0  0  0  0  0
   47.9704   24.5295   38.7289 H   0  0  0  0  0  0  0  0  0  0  0  0
   47.5465   26.1695   38.0585 H   0  0  0  0  0  0  0  0  0  0  0  0
   45.6985   24.2695   39.5452 H   0  0  0  0  0  0  0  0  0  0  0  0
   46.3846   25.8304   40.1408 H   0  0  0  0  0  0  0  0  0  0  0  0
   44.0558   26.0365   39.3555 H   0  0  0  0  0  0  0  0  0  0  0  0
   45.2199   27.0431   38.4170 H   0  0  0  0  0  0  0  0  0  0  0  0
   43.6481   25.9415   36.9256 H   0  0  0  0  0  0  0  0  0  0  0  0
   44.1361   24.3272   37.6444 H   0  0  0  0  0  0  0  0  0  0  0  0
  1  2  1  0
  1  5  1  0
  2  3  1  0
  3  4  1  0
  5  4  1  0
  6  1  1  0
  7  6  2  0
  8  7  1  0
  9 10  1  0
  9  8  2  0
 10 11  2  0
 11  6  1  0
 12  5  1  0
 12 13  2  0
 14 13  1  0
 15 16  1  0
 15 14  2  0
 16 12  1  0
 17 18  1  0
 17 15  1  0
 19 18  1  0
 19 20  1  0
 20 21  1  0
 20 25  1  0
 21 22  1  0
 22 23  1  0
 24 23  1  0
 25 24  1  0
  2 26  1  0
  2 27  1  0
  3 28  1  0
  3 29  1  0
  4 30  1  0
  4 31  1  0
  5 32  1  1
  7 33  1  0
  8 34  1  0
 10 35  1  0
 13 36  1  0
 14 37  1  0
 17 38  1  0
 17 39  1  0
 18 40  1  0
 18 41  1  0
 20 42  1  0
 21 43  1  0
 21 44  1  0
 22 45  1  0
 22 46  1  0
 23 47  1  0
 23 48  1  0
 24 49  1  0
 24 50  1  0
 25 51  1  0
 25 52  1  0
M  ISO  8  26  13  27  13  28  13  29  13  30  13  31  13  32  13  33  14
M  ISO  8  34  14  35  14  36  14  37  14  38   8  39   8  40   8  41   8
M  ISO  8  42  13  43  13  44  13  45  13  46  13  47  13  48  13  49  13
M  ISO  3  50  13  51  13  52  13
M  END
>  <minimizedAffinity>  (1) 
-5.41381979

>  <minimizedRMSD>  (1) 
2.77594566

$$$$
