
     RDKit          3D

 49 52  0  0  1  0  0  0  0  0999 V2000
   38.9380   23.7560   36.1570 N   0  0  0  0  0  0  0  0  0  0  0  0
   37.9330   24.6330   36.7720 C   0  0  0  0  0  0  0  0  0  0  0  0
   37.8230   24.0580   38.1620 C   0  0  0  0  0  0  0  0  0  0  0  0
   39.0410   23.1610   38.3140 C   0  0  0  0  0  0  0  0  0  0  0  0
   39.9460   23.6400   37.2700 C   0  0  1  0  0  0  0  0  0  0  0  0
   38.9380   23.1870   34.8560 C   0  0  0  0  0  0  0  0  0  0  0  0
   38.3510   21.9670   34.5920 C   0  0  0  0  0  0  0  0  0  0  0  0
   38.4160   21.5040   33.2780 C   0  0  0  0  0  0  0  0  0  0  0  0
   39.0590   22.2920   32.3320 N   0  0  0  0  0  0  0  0  0  0  0  0
   39.6080   23.4660   32.6520 C   0  0  0  0  0  0  0  0  0  0  0  0
   39.5760   23.9630   33.9040 N   0  0  0  0  0  0  0  0  0  0  0  0
   41.0910   22.8590   36.9150 C   0  0  0  0  0  0  0  0  0  0  0  0
   41.2920   21.5120   37.3140 C   0  0  0  0  0  0  0  0  0  0  0  0
   42.5030   21.1180   36.7720 C   0  0  0  0  0  0  0  0  0  0  0  0
   42.9810   22.2350   36.0750 C   0  0  0  0  0  0  0  0  0  0  0  0
   42.1140   23.2160   36.1970 O   0  0  0  0  0  0  0  0  0  0  0  0
   44.2620   22.2860   35.3230 C   0  0  0  0  0  0  0  0  0  0  0  0
   45.2710   22.9860   36.2240 C   0  0  0  0  0  0  0  0  0  0  0  0
   45.5690   24.2450   35.7660 O   0  0  0  0  0  0  0  0  0  0  0  0
   45.7910   25.1890   36.7180 C   0  0  0  0  0  0  0  0  0  0  0  0
   46.6880   24.7200   37.8440 C   0  0  0  0  0  0  0  0  0  0  0  0
   46.1450   25.2830   39.1280 C   0  0  0  0  0  0  0  0  0  0  0  0
   44.8910   26.0460   38.7720 C   0  0  0  0  0  0  0  0  0  0  0  0
   44.4960   25.4150   37.4650 C   0  0  0  0  0  0  0  0  0  0  0  0
   38.2764   25.6777   36.7977 H   0  0  0  0  0  0  0  0  0  0  0  0
   36.9777   24.6626   36.2275 H   0  0  0  0  0  0  0  0  0  0  0  0
   37.8372   24.8602   38.9145 H   0  0  0  0  0  0  0  0  0  0  0  0
   36.8826   23.5062   38.3078 H   0  0  0  0  0  0  0  0  0  0  0  0
   39.4930   23.2762   39.3102 H   0  0  0  0  0  0  0  0  0  0  0  0
   38.8019   22.0916   38.2180 H   0  0  0  0  0  0  0  0  0  0  0  0
   40.4975   24.5403   37.5788 H   0  0  0  0  0  0  0  0  0  0  0  0
   37.8539   21.3854   35.3823 H   0  0  0  0  0  0  0  0  0  0  0  0
   37.9691   20.5387   32.9978 H   0  0  0  0  0  0  0  0  0  0  0  0
   40.1054   24.0499   31.8636 H   0  0  0  0  0  0  0  0  0  0  0  0
   40.6179   20.9012   37.9324 H   0  0  0  0  0  0  0  0  0  0  0  0
   42.9877   20.1353   36.8683 H   0  0  0  0  0  0  0  0  0  0  0  0
   44.6052   21.2674   35.0893 H   0  0  0  0  0  0  0  0  0  0  0  0
   44.1410   22.8244   34.3714 H   0  0  0  0  0  0  0  0  0  0  0  0
   44.8503   23.0650   37.2373 H   0  0  0  0  0  0  0  0  0  0  0  0
   46.1976   22.3932   36.2286 H   0  0  0  0  0  0  0  0  0  0  0  0
   46.2198   26.0467   36.1791 H   0  0  0  0  0  0  0  0  0  0  0  0
   46.6896   23.6209   37.8883 H   0  0  0  0  0  0  0  0  0  0  0  0
   47.7208   25.0616   37.6807 H   0  0  0  0  0  0  0  0  0  0  0  0
   45.9072   24.4687   39.8283 H   0  0  0  0  0  0  0  0  0  0  0  0
   46.8818   25.9385   39.6152 H   0  0  0  0  0  0  0  0  0  0  0  0
   44.1099   25.9075   39.5340 H   0  0  0  0  0  0  0  0  0  0  0  0
   45.0386   27.1343   38.7104 H   0  0  0  0  0  0  0  0  0  0  0  0
   43.8369   26.0879   36.8969 H   0  0  0  0  0  0  0  0  0  0  0  0
   43.9426   24.4764   37.6157 H   0  0  0  0  0  0  0  0  0  0  0  0
  1  2  1  0
  1  5  1  0
  2  3  1  0
  3  4  1  0
  5  4  1  0
  6  1  1  0
  7  6  2  0
  8  7  1  0
  9 10  1  0
  9  8  2  0
 10 11  2  0
 11  6  1  0
 12  5  1  0
 12 13  2  0
 14 13  1  0
 15 16  1  0
 15 14  2  0
 16 12  1  0
 17 15  1  0
 17 18  1  0
 19 18  1  0
 19 20  1  0
 20 24  1  0
 20 21  1  0
 21 22  1  0
 23 22  1  0
 24 23  1  0
  2 25  1  0
  2 26  1  0
  3 27  1  0
  3 28  1  0
  4 29  1  0
  4 30  1  0
  5 31  1  1
  7 32  1  0
  8 33  1  0
 10 34  1  0
 13 35  1  0
 14 36  1  0
 17 37  1  0
 17 38  1  0
 18 39  1  0
 18 40  1  0
 20 41  1  0
 21 42  1  0
 21 43  1  0
 22 44  1  0
 22 45  1  0
 23 46  1  0
 23 47  1  0
 24 48  1  0
 24 49  1  0
M  ISO  8  25  13  26  13  27  13  28  13  29  13  30  13  31  13  32  14
M  ISO  8  33  14  34  14  35  14  36  14  37   8  38   8  39   8  40   8
M  ISO  8  41  13  42  13  43  13  44  13  45  13  46  13  47  13  48  13
M  ISO  1  49  13
M  END
>  <minimizedAffinity>  (1) 
-5.20425558

>  <minimizedRMSD>  (1) 
2.52865314

$$$$
