
     RDKit          3D

 43 46  0  0  1  0  0  0  0  0999 V2000
   38.7890   23.8120   36.2990 N   0  0  0  0  0  0  0  0  0  0  0  0
   37.8780   24.7460   36.9740 C   0  0  0  0  0  0  0  0  0  0  0  0
   37.8530   24.1910   38.3860 C   0  0  0  0  0  0  0  0  0  0  0  0
   39.0200   23.2330   38.4500 C   0  0  0  0  0  0  0  0  0  0  0  0
   39.8690   23.6420   37.3340 C   0  0  1  0  0  0  0  0  0  0  0  0
   38.6640   23.2350   35.0060 C   0  0  0  0  0  0  0  0  0  0  0  0
   38.0400   22.0170   34.8090 C   0  0  0  0  0  0  0  0  0  0  0  0
   37.9770   21.5460   33.4990 C   0  0  0  0  0  0  0  0  0  0  0  0
   38.5360   22.3190   32.4940 N   0  0  0  0  0  0  0  0  0  0  0  0
   39.1250   23.4880   32.7490 C   0  0  0  0  0  0  0  0  0  0  0  0
   39.2150   23.9910   33.9930 N   0  0  0  0  0  0  0  0  0  0  0  0
   40.9410   22.7950   36.9050 C   0  0  0  0  0  0  0  0  0  0  0  0
   41.1810   21.4970   37.4350 C   0  0  0  0  0  0  0  0  0  0  0  0
   42.2910   21.0070   36.7710 C   0  0  0  0  0  0  0  0  0  0  0  0
   42.6610   22.0170   35.8890 C   0  0  0  0  0  0  0  0  0  0  0  0
   41.8420   23.0420   36.0030 O   0  0  0  0  0  0  0  0  0  0  0  0
   43.8220   21.9350   34.9520 C   0  0  0  0  0  0  0  0  0  0  0  0
   45.0500   22.3800   35.7340 C   0  0  0  0  0  0  0  0  0  0  0  0
   45.2540   23.7210   35.6620 O   0  0  0  0  0  0  0  0  0  0  0  0
   45.5440   24.4330   36.8590 C   0  0  0  0  0  0  0  0  0  0  0  0
   44.5490   25.1300   37.4020 C   0  0  0  0  0  0  0  0  0  0  0  0
   44.6740   25.8600   38.5460 C   0  0  0  0  0  0  0  0  0  0  0  0
   46.0840   25.7560   39.0820 C   0  0  0  0  0  0  0  0  0  0  0  0
   46.9490   24.6440   37.8610 S   0  0  0  0  0  0  0  0  0  0  0  0
   38.2711   25.7732   36.9545 H   0  0  0  0  0  0  0  0  0  0  0  0
   36.8851   24.8160   36.5057 H   0  0  0  0  0  0  0  0  0  0  0  0
   37.9757   24.9996   39.1216 H   0  0  0  0  0  0  0  0  0  0  0  0
   36.8986   23.6960   38.6187 H   0  0  0  0  0  0  0  0  0  0  0  0
   39.5553   23.3310   39.4059 H   0  0  0  0  0  0  0  0  0  0  0  0
   38.7095   22.1798   38.3842 H   0  0  0  0  0  0  0  0  0  0  0  0
   40.4972   24.5083   37.5887 H   0  0  0  0  0  0  0  0  0  0  0  0
   37.6133   21.4465   35.6471 H   0  0  0  0  0  0  0  0  0  0  0  0
   37.4954   20.5843   33.2684 H   0  0  0  0  0  0  0  0  0  0  0  0
   39.5521   24.0608   31.9126 H   0  0  0  0  0  0  0  0  0  0  0  0
   40.6001   20.9853   38.2165 H   0  0  0  0  0  0  0  0  0  0  0  0
   42.7763   20.0297   36.9103 H   0  0  0  0  0  0  0  0  0  0  0  0
   43.6607   22.5991   34.0900 H   0  0  0  0  0  0  0  0  0  0  0  0
   43.9479   20.9120   34.5678 H   0  0  0  0  0  0  0  0  0  0  0  0
   44.9171   22.0994   36.7893 H   0  0  0  0  0  0  0  0  0  0  0  0
   45.9264   21.8841   35.2913 H   0  0  0  0  0  0  0  0  0  0  0  0
   43.5707   25.1162   36.8993 H   0  0  0  0  0  0  0  0  0  0  0  0
   43.8651   26.4415   39.0125 H   0  0  0  0  0  0  0  0  0  0  0  0
   46.5025   26.2273   39.9835 H   0  0  0  0  0  0  0  0  0  0  0  0
  1  2  1  0
  1  5  1  0
  2  3  1  0
  3  4  1  0
  5  4  1  0
  6  1  1  0
  7  6  2  0
  8  7  1  0
  9 10  1  0
  9  8  2  0
 10 11  2  0
 11  6  1  0
 12  5  1  0
 12 13  2  0
 14 13  1  0
 15 16  1  0
 15 14  2  0
 16 12  1  0
 17 18  1  0
 17 15  1  0
 19 18  1  0
 19 20  1  0
 20 21  2  0
 20 24  1  0
 21 22  1  0
 22 23  2  0
 24 23  1  0
  2 25  1  0
  2 26  1  0
  3 27  1  0
  3 28  1  0
  4 29  1  0
  4 30  1  0
  5 31  1  1
  7 32  1  0
  8 33  1  0
 10 34  1  0
 13 35  1  0
 14 36  1  0
 17 37  1  0
 17 38  1  0
 18 39  1  0
 18 40  1  0
 21 41  1  0
 22 42  1  0
 23 43  1  0
M  ISO  8  25  13  26  13  27  13  28  13  29  13  30  13  31  13  32  14
M  ISO  8  33  14  34  14  35  14  36  14  37   8  38   8  39   8  40   8
M  ISO  3  41  14  42  14  43  14
M  END
>  <minimizedAffinity>  (1) 
-4.92227125

>  <minimizedRMSD>  (1) 
2.56934571

$$$$
