
     RDKit          3D

 48 50  0  0  1  0  0  0  0  0999 V2000
   38.6780   23.7270   36.1940 N   0  0  0  0  0  0  0  0  0  0  0  0
   37.6000   24.4990   36.8340 C   0  0  0  0  0  0  0  0  0  0  0  0
   37.5610   23.8890   38.2140 C   0  0  0  0  0  0  0  0  0  0  0  0
   38.8610   23.1130   38.3370 C   0  0  0  0  0  0  0  0  0  0  0  0
   39.7090   23.6830   37.2930 C   0  0  1  0  0  0  0  0  0  0  0  0
   38.7150   23.1840   34.8830 C   0  0  0  0  0  0  0  0  0  0  0  0
   38.2130   21.9310   34.5990 C   0  0  0  0  0  0  0  0  0  0  0  0
   38.3030   21.4920   33.2780 C   0  0  0  0  0  0  0  0  0  0  0  0
   38.8910   22.3440   32.3420 N   0  0  0  0  0  0  0  0  0  0  0  0
   39.3570   23.5450   32.6810 C   0  0  0  0  0  0  0  0  0  0  0  0
   39.2920   24.0100   33.9400 N   0  0  0  0  0  0  0  0  0  0  0  0
   40.9160   23.0050   36.9120 C   0  0  0  0  0  0  0  0  0  0  0  0
   41.2200   21.6650   37.2750 C   0  0  0  0  0  0  0  0  0  0  0  0
   42.4610   21.3920   36.7160 C   0  0  0  0  0  0  0  0  0  0  0  0
   42.8320   22.5610   36.0570 C   0  0  0  0  0  0  0  0  0  0  0  0
   41.9000   23.4710   36.2000 O   0  0  0  0  0  0  0  0  0  0  0  0
   44.0950   22.7450   35.3050 C   0  0  0  0  0  0  0  0  0  0  0  0
   45.1200   23.3360   36.2570 C   0  0  0  0  0  0  0  0  0  0  0  0
   44.5430   24.1950   37.1610 O   0  0  0  0  0  0  0  0  0  0  0  0
   45.3750   25.2640   37.5000 C   0  0  0  0  0  0  0  0  0  0  0  0
   44.8620   26.0150   38.6890 C   0  0  0  0  0  0  0  0  0  0  0  0
   45.5080   26.1360   36.2720 C   0  0  0  0  0  0  0  0  0  0  0  0
   46.7310   24.6910   37.8420 C   0  0  0  0  0  0  0  0  0  0  0  0
   37.8454   25.5704   36.8765 H   0  0  0  0  0  0  0  0  0  0  0  0
   36.6401   24.4520   36.2988 H   0  0  0  0  0  0  0  0  0  0  0  0
   37.5051   24.6741   38.9824 H   0  0  0  0  0  0  0  0  0  0  0  0
   36.6803   23.2456   38.3569 H   0  0  0  0  0  0  0  0  0  0  0  0
   39.3113   23.2583   39.3300 H   0  0  0  0  0  0  0  0  0  0  0  0
   38.7202   22.0279   38.2245 H   0  0  0  0  0  0  0  0  0  0  0  0
   40.1868   24.6223   37.6083 H   0  0  0  0  0  0  0  0  0  0  0  0
   37.7606   21.3041   35.3815 H   0  0  0  0  0  0  0  0  0  0  0  0
   37.9217   20.5033   32.9827 H   0  0  0  0  0  0  0  0  0  0  0  0
   39.8105   24.1777   31.9038 H   0  0  0  0  0  0  0  0  0  0  0  0
   40.5993   20.9839   37.8757 H   0  0  0  0  0  0  0  0  0  0  0  0
   43.0298   20.4527   36.7800 H   0  0  0  0  0  0  0  0  0  0  0  0
   44.4505   21.7749   34.9275 H   0  0  0  0  0  0  0  0  0  0  0  0
   43.9371   23.4143   34.4465 H   0  0  0  0  0  0  0  0  0  0  0  0
   45.6091   22.5178   36.8059 H   0  0  0  0  0  0  0  0  0  0  0  0
   45.8494   23.9057   35.6625 H   0  0  0  0  0  0  0  0  0  0  0  0
   45.2010   25.5188   39.6103 H   0  0  0  0  0  0  0  0  0  0  0  0
   45.2457   27.0456   38.6652 H   0  0  0  0  0  0  0  0  0  0  0  0
   43.7624   26.0324   38.6652 H   0  0  0  0  0  0  0  0  0  0  0  0
   45.6673   27.1801   36.5792 H   0  0  0  0  0  0  0  0  0  0  0  0
   46.3646   25.7957   35.6717 H   0  0  0  0  0  0  0  0  0  0  0  0
   44.5889   26.0666   35.6717 H   0  0  0  0  0  0  0  0  0  0  0  0
   46.8438   24.6433   38.9352 H   0  0  0  0  0  0  0  0  0  0  0  0
   46.8185   23.6790   37.4199 H   0  0  0  0  0  0  0  0  0  0  0  0
   47.5177   25.3336   37.4199 H   0  0  0  0  0  0  0  0  0  0  0  0
  1  2  1  0
  1  5  1  0
  2  3  1  0
  3  4  1  0
  5  4  1  0
  6  1  1  0
  7  6  2  0
  8  7  1  0
  9 10  1  0
  9  8  2  0
 10 11  2  0
 11  6  1  0
 12 13  2  0
 12  5  1  0
 14 13  1  0
 15 16  1  0
 15 14  2  0
 16 12  1  0
 17 15  1  0
 17 18  1  0
 18 19  1  0
 19 20  1  0
 20 23  1  0
 20 21  1  0
 22 20  1  0
  2 24  1  0
  2 25  1  0
  3 26  1  0
  3 27  1  0
  4 28  1  0
  4 29  1  0
  5 30  1  1
  7 31  1  0
  8 32  1  0
 10 33  1  0
 13 34  1  0
 14 35  1  0
 17 36  1  0
 17 37  1  0
 18 38  1  0
 18 39  1  0
 21 40  1  0
 21 41  1  0
 21 42  1  0
 22 43  1  0
 22 44  1  0
 22 45  1  0
 23 46  1  0
 23 47  1  0
 23 48  1  0
M  ISO  8  24  13  25  13  26  13  27  13  28  13  29  13  30  13  31  14
M  ISO  8  32  14  33  14  34  14  35  14  36   8  37   8  38   8  39   8
M  ISO  8  40   8  41   8  42   8  43   8  44   8  45   8  46   8  47   8
M  ISO  1  48   8
M  END
>  <minimizedAffinity>  (1) 
-4.67030573

>  <minimizedRMSD>  (1) 
0.766602695

$$$$
