
     RDKit          3D

 43 46  0  0  1  0  0  0  0  0999 V2000
   38.7340   23.6980   36.1880 N   0  0  0  0  0  0  0  0  0  0  0  0
   37.6150   24.4020   36.8340 C   0  0  0  0  0  0  0  0  0  0  0  0
   37.6190   23.7830   38.2130 C   0  0  0  0  0  0  0  0  0  0  0  0
   38.9410   23.0480   38.3110 C   0  0  0  0  0  0  0  0  0  0  0  0
   39.7650   23.6840   37.2860 C   0  0  1  0  0  0  0  0  0  0  0  0
   38.8030   23.1820   34.8680 C   0  0  0  0  0  0  0  0  0  0  0  0
   38.3360   21.9220   34.5480 C   0  0  0  0  0  0  0  0  0  0  0  0
   38.4610   21.5190   33.2190 C   0  0  0  0  0  0  0  0  0  0  0  0
   39.0410   22.4020   32.3090 N   0  0  0  0  0  0  0  0  0  0  0  0
   39.4720   23.6080   32.6810 C   0  0  0  0  0  0  0  0  0  0  0  0
   39.3730   24.0380   33.9460 N   0  0  0  0  0  0  0  0  0  0  0  0
   41.0070   23.0800   36.8980 C   0  0  0  0  0  0  0  0  0  0  0  0
   41.3650   21.7390   37.2080 C   0  0  0  0  0  0  0  0  0  0  0  0
   42.6240   21.5440   36.6610 C   0  0  0  0  0  0  0  0  0  0  0  0
   42.9530   22.7640   36.0550 C   0  0  0  0  0  0  0  0  0  0  0  0
   41.9770   23.6230   36.2220 O   0  0  0  0  0  0  0  0  0  0  0  0
   44.2180   23.0230   35.3380 C   0  0  0  0  0  0  0  0  0  0  0  0
   45.1900   23.6460   36.3320 C   0  0  0  0  0  0  0  0  0  0  0  0
   44.5250   24.2800   37.3570 O   0  0  0  0  0  0  0  0  0  0  0  0
   45.2890   25.4110   37.7070 C   0  0  0  0  0  0  0  0  0  0  0  0
   44.8670   26.2990   38.8050 C   0  0  0  0  0  0  0  0  0  0  0  0
   45.9310   25.2850   39.0450 C   0  0  0  0  0  0  0  0  0  0  0  0
   37.7965   25.4859   36.8805 H   0  0  0  0  0  0  0  0  0  0  0  0
   36.6574   24.3015   36.3021 H   0  0  0  0  0  0  0  0  0  0  0  0
   37.5519   24.5623   38.9865 H   0  0  0  0  0  0  0  0  0  0  0  0
   36.7613   23.1115   38.3663 H   0  0  0  0  0  0  0  0  0  0  0  0
   39.3877   23.1746   39.3082 H   0  0  0  0  0  0  0  0  0  0  0  0
   38.8383   21.9627   38.1640 H   0  0  0  0  0  0  0  0  0  0  0  0
   40.1963   24.6386   37.6216 H   0  0  0  0  0  0  0  0  0  0  0  0
   37.8857   21.2660   35.3075 H   0  0  0  0  0  0  0  0  0  0  0  0
   38.1103   20.5277   32.8960 H   0  0  0  0  0  0  0  0  0  0  0  0
   39.9224   24.2696   31.9264 H   0  0  0  0  0  0  0  0  0  0  0  0
   40.7654   21.0060   37.7676 H   0  0  0  0  0  0  0  0  0  0  0  0
   43.2333   20.6288   36.6953 H   0  0  0  0  0  0  0  0  0  0  0  0
   44.6302   22.0794   34.9511 H   0  0  0  0  0  0  0  0  0  0  0  0
   44.0489   23.6989   34.4868 H   0  0  0  0  0  0  0  0  0  0  0  0
   45.8261   22.8542   36.7543 H   0  0  0  0  0  0  0  0  0  0  0  0
   45.7970   24.3932   35.7997 H   0  0  0  0  0  0  0  0  0  0  0  0
   45.5848   25.6229   36.6689 H   0  0  0  0  0  0  0  0  0  0  0  0
   45.1240   27.3682   38.7761 H   0  0  0  0  0  0  0  0  0  0  0  0
   43.9052   26.5416   39.2804 H   0  0  0  0  0  0  0  0  0  0  0  0
   45.7250   24.4075   39.6755 H   0  0  0  0  0  0  0  0  0  0  0  0
   46.9641   25.3100   39.4219 H   0  0  0  0  0  0  0  0  0  0  0  0
  1  2  1  0
  1  5  1  0
  2  3  1  0
  3  4  1  0
  5  4  1  0
  6  1  1  0
  7  6  2  0
  8  7  1  0
  9 10  1  0
  9  8  2  0
 10 11  2  0
 11  6  1  0
 12 13  2  0
 12  5  1  0
 14 13  1  0
 15 16  1  0
 15 14  2  0
 16 12  1  0
 17 15  1  0
 17 18  1  0
 18 19  1  0
 19 20  1  0
 20 21  1  0
 20 22  1  0
 21 22  1  0
  2 23  1  0
  2 24  1  0
  3 25  1  0
  3 26  1  0
  4 27  1  0
  4 28  1  0
  5 29  1  1
  7 30  1  0
  8 31  1  0
 10 32  1  0
 13 33  1  0
 14 34  1  0
 17 35  1  0
 17 36  1  0
 18 37  1  0
 18 38  1  0
 20 39  1  0
 21 40  1  0
 21 41  1  0
 22 42  1  0
 22 43  1  0
M  ISO  8  23  13  24  13  25  13  26  13  27  13  28  13  29  13  30  14
M  ISO  8  31  14  32  14  33  14  34  14  35   8  36   8  37   8  38   8
M  ISO  5  39  13  40  13  41  13  42  13  43  13
M  END
>  <minimizedAffinity>  (1) 
-4.64097643

>  <minimizedRMSD>  (1) 
0.685514748

$$$$
