
     RDKit          3D

 51 54  0  0  1  0  0  0  0  0999 V2000
   38.8900   23.7860   36.3530 N   0  0  0  0  0  0  0  0  0  0  0  0
   37.8780   24.6450   36.9820 C   0  0  0  0  0  0  0  0  0  0  0  0
   37.7650   24.0440   38.3610 C   0  0  0  0  0  0  0  0  0  0  0  0
   38.9770   23.1370   38.4970 C   0  0  0  0  0  0  0  0  0  0  0  0
   39.8880   23.6400   37.4710 C   0  0  1  0  0  0  0  0  0  0  0  0
   38.9010   23.2530   35.0420 C   0  0  0  0  0  0  0  0  0  0  0  0
   38.3280   22.0350   34.7400 C   0  0  0  0  0  0  0  0  0  0  0  0
   38.3960   21.6010   33.4170 C   0  0  0  0  0  0  0  0  0  0  0  0
   39.0380   22.4260   32.4920 N   0  0  0  0  0  0  0  0  0  0  0  0
   39.5750   23.5980   32.8450 C   0  0  0  0  0  0  0  0  0  0  0  0
   39.5310   24.0520   34.1050 N   0  0  0  0  0  0  0  0  0  0  0  0
   41.0340   22.8630   37.1060 C   0  0  0  0  0  0  0  0  0  0  0  0
   41.2100   21.4940   37.4380 C   0  0  0  0  0  0  0  0  0  0  0  0
   42.4300   21.1160   36.9070 C   0  0  0  0  0  0  0  0  0  0  0  0
   42.9340   22.2610   36.2830 C   0  0  0  0  0  0  0  0  0  0  0  0
   42.0830   23.2390   36.4320 O   0  0  0  0  0  0  0  0  0  0  0  0
   44.2390   22.3320   35.5650 C   0  0  0  0  0  0  0  0  0  0  0  0
   45.0710   23.3800   36.2660 C   0  0  0  0  0  0  0  0  0  0  0  0
   44.7580   24.6580   35.8830 O   0  0  0  0  0  0  0  0  0  0  0  0
   43.9350   27.5760   34.5440 N   0  0  0  0  0  0  0  0  0  0  0  0
   43.4750   26.2720   34.2030 C   0  0  0  0  0  0  0  0  0  0  0  0
   44.6290   25.4530   33.6790 C   0  0  0  0  0  0  0  0  0  0  0  0
   45.5150   25.1620   34.8590 C   0  0  0  0  0  0  0  0  0  0  0  0
   46.0320   26.5260   35.3320 C   0  0  0  0  0  0  0  0  0  0  0  0
   45.3720   27.6310   34.5860 C   0  0  0  0  0  0  0  0  0  0  0  0
   38.2156   25.6909   37.0289 H   0  0  0  0  0  0  0  0  0  0  0  0
   36.9244   24.6785   36.4347 H   0  0  0  0  0  0  0  0  0  0  0  0
   37.7839   24.8318   39.1285 H   0  0  0  0  0  0  0  0  0  0  0  0
   36.8215   23.4948   38.4956 H   0  0  0  0  0  0  0  0  0  0  0  0
   39.4241   23.2238   39.4983 H   0  0  0  0  0  0  0  0  0  0  0  0
   38.7341   22.0713   38.3730 H   0  0  0  0  0  0  0  0  0  0  0  0
   40.4371   24.5328   37.8048 H   0  0  0  0  0  0  0  0  0  0  0  0
   37.8356   21.4286   35.5145 H   0  0  0  0  0  0  0  0  0  0  0  0
   37.9578   20.6393   33.1118 H   0  0  0  0  0  0  0  0  0  0  0  0
   40.0692   24.2099   32.0760 H   0  0  0  0  0  0  0  0  0  0  0  0
   40.5136   20.8592   38.0055 H   0  0  0  0  0  0  0  0  0  0  0  0
   42.9033   20.1247   36.9637 H   0  0  0  0  0  0  0  0  0  0  0  0
   44.0777   22.6176   34.5150 H   0  0  0  0  0  0  0  0  0  0  0  0
   44.7465   21.3561   35.5747 H   0  0  0  0  0  0  0  0  0  0  0  0
   44.9079   23.2893   37.3501 H   0  0  0  0  0  0  0  0  0  0  0  0
   46.1215   23.2029   35.9919 H   0  0  0  0  0  0  0  0  0  0  0  0
   43.5626   27.8314   35.4697 H   0  0  0  0  0  0  0  0  0  0  0  0
   43.0559   25.7857   35.0963 H   0  0  0  0  0  0  0  0  0  0  0  0
   42.6977   26.3481   33.4284 H   0  0  0  0  0  0  0  0  0  0  0  0
   44.2605   24.5143   33.2396 H   0  0  0  0  0  0  0  0  0  0  0  0
   45.1769   25.9938   32.8933 H   0  0  0  0  0  0  0  0  0  0  0  0
   46.3123   24.4536   34.5899 H   0  0  0  0  0  0  0  0  0  0  0  0
   45.8201   26.6391   36.4054 H   0  0  0  0  0  0  0  0  0  0  0  0
   47.1153   26.5748   35.1473 H   0  0  0  0  0  0  0  0  0  0  0  0
   45.7427   27.6101   33.5506 H   0  0  0  0  0  0  0  0  0  0  0  0
   45.6239   28.5547   35.1276 H   0  0  0  0  0  0  0  0  0  0  0  0
  1  2  1  0
  1  5  1  0
  2  3  1  0
  3  4  1  0
  5  4  1  0
  6  1  1  0
  7  6  2  0
  8  7  1  0
  9 10  1  0
  9  8  2  0
 10 11  2  0
 11  6  1  0
 12 13  2  0
 12  5  1  0
 14 13  1  0
 15 16  1  0
 15 14  2  0
 16 12  1  0
 17 18  1  0
 17 15  1  0
 19 18  1  0
 20 25  1  0
 21 20  1  0
 22 21  1  0
 22 23  1  0
 23 24  1  0
 23 19  1  0
 25 24  1  0
  2 26  1  0
  2 27  1  0
  3 28  1  0
  3 29  1  0
  4 30  1  0
  4 31  1  0
  5 32  1  1
  7 33  1  0
  8 34  1  0
 10 35  1  0
 13 36  1  0
 14 37  1  0
 17 38  1  0
 17 39  1  0
 18 40  1  0
 18 41  1  0
 20 42  1  0
 21 43  1  0
 21 44  1  0
 22 45  1  0
 22 46  1  0
 23 47  1  0
 24 48  1  0
 24 49  1  0
 25 50  1  0
 25 51  1  0
M  ISO  8  26  13  27  13  28  13  29  13  30  13  31  13  32  13  33  14
M  ISO  8  34  14  35  14  36  14  37  14  38   8  39   8  40   8  41   8
M  ISO  8  42   5  43  13  44  13  45  13  46  13  47  13  48  13  49  13
M  ISO  2  50  13  51  13
M  END
>  <minimizedAffinity>  (1) 
-4.63422966

>  <minimizedRMSD>  (1) 
1.50570059

$$$$
