
     RDKit          3D

 49 52  0  0  1  0  0  0  0  0999 V2000
   40.9000   22.8440   36.9390 C   0  0  0  0  0  0  0  0  0  0  0  0
   41.1300   21.5230   37.4090 C   0  0  0  0  0  0  0  0  0  0  0  0
   42.2730   21.0770   36.7660 C   0  0  0  0  0  0  0  0  0  0  0  0
   42.6670   22.1350   35.9530 C   0  0  0  0  0  0  0  0  0  0  0  0
   41.8360   23.1450   36.0880 O   0  0  0  0  0  0  0  0  0  0  0  0
   38.7260   23.8060   36.3240 N   0  0  0  0  0  0  0  0  0  0  0  0
   37.7840   24.7070   37.0020 C   0  0  0  0  0  0  0  0  0  0  0  0
   37.7580   24.1340   38.4010 C   0  0  0  0  0  0  0  0  0  0  0  0
   38.9580   23.2120   38.4710 C   0  0  0  0  0  0  0  0  0  0  0  0
   39.8020   23.6600   37.3670 C   0  0  1  0  0  0  0  0  0  0  0  0
   38.6270   23.2420   35.0280 C   0  0  0  0  0  0  0  0  0  0  0  0
   38.0220   22.0140   34.8110 C   0  0  0  0  0  0  0  0  0  0  0  0
   37.9800   21.5460   33.4980 C   0  0  0  0  0  0  0  0  0  0  0  0
   38.5450   22.3390   32.5030 N   0  0  0  0  0  0  0  0  0  0  0  0
   39.1130   23.5110   32.7750 C   0  0  0  0  0  0  0  0  0  0  0  0
   39.1770   24.0050   34.0250 N   0  0  0  0  0  0  0  0  0  0  0  0
   43.8690   22.1100   35.0600 C   0  0  0  0  0  0  0  0  0  0  0  0
   45.0630   22.4890   35.9190 C   0  0  0  0  0  0  0  0  0  0  0  0
   44.9570   23.7160   36.4630 O   0  0  0  0  0  0  0  0  0  0  0  0
   45.9530   27.3490   34.6650 C   0  0  0  0  0  0  0  0  0  0  0  0
   46.8180   26.5460   35.3800 C   0  0  0  0  0  0  0  0  0  0  0  0
   46.3650   25.3420   35.9410 C   0  0  0  0  0  0  0  0  0  0  0  0
   45.0360   24.9080   35.8020 C   0  0  0  0  0  0  0  0  0  0  0  0
   44.2330   25.7580   35.0770 C   0  0  0  0  0  0  0  0  0  0  0  0
   44.6540   26.9260   34.5280 C   0  0  0  0  0  0  0  0  0  0  0  0
   46.3770   28.8610   33.9200 S   0  0  0  0  0  0  0  0  0  0  0  0
   46.2340   28.7990   32.4080 O   0  0  0  0  0  0  0  0  0  0  0  0
   47.7360   29.3580   34.3210 O   0  0  0  0  0  0  0  0  0  0  0  0
   40.5223   20.9661   38.1374 H   0  0  0  0  0  0  0  0  0  0  0  0
   42.7631   20.0982   36.8747 H   0  0  0  0  0  0  0  0  0  0  0  0
   38.1508   25.7440   37.0010 H   0  0  0  0  0  0  0  0  0  0  0  0
   36.7947   24.7581   36.5237 H   0  0  0  0  0  0  0  0  0  0  0  0
   37.8430   24.9363   39.1488 H   0  0  0  0  0  0  0  0  0  0  0  0
   36.8176   23.6040   38.6124 H   0  0  0  0  0  0  0  0  0  0  0  0
   39.4802   23.3199   39.4331 H   0  0  0  0  0  0  0  0  0  0  0  0
   38.6846   22.1492   38.3952 H   0  0  0  0  0  0  0  0  0  0  0  0
   40.3996   24.5441   37.6339 H   0  0  0  0  0  0  0  0  0  0  0  0
   37.5927   21.4326   35.6402 H   0  0  0  0  0  0  0  0  0  0  0  0
   37.5144   20.5793   33.2558 H   0  0  0  0  0  0  0  0  0  0  0  0
   39.5451   24.0961   31.9498 H   0  0  0  0  0  0  0  0  0  0  0  0
   43.7471   22.8339   34.2408 H   0  0  0  0  0  0  0  0  0  0  0  0
   44.0061   21.1152   34.6111 H   0  0  0  0  0  0  0  0  0  0  0  0
   45.1568   21.7533   36.7314 H   0  0  0  0  0  0  0  0  0  0  0  0
   45.9471   22.4969   35.2645 H   0  0  0  0  0  0  0  0  0  0  0  0
   47.8668   26.8508   35.5108 H   0  0  0  0  0  0  0  0  0  0  0  0
   47.0726   24.7186   36.5073 H   0  0  0  0  0  0  0  0  0  0  0  0
   43.1806   25.4724   34.9327 H   0  0  0  0  0  0  0  0  0  0  0  0
   43.9414   27.5449   33.9630 H   0  0  0  0  0  0  0  0  0  0  0  0
   45.4782   29.7799   34.3940 H   0  0  0  0  0  0  0  0  0  0  0  0
  1 10  1  0
  1  2  2  0
  3  2  1  0
  4  5  1  0
  4  3  2  0
  5  1  1  0
  6  7  1  0
  6 10  1  0
  7  8  1  0
  8  9  1  0
 10  9  1  0
 11  6  1  0
 12 11  2  0
 13 12  1  0
 14 15  1  0
 14 13  2  0
 15 16  2  0
 16 11  1  0
 17 18  1  0
 17  4  1  0
 18 19  1  0
 20 21  2  0
 21 22  1  0
 23 22  2  0
 23 19  1  0
 24 23  1  0
 25 20  1  0
 25 24  2  0
 26 28  2  0
 26 20  1  0
 27 26  2  0
  2 29  1  0
  3 30  1  0
  7 31  1  0
  7 32  1  0
  8 33  1  0
  8 34  1  0
  9 35  1  0
  9 36  1  0
 10 37  1  1
 12 38  1  0
 13 39  1  0
 15 40  1  0
 17 41  1  0
 17 42  1  0
 18 43  1  0
 18 44  1  0
 21 45  1  0
 22 46  1  0
 24 47  1  0
 25 48  1  0
 26 49  1  0
M  ISO  8  29  14  30  14  31  13  32  13  33  13  34  13  35  13  36  13
M  ISO  8  37  13  38  14  39  14  40  14  41   8  42   8  43   8  44   8
M  ISO  5  45  14  46  14  47  14  48  14  49  11
M  END
>  <minimizedAffinity>  (1) 
-4.55138683

>  <minimizedRMSD>  (1) 
1.94426394

$$$$
