
     RDKit          3D

 43 46  0  0  1  0  0  0  0  0999 V2000
   39.0500   23.7970   36.1610 N   0  0  0  0  0  0  0  0  0  0  0  0
   38.0100   24.6790   36.7200 C   0  0  0  0  0  0  0  0  0  0  0  0
   37.7770   24.0510   38.0790 C   0  0  0  0  0  0  0  0  0  0  0  0
   38.9770   23.1560   38.3040 C   0  0  0  0  0  0  0  0  0  0  0  0
   39.9680   23.6370   37.3470 C   0  0  1  0  0  0  0  0  0  0  0  0
   39.1440   23.2580   34.8520 C   0  0  0  0  0  0  0  0  0  0  0  0
   38.6160   22.0250   34.5300 C   0  0  0  0  0  0  0  0  0  0  0  0
   38.7710   21.5930   33.2130 C   0  0  0  0  0  0  0  0  0  0  0  0
   39.4430   22.4290   32.3190 N   0  0  0  0  0  0  0  0  0  0  0  0
   39.9300   23.6080   32.6940 C   0  0  0  0  0  0  0  0  0  0  0  0
   39.8080   24.0730   33.9530 N   0  0  0  0  0  0  0  0  0  0  0  0
   41.1290   22.8470   37.0630 C   0  0  0  0  0  0  0  0  0  0  0  0
   41.2330   21.4630   37.3660 C   0  0  0  0  0  0  0  0  0  0  0  0
   42.4940   21.0740   36.9390 C   0  0  0  0  0  0  0  0  0  0  0  0
   43.0770   22.2290   36.4060 C   0  0  0  0  0  0  0  0  0  0  0  0
   42.2370   23.2320   36.5040 O   0  0  0  0  0  0  0  0  0  0  0  0
   44.4400   22.2880   35.8240 C   0  0  0  0  0  0  0  0  0  0  0  0
   45.1180   23.5350   36.3820 C   0  0  0  0  0  0  0  0  0  0  0  0
   45.5670   24.3760   35.3930 O   0  0  0  0  0  0  0  0  0  0  0  0
   43.9670   27.4170   34.4520 N   0  0  0  0  0  0  0  0  0  0  0  0
   43.8360   26.1370   34.7370 N   0  0  0  0  0  0  0  0  0  0  0  0
   45.0290   25.5900   35.0320 C   0  0  0  0  0  0  0  0  0  0  0  0
   45.9590   26.6190   34.9160 C   0  0  0  0  0  0  0  0  0  0  0  0
   45.2740   27.7770   34.5470 C   0  0  0  0  0  0  0  0  0  0  0  0
   38.3691   25.7146   36.8125 H   0  0  0  0  0  0  0  0  0  0  0  0
   37.1046   24.7527   36.0997 H   0  0  0  0  0  0  0  0  0  0  0  0
   37.7196   24.8250   38.8585 H   0  0  0  0  0  0  0  0  0  0  0  0
   36.8299   23.4930   38.1210 H   0  0  0  0  0  0  0  0  0  0  0  0
   39.3496   23.2550   39.3342 H   0  0  0  0  0  0  0  0  0  0  0  0
   38.7397   22.0909   38.1648 H   0  0  0  0  0  0  0  0  0  0  0  0
   40.5107   24.5179   37.7206 H   0  0  0  0  0  0  0  0  0  0  0  0
   38.0957   21.4097   35.2788 H   0  0  0  0  0  0  0  0  0  0  0  0
   38.3746   20.6200   32.8873 H   0  0  0  0  0  0  0  0  0  0  0  0
   40.4518   24.2267   31.9491 H   0  0  0  0  0  0  0  0  0  0  0  0
   40.4698   20.8296   37.8418 H   0  0  0  0  0  0  0  0  0  0  0  0
   42.9407   20.0710   37.0053 H   0  0  0  0  0  0  0  0  0  0  0  0
   44.3787   22.3516   34.7276 H   0  0  0  0  0  0  0  0  0  0  0  0
   45.0129   21.3850   36.0817 H   0  0  0  0  0  0  0  0  0  0  0  0
   44.3953   24.0797   37.0073 H   0  0  0  0  0  0  0  0  0  0  0  0
   45.9915   23.2082   36.9654 H   0  0  0  0  0  0  0  0  0  0  0  0
   43.1952   28.0492   34.1959 H   0  0  0  0  0  0  0  0  0  0  0  0
   47.0426   26.5342   35.0853 H   0  0  0  0  0  0  0  0  0  0  0  0
   45.7028   28.7744   34.3698 H   0  0  0  0  0  0  0  0  0  0  0  0
  1  2  1  0
  1  5  1  0
  2  3  1  0
  3  4  1  0
  5  4  1  0
  6  1  1  0
  7  6  2  0
  8  7  1  0
  9 10  1  0
  9  8  2  0
 10 11  2  0
 11  6  1  0
 12  5  1  0
 12 13  2  0
 14 13  1  0
 15 16  1  0
 15 14  2  0
 16 12  1  0
 17 18  1  0
 17 15  1  0
 19 18  1  0
 20 24  1  0
 20 21  1  0
 21 22  2  0
 22 19  1  0
 23 22  1  0
 24 23  2  0
  2 25  1  0
  2 26  1  0
  3 27  1  0
  3 28  1  0
  4 29  1  0
  4 30  1  0
  5 31  1  1
  7 32  1  0
  8 33  1  0
 10 34  1  0
 13 35  1  0
 14 36  1  0
 17 37  1  0
 17 38  1  0
 18 39  1  0
 18 40  1  0
 20 41  1  0
 23 42  1  0
 24 43  1  0
M  ISO  8  25  13  26  13  27  13  28  13  29  13  30  13  31  13  32  14
M  ISO  8  33  14  34  14  35  14  36  14  37   8  38   8  39   8  40   8
M  ISO  3  41   9  42  14  43  14
M  END
>  <minimizedAffinity>  (1) 
-4.48849726

>  <minimizedRMSD>  (1) 
1.13997459

$$$$
