
     RDKit          3D

 43 46  0  0  1  0  0  0  0  0999 V2000
   38.5480   23.7490   36.2720 N   0  0  0  0  0  0  0  0  0  0  0  0
   37.5600   24.5490   37.0170 C   0  0  0  0  0  0  0  0  0  0  0  0
   37.6780   23.9570   38.4000 C   0  0  0  0  0  0  0  0  0  0  0  0
   38.9490   23.1380   38.3780 C   0  0  0  0  0  0  0  0  0  0  0  0
   39.6950   23.6850   37.2490 C   0  0  1  0  0  0  0  0  0  0  0  0
   38.4290   23.1970   34.9700 C   0  0  0  0  0  0  0  0  0  0  0  0
   37.8770   21.9510   34.7520 C   0  0  0  0  0  0  0  0  0  0  0  0
   37.8120   21.5050   33.4320 C   0  0  0  0  0  0  0  0  0  0  0  0
   38.3040   22.3380   32.4290 N   0  0  0  0  0  0  0  0  0  0  0  0
   38.8250   23.5310   32.7040 C   0  0  0  0  0  0  0  0  0  0  0  0
   38.9120   24.0100   33.9600 N   0  0  0  0  0  0  0  0  0  0  0  0
   40.8380   22.9840   36.7410 C   0  0  0  0  0  0  0  0  0  0  0  0
   41.1660   21.6510   37.1030 C   0  0  0  0  0  0  0  0  0  0  0  0
   42.3250   21.3420   36.4070 C   0  0  0  0  0  0  0  0  0  0  0  0
   42.6330   22.4920   35.6710 C   0  0  0  0  0  0  0  0  0  0  0  0
   41.7310   23.4200   35.9040 O   0  0  0  0  0  0  0  0  0  0  0  0
   43.8000   22.6270   34.7710 C   0  0  0  0  0  0  0  0  0  0  0  0
   44.9480   23.2000   35.5990 C   0  0  0  0  0  0  0  0  0  0  0  0
   44.6190   24.4190   36.1500 O   0  0  0  0  0  0  0  0  0  0  0  0
   44.5220   25.6160   35.4500 C   0  0  0  0  0  0  0  0  0  0  0  0
   45.6090   26.4720   35.3760 C   0  0  0  0  0  0  0  0  0  0  0  0
   45.2470   27.5790   34.6270 C   0  0  0  0  0  0  0  0  0  0  0  0
   43.9700   27.3700   34.2740 N   0  0  0  0  0  0  0  0  0  0  0  0
   43.5350   26.2210   34.7510 N   0  0  0  0  0  0  0  0  0  0  0  0
   37.8222   25.6173   37.0131 H   0  0  0  0  0  0  0  0  0  0  0  0
   36.5437   24.5120   36.5976 H   0  0  0  0  0  0  0  0  0  0  0  0
   37.7464   24.7537   39.1553 H   0  0  0  0  0  0  0  0  0  0  0  0
   36.8013   23.3456   38.6599 H   0  0  0  0  0  0  0  0  0  0  0  0
   39.5109   23.2609   39.3157 H   0  0  0  0  0  0  0  0  0  0  0  0
   38.7586   22.0590   38.2799 H   0  0  0  0  0  0  0  0  0  0  0  0
   40.2300   24.6109   37.5068 H   0  0  0  0  0  0  0  0  0  0  0  0
   37.5041   21.3357   35.5840 H   0  0  0  0  0  0  0  0  0  0  0  0
   37.3836   20.5214   33.1891 H   0  0  0  0  0  0  0  0  0  0  0  0
   39.1987   24.1494   31.8746 H   0  0  0  0  0  0  0  0  0  0  0  0
   40.6139   20.9971   37.7941 H   0  0  0  0  0  0  0  0  0  0  0  0
   42.8835   20.3946   36.4287 H   0  0  0  0  0  0  0  0  0  0  0  0
   43.5585   23.3071   33.9409 H   0  0  0  0  0  0  0  0  0  0  0  0
   44.0769   21.6521   34.3434 H   0  0  0  0  0  0  0  0  0  0  0  0
   45.1895   22.4960   36.4090 H   0  0  0  0  0  0  0  0  0  0  0  0
   45.8116   23.3460   34.9336 H   0  0  0  0  0  0  0  0  0  0  0  0
   46.5939   26.3010   35.8350 H   0  0  0  0  0  0  0  0  0  0  0  0
   45.8743   28.4467   34.3748 H   0  0  0  0  0  0  0  0  0  0  0  0
   43.4060   28.0192   33.7072 H   0  0  0  0  0  0  0  0  0  0  0  0
  1  2  1  0
  1  5  1  0
  2  3  1  0
  4  3  1  0
  5  4  1  0
  6  1  1  0
  7  6  2  0
  8  7  1  0
  9 10  1  0
  9  8  2  0
 10 11  2  0
 11  6  1  0
 12 13  2  0
 12  5  1  0
 14 13  1  0
 15 16  1  0
 15 14  2  0
 16 12  1  0
 17 18  1  0
 17 15  1  0
 18 19  1  0
 20 19  1  0
 21 20  1  0
 22 21  2  0
 23 22  1  0
 23 24  1  0
 24 20  2  0
  2 25  1  0
  2 26  1  0
  3 27  1  0
  3 28  1  0
  4 29  1  0
  4 30  1  0
  5 31  1  1
  7 32  1  0
  8 33  1  0
 10 34  1  0
 13 35  1  0
 14 36  1  0
 17 37  1  0
 17 38  1  0
 18 39  1  0
 18 40  1  0
 21 41  1  0
 22 42  1  0
 23 43  1  0
M  ISO  8  25  13  26  13  27  13  28  13  29  13  30  13  31  13  32  14
M  ISO  8  33  14  34  14  35  14  36  14  37   8  38   8  39   8  40   8
M  ISO  3  41  14  42  14  43   9
M  END
>  <minimizedAffinity>  (1) 
-4.41474962

>  <minimizedRMSD>  (1) 
1.12401521

$$$$
