
     RDKit          3D

 44 47  0  0  1  0  0  0  0  0999 V2000
   38.8540   23.7290   36.2160 N   0  0  0  0  0  0  0  0  0  0  0  0
   37.8020   24.5670   36.8030 C   0  0  0  0  0  0  0  0  0  0  0  0
   37.6710   23.9850   38.1880 C   0  0  0  0  0  0  0  0  0  0  0  0
   38.9120   23.1230   38.3700 C   0  0  0  0  0  0  0  0  0  0  0  0
   39.8340   23.6270   37.3560 C   0  0  1  0  0  0  0  0  0  0  0  0
   38.9180   23.1730   34.9110 C   0  0  0  0  0  0  0  0  0  0  0  0
   38.3240   21.9660   34.6040 C   0  0  0  0  0  0  0  0  0  0  0  0
   38.4520   21.5110   33.2910 C   0  0  0  0  0  0  0  0  0  0  0  0
   39.1600   22.2950   32.3900 N   0  0  0  0  0  0  0  0  0  0  0  0
   39.7090   23.4470   32.7420 C   0  0  0  0  0  0  0  0  0  0  0  0
   39.6190   23.9370   33.9960 N   0  0  0  0  0  0  0  0  0  0  0  0
   41.0160   22.8830   37.0320 C   0  0  0  0  0  0  0  0  0  0  0  0
   41.1830   21.5040   37.3310 C   0  0  0  0  0  0  0  0  0  0  0  0
   42.4430   21.1610   36.8620 C   0  0  0  0  0  0  0  0  0  0  0  0
   42.9630   22.3430   36.3110 C   0  0  0  0  0  0  0  0  0  0  0  0
   42.0890   23.3160   36.4380 O   0  0  0  0  0  0  0  0  0  0  0  0
   44.3050   22.4430   35.6880 C   0  0  0  0  0  0  0  0  0  0  0  0
   45.0460   23.5530   36.4270 C   0  0  0  0  0  0  0  0  0  0  0  0
   45.1240   24.7020   35.6970 O   0  0  0  0  0  0  0  0  0  0  0  0
   46.2040   25.5570   35.8230 C   0  0  0  0  0  0  0  0  0  0  0  0
   46.7470   25.4300   37.1030 C   0  0  0  0  0  0  0  0  0  0  0  0
   47.8560   26.1890   37.4950 C   0  0  0  0  0  0  0  0  0  0  0  0
   48.3960   27.0570   36.5990 N   0  0  0  0  0  0  0  0  0  0  0  0
   47.8570   27.1720   35.3530 C   0  0  0  0  0  0  0  0  0  0  0  0
   46.7980   26.4390   35.0010 N   0  0  0  0  0  0  0  0  0  0  0  0
   38.1073   25.6231   36.8409 H   0  0  0  0  0  0  0  0  0  0  0  0
   36.8626   24.5638   36.2308 H   0  0  0  0  0  0  0  0  0  0  0  0
   37.6414   24.7848   38.9426 H   0  0  0  0  0  0  0  0  0  0  0  0
   36.7435   23.4058   38.3076 H   0  0  0  0  0  0  0  0  0  0  0  0
   39.3320   23.2478   39.3790 H   0  0  0  0  0  0  0  0  0  0  0  0
   38.7046   22.0482   38.2617 H   0  0  0  0  0  0  0  0  0  0  0  0
   40.3567   24.5371   37.6853 H   0  0  0  0  0  0  0  0  0  0  0  0
   37.7738   21.3879   35.3610 H   0  0  0  0  0  0  0  0  0  0  0  0
   38.0038   20.5564   32.9781 H   0  0  0  0  0  0  0  0  0  0  0  0
   40.2584   24.0257   31.9849 H   0  0  0  0  0  0  0  0  0  0  0  0
   40.4606   20.8430   37.8322 H   0  0  0  0  0  0  0  0  0  0  0  0
   42.9295   20.1757   36.9113 H   0  0  0  0  0  0  0  0  0  0  0  0
   44.8447   21.4904   35.7939 H   0  0  0  0  0  0  0  0  0  0  0  0
   44.2283   22.6641   34.6132 H   0  0  0  0  0  0  0  0  0  0  0  0
   44.5156   23.7669   37.3666 H   0  0  0  0  0  0  0  0  0  0  0  0
   46.0724   23.2042   36.6136 H   0  0  0  0  0  0  0  0  0  0  0  0
   46.2963   24.7225   37.8145 H   0  0  0  0  0  0  0  0  0  0  0  0
   48.2805   26.0854   38.5045 H   0  0  0  0  0  0  0  0  0  0  0  0
   48.2981   27.8748   34.6308 H   0  0  0  0  0  0  0  0  0  0  0  0
  1  2  1  0
  1  5  1  0
  2  3  1  0
  3  4  1  0
  5  4  1  0
  6  1  1  0
  7  6  2  0
  8  7  1  0
  9 10  1  0
  9  8  2  0
 10 11  2  0
 11  6  1  0
 12 13  2  0
 12  5  1  0
 14 13  1  0
 15 16  1  0
 15 14  2  0
 16 12  1  0
 17 15  1  0
 17 18  1  0
 19 20  1  0
 19 18  1  0
 20 21  2  0
 21 22  1  0
 23 22  2  0
 24 23  1  0
 25 24  2  0
 25 20  1  0
  2 26  1  0
  2 27  1  0
  3 28  1  0
  3 29  1  0
  4 30  1  0
  4 31  1  0
  5 32  1  1
  7 33  1  0
  8 34  1  0
 10 35  1  0
 13 36  1  0
 14 37  1  0
 17 38  1  0
 17 39  1  0
 18 40  1  0
 18 41  1  0
 21 42  1  0
 22 43  1  0
 24 44  1  0
M  ISO  8  26  13  27  13  28  13  29  13  30  13  31  13  32  13  33  14
M  ISO  8  34  14  35  14  36  14  37  14  38   8  39   8  40   8  41   8
M  ISO  3  42  14  43  14  44  14
M  END
>  <minimizedAffinity>  (1) 
-4.38538551

>  <minimizedRMSD>  (1) 
2.37680507

$$$$
