
     RDKit          3D

 43 46  0  0  1  0  0  0  0  0999 V2000
   38.8080   23.7330   36.1560 N   0  0  0  0  0  0  0  0  0  0  0  0
   37.7480   24.5440   36.7810 C   0  0  0  0  0  0  0  0  0  0  0  0
   37.6890   23.9540   38.1760 C   0  0  0  0  0  0  0  0  0  0  0  0
   38.9450   23.1120   38.2950 C   0  0  0  0  0  0  0  0  0  0  0  0
   39.8280   23.6530   37.2630 C   0  0  1  0  0  0  0  0  0  0  0  0
   38.8390   23.1850   34.8490 C   0  0  0  0  0  0  0  0  0  0  0  0
   38.3110   21.9430   34.5620 C   0  0  0  0  0  0  0  0  0  0  0  0
   38.4000   21.5000   33.2420 C   0  0  0  0  0  0  0  0  0  0  0  0
   39.0100   22.3370   32.3080 N   0  0  0  0  0  0  0  0  0  0  0  0
   39.5020   23.5280   32.6460 C   0  0  0  0  0  0  0  0  0  0  0  0
   39.4420   23.9990   33.9050 N   0  0  0  0  0  0  0  0  0  0  0  0
   41.0130   22.9370   36.8970 C   0  0  0  0  0  0  0  0  0  0  0  0
   41.2790   21.5970   37.2910 C   0  0  0  0  0  0  0  0  0  0  0  0
   42.5100   21.2770   36.7400 C   0  0  0  0  0  0  0  0  0  0  0  0
   42.9200   22.4280   36.0490 C   0  0  0  0  0  0  0  0  0  0  0  0
   42.0080   23.3630   36.1760 O   0  0  0  0  0  0  0  0  0  0  0  0
   44.1900   22.5390   35.3020 C   0  0  0  0  0  0  0  0  0  0  0  0
   45.2270   23.1220   36.2620 C   0  0  0  0  0  0  0  0  0  0  0  0
   44.9700   24.4340   36.5680 O   0  0  0  0  0  0  0  0  0  0  0  0
   45.3590   25.5700   35.8920 C   0  0  0  0  0  0  0  0  0  0  0  0
   46.6200   26.0690   35.6410 C   0  0  0  0  0  0  0  0  0  0  0  0
   46.4560   27.2120   34.9360 N   0  0  0  0  0  0  0  0  0  0  0  0
   45.1530   27.3950   34.7680 C   0  0  0  0  0  0  0  0  0  0  0  0
   44.4210   26.3980   35.3460 N   0  0  0  0  0  0  0  0  0  0  0  0
   38.0216   25.6091   36.8077 H   0  0  0  0  0  0  0  0  0  0  0  0
   36.7887   24.5143   36.2436 H   0  0  0  0  0  0  0  0  0  0  0  0
   37.6839   24.7513   38.9339 H   0  0  0  0  0  0  0  0  0  0  0  0
   36.7760   23.3623   38.3379 H   0  0  0  0  0  0  0  0  0  0  0  0
   39.3960   23.2202   39.2924 H   0  0  0  0  0  0  0  0  0  0  0  0
   38.7498   22.0371   38.1664 H   0  0  0  0  0  0  0  0  0  0  0  0
   40.3385   24.5733   37.5830 H   0  0  0  0  0  0  0  0  0  0  0  0
   37.8392   21.3273   35.3420 H   0  0  0  0  0  0  0  0  0  0  0  0
   38.0005   20.5187   32.9464 H   0  0  0  0  0  0  0  0  0  0  0  0
   39.9735   24.1477   31.8691 H   0  0  0  0  0  0  0  0  0  0  0  0
   40.6393   20.9476   37.9067 H   0  0  0  0  0  0  0  0  0  0  0  0
   43.0510   20.3231   36.8260 H   0  0  0  0  0  0  0  0  0  0  0  0
   44.5124   21.5458   34.9562 H   0  0  0  0  0  0  0  0  0  0  0  0
   44.0693   23.1827   34.4182 H   0  0  0  0  0  0  0  0  0  0  0  0
   45.2197   22.5335   37.1913 H   0  0  0  0  0  0  0  0  0  0  0  0
   46.2083   23.0767   35.7671 H   0  0  0  0  0  0  0  0  0  0  0  0
   47.5757   25.6232   35.9540 H   0  0  0  0  0  0  0  0  0  0  0  0
   44.7150   28.2474   34.2280 H   0  0  0  0  0  0  0  0  0  0  0  0
   43.3964   26.2944   35.3656 H   0  0  0  0  0  0  0  0  0  0  0  0
  1  2  1  0
  1  5  1  0
  2  3  1  0
  3  4  1  0
  5  4  1  0
  6  1  1  0
  7  6  2  0
  8  7  1  0
  9 10  1  0
  9  8  2  0
 10 11  2  0
 11  6  1  0
 12  5  1  0
 12 13  2  0
 14 13  1  0
 15 16  1  0
 15 14  2  0
 16 12  1  0
 17 15  1  0
 17 18  1  0
 18 19  1  0
 20 19  1  0
 21 20  2  0
 22 21  1  0
 23 22  2  0
 23 24  1  0
 24 20  1  0
  2 25  1  0
  2 26  1  0
  3 27  1  0
  3 28  1  0
  4 29  1  0
  4 30  1  0
  5 31  1  1
  7 32  1  0
  8 33  1  0
 10 34  1  0
 13 35  1  0
 14 36  1  0
 17 37  1  0
 17 38  1  0
 18 39  1  0
 18 40  1  0
 21 41  1  0
 23 42  1  0
 24 43  1  0
M  ISO  8  25  13  26  13  27  13  28  13  29  13  30  13  31  13  32  14
M  ISO  8  33  14  34  14  35  14  36  14  37   8  38   8  39   8  40   8
M  ISO  3  41  14  42  14  43   9
M  END
>  <minimizedAffinity>  (1) 
-4.33880997

>  <minimizedRMSD>  (1) 
0.84127748

$$$$
