
     RDKit          3D

 42 44  0  0  1  0  0  0  0  0999 V2000
   38.9980   23.7810   36.1490 N   0  0  0  0  0  0  0  0  0  0  0  0
   37.9260   24.6330   36.6890 C   0  0  0  0  0  0  0  0  0  0  0  0
   37.7010   24.0210   38.0470 C   0  0  0  0  0  0  0  0  0  0  0  0
   38.9070   23.1360   38.2910 C   0  0  0  0  0  0  0  0  0  0  0  0
   39.8990   23.6450   37.3480 C   0  0  1  0  0  0  0  0  0  0  0  0
   39.1260   23.2470   34.8410 C   0  0  0  0  0  0  0  0  0  0  0  0
   38.6140   22.0110   34.5020 C   0  0  0  0  0  0  0  0  0  0  0  0
   38.8020   21.5850   33.1880 C   0  0  0  0  0  0  0  0  0  0  0  0
   39.4830   22.4200   32.3150 N   0  0  0  0  0  0  0  0  0  0  0  0
   39.9530   23.6030   32.7020 C   0  0  0  0  0  0  0  0  0  0  0  0
   39.8020   24.0650   33.9570 N   0  0  0  0  0  0  0  0  0  0  0  0
   41.0850   22.8790   37.0810 C   0  0  0  0  0  0  0  0  0  0  0  0
   41.2020   21.4870   37.3480 C   0  0  0  0  0  0  0  0  0  0  0  0
   42.4810   21.1300   36.9540 C   0  0  0  0  0  0  0  0  0  0  0  0
   43.0600   22.3170   36.4740 C   0  0  0  0  0  0  0  0  0  0  0  0
   42.2050   23.2960   36.5720 O   0  0  0  0  0  0  0  0  0  0  0  0
   44.4420   22.3940   35.9450 C   0  0  0  0  0  0  0  0  0  0  0  0
   44.8390   23.8610   35.9280 C   0  0  0  0  0  0  0  0  0  0  0  0
   45.1890   24.3510   37.1520 O   0  0  0  0  0  0  0  0  0  0  0  0
   44.9610   25.6950   37.3430 C   0  0  0  0  0  0  0  0  0  0  0  0
   45.0880   25.9270   38.8560 C   0  0  0  0  0  0  0  0  0  0  0  0
   38.2500   25.6810   36.7706 H   0  0  0  0  0  0  0  0  0  0  0  0
   37.0240   24.6664   36.0603 H   0  0  0  0  0  0  0  0  0  0  0  0
   37.6357   24.8042   38.8166 H   0  0  0  0  0  0  0  0  0  0  0  0
   36.7599   23.4532   38.0904 H   0  0  0  0  0  0  0  0  0  0  0  0
   39.2631   23.2334   39.3272 H   0  0  0  0  0  0  0  0  0  0  0  0
   38.6899   22.0670   38.1494 H   0  0  0  0  0  0  0  0  0  0  0  0
   40.4110   24.5410   37.7287 H   0  0  0  0  0  0  0  0  0  0  0  0
   38.0810   21.3893   35.2364 H   0  0  0  0  0  0  0  0  0  0  0  0
   38.4194   20.6100   32.8518 H   0  0  0  0  0  0  0  0  0  0  0  0
   40.4850   24.2269   31.9687 H   0  0  0  0  0  0  0  0  0  0  0  0
   40.4337   20.8284   37.7793 H   0  0  0  0  0  0  0  0  0  0  0  0
   42.9433   20.1332   37.0057 H   0  0  0  0  0  0  0  0  0  0  0  0
   45.1255   21.8267   36.5939 H   0  0  0  0  0  0  0  0  0  0  0  0
   44.4962   21.9644   34.9338 H   0  0  0  0  0  0  0  0  0  0  0  0
   45.6959   23.9805   35.2487 H   0  0  0  0  0  0  0  0  0  0  0  0
   43.9565   24.4278   35.5965 H   0  0  0  0  0  0  0  0  0  0  0  0
   45.7082   26.2919   36.7994 H   0  0  0  0  0  0  0  0  0  0  0  0
   43.9720   25.9965   36.9676 H   0  0  0  0  0  0  0  0  0  0  0  0
   44.6278   25.0863   39.3958 H   0  0  0  0  0  0  0  0  0  0  0  0
   46.1514   25.9992   39.1279 H   0  0  0  0  0  0  0  0  0  0  0  0
   44.5758   26.8617   39.1279 H   0  0  0  0  0  0  0  0  0  0  0  0
  1  2  1  0
  1  5  1  0
  2  3  1  0
  3  4  1  0
  5  4  1  0
  6  1  1  0
  7  6  2  0
  8  7  1  0
  9 10  1  0
  9  8  2  0
 10 11  2  0
 11  6  1  0
 12 13  2  0
 12  5  1  0
 14 13  1  0
 15 16  1  0
 15 14  2  0
 16 12  1  0
 17 15  1  0
 18 17  1  0
 18 19  1  0
 19 20  1  0
 20 21  1  0
  2 22  1  0
  2 23  1  0
  3 24  1  0
  3 25  1  0
  4 26  1  0
  4 27  1  0
  5 28  1  1
  7 29  1  0
  8 30  1  0
 10 31  1  0
 13 32  1  0
 14 33  1  0
 17 34  1  0
 17 35  1  0
 18 36  1  0
 18 37  1  0
 20 38  1  0
 20 39  1  0
 21 40  1  0
 21 41  1  0
 21 42  1  0
M  ISO  8  22  13  23  13  24  13  25  13  26  13  27  13  28  13  29  14
M  ISO  8  30  14  31  14  32  14  33  14  34   8  35   8  36   8  37   8
M  ISO  5  38   8  39   8  40   8  41   8  42   8
M  END
>  <minimizedAffinity>  (1) 
-4.29311514

>  <minimizedRMSD>  (1) 
1.43586087

$$$$
