
     RDKit          3D

 42 45  0  0  1  0  0  0  0  0999 V2000
   38.8160   23.7140   36.3050 N   0  0  0  0  0  0  0  0  0  0  0  0
   37.7090   24.4830   36.9020 C   0  0  0  0  0  0  0  0  0  0  0  0
   37.5900   23.8480   38.2640 C   0  0  0  0  0  0  0  0  0  0  0  0
   38.8700   23.0490   38.4400 C   0  0  0  0  0  0  0  0  0  0  0  0
   39.7810   23.6330   37.4580 C   0  0  1  0  0  0  0  0  0  0  0  0
   38.9180   23.2010   34.9860 C   0  0  0  0  0  0  0  0  0  0  0  0
   38.3880   21.9770   34.6330 C   0  0  0  0  0  0  0  0  0  0  0  0
   38.5530   21.5720   33.3090 C   0  0  0  0  0  0  0  0  0  0  0  0
   39.2360   22.4220   32.4390 N   0  0  0  0  0  0  0  0  0  0  0  0
   39.7240   23.5930   32.8440 C   0  0  0  0  0  0  0  0  0  0  0  0
   39.5930   24.0280   34.1080 N   0  0  0  0  0  0  0  0  0  0  0  0
   41.0010   22.9510   37.1300 C   0  0  0  0  0  0  0  0  0  0  0  0
   41.2110   21.5620   37.3390 C   0  0  0  0  0  0  0  0  0  0  0  0
   42.4990   21.3030   36.8950 C   0  0  0  0  0  0  0  0  0  0  0  0
   42.9920   22.5360   36.4460 C   0  0  0  0  0  0  0  0  0  0  0  0
   42.0780   23.4590   36.6070 O   0  0  0  0  0  0  0  0  0  0  0  0
   44.3440   22.7340   35.8800 C   0  0  0  0  0  0  0  0  0  0  0  0
   44.9310   23.9790   36.5300 C   0  0  0  0  0  0  0  0  0  0  0  0
   44.5950   25.1250   35.8780 O   0  0  0  0  0  0  0  0  0  0  0  0
   45.5910   26.0460   35.4920 C   0  0  0  0  0  0  0  0  0  0  0  0
   45.1470   27.0070   34.5780 C   0  0  0  0  0  0  0  0  0  0  0  0
   46.6220   28.0350   34.2750 S   0  0  0  0  0  0  0  0  0  0  0  0
   47.6410   26.9480   35.4880 C   0  0  0  0  0  0  0  0  0  0  0  0
   46.8350   26.0470   35.9230 N   0  0  0  0  0  0  0  0  0  0  0  0
   37.9595   25.5513   36.9789 H   0  0  0  0  0  0  0  0  0  0  0  0
   36.7794   24.4537   36.3147 H   0  0  0  0  0  0  0  0  0  0  0  0
   37.5056   24.6192   39.0438 H   0  0  0  0  0  0  0  0  0  0  0  0
   36.6939   23.2154   38.3475 H   0  0  0  0  0  0  0  0  0  0  0  0
   39.2667   23.1633   39.4596 H   0  0  0  0  0  0  0  0  0  0  0  0
   38.7216   21.9689   38.2941 H   0  0  0  0  0  0  0  0  0  0  0  0
   40.2490   24.5597   37.8217 H   0  0  0  0  0  0  0  0  0  0  0  0
   37.8585   21.3483   35.3640 H   0  0  0  0  0  0  0  0  0  0  0  0
   38.1551   20.6078   32.9598 H   0  0  0  0  0  0  0  0  0  0  0  0
   40.2534   24.2268   32.1173 H   0  0  0  0  0  0  0  0  0  0  0  0
   40.4987   20.8403   37.7653 H   0  0  0  0  0  0  0  0  0  0  0  0
   43.0225   20.3356   36.8951 H   0  0  0  0  0  0  0  0  0  0  0  0
   44.9757   21.8610   36.1009 H   0  0  0  0  0  0  0  0  0  0  0  0
   44.2945   22.8525   34.7875 H   0  0  0  0  0  0  0  0  0  0  0  0
   44.5617   24.0424   37.5642 H   0  0  0  0  0  0  0  0  0  0  0  0
   46.0264   23.8863   36.4916 H   0  0  0  0  0  0  0  0  0  0  0  0
   44.1425   27.1169   34.1434 H   0  0  0  0  0  0  0  0  0  0  0  0
   48.7006   27.0720   35.7560 H   0  0  0  0  0  0  0  0  0  0  0  0
  1  2  1  0
  1  5  1  0
  2  3  1  0
  3  4  1  0
  5  4  1  0
  6  1  1  0
  7  6  2  0
  8  7  1  0
  9 10  1  0
  9  8  2  0
 10 11  2  0
 11  6  1  0
 12 13  2  0
 12  5  1  0
 14 13  1  0
 15 16  1  0
 15 14  2  0
 16 12  1  0
 17 15  1  0
 17 18  1  0
 19 18  1  0
 20 19  1  0
 20 24  1  0
 21 20  2  0
 22 21  1  0
 22 23  1  0
 23 24  2  0
  2 25  1  0
  2 26  1  0
  3 27  1  0
  3 28  1  0
  4 29  1  0
  4 30  1  0
  5 31  1  1
  7 32  1  0
  8 33  1  0
 10 34  1  0
 13 35  1  0
 14 36  1  0
 17 37  1  0
 17 38  1  0
 18 39  1  0
 18 40  1  0
 21 41  1  0
 23 42  1  0
M  ISO  8  25  13  26  13  27  13  28  13  29  13  30  13  31  13  32  14
M  ISO  8  33  14  34  14  35  14  36  14  37   8  38   8  39   8  40   8
M  ISO  2  41  14  42  14
M  END
>  <minimizedAffinity>  (1) 
-4.18480015

>  <minimizedRMSD>  (1) 
0.929676473

$$$$
