
     RDKit          3D

 25 26  0  0  0  0  0  0  0  0999 V2000
   38.0230   23.2190   34.5900 C   0  0  0  0  0  0  0  0  0  0  0  0
   37.8850   24.0110   33.4420 C   0  0  0  0  0  0  0  0  0  0  0  0
   37.2320   23.4510   32.3450 C   0  0  0  0  0  0  0  0  0  0  0  0
   36.7660   22.1720   32.4450 N   0  0  0  0  0  0  0  0  0  0  0  0
   36.9210   21.4490   33.5680 C   0  0  0  0  0  0  0  0  0  0  0  0
   37.5450   21.9710   34.6300 N   0  0  0  0  0  0  0  0  0  0  0  0
   38.6630   23.6440   35.7910 N   0  0  0  0  0  0  0  0  0  0  0  0
   39.8820   23.1150   36.3270 C   0  0  0  0  0  0  0  0  0  0  0  0
   39.8950   22.7440   37.7540 C   0  0  0  0  0  0  0  0  0  0  0  0
   39.0120   23.5030   38.6770 C   0  0  0  0  0  0  0  0  0  0  0  0
   37.7720   24.0490   38.0110 C   0  0  0  0  0  0  0  0  0  0  0  0
   38.1880   24.6830   36.6750 C   0  0  0  0  0  0  0  0  0  0  0  0
   38.2779   25.0379   33.4078 H   0  0  0  0  0  0  0  0  0  0  0  0
   37.0952   24.0277   31.4184 H   0  0  0  0  0  0  0  0  0  0  0  0
   36.5320   20.4211   33.6138 H   0  0  0  0  0  0  0  0  0  0  0  0
   40.1311   22.2123   35.7498 H   0  0  0  0  0  0  0  0  0  0  0  0
   40.6046   23.9404   36.2460 H   0  0  0  0  0  0  0  0  0  0  0  0
   39.6051   21.6849   37.8199 H   0  0  0  0  0  0  0  0  0  0  0  0
   40.9151   22.9798   38.0914 H   0  0  0  0  0  0  0  0  0  0  0  0
   38.7028   22.8329   39.4927 H   0  0  0  0  0  0  0  0  0  0  0  0
   39.5897   24.3651   39.0417 H   0  0  0  0  0  0  0  0  0  0  0  0
   37.0562   23.2336   37.8300 H   0  0  0  0  0  0  0  0  0  0  0  0
   37.2919   24.7996   38.6561 H   0  0  0  0  0  0  0  0  0  0  0  0
   38.9901   25.4157   36.8480 H   0  0  0  0  0  0  0  0  0  0  0  0
   37.3260   25.1933   36.2206 H   0  0  0  0  0  0  0  0  0  0  0  0
  1  6  1  0
  1  7  1  0
  2  1  2  0
  3  4  2  0
  3  2  1  0
  4  5  1  0
  5  6  2  0
  7  8  1  0
  7 12  1  0
  8  9  1  0
  9 10  1  0
 11 10  1  0
 12 11  1  0
  2 13  1  0
  3 14  1  0
  5 15  1  0
  8 16  1  0
  8 17  1  0
  9 18  1  0
  9 19  1  0
 10 20  1  0
 10 21  1  0
 11 22  1  0
 11 23  1  0
 12 24  1  0
 12 25  1  0
M  ISO  8  13  14  14  14  15  14  16  13  17  13  18  13  19  13  20  13
M  ISO  5  21  13  22  13  23  13  24  13  25  13
M  END
>  <minimizedAffinity>  (1) 
-3.72628427

>  <minimizedRMSD>  (1) 
4.47560978

$$$$
