
     RDKit          3D

 32 34  0  0  1  0  0  0  0  0999 V2000
   38.1940   22.8780   36.0780 N   0  0  0  0  0  0  0  0  0  0  0  0
   39.5770   22.6430   36.4060 C   0  0  0  0  0  0  0  0  0  0  0  0
   39.9520   22.7630   37.8250 C   0  0  0  0  0  0  0  0  0  0  0  0
   39.1740   23.6680   38.6950 C   0  0  0  0  0  0  0  0  0  0  0  0
   37.7480   23.8400   38.2490 C   0  0  0  0  0  0  0  0  0  0  0  0
   37.7140   24.0690   36.7470 C   0  0  1  0  0  0  0  0  0  0  0  0
   37.4030   22.0620   35.2180 C   0  0  0  0  0  0  0  0  0  0  0  0
   37.5850   21.9240   33.8440 C   0  0  0  0  0  0  0  0  0  0  0  0
   36.7260   21.0870   33.1530 C   0  0  0  0  0  0  0  0  0  0  0  0
   35.7420   20.4360   33.8480 N   0  0  0  0  0  0  0  0  0  0  0  0
   35.6000   20.5960   35.1750 C   0  0  0  0  0  0  0  0  0  0  0  0
   36.4270   21.4060   35.8620 N   0  0  0  0  0  0  0  0  0  0  0  0
   38.3180   25.3190   36.3100 C   0  0  0  0  0  0  0  0  0  0  0  0
   39.1930   25.4920   35.2300 C   0  0  0  0  0  0  0  0  0  0  0  0
   39.5200   26.8380   35.1750 C   0  0  0  0  0  0  0  0  0  0  0  0
   38.8580   27.4420   36.1920 N   0  0  0  0  0  0  0  0  0  0  0  0
   38.1570   26.5410   36.8500 N   0  0  0  0  0  0  0  0  0  0  0  0
   39.8275   21.6225   36.0806 H   0  0  0  0  0  0  0  0  0  0  0  0
   40.1344   23.4402   35.8923 H   0  0  0  0  0  0  0  0  0  0  0  0
   39.8837   21.7563   38.2631 H   0  0  0  0  0  0  0  0  0  0  0  0
   40.9529   23.2185   37.7968 H   0  0  0  0  0  0  0  0  0  0  0  0
   39.1737   23.2570   39.7153 H   0  0  0  0  0  0  0  0  0  0  0  0
   39.6523   24.6574   38.6474 H   0  0  0  0  0  0  0  0  0  0  0  0
   37.1744   22.9343   38.4954 H   0  0  0  0  0  0  0  0  0  0  0  0
   37.3036   24.7050   38.7631 H   0  0  0  0  0  0  0  0  0  0  0  0
   36.6692   24.2244   36.4399 H   0  0  0  0  0  0  0  0  0  0  0  0
   38.3886   22.4649   33.3228 H   0  0  0  0  0  0  0  0  0  0  0  0
   36.8317   20.9475   32.0670 H   0  0  0  0  0  0  0  0  0  0  0  0
   34.7995   20.0593   35.7052 H   0  0  0  0  0  0  0  0  0  0  0  0
   39.5539   24.7053   34.5511 H   0  0  0  0  0  0  0  0  0  0  0  0
   40.1875   27.3222   34.4470 H   0  0  0  0  0  0  0  0  0  0  0  0
   38.8968   28.4468   36.4152 H   0  0  0  0  0  0  0  0  0  0  0  0
  1  2  1  0
  1  6  1  0
  2  3  1  0
  3  4  1  0
  5  4  1  0
  6  5  1  0
  7 12  1  0
  7  1  1  0
  8  7  2  0
  9  8  1  0
  9 10  2  0
 10 11  1  0
 11 12  2  0
 13  6  1  0
 13 17  2  0
 14 13  1  0
 15 14  2  0
 15 16  1  0
 16 17  1  0
  2 18  1  0
  2 19  1  0
  3 20  1  0
  3 21  1  0
  4 22  1  0
  4 23  1  0
  5 24  1  0
  5 25  1  0
  6 26  1  6
  8 27  1  0
  9 28  1  0
 11 29  1  0
 14 30  1  0
 15 31  1  0
 16 32  1  0
M  ISO  8  18  13  19  13  20  13  21  13  22  13  23  13  24  13  25  13
M  ISO  7  26  13  27  14  28  14  29  14  30  14  31  14  32   9
M  END
>  <minimizedAffinity>  (1) 
-5.38594151

>  <minimizedRMSD>  (1) 
1.67625582

$$$$
