
     RDKit          3D

 41 43  0  0  1  0  0  0  0  0999 V2000
   38.3960   22.5400   35.8160 N   0  0  0  0  0  0  0  0  0  0  0  0
   39.7420   22.1800   36.1030 C   0  0  0  0  0  0  0  0  0  0  0  0
   40.1640   22.2310   37.5290 C   0  0  0  0  0  0  0  0  0  0  0  0
   39.5430   23.2650   38.3900 C   0  0  0  0  0  0  0  0  0  0  0  0
   38.1270   23.5530   37.9930 C   0  0  0  0  0  0  0  0  0  0  0  0
   38.1000   23.7770   36.4710 C   0  0  1  0  0  0  0  0  0  0  0  0
   37.4840   21.8030   35.0180 C   0  0  0  0  0  0  0  0  0  0  0  0
   37.5550   21.6060   33.6420 C   0  0  0  0  0  0  0  0  0  0  0  0
   36.5740   20.8550   33.0170 C   0  0  0  0  0  0  0  0  0  0  0  0
   35.5790   20.3390   33.7770 N   0  0  0  0  0  0  0  0  0  0  0  0
   35.5250   20.5380   35.1000 C   0  0  0  0  0  0  0  0  0  0  0  0
   36.4720   21.2630   35.7050 N   0  0  0  0  0  0  0  0  0  0  0  0
   38.9620   24.9450   36.0910 C   0  0  0  0  0  0  0  0  0  0  0  0
   38.0940   26.1810   36.1880 C   0  0  0  0  0  0  0  0  0  0  0  0
   38.7540   27.4190   35.6990 C   0  0  0  0  0  0  0  0  0  0  0  0
   39.5840   27.3210   34.4840 C   0  0  0  0  0  0  0  0  0  0  0  0
   40.2560   26.0020   34.2630 C   0  0  0  0  0  0  0  0  0  0  0  0
   39.4180   24.8220   34.6780 C   0  0  0  0  0  0  0  0  0  0  0  0
   39.8930   21.1497   35.7486 H   0  0  0  0  0  0  0  0  0  0  0  0
   40.3558   22.9387   35.5954 H   0  0  0  0  0  0  0  0  0  0  0  0
   39.9372   21.2513   37.9749 H   0  0  0  0  0  0  0  0  0  0  0  0
   41.2307   22.4976   37.4961 H   0  0  0  0  0  0  0  0  0  0  0  0
   39.5546   22.9127   39.4320 H   0  0  0  0  0  0  0  0  0  0  0  0
   40.1222   24.1932   38.2761 H   0  0  0  0  0  0  0  0  0  0  0  0
   37.4839   22.7005   38.2570 H   0  0  0  0  0  0  0  0  0  0  0  0
   37.7550   24.4448   38.5187 H   0  0  0  0  0  0  0  0  0  0  0  0
   37.0981   24.0677   36.1222 H   0  0  0  0  0  0  0  0  0  0  0  0
   38.3798   22.0413   33.0587 H   0  0  0  0  0  0  0  0  0  0  0  0
   36.6021   20.6819   31.9311 H   0  0  0  0  0  0  0  0  0  0  0  0
   34.7025   20.1056   35.6887 H   0  0  0  0  0  0  0  0  0  0  0  0
   39.8414   24.9912   36.7502 H   0  0  0  0  0  0  0  0  0  0  0  0
   37.1852   26.0139   35.5912 H   0  0  0  0  0  0  0  0  0  0  0  0
   37.8756   26.3353   37.2550 H   0  0  0  0  0  0  0  0  0  0  0  0
   37.9621   28.1553   35.4970 H   0  0  0  0  0  0  0  0  0  0  0  0
   39.4612   27.6899   36.4968 H   0  0  0  0  0  0  0  0  0  0  0  0
   38.9383   27.5211   33.6163 H   0  0  0  0  0  0  0  0  0  0  0  0
   40.3947   28.0530   34.6142 H   0  0  0  0  0  0  0  0  0  0  0  0
   40.4876   25.9047   33.1921 H   0  0  0  0  0  0  0  0  0  0  0  0
   41.1604   25.9917   34.8890 H   0  0  0  0  0  0  0  0  0  0  0  0
   38.5369   24.7612   34.0223 H   0  0  0  0  0  0  0  0  0  0  0  0
   40.0339   23.9146   34.5922 H   0  0  0  0  0  0  0  0  0  0  0  0
  1  2  1  0
  1  6  1  0
  2  3  1  0
  3  4  1  0
  5  4  1  0
  6  5  1  0
  7 12  1  0
  7  1  1  0
  8  7  2  0
  9  8  1  0
  9 10  2  0
 10 11  1  0
 11 12  2  0
 13 14  1  0
 13  6  1  0
 15 14  1  0
 16 15  1  0
 17 16  1  0
 17 18  1  0
 18 13  1  0
  2 19  1  0
  2 20  1  0
  3 21  1  0
  3 22  1  0
  4 23  1  0
  4 24  1  0
  5 25  1  0
  5 26  1  0
  6 27  1  6
  8 28  1  0
  9 29  1  0
 11 30  1  0
 13 31  1  0
 14 32  1  0
 14 33  1  0
 15 34  1  0
 15 35  1  0
 16 36  1  0
 16 37  1  0
 17 38  1  0
 17 39  1  0
 18 40  1  0
 18 41  1  0
M  ISO  8  19  13  20  13  21  13  22  13  23  13  24  13  25  13  26  13
M  ISO  8  27  13  28  14  29  14  30  14  31  13  32  13  33  13  34  13
M  ISO  7  35  13  36  13  37  13  38  13  39  13  40  13  41  13
M  END
>  <minimizedAffinity>  (1) 
-5.2816

>  <minimizedRMSD>  (1) 
1.73998785

$$$$
