
     RDKit          3D

 32 34  0  0  1  0  0  0  0  0999 V2000
   38.3120   22.7650   35.9840 N   0  0  0  0  0  0  0  0  0  0  0  0
   39.6470   22.4480   36.3500 C   0  0  0  0  0  0  0  0  0  0  0  0
   40.0100   22.5630   37.7820 C   0  0  0  0  0  0  0  0  0  0  0  0
   39.2710   23.5640   38.6070 C   0  0  0  0  0  0  0  0  0  0  0  0
   37.8890   23.8450   38.1040 C   0  0  0  0  0  0  0  0  0  0  0  0
   37.9060   23.9960   36.5850 C   0  0  1  0  0  0  0  0  0  0  0  0
   37.4670   21.9760   35.1340 C   0  0  0  0  0  0  0  0  0  0  0  0
   37.6190   21.8130   33.7610 C   0  0  0  0  0  0  0  0  0  0  0  0
   36.7080   21.0170   33.0840 C   0  0  0  0  0  0  0  0  0  0  0  0
   35.7150   20.4360   33.8010 N   0  0  0  0  0  0  0  0  0  0  0  0
   35.5890   20.6110   35.1380 C   0  0  0  0  0  0  0  0  0  0  0  0
   36.4650   21.3800   35.8010 N   0  0  0  0  0  0  0  0  0  0  0  0
   38.4640   25.1960   36.0970 N   0  0  0  0  0  0  0  0  0  0  0  0
   39.3970   25.3760   35.1440 C   0  0  0  0  0  0  0  0  0  0  0  0
   39.6980   26.7060   34.9300 C   0  0  0  0  0  0  0  0  0  0  0  0
   38.9240   27.4040   35.7820 N   0  0  0  0  0  0  0  0  0  0  0  0
   38.2120   26.4950   36.4520 C   0  0  0  0  0  0  0  0  0  0  0  0
   39.8339   21.4077   36.0454 H   0  0  0  0  0  0  0  0  0  0  0  0
   40.2635   23.2050   35.8432 H   0  0  0  0  0  0  0  0  0  0  0  0
   39.8504   21.5764   38.2416 H   0  0  0  0  0  0  0  0  0  0  0  0
   41.0503   22.9203   37.7773 H   0  0  0  0  0  0  0  0  0  0  0  0
   39.1966   23.1814   39.6356 H   0  0  0  0  0  0  0  0  0  0  0  0
   39.8340   24.5075   38.5541 H   0  0  0  0  0  0  0  0  0  0  0  0
   37.2249   23.0126   38.3798 H   0  0  0  0  0  0  0  0  0  0  0  0
   37.5239   24.7793   38.5553 H   0  0  0  0  0  0  0  0  0  0  0  0
   36.8774   24.1648   36.2336 H   0  0  0  0  0  0  0  0  0  0  0  0
   38.4437   22.3048   33.2243 H   0  0  0  0  0  0  0  0  0  0  0  0
   36.7885   20.8616   31.9980 H   0  0  0  0  0  0  0  0  0  0  0  0
   34.7669   20.1217   35.6809 H   0  0  0  0  0  0  0  0  0  0  0  0
   39.8702   24.5497   34.5932 H   0  0  0  0  0  0  0  0  0  0  0  0
   40.4230   27.1128   34.2097 H   0  0  0  0  0  0  0  0  0  0  0  0
   37.4810   26.7674   37.2275 H   0  0  0  0  0  0  0  0  0  0  0  0
  1  2  1  0
  1  6  1  0
  2  3  1  0
  3  4  1  0
  5  4  1  0
  6  5  1  0
  7 12  1  0
  7  1  1  0
  8  7  2  0
  9  8  1  0
  9 10  2  0
 10 11  1  0
 11 12  2  0
 13 17  1  0
 13  6  1  0
 14 13  1  0
 15 14  2  0
 15 16  1  0
 16 17  2  0
  2 18  1  0
  2 19  1  0
  3 20  1  0
  3 21  1  0
  4 22  1  0
  4 23  1  0
  5 24  1  0
  5 25  1  0
  6 26  1  6
  8 27  1  0
  9 28  1  0
 11 29  1  0
 14 30  1  0
 15 31  1  0
 17 32  1  0
M  ISO  8  18  13  19  13  20  13  21  13  22  13  23  13  24  13  25  13
M  ISO  7  26  13  27  14  28  14  29  14  30  14  31  14  32  14
M  END
>  <minimizedAffinity>  (1) 
-5.02608204

>  <minimizedRMSD>  (1) 
1.57170069

$$$$
