
     RDKit          3D

 31 33  0  0  1  0  0  0  0  0999 V2000
   38.2790   22.7630   35.9240 N   0  0  0  0  0  0  0  0  0  0  0  0
   39.6210   22.4560   36.2820 C   0  0  0  0  0  0  0  0  0  0  0  0
   39.9910   22.5950   37.7110 C   0  0  0  0  0  0  0  0  0  0  0  0
   39.2620   23.5920   38.5270 C   0  0  0  0  0  0  0  0  0  0  0  0
   37.8720   23.8800   38.0300 C   0  0  0  0  0  0  0  0  0  0  0  0
   37.8830   24.0180   36.5190 C   0  0  1  0  0  0  0  0  0  0  0  0
   37.4300   21.9560   35.0950 C   0  0  0  0  0  0  0  0  0  0  0  0
   37.5900   21.7840   33.7150 C   0  0  0  0  0  0  0  0  0  0  0  0
   36.6780   20.9690   33.0650 C   0  0  0  0  0  0  0  0  0  0  0  0
   35.6770   20.3770   33.7920 N   0  0  0  0  0  0  0  0  0  0  0  0
   35.5680   20.5770   35.1290 C   0  0  0  0  0  0  0  0  0  0  0  0
   36.4350   21.3580   35.7740 N   0  0  0  0  0  0  0  0  0  0  0  0
   38.5730   25.1610   36.0330 N   0  0  0  0  0  0  0  0  0  0  0  0
   38.2350   26.4250   36.3540 C   0  0  0  0  0  0  0  0  0  0  0  0
   39.0870   27.2690   35.7290 N   0  0  0  0  0  0  0  0  0  0  0  0
   39.9430   26.5430   35.0290 C   0  0  0  0  0  0  0  0  0  0  0  0
   39.6110   25.2640   35.2310 N   0  0  0  0  0  0  0  0  0  0  0  0
   39.8102   21.4121   35.9915 H   0  0  0  0  0  0  0  0  0  0  0  0
   40.2323   23.2050   35.7573 H   0  0  0  0  0  0  0  0  0  0  0  0
   39.8409   21.6133   38.1841 H   0  0  0  0  0  0  0  0  0  0  0  0
   41.0271   22.9638   37.6904 H   0  0  0  0  0  0  0  0  0  0  0  0
   39.1909   23.2126   39.5570 H   0  0  0  0  0  0  0  0  0  0  0  0
   39.8272   24.5336   38.4647 H   0  0  0  0  0  0  0  0  0  0  0  0
   37.2038   23.0544   38.3161 H   0  0  0  0  0  0  0  0  0  0  0  0
   37.5145   24.8192   38.4772 H   0  0  0  0  0  0  0  0  0  0  0  0
   36.8554   24.2303   36.1888 H   0  0  0  0  0  0  0  0  0  0  0  0
   38.4077   22.2766   33.1684 H   0  0  0  0  0  0  0  0  0  0  0  0
   36.7555   20.7990   31.9810 H   0  0  0  0  0  0  0  0  0  0  0  0
   34.7553   20.0895   35.6874 H   0  0  0  0  0  0  0  0  0  0  0  0
   37.4057   26.7207   37.0134 H   0  0  0  0  0  0  0  0  0  0  0  0
   40.7664   26.9181   34.4035 H   0  0  0  0  0  0  0  0  0  0  0  0
  1  2  1  0
  1  6  1  0
  2  3  1  0
  3  4  1  0
  5  4  1  0
  6  5  1  0
  7 12  1  0
  7  1  1  0
  8  7  2  0
  9  8  1  0
  9 10  2  0
 10 11  1  0
 11 12  2  0
 13 14  1  0
 13  6  1  0
 15 14  2  0
 16 17  2  0
 16 15  1  0
 17 13  1  0
  2 18  1  0
  2 19  1  0
  3 20  1  0
  3 21  1  0
  4 22  1  0
  4 23  1  0
  5 24  1  0
  5 25  1  0
  6 26  1  6
  8 27  1  0
  9 28  1  0
 11 29  1  0
 14 30  1  0
 16 31  1  0
M  ISO  8  18  13  19  13  20  13  21  13  22  13  23  13  24  13  25  13
M  ISO  6  26  13  27  14  28  14  29  14  30  14  31  14
M  END
>  <minimizedAffinity>  (1) 
-5.02394056

>  <minimizedRMSD>  (1) 
1.66669655

$$$$
