
     RDKit          3D

 38 41  0  0  1  0  0  0  0  0999 V2000
   38.3610   25.2200   33.7900 N   0  0  0  0  0  0  0  0  0  0  0  0
   38.6620   24.6960   35.1020 C   0  0  0  0  0  0  0  0  0  0  0  0
   38.3200   25.5530   36.2520 C   0  0  0  0  0  0  0  0  0  0  0  0
   38.2950   27.0190   36.0620 C   0  0  0  0  0  0  0  0  0  0  0  0
   37.9910   27.4450   34.6410 C   0  0  0  0  0  0  0  0  0  0  0  0
   38.8340   26.5750   33.6930 C   0  0  2  0  0  0  0  0  0  0  0  0
   37.6930   24.4870   32.7600 C   0  0  0  0  0  0  0  0  0  0  0  0
   38.2490   23.4110   32.0660 C   0  0  0  0  0  0  0  0  0  0  0  0
   37.4860   22.7880   31.0890 C   0  0  0  0  0  0  0  0  0  0  0  0
   36.2330   23.2590   30.8560 N   0  0  0  0  0  0  0  0  0  0  0  0
   35.7230   24.3060   31.5470 C   0  0  0  0  0  0  0  0  0  0  0  0
   36.4600   24.9010   32.4860 N   0  0  0  0  0  0  0  0  0  0  0  0
   38.8480   27.1030   32.3520 N   0  0  0  0  0  0  0  0  0  0  0  0
   39.7880   26.9200   31.3770 C   0  0  0  0  0  0  0  0  0  0  0  0
   39.4750   27.5570   30.2620 N   0  0  0  0  0  0  0  0  0  0  0  0
   38.3140   28.1880   30.4580 C   0  0  0  0  0  0  0  0  0  0  0  0
   37.5850   28.9770   29.6000 C   0  0  0  0  0  0  0  0  0  0  0  0
   36.4190   29.4930   30.0880 N   0  0  0  0  0  0  0  0  0  0  0  0
   36.0480   29.2080   31.3620 C   0  0  0  0  0  0  0  0  0  0  0  0
   36.7710   28.4350   32.1920 N   0  0  0  0  0  0  0  0  0  0  0  0
   37.9320   27.8970   31.7650 C   0  0  0  0  0  0  0  0  0  0  0  0
   38.0650   29.2140   28.2750 N   0  0  0  0  0  0  0  0  0  0  0  0
   38.1133   23.7496   35.2168 H   0  0  0  0  0  0  0  0  0  0  0  0
   39.7573   24.5985   35.1299 H   0  0  0  0  0  0  0  0  0  0  0  0
   37.3178   25.2534   36.5924 H   0  0  0  0  0  0  0  0  0  0  0  0
   39.1445   25.3895   36.9616 H   0  0  0  0  0  0  0  0  0  0  0  0
   37.5242   27.4415   36.7233 H   0  0  0  0  0  0  0  0  0  0  0  0
   39.3027   27.3905   36.2997 H   0  0  0  0  0  0  0  0  0  0  0  0
   36.9215   27.3001   34.4286 H   0  0  0  0  0  0  0  0  0  0  0  0
   38.2339   28.5086   34.5008 H   0  0  0  0  0  0  0  0  0  0  0  0
   39.8919   26.5873   33.9940 H   0  0  0  0  0  0  0  0  0  0  0  0
   39.2691   23.0648   32.2887 H   0  0  0  0  0  0  0  0  0  0  0  0
   37.8845   21.9360   30.5186 H   0  0  0  0  0  0  0  0  0  0  0  0
   34.7049   24.6644   31.3347 H   0  0  0  0  0  0  0  0  0  0  0  0
   40.6973   26.3144   31.5050 H   0  0  0  0  0  0  0  0  0  0  0  0
   35.1046   29.6323   31.7362 H   0  0  0  0  0  0  0  0  0  0  0  0
   38.9540   28.7951   27.9667 H   0  0  0  0  0  0  0  0  0  0  0  0
   37.5219   29.8037   27.6283 H   0  0  0  0  0  0  0  0  0  0  0  0
  1  2  1  0
  2  3  1  0
  4  3  1  0
  5  4  1  0
  6  1  1  0
  6  5  1  0
  7  1  1  0
  8  7  2  0
  9  8  1  0
 10  9  2  0
 10 11  1  0
 11 12  2  0
 12  7  1  0
 13  6  1  0
 14 13  1  0
 15 16  1  0
 15 14  2  0
 16 21  2  0
 17 18  2  0
 17 16  1  0
 18 19  1  0
 19 20  2  0
 21 20  1  0
 21 13  1  0
 22 17  1  0
  2 23  1  0
  2 24  1  0
  3 25  1  0
  3 26  1  0
  4 27  1  0
  4 28  1  0
  5 29  1  0
  5 30  1  0
  6 31  1  1
  8 32  1  0
  9 33  1  0
 11 34  1  0
 14 35  1  0
 19 36  1  0
 22 37  1  0
 22 38  1  0
M  ISO  8  23  13  24  13  25  13  26  13  27  13  28  13  29  13  30  13
M  ISO  6  31  13  32  14  33  14  34  14  35  14  36  14
M  END
>  <minimizedAffinity>  (1) 
-4.97442341

>  <minimizedRMSD>  (1) 
4.49721336

$$$$
