
     RDKit          3D

 38 40  0  0  1  0  0  0  0  0999 V2000
   40.3490   25.0030   34.9320 N   0  0  0  0  0  0  0  0  0  0  0  0
   41.6320   25.6280   35.0030 C   0  0  0  0  0  0  0  0  0  0  0  0
   42.7570   24.9190   34.3460 C   0  0  0  0  0  0  0  0  0  0  0  0
   42.6900   23.4490   34.2100 C   0  0  0  0  0  0  0  0  0  0  0  0
   41.2840   22.9080   34.1620 C   0  0  0  0  0  0  0  0  0  0  0  0
   40.4610   23.5980   35.2600 C   0  0  2  0  0  0  0  0  0  0  0  0
   39.2020   22.9370   35.4920 N   0  0  0  0  0  0  0  0  0  0  0  0
   38.4850   22.3460   34.4900 C   0  0  0  0  0  0  0  0  0  0  0  0
   37.2850   21.7020   34.6390 C   0  0  0  0  0  0  0  0  0  0  0  0
   36.6670   21.1220   33.3940 C   0  0  0  0  0  0  0  0  0  0  0  0
   36.7370   21.6340   35.9090 C   0  0  0  0  0  0  0  0  0  0  0  0
   35.6450   21.0420   36.0170 O   0  0  0  0  0  0  0  0  0  0  0  0
   37.4350   22.2140   36.9180 N   0  0  0  0  0  0  0  0  0  0  0  0
   38.6120   22.8340   36.7070 C   0  0  0  0  0  0  0  0  0  0  0  0
   39.1950   23.3480   37.7040 O   0  0  0  0  0  0  0  0  0  0  0  0
   39.1260   25.6650   34.5870 C   0  0  0  0  0  0  0  0  0  0  0  0
   38.2790   26.3110   35.4810 C   0  0  0  0  0  0  0  0  0  0  0  0
   37.1230   26.9050   34.9730 C   0  0  0  0  0  0  0  0  0  0  0  0
   36.8840   26.8200   33.6250 N   0  0  0  0  0  0  0  0  0  0  0  0
   37.7230   26.1890   32.8000 C   0  0  0  0  0  0  0  0  0  0  0  0
   38.8350   25.6170   33.2760 N   0  0  0  0  0  0  0  0  0  0  0  0
   41.5454   26.6202   34.5360 H   0  0  0  0  0  0  0  0  0  0  0  0
   41.8864   25.6437   36.0731 H   0  0  0  0  0  0  0  0  0  0  0  0
   42.8519   25.3335   33.3315 H   0  0  0  0  0  0  0  0  0  0  0  0
   43.6077   25.0849   35.0234 H   0  0  0  0  0  0  0  0  0  0  0  0
   43.2042   23.1625   33.2807 H   0  0  0  0  0  0  0  0  0  0  0  0
   43.1684   23.0215   35.1036 H   0  0  0  0  0  0  0  0  0  0  0  0
   40.8391   23.1166   33.1778 H   0  0  0  0  0  0  0  0  0  0  0  0
   41.2921   21.8199   34.3233 H   0  0  0  0  0  0  0  0  0  0  0  0
   40.9765   23.5200   36.2286 H   0  0  0  0  0  0  0  0  0  0  0  0
   38.9081   22.3913   33.4756 H   0  0  0  0  0  0  0  0  0  0  0  0
   35.8914   20.3941   33.6745 H   0  0  0  0  0  0  0  0  0  0  0  0
   36.2145   21.9290   32.7991 H   0  0  0  0  0  0  0  0  0  0  0  0
   37.4437   20.6192   32.7991 H   0  0  0  0  0  0  0  0  0  0  0  0
   37.0532   22.1790   37.8740 H   0  0  0  0  0  0  0  0  0  0  0  0
   38.5130   26.3524   36.5550 H   0  0  0  0  0  0  0  0  0  0  0  0
   36.4203   27.4288   35.6376 H   0  0  0  0  0  0  0  0  0  0  0  0
   37.4990   26.1392   31.7242 H   0  0  0  0  0  0  0  0  0  0  0  0
  1  2  1  0
  1  6  1  0
  3  2  1  0
  4  3  1  0
  5  4  1  0
  5  6  1  0
  6  7  1  0
  7 14  1  0
  8  9  2  0
  8  7  1  0
  9 11  1  0
 10  9  1  0
 11 12  2  0
 11 13  1  0
 14 13  1  0
 14 15  2  0
 16  1  1  0
 16 17  2  0
 18 17  1  0
 19 18  2  0
 20 21  2  0
 20 19  1  0
 21 16  1  0
  2 22  1  0
  2 23  1  0
  3 24  1  0
  3 25  1  0
  4 26  1  0
  4 27  1  0
  5 28  1  0
  5 29  1  0
  6 30  1  1
  8 31  1  0
 10 32  1  0
 10 33  1  0
 10 34  1  0
 13 35  1  0
 17 36  1  0
 18 37  1  0
 20 38  1  0
M  ISO  8  22  13  23  13  24  13  25  13  26  13  27  13  28  13  29  13
M  ISO  8  30  13  31  14  32   8  33   8  34   8  35   9  36  14  37  14
M  ISO  1  38  14
M  END
>  <minimizedAffinity>  (1) 
-4.73469067

>  <minimizedRMSD>  (1) 
4.4964242

$$$$
