
     RDKit          3D

 37 38  0  0  1  0  0  0  0  0999 V2000
   38.2140   22.8530   35.8390 N   0  0  0  0  0  0  0  0  0  0  0  0
   39.5150   22.5060   36.3400 C   0  0  0  0  0  0  0  0  0  0  0  0
   39.7810   22.7160   37.7860 C   0  0  0  0  0  0  0  0  0  0  0  0
   39.0290   23.7890   38.4900 C   0  0  0  0  0  0  0  0  0  0  0  0
   37.7420   24.1470   37.8220 C   0  0  0  0  0  0  0  0  0  0  0  0
   37.8880   24.1470   36.3010 C   0  0  1  0  0  0  0  0  0  0  0  0
   37.4030   22.0120   35.0340 C   0  0  0  0  0  0  0  0  0  0  0  0
   37.5240   21.8290   33.6690 C   0  0  0  0  0  0  0  0  0  0  0  0
   36.6460   20.9880   33.0190 C   0  0  0  0  0  0  0  0  0  0  0  0
   35.6890   20.3660   33.7510 N   0  0  0  0  0  0  0  0  0  0  0  0
   35.5830   20.5520   35.0760 C   0  0  0  0  0  0  0  0  0  0  0  0
   36.4470   21.3740   35.6930 N   0  0  0  0  0  0  0  0  0  0  0  0
   38.4460   25.3660   35.7370 C   0  0  0  0  0  0  0  0  0  0  0  0
   37.6340   25.6470   34.4470 C   0  0  0  0  0  0  0  0  0  0  0  0
   38.4730   26.6360   36.4700 C   0  0  0  0  0  0  0  0  0  0  0  0
   39.8390   25.1270   35.1810 C   0  0  0  0  0  0  0  0  0  0  0  0
   39.6731   21.4380   36.1295 H   0  0  0  0  0  0  0  0  0  0  0  0
   40.2010   23.1981   35.8297 H   0  0  0  0  0  0  0  0  0  0  0  0
   39.5568   21.7695   38.2998 H   0  0  0  0  0  0  0  0  0  0  0  0
   40.8293   23.0469   37.8252 H   0  0  0  0  0  0  0  0  0  0  0  0
   38.8082   23.4472   39.5120 H   0  0  0  0  0  0  0  0  0  0  0  0
   39.6614   24.6890   38.4803 H   0  0  0  0  0  0  0  0  0  0  0  0
   36.9735   23.4139   38.1083 H   0  0  0  0  0  0  0  0  0  0  0  0
   37.4533   25.1586   38.1434 H   0  0  0  0  0  0  0  0  0  0  0  0
   36.9287   24.2916   35.7825 H   0  0  0  0  0  0  0  0  0  0  0  0
   38.3134   22.3495   33.1069 H   0  0  0  0  0  0  0  0  0  0  0  0
   36.7200   20.8256   31.9336 H   0  0  0  0  0  0  0  0  0  0  0  0
   34.7979   20.0373   35.6494 H   0  0  0  0  0  0  0  0  0  0  0  0
   36.6262   25.9957   34.7168 H   0  0  0  0  0  0  0  0  0  0  0  0
   38.1435   26.4211   33.8544 H   0  0  0  0  0  0  0  0  0  0  0  0
   37.5560   24.7236   33.8544 H   0  0  0  0  0  0  0  0  0  0  0  0
   38.4687   26.4353   37.5515 H   0  0  0  0  0  0  0  0  0  0  0  0
   39.3832   27.1935   36.2041 H   0  0  0  0  0  0  0  0  0  0  0  0
   37.5873   27.2317   36.2041 H   0  0  0  0  0  0  0  0  0  0  0  0
   40.5495   25.0051   36.0119 H   0  0  0  0  0  0  0  0  0  0  0  0
   39.8363   24.2162   34.5642 H   0  0  0  0  0  0  0  0  0  0  0  0
   40.1401   25.9866   34.5642 H   0  0  0  0  0  0  0  0  0  0  0  0
  1  6  1  0
  1  2  1  0
  2  3  1  0
  3  4  1  0
  5  4  1  0
  6  5  1  0
  7 12  1  0
  7  1  1  0
  8  7  2  0
  9  8  1  0
  9 10  2  0
 10 11  1  0
 11 12  2  0
 13  6  1  0
 13 15  1  0
 14 13  1  0
 16 13  1  0
  2 17  1  0
  2 18  1  0
  3 19  1  0
  3 20  1  0
  4 21  1  0
  4 22  1  0
  5 23  1  0
  5 24  1  0
  6 25  1  6
  8 26  1  0
  9 27  1  0
 11 28  1  0
 14 29  1  0
 14 30  1  0
 14 31  1  0
 15 32  1  0
 15 33  1  0
 15 34  1  0
 16 35  1  0
 16 36  1  0
 16 37  1  0
M  ISO  8  17  13  18  13  19  13  20  13  21  13  22  13  23  13  24  13
M  ISO  8  25  13  26  14  27  14  28  14  29   8  30   8  31   8  32   8
M  ISO  5  33   8  34   8  35   8  36   8  37   8
M  END
>  <minimizedAffinity>  (1) 
-4.60888624

>  <minimizedRMSD>  (1) 
1.69894993

$$$$
