
     RDKit          3D

 32 33  0  0  0  0  0  0  0  0999 V2000
   38.2260   23.5970   36.9540 C   0  0  0  0  0  0  0  0  0  0  0  0
   41.6270   22.0110   37.1350 C   0  0  0  0  0  0  0  0  0  0  0  0
   40.2910   22.2420   37.4340 C   0  0  0  0  0  0  0  0  0  0  0  0
   39.6240   23.2640   36.7270 C   0  0  0  0  0  0  0  0  0  0  0  0
   40.3180   23.9730   35.7910 N   0  0  0  0  0  0  0  0  0  0  0  0
   41.6110   23.7130   35.5340 C   0  0  0  0  0  0  0  0  0  0  0  0
   42.2680   22.7320   36.2060 N   0  0  0  0  0  0  0  0  0  0  0  0
   38.1250   24.2060   38.3620 C   0  0  0  0  0  0  0  0  0  0  0  0
   37.6230   24.5160   35.9380 C   0  0  0  0  0  0  0  0  0  0  0  0
   37.4050   22.3150   36.9450 C   0  0  0  0  0  0  0  0  0  0  0  0
   37.0520   21.8460   35.6280 C   0  0  0  0  0  0  0  0  0  0  0  0
   35.9870   21.0660   35.3730 C   0  0  0  0  0  0  0  0  0  0  0  0
   35.5770   20.6120   34.1810 C   0  0  0  0  0  0  0  0  0  0  0  0
   36.4980   21.1070   33.1310 C   0  0  0  0  0  0  0  0  0  0  0  0
   37.7960   22.1370   34.0270 S   0  0  0  0  0  0  0  0  0  0  0  0
   36.5690   20.9510   31.6870 C   0  0  0  0  0  0  0  0  0  0  0  0
   37.2900   22.0160   31.1940 F   0  0  0  0  0  0  0  0  0  0  0  0
   35.2850   21.0990   31.1660 F   0  0  0  0  0  0  0  0  0  0  0  0
   37.1660   19.7810   31.2640 F   0  0  0  0  0  0  0  0  0  0  0  0
   42.1702   21.2195   37.6722 H   0  0  0  0  0  0  0  0  0  0  0  0
   39.7693   21.6469   38.1980 H   0  0  0  0  0  0  0  0  0  0  0  0
   42.1431   24.3007   34.7715 H   0  0  0  0  0  0  0  0  0  0  0  0
   38.2563   23.4142   39.1142 H   0  0  0  0  0  0  0  0  0  0  0  0
   38.9093   24.9667   38.4896 H   0  0  0  0  0  0  0  0  0  0  0  0
   37.1372   24.6728   38.4896 H   0  0  0  0  0  0  0  0  0  0  0  0
   37.0891   25.3297   36.4507 H   0  0  0  0  0  0  0  0  0  0  0  0
   38.4193   24.9396   35.3083 H   0  0  0  0  0  0  0  0  0  0  0  0
   36.9175   23.9541   35.3083 H   0  0  0  0  0  0  0  0  0  0  0  0
   37.9887   21.5286   37.4458 H   0  0  0  0  0  0  0  0  0  0  0  0
   36.4611   22.5417   37.4623 H   0  0  0  0  0  0  0  0  0  0  0  0
   35.3833   20.7663   36.2423 H   0  0  0  0  0  0  0  0  0  0  0  0
   34.6975   19.9740   34.0093 H   0  0  0  0  0  0  0  0  0  0  0  0
  1  8  1  0
  2  3  2  0
  4  1  1  0
  4  3  1  0
  5  4  2  0
  6  5  1  0
  6  7  2  0
  7  2  1  0
  9  1  1  0
 10  1  1  0
 11 10  1  0
 12 11  2  0
 13 12  1  0
 14 15  1  0
 14 13  2  0
 15 11  1  0
 16 14  1  0
 17 16  1  0
 18 16  1  0
 19 16  1  0
  2 20  1  0
  3 21  1  0
  6 22  1  0
  8 23  1  0
  8 24  1  0
  8 25  1  0
  9 26  1  0
  9 27  1  0
  9 28  1  0
 10 29  1  0
 10 30  1  0
 12 31  1  0
 13 32  1  0
M  ISO  8  20  14  21  14  22  14  23   8  24   8  25   8  26   8  27   8
M  ISO  5  28   8  29   8  30   8  31  14  32  14
M  END
>  <minimizedAffinity>  (1) 
-4.4780302

>  <minimizedRMSD>  (1) 
0.241395503

$$$$
