
     RDKit          3D

 35 37  0  0  1  0  0  0  0  0999 V2000
   40.3950   24.5580   35.2070 N   0  0  0  0  0  0  0  0  0  0  0  0
   41.0860   23.5010   35.9130 C   0  0  0  0  0  0  0  0  0  0  0  0
   40.3760   22.2110   36.0410 C   0  0  0  0  0  0  0  0  0  0  0  0
   38.8990   22.2160   36.0650 C   0  0  0  0  0  0  0  0  0  0  0  0
   38.2920   23.3810   35.3020 C   0  0  0  0  0  0  0  0  0  0  0  0
   39.0630   24.6570   35.7110 C   0  0  2  0  0  0  0  0  0  0  0  0
   40.9860   25.3480   34.1820 C   0  0  0  0  0  0  0  0  0  0  0  0
   41.5960   26.5980   34.4050 C   0  0  0  0  0  0  0  0  0  0  0  0
   42.1310   27.2580   33.3130 C   0  0  0  0  0  0  0  0  0  0  0  0
   42.0420   26.6660   32.0740 N   0  0  0  0  0  0  0  0  0  0  0  0
   41.4530   25.4790   31.9120 C   0  0  0  0  0  0  0  0  0  0  0  0
   40.9310   24.8310   32.9600 N   0  0  0  0  0  0  0  0  0  0  0  0
   38.3040   25.8460   35.2480 C   0  0  0  0  0  0  0  0  0  0  0  0
   37.5860   25.7930   34.0480 C   0  0  0  0  0  0  0  0  0  0  0  0
   36.8460   26.8240   33.5080 C   0  0  0  0  0  0  0  0  0  0  0  0
   36.8090   28.0090   34.2080 C   0  0  0  0  0  0  0  0  0  0  0  0
   37.4980   28.1170   35.3960 C   0  0  0  0  0  0  0  0  0  0  0  0
   38.2260   27.0550   35.8960 C   0  0  0  0  0  0  0  0  0  0  0  0
   42.0311   23.3097   35.3837 H   0  0  0  0  0  0  0  0  0  0  0  0
   41.2012   23.8699   36.9429 H   0  0  0  0  0  0  0  0  0  0  0  0
   40.6843   21.5854   35.1904 H   0  0  0  0  0  0  0  0  0  0  0  0
   40.6592   21.8471   37.0397 H   0  0  0  0  0  0  0  0  0  0  0  0
   38.5389   21.2785   35.6162 H   0  0  0  0  0  0  0  0  0  0  0  0
   38.5895   22.3167   37.1157 H   0  0  0  0  0  0  0  0  0  0  0  0
   37.2281   23.4859   35.5610 H   0  0  0  0  0  0  0  0  0  0  0  0
   38.3666   23.2144   34.2172 H   0  0  0  0  0  0  0  0  0  0  0  0
   39.1533   24.7672   36.8017 H   0  0  0  0  0  0  0  0  0  0  0  0
   41.6453   27.0347   35.4134 H   0  0  0  0  0  0  0  0  0  0  0  0
   42.6180   28.2370   33.4329 H   0  0  0  0  0  0  0  0  0  0  0  0
   41.3963   25.0301   30.9093 H   0  0  0  0  0  0  0  0  0  0  0  0
   37.6143   24.8473   33.4869 H   0  0  0  0  0  0  0  0  0  0  0  0
   36.3071   26.7044   32.5565 H   0  0  0  0  0  0  0  0  0  0  0  0
   36.2336   28.8631   33.8215 H   0  0  0  0  0  0  0  0  0  0  0  0
   37.4679   29.0638   35.9552 H   0  0  0  0  0  0  0  0  0  0  0  0
   38.7629   27.1818   36.8477 H   0  0  0  0  0  0  0  0  0  0  0  0
  1  6  1  0
  1  2  1  0
  2  3  1  0
  3  4  1  0
  5  6  1  0
  5  4  1  0
  7  8  2  0
  7  1  1  0
  9  8  1  0
 10  9  2  0
 11 10  1  0
 11 12  2  0
 12  7  1  0
 13  6  1  0
 13 18  1  0
 14 13  2  0
 15 14  1  0
 15 16  2  0
 16 17  1  0
 17 18  2  0
  2 19  1  0
  2 20  1  0
  3 21  1  0
  3 22  1  0
  4 23  1  0
  4 24  1  0
  5 25  1  0
  5 26  1  0
  6 27  1  1
  8 28  1  0
  9 29  1  0
 11 30  1  0
 14 31  1  0
 15 32  1  0
 16 33  1  0
 17 34  1  0
 18 35  1  0
M  ISO  8  19  13  20  13  21  13  22  13  23  13  24  13  25  13  26  13
M  ISO  8  27  13  28  14  29  14  30  14  31  14  32  14  33  14  34  14
M  ISO  1  35  14
M  END
>  <minimizedAffinity>  (1) 
-4.23152494

>  <minimizedRMSD>  (1) 
3.62082291

$$$$
