
     RDKit          3D

 35 36  0  0  0  0  0  0  0  0999 V2000
   38.1780   23.7060   37.0720 C   0  0  0  0  0  0  0  0  0  0  0  0
   41.5550   22.0370   37.1930 C   0  0  0  0  0  0  0  0  0  0  0  0
   40.2370   22.3010   37.5290 C   0  0  0  0  0  0  0  0  0  0  0  0
   39.5730   23.3260   36.8140 C   0  0  0  0  0  0  0  0  0  0  0  0
   40.2450   24.0010   35.8420 N   0  0  0  0  0  0  0  0  0  0  0  0
   41.5260   23.7020   35.5560 C   0  0  0  0  0  0  0  0  0  0  0  0
   42.1870   22.7150   36.2340 N   0  0  0  0  0  0  0  0  0  0  0  0
   38.1440   24.3250   38.4790 C   0  0  0  0  0  0  0  0  0  0  0  0
   37.5780   24.6120   36.0590 C   0  0  0  0  0  0  0  0  0  0  0  0
   37.3310   22.4390   37.1140 C   0  0  0  0  0  0  0  0  0  0  0  0
   37.0210   21.8950   35.8150 C   0  0  0  0  0  0  0  0  0  0  0  0
   35.9590   21.1040   35.5730 C   0  0  0  0  0  0  0  0  0  0  0  0
   35.5980   20.5870   34.3850 C   0  0  0  0  0  0  0  0  0  0  0  0
   36.5420   21.0060   33.3480 C   0  0  0  0  0  0  0  0  0  0  0  0
   37.8210   22.0880   34.2260 S   0  0  0  0  0  0  0  0  0  0  0  0
   36.6340   20.7480   31.9040 C   0  0  0  0  0  0  0  0  0  0  0  0
   35.5680   21.4530   31.1070 C   0  0  0  0  0  0  0  0  0  0  0  0
   42.0956   21.2455   37.7327 H   0  0  0  0  0  0  0  0  0  0  0  0
   39.7259   21.7351   38.3218 H   0  0  0  0  0  0  0  0  0  0  0  0
   42.0490   24.2598   34.7652 H   0  0  0  0  0  0  0  0  0  0  0  0
   38.1879   23.5250   39.2327 H   0  0  0  0  0  0  0  0  0  0  0  0
   39.0067   24.9957   38.6055 H   0  0  0  0  0  0  0  0  0  0  0  0
   37.2131   24.8972   38.6055 H   0  0  0  0  0  0  0  0  0  0  0  0
   37.0394   25.4252   36.5676 H   0  0  0  0  0  0  0  0  0  0  0  0
   38.3740   25.0367   35.4297 H   0  0  0  0  0  0  0  0  0  0  0  0
   36.8763   24.0449   35.4297 H   0  0  0  0  0  0  0  0  0  0  0  0
   37.8789   21.6760   37.6863 H   0  0  0  0  0  0  0  0  0  0  0  0
   36.3731   22.7130   37.5801 H   0  0  0  0  0  0  0  0  0  0  0  0
   35.3217   20.8552   36.4344 H   0  0  0  0  0  0  0  0  0  0  0  0
   34.7217   19.9436   34.2173 H   0  0  0  0  0  0  0  0  0  0  0  0
   37.6182   21.0886   31.5499 H   0  0  0  0  0  0  0  0  0  0  0  0
   36.4930   19.6673   31.7550 H   0  0  0  0  0  0  0  0  0  0  0  0
   34.8508   21.9273   31.7930 H   0  0  0  0  0  0  0  0  0  0  0  0
   36.0328   22.2224   30.4730 H   0  0  0  0  0  0  0  0  0  0  0  0
   35.0419   20.7241   30.4730 H   0  0  0  0  0  0  0  0  0  0  0  0
  1 10  1  0
  1  8  1  0
  2  3  2  0
  4  1  1  0
  4  3  1  0
  5  4  2  0
  6  5  1  0
  6  7  2  0
  7  2  1  0
  9  1  1  0
 11 10  1  0
 12 11  2  0
 13 12  1  0
 14 15  1  0
 14 13  2  0
 15 11  1  0
 16 14  1  0
 17 16  1  0
  2 18  1  0
  3 19  1  0
  6 20  1  0
  8 21  1  0
  8 22  1  0
  8 23  1  0
  9 24  1  0
  9 25  1  0
  9 26  1  0
 10 27  1  0
 10 28  1  0
 12 29  1  0
 13 30  1  0
 16 31  1  0
 16 32  1  0
 17 33  1  0
 17 34  1  0
 17 35  1  0
M  ISO  8  18  14  19  14  20  14  21   8  22   8  23   8  24   8  25   8
M  ISO  8  26   8  27   8  28   8  29  14  30  14  31   8  32   8  33   8
M  ISO  2  34   8  35   8
M  END
>  <minimizedAffinity>  (1) 
-4.27173424

>  <minimizedRMSD>  (1) 
0.369739711

$$$$
