
     RDKit          3D

 41 43  0  0  1  0  0  0  0  0999 V2000
   38.8890   23.4210   35.7230 N   0  0  0  0  0  0  0  0  0  0  0  0
   40.0690   22.7730   36.2580 C   0  0  0  0  0  0  0  0  0  0  0  0
   40.0920   22.5100   37.7130 C   0  0  0  0  0  0  0  0  0  0  0  0
   39.2310   23.3300   38.5970 C   0  0  0  0  0  0  0  0  0  0  0  0
   38.0580   23.9670   37.9020 C   0  0  0  0  0  0  0  0  0  0  0  0
   38.5520   24.5350   36.5400 C   0  0  2  0  0  0  0  0  0  0  0  0
   38.2140   22.9650   34.5560 C   0  0  0  0  0  0  0  0  0  0  0  0
   38.3180   23.5110   33.2950 C   0  0  0  0  0  0  0  0  0  0  0  0
   37.6180   22.9910   32.2320 C   0  0  0  0  0  0  0  0  0  0  0  0
   36.8230   21.9200   32.4770 N   0  0  0  0  0  0  0  0  0  0  0  0
   36.7180   21.3800   33.7130 C   0  0  0  0  0  0  0  0  0  0  0  0
   37.4130   21.9120   34.7270 N   0  0  0  0  0  0  0  0  0  0  0  0
   37.5020   25.4340   35.9820 C   0  0  0  0  0  0  0  0  0  0  0  0
   38.1350   26.7850   35.7080 C   0  0  0  0  0  0  0  0  0  0  0  0
   37.7000   27.3610   34.4080 C   0  0  0  0  0  0  0  0  0  0  0  0
   36.5600   28.1540   34.4730 C   0  0  0  0  0  0  0  0  0  0  0  0
   36.0030   28.7750   33.3660 C   0  0  0  0  0  0  0  0  0  0  0  0
   36.6580   28.5560   32.1740 C   0  0  0  0  0  0  0  0  0  0  0  0
   37.8020   27.7720   32.0470 C   0  0  0  0  0  0  0  0  0  0  0  0
   38.2990   27.1880   33.1760 C   0  0  0  0  0  0  0  0  0  0  0  0
   40.1775   21.8061   35.7448 H   0  0  0  0  0  0  0  0  0  0  0  0
   40.8884   23.4861   36.0848 H   0  0  0  0  0  0  0  0  0  0  0  0
   39.7974   21.4600   37.8571 H   0  0  0  0  0  0  0  0  0  0  0  0
   41.1157   22.7744   38.0165 H   0  0  0  0  0  0  0  0  0  0  0  0
   38.8463   22.6834   39.3994 H   0  0  0  0  0  0  0  0  0  0  0  0
   39.8581   24.1516   38.9734 H   0  0  0  0  0  0  0  0  0  0  0  0
   37.2736   23.2153   37.7298 H   0  0  0  0  0  0  0  0  0  0  0  0
   37.6404   24.7739   38.5220 H   0  0  0  0  0  0  0  0  0  0  0  0
   39.4527   25.1608   36.6245 H   0  0  0  0  0  0  0  0  0  0  0  0
   38.9738   24.3797   33.1358 H   0  0  0  0  0  0  0  0  0  0  0  0
   37.6994   23.4256   31.2248 H   0  0  0  0  0  0  0  0  0  0  0  0
   36.0666   20.5103   33.8840 H   0  0  0  0  0  0  0  0  0  0  0  0
   37.1073   25.0106   35.0466 H   0  0  0  0  0  0  0  0  0  0  0  0
   36.6722   25.5399   36.6963 H   0  0  0  0  0  0  0  0  0  0  0  0
   37.8517   27.4779   36.5140 H   0  0  0  0  0  0  0  0  0  0  0  0
   39.2248   26.6423   35.6640 H   0  0  0  0  0  0  0  0  0  0  0  0
   36.0763   28.2956   35.4508 H   0  0  0  0  0  0  0  0  0  0  0  0
   35.1002   29.3997   33.4346 H   0  0  0  0  0  0  0  0  0  0  0  0
   36.2528   29.0291   31.2674 H   0  0  0  0  0  0  0  0  0  0  0  0
   38.2881   27.6284   31.0707 H   0  0  0  0  0  0  0  0  0  0  0  0
   39.2010   26.5627   33.1025 H   0  0  0  0  0  0  0  0  0  0  0  0
  1  2  1  0
  1  6  1  0
  2  3  1  0
  3  4  1  0
  5  4  1  0
  6  5  1  0
  7 12  1  0
  7  1  1  0
  8  7  2  0
  9 10  2  0
  9  8  1  0
 10 11  1  0
 11 12  2  0
 13  6  1  0
 14 13  1  0
 15 16  2  0
 15 14  1  0
 17 16  1  0
 18 17  2  0
 19 18  1  0
 19 20  2  0
 20 15  1  0
  2 21  1  0
  2 22  1  0
  3 23  1  0
  3 24  1  0
  4 25  1  0
  4 26  1  0
  5 27  1  0
  5 28  1  0
  6 29  1  1
  8 30  1  0
  9 31  1  0
 11 32  1  0
 13 33  1  0
 13 34  1  0
 14 35  1  0
 14 36  1  0
 16 37  1  0
 17 38  1  0
 18 39  1  0
 19 40  1  0
 20 41  1  0
M  ISO  8  21  13  22  13  23  13  24  13  25  13  26  13  27  13  28  13
M  ISO  8  29  13  30  14  31  14  32  14  33   8  34   8  35   8  36   8
M  ISO  5  37  14  38  14  39  14  40  14  41  14
M  END
>  <minimizedAffinity>  (1) 
-5.30324745

>  <minimizedRMSD>  (1) 
1.15924764

$$$$
