
     RDKit          3D

 47 49  0  0  1  0  0  0  0  0999 V2000
   38.9960   23.3670   35.6750 N   0  0  0  0  0  0  0  0  0  0  0  0
   40.1260   22.7110   36.2930 C   0  0  0  0  0  0  0  0  0  0  0  0
   40.0690   22.5010   37.7500 C   0  0  0  0  0  0  0  0  0  0  0  0
   39.2150   23.4120   38.5670 C   0  0  0  0  0  0  0  0  0  0  0  0
   38.0640   24.0050   37.7840 C   0  0  0  0  0  0  0  0  0  0  0  0
   38.6470   24.5130   36.4330 C   0  0  2  0  0  0  0  0  0  0  0  0
   38.3710   22.8860   34.4860 C   0  0  0  0  0  0  0  0  0  0  0  0
   38.6520   23.2950   33.1970 C   0  0  0  0  0  0  0  0  0  0  0  0
   37.9760   22.7540   32.1290 C   0  0  0  0  0  0  0  0  0  0  0  0
   37.0290   21.8100   32.3950 N   0  0  0  0  0  0  0  0  0  0  0  0
   36.7600   21.4170   33.6450 C   0  0  0  0  0  0  0  0  0  0  0  0
   37.4310   21.9580   34.6700 N   0  0  0  0  0  0  0  0  0  0  0  0
   37.6500   25.4240   35.7840 C   0  0  0  0  0  0  0  0  0  0  0  0
   38.2070   26.8230   35.7840 C   0  0  0  0  0  0  0  0  0  0  0  0
   37.8390   27.6400   34.5800 C   0  0  0  0  0  0  0  0  0  0  0  0
   38.1690   26.7790   33.3710 C   0  0  0  0  0  0  0  0  0  0  0  0
   37.3610   27.1070   32.1590 C   0  0  0  0  0  0  0  0  0  0  0  0
   36.9520   28.5440   32.1580 C   0  0  0  0  0  0  0  0  0  0  0  0
   36.0670   28.8090   33.3350 C   0  0  0  0  0  0  0  0  0  0  0  0
   36.3460   27.9320   34.5250 C   0  0  0  0  0  0  0  0  0  0  0  0
   40.2344   21.7236   35.8204 H   0  0  0  0  0  0  0  0  0  0  0  0
   40.9714   23.3976   36.1386 H   0  0  0  0  0  0  0  0  0  0  0  0
   39.7036   21.4769   37.9166 H   0  0  0  0  0  0  0  0  0  0  0  0
   41.0928   22.7114   38.0930 H   0  0  0  0  0  0  0  0  0  0  0  0
   38.8057   22.8423   39.4143 H   0  0  0  0  0  0  0  0  0  0  0  0
   39.8498   24.2461   38.9007 H   0  0  0  0  0  0  0  0  0  0  0  0
   37.2973   23.2380   37.6001 H   0  0  0  0  0  0  0  0  0  0  0  0
   37.5918   24.8271   38.3418 H   0  0  0  0  0  0  0  0  0  0  0  0
   39.5585   25.1179   36.5478 H   0  0  0  0  0  0  0  0  0  0  0  0
   39.4231   24.0600   33.0235 H   0  0  0  0  0  0  0  0  0  0  0  0
   38.1913   23.0711   31.0979 H   0  0  0  0  0  0  0  0  0  0  0  0
   35.9909   20.6527   33.8302 H   0  0  0  0  0  0  0  0  0  0  0  0
   36.7054   25.4011   36.3472 H   0  0  0  0  0  0  0  0  0  0  0  0
   37.4572   25.0961   34.7519 H   0  0  0  0  0  0  0  0  0  0  0  0
   37.8324   27.3418   36.6787 H   0  0  0  0  0  0  0  0  0  0  0  0
   39.3024   26.7233   35.7712 H   0  0  0  0  0  0  0  0  0  0  0  0
   38.3794   28.5976   34.6103 H   0  0  0  0  0  0  0  0  0  0  0  0
   39.2326   26.9173   33.1266 H   0  0  0  0  0  0  0  0  0  0  0  0
   37.9312   25.7400   33.6431 H   0  0  0  0  0  0  0  0  0  0  0  0
   37.9623   26.9040   31.2606 H   0  0  0  0  0  0  0  0  0  0  0  0
   36.4535   26.4854   32.1654 H   0  0  0  0  0  0  0  0  0  0  0  0
   37.8470   29.1805   32.2210 H   0  0  0  0  0  0  0  0  0  0  0  0
   36.4070   28.7705   31.2298 H   0  0  0  0  0  0  0  0  0  0  0  0
   36.2024   29.8573   33.6395 H   0  0  0  0  0  0  0  0  0  0  0  0
   35.0384   28.5885   33.0136 H   0  0  0  0  0  0  0  0  0  0  0  0
   36.0361   28.4483   35.4455 H   0  0  0  0  0  0  0  0  0  0  0  0
   35.7841   26.9906   34.4354 H   0  0  0  0  0  0  0  0  0  0  0  0
  1  2  1  0
  1  6  1  0
  2  3  1  0
  3  4  1  0
  5  4  1  0
  6  5  1  0
  7 12  1  0
  7  1  1  0
  8  7  2  0
  9 10  2  0
  9  8  1  0
 10 11  1  0
 11 12  2  0
 13 14  1  0
 13  6  1  0
 15 14  1  0
 16 15  1  0
 17 16  1  0
 18 17  1  0
 18 19  1  0
 19 20  1  0
 20 15  1  0
  2 21  1  0
  2 22  1  0
  3 23  1  0
  3 24  1  0
  4 25  1  0
  4 26  1  0
  5 27  1  0
  5 28  1  0
  6 29  1  1
  8 30  1  0
  9 31  1  0
 11 32  1  0
 13 33  1  0
 13 34  1  0
 14 35  1  0
 14 36  1  0
 15 37  1  0
 16 38  1  0
 16 39  1  0
 17 40  1  0
 17 41  1  0
 18 42  1  0
 18 43  1  0
 19 44  1  0
 19 45  1  0
 20 46  1  0
 20 47  1  0
M  ISO  8  21  13  22  13  23  13  24  13  25  13  26  13  27  13  28  13
M  ISO  8  29  13  30  14  31  14  32  14  33   8  34   8  35   8  36   8
M  ISO  8  37  13  38  13  39  13  40  13  41  13  42  13  43  13  44  13
M  ISO  3  45  13  46  13  47  13
M  END
>  <minimizedAffinity>  (1) 
-5.06764174

>  <minimizedRMSD>  (1) 
0.95372498

$$$$
