
     RDKit          3D

 44 46  0  0  1  0  0  0  0  0999 V2000
   39.1030   23.1200   35.2260 N   0  0  0  0  0  0  0  0  0  0  0  0
   40.3830   22.4460   35.3140 C   0  0  0  0  0  0  0  0  0  0  0  0
   40.7960   21.9630   36.6410 C   0  0  0  0  0  0  0  0  0  0  0  0
   40.2200   22.6070   37.8510 C   0  0  0  0  0  0  0  0  0  0  0  0
   38.8880   23.2670   37.6060 C   0  0  0  0  0  0  0  0  0  0  0  0
   38.9900   24.0660   36.2740 C   0  0  2  0  0  0  0  0  0  0  0  0
   38.1370   22.8320   34.2150 C   0  0  0  0  0  0  0  0  0  0  0  0
   37.9270   23.5660   33.0680 C   0  0  0  0  0  0  0  0  0  0  0  0
   36.9540   23.1810   32.1640 C   0  0  0  0  0  0  0  0  0  0  0  0
   36.2320   22.0770   32.4450 N   0  0  0  0  0  0  0  0  0  0  0  0
   36.4390   21.3580   33.5730 C   0  0  0  0  0  0  0  0  0  0  0  0
   37.3860   21.7450   34.4370 N   0  0  0  0  0  0  0  0  0  0  0  0
   37.8430   25.0140   36.1680 C   0  0  0  0  0  0  0  0  0  0  0  0
   38.3510   26.4150   36.3650 C   0  0  0  0  0  0  0  0  0  0  0  0
   38.3180   27.2520   35.1280 C   0  0  0  0  0  0  0  0  0  0  0  0
   39.4500   27.0350   34.1970 C   0  0  0  0  0  0  0  0  0  0  0  0
   38.8220   27.1400   32.8090 C   0  0  0  0  0  0  0  0  0  0  0  0
   37.3900   27.5920   33.0170 C   0  0  0  0  0  0  0  0  0  0  0  0
   37.0560   26.9480   34.3500 C   0  0  0  0  0  0  0  0  0  0  0  0
   40.3466   21.5764   34.6413 H   0  0  0  0  0  0  0  0  0  0  0  0
   41.1265   23.2108   35.0453 H   0  0  0  0  0  0  0  0  0  0  0  0
   40.5385   20.8947   36.6903 H   0  0  0  0  0  0  0  0  0  0  0  0
   41.8662   22.2119   36.6924 H   0  0  0  0  0  0  0  0  0  0  0  0
   40.0896   21.8374   38.6260 H   0  0  0  0  0  0  0  0  0  0  0  0
   40.9199   23.3973   38.1603 H   0  0  0  0  0  0  0  0  0  0  0  0
   38.1012   22.5027   37.5244 H   0  0  0  0  0  0  0  0  0  0  0  0
   38.6337   23.9394   38.4386 H   0  0  0  0  0  0  0  0  0  0  0  0
   39.8803   24.7099   36.2212 H   0  0  0  0  0  0  0  0  0  0  0  0
   38.5353   24.4611   32.8708 H   0  0  0  0  0  0  0  0  0  0  0  0
   36.7744   23.7572   31.2444 H   0  0  0  0  0  0  0  0  0  0  0  0
   35.8339   20.4626   33.7784 H   0  0  0  0  0  0  0  0  0  0  0  0
   37.3808   24.9250   35.1738 H   0  0  0  0  0  0  0  0  0  0  0  0
   37.0916   24.7780   36.9359 H   0  0  0  0  0  0  0  0  0  0  0  0
   37.7301   26.9038   37.1302 H   0  0  0  0  0  0  0  0  0  0  0  0
   39.4059   26.3321   36.6656 H   0  0  0  0  0  0  0  0  0  0  0  0
   38.3727   28.2901   35.4876 H   0  0  0  0  0  0  0  0  0  0  0  0
   40.2216   27.8068   34.3351 H   0  0  0  0  0  0  0  0  0  0  0  0
   39.9494   26.0686   34.3605 H   0  0  0  0  0  0  0  0  0  0  0  0
   38.8424   26.1611   32.3077 H   0  0  0  0  0  0  0  0  0  0  0  0
   39.3747   27.8491   32.1752 H   0  0  0  0  0  0  0  0  0  0  0  0
   37.3194   28.6883   33.0722 H   0  0  0  0  0  0  0  0  0  0  0  0
   36.7089   27.3092   32.2008 H   0  0  0  0  0  0  0  0  0  0  0  0
   36.1720   27.4099   34.8138 H   0  0  0  0  0  0  0  0  0  0  0  0
   36.8002   25.8798   34.2913 H   0  0  0  0  0  0  0  0  0  0  0  0
  1  2  1  0
  1  6  1  0
  2  3  1  0
  3  4  1  0
  5  4  1  0
  6  5  1  0
  7 12  1  0
  7  1  1  0
  8  7  2  0
  9 10  2  0
  9  8  1  0
 10 11  1  0
 11 12  2  0
 13  6  1  0
 13 14  1  0
 15 14  1  0
 16 15  1  0
 17 18  1  0
 17 16  1  0
 18 19  1  0
 19 15  1  0
  2 20  1  0
  2 21  1  0
  3 22  1  0
  3 23  1  0
  4 24  1  0
  4 25  1  0
  5 26  1  0
  5 27  1  0
  6 28  1  1
  8 29  1  0
  9 30  1  0
 11 31  1  0
 13 32  1  0
 13 33  1  0
 14 34  1  0
 14 35  1  0
 15 36  1  0
 16 37  1  0
 16 38  1  0
 17 39  1  0
 17 40  1  0
 18 41  1  0
 18 42  1  0
 19 43  1  0
 19 44  1  0
M  ISO  8  20  13  21  13  22  13  23  13  24  13  25  13  26  13  27  13
M  ISO  8  28  13  29  14  30  14  31  14  32   8  33   8  34   8  35   8
M  ISO  8  36  13  37  13  38  13  39  13  40  13  41  13  42  13  43  13
M  ISO  1  44  13
M  END
>  <minimizedAffinity>  (1) 
-5.0462327

>  <minimizedRMSD>  (1) 
1.40231681

$$$$
