
     RDKit          3D

 39 41  0  0  1  0  0  0  0  0999 V2000
   38.8760   23.4430   35.7190 N   0  0  0  0  0  0  0  0  0  0  0  0
   40.0420   22.7850   36.2640 C   0  0  0  0  0  0  0  0  0  0  0  0
   40.0620   22.5300   37.7110 C   0  0  0  0  0  0  0  0  0  0  0  0
   39.2000   23.3530   38.5950 C   0  0  0  0  0  0  0  0  0  0  0  0
   38.0380   24.0010   37.8950 C   0  0  0  0  0  0  0  0  0  0  0  0
   38.5360   24.5550   36.5300 C   0  0  2  0  0  0  0  0  0  0  0  0
   38.2070   22.9940   34.5420 C   0  0  0  0  0  0  0  0  0  0  0  0
   38.3120   23.5760   33.2880 C   0  0  0  0  0  0  0  0  0  0  0  0
   37.6010   23.0310   32.2270 C   0  0  0  0  0  0  0  0  0  0  0  0
   36.8270   21.9440   32.4630 N   0  0  0  0  0  0  0  0  0  0  0  0
   36.7370   21.3910   33.6850 C   0  0  0  0  0  0  0  0  0  0  0  0
   37.4250   21.9210   34.7040 N   0  0  0  0  0  0  0  0  0  0  0  0
   37.4930   25.4630   35.9740 C   0  0  0  0  0  0  0  0  0  0  0  0
   38.1530   26.7890   35.6330 C   0  0  0  0  0  0  0  0  0  0  0  0
   37.6570   27.3610   34.3720 C   0  0  0  0  0  0  0  0  0  0  0  0
   36.5250   28.1710   34.5270 C   0  0  0  0  0  0  0  0  0  0  0  0
   35.9690   28.7640   33.4090 C   0  0  0  0  0  0  0  0  0  0  0  0
   36.5010   28.5690   32.2010 N   0  0  0  0  0  0  0  0  0  0  0  0
   37.6000   27.7810   32.0580 C   0  0  0  0  0  0  0  0  0  0  0  0
   38.1610   27.1910   33.1340 N   0  0  0  0  0  0  0  0  0  0  0  0
   40.1397   21.8138   35.7568 H   0  0  0  0  0  0  0  0  0  0  0  0
   40.8683   23.4904   36.0920 H   0  0  0  0  0  0  0  0  0  0  0  0
   39.7671   21.4805   37.8582 H   0  0  0  0  0  0  0  0  0  0  0  0
   41.0851   22.7979   38.0136 H   0  0  0  0  0  0  0  0  0  0  0  0
   38.8050   22.7053   39.3915 H   0  0  0  0  0  0  0  0  0  0  0  0
   39.8303   24.1678   38.9807 H   0  0  0  0  0  0  0  0  0  0  0  0
   37.2439   23.2585   37.7274 H   0  0  0  0  0  0  0  0  0  0  0  0
   37.6334   24.8182   38.5102 H   0  0  0  0  0  0  0  0  0  0  0  0
   39.4428   25.1727   36.6082 H   0  0  0  0  0  0  0  0  0  0  0  0
   38.9506   24.4585   33.1355 H   0  0  0  0  0  0  0  0  0  0  0  0
   37.6644   23.4704   31.2206 H   0  0  0  0  0  0  0  0  0  0  0  0
   36.1015   20.5078   33.8468 H   0  0  0  0  0  0  0  0  0  0  0  0
   37.0577   25.0191   35.0665 H   0  0  0  0  0  0  0  0  0  0  0  0
   36.6897   25.6157   36.7098 H   0  0  0  0  0  0  0  0  0  0  0  0
   37.9518   27.5019   36.4462 H   0  0  0  0  0  0  0  0  0  0  0  0
   39.2305   26.6032   35.5130 H   0  0  0  0  0  0  0  0  0  0  0  0
   36.0855   28.3327   35.5223 H   0  0  0  0  0  0  0  0  0  0  0  0
   35.0798   29.4026   33.5162 H   0  0  0  0  0  0  0  0  0  0  0  0
   38.0341   27.6237   31.0596 H   0  0  0  0  0  0  0  0  0  0  0  0
  1  2  1  0
  1  6  1  0
  2  3  1  0
  3  4  1  0
  5  4  1  0
  6  5  1  0
  7 12  1  0
  7  1  1  0
  8  7  2  0
  9 10  2  0
  9  8  1  0
 10 11  1  0
 11 12  2  0
 13  6  1  0
 14 13  1  0
 15 16  2  0
 15 14  1  0
 17 16  1  0
 18 17  2  0
 19 18  1  0
 19 20  2  0
 20 15  1  0
  2 21  1  0
  2 22  1  0
  3 23  1  0
  3 24  1  0
  4 25  1  0
  4 26  1  0
  5 27  1  0
  5 28  1  0
  6 29  1  1
  8 30  1  0
  9 31  1  0
 11 32  1  0
 13 33  1  0
 13 34  1  0
 14 35  1  0
 14 36  1  0
 16 37  1  0
 17 38  1  0
 19 39  1  0
M  ISO  8  21  13  22  13  23  13  24  13  25  13  26  13  27  13  28  13
M  ISO  8  29  13  30  14  31  14  32  14  33   8  34   8  35   8  36   8
M  ISO  3  37  14  38  14  39  14
M  END
>  <minimizedAffinity>  (1) 
-4.9362464

>  <minimizedRMSD>  (1) 
1.1353147

$$$$
