
     RDKit          3D

 38 40  0  0  1  0  0  0  0  0999 V2000
   38.9620   23.3940   35.6590 N   0  0  0  0  0  0  0  0  0  0  0  0
   40.1370   22.7830   36.2470 C   0  0  0  0  0  0  0  0  0  0  0  0
   40.1200   22.5410   37.6870 C   0  0  0  0  0  0  0  0  0  0  0  0
   39.2060   23.3340   38.5460 C   0  0  0  0  0  0  0  0  0  0  0  0
   38.0270   23.9190   37.8020 C   0  0  0  0  0  0  0  0  0  0  0  0
   38.5500   24.5030   36.4570 C   0  0  2  0  0  0  0  0  0  0  0  0
   38.3470   22.9220   34.4620 C   0  0  0  0  0  0  0  0  0  0  0  0
   38.5920   23.3870   33.1830 C   0  0  0  0  0  0  0  0  0  0  0  0
   37.9250   22.8410   32.1070 C   0  0  0  0  0  0  0  0  0  0  0  0
   37.0360   21.8480   32.3500 N   0  0  0  0  0  0  0  0  0  0  0  0
   36.8040   21.4040   33.5840 C   0  0  0  0  0  0  0  0  0  0  0  0
   37.4540   21.9370   34.6310 N   0  0  0  0  0  0  0  0  0  0  0  0
   37.4910   25.3560   35.8540 C   0  0  0  0  0  0  0  0  0  0  0  0
   38.0970   26.7420   35.6350 C   0  0  0  0  0  0  0  0  0  0  0  0
   37.4530   27.4460   34.5600 C   0  0  0  0  0  0  0  0  0  0  0  0
   36.3960   28.3570   34.4850 C   0  0  0  0  0  0  0  0  0  0  0  0
   36.0320   28.8420   33.2770 C   0  0  0  0  0  0  0  0  0  0  0  0
   36.7890   28.3720   32.0850 C   0  0  0  0  0  0  0  0  0  0  0  0
   38.0320   27.1950   32.9010 S   0  0  0  0  0  0  0  0  0  0  0  0
   40.2872   21.8126   35.7512 H   0  0  0  0  0  0  0  0  0  0  0  0
   40.9416   23.5175   36.0950 H   0  0  0  0  0  0  0  0  0  0  0  0
   39.8582   21.4824   37.8314 H   0  0  0  0  0  0  0  0  0  0  0  0
   41.1224   22.8531   38.0154 H   0  0  0  0  0  0  0  0  0  0  0  0
   38.8235   22.6795   39.3431 H   0  0  0  0  0  0  0  0  0  0  0  0
   39.7886   24.1795   38.9404 H   0  0  0  0  0  0  0  0  0  0  0  0
   37.2832   23.1332   37.6039 H   0  0  0  0  0  0  0  0  0  0  0  0
   37.5495   24.7079   38.4017 H   0  0  0  0  0  0  0  0  0  0  0  0
   39.4199   25.1663   36.5723 H   0  0  0  0  0  0  0  0  0  0  0  0
   39.3212   24.1950   33.0236 H   0  0  0  0  0  0  0  0  0  0  0  0
   38.1088   23.2002   31.0837 H   0  0  0  0  0  0  0  0  0  0  0  0
   36.0756   20.5959   33.7464 H   0  0  0  0  0  0  0  0  0  0  0  0
   37.1662   24.9306   34.8930 H   0  0  0  0  0  0  0  0  0  0  0  0
   36.6131   25.4136   36.5143 H   0  0  0  0  0  0  0  0  0  0  0  0
   37.9875   27.3279   36.5595 H   0  0  0  0  0  0  0  0  0  0  0  0
   39.1567   26.6122   35.3703 H   0  0  0  0  0  0  0  0  0  0  0  0
   35.8678   28.6749   35.3960 H   0  0  0  0  0  0  0  0  0  0  0  0
   35.2043   29.5598   33.1783 H   0  0  0  0  0  0  0  0  0  0  0  0
   36.6625   28.6346   31.0243 H   0  0  0  0  0  0  0  0  0  0  0  0
  1  2  1  0
  1  6  1  0
  2  3  1  0
  3  4  1  0
  5  4  1  0
  6  5  1  0
  7 12  1  0
  7  1  1  0
  8  7  2  0
  9 10  2  0
  9  8  1  0
 10 11  1  0
 11 12  2  0
 13  6  1  0
 14 13  1  0
 15 14  1  0
 16 15  2  0
 17 16  1  0
 18 19  1  0
 18 17  2  0
 19 15  1  0
  2 20  1  0
  2 21  1  0
  3 22  1  0
  3 23  1  0
  4 24  1  0
  4 25  1  0
  5 26  1  0
  5 27  1  0
  6 28  1  1
  8 29  1  0
  9 30  1  0
 11 31  1  0
 13 32  1  0
 13 33  1  0
 14 34  1  0
 14 35  1  0
 16 36  1  0
 17 37  1  0
 18 38  1  0
M  ISO  8  20  13  21  13  22  13  23  13  24  13  25  13  26  13  27  13
M  ISO  8  28  13  29  14  30  14  31  14  32   8  33   8  34   8  35   8
M  ISO  3  36  14  37  14  38  14
M  END
>  <minimizedAffinity>  (1) 
-4.79511023

>  <minimizedRMSD>  (1) 
0.825369358

$$$$
