
     RDKit          3D

 38 40  0  0  1  0  0  0  0  0999 V2000
   38.8800   23.4620   35.7220 N   0  0  0  0  0  0  0  0  0  0  0  0
   40.0540   22.8060   36.2630 C   0  0  0  0  0  0  0  0  0  0  0  0
   40.0530   22.5260   37.7160 C   0  0  0  0  0  0  0  0  0  0  0  0
   39.2100   23.3640   38.5990 C   0  0  0  0  0  0  0  0  0  0  0  0
   38.0460   24.0090   37.9000 C   0  0  0  0  0  0  0  0  0  0  0  0
   38.5420   24.5720   36.5370 C   0  0  2  0  0  0  0  0  0  0  0  0
   38.2050   23.0150   34.5470 C   0  0  0  0  0  0  0  0  0  0  0  0
   38.2930   23.6140   33.2990 C   0  0  0  0  0  0  0  0  0  0  0  0
   37.5810   23.0730   32.2380 C   0  0  0  0  0  0  0  0  0  0  0  0
   36.8220   21.9740   32.4640 N   0  0  0  0  0  0  0  0  0  0  0  0
   36.7480   21.4020   33.6880 C   0  0  0  0  0  0  0  0  0  0  0  0
   37.4390   21.9300   34.7070 N   0  0  0  0  0  0  0  0  0  0  0  0
   37.4980   25.4790   35.9830 C   0  0  0  0  0  0  0  0  0  0  0  0
   38.1390   26.8300   35.7140 C   0  0  0  0  0  0  0  0  0  0  0  0
   37.6380   27.3610   34.4190 C   0  0  0  0  0  0  0  0  0  0  0  0
   36.4970   28.1360   34.4270 C   0  0  0  0  0  0  0  0  0  0  0  0
   36.2570   28.4920   33.1070 C   0  0  0  0  0  0  0  0  0  0  0  0
   37.2350   27.9320   32.4060 N   0  0  0  0  0  0  0  0  0  0  0  0
   38.0780   27.2500   33.1460 N   0  0  0  0  0  0  0  0  0  0  0  0
   40.1693   21.8456   35.7393 H   0  0  0  0  0  0  0  0  0  0  0  0
   40.8780   23.5180   36.1081 H   0  0  0  0  0  0  0  0  0  0  0  0
   39.7228   21.4847   37.8453 H   0  0  0  0  0  0  0  0  0  0  0  0
   41.0816   22.7526   38.0334 H   0  0  0  0  0  0  0  0  0  0  0  0
   38.8193   22.7296   39.4083 H   0  0  0  0  0  0  0  0  0  0  0  0
   39.8493   24.1783   38.9706 H   0  0  0  0  0  0  0  0  0  0  0  0
   37.2560   23.2631   37.7284 H   0  0  0  0  0  0  0  0  0  0  0  0
   37.6371   24.8218   38.5183 H   0  0  0  0  0  0  0  0  0  0  0  0
   39.4466   25.1925   36.6188 H   0  0  0  0  0  0  0  0  0  0  0  0
   38.9192   24.5064   33.1523 H   0  0  0  0  0  0  0  0  0  0  0  0
   37.6317   23.5259   31.2369 H   0  0  0  0  0  0  0  0  0  0  0  0
   36.1246   20.5094   33.8453 H   0  0  0  0  0  0  0  0  0  0  0  0
   37.1010   25.0617   35.0458 H   0  0  0  0  0  0  0  0  0  0  0  0
   36.6691   25.5867   36.6981 H   0  0  0  0  0  0  0  0  0  0  0  0
   37.8785   27.5282   36.5231 H   0  0  0  0  0  0  0  0  0  0  0  0
   39.2323   26.7172   35.6684 H   0  0  0  0  0  0  0  0  0  0  0  0
   35.8965   28.4163   35.3050 H   0  0  0  0  0  0  0  0  0  0  0  0
   35.4307   29.1082   32.7230 H   0  0  0  0  0  0  0  0  0  0  0  0
   37.3237   28.0233   31.3839 H   0  0  0  0  0  0  0  0  0  0  0  0
  1  2  1  0
  1  6  1  0
  2  3  1  0
  3  4  1  0
  5  4  1  0
  6  5  1  0
  7 12  1  0
  7  1  1  0
  8  7  2  0
  9 10  2  0
  9  8  1  0
 10 11  1  0
 11 12  2  0
 13  6  1  0
 14 13  1  0
 15 16  1  0
 15 14  1  0
 17 16  2  0
 18 17  1  0
 18 19  1  0
 19 15  2  0
  2 20  1  0
  2 21  1  0
  3 22  1  0
  3 23  1  0
  4 24  1  0
  4 25  1  0
  5 26  1  0
  5 27  1  0
  6 28  1  1
  8 29  1  0
  9 30  1  0
 11 31  1  0
 13 32  1  0
 13 33  1  0
 14 34  1  0
 14 35  1  0
 16 36  1  0
 17 37  1  0
 18 38  1  0
M  ISO  8  20  13  21  13  22  13  23  13  24  13  25  13  26  13  27  13
M  ISO  8  28  13  29  14  30  14  31  14  32   8  33   8  34   8  35   8
M  ISO  3  36  14  37  14  38   9
M  END
>  <minimizedAffinity>  (1) 
-4.74457216

>  <minimizedRMSD>  (1) 
0.954924822

$$$$
