
     RDKit          3D

 32 33  0  0  0  0  0  0  0  0999 V2000
   38.1720   23.6610   37.0590 C   0  0  0  0  0  0  0  0  0  0  0  0
   41.5480   22.0140   37.2070 C   0  0  0  0  0  0  0  0  0  0  0  0
   40.2280   22.2960   37.5050 C   0  0  0  0  0  0  0  0  0  0  0  0
   39.5670   23.3100   36.7980 C   0  0  0  0  0  0  0  0  0  0  0  0
   40.2600   23.9800   35.8390 N   0  0  0  0  0  0  0  0  0  0  0  0
   41.5390   23.6920   35.5640 C   0  0  0  0  0  0  0  0  0  0  0  0
   42.1860   22.7160   36.2400 N   0  0  0  0  0  0  0  0  0  0  0  0
   38.1130   24.2890   38.4490 C   0  0  0  0  0  0  0  0  0  0  0  0
   37.5820   24.5930   36.0280 C   0  0  0  0  0  0  0  0  0  0  0  0
   37.3160   22.4240   37.0740 C   0  0  0  0  0  0  0  0  0  0  0  0
   37.0210   21.8850   35.7600 C   0  0  0  0  0  0  0  0  0  0  0  0
   35.9470   21.1160   35.4880 C   0  0  0  0  0  0  0  0  0  0  0  0
   35.6120   20.5900   34.3030 C   0  0  0  0  0  0  0  0  0  0  0  0
   36.6010   20.9710   33.2890 C   0  0  0  0  0  0  0  0  0  0  0  0
   37.8680   22.0300   34.1980 S   0  0  0  0  0  0  0  0  0  0  0  0
   36.8490   20.7630   31.8590 C   0  0  0  0  0  0  0  0  0  0  0  0
   42.0792   21.2212   37.7540 H   0  0  0  0  0  0  0  0  0  0  0  0
   39.7020   21.7308   38.2885 H   0  0  0  0  0  0  0  0  0  0  0  0
   42.0679   24.2549   34.7808 H   0  0  0  0  0  0  0  0  0  0  0  0
   38.1872   23.4996   39.2115 H   0  0  0  0  0  0  0  0  0  0  0  0
   38.9489   24.9940   38.5686 H   0  0  0  0  0  0  0  0  0  0  0  0
   37.1605   24.8260   38.5686 H   0  0  0  0  0  0  0  0  0  0  0  0
   37.0599   25.4177   36.5353 H   0  0  0  0  0  0  0  0  0  0  0  0
   38.3870   25.0006   35.3988 H   0  0  0  0  0  0  0  0  0  0  0  0
   36.8692   24.0398   35.3988 H   0  0  0  0  0  0  0  0  0  0  0  0
   37.8398   21.6499   37.6540 H   0  0  0  0  0  0  0  0  0  0  0  0
   36.3525   22.7136   37.5187 H   0  0  0  0  0  0  0  0  0  0  0  0
   35.2739   20.8974   36.3301 H   0  0  0  0  0  0  0  0  0  0  0  0
   34.7262   19.9647   34.1175 H   0  0  0  0  0  0  0  0  0  0  0  0
   37.6860   20.0610   31.7303 H   0  0  0  0  0  0  0  0  0  0  0  0
   35.9464   20.3478   31.3869 H   0  0  0  0  0  0  0  0  0  0  0  0
   37.1007   21.7241   31.3869 H   0  0  0  0  0  0  0  0  0  0  0  0
  1 10  1  0
  1  8  1  0
  2  3  2  0
  4  1  1  0
  4  3  1  0
  5  4  2  0
  6  5  1  0
  6  7  2  0
  7  2  1  0
  9  1  1  0
 11 10  1  0
 12 11  2  0
 13 12  1  0
 14 15  1  0
 14 13  2  0
 15 11  1  0
 16 14  1  0
  2 17  1  0
  3 18  1  0
  6 19  1  0
  8 20  1  0
  8 21  1  0
  8 22  1  0
  9 23  1  0
  9 24  1  0
  9 25  1  0
 10 26  1  0
 10 27  1  0
 12 28  1  0
 13 29  1  0
 16 30  1  0
 16 31  1  0
 16 32  1  0
M  ISO  8  17  14  18  14  19  14  20   8  21   8  22   8  23   8  24   8
M  ISO  8  25   8  26   8  27   8  28  14  29  14  30   8  31   8  32   8
M  END
>  <minimizedAffinity>  (1) 
-4.09089327

>  <minimizedRMSD>  (1) 
0.099319391

$$$$
