
     RDKit          3D

 38 40  0  0  1  0  0  0  0  0999 V2000
   39.0740   22.9940   35.2520 N   0  0  0  0  0  0  0  0  0  0  0  0
   40.3720   22.3630   35.3070 C   0  0  0  0  0  0  0  0  0  0  0  0
   40.8530   21.9300   36.6300 C   0  0  0  0  0  0  0  0  0  0  0  0
   40.3280   22.6160   37.8350 C   0  0  0  0  0  0  0  0  0  0  0  0
   38.9640   23.2270   37.6370 C   0  0  0  0  0  0  0  0  0  0  0  0
   38.9740   23.9750   36.2720 C   0  0  2  0  0  0  0  0  0  0  0  0
   38.0740   22.6450   34.2950 C   0  0  0  0  0  0  0  0  0  0  0  0
   37.8750   23.2480   33.0720 C   0  0  0  0  0  0  0  0  0  0  0  0
   36.8680   22.8170   32.2340 C   0  0  0  0  0  0  0  0  0  0  0  0
   36.0900   21.7820   32.6650 N   0  0  0  0  0  0  0  0  0  0  0  0
   36.2890   21.1980   33.8580 C   0  0  0  0  0  0  0  0  0  0  0  0
   37.2700   21.6340   34.6500 N   0  0  0  0  0  0  0  0  0  0  0  0
   37.7900   24.8760   36.1800 C   0  0  0  0  0  0  0  0  0  0  0  0
   38.2710   26.3060   36.1470 C   0  0  0  0  0  0  0  0  0  0  0  0
   38.2010   26.9800   34.8300 C   0  0  0  0  0  0  0  0  0  0  0  0
   36.9820   27.9380   34.7300 C   0  0  0  0  0  0  0  0  0  0  0  0
   37.1690   26.7590   33.8210 C   0  0  0  0  0  0  0  0  0  0  0  0
   40.3356   21.4738   34.6605 H   0  0  0  0  0  0  0  0  0  0  0  0
   41.0803   23.1419   34.9881 H   0  0  0  0  0  0  0  0  0  0  0  0
   40.6068   20.8627   36.7313 H   0  0  0  0  0  0  0  0  0  0  0  0
   41.9235   22.1828   36.6223 H   0  0  0  0  0  0  0  0  0  0  0  0
   40.2650   21.8828   38.6526 H   0  0  0  0  0  0  0  0  0  0  0  0
   41.0199   23.4400   38.0636 H   0  0  0  0  0  0  0  0  0  0  0  0
   38.1979   22.4377   37.6260 H   0  0  0  0  0  0  0  0  0  0  0  0
   38.7312   23.9233   38.4561 H   0  0  0  0  0  0  0  0  0  0  0  0
   39.8378   24.6465   36.1581 H   0  0  0  0  0  0  0  0  0  0  0  0
   38.5245   24.0798   32.7616 H   0  0  0  0  0  0  0  0  0  0  0  0
   36.6984   23.2896   31.2553 H   0  0  0  0  0  0  0  0  0  0  0  0
   35.6468   20.3650   34.1802 H   0  0  0  0  0  0  0  0  0  0  0  0
   37.2264   24.6539   35.2619 H   0  0  0  0  0  0  0  0  0  0  0  0
   37.1334   24.7216   37.0489 H   0  0  0  0  0  0  0  0  0  0  0  0
   37.6590   26.8842   36.8549 H   0  0  0  0  0  0  0  0  0  0  0  0
   39.3393   26.2676   36.4062 H   0  0  0  0  0  0  0  0  0  0  0  0
   39.2963   26.9723   34.7285 H   0  0  0  0  0  0  0  0  0  0  0  0
   36.1996   27.9278   35.5031 H   0  0  0  0  0  0  0  0  0  0  0  0
   36.8302   29.0204   34.6063 H   0  0  0  0  0  0  0  0  0  0  0  0
   36.4981   25.8923   33.9146 H   0  0  0  0  0  0  0  0  0  0  0  0
   37.1910   26.6409   32.7276 H   0  0  0  0  0  0  0  0  0  0  0  0
  1  2  1  0
  1  6  1  0
  2  3  1  0
  3  4  1  0
  5  4  1  0
  6  5  1  0
  7 12  1  0
  7  1  1  0
  8  7  2  0
  9 10  2  0
  9  8  1  0
 10 11  1  0
 11 12  2  0
 13  6  1  0
 14 13  1  0
 15 14  1  0
 16 15  1  0
 17 16  1  0
 17 15  1  0
  2 18  1  0
  2 19  1  0
  3 20  1  0
  3 21  1  0
  4 22  1  0
  4 23  1  0
  5 24  1  0
  5 25  1  0
  6 26  1  1
  8 27  1  0
  9 28  1  0
 11 29  1  0
 13 30  1  0
 13 31  1  0
 14 32  1  0
 14 33  1  0
 15 34  1  0
 16 35  1  0
 16 36  1  0
 17 37  1  0
 17 38  1  0
M  ISO  8  18  13  19  13  20  13  21  13  22  13  23  13  24  13  25  13
M  ISO  8  26  13  27  14  28  14  29  14  30   8  31   8  32   8  33   8
M  ISO  5  34  13  35  13  36  13  37  13  38  13
M  END
>  <minimizedAffinity>  (1) 
-4.41847944

>  <minimizedRMSD>  (1) 
1.0977819

$$$$
