
     RDKit          3D

 38 39  0  0  1  0  0  0  0  0999 V2000
   38.9310   23.4680   35.6330 N   0  0  0  0  0  0  0  0  0  0  0  0
   40.0550   22.7210   36.1520 C   0  0  0  0  0  0  0  0  0  0  0  0
   40.0470   22.3950   37.5890 C   0  0  0  0  0  0  0  0  0  0  0  0
   39.2920   23.2880   38.5070 C   0  0  0  0  0  0  0  0  0  0  0  0
   38.1410   23.9990   37.8330 C   0  0  0  0  0  0  0  0  0  0  0  0
   38.6680   24.5740   36.4910 C   0  0  2  0  0  0  0  0  0  0  0  0
   38.2380   23.1130   34.4550 C   0  0  0  0  0  0  0  0  0  0  0  0
   38.2650   23.8170   33.2540 C   0  0  0  0  0  0  0  0  0  0  0  0
   37.5290   23.3570   32.1690 C   0  0  0  0  0  0  0  0  0  0  0  0
   36.8110   22.2330   32.3260 N   0  0  0  0  0  0  0  0  0  0  0  0
   36.7870   21.5580   33.4810 C   0  0  0  0  0  0  0  0  0  0  0  0
   37.4980   22.0080   34.5230 N   0  0  0  0  0  0  0  0  0  0  0  0
   37.6840   25.5850   35.9660 C   0  0  0  0  0  0  0  0  0  0  0  0
   38.4320   26.8650   35.7080 C   0  0  0  0  0  0  0  0  0  0  0  0
   37.5280   27.9710   35.5380 N   0  0  0  0  0  0  0  0  0  0  0  0
   36.7290   28.1950   34.3860 C   0  0  0  0  0  0  0  0  0  0  0  0
   37.0070   27.5480   33.3120 N   0  0  0  0  0  0  0  0  0  0  0  0
   35.6630   29.1200   34.4670 N   0  0  0  0  0  0  0  0  0  0  0  0
   37.7890   26.8830   33.2830 H   0  0  0  0  0  0  0  0  0  0  0  0
   40.1041   21.7716   35.5985 H   0  0  0  0  0  0  0  0  0  0  0  0
   40.9206   23.3867   36.0193 H   0  0  0  0  0  0  0  0  0  0  0  0
   39.6216   21.3859   37.6923 H   0  0  0  0  0  0  0  0  0  0  0  0
   41.0960   22.5076   37.9002 H   0  0  0  0  0  0  0  0  0  0  0  0
   38.8928   22.6824   39.3339 H   0  0  0  0  0  0  0  0  0  0  0  0
   39.9913   24.0601   38.8604 H   0  0  0  0  0  0  0  0  0  0  0  0
   37.3220   23.2900   37.6418 H   0  0  0  0  0  0  0  0  0  0  0  0
   37.7551   24.8050   38.4744 H   0  0  0  0  0  0  0  0  0  0  0  0
   39.6122   25.1291   36.5921 H   0  0  0  0  0  0  0  0  0  0  0  0
   38.8666   24.7336   33.1645 H   0  0  0  0  0  0  0  0  0  0  0  0
   37.5343   23.8970   31.2107 H   0  0  0  0  0  0  0  0  0  0  0  0
   36.1878   20.6403   33.5741 H   0  0  0  0  0  0  0  0  0  0  0  0
   37.2349   25.2192   35.0309 H   0  0  0  0  0  0  0  0  0  0  0  0
   36.8783   25.7516   36.6961 H   0  0  0  0  0  0  0  0  0  0  0  0
   39.0949   27.0714   36.5612 H   0  0  0  0  0  0  0  0  0  0  0  0
   39.0155   26.7469   34.7830 H   0  0  0  0  0  0  0  0  0  0  0  0
   37.4550   28.6504   36.3087 H   0  0  0  0  0  0  0  0  0  0  0  0
   35.0712   29.2972   33.6428 H   0  0  0  0  0  0  0  0  0  0  0  0
   35.4782   29.6167   35.3502 H   0  0  0  0  0  0  0  0  0  0  0  0
  1  2  1  0
  1  6  1  0
  2  3  1  0
  3  4  1  0
  5  4  1  0
  6  5  1  0
  7 12  1  0
  7  1  1  0
  8  7  2  0
  9 10  2  0
  9  8  1  0
 10 11  1  0
 11 12  2  0
 13  6  1  0
 14 13  1  0
 15 14  1  0
 16 18  1  0
 16 15  1  0
 17 16  2  0
 19 17  1  0
  2 20  1  0
  2 21  1  0
  3 22  1  0
  3 23  1  0
  4 24  1  0
  4 25  1  0
  5 26  1  0
  5 27  1  0
  6 28  1  1
  8 29  1  0
  9 30  1  0
 11 31  1  0
 13 32  1  0
 13 33  1  0
 14 34  1  0
 14 35  1  0
 15 36  1  0
 18 37  1  0
 18 38  1  0
M  ISO  8  20  13  21  13  22  13  23  13  24  13  25  13  26  13  27  13
M  ISO  8  28  13  29  14  30  14  31  14  32   8  33   8  34   8  35   8
M  END
>  <minimizedAffinity>  (1) 
-4.39356709

>  <minimizedRMSD>  (1) 
0.57203877

$$$$
