
     RDKit          3D

 38 40  0  0  1  0  0  0  0  0999 V2000
   38.8460   23.4820   35.7300 N   0  0  0  0  0  0  0  0  0  0  0  0
   40.0250   22.8180   36.2490 C   0  0  0  0  0  0  0  0  0  0  0  0
   40.0550   22.5270   37.6920 C   0  0  0  0  0  0  0  0  0  0  0  0
   39.2270   23.3530   38.6050 C   0  0  0  0  0  0  0  0  0  0  0  0
   38.0400   23.9940   37.9320 C   0  0  0  0  0  0  0  0  0  0  0  0
   38.5170   24.5760   36.5690 C   0  0  2  0  0  0  0  0  0  0  0  0
   38.1630   23.0570   34.5520 C   0  0  0  0  0  0  0  0  0  0  0  0
   38.1780   23.7040   33.3340 C   0  0  0  0  0  0  0  0  0  0  0  0
   37.4700   23.1880   32.2710 C   0  0  0  0  0  0  0  0  0  0  0  0
   36.7730   22.0440   32.4640 N   0  0  0  0  0  0  0  0  0  0  0  0
   36.7580   21.4100   33.6600 C   0  0  0  0  0  0  0  0  0  0  0  0
   37.4560   21.9280   34.6890 N   0  0  0  0  0  0  0  0  0  0  0  0
   37.4580   25.4890   36.0440 C   0  0  0  0  0  0  0  0  0  0  0  0
   38.1130   26.8150   35.6820 C   0  0  0  0  0  0  0  0  0  0  0  0
   37.5330   27.4190   34.4680 C   0  0  0  0  0  0  0  0  0  0  0  0
   36.4140   28.2310   34.3890 C   0  0  0  0  0  0  0  0  0  0  0  0
   36.3210   28.5060   33.0390 C   0  0  0  0  0  0  0  0  0  0  0  0
   37.3430   27.8820   32.3530 C   0  0  0  0  0  0  0  0  0  0  0  0
   38.0230   27.2550   33.2610 O   0  0  0  0  0  0  0  0  0  0  0  0
   40.1267   21.8608   35.7166 H   0  0  0  0  0  0  0  0  0  0  0  0
   40.8459   23.5322   36.0874 H   0  0  0  0  0  0  0  0  0  0  0  0
   39.7320   21.4831   37.8181 H   0  0  0  0  0  0  0  0  0  0  0  0
   41.0888   22.7578   37.9885 H   0  0  0  0  0  0  0  0  0  0  0  0
   38.8598   22.7099   39.4184 H   0  0  0  0  0  0  0  0  0  0  0  0
   39.8680   24.1682   38.9719 H   0  0  0  0  0  0  0  0  0  0  0  0
   37.2554   23.2418   37.7628 H   0  0  0  0  0  0  0  0  0  0  0  0
   37.6266   24.7928   38.5653 H   0  0  0  0  0  0  0  0  0  0  0  0
   39.4234   25.1943   36.6477 H   0  0  0  0  0  0  0  0  0  0  0  0
   38.7554   24.6322   33.2115 H   0  0  0  0  0  0  0  0  0  0  0  0
   37.4711   23.6915   31.2930 H   0  0  0  0  0  0  0  0  0  0  0  0
   36.1821   20.4819   33.7901 H   0  0  0  0  0  0  0  0  0  0  0  0
   36.9936   25.0464   35.1504 H   0  0  0  0  0  0  0  0  0  0  0  0
   36.6780   25.6443   36.8039 H   0  0  0  0  0  0  0  0  0  0  0  0
   37.9815   27.5140   36.5211 H   0  0  0  0  0  0  0  0  0  0  0  0
   39.1767   26.6186   35.4819 H   0  0  0  0  0  0  0  0  0  0  0  0
   35.7587   28.5735   35.2034 H   0  0  0  0  0  0  0  0  0  0  0  0
   35.5439   29.1325   32.5768 H   0  0  0  0  0  0  0  0  0  0  0  0
   37.5381   27.9105   31.2708 H   0  0  0  0  0  0  0  0  0  0  0  0
  1  2  1  0
  1  6  1  0
  2  3  1  0
  3  4  1  0
  5  4  1  0
  6  5  1  0
  7 12  1  0
  7  1  1  0
  8  7  2  0
  9 10  2  0
  9  8  1  0
 10 11  1  0
 11 12  2  0
 13  6  1  0
 14 13  1  0
 15 14  1  0
 16 15  2  0
 17 16  1  0
 18 17  2  0
 18 19  1  0
 19 15  1  0
  2 20  1  0
  2 21  1  0
  3 22  1  0
  3 23  1  0
  4 24  1  0
  4 25  1  0
  5 26  1  0
  5 27  1  0
  6 28  1  1
  8 29  1  0
  9 30  1  0
 11 31  1  0
 13 32  1  0
 13 33  1  0
 14 34  1  0
 14 35  1  0
 16 36  1  0
 17 37  1  0
 18 38  1  0
M  ISO  8  20  13  21  13  22  13  23  13  24  13  25  13  26  13  27  13
M  ISO  8  28  13  29  14  30  14  31  14  32   8  33   8  34   8  35   8
M  ISO  3  36  14  37  14  38  14
M  END
>  <minimizedAffinity>  (1) 
-4.81432199

>  <minimizedRMSD>  (1) 
0.888611436

$$$$
