
     RDKit          3D

 52 56  0  0  1  0  0  0  0  0999 V2000
   39.0330   23.2700   35.3110 N   0  0  0  0  0  0  0  0  0  0  0  0
   40.2810   22.5550   35.4940 C   0  0  0  0  0  0  0  0  0  0  0  0
   40.5850   22.0980   36.8700 C   0  0  0  0  0  0  0  0  0  0  0  0
   39.9730   22.8150   38.0110 C   0  0  0  0  0  0  0  0  0  0  0  0
   38.6710   23.4940   37.6670 C   0  0  0  0  0  0  0  0  0  0  0  0
   38.8860   24.2490   36.3200 C   0  0  2  0  0  0  0  0  0  0  0  0
   38.1330   22.9790   34.2490 C   0  0  0  0  0  0  0  0  0  0  0  0
   37.9340   23.7320   33.1130 C   0  0  0  0  0  0  0  0  0  0  0  0
   37.0310   23.3450   32.1530 C   0  0  0  0  0  0  0  0  0  0  0  0
   36.3430   22.1990   32.3580 N   0  0  0  0  0  0  0  0  0  0  0  0
   36.5280   21.4500   33.4660 C   0  0  0  0  0  0  0  0  0  0  0  0
   37.4180   21.8450   34.3980 N   0  0  0  0  0  0  0  0  0  0  0  0
   37.7540   25.2010   36.1190 C   0  0  0  0  0  0  0  0  0  0  0  0
   38.3140   26.5750   35.8240 C   0  0  0  0  0  0  0  0  0  0  0  0
   37.6940   27.2190   34.6530 C   0  0  0  0  0  0  0  0  0  0  0  0
   36.5760   28.0340   34.6440 C   0  0  0  0  0  0  0  0  0  0  0  0
   36.4360   28.3550   33.3140 C   0  0  0  0  0  0  0  0  0  0  0  0
   37.4340   27.7530   32.5700 C   0  0  0  0  0  0  0  0  0  0  0  0
   38.1560   27.0870   33.4200 O   0  0  0  0  0  0  0  0  0  0  0  0
   37.5590   27.9010   31.1230 C   0  0  0  0  0  0  0  0  0  0  0  0
   36.5580   28.0990   30.1930 C   0  0  0  0  0  0  0  0  0  0  0  0
   37.0760   28.1870   28.9530 N   0  0  0  0  0  0  0  0  0  0  0  0
   38.4080   28.0470   29.0830 C   0  0  0  0  0  0  0  0  0  0  0  0
   39.3930   28.0600   28.1180 C   0  0  0  0  0  0  0  0  0  0  0  0
   40.7510   27.8990   28.4100 C   0  0  0  0  0  0  0  0  0  0  0  0
   41.0710   27.7180   29.7590 C   0  0  0  0  0  0  0  0  0  0  0  0
   40.0850   27.7050   30.7380 C   0  0  0  0  0  0  0  0  0  0  0  0
   38.7570   27.8680   30.4050 C   0  0  0  0  0  0  0  0  0  0  0  0
   40.2560   21.6673   34.8448 H   0  0  0  0  0  0  0  0  0  0  0  0
   41.0708   23.2796   35.2466 H   0  0  0  0  0  0  0  0  0  0  0  0
   40.2660   21.0476   36.9397 H   0  0  0  0  0  0  0  0  0  0  0  0
   41.6623   22.2901   36.9821 H   0  0  0  0  0  0  0  0  0  0  0  0
   39.7854   22.0905   38.8171 H   0  0  0  0  0  0  0  0  0  0  0  0
   40.6784   23.6029   38.3137 H   0  0  0  0  0  0  0  0  0  0  0  0
   37.8732   22.7449   37.5559 H   0  0  0  0  0  0  0  0  0  0  0  0
   38.3730   24.1926   38.4627 H   0  0  0  0  0  0  0  0  0  0  0  0
   39.7953   24.8677   36.3022 H   0  0  0  0  0  0  0  0  0  0  0  0
   38.5083   24.6595   32.9721 H   0  0  0  0  0  0  0  0  0  0  0  0
   36.8726   23.9479   31.2467 H   0  0  0  0  0  0  0  0  0  0  0  0
   35.9550   20.5217   33.6075 H   0  0  0  0  0  0  0  0  0  0  0  0
   37.1353   24.8654   35.2737 H   0  0  0  0  0  0  0  0  0  0  0  0
   37.1340   25.2389   37.0268 H   0  0  0  0  0  0  0  0  0  0  0  0
   38.1483   27.2154   36.7029 H   0  0  0  0  0  0  0  0  0  0  0  0
   39.3831   26.4489   35.5979 H   0  0  0  0  0  0  0  0  0  0  0  0
   35.9516   28.3485   35.4932 H   0  0  0  0  0  0  0  0  0  0  0  0
   35.6444   28.9979   32.9016 H   0  0  0  0  0  0  0  0  0  0  0  0
   35.4868   28.1744   30.4316 H   0  0  0  0  0  0  0  0  0  0  0  0
   36.5547   28.3329   28.0767 H   0  0  0  0  0  0  0  0  0  0  0  0
   39.0963   28.2039   27.0686 H   0  0  0  0  0  0  0  0  0  0  0  0
   41.5216   27.9139   27.6252 H   0  0  0  0  0  0  0  0  0  0  0  0
   42.1230   27.5834   30.0508 H   0  0  0  0  0  0  0  0  0  0  0  0
   40.3674   27.5629   31.7916 H   0  0  0  0  0  0  0  0  0  0  0  0
  1  2  1  0
  1  6  1  0
  2  3  1  0
  3  4  1  0
  5  4  1  0
  6  5  1  0
  7 12  1  0
  7  1  1  0
  8  7  2  0
  9 10  2  0
  9  8  1  0
 10 11  1  0
 11 12  2  0
 13  6  1  0
 14 13  1  0
 15 14  1  0
 16 15  2  0
 17 16  1  0
 18 17  2  0
 18 19  1  0
 19 15  1  0
 20 18  1  0
 21 20  2  0
 22 23  1  0
 22 21  1  0
 23 28  2  0
 24 25  2  0
 24 23  1  0
 25 26  1  0
 26 27  2  0
 28 27  1  0
 28 20  1  0
  2 29  1  0
  2 30  1  0
  3 31  1  0
  3 32  1  0
  4 33  1  0
  4 34  1  0
  5 35  1  0
  5 36  1  0
  6 37  1  1
  8 38  1  0
  9 39  1  0
 11 40  1  0
 13 41  1  0
 13 42  1  0
 14 43  1  0
 14 44  1  0
 16 45  1  0
 17 46  1  0
 21 47  1  0
 22 48  1  0
 24 49  1  0
 25 50  1  0
 26 51  1  0
 27 52  1  0
M  ISO  8  29  13  30  13  31  13  32  13  33  13  34  13  35  13  36  13
M  ISO  8  37  13  38  14  39  14  40  14  41   8  42   8  43   8  44   8
M  ISO  8  45  14  46  14  47  14  48   9  49  14  50  14  51  14  52  14
M  END
>  <minimizedAffinity>  (1) 
-6.33134317

>  <minimizedRMSD>  (1) 
0.537368536

$$$$
