
     RDKit          3D

 52 56  0  0  1  0  0  0  0  0999 V2000
   37.8960   24.8490   36.3780 C   0  0  0  0  0  0  0  0  0  0  0  0
   39.2350   23.1650   35.1990 N   0  0  0  0  0  0  0  0  0  0  0  0
   40.5500   22.5600   35.1540 C   0  0  0  0  0  0  0  0  0  0  0  0
   41.0550   21.9810   36.4220 C   0  0  0  0  0  0  0  0  0  0  0  0
   40.5140   22.4750   37.7060 C   0  0  0  0  0  0  0  0  0  0  0  0
   39.1290   23.0760   37.5880 C   0  0  0  0  0  0  0  0  0  0  0  0
   39.1240   24.0030   36.3320 C   0  0  2  0  0  0  0  0  0  0  0  0
   38.2470   22.9080   34.2090 C   0  0  0  0  0  0  0  0  0  0  0  0
   37.9810   23.6860   33.0940 C   0  0  0  0  0  0  0  0  0  0  0  0
   36.9940   23.3270   32.2090 C   0  0  0  0  0  0  0  0  0  0  0  0
   36.2960   22.1970   32.4580 N   0  0  0  0  0  0  0  0  0  0  0  0
   36.5450   21.4330   33.5380 C   0  0  0  0  0  0  0  0  0  0  0  0
   37.5130   21.7950   34.3970 N   0  0  0  0  0  0  0  0  0  0  0  0
   38.3060   26.3030   36.1930 C   0  0  0  0  0  0  0  0  0  0  0  0
   37.8330   26.8690   34.9210 C   0  0  0  0  0  0  0  0  0  0  0  0
   36.5660   27.3830   34.6690 C   0  0  0  0  0  0  0  0  0  0  0  0
   36.6430   27.7760   33.3430 C   0  0  0  0  0  0  0  0  0  0  0  0
   37.9060   27.4990   32.8540 C   0  0  0  0  0  0  0  0  0  0  0  0
   38.5500   26.9680   33.8350 O   0  0  0  0  0  0  0  0  0  0  0  0
   38.2360   27.8110   31.5090 N   0  0  0  0  0  0  0  0  0  0  0  0
   39.1690   27.1050   30.8130 C   0  0  0  0  0  0  0  0  0  0  0  0
   39.2480   27.6510   29.5690 N   0  0  0  0  0  0  0  0  0  0  0  0
   38.3800   28.6690   29.5130 C   0  0  0  0  0  0  0  0  0  0  0  0
   38.0260   29.5800   28.5200 C   0  0  0  0  0  0  0  0  0  0  0  0
   38.5710   29.5420   27.3840 O   0  0  0  0  0  0  0  0  0  0  0  0
   37.0850   30.4890   28.8380 N   0  0  0  0  0  0  0  0  0  0  0  0
   36.4700   30.5780   30.0310 C   0  0  0  0  0  0  0  0  0  0  0  0
   35.4780   31.5700   30.3020 N   0  0  0  0  0  0  0  0  0  0  0  0
   36.8180   29.6850   31.0010 N   0  0  0  0  0  0  0  0  0  0  0  0
   37.7400   28.7740   30.7310 C   0  0  0  0  0  0  0  0  0  0  0  0
   37.2095   24.5513   35.5717 H   0  0  0  0  0  0  0  0  0  0  0  0
   37.3851   24.7207   37.3437 H   0  0  0  0  0  0  0  0  0  0  0  0
   40.5216   21.7537   34.4063 H   0  0  0  0  0  0  0  0  0  0  0  0
   41.2407   23.3817   34.9135 H   0  0  0  0  0  0  0  0  0  0  0  0
   40.8553   20.9000   36.3837 H   0  0  0  0  0  0  0  0  0  0  0  0
   42.1110   22.2879   36.4476 H   0  0  0  0  0  0  0  0  0  0  0  0
   40.4687   21.6324   38.4117 H   0  0  0  0  0  0  0  0  0  0  0  0
   41.1848   23.2749   38.0528 H   0  0  0  0  0  0  0  0  0  0  0  0
   38.3822   22.2773   37.4680 H   0  0  0  0  0  0  0  0  0  0  0  0
   38.8773   23.6488   38.4927 H   0  0  0  0  0  0  0  0  0  0  0  0
   39.9675   24.7080   36.2934 H   0  0  0  0  0  0  0  0  0  0  0  0
   38.5661   24.6003   32.9157 H   0  0  0  0  0  0  0  0  0  0  0  0
   36.7778   23.9417   31.3228 H   0  0  0  0  0  0  0  0  0  0  0  0
   35.9601   20.5186   33.7162 H   0  0  0  0  0  0  0  0  0  0  0  0
   37.8857   26.8949   37.0194 H   0  0  0  0  0  0  0  0  0  0  0  0
   39.4054   26.3395   36.1842 H   0  0  0  0  0  0  0  0  0  0  0  0
   35.7102   27.4591   35.3559 H   0  0  0  0  0  0  0  0  0  0  0  0
   35.8261   28.2369   32.7684 H   0  0  0  0  0  0  0  0  0  0  0  0
   39.7518   26.2504   31.1873 H   0  0  0  0  0  0  0  0  0  0  0  0
   36.8154   31.1683   28.1122 H   0  0  0  0  0  0  0  0  0  0  0  0
   35.0276   31.6086   31.2275 H   0  0  0  0  0  0  0  0  0  0  0  0
   35.2133   32.2465   29.5718 H   0  0  0  0  0  0  0  0  0  0  0  0
  2  7  1  0
  3  2  1  0
  3  4  1  0
  4  5  1  0
  6  5  1  0
  7  1  1  0
  7  6  1  0
  8 13  1  0
  8  2  1  0
  9  8  2  0
 10 11  2  0
 10  9  1  0
 11 12  1  0
 12 13  2  0
 14  1  1  0
 15 14  1  0
 16 15  2  0
 17 16  1  0
 18 17  2  0
 18 19  1  0
 19 15  1  0
 20 18  1  0
 21 20  1  0
 22 21  2  0
 23 22  1  0
 23 30  2  0
 24 26  1  0
 24 23  1  0
 25 24  2  0
 26 27  1  0
 27 28  1  0
 27 29  2  0
 30 29  1  0
 30 20  1  0
  1 31  1  0
  1 32  1  0
  3 33  1  0
  3 34  1  0
  4 35  1  0
  4 36  1  0
  5 37  1  0
  5 38  1  0
  6 39  1  0
  6 40  1  0
  7 41  1  1
  9 42  1  0
 10 43  1  0
 12 44  1  0
 14 45  1  0
 14 46  1  0
 16 47  1  0
 17 48  1  0
 21 49  1  0
 26 50  1  0
 28 51  1  0
 28 52  1  0
M  ISO  8  31   8  32   8  33  13  34  13  35  13  36  13  37  13  38  13
M  ISO  8  39  13  40  13  41  13  42  14  43  14  44  14  45   8  46   8
M  ISO  4  47  14  48  14  49  14  50   9
M  END
>  <minimizedAffinity>  (1) 
-6.15821075

>  <minimizedRMSD>  (1) 
1.09183931

$$$$
