
     RDKit          3D

 50 53  0  0  1  0  0  0  0  0999 V2000
   38.8720   22.4900   35.5980 N   0  0  0  0  0  0  0  0  0  0  0  0
   40.1920   21.9050   35.4710 C   0  0  0  0  0  0  0  0  0  0  0  0
   40.9730   21.7770   36.7220 C   0  0  0  0  0  0  0  0  0  0  0  0
   40.6680   22.6670   37.8610 C   0  0  0  0  0  0  0  0  0  0  0  0
   39.2500   23.1770   37.8580 C   0  0  0  0  0  0  0  0  0  0  0  0
   38.9260   23.6530   36.4060 C   0  0  2  0  0  0  0  0  0  0  0  0
   37.7230   21.9220   34.9720 C   0  0  0  0  0  0  0  0  0  0  0  0
   37.4770   21.8670   33.6160 C   0  0  0  0  0  0  0  0  0  0  0  0
   36.3250   21.2880   33.1390 C   0  0  0  0  0  0  0  0  0  0  0  0
   35.4480   20.7790   34.0360 N   0  0  0  0  0  0  0  0  0  0  0  0
   35.6810   20.8280   35.3670 C   0  0  0  0  0  0  0  0  0  0  0  0
   36.8140   21.3990   35.8180 N   0  0  0  0  0  0  0  0  0  0  0  0
   37.6740   24.4590   36.4440 C   0  0  0  0  0  0  0  0  0  0  0  0
   38.0490   25.9300   36.3490 C   0  0  0  0  0  0  0  0  0  0  0  0
   37.6450   26.5420   35.0770 C   0  0  0  0  0  0  0  0  0  0  0  0
   37.0240   27.7760   34.8990 C   0  0  0  0  0  0  0  0  0  0  0  0
   36.8740   27.8520   33.5270 C   0  0  0  0  0  0  0  0  0  0  0  0
   37.3760   26.7290   32.9190 C   0  0  0  0  0  0  0  0  0  0  0  0
   37.8160   25.9980   33.9090 O   0  0  0  0  0  0  0  0  0  0  0  0
   37.3820   26.4720   31.4450 C   0  0  2  0  0  0  0  0  0  0  0  0
   36.0700   26.7230   30.7810 C   0  0  0  0  0  0  0  0  0  0  0  0
   35.1060   25.6610   31.1860 C   0  0  0  0  0  0  0  0  0  0  0  0
   35.5780   24.2660   31.0420 C   0  0  0  0  0  0  0  0  0  0  0  0
   37.0250   24.0770   30.7320 C   0  0  0  0  0  0  0  0  0  0  0  0
   37.9530   25.1690   31.0780 C   0  0  0  0  0  0  0  0  0  0  0  0
   40.0732   20.8979   35.0449 H   0  0  0  0  0  0  0  0  0  0  0  0
   40.7625   22.6001   34.8375 H   0  0  0  0  0  0  0  0  0  0  0  0
   40.8414   20.7445   37.0778 H   0  0  0  0  0  0  0  0  0  0  0  0
   41.9896   22.0744   36.4251 H   0  0  0  0  0  0  0  0  0  0  0  0
   40.8362   22.1094   38.7942 H   0  0  0  0  0  0  0  0  0  0  0  0
   41.3285   23.5424   37.7754 H   0  0  0  0  0  0  0  0  0  0  0  0
   38.5606   22.3719   38.1520 H   0  0  0  0  0  0  0  0  0  0  0  0
   39.1344   24.0054   38.5724 H   0  0  0  0  0  0  0  0  0  0  0  0
   39.6875   24.3159   35.9693 H   0  0  0  0  0  0  0  0  0  0  0  0
   38.2080   22.2896   32.9110 H   0  0  0  0  0  0  0  0  0  0  0  0
   36.1216   21.2396   32.0591 H   0  0  0  0  0  0  0  0  0  0  0  0
   34.9522   20.4056   36.0744 H   0  0  0  0  0  0  0  0  0  0  0  0
   37.0290   24.1842   35.5963 H   0  0  0  0  0  0  0  0  0  0  0  0
   37.1283   24.2670   37.3796 H   0  0  0  0  0  0  0  0  0  0  0  0
   37.5572   26.4713   37.1707 H   0  0  0  0  0  0  0  0  0  0  0  0
   39.1451   25.9959   36.4134 H   0  0  0  0  0  0  0  0  0  0  0  0
   36.7262   28.5097   35.6625 H   0  0  0  0  0  0  0  0  0  0  0  0
   36.4145   28.6980   32.9948 H   0  0  0  0  0  0  0  0  0  0  0  0
   38.0688   27.2310   31.0422 H   0  0  0  0  0  0  0  0  0  0  0  0
   36.2006   26.7046   29.6889 H   0  0  0  0  0  0  0  0  0  0  0  0
   35.6844   27.7077   31.0837 H   0  0  0  0  0  0  0  0  0  0  0  0
   34.1030   25.9000   31.5693 H   0  0  0  0  0  0  0  0  0  0  0  0
   34.8959   23.4108   31.1578 H   0  0  0  0  0  0  0  0  0  0  0  0
   37.3880   23.1520   30.2601 H   0  0  0  0  0  0  0  0  0  0  0  0
   39.0417   25.0127   31.0619 H   0  0  0  0  0  0  0  0  0  0  0  0
  1  6  1  0
  2  1  1  0
  2  3  1  0
  3  4  1  0
  5  4  1  0
  6 13  1  0
  6  5  1  0
  7  1  1  0
  7 12  1  0
  8  7  2  0
  9  8  1  0
  9 10  2  0
 10 11  1  0
 11 12  2  0
 14 13  1  0
 15 14  1  0
 16 15  2  0
 17 16  1  0
 18 17  2  0
 18 19  1  0
 19 15  1  0
 20 18  1  0
 21 22  1  0
 21 20  1  0
 23 22  2  0
 24 23  1  0
 24 25  2  0
 25 20  1  0
  2 26  1  0
  2 27  1  0
  3 28  1  0
  3 29  1  0
  4 30  1  0
  4 31  1  0
  5 32  1  0
  5 33  1  0
  6 34  1  6
  8 35  1  0
  9 36  1  0
 11 37  1  0
 13 38  1  0
 13 39  1  0
 14 40  1  0
 14 41  1  0
 16 42  1  0
 17 43  1  0
 20 44  1  6
 21 45  1  0
 21 46  1  0
 22 47  1  0
 23 48  1  0
 24 49  1  0
 25 50  1  0
M  ISO  8  26  13  27  13  28  13  29  13  30  13  31  13  32  13  33  13
M  ISO  8  34  13  35  14  36  14  37  14  38   8  39   8  40   8  41   8
M  ISO  8  42  14  43  14  44  13  45  13  46  13  47  13  48  13  49  13
M  ISO  1  50  13
M  END
>  <minimizedAffinity>  (1) 
-6.06322956

>  <minimizedRMSD>  (1) 
1.78861451

$$$$
