
     RDKit          3D

 47 50  0  0  1  0  0  0  0  0999 V2000
   38.8660   23.5140   35.6850 N   0  0  0  0  0  0  0  0  0  0  0  0
   40.0400   22.8200   36.1650 C   0  0  0  0  0  0  0  0  0  0  0  0
   40.0660   22.4820   37.6050 C   0  0  0  0  0  0  0  0  0  0  0  0
   39.2510   23.2940   38.5430 C   0  0  0  0  0  0  0  0  0  0  0  0
   38.0600   23.9520   37.9010 C   0  0  0  0  0  0  0  0  0  0  0  0
   38.5410   24.5760   36.5510 C   0  0  2  0  0  0  0  0  0  0  0  0
   38.1750   23.1290   34.4960 C   0  0  0  0  0  0  0  0  0  0  0  0
   38.1550   23.8160   33.3060 C   0  0  0  0  0  0  0  0  0  0  0  0
   37.4480   23.3400   32.2240 C   0  0  0  0  0  0  0  0  0  0  0  0
   36.7740   22.1660   32.3810 N   0  0  0  0  0  0  0  0  0  0  0  0
   36.7890   21.4860   33.5440 C   0  0  0  0  0  0  0  0  0  0  0  0
   37.4860   21.9750   34.5800 N   0  0  0  0  0  0  0  0  0  0  0  0
   37.4820   25.5120   36.0650 C   0  0  0  0  0  0  0  0  0  0  0  0
   38.1240   26.8330   35.6920 C   0  0  0  0  0  0  0  0  0  0  0  0
   37.5810   27.4240   34.4680 C   0  0  0  0  0  0  0  0  0  0  0  0
   36.4010   28.1150   34.3260 C   0  0  0  0  0  0  0  0  0  0  0  0
   36.3750   28.4460   32.9830 C   0  0  0  0  0  0  0  0  0  0  0  0
   37.4980   27.9670   32.3620 C   0  0  0  0  0  0  0  0  0  0  0  0
   38.1650   27.3730   33.3050 O   0  0  0  0  0  0  0  0  0  0  0  0
   37.9320   28.0520   30.9690 C   0  0  0  0  0  0  0  0  0  0  0  0
   37.1550   28.8060   30.1070 C   0  0  0  0  0  0  0  0  0  0  0  0
   37.5770   28.8830   28.7790 C   0  0  0  0  0  0  0  0  0  0  0  0
   38.7280   28.2070   28.4290 C   0  0  0  0  0  0  0  0  0  0  0  0
   39.5010   27.4560   29.2910 C   0  0  0  0  0  0  0  0  0  0  0  0
   39.0510   27.4100   30.5730 N   0  0  0  0  0  0  0  0  0  0  0  0
   40.1268   21.8803   35.5998 H   0  0  0  0  0  0  0  0  0  0  0  0
   40.8736   23.5222   36.0164 H   0  0  0  0  0  0  0  0  0  0  0  0
   39.7259   21.4402   37.6991 H   0  0  0  0  0  0  0  0  0  0  0  0
   41.1037   22.6853   37.9082 H   0  0  0  0  0  0  0  0  0  0  0  0
   38.8915   22.6366   39.3483 H   0  0  0  0  0  0  0  0  0  0  0  0
   39.9000   24.1004   38.9152 H   0  0  0  0  0  0  0  0  0  0  0  0
   37.2749   23.2052   37.7113 H   0  0  0  0  0  0  0  0  0  0  0  0
   37.6429   24.7276   38.5602 H   0  0  0  0  0  0  0  0  0  0  0  0
   39.4515   25.1869   36.6396 H   0  0  0  0  0  0  0  0  0  0  0  0
   38.7120   24.7603   33.2162 H   0  0  0  0  0  0  0  0  0  0  0  0
   37.4282   23.8866   31.2696 H   0  0  0  0  0  0  0  0  0  0  0  0
   36.2358   20.5404   33.6426 H   0  0  0  0  0  0  0  0  0  0  0  0
   36.9856   25.0812   35.1830 H   0  0  0  0  0  0  0  0  0  0  0  0
   36.7358   25.6722   36.8571 H   0  0  0  0  0  0  0  0  0  0  0  0
   37.9678   27.5413   36.5190 H   0  0  0  0  0  0  0  0  0  0  0  0
   39.1899   26.6328   35.5080 H   0  0  0  0  0  0  0  0  0  0  0  0
   35.6536   28.3495   35.0983 H   0  0  0  0  0  0  0  0  0  0  0  0
   35.5714   29.0103   32.4872 H   0  0  0  0  0  0  0  0  0  0  0  0
   36.2465   29.3209   30.4527 H   0  0  0  0  0  0  0  0  0  0  0  0
   37.0108   29.4634   28.0357 H   0  0  0  0  0  0  0  0  0  0  0  0
   39.0550   28.2718   27.3807 H   0  0  0  0  0  0  0  0  0  0  0  0
   40.4127   26.9339   28.9652 H   0  0  0  0  0  0  0  0  0  0  0  0
  1  2  1  0
  1  6  1  0
  2  3  1  0
  3  4  1  0
  5  4  1  0
  6  5  1  0
  7 12  1  0
  7  1  1  0
  8  7  2  0
  9 10  2  0
  9  8  1  0
 10 11  1  0
 11 12  2  0
 13  6  1  0
 14 13  1  0
 15 14  1  0
 16 15  2  0
 17 16  1  0
 18 17  2  0
 18 19  1  0
 19 15  1  0
 20 18  1  0
 21 20  2  0
 22 21  1  0
 23 22  2  0
 23 24  1  0
 24 25  2  0
 25 20  1  0
  2 26  1  0
  2 27  1  0
  3 28  1  0
  3 29  1  0
  4 30  1  0
  4 31  1  0
  5 32  1  0
  5 33  1  0
  6 34  1  1
  8 35  1  0
  9 36  1  0
 11 37  1  0
 13 38  1  0
 13 39  1  0
 14 40  1  0
 14 41  1  0
 16 42  1  0
 17 43  1  0
 21 44  1  0
 22 45  1  0
 23 46  1  0
 24 47  1  0
M  ISO  8  26  13  27  13  28  13  29  13  30  13  31  13  32  13  33  13
M  ISO  8  34  13  35  14  36  14  37  14  38   8  39   8  40   8  41   8
M  ISO  6  42  14  43  14  44  14  45  14  46  14  47  14
M  END
>  <minimizedAffinity>  (1) 
-5.63496161

>  <minimizedRMSD>  (1) 
0.284077913

$$$$
