
     RDKit          3D

 46 49  0  0  1  0  0  0  0  0999 V2000
   38.8500   23.4940   35.6980 N   0  0  0  0  0  0  0  0  0  0  0  0
   40.0290   22.7960   36.1770 C   0  0  0  0  0  0  0  0  0  0  0  0
   40.0690   22.4810   37.6180 C   0  0  0  0  0  0  0  0  0  0  0  0
   39.2670   23.3150   38.5580 C   0  0  0  0  0  0  0  0  0  0  0  0
   38.0660   23.9590   37.9110 C   0  0  0  0  0  0  0  0  0  0  0  0
   38.5400   24.5730   36.5490 C   0  0  2  0  0  0  0  0  0  0  0  0
   38.1540   23.0900   34.5230 C   0  0  0  0  0  0  0  0  0  0  0  0
   38.1290   23.7640   33.3090 C   0  0  0  0  0  0  0  0  0  0  0  0
   37.4180   23.2660   32.2520 C   0  0  0  0  0  0  0  0  0  0  0  0
   36.7420   22.0980   32.4260 N   0  0  0  0  0  0  0  0  0  0  0  0
   36.7610   21.4370   33.5970 C   0  0  0  0  0  0  0  0  0  0  0  0
   37.4630   21.9370   34.6280 N   0  0  0  0  0  0  0  0  0  0  0  0
   37.4770   25.4890   36.0580 C   0  0  0  0  0  0  0  0  0  0  0  0
   38.1070   26.8220   35.7150 C   0  0  0  0  0  0  0  0  0  0  0  0
   37.5950   27.4000   34.4610 C   0  0  0  0  0  0  0  0  0  0  0  0
   36.4270   28.1080   34.2870 C   0  0  0  0  0  0  0  0  0  0  0  0
   36.4390   28.4080   32.9440 C   0  0  0  0  0  0  0  0  0  0  0  0
   37.5630   27.9000   32.3450 C   0  0  0  0  0  0  0  0  0  0  0  0
   38.2060   27.3130   33.3060 O   0  0  0  0  0  0  0  0  0  0  0  0
   37.9130   28.0200   30.9330 C   0  0  0  0  0  0  0  0  0  0  0  0
   37.1760   28.8250   30.0710 C   0  0  0  0  0  0  0  0  0  0  0  0
   37.5960   28.8670   28.7500 C   0  0  0  0  0  0  0  0  0  0  0  0
   38.6550   28.1750   28.3080 N   0  0  0  0  0  0  0  0  0  0  0  0
   39.3520   27.4040   29.1620 C   0  0  0  0  0  0  0  0  0  0  0  0
   38.9850   27.3230   30.4740 N   0  0  0  0  0  0  0  0  0  0  0  0
   40.1024   21.8470   35.6256 H   0  0  0  0  0  0  0  0  0  0  0  0
   40.8660   23.4894   36.0078 H   0  0  0  0  0  0  0  0  0  0  0  0
   39.7236   21.4428   37.7317 H   0  0  0  0  0  0  0  0  0  0  0  0
   41.1112   22.6836   37.9057 H   0  0  0  0  0  0  0  0  0  0  0  0
   38.9181   22.6747   39.3816 H   0  0  0  0  0  0  0  0  0  0  0  0
   39.9203   24.1266   38.9109 H   0  0  0  0  0  0  0  0  0  0  0  0
   37.2857   23.2046   37.7320 H   0  0  0  0  0  0  0  0  0  0  0  0
   37.6451   24.7387   38.5629 H   0  0  0  0  0  0  0  0  0  0  0  0
   39.4479   25.1896   36.6235 H   0  0  0  0  0  0  0  0  0  0  0  0
   38.6856   24.7061   33.1966 H   0  0  0  0  0  0  0  0  0  0  0  0
   37.3934   23.7951   31.2879 H   0  0  0  0  0  0  0  0  0  0  0  0
   36.2060   20.4940   33.7100 H   0  0  0  0  0  0  0  0  0  0  0  0
   37.0044   25.0611   35.1616 H   0  0  0  0  0  0  0  0  0  0  0  0
   36.7105   25.6251   36.8351 H   0  0  0  0  0  0  0  0  0  0  0  0
   37.9018   27.5268   36.5342 H   0  0  0  0  0  0  0  0  0  0  0  0
   39.1848   26.6489   35.5791 H   0  0  0  0  0  0  0  0  0  0  0  0
   35.6683   28.3702   35.0391 H   0  0  0  0  0  0  0  0  0  0  0  0
   35.6550   28.9769   32.4228 H   0  0  0  0  0  0  0  0  0  0  0  0
   36.3046   29.3990   30.4192 H   0  0  0  0  0  0  0  0  0  0  0  0
   37.0383   29.4925   28.0375 H   0  0  0  0  0  0  0  0  0  0  0  0
   40.2221   26.8360   28.8011 H   0  0  0  0  0  0  0  0  0  0  0  0
  1  2  1  0
  1  6  1  0
  2  3  1  0
  3  4  1  0
  5  4  1  0
  6  5  1  0
  7 12  1  0
  7  1  1  0
  8  7  2  0
  9 10  2  0
  9  8  1  0
 10 11  1  0
 11 12  2  0
 13  6  1  0
 14 13  1  0
 15 14  1  0
 16 15  2  0
 17 16  1  0
 18 17  2  0
 18 19  1  0
 19 15  1  0
 20 18  1  0
 21 20  2  0
 22 21  1  0
 23 22  2  0
 23 24  1  0
 24 25  2  0
 25 20  1  0
  2 26  1  0
  2 27  1  0
  3 28  1  0
  3 29  1  0
  4 30  1  0
  4 31  1  0
  5 32  1  0
  5 33  1  0
  6 34  1  1
  8 35  1  0
  9 36  1  0
 11 37  1  0
 13 38  1  0
 13 39  1  0
 14 40  1  0
 14 41  1  0
 16 42  1  0
 17 43  1  0
 21 44  1  0
 22 45  1  0
 24 46  1  0
M  ISO  8  26  13  27  13  28  13  29  13  30  13  31  13  32  13  33  13
M  ISO  8  34  13  35  14  36  14  37  14  38   8  39   8  40   8  41   8
M  ISO  5  42  14  43  14  44  14  45  14  46  14
M  END
>  <minimizedAffinity>  (1) 
-5.63264847

>  <minimizedRMSD>  (1) 
0.258374035

$$$$
