
     RDKit          3D

 50 53  0  0  1  0  0  0  0  0999 V2000
   38.9050   23.3410   35.5540 N   0  0  0  0  0  0  0  0  0  0  0  0
   40.1050   22.6170   35.9060 C   0  0  0  0  0  0  0  0  0  0  0  0
   40.2820   22.2750   37.3330 C   0  0  0  0  0  0  0  0  0  0  0  0
   39.5890   23.0990   38.3560 C   0  0  0  0  0  0  0  0  0  0  0  0
   38.3310   23.7700   37.8380 C   0  0  0  0  0  0  0  0  0  0  0  0
   38.6960   24.4060   36.4600 C   0  0  2  0  0  0  0  0  0  0  0  0
   38.0990   22.9760   34.4420 C   0  0  0  0  0  0  0  0  0  0  0  0
   37.9910   23.6770   33.2470 C   0  0  0  0  0  0  0  0  0  0  0  0
   37.1720   23.2190   32.2380 C   0  0  0  0  0  0  0  0  0  0  0  0
   36.4820   22.0720   32.4520 N   0  0  0  0  0  0  0  0  0  0  0  0
   36.5820   21.3820   33.6140 C   0  0  0  0  0  0  0  0  0  0  0  0
   37.3870   21.8460   34.5860 N   0  0  0  0  0  0  0  0  0  0  0  0
   37.6060   25.3530   36.0790 C   0  0  0  0  0  0  0  0  0  0  0  0
   38.2290   26.6890   35.7310 C   0  0  0  0  0  0  0  0  0  0  0  0
   37.6800   27.2730   34.5040 C   0  0  0  0  0  0  0  0  0  0  0  0
   36.5320   28.0520   34.3930 C   0  0  0  0  0  0  0  0  0  0  0  0
   36.4620   28.3430   33.0390 C   0  0  0  0  0  0  0  0  0  0  0  0
   37.5240   27.7570   32.3990 C   0  0  0  0  0  0  0  0  0  0  0  0
   38.2080   27.1430   33.2990 O   0  0  0  0  0  0  0  0  0  0  0  0
   37.7420   27.8660   30.9970 N   0  0  0  0  0  0  0  0  0  0  0  0
   36.7990   28.4010   30.0340 C   0  0  0  0  0  0  0  0  0  0  0  0
   37.5980   28.9180   28.8770 C   0  0  0  0  0  0  0  0  0  0  0  0
   39.0260   28.7770   29.3640 C   0  0  0  0  0  0  0  0  0  0  0  0
   38.8950   27.4960   30.1970 C   0  0  0  0  0  0  0  0  0  0  0  0
   40.1056   21.6764   35.3357 H   0  0  0  0  0  0  0  0  0  0  0  0
   40.9337   23.3003   35.6686 H   0  0  0  0  0  0  0  0  0  0  0  0
   39.9355   21.2391   37.4629 H   0  0  0  0  0  0  0  0  0  0  0  0
   41.3500   22.4593   37.5209 H   0  0  0  0  0  0  0  0  0  0  0  0
   39.3152   22.4491   39.2002 H   0  0  0  0  0  0  0  0  0  0  0  0
   40.2837   23.8979   38.6546 H   0  0  0  0  0  0  0  0  0  0  0  0
   37.5296   23.0271   37.7122 H   0  0  0  0  0  0  0  0  0  0  0  0
   37.9712   24.5338   38.5431 H   0  0  0  0  0  0  0  0  0  0  0  0
   39.6201   25.0025   36.4749 H   0  0  0  0  0  0  0  0  0  0  0  0
   38.5641   24.6052   33.1054 H   0  0  0  0  0  0  0  0  0  0  0  0
   37.0810   23.7670   31.2886 H   0  0  0  0  0  0  0  0  0  0  0  0
   36.0113   20.4531   33.7604 H   0  0  0  0  0  0  0  0  0  0  0  0
   37.0607   24.9600   35.2083 H   0  0  0  0  0  0  0  0  0  0  0  0
   36.9015   25.4724   36.9153 H   0  0  0  0  0  0  0  0  0  0  0  0
   38.0499   27.3868   36.5623 H   0  0  0  0  0  0  0  0  0  0  0  0
   39.3027   26.5184   35.5632 H   0  0  0  0  0  0  0  0  0  0  0  0
   35.8425   28.3635   35.1914 H   0  0  0  0  0  0  0  0  0  0  0  0
   35.6800   28.9471   32.5557 H   0  0  0  0  0  0  0  0  0  0  0  0
   36.1143   27.6092   29.6961 H   0  0  0  0  0  0  0  0  0  0  0  0
   36.1939   29.2030   30.4819 H   0  0  0  0  0  0  0  0  0  0  0  0
   37.3537   29.9695   28.6654 H   0  0  0  0  0  0  0  0  0  0  0  0
   37.4032   28.3788   27.9382 H   0  0  0  0  0  0  0  0  0  0  0  0
   39.7318   28.6516   28.5297 H   0  0  0  0  0  0  0  0  0  0  0  0
   39.4186   29.6477   29.9097 H   0  0  0  0  0  0  0  0  0  0  0  0
   38.6968   26.6142   29.5700 H   0  0  0  0  0  0  0  0  0  0  0  0
   39.7918   27.2050   30.7637 H   0  0  0  0  0  0  0  0  0  0  0  0
  1  2  1  0
  1  6  1  0
  2  3  1  0
  3  4  1  0
  5  4  1  0
  6  5  1  0
  7 12  1  0
  7  1  1  0
  8  7  2  0
  9 10  2  0
  9  8  1  0
 10 11  1  0
 11 12  2  0
 13  6  1  0
 14 13  1  0
 15 14  1  0
 16 15  2  0
 17 16  1  0
 18 17  2  0
 18 19  1  0
 19 15  1  0
 20 18  1  0
 21 20  1  0
 22 23  1  0
 22 21  1  0
 23 24  1  0
 24 20  1  0
  2 25  1  0
  2 26  1  0
  3 27  1  0
  3 28  1  0
  4 29  1  0
  4 30  1  0
  5 31  1  0
  5 32  1  0
  6 33  1  1
  8 34  1  0
  9 35  1  0
 11 36  1  0
 13 37  1  0
 13 38  1  0
 14 39  1  0
 14 40  1  0
 16 41  1  0
 17 42  1  0
 21 43  1  0
 21 44  1  0
 22 45  1  0
 22 46  1  0
 23 47  1  0
 23 48  1  0
 24 49  1  0
 24 50  1  0
M  ISO  8  25  13  26  13  27  13  28  13  29  13  30  13  31  13  32  13
M  ISO  8  33  13  34  14  35  14  36  14  37   8  38   8  39   8  40   8
M  ISO  8  41  14  42  14  43  13  44  13  45  13  46  13  47  13  48  13
M  ISO  2  49  13  50  13
M  END
>  <minimizedAffinity>  (1) 
-5.53889418

>  <minimizedRMSD>  (1) 
0.751901507

$$$$
