
     RDKit          3D

 51 54  0  0  1  0  0  0  0  0999 V2000
   39.0900   23.0880   35.2420 N   0  0  0  0  0  0  0  0  0  0  0  0
   40.3800   22.4210   35.3150 C   0  0  0  0  0  0  0  0  0  0  0  0
   40.8220   21.9630   36.6410 C   0  0  0  0  0  0  0  0  0  0  0  0
   40.2740   22.6150   37.8430 C   0  0  0  0  0  0  0  0  0  0  0  0
   38.9190   23.2560   37.6260 C   0  0  0  0  0  0  0  0  0  0  0  0
   38.9830   24.0510   36.2890 C   0  0  2  0  0  0  0  0  0  0  0  0
   38.1080   22.7780   34.2410 C   0  0  0  0  0  0  0  0  0  0  0  0
   37.9190   23.4680   33.0690 C   0  0  0  0  0  0  0  0  0  0  0  0
   36.9360   23.0670   32.1850 C   0  0  0  0  0  0  0  0  0  0  0  0
   36.1920   21.9910   32.5220 N   0  0  0  0  0  0  0  0  0  0  0  0
   36.3770   21.3110   33.6730 C   0  0  0  0  0  0  0  0  0  0  0  0
   37.3420   21.7180   34.5260 N   0  0  0  0  0  0  0  0  0  0  0  0
   37.8040   24.9500   36.2040 C   0  0  0  0  0  0  0  0  0  0  0  0
   38.2920   26.3600   35.9510 C   0  0  0  0  0  0  0  0  0  0  0  0
   37.7660   26.9440   34.7030 C   0  0  0  0  0  0  0  0  0  0  0  0
   36.7160   27.8380   34.5910 C   0  0  0  0  0  0  0  0  0  0  0  0
   36.6340   28.0640   33.2350 C   0  0  0  0  0  0  0  0  0  0  0  0
   37.6100   27.3200   32.5800 C   0  0  0  0  0  0  0  0  0  0  0  0
   38.2330   26.6910   33.5100 O   0  0  0  0  0  0  0  0  0  0  0  0
   37.5910   27.4990   31.1690 N   0  0  0  0  0  0  0  0  0  0  0  0
   36.6270   28.2050   30.3250 C   0  0  0  0  0  0  0  0  0  0  0  0
   37.4750   28.7860   29.1860 C   0  0  0  0  0  0  0  0  0  0  0  0
   38.6830   29.1830   29.7260 O   0  0  0  0  0  0  0  0  0  0  0  0
   39.5480   28.1100   29.9960 C   0  0  0  0  0  0  0  0  0  0  0  0
   38.6880   26.9020   30.3890 C   0  0  0  0  0  0  0  0  0  0  0  0
   40.3355   21.5401   34.6577 H   0  0  0  0  0  0  0  0  0  0  0  0
   41.1134   23.1852   35.0182 H   0  0  0  0  0  0  0  0  0  0  0  0
   40.5721   20.8941   36.7123 H   0  0  0  0  0  0  0  0  0  0  0  0
   41.8909   22.2217   36.6657 H   0  0  0  0  0  0  0  0  0  0  0  0
   40.1767   21.8575   38.6347 H   0  0  0  0  0  0  0  0  0  0  0  0
   40.9703   23.4217   38.1159 H   0  0  0  0  0  0  0  0  0  0  0  0
   38.1424   22.4795   37.5639 H   0  0  0  0  0  0  0  0  0  0  0  0
   38.6702   23.9259   38.4622 H   0  0  0  0  0  0  0  0  0  0  0  0
   39.8551   24.7169   36.2114 H   0  0  0  0  0  0  0  0  0  0  0  0
   38.5492   24.3385   32.8344 H   0  0  0  0  0  0  0  0  0  0  0  0
   36.7653   23.6046   31.2406 H   0  0  0  0  0  0  0  0  0  0  0  0
   35.7514   20.4386   33.9128 H   0  0  0  0  0  0  0  0  0  0  0  0
   37.1518   24.6294   35.3783 H   0  0  0  0  0  0  0  0  0  0  0  0
   37.2327   24.9119   37.1433 H   0  0  0  0  0  0  0  0  0  0  0  0
   37.9780   26.9945   36.7929 H   0  0  0  0  0  0  0  0  0  0  0  0
   39.3866   26.3134   35.8530 H   0  0  0  0  0  0  0  0  0  0  0  0
   36.0957   28.2655   35.3925 H   0  0  0  0  0  0  0  0  0  0  0  0
   35.9085   28.7302   32.7453 H   0  0  0  0  0  0  0  0  0  0  0  0
   35.8704   27.5098   29.9321 H   0  0  0  0  0  0  0  0  0  0  0  0
   36.0748   28.9807   30.8758 H   0  0  0  0  0  0  0  0  0  0  0  0
   36.9616   29.6502   28.7392 H   0  0  0  0  0  0  0  0  0  0  0  0
   37.6320   28.0341   28.3986 H   0  0  0  0  0  0  0  0  0  0  0  0
   40.1402   27.8721   29.1001 H   0  0  0  0  0  0  0  0  0  0  0  0
   40.2403   28.3700   30.8103 H   0  0  0  0  0  0  0  0  0  0  0  0
   38.3013   26.3879   29.4967 H   0  0  0  0  0  0  0  0  0  0  0  0
   39.2494   26.1420   30.9522 H   0  0  0  0  0  0  0  0  0  0  0  0
  1  2  1  0
  1  6  1  0
  2  3  1  0
  3  4  1  0
  5  4  1  0
  6  5  1  0
  7 12  1  0
  7  1  1  0
  8  7  2  0
  9 10  2  0
  9  8  1  0
 10 11  1  0
 11 12  2  0
 13  6  1  0
 14 13  1  0
 15 14  1  0
 16 15  2  0
 17 16  1  0
 18 17  2  0
 18 19  1  0
 19 15  1  0
 20 18  1  0
 21 20  1  0
 22 23  1  0
 22 21  1  0
 23 24  1  0
 24 25  1  0
 25 20  1  0
  2 26  1  0
  2 27  1  0
  3 28  1  0
  3 29  1  0
  4 30  1  0
  4 31  1  0
  5 32  1  0
  5 33  1  0
  6 34  1  1
  8 35  1  0
  9 36  1  0
 11 37  1  0
 13 38  1  0
 13 39  1  0
 14 40  1  0
 14 41  1  0
 16 42  1  0
 17 43  1  0
 21 44  1  0
 21 45  1  0
 22 46  1  0
 22 47  1  0
 24 48  1  0
 24 49  1  0
 25 50  1  0
 25 51  1  0
M  ISO  8  26  13  27  13  28  13  29  13  30  13  31  13  32  13  33  13
M  ISO  8  34  13  35  14  36  14  37  14  38   8  39   8  40   8  41   8
M  ISO  8  42  14  43  14  44  13  45  13  46  13  47  13  48  13  49  13
M  ISO  2  50  13  51  13
M  END
>  <minimizedAffinity>  (1) 
-5.53883457

>  <minimizedRMSD>  (1) 
1.04649174

$$$$
