
     RDKit          3D

 45 48  0  0  1  0  0  0  0  0999 V2000
   38.8390   23.4890   35.7070 N   0  0  0  0  0  0  0  0  0  0  0  0
   40.0100   22.7940   36.2100 C   0  0  0  0  0  0  0  0  0  0  0  0
   40.0410   22.5130   37.6630 C   0  0  0  0  0  0  0  0  0  0  0  0
   39.2210   23.3380   38.5800 C   0  0  0  0  0  0  0  0  0  0  0  0
   38.0330   23.9930   37.9020 C   0  0  0  0  0  0  0  0  0  0  0  0
   38.5280   24.5850   36.5460 C   0  0  2  0  0  0  0  0  0  0  0  0
   38.1500   23.0770   34.5340 C   0  0  0  0  0  0  0  0  0  0  0  0
   38.1310   23.7340   33.3290 C   0  0  0  0  0  0  0  0  0  0  0  0
   37.4180   23.2210   32.2650 C   0  0  0  0  0  0  0  0  0  0  0  0
   36.7450   22.0640   32.4430 N   0  0  0  0  0  0  0  0  0  0  0  0
   36.7610   21.4150   33.6280 C   0  0  0  0  0  0  0  0  0  0  0  0
   37.4590   21.9270   34.6520 N   0  0  0  0  0  0  0  0  0  0  0  0
   37.4790   25.5080   36.0300 C   0  0  0  0  0  0  0  0  0  0  0  0
   38.1430   26.8280   35.6550 C   0  0  0  0  0  0  0  0  0  0  0  0
   37.5400   27.4580   34.4800 C   0  0  0  0  0  0  0  0  0  0  0  0
   36.3710   28.1770   34.4010 C   0  0  0  0  0  0  0  0  0  0  0  0
   36.2870   28.5300   33.0690 C   0  0  0  0  0  0  0  0  0  0  0  0
   37.3710   28.0350   32.3820 C   0  0  0  0  0  0  0  0  0  0  0  0
   38.0600   27.4160   33.2840 O   0  0  0  0  0  0  0  0  0  0  0  0
   37.6670   28.1710   30.9920 N   0  0  0  0  0  0  0  0  0  0  0  0
   38.8210   27.7580   30.4280 C   0  0  0  0  0  0  0  0  0  0  0  0
   38.6520   28.0950   29.0940 C   0  0  0  0  0  0  0  0  0  0  0  0
   37.4570   28.6780   28.8920 N   0  0  0  0  0  0  0  0  0  0  0  0
   36.8380   28.7240   30.0890 C   0  0  0  0  0  0  0  0  0  0  0  0
   40.0789   21.8312   35.6824 H   0  0  0  0  0  0  0  0  0  0  0  0
   40.8528   23.4773   36.0288 H   0  0  0  0  0  0  0  0  0  0  0  0
   39.7179   21.4698   37.7947 H   0  0  0  0  0  0  0  0  0  0  0  0
   41.0749   22.7530   37.9520 H   0  0  0  0  0  0  0  0  0  0  0  0
   38.8485   22.6935   39.3898 H   0  0  0  0  0  0  0  0  0  0  0  0
   39.8667   24.1458   38.9549 H   0  0  0  0  0  0  0  0  0  0  0  0
   37.2467   23.2457   37.7198 H   0  0  0  0  0  0  0  0  0  0  0  0
   37.6149   24.7863   38.5391 H   0  0  0  0  0  0  0  0  0  0  0  0
   39.4409   25.1935   36.6260 H   0  0  0  0  0  0  0  0  0  0  0  0
   38.6877   24.6754   33.2109 H   0  0  0  0  0  0  0  0  0  0  0  0
   37.3983   23.7414   31.2961 H   0  0  0  0  0  0  0  0  0  0  0  0
   36.2056   20.4736   33.7517 H   0  0  0  0  0  0  0  0  0  0  0  0
   37.0001   25.0677   35.1430 H   0  0  0  0  0  0  0  0  0  0  0  0
   36.7111   25.6760   36.7995 H   0  0  0  0  0  0  0  0  0  0  0  0
   38.0556   27.5187   36.5067 H   0  0  0  0  0  0  0  0  0  0  0  0
   39.1927   26.6100   35.4090 H   0  0  0  0  0  0  0  0  0  0  0  0
   35.6661   28.4157   35.2111 H   0  0  0  0  0  0  0  0  0  0  0  0
   35.4730   29.1202   32.6228 H   0  0  0  0  0  0  0  0  0  0  0  0
   39.6836   27.2732   30.9085 H   0  0  0  0  0  0  0  0  0  0  0  0
   39.3964   27.9101   28.3055 H   0  0  0  0  0  0  0  0  0  0  0  0
   35.8388   29.1377   30.2899 H   0  0  0  0  0  0  0  0  0  0  0  0
  1  2  1  0
  1  6  1  0
  2  3  1  0
  3  4  1  0
  5  4  1  0
  6  5  1  0
  7 12  1  0
  7  1  1  0
  8  7  2  0
  9 10  2  0
  9  8  1  0
 10 11  1  0
 11 12  2  0
 13  6  1  0
 14 13  1  0
 15 14  1  0
 16 15  2  0
 17 16  1  0
 18 17  2  0
 18 19  1  0
 19 15  1  0
 20 18  1  0
 21 20  1  0
 22 21  2  0
 23 22  1  0
 23 24  2  0
 24 20  1  0
  2 25  1  0
  2 26  1  0
  3 27  1  0
  3 28  1  0
  4 29  1  0
  4 30  1  0
  5 31  1  0
  5 32  1  0
  6 33  1  1
  8 34  1  0
  9 35  1  0
 11 36  1  0
 13 37  1  0
 13 38  1  0
 14 39  1  0
 14 40  1  0
 16 41  1  0
 17 42  1  0
 21 43  1  0
 22 44  1  0
 24 45  1  0
M  ISO  8  25  13  26  13  27  13  28  13  29  13  30  13  31  13  32  13
M  ISO  8  33  13  34  14  35  14  36  14  37   8  38   8  39   8  40   8
M  ISO  5  41  14  42  14  43  14  44  14  45  14
M  END
>  <minimizedAffinity>  (1) 
-5.50078964

>  <minimizedRMSD>  (1) 
0.575641036

$$$$
