
     RDKit          3D

 45 48  0  0  1  0  0  0  0  0999 V2000
   38.8490   23.4770   35.7140 N   0  0  0  0  0  0  0  0  0  0  0  0
   40.0180   22.7940   36.2140 C   0  0  0  0  0  0  0  0  0  0  0  0
   40.0470   22.5120   37.6710 C   0  0  0  0  0  0  0  0  0  0  0  0
   39.2260   23.3340   38.5800 C   0  0  0  0  0  0  0  0  0  0  0  0
   38.0380   23.9860   37.9120 C   0  0  0  0  0  0  0  0  0  0  0  0
   38.5280   24.5800   36.5510 C   0  0  2  0  0  0  0  0  0  0  0  0
   38.1600   23.0580   34.5440 C   0  0  0  0  0  0  0  0  0  0  0  0
   38.1540   23.7070   33.3240 C   0  0  0  0  0  0  0  0  0  0  0  0
   37.4430   23.2000   32.2570 C   0  0  0  0  0  0  0  0  0  0  0  0
   36.7580   22.0540   32.4420 N   0  0  0  0  0  0  0  0  0  0  0  0
   36.7550   21.4090   33.6320 C   0  0  0  0  0  0  0  0  0  0  0  0
   37.4540   21.9170   34.6640 N   0  0  0  0  0  0  0  0  0  0  0  0
   37.4790   25.4910   36.0260 C   0  0  0  0  0  0  0  0  0  0  0  0
   38.1220   26.8240   35.6820 C   0  0  0  0  0  0  0  0  0  0  0  0
   37.5650   27.4400   34.4680 C   0  0  0  0  0  0  0  0  0  0  0  0
   36.3850   28.1600   34.3780 C   0  0  0  0  0  0  0  0  0  0  0  0
   36.3320   28.5050   33.0470 C   0  0  0  0  0  0  0  0  0  0  0  0
   37.4410   28.0060   32.3830 C   0  0  0  0  0  0  0  0  0  0  0  0
   38.1240   27.3870   33.2890 O   0  0  0  0  0  0  0  0  0  0  0  0
   37.7410   28.1620   30.9670 C   0  0  0  0  0  0  0  0  0  0  0  0
   36.8940   28.7290   30.0240 C   0  0  0  0  0  0  0  0  0  0  0  0
   37.4820   28.7180   28.8070 N   0  0  0  0  0  0  0  0  0  0  0  0
   38.6900   28.1500   28.9740 C   0  0  0  0  0  0  0  0  0  0  0  0
   38.8460   27.8150   30.2800 N   0  0  0  0  0  0  0  0  0  0  0  0
   40.0948   21.8322   35.6857 H   0  0  0  0  0  0  0  0  0  0  0  0
   40.8570   23.4822   36.0336 H   0  0  0  0  0  0  0  0  0  0  0  0
   39.7252   21.4684   37.8027 H   0  0  0  0  0  0  0  0  0  0  0  0
   41.0801   22.7517   37.9631 H   0  0  0  0  0  0  0  0  0  0  0  0
   38.8564   22.6893   39.3910 H   0  0  0  0  0  0  0  0  0  0  0  0
   39.8714   24.1460   38.9462 H   0  0  0  0  0  0  0  0  0  0  0  0
   37.2511   23.2384   37.7334 H   0  0  0  0  0  0  0  0  0  0  0  0
   37.6217   24.7781   38.5517 H   0  0  0  0  0  0  0  0  0  0  0  0
   39.4336   25.1989   36.6331 H   0  0  0  0  0  0  0  0  0  0  0  0
   38.7238   24.6401   33.2026 H   0  0  0  0  0  0  0  0  0  0  0  0
   37.4350   23.7148   31.2849 H   0  0  0  0  0  0  0  0  0  0  0  0
   36.1852   20.4761   33.7548 H   0  0  0  0  0  0  0  0  0  0  0  0
   37.0265   25.0540   35.1236 H   0  0  0  0  0  0  0  0  0  0  0  0
   36.6946   25.6366   36.7833 H   0  0  0  0  0  0  0  0  0  0  0  0
   37.9697   27.5136   36.5254 H   0  0  0  0  0  0  0  0  0  0  0  0
   39.1885   26.6330   35.4918 H   0  0  0  0  0  0  0  0  0  0  0  0
   35.6659   28.3979   35.1757 H   0  0  0  0  0  0  0  0  0  0  0  0
   35.5273   29.0909   32.5789 H   0  0  0  0  0  0  0  0  0  0  0  0
   35.8914   29.1286   30.2363 H   0  0  0  0  0  0  0  0  0  0  0  0
   39.4323   27.9837   28.1795 H   0  0  0  0  0  0  0  0  0  0  0  0
   39.6803   27.3651   30.6831 H   0  0  0  0  0  0  0  0  0  0  0  0
  1  2  1  0
  1  6  1  0
  2  3  1  0
  3  4  1  0
  5  4  1  0
  6  5  1  0
  7 12  1  0
  7  1  1  0
  8  7  2  0
  9 10  2  0
  9  8  1  0
 10 11  1  0
 11 12  2  0
 13  6  1  0
 14 13  1  0
 15 14  1  0
 16 15  2  0
 17 16  1  0
 18 17  2  0
 18 19  1  0
 19 15  1  0
 20 18  1  0
 21 20  2  0
 22 23  2  0
 22 21  1  0
 23 24  1  0
 24 20  1  0
  2 25  1  0
  2 26  1  0
  3 27  1  0
  3 28  1  0
  4 29  1  0
  4 30  1  0
  5 31  1  0
  5 32  1  0
  6 33  1  1
  8 34  1  0
  9 35  1  0
 11 36  1  0
 13 37  1  0
 13 38  1  0
 14 39  1  0
 14 40  1  0
 16 41  1  0
 17 42  1  0
 21 43  1  0
 23 44  1  0
 24 45  1  0
M  ISO  8  25  13  26  13  27  13  28  13  29  13  30  13  31  13  32  13
M  ISO  8  33  13  34  14  35  14  36  14  37   8  38   8  39   8  40   8
M  ISO  5  41  14  42  14  43  14  44  14  45   9
M  END
>  <minimizedAffinity>  (1) 
-5.49978924

>  <minimizedRMSD>  (1) 
0.242512852

$$$$
