
     RDKit          3D

 52 55  0  0  1  0  0  0  0  0999 V2000
   38.8550   23.4930   35.7390 N   0  0  0  0  0  0  0  0  0  0  0  0
   40.0400   22.8080   36.2290 C   0  0  0  0  0  0  0  0  0  0  0  0
   40.0820   22.5130   37.6780 C   0  0  0  0  0  0  0  0  0  0  0  0
   39.2680   23.3320   38.5980 C   0  0  0  0  0  0  0  0  0  0  0  0
   38.0550   23.9620   37.9420 C   0  0  0  0  0  0  0  0  0  0  0  0
   38.5340   24.5790   36.5820 C   0  0  2  0  0  0  0  0  0  0  0  0
   38.1640   23.0700   34.5630 C   0  0  0  0  0  0  0  0  0  0  0  0
   38.1700   23.7220   33.3430 C   0  0  0  0  0  0  0  0  0  0  0  0
   37.4590   23.2070   32.2820 C   0  0  0  0  0  0  0  0  0  0  0  0
   36.7670   22.0620   32.4710 N   0  0  0  0  0  0  0  0  0  0  0  0
   36.7600   21.4190   33.6680 C   0  0  0  0  0  0  0  0  0  0  0  0
   37.4570   21.9320   34.6910 N   0  0  0  0  0  0  0  0  0  0  0  0
   37.4590   25.4750   36.0750 C   0  0  0  0  0  0  0  0  0  0  0  0
   38.0880   26.8210   35.7370 C   0  0  0  0  0  0  0  0  0  0  0  0
   37.5380   27.4140   34.5060 C   0  0  0  0  0  0  0  0  0  0  0  0
   36.4310   28.2260   34.3910 C   0  0  0  0  0  0  0  0  0  0  0  0
   36.3620   28.4930   33.0480 C   0  0  0  0  0  0  0  0  0  0  0  0
   37.3910   27.8620   32.3950 C   0  0  0  0  0  0  0  0  0  0  0  0
   38.0500   27.2410   33.3120 O   0  0  0  0  0  0  0  0  0  0  0  0
   37.7000   27.8660   31.0040 N   0  0  0  0  0  0  0  0  0  0  0  0
   38.9750   27.4670   30.4330 C   0  0  0  0  0  0  0  0  0  0  0  0
   39.4010   28.5020   29.4040 C   0  0  0  0  0  0  0  0  0  0  0  0
   38.6760   29.7420   29.5560 N   0  0  0  0  0  0  0  0  0  0  0  0
   37.2540   29.6250   29.4960 C   0  0  0  0  0  0  0  0  0  0  0  0
   36.7290   28.2850   30.0040 C   0  0  0  0  0  0  0  0  0  0  0  0
   40.1192   21.8517   35.6912 H   0  0  0  0  0  0  0  0  0  0  0  0
   40.8726   23.5042   36.0502 H   0  0  0  0  0  0  0  0  0  0  0  0
   39.7592   21.4690   37.8041 H   0  0  0  0  0  0  0  0  0  0  0  0
   41.1184   22.7444   37.9649 H   0  0  0  0  0  0  0  0  0  0  0  0
   38.9230   22.6898   39.4218 H   0  0  0  0  0  0  0  0  0  0  0  0
   39.9083   24.1553   38.9475 H   0  0  0  0  0  0  0  0  0  0  0  0
   37.2854   23.1976   37.7592 H   0  0  0  0  0  0  0  0  0  0  0  0
   37.6172   24.7355   38.5900 H   0  0  0  0  0  0  0  0  0  0  0  0
   39.4325   25.2085   36.6613 H   0  0  0  0  0  0  0  0  0  0  0  0
   38.7433   24.6528   33.2202 H   0  0  0  0  0  0  0  0  0  0  0  0
   37.4546   23.7146   31.3061 H   0  0  0  0  0  0  0  0  0  0  0  0
   36.1886   20.4878   33.7958 H   0  0  0  0  0  0  0  0  0  0  0  0
   37.0038   25.0388   35.1736 H   0  0  0  0  0  0  0  0  0  0  0  0
   36.6751   25.6001   36.8365 H   0  0  0  0  0  0  0  0  0  0  0  0
   37.9068   27.5135   36.5723 H   0  0  0  0  0  0  0  0  0  0  0  0
   39.1626   26.6529   35.5727 H   0  0  0  0  0  0  0  0  0  0  0  0
   35.7603   28.5774   35.1889 H   0  0  0  0  0  0  0  0  0  0  0  0
   35.5966   29.1191   32.5661 H   0  0  0  0  0  0  0  0  0  0  0  0
   39.7321   27.4043   31.2285 H   0  0  0  0  0  0  0  0  0  0  0  0
   38.8754   26.4829   29.9517 H   0  0  0  0  0  0  0  0  0  0  0  0
   39.2128   28.1010   28.3971 H   0  0  0  0  0  0  0  0  0  0  0  0
   40.4704   28.7116   29.5535 H   0  0  0  0  0  0  0  0  0  0  0  0
   38.9243   30.1466   30.4701 H   0  0  0  0  0  0  0  0  0  0  0  0
   36.8131   30.4257   30.1079 H   0  0  0  0  0  0  0  0  0  0  0  0
   36.9685   29.7025   28.4365 H   0  0  0  0  0  0  0  0  0  0  0  0
   35.7331   28.4040   30.4556 H   0  0  0  0  0  0  0  0  0  0  0  0
   36.6173   27.5471   29.1959 H   0  0  0  0  0  0  0  0  0  0  0  0
  1  2  1  0
  1  6  1  0
  2  3  1  0
  3  4  1  0
  5  4  1  0
  6  5  1  0
  7 12  1  0
  7  1  1  0
  8  7  2  0
  9 10  2  0
  9  8  1  0
 10 11  1  0
 11 12  2  0
 13  6  1  0
 14 13  1  0
 15 14  1  0
 16 15  2  0
 17 16  1  0
 18 17  2  0
 18 19  1  0
 19 15  1  0
 20 18  1  0
 21 20  1  0
 22 23  1  0
 22 21  1  0
 24 23  1  0
 24 25  1  0
 25 20  1  0
  2 26  1  0
  2 27  1  0
  3 28  1  0
  3 29  1  0
  4 30  1  0
  4 31  1  0
  5 32  1  0
  5 33  1  0
  6 34  1  1
  8 35  1  0
  9 36  1  0
 11 37  1  0
 13 38  1  0
 13 39  1  0
 14 40  1  0
 14 41  1  0
 16 42  1  0
 17 43  1  0
 21 44  1  0
 21 45  1  0
 22 46  1  0
 22 47  1  0
 23 48  1  0
 24 49  1  0
 24 50  1  0
 25 51  1  0
 25 52  1  0
M  ISO  8  26  13  27  13  28  13  29  13  30  13  31  13  32  13  33  13
M  ISO  8  34  13  35  14  36  14  37  14  38   8  39   8  40   8  41   8
M  ISO  8  42  14  43  14  44  13  45  13  46  13  47  13  48   5  49  13
M  ISO  3  50  13  51  13  52  13
M  END
>  <minimizedAffinity>  (1) 
-5.49358845

>  <minimizedRMSD>  (1) 
0.0700045228

$$$$
