
     RDKit          3D

 43 46  0  0  1  0  0  0  0  0999 V2000
   38.8820   23.4540   35.7030 N   0  0  0  0  0  0  0  0  0  0  0  0
   40.0280   22.7600   36.2520 C   0  0  0  0  0  0  0  0  0  0  0  0
   40.0310   22.5180   37.7100 C   0  0  0  0  0  0  0  0  0  0  0  0
   39.2080   23.3960   38.5860 C   0  0  0  0  0  0  0  0  0  0  0  0
   38.0360   24.0370   37.8690 C   0  0  0  0  0  0  0  0  0  0  0  0
   38.5680   24.5810   36.5010 C   0  0  2  0  0  0  0  0  0  0  0  0
   38.2120   23.0130   34.5270 C   0  0  0  0  0  0  0  0  0  0  0  0
   38.2940   23.6080   33.2750 C   0  0  0  0  0  0  0  0  0  0  0  0
   37.5950   23.0810   32.2180 C   0  0  0  0  0  0  0  0  0  0  0  0
   36.8320   21.9770   32.4290 N   0  0  0  0  0  0  0  0  0  0  0  0
   36.7490   21.3940   33.6520 C   0  0  0  0  0  0  0  0  0  0  0  0
   37.4390   21.9190   34.6830 N   0  0  0  0  0  0  0  0  0  0  0  0
   37.5370   25.4890   35.9350 C   0  0  0  0  0  0  0  0  0  0  0  0
   38.2090   26.7770   35.5060 C   0  0  0  0  0  0  0  0  0  0  0  0
   37.5550   27.4410   34.3770 C   0  0  0  0  0  0  0  0  0  0  0  0
   36.3840   28.1730   34.4140 C   0  0  0  0  0  0  0  0  0  0  0  0
   36.2090   28.5740   33.1110 C   0  0  0  0  0  0  0  0  0  0  0  0
   37.2400   28.0960   32.3320 C   0  0  0  0  0  0  0  0  0  0  0  0
   37.9990   27.4350   33.1480 O   0  0  0  0  0  0  0  0  0  0  0  0
   37.5140   28.2410   30.9050 C   0  0  0  0  0  0  0  0  0  0  0  0
   36.7910   28.7140   29.8590 N   0  0  0  0  0  0  0  0  0  0  0  0
   37.4960   28.6270   28.7690 O   0  0  0  0  0  0  0  0  0  0  0  0
   38.6830   28.1040   29.0640 C   0  0  0  0  0  0  0  0  0  0  0  0
   38.7090   27.8560   30.4020 N   0  0  0  0  0  0  0  0  0  0  0  0
   40.0938   21.7818   35.7532 H   0  0  0  0  0  0  0  0  0  0  0  0
   40.8811   23.4307   36.0721 H   0  0  0  0  0  0  0  0  0  0  0  0
   39.6819   21.4867   37.8669 H   0  0  0  0  0  0  0  0  0  0  0  0
   41.0657   22.7362   38.0129 H   0  0  0  0  0  0  0  0  0  0  0  0
   38.8186   22.7912   39.4182 H   0  0  0  0  0  0  0  0  0  0  0  0
   39.8606   24.2109   38.9326 H   0  0  0  0  0  0  0  0  0  0  0  0
   37.2467   23.2906   37.6959 H   0  0  0  0  0  0  0  0  0  0  0  0
   37.6088   24.8516   38.4723 H   0  0  0  0  0  0  0  0  0  0  0  0
   39.4856   25.1824   36.5807 H   0  0  0  0  0  0  0  0  0  0  0  0
   38.9191   24.5015   33.1304 H   0  0  0  0  0  0  0  0  0  0  0  0
   37.6514   23.5427   31.2212 H   0  0  0  0  0  0  0  0  0  0  0  0
   36.1240   20.5010   33.7999 H   0  0  0  0  0  0  0  0  0  0  0  0
   37.0607   25.0123   35.0656 H   0  0  0  0  0  0  0  0  0  0  0  0
   36.7674   25.7011   36.6917 H   0  0  0  0  0  0  0  0  0  0  0  0
   38.2096   27.4687   36.3613 H   0  0  0  0  0  0  0  0  0  0  0  0
   39.2242   26.5122   35.1756 H   0  0  0  0  0  0  0  0  0  0  0  0
   35.7425   28.3851   35.2821 H   0  0  0  0  0  0  0  0  0  0  0  0
   35.3710   29.1853   32.7448 H   0  0  0  0  0  0  0  0  0  0  0  0
   39.4987   27.9069   28.3528 H   0  0  0  0  0  0  0  0  0  0  0  0
  1  2  1  0
  1  6  1  0
  2  3  1  0
  3  4  1  0
  5  4  1  0
  6  5  1  0
  7 12  1  0
  7  1  1  0
  8  7  2  0
  9 10  2  0
  9  8  1  0
 10 11  1  0
 11 12  2  0
 13  6  1  0
 14 13  1  0
 15 16  2  0
 15 14  1  0
 17 16  1  0
 18 17  2  0
 18 19  1  0
 19 15  1  0
 20 18  1  0
 21 20  2  0
 22 23  1  0
 22 21  1  0
 23 24  2  0
 24 20  1  0
  2 25  1  0
  2 26  1  0
  3 27  1  0
  3 28  1  0
  4 29  1  0
  4 30  1  0
  5 31  1  0
  5 32  1  0
  6 33  1  1
  8 34  1  0
  9 35  1  0
 11 36  1  0
 13 37  1  0
 13 38  1  0
 14 39  1  0
 14 40  1  0
 16 41  1  0
 17 42  1  0
 23 43  1  0
M  ISO  8  25  13  26  13  27  13  28  13  29  13  30  13  31  13  32  13
M  ISO  8  33  13  34  14  35  14  36  14  37   8  38   8  39   8  40   8
M  ISO  3  41  14  42  14  43  14
M  END
>  <minimizedAffinity>  (1) 
-5.46638298

>  <minimizedRMSD>  (1) 
0.273959458

$$$$
