
     RDKit          3D

 41 43  0  0  1  0  0  0  0  0999 V2000
   38.8550   23.4910   35.7240 N   0  0  0  0  0  0  0  0  0  0  0  0
   40.0320   22.8210   36.2380 C   0  0  0  0  0  0  0  0  0  0  0  0
   40.0420   22.5430   37.6920 C   0  0  0  0  0  0  0  0  0  0  0  0
   39.2170   23.3740   38.5950 C   0  0  0  0  0  0  0  0  0  0  0  0
   38.0230   24.0010   37.9090 C   0  0  0  0  0  0  0  0  0  0  0  0
   38.5210   24.5840   36.5450 C   0  0  2  0  0  0  0  0  0  0  0  0
   38.1810   23.0520   34.5490 C   0  0  0  0  0  0  0  0  0  0  0  0
   38.2190   23.6640   33.3070 C   0  0  0  0  0  0  0  0  0  0  0  0
   37.5210   23.1380   32.2450 C   0  0  0  0  0  0  0  0  0  0  0  0
   36.8000   22.0120   32.4510 N   0  0  0  0  0  0  0  0  0  0  0  0
   36.7570   21.4060   33.6610 C   0  0  0  0  0  0  0  0  0  0  0  0
   37.4470   21.9300   34.6960 N   0  0  0  0  0  0  0  0  0  0  0  0
   37.4560   25.4860   36.0090 C   0  0  0  0  0  0  0  0  0  0  0  0
   38.1010   26.8020   35.6010 C   0  0  0  0  0  0  0  0  0  0  0  0
   37.4820   27.4010   34.4120 C   0  0  0  0  0  0  0  0  0  0  0  0
   36.4060   28.2620   34.3810 C   0  0  0  0  0  0  0  0  0  0  0  0
   36.2240   28.5270   33.0460 C   0  0  0  0  0  0  0  0  0  0  0  0
   37.1660   27.8410   32.3130 C   0  0  0  0  0  0  0  0  0  0  0  0
   37.8690   27.2030   33.1850 O   0  0  0  0  0  0  0  0  0  0  0  0
   37.4310   27.7580   30.8790 C   0  0  0  0  0  0  0  0  0  0  0  0
   38.5570   27.8160   30.3200 O   0  0  0  0  0  0  0  0  0  0  0  0
   36.3640   27.5990   29.9770 O   0  0  0  0  0  0  0  0  0  0  0  0
   40.1280   21.8599   35.7117 H   0  0  0  0  0  0  0  0  0  0  0  0
   40.8664   23.5167   36.0651 H   0  0  0  0  0  0  0  0  0  0  0  0
   39.7102   21.5023   37.8217 H   0  0  0  0  0  0  0  0  0  0  0  0
   41.0736   22.7768   37.9940 H   0  0  0  0  0  0  0  0  0  0  0  0
   38.8538   22.7404   39.4176 H   0  0  0  0  0  0  0  0  0  0  0  0
   39.8544   24.1955   38.9540 H   0  0  0  0  0  0  0  0  0  0  0  0
   37.2483   23.2403   37.7325 H   0  0  0  0  0  0  0  0  0  0  0  0
   37.5872   24.7938   38.5347 H   0  0  0  0  0  0  0  0  0  0  0  0
   39.4247   25.2060   36.6250 H   0  0  0  0  0  0  0  0  0  0  0  0
   38.8131   24.5794   33.1687 H   0  0  0  0  0  0  0  0  0  0  0  0
   37.5482   23.6192   31.2562 H   0  0  0  0  0  0  0  0  0  0  0  0
   36.1626   20.4909   33.7999 H   0  0  0  0  0  0  0  0  0  0  0  0
   36.9794   25.0191   35.1344 H   0  0  0  0  0  0  0  0  0  0  0  0
   36.6893   25.6634   36.7775 H   0  0  0  0  0  0  0  0  0  0  0  0
   38.0108   27.5106   36.4375 H   0  0  0  0  0  0  0  0  0  0  0  0
   39.1516   26.5901   35.3531 H   0  0  0  0  0  0  0  0  0  0  0  0
   35.8255   28.6486   35.2316 H   0  0  0  0  0  0  0  0  0  0  0  0
   35.4474   29.1843   32.6279 H   0  0  0  0  0  0  0  0  0  0  0  0
   36.5419   27.5426   29.0048 H   0  0  0  0  0  0  0  0  0  0  0  0
  1  2  1  0
  1  6  1  0
  2  3  1  0
  3  4  1  0
  5  4  1  0
  6  5  1  0
  7 12  1  0
  7  1  1  0
  8  7  2  0
  9 10  2  0
  9  8  1  0
 10 11  1  0
 11 12  2  0
 13  6  1  0
 14 13  1  0
 15 14  1  0
 16 15  2  0
 17 16  1  0
 18 17  2  0
 18 19  1  0
 19 15  1  0
 20 18  1  0
 21 20  2  0
 22 20  1  0
  2 23  1  0
  2 24  1  0
  3 25  1  0
  3 26  1  0
  4 27  1  0
  4 28  1  0
  5 29  1  0
  5 30  1  0
  6 31  1  1
  8 32  1  0
  9 33  1  0
 11 34  1  0
 13 35  1  0
 13 36  1  0
 14 37  1  0
 14 38  1  0
 16 39  1  0
 17 40  1  0
 22 41  1  0
M  ISO  8  23  13  24  13  25  13  26  13  27  13  28  13  29  13  30  13
M  ISO  8  31  13  32  14  33  14  34  14  35   8  36   8  37   8  38   8
M  ISO  3  39  14  40  14  41   3
M  END
>  <minimizedAffinity>  (1) 
-5.38426256

>  <minimizedRMSD>  (1) 
0.30455789

$$$$
