
     RDKit          3D

 45 48  0  0  1  0  0  0  0  0999 V2000
   38.8620   23.4820   35.7410 N   0  0  0  0  0  0  0  0  0  0  0  0
   40.0460   22.8110   36.2270 C   0  0  0  0  0  0  0  0  0  0  0  0
   40.0830   22.5090   37.6760 C   0  0  0  0  0  0  0  0  0  0  0  0
   39.2730   23.3330   38.6020 C   0  0  0  0  0  0  0  0  0  0  0  0
   38.0580   23.9570   37.9450 C   0  0  0  0  0  0  0  0  0  0  0  0
   38.5320   24.5630   36.5910 C   0  0  2  0  0  0  0  0  0  0  0  0
   38.1740   23.0650   34.5670 C   0  0  0  0  0  0  0  0  0  0  0  0
   38.1750   23.7030   33.3420 C   0  0  0  0  0  0  0  0  0  0  0  0
   37.4640   23.1950   32.2800 C   0  0  0  0  0  0  0  0  0  0  0  0
   36.7680   22.0580   32.4700 N   0  0  0  0  0  0  0  0  0  0  0  0
   36.7560   21.4180   33.6710 C   0  0  0  0  0  0  0  0  0  0  0  0
   37.4590   21.9320   34.6950 N   0  0  0  0  0  0  0  0  0  0  0  0
   37.4630   25.4750   36.0820 C   0  0  0  0  0  0  0  0  0  0  0  0
   38.0940   26.8190   35.7360 C   0  0  0  0  0  0  0  0  0  0  0  0
   37.5510   27.3960   34.4890 C   0  0  0  0  0  0  0  0  0  0  0  0
   36.4470   28.2290   34.3630 C   0  0  0  0  0  0  0  0  0  0  0  0
   36.3960   28.4580   32.9940 C   0  0  0  0  0  0  0  0  0  0  0  0
   37.4290   27.7850   32.3620 C   0  0  0  0  0  0  0  0  0  0  0  0
   38.0640   27.1830   33.3100 O   0  0  0  0  0  0  0  0  0  0  0  0
   37.7700   27.7370   30.9100 C   0  0  0  0  0  0  0  0  0  0  0  0
   36.8400   28.3530   29.9160 C   0  0  0  0  0  0  0  0  0  0  0  0
   38.1740   28.9550   30.1820 C   0  0  0  0  0  0  0  0  0  0  0  0
   40.1377   21.8587   35.6841 H   0  0  0  0  0  0  0  0  0  0  0  0
   40.8731   23.5153   36.0539 H   0  0  0  0  0  0  0  0  0  0  0  0
   39.7506   21.4674   37.7967 H   0  0  0  0  0  0  0  0  0  0  0  0
   41.1210   22.7304   37.9652 H   0  0  0  0  0  0  0  0  0  0  0  0
   38.9323   22.6942   39.4302 H   0  0  0  0  0  0  0  0  0  0  0  0
   39.9138   24.1568   38.9494 H   0  0  0  0  0  0  0  0  0  0  0  0
   37.2895   23.1904   37.7671 H   0  0  0  0  0  0  0  0  0  0  0  0
   37.6188   24.7328   38.5894 H   0  0  0  0  0  0  0  0  0  0  0  0
   39.4344   25.1865   36.6738 H   0  0  0  0  0  0  0  0  0  0  0  0
   38.7525   24.6304   33.2140 H   0  0  0  0  0  0  0  0  0  0  0  0
   37.4639   23.7025   31.3041 H   0  0  0  0  0  0  0  0  0  0  0  0
   36.1780   20.4913   33.8022 H   0  0  0  0  0  0  0  0  0  0  0  0
   37.0017   25.0399   35.1832 H   0  0  0  0  0  0  0  0  0  0  0  0
   36.6877   25.6107   36.8504 H   0  0  0  0  0  0  0  0  0  0  0  0
   37.9035   27.5208   36.5613 H   0  0  0  0  0  0  0  0  0  0  0  0
   39.1710   26.6532   35.5857 H   0  0  0  0  0  0  0  0  0  0  0  0
   35.7803   28.6115   35.1499 H   0  0  0  0  0  0  0  0  0  0  0  0
   35.6458   29.0820   32.4863 H   0  0  0  0  0  0  0  0  0  0  0  0
   38.2211   26.7443   31.0552 H   0  0  0  0  0  0  0  0  0  0  0  0
   35.9267   28.8626   30.2568 H   0  0  0  0  0  0  0  0  0  0  0  0
   36.3060   27.9998   29.0216 H   0  0  0  0  0  0  0  0  0  0  0  0
   38.9626   28.9005   29.4171 H   0  0  0  0  0  0  0  0  0  0  0  0
   38.5279   29.9533   30.4790 H   0  0  0  0  0  0  0  0  0  0  0  0
  1  2  1  0
  1  6  1  0
  2  3  1  0
  3  4  1  0
  5  4  1  0
  6  5  1  0
  7 12  1  0
  7  1  1  0
  8  7  2  0
  9 10  2  0
  9  8  1  0
 10 11  1  0
 11 12  2  0
 13  6  1  0
 14 13  1  0
 15 14  1  0
 16 15  2  0
 17 16  1  0
 18 17  2  0
 18 19  1  0
 19 15  1  0
 20 18  1  0
 21 22  1  0
 21 20  1  0
 22 20  1  0
  2 23  1  0
  2 24  1  0
  3 25  1  0
  3 26  1  0
  4 27  1  0
  4 28  1  0
  5 29  1  0
  5 30  1  0
  6 31  1  1
  8 32  1  0
  9 33  1  0
 11 34  1  0
 13 35  1  0
 13 36  1  0
 14 37  1  0
 14 38  1  0
 16 39  1  0
 17 40  1  0
 20 41  1  0
 21 42  1  0
 21 43  1  0
 22 44  1  0
 22 45  1  0
M  ISO  8  23  13  24  13  25  13  26  13  27  13  28  13  29  13  30  13
M  ISO  8  31  13  32  14  33  14  34  14  35   8  36   8  37   8  38   8
M  ISO  7  39  14  40  14  41  13  42  13  43  13  44  13  45  13
M  END
>  <minimizedAffinity>  (1) 
-5.18809366

>  <minimizedRMSD>  (1) 
0.101507701

$$$$
