
     RDKit          3D

 40 42  0  0  1  0  0  0  0  0999 V2000
   38.8620   23.4790   35.7250 N   0  0  0  0  0  0  0  0  0  0  0  0
   40.0270   22.8070   36.2420 C   0  0  0  0  0  0  0  0  0  0  0  0
   40.0500   22.5410   37.6990 C   0  0  0  0  0  0  0  0  0  0  0  0
   39.2120   23.3710   38.5990 C   0  0  0  0  0  0  0  0  0  0  0  0
   38.0190   23.9920   37.9080 C   0  0  0  0  0  0  0  0  0  0  0  0
   38.5290   24.5800   36.5490 C   0  0  2  0  0  0  0  0  0  0  0  0
   38.1850   23.0480   34.5490 C   0  0  0  0  0  0  0  0  0  0  0  0
   38.2200   23.6660   33.3130 C   0  0  0  0  0  0  0  0  0  0  0  0
   37.5170   23.1460   32.2490 C   0  0  0  0  0  0  0  0  0  0  0  0
   36.7960   22.0160   32.4550 N   0  0  0  0  0  0  0  0  0  0  0  0
   36.7560   21.4060   33.6610 C   0  0  0  0  0  0  0  0  0  0  0  0
   37.4480   21.9280   34.6840 N   0  0  0  0  0  0  0  0  0  0  0  0
   37.4700   25.4870   36.0140 C   0  0  0  0  0  0  0  0  0  0  0  0
   38.1080   26.8010   35.6200 C   0  0  0  0  0  0  0  0  0  0  0  0
   37.4890   27.4150   34.4380 C   0  0  0  0  0  0  0  0  0  0  0  0
   36.4020   28.2620   34.4200 C   0  0  0  0  0  0  0  0  0  0  0  0
   36.2190   28.5540   33.0920 C   0  0  0  0  0  0  0  0  0  0  0  0
   37.1710   27.8980   32.3450 C   0  0  0  0  0  0  0  0  0  0  0  0
   37.8970   27.2390   33.1980 O   0  0  0  0  0  0  0  0  0  0  0  0
   37.4730   27.8250   30.9190 C   0  0  0  0  0  0  0  0  0  0  0  0
   36.7410   28.1720   29.9620 O   0  0  0  0  0  0  0  0  0  0  0  0
   40.1105   21.8395   35.7252 H   0  0  0  0  0  0  0  0  0  0  0  0
   40.8634   23.4982   36.0612 H   0  0  0  0  0  0  0  0  0  0  0  0
   39.7360   21.4963   37.8401 H   0  0  0  0  0  0  0  0  0  0  0  0
   41.0794   22.7916   37.9947 H   0  0  0  0  0  0  0  0  0  0  0  0
   38.8475   22.7358   39.4197 H   0  0  0  0  0  0  0  0  0  0  0  0
   39.8433   24.1964   38.9598 H   0  0  0  0  0  0  0  0  0  0  0  0
   37.2497   23.2277   37.7235 H   0  0  0  0  0  0  0  0  0  0  0  0
   37.5711   24.7794   38.5320 H   0  0  0  0  0  0  0  0  0  0  0  0
   39.4347   25.1989   36.6315 H   0  0  0  0  0  0  0  0  0  0  0  0
   38.8148   24.5814   33.1781 H   0  0  0  0  0  0  0  0  0  0  0  0
   37.5396   23.6322   31.2625 H   0  0  0  0  0  0  0  0  0  0  0  0
   36.1619   20.4910   33.8015 H   0  0  0  0  0  0  0  0  0  0  0  0
   36.9985   25.0261   35.1335 H   0  0  0  0  0  0  0  0  0  0  0  0
   36.7021   25.6596   36.7824 H   0  0  0  0  0  0  0  0  0  0  0  0
   38.0179   27.5001   36.4644 H   0  0  0  0  0  0  0  0  0  0  0  0
   39.1576   26.5910   35.3666 H   0  0  0  0  0  0  0  0  0  0  0  0
   35.8139   28.6225   35.2769 H   0  0  0  0  0  0  0  0  0  0  0  0
   35.4341   29.2099   32.6874 H   0  0  0  0  0  0  0  0  0  0  0  0
   38.4593   27.4174   30.6523 H   0  0  0  0  0  0  0  0  0  0  0  0
  1  2  1  0
  1  6  1  0
  2  3  1  0
  3  4  1  0
  5  4  1  0
  6  5  1  0
  7 12  1  0
  7  1  1  0
  8  7  2  0
  9 10  2  0
  9  8  1  0
 10 11  1  0
 11 12  2  0
 13  6  1  0
 14 13  1  0
 15 14  1  0
 16 15  2  0
 17 16  1  0
 18 17  2  0
 18 19  1  0
 19 15  1  0
 20 18  1  0
 21 20  2  0
  2 22  1  0
  2 23  1  0
  3 24  1  0
  3 25  1  0
  4 26  1  0
  4 27  1  0
  5 28  1  0
  5 29  1  0
  6 30  1  1
  8 31  1  0
  9 32  1  0
 11 33  1  0
 13 34  1  0
 13 35  1  0
 14 36  1  0
 14 37  1  0
 16 38  1  0
 17 39  1  0
 20 40  1  0
M  ISO  8  22  13  23  13  24  13  25  13  26  13  27  13  28  13  29  13
M  ISO  8  30  13  31  14  32  14  33  14  34   8  35   8  36   8  37   8
M  ISO  3  38  14  39  14  40   6
M  END
>  <minimizedAffinity>  (1) 
-4.976192

>  <minimizedRMSD>  (1) 
0.107561916

$$$$
