
     RDKit          3D

 32 33  0  0  0  0  0  0  0  0999 V2000
   36.2790   20.8870   33.0600 C   0  0  0  0  0  0  0  0  0  0  0  0
   35.6970   20.6490   34.3010 C   0  0  0  0  0  0  0  0  0  0  0  0
   36.3450   21.2090   35.3810 C   0  0  0  0  0  0  0  0  0  0  0  0
   37.4930   21.9590   35.2970 C   0  0  0  0  0  0  0  0  0  0  0  0
   38.0190   22.1560   34.0230 C   0  0  0  0  0  0  0  0  0  0  0  0
   37.4350   21.6310   32.8800 C   0  0  0  0  0  0  0  0  0  0  0  0
   39.9440   22.8400   37.8640 C   0  0  0  0  0  0  0  0  0  0  0  0
   39.1950   23.6190   38.7590 C   0  0  0  0  0  0  0  0  0  0  0  0
   37.8590   23.8260   38.4610 C   0  0  0  0  0  0  0  0  0  0  0  0
   37.3490   23.2710   37.3330 N   0  0  0  0  0  0  0  0  0  0  0  0
   38.1110   22.5210   36.4880 C   0  0  0  0  0  0  0  0  0  0  0  0
   39.3970   22.3010   36.7430 N   0  0  0  0  0  0  0  0  0  0  0  0
   35.4950   20.2220   31.6670 S   0  0  0  0  0  0  0  0  0  0  0  0
   34.1580   19.6140   31.9850 O   0  0  0  0  0  0  0  0  0  0  0  0
   35.3480   21.3240   30.6610 O   0  0  0  0  0  0  0  0  0  0  0  0
   36.6130   18.9550   31.0450 C   0  0  0  0  0  0  0  0  0  0  0  0
   36.2360   17.6400   31.6320 C   0  0  0  0  0  0  0  0  0  0  0  0
   36.6420   18.9610   29.5390 C   0  0  0  0  0  0  0  0  0  0  0  0
   34.7794   20.0527   34.4131 H   0  0  0  0  0  0  0  0  0  0  0  0
   35.9131   21.0440   36.3791 H   0  0  0  0  0  0  0  0  0  0  0  0
   38.9367   22.7534   33.9187 H   0  0  0  0  0  0  0  0  0  0  0  0
   37.8667   21.7963   31.8819 H   0  0  0  0  0  0  0  0  0  0  0  0
   41.0081   22.6599   38.0767 H   0  0  0  0  0  0  0  0  0  0  0  0
   39.6518   24.0487   39.6627 H   0  0  0  0  0  0  0  0  0  0  0  0
   37.2232   24.4289   39.1260 H   0  0  0  0  0  0  0  0  0  0  0  0
   37.6456   19.1673   31.3591 H   0  0  0  0  0  0  0  0  0  0  0  0
   36.2558   17.7092   32.7296 H   0  0  0  0  0  0  0  0  0  0  0  0
   35.2234   17.3671   31.3001 H   0  0  0  0  0  0  0  0  0  0  0  0
   36.9502   16.8720   31.3001 H   0  0  0  0  0  0  0  0  0  0  0  0
   37.6644   19.1725   29.1928 H   0  0  0  0  0  0  0  0  0  0  0  0
   36.3233   17.9779   29.1622 H   0  0  0  0  0  0  0  0  0  0  0  0
   35.9594   19.7369   29.1622 H   0  0  0  0  0  0  0  0  0  0  0  0
  1  2  2  0
  2  3  1  0
  4  3  2  0
  4 11  1  0
  5  4  1  0
  6  1  1  0
  6  5  2  0
  7  8  2  0
  9  8  1  0
 10  9  2  0
 11 12  2  0
 11 10  1  0
 12  7  1  0
 13 14  2  0
 13  1  1  0
 15 13  2  0
 16 17  1  0
 16 13  1  0
 18 16  1  0
  2 19  1  0
  3 20  1  0
  5 21  1  0
  6 22  1  0
  7 23  1  0
  8 24  1  0
  9 25  1  0
 16 26  1  0
 17 27  1  0
 17 28  1  0
 17 29  1  0
 18 30  1  0
 18 31  1  0
 18 32  1  0
M  ISO  8  19  14  20  14  21  14  22  14  23  14  24  14  25  14  26   8
M  ISO  6  27   8  28   8  29   8  30   8  31   8  32   8
M  END
>  <minimizedAffinity>  (1) 
-4.81421185

>  <minimizedRMSD>  (1) 
2.09845901

$$$$
