
     RDKit          3D

 30 32  0  0  0  0  0  0  0  0999 V2000
   36.2470   20.5920   33.2560 C   0  0  0  0  0  0  0  0  0  0  0  0
   35.6420   20.4960   34.5050 C   0  0  0  0  0  0  0  0  0  0  0  0
   36.2790   21.1450   35.5380 C   0  0  0  0  0  0  0  0  0  0  0  0
   37.4530   21.8650   35.4020 C   0  0  0  0  0  0  0  0  0  0  0  0
   37.9980   21.9190   34.1350 C   0  0  0  0  0  0  0  0  0  0  0  0
   37.4250   21.2930   33.0320 C   0  0  0  0  0  0  0  0  0  0  0  0
   39.9230   22.9160   37.8970 C   0  0  0  0  0  0  0  0  0  0  0  0
   39.1580   23.7770   38.7300 C   0  0  0  0  0  0  0  0  0  0  0  0
   37.8050   23.9760   38.4140 C   0  0  0  0  0  0  0  0  0  0  0  0
   37.3010   23.3350   37.3270 N   0  0  0  0  0  0  0  0  0  0  0  0
   38.0580   22.5230   36.5560 C   0  0  0  0  0  0  0  0  0  0  0  0
   39.3430   22.3150   36.8320 N   0  0  0  0  0  0  0  0  0  0  0  0
   35.4770   19.7900   31.9320 S   0  0  0  0  0  0  0  0  0  0  0  0
   35.4570   18.2930   32.1060 O   0  0  0  0  0  0  0  0  0  0  0  0
   34.0760   20.3190   31.8160 O   0  0  0  0  0  0  0  0  0  0  0  0
   36.4010   20.1160   30.4450 C   0  0  0  0  0  0  0  0  0  0  0  0
   37.7100   19.3370   30.2640 C   0  0  0  0  0  0  0  0  0  0  0  0
   36.5140   19.0570   29.4080 C   0  0  0  0  0  0  0  0  0  0  0  0
   34.7088   19.9341   34.6581 H   0  0  0  0  0  0  0  0  0  0  0  0
   35.8248   21.0876   36.5382 H   0  0  0  0  0  0  0  0  0  0  0  0
   38.9305   22.4842   33.9901 H   0  0  0  0  0  0  0  0  0  0  0  0
   37.8820   21.3505   32.0331 H   0  0  0  0  0  0  0  0  0  0  0  0
   40.9858   22.7382   38.1178 H   0  0  0  0  0  0  0  0  0  0  0  0
   39.6141   24.2740   39.5989 H   0  0  0  0  0  0  0  0  0  0  0  0
   37.1709   24.6319   39.0286 H   0  0  0  0  0  0  0  0  0  0  0  0
   36.0922   21.1717   30.4304 H   0  0  0  0  0  0  0  0  0  0  0  0
   38.5939   19.8319   29.8353 H   0  0  0  0  0  0  0  0  0  0  0  0
   38.3659   18.7413   30.9159 H   0  0  0  0  0  0  0  0  0  0  0  0
   36.5283   19.3358   28.3440 H   0  0  0  0  0  0  0  0  0  0  0  0
   35.9361   18.1516   29.1707 H   0  0  0  0  0  0  0  0  0  0  0  0
  1  2  2  0
  2  3  1  0
  4  3  2  0
  4 11  1  0
  5  4  1  0
  6  1  1  0
  6  5  2  0
  7  8  2  0
  9  8  1  0
 10  9  2  0
 11 12  2  0
 11 10  1  0
 12  7  1  0
 13 14  2  0
 13  1  1  0
 15 13  2  0
 16 13  1  0
 17 16  1  0
 18 17  1  0
 18 16  1  0
  2 19  1  0
  3 20  1  0
  5 21  1  0
  6 22  1  0
  7 23  1  0
  8 24  1  0
  9 25  1  0
 16 26  1  0
 17 27  1  0
 17 28  1  0
 18 29  1  0
 18 30  1  0
M  ISO  8  19  14  20  14  21  14  22  14  23  14  24  14  25  14  26  13
M  ISO  4  27  13  28  13  29  13  30  13
M  END
>  <minimizedAffinity>  (1) 
-4.66487217

>  <minimizedRMSD>  (1) 
1.74730921

$$$$
