
     RDKit          3D

 51 55  0  0  1  0  0  0  0  0999 V2000
   35.9860   20.0270   31.3140 S   0  0  0  0  0  0  0  0  0  0  0  0
   34.7050   19.3030   31.5780 O   0  0  0  0  0  0  0  0  0  0  0  0
   35.6750   21.1790   30.3460 O   0  0  0  0  0  0  0  0  0  0  0  0
   37.9490   18.4430   31.7290 N   0  0  0  0  0  0  0  0  0  0  0  0
   37.2280   17.4940   32.4820 C   0  0  0  0  0  0  0  0  0  0  0  0
   36.2160   16.9110   31.5280 C   0  0  0  0  0  0  0  0  0  0  0  0
   36.4050   17.6650   30.2220 C   0  0  0  0  0  0  0  0  0  0  0  0
   37.1250   18.8990   30.5940 C   0  0  1  0  0  0  0  0  0  0  0  0
   38.0010   19.4820   29.6110 C   0  0  0  0  0  0  0  0  0  0  0  0
   39.1290   20.2680   29.7200 C   0  0  0  0  0  0  0  0  0  0  0  0
   39.9140   20.8650   28.7660 C   0  0  0  0  0  0  0  0  0  0  0  0
   39.5450   20.6670   27.4560 C   0  0  0  0  0  0  0  0  0  0  0  0
   38.4290   19.8940   27.2080 C   0  0  0  0  0  0  0  0  0  0  0  0
   38.1450   19.7450   25.8670 C   0  0  0  0  0  0  0  0  0  0  0  0
   37.0690   18.9930   25.4780 C   0  0  0  0  0  0  0  0  0  0  0  0
   36.3070   18.4090   26.4530 C   0  0  0  0  0  0  0  0  0  0  0  0
   36.6460   18.5990   27.7570 C   0  0  0  0  0  0  0  0  0  0  0  0
   37.7030   19.3350   28.2470 C   0  0  0  0  0  0  0  0  0  0  0  0
   36.6860   20.7810   32.6900 C   0  0  0  0  0  0  0  0  0  0  0  0
   35.9490   20.6360   33.8960 C   0  0  0  0  0  0  0  0  0  0  0  0
   36.4880   21.1870   35.0180 C   0  0  0  0  0  0  0  0  0  0  0  0
   37.7060   21.8710   35.0270 C   0  0  0  0  0  0  0  0  0  0  0  0
   38.3560   21.9710   33.8210 C   0  0  0  0  0  0  0  0  0  0  0  0
   37.8630   21.4340   32.6500 C   0  0  0  0  0  0  0  0  0  0  0  0
   39.9940   22.7720   37.7420 C   0  0  0  0  0  0  0  0  0  0  0  0
   39.1590   23.4850   38.6240 C   0  0  0  0  0  0  0  0  0  0  0  0
   37.8210   23.6420   38.2650 C   0  0  0  0  0  0  0  0  0  0  0  0
   37.3770   23.1090   37.0930 N   0  0  0  0  0  0  0  0  0  0  0  0
   38.2140   22.4320   36.2770 C   0  0  0  0  0  0  0  0  0  0  0  0
   39.5170   22.2570   36.5880 N   0  0  0  0  0  0  0  0  0  0  0  0
   38.1854   19.2478   32.3268 H   0  0  0  0  0  0  0  0  0  0  0  0
   37.9007   16.7085   32.8567 H   0  0  0  0  0  0  0  0  0  0  0  0
   36.7473   17.9488   33.3607 H   0  0  0  0  0  0  0  0  0  0  0  0
   36.4007   15.8366   31.3814 H   0  0  0  0  0  0  0  0  0  0  0  0
   35.1899   17.0112   31.9114 H   0  0  0  0  0  0  0  0  0  0  0  0
   35.4314   17.9066   29.7707 H   0  0  0  0  0  0  0  0  0  0  0  0
   36.9582   17.0720   29.4788 H   0  0  0  0  0  0  0  0  0  0  0  0
   39.4573   20.4481   30.7543 H   0  0  0  0  0  0  0  0  0  0  0  0
   40.7923   21.4702   29.0349 H   0  0  0  0  0  0  0  0  0  0  0  0
   40.1217   21.1111   26.6313 H   0  0  0  0  0  0  0  0  0  0  0  0
   38.7813   20.2291   25.1115 H   0  0  0  0  0  0  0  0  0  0  0  0
   36.8244   18.8622   24.4135 H   0  0  0  0  0  0  0  0  0  0  0  0
   35.4338   17.7953   26.1867 H   0  0  0  0  0  0  0  0  0  0  0  0
   36.0039   18.1099   28.5044 H   0  0  0  0  0  0  0  0  0  0  0  0
   34.9871   20.1030   33.9219 H   0  0  0  0  0  0  0  0  0  0  0  0
   35.9369   21.0887   35.9649 H   0  0  0  0  0  0  0  0  0  0  0  0
   39.3168   22.5055   33.7874 H   0  0  0  0  0  0  0  0  0  0  0  0
   38.4181   21.5367   31.7059 H   0  0  0  0  0  0  0  0  0  0  0  0
   41.0546   22.6319   37.9977 H   0  0  0  0  0  0  0  0  0  0  0  0
   39.5490   23.9035   39.5636 H   0  0  0  0  0  0  0  0  0  0  0  0
   37.1306   24.1911   38.9221 H   0  0  0  0  0  0  0  0  0  0  0  0
  1  2  2  0
  1 19  1  0
  3  1  2  0
  4  5  1  0
  6  5  1  0
  7  8  1  0
  7  6  1  0
  8  1  1  0
  8  4  1  0
  9 10  2  0
  8  9  1  6
 11 10  1  0
 12 11  2  0
 13 12  1  0
 13 18  2  0
 14 13  1  0
 15 14  2  0
 15 16  1  0
 16 17  2  0
 17 18  1  0
 18  9  1  0
 19 20  2  0
 20 21  1  0
 21 22  2  0
 22 29  1  0
 23 22  1  0
 24 19  1  0
 24 23  2  0
 25 26  2  0
 27 26  1  0
 28 27  2  0
 29 30  2  0
 29 28  1  0
 30 25  1  0
  4 31  1  0
  5 32  1  0
  5 33  1  0
  6 34  1  0
  6 35  1  0
  7 36  1  0
  7 37  1  0
 10 38  1  0
 11 39  1  0
 12 40  1  0
 14 41  1  0
 15 42  1  0
 16 43  1  0
 17 44  1  0
 20 45  1  0
 21 46  1  0
 23 47  1  0
 24 48  1  0
 25 49  1  0
 26 50  1  0
 27 51  1  0
M  ISO  8  31   5  32  13  33  13  34  13  35  13  36  13  37  13  38  14
M  ISO  8  39  14  40  14  41  14  42  14  43  14  44  14  45  14  46  14
M  ISO  5  47  14  48  14  49  14  50  14  51  14
M  END
>  <minimizedAffinity>  (1) 
-5.11400747

>  <minimizedRMSD>  (1) 
2.32941675

$$$$
