
     RDKit          3D

 49 53  0  0  1  0  0  0  0  0999 V2000
   35.9410   20.4800   31.4160 S   0  0  0  0  0  0  0  0  0  0  0  0
   34.7860   19.5770   31.6590 O   0  0  0  0  0  0  0  0  0  0  0  0
   35.4600   21.6590   30.5580 O   0  0  0  0  0  0  0  0  0  0  0  0
   38.0280   18.9650   31.6080 N   0  0  0  0  0  0  0  0  0  0  0  0
   37.3370   17.8600   32.1680 C   0  0  0  0  0  0  0  0  0  0  0  0
   36.3940   17.3930   31.0920 C   0  0  0  0  0  0  0  0  0  0  0  0
   36.5940   18.3600   29.9300 C   0  0  0  0  0  0  0  0  0  0  0  0
   37.1810   19.5780   30.5550 C   0  0  1  0  0  0  0  0  0  0  0  0
   38.1580   20.3480   29.7970 C   0  0  0  0  0  0  0  0  0  0  0  0
   38.8270   21.5540   29.9060 C   0  0  0  0  0  0  0  0  0  0  0  0
   39.5880   21.8980   28.8770 N   0  0  0  0  0  0  0  0  0  0  0  0
   39.4220   20.8730   28.0360 C   0  0  0  0  0  0  0  0  0  0  0  0
   40.0210   20.7350   26.7820 C   0  0  0  0  0  0  0  0  0  0  0  0
   39.7720   19.6200   26.0140 C   0  0  0  0  0  0  0  0  0  0  0  0
   38.9280   18.6440   26.4920 C   0  0  0  0  0  0  0  0  0  0  0  0
   38.3660   18.8270   27.7270 C   0  0  0  0  0  0  0  0  0  0  0  0
   38.5690   19.9160   28.5500 C   0  0  0  0  0  0  0  0  0  0  0  0
   36.6160   21.1910   32.8280 C   0  0  0  0  0  0  0  0  0  0  0  0
   36.0740   20.7400   34.0490 C   0  0  0  0  0  0  0  0  0  0  0  0
   36.6120   21.2600   35.1950 C   0  0  0  0  0  0  0  0  0  0  0  0
   37.6440   22.1900   35.2020 C   0  0  0  0  0  0  0  0  0  0  0  0
   38.1210   22.5820   33.9760 C   0  0  0  0  0  0  0  0  0  0  0  0
   37.6210   22.0950   32.7880 C   0  0  0  0  0  0  0  0  0  0  0  0
   39.9220   22.8660   37.9890 C   0  0  0  0  0  0  0  0  0  0  0  0
   39.1360   23.6300   38.8570 C   0  0  0  0  0  0  0  0  0  0  0  0
   37.8240   23.9050   38.4670 C   0  0  0  0  0  0  0  0  0  0  0  0
   37.3630   23.4270   37.2750 N   0  0  0  0  0  0  0  0  0  0  0  0
   38.1620   22.6920   36.4720 C   0  0  0  0  0  0  0  0  0  0  0  0
   39.4400   22.4050   36.8160 N   0  0  0  0  0  0  0  0  0  0  0  0
   38.2226   19.6597   32.3431 H   0  0  0  0  0  0  0  0  0  0  0  0
   38.0428   17.0598   32.4354 H   0  0  0  0  0  0  0  0  0  0  0  0
   36.8030   18.1351   33.0895 H   0  0  0  0  0  0  0  0  0  0  0  0
   36.6396   16.3658   30.7844 H   0  0  0  0  0  0  0  0  0  0  0  0
   35.3504   17.3817   31.4396 H   0  0  0  0  0  0  0  0  0  0  0  0
   35.6327   18.5944   29.4494 H   0  0  0  0  0  0  0  0  0  0  0  0
   37.2391   17.9411   29.1436 H   0  0  0  0  0  0  0  0  0  0  0  0
   38.7325   22.1919   30.7972 H   0  0  0  0  0  0  0  0  0  0  0  0
   40.1633   22.7437   28.7559 H   0  0  0  0  0  0  0  0  0  0  0  0
   40.6941   21.5199   26.4067 H   0  0  0  0  0  0  0  0  0  0  0  0
   40.2438   19.5102   25.0264 H   0  0  0  0  0  0  0  0  0  0  0  0
   38.7112   17.7431   25.8992 H   0  0  0  0  0  0  0  0  0  0  0  0
   37.6944   18.0375   28.0952 H   0  0  0  0  0  0  0  0  0  0  0  0
   35.2567   20.0044   34.0791 H   0  0  0  0  0  0  0  0  0  0  0  0
   36.2062   20.9241   36.1607 H   0  0  0  0  0  0  0  0  0  0  0  0
   38.9384   23.3173   33.9404 H   0  0  0  0  0  0  0  0  0  0  0  0
   38.0314   22.4349   31.8257 H   0  0  0  0  0  0  0  0  0  0  0  0
   40.9602   22.6348   38.2696 H   0  0  0  0  0  0  0  0  0  0  0  0
   39.5366   24.0007   39.8120 H   0  0  0  0  0  0  0  0  0  0  0  0
   37.1668   24.5026   39.1158 H   0  0  0  0  0  0  0  0  0  0  0  0
  1  2  2  0
  1 18  1  0
  3  1  2  0
  4  5  1  0
  6  5  1  0
  7  8  1  0
  7  6  1  0
  8  1  1  0
  8  4  1  0
  9 10  2  0
  8  9  1  6
 11 10  1  0
 12 17  2  0
 12 11  1  0
 13 12  1  0
 14 15  1  0
 14 13  2  0
 15 16  2  0
 16 17  1  0
 17  9  1  0
 18 19  2  0
 19 20  1  0
 20 21  2  0
 21 28  1  0
 22 21  1  0
 23 18  1  0
 23 22  2  0
 24 25  2  0
 26 25  1  0
 27 26  2  0
 28 29  2  0
 28 27  1  0
 29 24  1  0
  4 30  1  0
  5 31  1  0
  5 32  1  0
  6 33  1  0
  6 34  1  0
  7 35  1  0
  7 36  1  0
 10 37  1  0
 11 38  1  0
 13 39  1  0
 14 40  1  0
 15 41  1  0
 16 42  1  0
 19 43  1  0
 20 44  1  0
 22 45  1  0
 23 46  1  0
 24 47  1  0
 25 48  1  0
 26 49  1  0
M  ISO  8  30   5  31  13  32  13  33  13  34  13  35  13  36  13  37  14
M  ISO  8  38   9  39  14  40  14  41  14  42  14  43  14  44  14  45  14
M  ISO  4  46  14  47  14  48  14  49  14
M  END
>  <minimizedAffinity>  (1) 
-5.0731616

>  <minimizedRMSD>  (1) 
0.735067546

$$$$
