
     RDKit          3D

 46 49  0  0  1  0  0  0  0  0999 V2000
   35.9410   20.6900   31.4740 S   0  0  0  0  0  0  0  0  0  0  0  0
   34.8470   19.7130   31.6870 O   0  0  0  0  0  0  0  0  0  0  0  0
   35.4030   21.8740   30.6580 O   0  0  0  0  0  0  0  0  0  0  0  0
   38.0510   19.1740   31.5660 N   0  0  0  0  0  0  0  0  0  0  0  0
   37.3590   18.0230   32.0060 C   0  0  0  0  0  0  0  0  0  0  0  0
   36.4380   17.6530   30.8650 C   0  0  0  0  0  0  0  0  0  0  0  0
   36.6850   18.7260   29.8020 C   0  0  0  0  0  0  0  0  0  0  0  0
   37.2130   19.8850   30.5580 C   0  0  1  0  0  0  0  0  0  0  0  0
   38.1950   20.7360   29.9560 N   0  0  0  0  0  0  0  0  0  0  0  0
   38.2640   22.1020   29.9800 C   0  0  0  0  0  0  0  0  0  0  0  0
   39.2570   22.8420   29.3820 C   0  0  0  0  0  0  0  0  0  0  0  0
   40.2700   22.2020   28.7040 C   0  0  0  0  0  0  0  0  0  0  0  0
   41.2750   23.0030   28.1010 N   0  0  0  0  0  0  0  0  0  0  0  0
   40.2160   20.8550   28.6710 N   0  0  0  0  0  0  0  0  0  0  0  0
   39.2130   20.1720   29.2780 C   0  0  0  0  0  0  0  0  0  0  0  0
   39.3910   18.9410   29.1050 O   0  0  0  0  0  0  0  0  0  0  0  0
   36.6140   21.3820   32.8970 C   0  0  0  0  0  0  0  0  0  0  0  0
   36.1560   20.8230   34.1110 C   0  0  0  0  0  0  0  0  0  0  0  0
   36.6890   21.3280   35.2650 C   0  0  0  0  0  0  0  0  0  0  0  0
   37.6410   22.3450   35.2860 C   0  0  0  0  0  0  0  0  0  0  0  0
   38.0320   22.8330   34.0770 C   0  0  0  0  0  0  0  0  0  0  0  0
   37.5420   22.3800   32.8560 C   0  0  0  0  0  0  0  0  0  0  0  0
   39.9100   22.9270   38.1030 C   0  0  0  0  0  0  0  0  0  0  0  0
   39.1310   23.7290   38.9640 C   0  0  0  0  0  0  0  0  0  0  0  0
   37.8450   24.0500   38.5540 C   0  0  0  0  0  0  0  0  0  0  0  0
   37.3850   23.5900   37.3580 N   0  0  0  0  0  0  0  0  0  0  0  0
   38.1610   22.8250   36.5630 C   0  0  0  0  0  0  0  0  0  0  0  0
   39.4250   22.4860   36.9220 N   0  0  0  0  0  0  0  0  0  0  0  0
   38.2313   19.7963   32.3667 H   0  0  0  0  0  0  0  0  0  0  0  0
   38.0643   17.2047   32.2132 H   0  0  0  0  0  0  0  0  0  0  0  0
   36.8048   18.2080   32.9380 H   0  0  0  0  0  0  0  0  0  0  0  0
   36.6864   16.6553   30.4740 H   0  0  0  0  0  0  0  0  0  0  0  0
   35.3842   17.6120   31.1776 H   0  0  0  0  0  0  0  0  0  0  0  0
   35.7472   18.9900   29.2912 H   0  0  0  0  0  0  0  0  0  0  0  0
   37.3796   18.3864   29.0195 H   0  0  0  0  0  0  0  0  0  0  0  0
   37.4709   22.6458   30.5142 H   0  0  0  0  0  0  0  0  0  0  0  0
   39.2420   23.9401   29.4451 H   0  0  0  0  0  0  0  0  0  0  0  0
   42.0479   22.5580   27.5858 H   0  0  0  0  0  0  0  0  0  0  0  0
   41.2312   24.0291   28.1787 H   0  0  0  0  0  0  0  0  0  0  0  0
   35.4055   20.0189   34.1274 H   0  0  0  0  0  0  0  0  0  0  0  0
   36.3491   20.9104   36.2242 H   0  0  0  0  0  0  0  0  0  0  0  0
   38.7831   23.6366   34.0644 H   0  0  0  0  0  0  0  0  0  0  0  0
   37.8870   22.8069   31.9027 H   0  0  0  0  0  0  0  0  0  0  0  0
   40.9337   22.6553   38.3999 H   0  0  0  0  0  0  0  0  0  0  0  0
   39.5288   24.0866   39.9252 H   0  0  0  0  0  0  0  0  0  0  0  0
   37.2005   24.6728   39.1918 H   0  0  0  0  0  0  0  0  0  0  0  0
  1  2  2  0
  1 17  1  0
  3  1  2  0
  4  5  1  0
  6  5  1  0
  7  8  1  0
  7  6  1  0
  8  1  1  0
  8  4  1  0
  9 10  1  0
  8  9  1  6
 11 10  2  0
 12 11  1  0
 13 12  1  0
 14 12  2  0
 14 15  1  0
 15  9  1  0
 16 15  2  0
 17 18  2  0
 18 19  1  0
 19 20  2  0
 20 27  1  0
 21 20  1  0
 22 17  1  0
 22 21  2  0
 23 24  2  0
 25 24  1  0
 26 25  2  0
 27 28  2  0
 27 26  1  0
 28 23  1  0
  4 29  1  0
  5 30  1  0
  5 31  1  0
  6 32  1  0
  6 33  1  0
  7 34  1  0
  7 35  1  0
 10 36  1  0
 11 37  1  0
 13 38  1  0
 13 39  1  0
 18 40  1  0
 19 41  1  0
 21 42  1  0
 22 43  1  0
 23 44  1  0
 24 45  1  0
 25 46  1  0
M  ISO  8  29   5  30  13  31  13  32  13  33  13  34  13  35  13  36  14
M  ISO  8  37  14  40  14  41  14  42  14  43  14  44  14  45  14  46  14
M  END
>  <minimizedAffinity>  (1) 
-4.77724504

>  <minimizedRMSD>  (1) 
0.542752445

$$$$
