
     RDKit          3D

 42 45  0  0  1  0  0  0  0  0999 V2000
   35.9010   20.4300   31.4630 S   0  0  0  0  0  0  0  0  0  0  0  0
   34.7690   19.5050   31.7080 O   0  0  0  0  0  0  0  0  0  0  0  0
   35.4020   21.6060   30.6050 O   0  0  0  0  0  0  0  0  0  0  0  0
   38.0060   18.9190   31.6120 N   0  0  0  0  0  0  0  0  0  0  0  0
   37.3260   17.8080   32.1610 C   0  0  0  0  0  0  0  0  0  0  0  0
   36.3650   17.3530   31.0830 C   0  0  0  0  0  0  0  0  0  0  0  0
   36.5780   18.3410   29.9320 C   0  0  0  0  0  0  0  0  0  0  0  0
   37.1420   19.5520   30.5770 C   0  0  1  0  0  0  0  0  0  0  0  0
   38.1020   20.3750   29.8140 C   0  0  0  0  0  0  0  0  0  0  0  0
   38.4310   19.6610   28.6440 C   0  0  0  0  0  0  0  0  0  0  0  0
   39.3560   20.3590   27.8480 C   0  0  0  0  0  0  0  0  0  0  0  0
   39.5690   21.4760   28.5480 N   0  0  0  0  0  0  0  0  0  0  0  0
   38.8560   21.4470   29.6280 N   0  0  0  0  0  0  0  0  0  0  0  0
   36.5920   21.1490   32.8620 C   0  0  0  0  0  0  0  0  0  0  0  0
   36.0420   20.7250   34.0910 C   0  0  0  0  0  0  0  0  0  0  0  0
   36.5980   21.2580   35.2260 C   0  0  0  0  0  0  0  0  0  0  0  0
   37.6360   22.1630   35.2250 C   0  0  0  0  0  0  0  0  0  0  0  0
   38.1190   22.5310   33.9950 C   0  0  0  0  0  0  0  0  0  0  0  0
   37.6110   22.0360   32.8080 C   0  0  0  0  0  0  0  0  0  0  0  0
   39.9250   22.8710   37.9910 C   0  0  0  0  0  0  0  0  0  0  0  0
   39.1360   23.6500   38.8550 C   0  0  0  0  0  0  0  0  0  0  0  0
   37.8310   23.9180   38.4680 C   0  0  0  0  0  0  0  0  0  0  0  0
   37.3660   23.4230   37.2850 N   0  0  0  0  0  0  0  0  0  0  0  0
   38.1620   22.6770   36.4860 C   0  0  0  0  0  0  0  0  0  0  0  0
   39.4390   22.3920   36.8230 N   0  0  0  0  0  0  0  0  0  0  0  0
   38.2102   19.6013   32.3561 H   0  0  0  0  0  0  0  0  0  0  0  0
   38.0364   17.0051   32.4074 H   0  0  0  0  0  0  0  0  0  0  0  0
   36.8026   18.0679   33.0929 H   0  0  0  0  0  0  0  0  0  0  0  0
   36.5989   16.3271   30.7623 H   0  0  0  0  0  0  0  0  0  0  0  0
   35.3222   17.3394   31.4330 H   0  0  0  0  0  0  0  0  0  0  0  0
   35.6230   18.5733   29.4380 H   0  0  0  0  0  0  0  0  0  0  0  0
   37.2408   17.9367   29.1528 H   0  0  0  0  0  0  0  0  0  0  0  0
   38.0143   18.6765   28.3850 H   0  0  0  0  0  0  0  0  0  0  0  0
   39.7960   20.0589   26.8855 H   0  0  0  0  0  0  0  0  0  0  0  0
   40.2014   22.2407   28.2719 H   0  0  0  0  0  0  0  0  0  0  0  0
   35.2114   20.0052   34.1361 H   0  0  0  0  0  0  0  0  0  0  0  0
   36.1893   20.9430   36.1975 H   0  0  0  0  0  0  0  0  0  0  0  0
   38.9481   23.2526   33.9509 H   0  0  0  0  0  0  0  0  0  0  0  0
   38.0266   22.3567   31.8414 H   0  0  0  0  0  0  0  0  0  0  0  0
   40.9643   22.6451   38.2719 H   0  0  0  0  0  0  0  0  0  0  0  0
   39.5389   24.0334   39.8040 H   0  0  0  0  0  0  0  0  0  0  0  0
   37.1761   24.5251   39.1103 H   0  0  0  0  0  0  0  0  0  0  0  0
  1  2  2  0
  1 14  1  0
  3  1  2  0
  4  5  1  0
  6  5  1  0
  7  8  1  0
  7  6  1  0
  8  1  1  0
  8  4  1  0
  8  9  1  6
 10  9  1  0
 11 12  1  0
 11 10  2  0
 12 13  1  0
 13  9  2  0
 14 15  2  0
 15 16  1  0
 17 16  2  0
 17 24  1  0
 18 17  1  0
 19 14  1  0
 19 18  2  0
 20 21  2  0
 22 21  1  0
 23 22  2  0
 24 25  2  0
 24 23  1  0
 25 20  1  0
  4 26  1  0
  5 27  1  0
  5 28  1  0
  6 29  1  0
  6 30  1  0
  7 31  1  0
  7 32  1  0
 10 33  1  0
 11 34  1  0
 12 35  1  0
 15 36  1  0
 16 37  1  0
 18 38  1  0
 19 39  1  0
 20 40  1  0
 21 41  1  0
 22 42  1  0
M  ISO  8  26   5  27  13  28  13  29  13  30  13  31  13  32  13  33  14
M  ISO  8  34  14  35   9  36  14  37  14  38  14  39  14  40  14  41  14
M  ISO  1  42  14
M  END
>  <minimizedAffinity>  (1) 
-4.7764535

>  <minimizedRMSD>  (1) 
0.994561672

$$$$
