
     RDKit          3D

 38 40  0  0  1  0  0  0  0  0999 V2000
   36.5720   21.1730   32.8630 C   0  0  0  0  0  0  0  0  0  0  0  0
   36.0400   20.7220   34.0930 C   0  0  0  0  0  0  0  0  0  0  0  0
   36.5950   21.2480   35.2310 C   0  0  0  0  0  0  0  0  0  0  0  0
   37.6300   22.1820   35.2200 C   0  0  0  0  0  0  0  0  0  0  0  0
   38.0910   22.5680   33.9910 C   0  0  0  0  0  0  0  0  0  0  0  0
   37.5860   22.0840   32.7890 C   0  0  0  0  0  0  0  0  0  0  0  0
   39.9120   22.8780   37.9920 C   0  0  0  0  0  0  0  0  0  0  0  0
   39.1330   23.6530   38.8550 C   0  0  0  0  0  0  0  0  0  0  0  0
   37.8360   23.9220   38.4680 C   0  0  0  0  0  0  0  0  0  0  0  0
   37.3690   23.4360   37.2860 N   0  0  0  0  0  0  0  0  0  0  0  0
   38.1590   22.6900   36.4830 C   0  0  0  0  0  0  0  0  0  0  0  0
   39.4260   22.4050   36.8220 N   0  0  0  0  0  0  0  0  0  0  0  0
   35.8510   20.4490   31.4770 S   0  0  0  0  0  0  0  0  0  0  0  0
   34.7750   19.4790   31.7280 O   0  0  0  0  0  0  0  0  0  0  0  0
   35.3320   21.6250   30.6310 O   0  0  0  0  0  0  0  0  0  0  0  0
   38.0170   18.9880   31.5570 N   0  0  0  0  0  0  0  0  0  0  0  0
   37.3690   17.8490   32.0890 C   0  0  0  0  0  0  0  0  0  0  0  0
   36.4120   17.3960   31.0110 C   0  0  0  0  0  0  0  0  0  0  0  0
   36.5910   18.4140   29.8790 C   0  0  0  0  0  0  0  0  0  0  0  0
   37.1230   19.6210   30.5500 C   0  0  1  0  0  0  0  0  0  0  0  0
   38.0570   20.5360   29.8390 C   0  0  0  0  0  0  0  0  0  0  0  0
   35.2228   19.9869   34.1347 H   0  0  0  0  0  0  0  0  0  0  0  0
   36.2031   20.9157   36.2036 H   0  0  0  0  0  0  0  0  0  0  0  0
   38.9080   23.3034   33.9514 H   0  0  0  0  0  0  0  0  0  0  0  0
   37.9861   22.4205   31.8211 H   0  0  0  0  0  0  0  0  0  0  0  0
   40.9501   22.6460   38.2722 H   0  0  0  0  0  0  0  0  0  0  0  0
   39.5373   24.0334   39.8047 H   0  0  0  0  0  0  0  0  0  0  0  0
   37.1819   24.5272   39.1129 H   0  0  0  0  0  0  0  0  0  0  0  0
   38.2158   19.6582   32.3135 H   0  0  0  0  0  0  0  0  0  0  0  0
   38.1005   17.0584   32.3121 H   0  0  0  0  0  0  0  0  0  0  0  0
   36.8485   18.0755   33.0312 H   0  0  0  0  0  0  0  0  0  0  0  0
   36.6675   16.3833   30.6660 H   0  0  0  0  0  0  0  0  0  0  0  0
   35.3730   17.3503   31.3692 H   0  0  0  0  0  0  0  0  0  0  0  0
   35.6275   18.6308   29.3945 H   0  0  0  0  0  0  0  0  0  0  0  0
   37.2590   18.0463   29.0862 H   0  0  0  0  0  0  0  0  0  0  0  0
   38.6410   21.1081   30.5749 H   0  0  0  0  0  0  0  0  0  0  0  0
   38.7387   19.9465   29.2083 H   0  0  0  0  0  0  0  0  0  0  0  0
   37.4816   21.2296   29.2083 H   0  0  0  0  0  0  0  0  0  0  0  0
  1  2  2  0
  2  3  1  0
  4  3  2  0
  4 11  1  0
  5  4  1  0
  6  1  1  0
  6  5  2  0
  7  8  2  0
  9  8  1  0
 10  9  2  0
 11 12  2  0
 11 10  1  0
 12  7  1  0
 13 14  2  0
 13  1  1  0
 15 13  2  0
 16 17  1  0
 18 17  1  0
 19 20  1  0
 19 18  1  0
 20 21  1  6
 20 13  1  0
 20 16  1  0
  2 22  1  0
  3 23  1  0
  5 24  1  0
  6 25  1  0
  7 26  1  0
  8 27  1  0
  9 28  1  0
 16 29  1  0
 17 30  1  0
 17 31  1  0
 18 32  1  0
 18 33  1  0
 19 34  1  0
 19 35  1  0
 21 36  1  0
 21 37  1  0
 21 38  1  0
M  ISO  8  22  14  23  14  24  14  25  14  26  14  27  14  28  14  29   5
M  ISO  8  30  13  31  13  32  13  33  13  34  13  35  13  36   8  37   8
M  ISO  1  38   8
M  END
>  <minimizedAffinity>  (1) 
-4.67907143

>  <minimizedRMSD>  (1) 
0.346612513

$$$$
