
     RDKit          3D

 50 53  0  0  1  0  0  0  0  0999 V2000
   35.8320   20.3470   31.4690 S   0  0  0  0  0  0  0  0  0  0  0  0
   34.6890   19.4370   31.7600 O   0  0  0  0  0  0  0  0  0  0  0  0
   35.3100   21.5150   30.6110 O   0  0  0  0  0  0  0  0  0  0  0  0
   37.9980   18.9480   31.5830 N   0  0  0  0  0  0  0  0  0  0  0  0
   37.4080   17.8530   32.2570 C   0  0  0  0  0  0  0  0  0  0  0  0
   36.3980   17.2690   31.3080 C   0  0  0  0  0  0  0  0  0  0  0  0
   36.4560   18.1730   30.0740 C   0  0  0  0  0  0  0  0  0  0  0  0
   37.0430   19.4530   30.5700 C   0  0  1  0  0  0  0  0  0  0  0  0
   37.7590   20.1840   29.6190 N   0  0  0  0  0  0  0  0  0  0  0  0
   38.0070   19.4230   28.3810 C   0  0  0  0  0  0  0  0  0  0  0  0
   39.0990   18.4550   28.6650 C   0  0  0  0  0  0  0  0  0  0  0  0
   40.4110   19.2500   28.5030 C   0  0  0  0  0  0  0  0  0  0  0  0
   40.1070   20.6490   28.8780 C   0  0  0  0  0  0  0  0  0  0  0  0
   38.9820   20.8320   29.8830 C   0  0  0  0  0  0  0  0  0  0  0  0
   36.5290   21.0890   32.8510 C   0  0  0  0  0  0  0  0  0  0  0  0
   35.9780   20.6920   34.0930 C   0  0  0  0  0  0  0  0  0  0  0  0
   36.5300   21.2150   35.2290 C   0  0  0  0  0  0  0  0  0  0  0  0
   37.5950   22.1060   35.2050 C   0  0  0  0  0  0  0  0  0  0  0  0
   38.0780   22.4470   33.9560 C   0  0  0  0  0  0  0  0  0  0  0  0
   37.5490   21.9440   32.7900 C   0  0  0  0  0  0  0  0  0  0  0  0
   39.9360   22.8430   37.9230 C   0  0  0  0  0  0  0  0  0  0  0  0
   39.1490   23.6150   38.8040 C   0  0  0  0  0  0  0  0  0  0  0  0
   37.8340   23.8640   38.4420 C   0  0  0  0  0  0  0  0  0  0  0  0
   37.3580   23.3620   37.2680 N   0  0  0  0  0  0  0  0  0  0  0  0
   38.1450   22.6280   36.4530 C   0  0  0  0  0  0  0  0  0  0  0  0
   39.4310   22.3620   36.7690 N   0  0  0  0  0  0  0  0  0  0  0  0
   38.2140   19.6951   32.2584 H   0  0  0  0  0  0  0  0  0  0  0  0
   38.1727   17.1033   32.5083 H   0  0  0  0  0  0  0  0  0  0  0  0
   36.9359   18.1699   33.1986 H   0  0  0  0  0  0  0  0  0  0  0  0
   36.6658   16.2352   31.0444 H   0  0  0  0  0  0  0  0  0  0  0  0
   35.3901   17.2277   31.7466 H   0  0  0  0  0  0  0  0  0  0  0  0
   35.4475   18.3403   29.6678 H   0  0  0  0  0  0  0  0  0  0  0  0
   37.0497   17.7301   29.2608 H   0  0  0  0  0  0  0  0  0  0  0  0
   38.3107   20.1063   27.5742 H   0  0  0  0  0  0  0  0  0  0  0  0
   37.0959   18.8971   28.0594 H   0  0  0  0  0  0  0  0  0  0  0  0
   39.0100   18.0657   29.6900 H   0  0  0  0  0  0  0  0  0  0  0  0
   39.0616   17.5891   27.9876 H   0  0  0  0  0  0  0  0  0  0  0  0
   41.1876   18.8398   29.1653 H   0  0  0  0  0  0  0  0  0  0  0  0
   40.7870   19.1888   27.4711 H   0  0  0  0  0  0  0  0  0  0  0  0
   41.0188   21.0896   29.3074 H   0  0  0  0  0  0  0  0  0  0  0  0
   39.7668   21.1400   27.9543 H   0  0  0  0  0  0  0  0  0  0  0  0
   38.7749   21.9101   29.9523 H   0  0  0  0  0  0  0  0  0  0  0  0
   39.3531   20.3625   30.8059 H   0  0  0  0  0  0  0  0  0  0  0  0
   35.1349   19.9871   34.1423 H   0  0  0  0  0  0  0  0  0  0  0  0
   36.1133   20.9177   36.2026 H   0  0  0  0  0  0  0  0  0  0  0  0
   38.9212   23.1505   33.8914 H   0  0  0  0  0  0  0  0  0  0  0  0
   37.9641   22.2448   31.8167 H   0  0  0  0  0  0  0  0  0  0  0  0
   40.9832   22.6292   38.1831 H   0  0  0  0  0  0  0  0  0  0  0  0
   39.5642   24.0055   39.7448 H   0  0  0  0  0  0  0  0  0  0  0  0
   37.1814   24.4609   39.0960 H   0  0  0  0  0  0  0  0  0  0  0  0
  1  2  2  0
  1 15  1  0
  3  1  2  0
  4  5  1  0
  6  5  1  0
  7  8  1  0
  7  6  1  0
  8  1  1  0
  8  4  1  0
  9 14  1  0
  8  9  1  6
 10 11  1  0
 10  9  1  0
 12 11  1  0
 12 13  1  0
 13 14  1  0
 15 16  2  0
 16 17  1  0
 18 17  2  0
 18 25  1  0
 19 18  1  0
 20 15  1  0
 20 19  2  0
 21 22  2  0
 23 22  1  0
 24 23  2  0
 25 26  2  0
 25 24  1  0
 26 21  1  0
  4 27  1  0
  5 28  1  0
  5 29  1  0
  6 30  1  0
  6 31  1  0
  7 32  1  0
  7 33  1  0
 10 34  1  0
 10 35  1  0
 11 36  1  0
 11 37  1  0
 12 38  1  0
 12 39  1  0
 13 40  1  0
 13 41  1  0
 14 42  1  0
 14 43  1  0
 16 44  1  0
 17 45  1  0
 19 46  1  0
 20 47  1  0
 21 48  1  0
 22 49  1  0
 23 50  1  0
M  ISO  8  27   5  28  13  29  13  30  13  31  13  32  13  33  13  34  13
M  ISO  8  35  13  36  13  37  13  38  13  39  13  40  13  41  13  42  13
M  ISO  8  43  13  44  14  45  14  46  14  47  14  48  14  49  14  50  14
M  END
>  <minimizedAffinity>  (1) 
-4.67887926

>  <minimizedRMSD>  (1) 
1.35120916

$$$$
