
     RDKit          3D

 47 49  0  0  1  0  0  0  0  0999 V2000
   36.7020   21.1120   32.8370 C   0  0  0  0  0  0  0  0  0  0  0  0
   36.0850   20.7400   34.0540 C   0  0  0  0  0  0  0  0  0  0  0  0
   36.6030   21.2660   35.2070 C   0  0  0  0  0  0  0  0  0  0  0  0
   37.6930   22.1350   35.2180 C   0  0  0  0  0  0  0  0  0  0  0  0
   38.2210   22.4400   34.0030 C   0  0  0  0  0  0  0  0  0  0  0  0
   37.7530   21.9510   32.8040 C   0  0  0  0  0  0  0  0  0  0  0  0
   39.9210   22.8870   38.0220 C   0  0  0  0  0  0  0  0  0  0  0  0
   39.0990   23.6570   38.8710 C   0  0  0  0  0  0  0  0  0  0  0  0
   37.7920   23.9030   38.4590 C   0  0  0  0  0  0  0  0  0  0  0  0
   37.3610   23.3980   37.2680 N   0  0  0  0  0  0  0  0  0  0  0  0
   38.1920   22.6630   36.4860 C   0  0  0  0  0  0  0  0  0  0  0  0
   39.4570   22.4070   36.8520 N   0  0  0  0  0  0  0  0  0  0  0  0
   36.0730   20.3720   31.4220 S   0  0  0  0  0  0  0  0  0  0  0  0
   34.9080   19.4730   31.6610 O   0  0  0  0  0  0  0  0  0  0  0  0
   35.5760   21.5430   30.5490 O   0  0  0  0  0  0  0  0  0  0  0  0
   38.0450   18.7380   31.6460 N   0  0  0  0  0  0  0  0  0  0  0  0
   37.2790   17.6480   32.0960 C   0  0  0  0  0  0  0  0  0  0  0  0
   36.3720   17.2880   30.9500 C   0  0  0  0  0  0  0  0  0  0  0  0
   36.6630   18.3210   29.8730 C   0  0  0  0  0  0  0  0  0  0  0  0
   37.2800   19.4720   30.5740 C   0  0  1  0  0  0  0  0  0  0  0  0
   38.3660   20.0730   29.7810 C   0  0  0  0  0  0  0  0  0  0  0  0
   38.4470   19.5340   28.3570 C   0  0  0  0  0  0  0  0  0  0  0  0
   39.6680   19.4930   30.4310 C   0  0  0  0  0  0  0  0  0  0  0  0
   38.6260   21.5110   29.7540 C   0  0  0  0  0  0  0  0  0  0  0  0
   35.2239   20.0558   34.0734 H   0  0  0  0  0  0  0  0  0  0  0  0
   36.1392   20.9911   36.1658 H   0  0  0  0  0  0  0  0  0  0  0  0
   39.0815   23.1247   33.9759 H   0  0  0  0  0  0  0  0  0  0  0  0
   38.2227   22.2368   31.8512 H   0  0  0  0  0  0  0  0  0  0  0  0
   40.9583   22.6749   38.3203 H   0  0  0  0  0  0  0  0  0  0  0  0
   39.4777   24.0498   39.8262 H   0  0  0  0  0  0  0  0  0  0  0  0
   37.1140   24.4987   39.0879 H   0  0  0  0  0  0  0  0  0  0  0  0
   38.2329   19.3754   32.4330 H   0  0  0  0  0  0  0  0  0  0  0  0
   37.9313   16.7995   32.3502 H   0  0  0  0  0  0  0  0  0  0  0  0
   36.7085   17.8989   33.0024 H   0  0  0  0  0  0  0  0  0  0  0  0
   36.5961   16.2752   30.5839 H   0  0  0  0  0  0  0  0  0  0  0  0
   35.3129   17.2903   31.2470 H   0  0  0  0  0  0  0  0  0  0  0  0
   35.7312   18.6296   29.3764 H   0  0  0  0  0  0  0  0  0  0  0  0
   37.3270   17.9179   29.0941 H   0  0  0  0  0  0  0  0  0  0  0  0
   38.6104   18.4466   28.3853 H   0  0  0  0  0  0  0  0  0  0  0  0
   37.5063   19.7498   27.8292 H   0  0  0  0  0  0  0  0  0  0  0  0
   39.2827   20.0168   27.8292 H   0  0  0  0  0  0  0  0  0  0  0  0
   39.5797   19.5323   31.5267 H   0  0  0  0  0  0  0  0  0  0  0  0
   39.8038   18.4493   30.1113 H   0  0  0  0  0  0  0  0  0  0  0  0
   40.5348   20.0901   30.1113 H   0  0  0  0  0  0  0  0  0  0  0  0
   38.6946   21.8906   30.7841 H   0  0  0  0  0  0  0  0  0  0  0  0
   39.5733   21.7025   29.2288 H   0  0  0  0  0  0  0  0  0  0  0  0
   37.8057   22.0221   29.2288 H   0  0  0  0  0  0  0  0  0  0  0  0
  1  2  2  0
  2  3  1  0
  3  4  2  0
  4 11  1  0
  5  4  1  0
  6  1  1  0
  6  5  2  0
  7  8  2  0
  9  8  1  0
 10  9  2  0
 11 12  2  0
 11 10  1  0
 12  7  1  0
 13 14  2  0
 13  1  1  0
 15 13  2  0
 16 17  1  0
 18 17  1  0
 19 20  1  0
 19 18  1  0
 20 21  1  6
 20 13  1  0
 20 16  1  0
 21 23  1  0
 22 21  1  0
 24 21  1  0
  2 25  1  0
  3 26  1  0
  5 27  1  0
  6 28  1  0
  7 29  1  0
  8 30  1  0
  9 31  1  0
 16 32  1  0
 17 33  1  0
 17 34  1  0
 18 35  1  0
 18 36  1  0
 19 37  1  0
 19 38  1  0
 22 39  1  0
 22 40  1  0
 22 41  1  0
 23 42  1  0
 23 43  1  0
 23 44  1  0
 24 45  1  0
 24 46  1  0
 24 47  1  0
M  ISO  8  25  14  26  14  27  14  28  14  29  14  30  14  31  14  32   5
M  ISO  8  33  13  34  13  35  13  36  13  37  13  38  13  39   8  40   8
M  ISO  7  41   8  42   8  43   8  44   8  45   8  46   8  47   8
M  END
>  <minimizedAffinity>  (1) 
-4.58944893

>  <minimizedRMSD>  (1) 
0.591068983

$$$$
