
     RDKit          3D

 25 26  0  0  1  0  0  0  0  0999 V2000
   41.4200   22.4960   37.3870 C   0  0  2  0  0  0  0  0  0  0  0  0
   42.0980   23.3860   36.3570 C   0  0  0  0  0  0  0  0  0  0  0  0
   42.6870   22.4020   35.4090 C   0  0  0  0  0  0  0  0  0  0  0  0
   43.1030   21.2780   36.3110 C   0  0  0  0  0  0  0  0  0  0  0  0
   41.8440   21.1000   37.1560 C   0  0  1  0  0  0  0  0  0  0  0  0
   39.9360   22.6490   37.2120 C   0  0  0  0  0  0  0  0  0  0  0  0
   39.1380   23.2720   38.2060 C   0  0  0  0  0  0  0  0  0  0  0  0
   37.7690   23.3750   37.9670 C   0  0  0  0  0  0  0  0  0  0  0  0
   37.2760   22.8790   36.8100 N   0  0  0  0  0  0  0  0  0  0  0  0
   38.0680   22.2910   35.8860 C   0  0  0  0  0  0  0  0  0  0  0  0
   39.3890   22.1740   36.0790 N   0  0  0  0  0  0  0  0  0  0  0  0
   42.1450   20.3270   38.3140 N   0  0  0  0  0  0  0  0  0  0  0  0
   41.6959   22.7750   38.4146 H   0  0  0  0  0  0  0  0  0  0  0  0
   41.3676   24.0349   35.8517 H   0  0  0  0  0  0  0  0  0  0  0  0
   42.8412   24.0695   36.7934 H   0  0  0  0  0  0  0  0  0  0  0  0
   43.5535   22.8289   34.8827 H   0  0  0  0  0  0  0  0  0  0  0  0
   41.9900   22.0895   34.6174 H   0  0  0  0  0  0  0  0  0  0  0  0
   43.3380   20.3678   35.7398 H   0  0  0  0  0  0  0  0  0  0  0  0
   44.0148   21.4779   36.8930 H   0  0  0  0  0  0  0  0  0  0  0  0
   41.0215   20.5300   36.6993 H   0  0  0  0  0  0  0  0  0  0  0  0
   39.5845   23.6603   39.1333 H   0  0  0  0  0  0  0  0  0  0  0  0
   37.1040   23.8495   38.7036 H   0  0  0  0  0  0  0  0  0  0  0  0
   37.6206   21.9018   34.9596 H   0  0  0  0  0  0  0  0  0  0  0  0
   41.9311   20.8763   39.1586 H   0  0  0  0  0  0  0  0  0  0  0  0
   41.5771   19.4677   38.3104 H   0  0  0  0  0  0  0  0  0  0  0  0
  2  1  1  0
  3  4  1  0
  3  2  1  0
  4  5  1  0
  5  1  1  0
  5 12  1  0
  6  1  1  0
  6  7  2  0
  8  7  1  0
  9  8  2  0
 10 11  2  0
 10  9  1  0
 11  6  1  0
  1 13  1  1
  2 14  1  0
  2 15  1  0
  3 16  1  0
  3 17  1  0
  4 18  1  0
  4 19  1  0
  5 20  1  6
  7 21  1  0
  8 22  1  0
 10 23  1  0
 12 24  1  0
 12 25  1  0
M  ISO  8  13  13  14  13  15  13  16  13  17  13  18  13  19  13  20  13
M  ISO  5  21  14  22  14  23  14  24   5  25   5
M  END
>  <minimizedAffinity>  (1) 
-4.26754904

>  <minimizedRMSD>  (1) 
0.0985905081

$$$$
