
     RDKit          3D

 30 32  0  0  1  0  0  0  0  0999 V2000
   38.5120   23.6580   36.0510 C   0  0  2  0  0  0  0  0  0  0  0  0
   37.4990   23.3560   37.1180 C   0  0  0  0  0  0  0  0  0  0  0  0
   38.3030   23.4540   38.3880 C   0  0  0  0  0  0  0  0  0  0  0  0
   39.6140   22.8770   37.9570 C   0  0  0  0  0  0  0  0  0  0  0  0
   39.8620   23.6430   36.6680 C   0  0  1  0  0  0  0  0  0  0  0  0
   38.2070   25.0160   35.4870 C   0  0  0  0  0  0  0  0  0  0  0  0
   37.7200   25.1600   34.1540 C   0  0  0  0  0  0  0  0  0  0  0  0
   37.4610   26.4580   33.7020 C   0  0  0  0  0  0  0  0  0  0  0  0
   37.6850   27.4980   34.5520 N   0  0  0  0  0  0  0  0  0  0  0  0
   38.1460   27.3130   35.8030 C   0  0  0  0  0  0  0  0  0  0  0  0
   38.4030   26.0840   36.2620 N   0  0  0  0  0  0  0  0  0  0  0  0
   40.9370   23.0240   35.8260 C   0  0  0  0  0  0  0  0  0  0  0  0
   42.0810   23.9920   35.4660 C   0  0  0  0  0  0  0  0  0  0  0  0
   42.3100   22.8170   36.3360 C   0  0  0  0  0  0  0  0  0  0  0  0
   38.4777   22.9121   35.2433 H   0  0  0  0  0  0  0  0  0  0  0  0
   36.6834   24.0941   37.1088 H   0  0  0  0  0  0  0  0  0  0  0  0
   37.0120   22.3783   36.9883 H   0  0  0  0  0  0  0  0  0  0  0  0
   38.4119   24.4986   38.7149 H   0  0  0  0  0  0  0  0  0  0  0  0
   37.8479   22.9400   39.2474 H   0  0  0  0  0  0  0  0  0  0  0  0
   40.4030   23.0696   38.6989 H   0  0  0  0  0  0  0  0  0  0  0  0
   39.6099   21.7833   37.8394 H   0  0  0  0  0  0  0  0  0  0  0  0
   40.2601   24.6582   36.8126 H   0  0  0  0  0  0  0  0  0  0  0  0
   37.5548   24.2854   33.5076 H   0  0  0  0  0  0  0  0  0  0  0  0
   37.0851   26.6346   32.6834 H   0  0  0  0  0  0  0  0  0  0  0  0
   38.3132   28.1830   36.4551 H   0  0  0  0  0  0  0  0  0  0  0  0
   40.2256   22.3517   35.3240 H   0  0  0  0  0  0  0  0  0  0  0  0
   42.4883   24.0125   34.4444 H   0  0  0  0  0  0  0  0  0  0  0  0
   42.2488   25.0760   35.5488 H   0  0  0  0  0  0  0  0  0  0  0  0
   42.5194   22.9669   37.4054 H   0  0  0  0  0  0  0  0  0  0  0  0
   43.0143   21.9726   36.3048 H   0  0  0  0  0  0  0  0  0  0  0  0
  1  5  1  0
  1  2  1  0
  2  3  1  0
  4  3  1  0
  5  4  1  0
  6  1  1  0
  6 11  1  0
  7  6  2  0
  8  7  1  0
  8  9  2  0
  9 10  1  0
 10 11  2  0
 12 14  1  0
 12  5  1  0
 13 12  1  0
 13 14  1  0
  1 15  1  6
  2 16  1  0
  2 17  1  0
  3 18  1  0
  3 19  1  0
  4 20  1  0
  4 21  1  0
  5 22  1  1
  7 23  1  0
  8 24  1  0
 10 25  1  0
 12 26  1  0
 13 27  1  0
 13 28  1  0
 14 29  1  0
 14 30  1  0
M  ISO  8  15  13  16  13  17  13  18  13  19  13  20  13  21  13  22  13
M  ISO  8  23  14  24  14  25  14  26  13  27  13  28  13  29  13  30  13
M  END
>  <minimizedAffinity>  (1) 
-4.05997276

>  <minimizedRMSD>  (1) 
4.46643448

$$$$
