
     RDKit          3D

 25 26  0  0  1  0  0  0  0  0999 V2000
   38.9350   26.4670   34.8700 C   0  0  2  0  0  0  0  0  0  0  0  0
   38.1230   27.5070   35.5820 C   0  0  0  0  0  0  0  0  0  0  0  0
   36.8770   27.5900   34.7390 C   0  0  0  0  0  0  0  0  0  0  0  0
   37.4090   27.4030   33.3480 C   0  0  0  0  0  0  0  0  0  0  0  0
   38.3060   26.2060   33.5370 C   0  0  1  0  0  0  0  0  0  0  0  0
   38.9680   25.2300   35.7000 C   0  0  0  0  0  0  0  0  0  0  0  0
   37.9730   24.9990   36.6980 C   0  0  0  0  0  0  0  0  0  0  0  0
   38.0830   23.8060   37.4330 C   0  0  0  0  0  0  0  0  0  0  0  0
   39.1150   22.9520   37.1560 N   0  0  0  0  0  0  0  0  0  0  0  0
   40.0220   23.2270   36.2020 C   0  0  0  0  0  0  0  0  0  0  0  0
   39.9600   24.3470   35.4760 N   0  0  0  0  0  0  0  0  0  0  0  0
   39.3710   26.1310   32.5090 C   0  0  0  0  0  0  0  0  0  0  0  0
   40.5000   26.5290   32.5760 O   0  0  0  0  0  0  0  0  0  0  0  0
   39.9688   26.8091   34.7144 H   0  0  0  0  0  0  0  0  0  0  0  0
   37.8867   27.1911   36.6088 H   0  0  0  0  0  0  0  0  0  0  0  0
   38.6435   28.4703   35.6870 H   0  0  0  0  0  0  0  0  0  0  0  0
   36.1657   26.7934   35.0024 H   0  0  0  0  0  0  0  0  0  0  0  0
   36.3210   28.5298   34.8718 H   0  0  0  0  0  0  0  0  0  0  0  0
   37.9766   28.2832   33.0116 H   0  0  0  0  0  0  0  0  0  0  0  0
   36.6318   27.2686   32.5813 H   0  0  0  0  0  0  0  0  0  0  0  0
   37.7465   25.2618   33.4634 H   0  0  0  0  0  0  0  0  0  0  0  0
   37.1615   25.7184   36.8822 H   0  0  0  0  0  0  0  0  0  0  0  0
   37.3515   23.5632   38.2178 H   0  0  0  0  0  0  0  0  0  0  0  0
   40.8361   22.5114   36.0145 H   0  0  0  0  0  0  0  0  0  0  0  0
   39.0891   25.6476   31.5620 H   0  0  0  0  0  0  0  0  0  0  0  0
  1  2  1  0
  1  6  1  0
  3  2  1  0
  4  5  1  0
  4  3  1  0
  5  1  1  0
  6  7  2  0
  7  8  1  0
  9  8  2  0
 10  9  1  0
 11  6  1  0
 11 10  2  0
 12 13  2  0
 12  5  1  0
  1 14  1  6
  2 15  1  0
  2 16  1  0
  3 17  1  0
  3 18  1  0
  4 19  1  0
  4 20  1  0
  5 21  1  1
  7 22  1  0
  8 23  1  0
 10 24  1  0
 12 25  1  0
M  ISO  8  14  13  15  13  16  13  17  13  18  13  19  13  20  13  21  13
M  ISO  4  22  14  23  14  24  14  25   6
M  END
>  <minimizedAffinity>  (1) 
-3.70042658

>  <minimizedRMSD>  (1) 
5.86837339

$$$$
