
     RDKit          3D

 35 36  0  0  1  0  0  0  0  0999 V2000
   40.6890   23.7950   35.5630 C   0  0  2  0  0  0  0  0  0  0  0  0
   40.4510   24.6490   34.3270 C   0  0  0  0  0  0  0  0  0  0  0  0
   40.9300   23.7730   33.2110 C   0  0  0  0  0  0  0  0  0  0  0  0
   42.1130   23.0980   33.8540 C   0  0  0  0  0  0  0  0  0  0  0  0
   41.4990   22.6280   35.1420 C   0  0  1  0  0  0  0  0  0  0  0  0
   39.3580   23.3620   36.0780 C   0  0  0  0  0  0  0  0  0  0  0  0
   38.7990   23.9040   37.2570 C   0  0  0  0  0  0  0  0  0  0  0  0
   37.5470   23.4500   37.6790 C   0  0  0  0  0  0  0  0  0  0  0  0
   36.9250   22.5000   36.9240 N   0  0  0  0  0  0  0  0  0  0  0  0
   37.4820   22.0000   35.8030 C   0  0  0  0  0  0  0  0  0  0  0  0
   38.6800   22.4330   35.3970 N   0  0  0  0  0  0  0  0  0  0  0  0
   42.5060   22.1370   36.1360 C   0  0  0  0  0  0  0  0  0  0  0  0
   43.5520   21.3110   35.4470 C   0  0  0  0  0  0  0  0  0  0  0  0
   41.9120   21.3360   37.2500 C   0  0  0  0  0  0  0  0  0  0  0  0
   43.2080   23.3700   36.6970 C   0  0  0  0  0  0  0  0  0  0  0  0
   41.2197   24.3408   36.3570 H   0  0  0  0  0  0  0  0  0  0  0  0
   39.3834   24.8874   34.2114 H   0  0  0  0  0  0  0  0  0  0  0  0
   40.9670   25.6197   34.3664 H   0  0  0  0  0  0  0  0  0  0  0  0
   41.2315   24.3656   32.3347 H   0  0  0  0  0  0  0  0  0  0  0  0
   40.1695   23.0784   32.8249 H   0  0  0  0  0  0  0  0  0  0  0  0
   42.4780   22.2558   33.2479 H   0  0  0  0  0  0  0  0  0  0  0  0
   42.9954   23.7431   33.9774 H   0  0  0  0  0  0  0  0  0  0  0  0
   40.8762   21.7275   35.0366 H   0  0  0  0  0  0  0  0  0  0  0  0
   39.3399   24.6698   37.8323 H   0  0  0  0  0  0  0  0  0  0  0  0
   37.0778   23.8464   38.5915 H   0  0  0  0  0  0  0  0  0  0  0  0
   36.9495   21.2337   35.2207 H   0  0  0  0  0  0  0  0  0  0  0  0
   44.1814   20.8140   36.1999 H   0  0  0  0  0  0  0  0  0  0  0  0
   43.0641   20.5518   34.8180 H   0  0  0  0  0  0  0  0  0  0  0  0
   44.1774   21.9616   34.8180 H   0  0  0  0  0  0  0  0  0  0  0  0
   42.2266   21.7602   38.2149 H   0  0  0  0  0  0  0  0  0  0  0  0
   40.8148   21.3642   37.1773 H   0  0  0  0  0  0  0  0  0  0  0  0
   42.2576   20.2942   37.1773 H   0  0  0  0  0  0  0  0  0  0  0  0
   43.1880   23.3349   37.7963 H   0  0  0  0  0  0  0  0  0  0  0  0
   44.2516   23.3876   36.3496 H   0  0  0  0  0  0  0  0  0  0  0  0
   42.6905   24.2764   36.3496 H   0  0  0  0  0  0  0  0  0  0  0  0
  1  6  1  0
  2  1  1  0
  3  4  1  0
  3  2  1  0
  4  5  1  0
  5  1  1  0
  5 12  1  0
  6  7  2  0
  7  8  1  0
  9  8  2  0
 10  9  1  0
 11 10  2  0
 11  6  1  0
 12 15  1  0
 12 14  1  0
 13 12  1  0
  1 16  1  1
  2 17  1  0
  2 18  1  0
  3 19  1  0
  3 20  1  0
  4 21  1  0
  4 22  1  0
  5 23  1  6
  7 24  1  0
  8 25  1  0
 10 26  1  0
 13 27  1  0
 13 28  1  0
 13 29  1  0
 14 30  1  0
 14 31  1  0
 14 32  1  0
 15 33  1  0
 15 34  1  0
 15 35  1  0
M  ISO  8  16  13  17  13  18  13  19  13  20  13  21  13  22  13  23  13
M  ISO  8  24  14  25  14  26  14  27   8  28   8  29   8  30   8  31   8
M  ISO  4  32   8  33   8  34   8  35   8
M  END
>  <minimizedAffinity>  (1) 
-3.49548125

>  <minimizedRMSD>  (1) 
2.49832249

$$$$
