
     RDKit          3D

 30 32  0  0  1  0  0  0  0  0999 V2000
   42.3280   22.6860   36.0830 C   0  0  2  0  0  0  0  0  0  0  0  0
   43.2910   23.7110   36.6570 C   0  0  0  0  0  0  0  0  0  0  0  0
   43.7700   24.4350   35.4330 C   0  0  0  0  0  0  0  0  0  0  0  0
   43.8370   23.3250   34.4080 C   0  0  0  0  0  0  0  0  0  0  0  0
   42.4840   22.6900   34.5980 C   0  0  1  0  0  0  0  0  0  0  0  0
   40.9400   23.0840   36.4810 C   0  0  0  0  0  0  0  0  0  0  0  0
   40.3850   22.6750   37.7120 C   0  0  0  0  0  0  0  0  0  0  0  0
   39.0890   23.0810   38.0160 C   0  0  0  0  0  0  0  0  0  0  0  0
   38.4280   23.8560   37.1010 N   0  0  0  0  0  0  0  0  0  0  0  0
   38.9940   24.2270   35.9310 C   0  0  0  0  0  0  0  0  0  0  0  0
   40.2340   23.8470   35.6230 N   0  0  0  0  0  0  0  0  0  0  0  0
   42.3510   21.4060   33.9860 N   0  0  0  0  0  0  0  0  0  0  0  0
   41.5960   21.0850   32.9480 C   0  0  0  0  0  0  0  0  0  0  0  0
   41.7790   19.7440   32.7020 C   0  0  0  0  0  0  0  0  0  0  0  0
   42.6540   19.2670   33.6090 N   0  0  0  0  0  0  0  0  0  0  0  0
   43.0020   20.2890   34.3940 C   0  0  0  0  0  0  0  0  0  0  0  0
   42.5303   21.6726   36.4600 H   0  0  0  0  0  0  0  0  0  0  0  0
   42.7765   24.3959   37.3471 H   0  0  0  0  0  0  0  0  0  0  0  0
   44.1050   23.2634   37.2460 H   0  0  0  0  0  0  0  0  0  0  0  0
   43.0583   25.2164   35.1282 H   0  0  0  0  0  0  0  0  0  0  0  0
   44.7259   24.9598   35.5773 H   0  0  0  0  0  0  0  0  0  0  0  0
   44.6511   22.6186   34.6277 H   0  0  0  0  0  0  0  0  0  0  0  0
   44.0439   23.6622   33.3816 H   0  0  0  0  0  0  0  0  0  0  0  0
   41.6784   23.2421   34.0919 H   0  0  0  0  0  0  0  0  0  0  0  0
   40.9609   22.0522   38.4123 H   0  0  0  0  0  0  0  0  0  0  0  0
   38.6104   22.7883   38.9622 H   0  0  0  0  0  0  0  0  0  0  0  0
   38.4249   24.8496   35.2250 H   0  0  0  0  0  0  0  0  0  0  0  0
   40.9414   21.7662   32.3845 H   0  0  0  0  0  0  0  0  0  0  0  0
   41.2952   19.1622   31.9036 H   0  0  0  0  0  0  0  0  0  0  0  0
   43.7053   20.2337   35.2380 H   0  0  0  0  0  0  0  0  0  0  0  0
  1  6  1  0
  1  2  1  0
  3  2  1  0
  4  5  1  0
  4  3  1  0
  5  1  1  0
  6  7  2  0
  7  8  1  0
  9  8  2  0
 10  9  1  0
 11 10  2  0
 11  6  1  0
 12 16  1  0
 12  5  1  0
 13 12  1  0
 14 13  2  0
 14 15  1  0
 15 16  2  0
  1 17  1  1
  2 18  1  0
  2 19  1  0
  3 20  1  0
  3 21  1  0
  4 22  1  0
  4 23  1  0
  5 24  1  6
  7 25  1  0
  8 26  1  0
 10 27  1  0
 13 28  1  0
 14 29  1  0
 16 30  1  0
M  ISO  8  17  13  18  13  19  13  20  13  21  13  22  13  23  13  24  13
M  ISO  6  25  14  26  14  27  14  28  14  29  14  30  14
M  END
>  <minimizedAffinity>  (1) 
-3.20909023

>  <minimizedRMSD>  (1) 
3.8659513

$$$$
