
     RDKit          3D

 35 37  0  0  0  0  0  0  0  0999 V2000
   38.1580   23.7800   37.0100 C   0  0  0  0  0  0  0  0  0  0  0  0
   41.4550   21.9870   37.2430 C   0  0  0  0  0  0  0  0  0  0  0  0
   40.1420   22.3240   37.5330 C   0  0  0  0  0  0  0  0  0  0  0  0
   39.5340   23.3520   36.7780 C   0  0  0  0  0  0  0  0  0  0  0  0
   40.2630   23.9620   35.8070 N   0  0  0  0  0  0  0  0  0  0  0  0
   41.5370   23.6090   35.5520 C   0  0  0  0  0  0  0  0  0  0  0  0
   42.1270   22.6280   36.2670 N   0  0  0  0  0  0  0  0  0  0  0  0
   38.1180   24.5080   38.3570 C   0  0  0  0  0  0  0  0  0  0  0  0
   37.5900   24.6490   35.9230 C   0  0  0  0  0  0  0  0  0  0  0  0
   37.2620   22.5690   37.1230 C   0  0  0  0  0  0  0  0  0  0  0  0
   36.9840   21.9140   35.8650 C   0  0  0  0  0  0  0  0  0  0  0  0
   35.8940   21.1550   35.6340 C   0  0  0  0  0  0  0  0  0  0  0  0
   35.5790   20.5330   34.4670 C   0  0  0  0  0  0  0  0  0  0  0  0
   36.5960   20.7940   33.4690 C   0  0  0  0  0  0  0  0  0  0  0  0
   37.8740   21.8920   34.3170 S   0  0  0  0  0  0  0  0  0  0  0  0
   36.7550   20.3940   32.1110 C   0  0  0  0  0  0  0  0  0  0  0  0
   35.9780   19.5080   31.4500 C   0  0  0  0  0  0  0  0  0  0  0  0
   36.7300   19.4430   29.7130 S   0  0  0  0  0  0  0  0  0  0  0  0
   38.0100   20.7000   30.2820 C   0  0  0  0  0  0  0  0  0  0  0  0
   37.6900   20.8520   31.3410 N   0  0  0  0  0  0  0  0  0  0  0  0
   41.9524   21.1895   37.8146 H   0  0  0  0  0  0  0  0  0  0  0  0
   39.5884   21.8051   38.3294 H   0  0  0  0  0  0  0  0  0  0  0  0
   42.0992   24.1221   34.7579 H   0  0  0  0  0  0  0  0  0  0  0  0
   38.1585   23.7716   39.1731 H   0  0  0  0  0  0  0  0  0  0  0  0
   38.9802   25.1869   38.4326 H   0  0  0  0  0  0  0  0  0  0  0  0
   37.1866   25.0883   38.4326 H   0  0  0  0  0  0  0  0  0  0  0  0
   37.0411   25.4888   36.3741 H   0  0  0  0  0  0  0  0  0  0  0  0
   38.4084   25.0385   35.2997 H   0  0  0  0  0  0  0  0  0  0  0  0
   36.9048   24.0557   35.2997 H   0  0  0  0  0  0  0  0  0  0  0  0
   37.7485   21.8418   37.7897 H   0  0  0  0  0  0  0  0  0  0  0  0
   36.2970   22.9269   37.5112 H   0  0  0  0  0  0  0  0  0  0  0  0
   35.1916   21.0266   36.4707 H   0  0  0  0  0  0  0  0  0  0  0  0
   34.6807   19.9195   34.3039 H   0  0  0  0  0  0  0  0  0  0  0  0
   35.1090   18.9525   31.8325 H   0  0  0  0  0  0  0  0  0  0  0  0
   38.8417   21.1575   29.7262 H   0  0  0  0  0  0  0  0  0  0  0  0
  1 10  1  0
  1  8  1  0
  2  3  2  0
  4  1  1  0
  4  3  1  0
  5  4  2  0
  6  5  1  0
  6  7  2  0
  7  2  1  0
  9  1  1  0
 11 10  1  0
 12 11  2  0
 13 12  1  0
 14 15  1  0
 14 13  2  0
 15 11  1  0
 16 14  1  0
 17 16  2  0
 18 19  1  0
 18 17  1  0
 19 20  2  0
 20 16  1  0
  2 21  1  0
  3 22  1  0
  6 23  1  0
  8 24  1  0
  8 25  1  0
  8 26  1  0
  9 27  1  0
  9 28  1  0
  9 29  1  0
 10 30  1  0
 10 31  1  0
 12 32  1  0
 13 33  1  0
 17 34  1  0
 19 35  1  0
M  ISO  8  21  14  22  14  23  14  24   8  25   8  26   8  27   8  28   8
M  ISO  7  29   8  30   8  31   8  32  14  33  14  34  14  35  14
M  END
>  <minimizedAffinity>  (1) 
-4.45228338

>  <minimizedRMSD>  (1) 
0.322016299

$$$$
