
     RDKit          3D

 29 31  0  0  1  0  0  0  0  0999 V2000
   42.6960   23.2600   36.5790 C   0  0  2  0  0  0  0  0  0  0  0  0
   43.9130   22.4520   36.1170 C   0  0  0  0  0  0  0  0  0  0  0  0
   43.3010   21.1030   35.8850 C   0  0  0  0  0  0  0  0  0  0  0  0
   42.2500   20.9960   36.9460 C   0  0  0  0  0  0  0  0  0  0  0  0
   41.5740   22.3460   36.8170 C   0  0  1  0  0  0  0  0  0  0  0  0
   42.3900   24.2400   35.4960 C   0  0  0  0  0  0  0  0  0  0  0  0
   43.2270   25.3700   35.2560 C   0  0  0  0  0  0  0  0  0  0  0  0
   42.8670   26.2400   34.2230 C   0  0  0  0  0  0  0  0  0  0  0  0
   41.7480   25.9660   33.5120 N   0  0  0  0  0  0  0  0  0  0  0  0
   40.9670   24.8800   33.7620 C   0  0  0  0  0  0  0  0  0  0  0  0
   41.2770   24.0230   34.7400 N   0  0  0  0  0  0  0  0  0  0  0  0
   40.8070   22.6470   37.9160 O   0  0  0  0  0  0  0  0  0  0  0  0
   39.4780   23.0440   37.9040 C   0  0  0  0  0  0  0  0  0  0  0  0
   38.5340   23.6460   38.6520 N   0  0  0  0  0  0  0  0  0  0  0  0
   37.4200   23.7000   37.9810 O   0  0  0  0  0  0  0  0  0  0  0  0
   37.5710   23.1530   36.7950 C   0  0  0  0  0  0  0  0  0  0  0  0
   38.8670   22.7300   36.7230 N   0  0  0  0  0  0  0  0  0  0  0  0
   42.8872   23.7971   37.5197 H   0  0  0  0  0  0  0  0  0  0  0  0
   44.3418   22.8639   35.1916 H   0  0  0  0  0  0  0  0  0  0  0  0
   44.7492   22.4498   36.8316 H   0  0  0  0  0  0  0  0  0  0  0  0
   42.8522   21.0442   34.8824 H   0  0  0  0  0  0  0  0  0  0  0  0
   44.0387   20.2886   35.9355 H   0  0  0  0  0  0  0  0  0  0  0  0
   41.5505   20.1722   36.7407 H   0  0  0  0  0  0  0  0  0  0  0  0
   42.6396   20.7771   37.9511 H   0  0  0  0  0  0  0  0  0  0  0  0
   40.8378   22.4008   36.0016 H   0  0  0  0  0  0  0  0  0  0  0  0
   44.1259   25.5506   35.8637 H   0  0  0  0  0  0  0  0  0  0  0  0
   43.4779   27.1255   33.9934 H   0  0  0  0  0  0  0  0  0  0  0  0
   40.0689   24.7051   33.1514 H   0  0  0  0  0  0  0  0  0  0  0  0
   36.8031   23.0553   36.0135 H   0  0  0  0  0  0  0  0  0  0  0  0
  1  5  1  0
  2  1  1  0
  3  2  1  0
  3  4  1  0
  5  4  1  0
  5 12  1  0
  6  1  1  0
  7  6  2  0
  8  7  1  0
  9 10  1  0
  9  8  2  0
 10 11  2  0
 11  6  1  0
 13 12  1  0
 13 14  2  0
 15 14  1  0
 16 15  1  0
 17 16  2  0
 17 13  1  0
  1 18  1  1
  2 19  1  0
  2 20  1  0
  3 21  1  0
  3 22  1  0
  4 23  1  0
  4 24  1  0
  5 25  1  6
  7 26  1  0
  8 27  1  0
 10 28  1  0
 16 29  1  0
M  ISO  8  18  13  19  13  20  13  21  13  22  13  23  13  24  13  25  13
M  ISO  4  26  14  27  14  28  14  29  14
M  END
>  <minimizedAffinity>  (1) 
-4.09123993

>  <minimizedRMSD>  (1) 
4.62966347

$$$$
