
     RDKit          3D

 27 28  0  0  1  0  0  0  0  0999 V2000
   41.9640   23.2930   36.6170 C   0  0  2  0  0  0  0  0  0  0  0  0
   43.2500   22.4940   36.4030 C   0  0  0  0  0  0  0  0  0  0  0  0
   42.7470   21.0860   36.4650 C   0  0  0  0  0  0  0  0  0  0  0  0
   41.6850   21.1510   37.5130 C   0  0  0  0  0  0  0  0  0  0  0  0
   40.9140   22.3710   37.0660 C   0  0  1  0  0  0  0  0  0  0  0  0
   41.6330   23.9740   35.3480 C   0  0  0  0  0  0  0  0  0  0  0  0
   42.2130   25.2000   34.9630 C   0  0  0  0  0  0  0  0  0  0  0  0
   41.8400   25.7730   33.7620 C   0  0  0  0  0  0  0  0  0  0  0  0
   40.9140   25.1090   32.9980 N   0  0  0  0  0  0  0  0  0  0  0  0
   40.3630   23.9310   33.3760 C   0  0  0  0  0  0  0  0  0  0  0  0
   40.7250   23.3770   34.5420 N   0  0  0  0  0  0  0  0  0  0  0  0
   40.0760   22.8760   38.0420 O   0  0  0  0  0  0  0  0  0  0  0  0
   38.7910   23.1430   37.6140 C   0  0  0  0  0  0  0  0  0  0  0  0
   38.3930   22.3490   36.5580 F   0  0  0  0  0  0  0  0  0  0  0  0
   38.7910   24.4710   37.2000 F   0  0  0  0  0  0  0  0  0  0  0  0
   37.9060   23.0840   38.6730 F   0  0  0  0  0  0  0  0  0  0  0  0
   42.0741   24.0653   37.3925 H   0  0  0  0  0  0  0  0  0  0  0  0
   43.9829   22.6933   37.1987 H   0  0  0  0  0  0  0  0  0  0  0  0
   43.7773   22.7388   35.4692 H   0  0  0  0  0  0  0  0  0  0  0  0
   42.3280   20.7735   35.4971 H   0  0  0  0  0  0  0  0  0  0  0  0
   43.5362   20.3548   36.6942 H   0  0  0  0  0  0  0  0  0  0  0  0
   41.0546   20.2496   37.5059 H   0  0  0  0  0  0  0  0  0  0  0  0
   42.0669   21.2079   38.5430 H   0  0  0  0  0  0  0  0  0  0  0  0
   40.1970   22.1555   36.2601 H   0  0  0  0  0  0  0  0  0  0  0  0
   42.9527   25.6940   35.6101 H   0  0  0  0  0  0  0  0  0  0  0  0
   42.2710   26.7290   33.4299 H   0  0  0  0  0  0  0  0  0  0  0  0
   39.6241   23.4326   32.7313 H   0  0  0  0  0  0  0  0  0  0  0  0
  1  5  1  0
  2  3  1  0
  2  1  1  0
  3  4  1  0
  5  4  1  0
  5 12  1  0
  6  1  1  0
  7  6  2  0
  8  7  1  0
  9 10  1  0
  9  8  2  0
 10 11  2  0
 11  6  1  0
 13 12  1  0
 13 16  1  0
 14 13  1  0
 15 13  1  0
  1 17  1  1
  2 18  1  0
  2 19  1  0
  3 20  1  0
  3 21  1  0
  4 22  1  0
  4 23  1  0
  5 24  1  6
  7 25  1  0
  8 26  1  0
 10 27  1  0
M  ISO  8  17  13  18  13  19  13  20  13  21  13  22  13  23  13  24  13
M  ISO  3  25  14  26  14  27  14
M  END
>  <minimizedAffinity>  (1) 
-3.88053513

>  <minimizedRMSD>  (1) 
4.05559492

$$$$
