
     RDKit          3D

 49 53  0  0  1  0  0  0  0  0999 V2000
   38.3550   24.5010   36.4050 N   0  0  0  0  0  0  0  0  0  0  0  0
   37.7730   25.5890   35.6510 C   0  0  0  0  0  0  0  0  0  0  0  0
   38.9160   26.2390   34.9080 C   0  0  0  0  0  0  0  0  0  0  0  0
   40.1140   25.3420   35.0530 C   0  0  0  0  0  0  0  0  0  0  0  0
   39.4790   24.0830   35.5890 C   0  0  2  0  0  0  0  0  0  0  0  0
   38.7140   23.4470   34.4890 N   0  0  0  0  0  0  0  0  0  0  0  0
   38.7420   23.6300   33.1210 C   0  0  0  0  0  0  0  0  0  0  0  0
   37.8110   22.8310   32.5770 N   0  0  0  0  0  0  0  0  0  0  0  0
   37.1520   22.1140   33.4990 C   0  0  0  0  0  0  0  0  0  0  0  0
   36.1400   21.1760   33.5200 C   0  0  0  0  0  0  0  0  0  0  0  0
   35.6890   20.6260   34.6710 N   0  0  0  0  0  0  0  0  0  0  0  0
   36.2830   21.0430   35.8220 C   0  0  0  0  0  0  0  0  0  0  0  0
   37.2710   21.9570   35.8280 N   0  0  0  0  0  0  0  0  0  0  0  0
   37.7390   22.5230   34.6750 C   0  0  0  0  0  0  0  0  0  0  0  0
   35.6410   20.8640   32.2190 N   0  0  0  0  0  0  0  0  0  0  0  0
   40.3480   23.3570   36.3040 O   0  0  0  0  0  0  0  0  0  0  0  0
   42.6980   23.0500   36.5080 C   0  0  2  0  0  0  0  0  0  0  0  0
   43.5000   21.7780   36.2480 C   0  0  0  0  0  0  0  0  0  0  0  0
   42.8330   21.2630   35.0460 C   0  0  0  0  0  0  0  0  0  0  0  0
   41.3700   21.5790   35.3320 C   0  0  0  0  0  0  0  0  0  0  0  0
   41.4930   23.0800   35.6910 C   0  0  1  0  0  0  0  0  0  0  0  0
   43.5710   24.2060   36.2720 C   0  0  0  0  0  0  0  0  0  0  0  0
   44.4450   24.7370   37.2780 C   0  0  0  0  0  0  0  0  0  0  0  0
   45.2260   25.8440   36.9310 C   0  0  0  0  0  0  0  0  0  0  0  0
   45.1080   26.3470   35.6710 N   0  0  0  0  0  0  0  0  0  0  0  0
   44.2590   25.8100   34.7430 C   0  0  0  0  0  0  0  0  0  0  0  0
   43.5060   24.7560   35.0490 N   0  0  0  0  0  0  0  0  0  0  0  0
   38.6722   24.8233   37.3304 H   0  0  0  0  0  0  0  0  0  0  0  0
   37.0251   25.2052   34.9415 H   0  0  0  0  0  0  0  0  0  0  0  0
   37.2605   26.3063   36.3090 H   0  0  0  0  0  0  0  0  0  0  0  0
   39.1317   27.2273   35.3401 H   0  0  0  0  0  0  0  0  0  0  0  0
   38.6608   26.3779   33.8471 H   0  0  0  0  0  0  0  0  0  0  0  0
   40.6037   25.1648   34.0841 H   0  0  0  0  0  0  0  0  0  0  0  0
   40.9089   25.7527   35.6929 H   0  0  0  0  0  0  0  0  0  0  0  0
   39.4099   24.3110   32.5732 H   0  0  0  0  0  0  0  0  0  0  0  0
   35.9446   20.6192   36.7790 H   0  0  0  0  0  0  0  0  0  0  0  0
   34.8827   20.1755   32.1097 H   0  0  0  0  0  0  0  0  0  0  0  0
   36.0393   21.3274   31.3899 H   0  0  0  0  0  0  0  0  0  0  0  0
   42.3551   23.0796   37.5528 H   0  0  0  0  0  0  0  0  0  0  0  0
   44.5599   22.0015   36.0567 H   0  0  0  0  0  0  0  0  0  0  0  0
   43.5168   21.0735   37.0927 H   0  0  0  0  0  0  0  0  0  0  0  0
   42.9930   20.1805   34.9335 H   0  0  0  0  0  0  0  0  0  0  0  0
   43.2060   21.7039   34.1098 H   0  0  0  0  0  0  0  0  0  0  0  0
   40.7361   21.4201   34.4471 H   0  0  0  0  0  0  0  0  0  0  0  0
   40.8997   20.9519   36.1037 H   0  0  0  0  0  0  0  0  0  0  0  0
   41.6053   23.8492   34.9127 H   0  0  0  0  0  0  0  0  0  0  0  0
   44.4987   24.2913   38.2822 H   0  0  0  0  0  0  0  0  0  0  0  0
   45.9176   26.2966   37.6569 H   0  0  0  0  0  0  0  0  0  0  0  0
   44.1981   26.2519   33.7375 H   0  0  0  0  0  0  0  0  0  0  0  0
  2  1  1  0
  3  4  1  0
  3  2  1  0
  4  5  1  0
  5 16  1  1
  5  1  1  0
  6 14  1  0
  6  5  1  0
  7  6  1  0
  8  7  2  0
  8  9  1  0
  9 10  2  0
  9 14  1  0
 10 11  1  0
 11 12  2  0
 12 13  1  0
 14 13  2  0
 15 10  1  0
 18 17  1  0
 19 20  1  0
 19 18  1  0
 20 21  1  0
 21 16  1  0
 21 17  1  0
 22 17  1  0
 22 23  2  0
 24 23  1  0
 25 24  2  0
 26 27  2  0
 26 25  1  0
 27 22  1  0
  1 28  1  0
  2 29  1  0
  2 30  1  0
  3 31  1  0
  3 32  1  0
  4 33  1  0
  4 34  1  0
  7 35  1  0
 12 36  1  0
 15 37  1  0
 15 38  1  0
 17 39  1  1
 18 40  1  0
 18 41  1  0
 19 42  1  0
 19 43  1  0
 20 44  1  0
 20 45  1  0
 21 46  1  6
 23 47  1  0
 24 48  1  0
 26 49  1  0
M  ISO  8  28   5  29  13  30  13  31  13  32  13  33  13  34  13  35  14
M  ISO  8  36  14  39  13  40  13  41  13  42  13  43  13  44  13  45  13
M  ISO  4  46  13  47  14  48  14  49  14
M  END
>  <minimizedAffinity>  (1) 
-5.42836523

>  <minimizedRMSD>  (1) 
2.4234376

$$$$
