
     RDKit          3D

 47 51  0  0  1  0  0  0  0  0999 V2000
   40.3600   23.3660   36.3120 O   0  0  0  0  0  0  0  0  0  0  0  0
   42.7060   23.0630   36.5210 C   0  0  2  0  0  0  0  0  0  0  0  0
   43.5120   21.7880   36.2680 C   0  0  0  0  0  0  0  0  0  0  0  0
   42.8450   21.2690   35.0700 C   0  0  0  0  0  0  0  0  0  0  0  0
   41.3810   21.5870   35.3480 C   0  0  0  0  0  0  0  0  0  0  0  0
   41.5060   23.0920   35.6980 C   0  0  1  0  0  0  0  0  0  0  0  0
   43.5830   24.2160   36.2810 C   0  0  0  0  0  0  0  0  0  0  0  0
   44.4580   24.7490   37.2870 C   0  0  0  0  0  0  0  0  0  0  0  0
   45.2410   25.8540   36.9370 C   0  0  0  0  0  0  0  0  0  0  0  0
   45.1230   26.3520   35.6730 N   0  0  0  0  0  0  0  0  0  0  0  0
   44.2750   25.8130   34.7460 C   0  0  0  0  0  0  0  0  0  0  0  0
   43.5190   24.7620   35.0540 N   0  0  0  0  0  0  0  0  0  0  0  0
   38.3510   24.4860   36.4060 N   0  0  0  0  0  0  0  0  0  0  0  0
   37.7710   25.5810   35.6640 C   0  0  0  0  0  0  0  0  0  0  0  0
   38.9000   26.2170   34.8940 C   0  0  0  0  0  0  0  0  0  0  0  0
   40.1060   25.3350   35.0440 C   0  0  0  0  0  0  0  0  0  0  0  0
   39.4840   24.0760   35.5920 C   0  0  1  0  0  0  0  0  0  0  0  0
   38.7190   23.4270   34.4970 N   0  0  0  0  0  0  0  0  0  0  0  0
   38.7670   23.6040   33.1280 C   0  0  0  0  0  0  0  0  0  0  0  0
   37.8400   22.8050   32.5770 N   0  0  0  0  0  0  0  0  0  0  0  0
   37.1660   22.0960   33.4970 C   0  0  0  0  0  0  0  0  0  0  0  0
   36.1510   21.1630   33.4910 C   0  0  0  0  0  0  0  0  0  0  0  0
   35.6960   20.6310   34.6630 N   0  0  0  0  0  0  0  0  0  0  0  0
   36.2630   21.0380   35.8350 C   0  0  0  0  0  0  0  0  0  0  0  0
   37.2540   21.9500   35.8290 N   0  0  0  0  0  0  0  0  0  0  0  0
   37.7390   22.5080   34.6790 C   0  0  0  0  0  0  0  0  0  0  0  0
   42.3566   23.0962   37.5635 H   0  0  0  0  0  0  0  0  0  0  0  0
   44.5718   22.0114   36.0756 H   0  0  0  0  0  0  0  0  0  0  0  0
   43.5310   21.0876   37.1160 H   0  0  0  0  0  0  0  0  0  0  0  0
   43.0038   20.1857   34.9637 H   0  0  0  0  0  0  0  0  0  0  0  0
   43.2200   21.7069   34.1332 H   0  0  0  0  0  0  0  0  0  0  0  0
   40.7504   21.4231   34.4617 H   0  0  0  0  0  0  0  0  0  0  0  0
   40.9062   20.9651   36.1212 H   0  0  0  0  0  0  0  0  0  0  0  0
   41.6217   23.8570   34.9161 H   0  0  0  0  0  0  0  0  0  0  0  0
   44.5105   24.3061   38.2925 H   0  0  0  0  0  0  0  0  0  0  0  0
   45.9328   26.3087   37.6613 H   0  0  0  0  0  0  0  0  0  0  0  0
   44.2172   26.2510   33.7386 H   0  0  0  0  0  0  0  0  0  0  0  0
   38.6620   24.7979   37.3371 H   0  0  0  0  0  0  0  0  0  0  0  0
   37.0018   25.2069   34.9723 H   0  0  0  0  0  0  0  0  0  0  0  0
   37.2872   26.3060   36.3350 H   0  0  0  0  0  0  0  0  0  0  0  0
   39.1139   27.2169   35.2995 H   0  0  0  0  0  0  0  0  0  0  0  0
   38.6307   26.3257   33.8330 H   0  0  0  0  0  0  0  0  0  0  0  0
   40.5956   25.1539   34.0757 H   0  0  0  0  0  0  0  0  0  0  0  0
   40.8985   25.7591   35.6781 H   0  0  0  0  0  0  0  0  0  0  0  0
   39.4446   24.2798   32.5857 H   0  0  0  0  0  0  0  0  0  0  0  0
   35.7054   20.8456   32.5367 H   0  0  0  0  0  0  0  0  0  0  0  0
   35.9094   20.6196   36.7889 H   0  0  0  0  0  0  0  0  0  0  0  0
  3  2  1  0
  4  5  1  0
  4  3  1  0
  5  6  1  0
  6  1  1  0
  6  2  1  0
  7  2  1  0
  7  8  2  0
  9  8  1  0
 10  9  2  0
 11 12  2  0
 11 10  1  0
 12  7  1  0
 14 13  1  0
 15 16  1  0
 15 14  1  0
 16 17  1  0
 17  1  1  1
 17 13  1  0
 18 26  1  0
 18 17  1  0
 19 18  1  0
 20 19  2  0
 20 21  1  0
 21 26  2  0
 22 21  1  0
 22 23  2  0
 23 24  1  0
 25 24  2  0
 26 25  1  0
  2 27  1  1
  3 28  1  0
  3 29  1  0
  4 30  1  0
  4 31  1  0
  5 32  1  0
  5 33  1  0
  6 34  1  6
  8 35  1  0
  9 36  1  0
 11 37  1  0
 13 38  1  0
 14 39  1  0
 14 40  1  0
 15 41  1  0
 15 42  1  0
 16 43  1  0
 16 44  1  0
 19 45  1  0
 22 46  1  0
 24 47  1  0
M  ISO  8  27  13  28  13  29  13  30  13  31  13  32  13  33  13  34  13
M  ISO  8  35  14  36  14  37  14  38   5  39  13  40  13  41  13  42  13
M  ISO  5  43  13  44  13  45  14  46  14  47  14
M  END
>  <minimizedAffinity>  (1) 
-5.25731468

>  <minimizedRMSD>  (1) 
2.29668188

$$$$
