
     RDKit          3D

 45 48  0  0  0  0  0  0  0  0999 V2000
   36.9640   21.9390   35.9540 C   0  0  0  0  0  0  0  0  0  0  0  0
   35.8900   21.1780   35.7160 C   0  0  0  0  0  0  0  0  0  0  0  0
   35.6130   20.5630   34.5350 C   0  0  0  0  0  0  0  0  0  0  0  0
   36.6360   20.8310   33.5500 C   0  0  0  0  0  0  0  0  0  0  0  0
   37.8650   21.9280   34.4270 S   0  0  0  0  0  0  0  0  0  0  0  0
   36.8300   20.4500   32.1860 C   0  0  0  0  0  0  0  0  0  0  0  0
   36.0640   19.5300   31.5480 C   0  0  0  0  0  0  0  0  0  0  0  0
   36.7400   19.5200   29.8100 S   0  0  0  0  0  0  0  0  0  0  0  0
   38.0010   20.8430   30.3430 C   0  0  0  0  0  0  0  0  0  0  0  0
   37.7100   20.9650   31.4140 N   0  0  0  0  0  0  0  0  0  0  0  0
   38.9500   21.3450   29.3600 N   0  0  0  0  0  0  0  0  0  0  0  0
   39.4500   20.3830   28.5590 C   0  0  0  0  0  0  0  0  0  0  0  0
   40.3640   20.6710   27.5670 C   0  0  0  0  0  0  0  0  0  0  0  0
   40.7570   21.9860   27.4170 C   0  0  0  0  0  0  0  0  0  0  0  0
   41.5920   22.3280   26.5290 O   0  0  0  0  0  0  0  0  0  0  0  0
   40.2280   22.9030   28.2400 N   0  0  0  0  0  0  0  0  0  0  0  0
   39.3320   22.6270   29.2120 C   0  0  0  0  0  0  0  0  0  0  0  0
   38.8240   23.4420   29.9900 O   0  0  0  0  0  0  0  0  0  0  0  0
   37.2450   22.6010   37.2210 C   0  0  0  0  0  0  0  0  0  0  0  0
   38.1420   23.8000   37.1190 C   0  0  0  0  0  0  0  0  0  0  0  0
   41.4320   22.0130   37.2580 C   0  0  0  0  0  0  0  0  0  0  0  0
   40.1310   22.3560   37.5860 C   0  0  0  0  0  0  0  0  0  0  0  0
   39.4990   23.3740   36.8470 C   0  0  0  0  0  0  0  0  0  0  0  0
   40.2160   23.9540   35.8510 N   0  0  0  0  0  0  0  0  0  0  0  0
   41.4720   23.6070   35.5520 C   0  0  0  0  0  0  0  0  0  0  0  0
   42.0760   22.6310   36.2620 N   0  0  0  0  0  0  0  0  0  0  0  0
   38.1370   24.5070   38.4730 C   0  0  0  0  0  0  0  0  0  0  0  0
   37.5620   24.7090   36.0620 C   0  0  0  0  0  0  0  0  0  0  0  0
   35.1748   21.0387   36.5400 H   0  0  0  0  0  0  0  0  0  0  0  0
   34.7241   19.9412   34.3529 H   0  0  0  0  0  0  0  0  0  0  0  0
   35.2383   18.9308   31.9592 H   0  0  0  0  0  0  0  0  0  0  0  0
   39.1210   19.3428   28.6999 H   0  0  0  0  0  0  0  0  0  0  0  0
   40.7662   19.8797   26.9173 H   0  0  0  0  0  0  0  0  0  0  0  0
   40.5246   23.8824   28.1231 H   0  0  0  0  0  0  0  0  0  0  0  0
   36.2887   22.9252   37.6573 H   0  0  0  0  0  0  0  0  0  0  0  0
   37.7787   21.8668   37.8424 H   0  0  0  0  0  0  0  0  0  0  0  0
   41.9431   21.2208   37.8248 H   0  0  0  0  0  0  0  0  0  0  0  0
   39.6037   21.8449   38.4050 H   0  0  0  0  0  0  0  0  0  0  0  0
   42.0081   24.1122   34.7350 H   0  0  0  0  0  0  0  0  0  0  0  0
   38.1423   23.7574   39.2781 H   0  0  0  0  0  0  0  0  0  0  0  0
   39.0307   25.1427   38.5580 H   0  0  0  0  0  0  0  0  0  0  0  0
   37.2344   25.1300   38.5580 H   0  0  0  0  0  0  0  0  0  0  0  0
   37.0307   25.5418   36.5459 H   0  0  0  0  0  0  0  0  0  0  0  0
   38.3736   25.1068   35.4350 H   0  0  0  0  0  0  0  0  0  0  0  0
   36.8593   24.1406   35.4350 H   0  0  0  0  0  0  0  0  0  0  0  0
  1 19  1  0
  2  1  2  0
  3  2  1  0
  4  5  1  0
  4  3  2  0
  5  1  1  0
  6  4  1  0
  7  6  2  0
  8  9  1  0
  8  7  1  0
  9 10  2  0
 10  6  1  0
 11  9  1  0
 12 11  1  0
 13 12  2  0
 14 13  1  0
 14 16  1  0
 15 14  2  0
 16 17  1  0
 17 11  1  0
 17 18  2  0
 20 19  1  0
 20 27  1  0
 21 22  2  0
 23 20  1  0
 23 22  1  0
 24 23  2  0
 25 24  1  0
 25 26  2  0
 26 21  1  0
 28 20  1  0
  2 29  1  0
  3 30  1  0
  7 31  1  0
 12 32  1  0
 13 33  1  0
 16 34  1  0
 19 35  1  0
 19 36  1  0
 21 37  1  0
 22 38  1  0
 25 39  1  0
 27 40  1  0
 27 41  1  0
 27 42  1  0
 28 43  1  0
 28 44  1  0
 28 45  1  0
M  ISO  8  29  14  30  14  31  14  32  14  33  14  34   9  35   8  36   8
M  ISO  8  37  14  38  14  39  14  40   8  41   8  42   8  43   8  44   8
M  ISO  1  45   8
M  END
>  <minimizedAffinity>  (1) 
-5.07035112

>  <minimizedRMSD>  (1) 
0.161704972

$$$$
